
 OpenBabel03242523173D

 30 32  0  0  0  0  0  0  0  0999 V2000
   38.9420   27.4310   43.2480 C   0  0  0  0  0  0  0  0  0  0  0  0
   39.6710   28.5060   42.9070 C   0  0  0  0  0  0  0  0  0  0  0  0
   41.0380   28.3170   42.9630 C   0  0  0  0  0  0  0  0  0  0  0  0
   41.5320   27.0760   43.3550 N   0  0  0  0  0  0  0  0  0  0  0  0
   40.7560   26.0610   43.6800 C   0  0  0  0  0  0  0  0  0  0  0  0
   39.3890   26.2040   43.6380 N   0  0  0  0  0  0  0  0  0  0  0  0
   41.7460   29.1050   42.7110 H   0  0  0  0  0  0  0  0  0  0  0  0
   41.3240   25.1830   43.9570 H   0  0  0  0  0  0  0  0  0  0  0  0
   39.1550   29.7740   42.5770 C   0  0  0  0  0  0  0  0  0  0  0  0
   39.7300   31.0080   42.5780 C   0  0  0  0  0  0  0  0  0  0  0  0
   39.5550   30.4150   41.1800 C   0  0  0  0  0  0  0  0  0  0  0  0
   38.0030   29.6360   42.3480 H   0  0  0  0  0  0  0  0  0  0  0  0
   40.8230   31.1870   42.8180 H   0  0  0  0  0  0  0  0  0  0  0  0
   39.1770   31.9700   42.6920 H   0  0  0  0  0  0  0  0  0  0  0  0
   40.4210   29.8810   40.7430 H   0  0  0  0  0  0  0  0  0  0  0  0
   38.7910   30.8040   40.5320 H   0  0  0  0  0  0  0  0  0  0  0  0
   37.4900   27.2550   43.1520 C   0  0  0  0  0  0  0  0  0  0  0  0
   36.3790   27.4970   43.6180 O   0  0  0  0  0  0  0  0  0  0  0  0
   36.7680   26.7980   40.7250 C   0  0  0  0  0  0  0  0  0  0  0  0
   37.1180   26.3970   41.9910 C   0  0  0  0  0  0  0  0  0  0  0  0
   37.1790   24.9980   42.1440 C   0  0  0  0  0  0  0  0  0  0  0  0
   37.4520   24.6480   43.1410 H   0  0  0  0  0  0  0  0  0  0  0  0
   36.9370   24.0220   41.2010 C   0  0  0  0  0  0  0  0  0  0  0  0
   37.0250   22.9860   41.4750 H   0  0  0  0  0  0  0  0  0  0  0  0
   36.5950   24.4960   39.9590 C   0  0  0  0  0  3  0  0  0  0  0  0
   36.5120   25.8490   39.7240 C   0  0  0  0  0  3  0  0  0  0  0  0
   37.4330   29.1410   41.2960 H   0  0  0  0  0  0  0  0  0  0  0  0
   36.5630   28.4730   40.4270 S   0  0  0  0  0  0  0  0  0  0  0  0
   35.2370   29.0550   40.6870 O   0  0  0  0  0  0  0  0  0  0  0  0
   37.0950   28.8770   39.0520 O   0  0  0  0  0  0  0  0  0  0  0  0
  1  6  1  0  0  0  0
  2  3  1  0  0  0  0
  2  1  2  0  0  0  0
  3  4  2  0  0  0  0
  4  5  1  0  0  0  0
  5  8  1  0  0  0  0
  6  5  2  0  0  0  0
  7  3  1  0  0  0  0
  9 10  1  0  0  0  0
  9  2  1  0  0  0  0
 10 14  1  0  0  0  0
 10 13  1  0  0  0  0
 11  9  1  0  0  0  0
 11 10  1  0  0  0  0
 12  9  1  0  0  0  0
 15 11  1  0  0  0  0
 16 11  1  0  0  0  0
 17  1  1  0  0  0  0
 17 18  2  0  0  0  0
 19 20  1  0  0  0  0
 20 21  2  0  0  0  0
 20 17  1  0  0  0  0
 21 22  1  0  0  0  0
 23 24  1  0  0  0  0
 23 21  1  0  0  0  0
 25 23  2  0  0  0  0
 26 25  1  0  0  0  0
 26 19  2  0  0  0  0
 28 29  2  0  0  0  0
 28 19  1  0  0  0  0
 28 27  1  0  0  0  0
 30 28  2  0  0  0  0
M  END
>  <minimizedAffinity>
-5.171731

$$$$

 OpenBabel03242523173D

 30 32  0  0  0  0  0  0  0  0999 V2000
   37.3230   28.7660   42.2710 C   0  0  0  0  0  0  0  0  0  0  0  0
   36.6740   29.3110   41.2300 C   0  0  0  0  0  0  0  0  0  0  0  0
   37.2430   30.4700   40.7390 C   0  0  0  0  0  0  0  0  0  0  0  0
   38.3980   30.9620   41.3410 N   0  0  0  0  0  0  0  0  0  0  0  0
   38.9830   30.3750   42.3650 C   0  0  0  0  0  0  0  0  0  0  0  0
   38.4510   29.2180   42.8860 N   0  0  0  0  0  0  0  0  0  0  0  0
   36.8210   31.0150   39.8960 H   0  0  0  0  0  0  0  0  0  0  0  0
   39.8660   30.9060   42.6930 H   0  0  0  0  0  0  0  0  0  0  0  0
   35.4700   28.8360   40.6750 C   0  0  0  0  0  0  0  0  0  0  0  0
   34.6520   29.3560   39.7200 C   0  0  0  0  0  0  0  0  0  0  0  0
   35.5050   28.1880   39.2260 C   0  0  0  0  0  0  0  0  0  0  0  0
   35.1740   27.8550   41.2650 H   0  0  0  0  0  0  0  0  0  0  0  0
   34.8840   30.3080   39.1500 H   0  0  0  0  0  0  0  0  0  0  0  0
   33.5610   29.1410   39.6250 H   0  0  0  0  0  0  0  0  0  0  0  0
   36.4570   28.4350   38.7150 H   0  0  0  0  0  0  0  0  0  0  0  0
   35.0460   27.2310   39.0570 H   0  0  0  0  0  0  0  0  0  0  0  0
   37.0710   27.4750   42.9190 C   0  0  0  0  0  0  0  0  0  0  0  0
   36.3060   26.7720   43.5750 O   0  0  0  0  0  0  0  0  0  0  0  0
   38.4220   25.6100   41.7730 C   0  0  0  0  0  0  0  0  0  0  0  0
   38.2260   26.5450   42.7580 C   0  0  0  0  0  0  0  0  0  0  0  0
   39.2980   26.6450   43.6650 C   0  0  0  0  0  0  0  0  0  0  0  0
   39.1690   27.3790   44.4620 H   0  0  0  0  0  0  0  0  0  0  0  0
   40.4800   25.9370   43.6740 C   0  0  0  0  0  0  0  0  0  0  0  0
   41.2080   26.1280   44.4420 H   0  0  0  0  0  0  0  0  0  0  0  0
   40.6090   25.0210   42.6590 C   0  0  0  0  0  3  0  0  0  0  0  0
   39.6070   24.8600   41.7310 C   0  0  0  0  0  3  0  0  0  0  0  0
   36.3010   26.4270   40.7260 H   0  0  0  0  0  0  0  0  0  0  0  0
   37.1530   25.3180   40.6580 S   0  0  0  0  0  0  0  0  0  0  0  0
   36.2880   24.1530   40.8980 O   0  0  0  0  0  0  0  0  0  0  0  0
   37.6420   25.3670   39.2110 O   0  0  0  0  0  0  0  0  0  0  0  0
  1  6  1  0  0  0  0
  1 17  1  0  0  0  0
  2  1  2  0  0  0  0
  3  2  1  0  0  0  0
  3  4  2  0  0  0  0
  4  5  1  0  0  0  0
  5  8  1  0  0  0  0
  5  6  2  0  0  0  0
  7  3  1  0  0  0  0
  9  2  1  0  0  0  0
  9 12  1  0  0  0  0
 10  9  1  0  0  0  0
 11 10  1  0  0  0  0
 11  9  1  0  0  0  0
 13 10  1  0  0  0  0
 14 10  1  0  0  0  0
 15 11  1  0  0  0  0
 16 11  1  0  0  0  0
 17 18  2  0  0  0  0
 19 20  1  0  0  0  0
 20 17  1  0  0  0  0
 20 21  2  0  0  0  0
 21 23  1  0  0  0  0
 21 22  1  0  0  0  0
 23 24  1  0  0  0  0
 25 23  2  0  0  0  0
 26 19  2  0  0  0  0
 26 25  1  0  0  0  0
 28 27  1  0  0  0  0
 28 29  2  0  0  0  0
 28 19  1  0  0  0  0
 30 28  2  0  0  0  0
M  END
>  <minimizedAffinity>
-5.12032318

$$$$

 OpenBabel03242523173D

 30 32  0  0  0  0  0  0  0  0999 V2000
   38.3180   29.6510   41.6930 C   0  0  0  0  0  0  0  0  0  0  0  0
   38.3490   28.3970   42.1710 C   0  0  0  0  0  0  0  0  0  0  0  0
   39.5570   28.0220   42.7280 C   0  0  0  0  0  0  0  0  0  0  0  0
   40.6040   28.9390   42.7470 N   0  0  0  0  0  0  0  0  0  0  0  0
   40.5040   30.1580   42.2560 C   0  0  0  0  0  0  0  0  0  0  0  0
   39.3200   30.5740   41.6920 N   0  0  0  0  0  0  0  0  0  0  0  0
   39.7200   27.0340   43.1540 H   0  0  0  0  0  0  0  0  0  0  0  0
   41.4220   30.7200   42.3630 H   0  0  0  0  0  0  0  0  0  0  0  0
   37.3010   27.4600   42.0840 C   0  0  0  0  0  0  0  0  0  0  0  0
   37.1730   26.2020   42.5880 C   0  0  0  0  0  0  0  0  0  0  0  0
   36.3620   27.2520   43.3480 C   0  0  0  0  0  0  0  0  0  0  0  0
   36.4790   27.9180   41.3680 H   0  0  0  0  0  0  0  0  0  0  0  0
   37.9500   25.7160   43.2560 H   0  0  0  0  0  0  0  0  0  0  0  0
   36.5200   25.4050   42.1600 H   0  0  0  0  0  0  0  0  0  0  0  0
   36.8260   27.6950   44.2510 H   0  0  0  0  0  0  0  0  0  0  0  0
   35.2950   27.2830   43.2320 H   0  0  0  0  0  0  0  0  0  0  0  0
   37.1630   30.3960   41.1830 C   0  0  0  0  0  0  0  0  0  0  0  0
   36.1230   31.0040   41.4310 O   0  0  0  0  0  0  0  0  0  0  0  0
   37.6320   31.5380   38.9250 C   0  0  0  0  0  0  0  0  0  0  0  0
   37.1870   30.4920   39.6950 C   0  0  0  0  0  0  0  0  0  0  0  0
   36.7710   29.3750   38.9440 C   0  0  0  0  0  0  0  0  0  0  0  0
   36.4080   28.5280   39.5280 H   0  0  0  0  0  0  0  0  0  0  0  0
   36.7630   29.2190   37.5750 C   0  0  0  0  0  0  0  0  0  0  0  0
   36.4110   28.2980   37.1470 H   0  0  0  0  0  0  0  0  0  0  0  0
   37.2240   30.3040   36.8700 C   0  0  0  0  0  3  0  0  0  0  0  0
   37.6480   31.4360   37.5270 C   0  0  0  0  0  3  0  0  0  0  0  0
   38.1370   32.7100   41.0780 H   0  0  0  0  0  0  0  0  0  0  0  0
   38.0770   32.9960   39.7090 S   0  0  0  0  0  0  0  0  0  0  0  0
   37.1600   34.1400   39.5950 O   0  0  0  0  0  0  0  0  0  0  0  0
   39.5180   33.3970   39.3930 O   0  0  0  0  0  0  0  0  0  0  0  0
  1  2  1  0  0  0  0
  2  3  2  0  0  0  0
  3  4  1  0  0  0  0
  3  7  1  0  0  0  0
  5  8  1  0  0  0  0
  5  4  2  0  0  0  0
  6  1  2  0  0  0  0
  6  5  1  0  0  0  0
  9  2  1  0  0  0  0
  9 10  1  0  0  0  0
  9 11  1  0  0  0  0
 10 13  1  0  0  0  0
 10 11  1  0  0  0  0
 11 15  1  0  0  0  0
 12  9  1  0  0  0  0
 14 10  1  0  0  0  0
 16 11  1  0  0  0  0
 17 18  2  0  0  0  0
 17  1  1  0  0  0  0
 19 20  1  0  0  0  0
 19 28  1  0  0  0  0
 20 17  1  0  0  0  0
 21 22  1  0  0  0  0
 21 20  2  0  0  0  0
 23 21  1  0  0  0  0
 24 23  1  0  0  0  0
 25 26  1  0  0  0  0
 25 23  2  0  0  0  0
 26 19  2  0  0  0  0
 28 27  1  0  0  0  0
 29 28  2  0  0  0  0
 30 28  2  0  0  0  0
M  END
>  <minimizedAffinity>
-5.08939362

$$$$

 OpenBabel03242523173D

 30 32  0  0  0  0  0  0  0  0999 V2000
   36.3920   27.4760   39.9870 C   0  0  0  0  0  0  0  0  0  0  0  0
   36.9410   27.2780   41.1960 C   0  0  0  0  0  0  0  0  0  0  0  0
   37.8770   26.2630   41.2440 C   0  0  0  0  0  0  0  0  0  0  0  0
   38.1640   25.5530   40.0820 N   0  0  0  0  0  0  0  0  0  0  0  0
   37.5830   25.8010   38.9240 C   0  0  0  0  0  0  0  0  0  0  0  0
   36.6450   26.8040   38.8300 N   0  0  0  0  0  0  0  0  0  0  0  0
   38.4010   25.9960   42.1610 H   0  0  0  0  0  0  0  0  0  0  0  0
   37.9360   25.1460   38.1400 H   0  0  0  0  0  0  0  0  0  0  0  0
   36.5920   27.9600   42.3770 C   0  0  0  0  0  0  0  0  0  0  0  0
   36.9120   27.7290   43.6800 C   0  0  0  0  0  0  0  0  0  0  0  0
   37.6760   28.8990   43.0600 C   0  0  0  0  0  0  0  0  0  0  0  0
   35.8300   28.8140   42.0770 H   0  0  0  0  0  0  0  0  0  0  0  0
   37.6160   26.9050   44.0120 H   0  0  0  0  0  0  0  0  0  0  0  0
   36.3000   28.0510   44.5550 H   0  0  0  0  0  0  0  0  0  0  0  0
   38.6830   28.6880   42.6510 H   0  0  0  0  0  0  0  0  0  0  0  0
   37.4150   29.9050   43.3330 H   0  0  0  0  0  0  0  0  0  0  0  0
   35.4920   28.5550   39.5690 C   0  0  0  0  0  0  0  0  0  0  0  0
   34.3380   28.9320   39.3770 O   0  0  0  0  0  0  0  0  0  0  0  0
   36.6590   30.1460   37.9170 C   0  0  0  0  0  0  0  0  0  0  0  0
   36.2480   29.7780   39.1740 C   0  0  0  0  0  0  0  0  0  0  0  0
   36.5440   30.7320   40.1670 C   0  0  0  0  0  0  0  0  0  0  0  0
   36.2320   30.4670   41.1790 H   0  0  0  0  0  0  0  0  0  0  0  0
   37.1740   31.9490   40.0240 C   0  0  0  0  0  0  0  0  0  0  0  0
   37.3300   32.5720   40.8870 H   0  0  0  0  0  0  0  0  0  0  0  0
   37.5540   32.2520   38.7400 C   0  0  0  0  0  3  0  0  0  0  0  0
   37.3040   31.3740   37.7110 C   0  0  0  0  0  3  0  0  0  0  0  0
   36.0900   27.8120   37.2160 H   0  0  0  0  0  0  0  0  0  0  0  0
   36.4460   29.0330   36.6310 S   0  0  0  0  0  0  0  0  0  0  0  0
   37.6150   28.7300   35.7910 O   0  0  0  0  0  0  0  0  0  0  0  0
   35.2170   29.3650   35.7860 O   0  0  0  0  0  0  0  0  0  0  0  0
  1  2  1  0  0  0  0
  2  3  2  0  0  0  0
  2  9  1  0  0  0  0
  3  7  1  0  0  0  0
  4  3  1  0  0  0  0
  5  4  2  0  0  0  0
  6  5  1  0  0  0  0
  6  1  2  0  0  0  0
  8  5  1  0  0  0  0
  9 11  1  0  0  0  0
  9 10  1  0  0  0  0
 10 13  1  0  0  0  0
 10 14  1  0  0  0  0
 11 16  1  0  0  0  0
 11 10  1  0  0  0  0
 12  9  1  0  0  0  0
 15 11  1  0  0  0  0
 17  1  1  0  0  0  0
 18 17  2  0  0  0  0
 19 20  1  0  0  0  0
 20 17  1  0  0  0  0
 20 21  2  0  0  0  0
 21 22  1  0  0  0  0
 23 21  1  0  0  0  0
 23 24  1  0  0  0  0
 25 23  2  0  0  0  0
 26 19  2  0  0  0  0
 26 25  1  0  0  0  0
 28 27  1  0  0  0  0
 28 19  1  0  0  0  0
 29 28  2  0  0  0  0
 30 28  2  0  0  0  0
M  END
>  <minimizedAffinity>
-4.98762941

$$$$

 OpenBabel03242523173D

 30 32  0  0  0  0  0  0  0  0999 V2000
   36.8290   28.2030   41.5190 C   0  0  0  0  0  0  0  0  0  0  0  0
   37.3590   26.9950   41.2700 C   0  0  0  0  0  0  0  0  0  0  0  0
   38.1620   26.4990   42.2790 C   0  0  0  0  0  0  0  0  0  0  0  0
   38.3530   27.2620   43.4260 N   0  0  0  0  0  0  0  0  0  0  0  0
   37.8020   28.4470   43.6040 C   0  0  0  0  0  0  0  0  0  0  0  0
   36.9940   28.9790   42.6260 N   0  0  0  0  0  0  0  0  0  0  0  0
   38.6530   25.5290   42.2090 H   0  0  0  0  0  0  0  0  0  0  0  0
   38.0680   28.8840   44.5570 H   0  0  0  0  0  0  0  0  0  0  0  0
   37.2090   26.2640   40.0750 C   0  0  0  0  0  0  0  0  0  0  0  0
   37.8750   25.1790   39.5940 C   0  0  0  0  0  0  0  0  0  0  0  0
   36.4830   24.8530   40.1350 C   0  0  0  0  0  0  0  0  0  0  0  0
   36.3930   26.8190   39.4240 H   0  0  0  0  0  0  0  0  0  0  0  0
   38.6830   24.6340   40.1730 H   0  0  0  0  0  0  0  0  0  0  0  0
   37.9710   24.9160   38.5140 H   0  0  0  0  0  0  0  0  0  0  0  0
   36.4160   24.4960   41.1810 H   0  0  0  0  0  0  0  0  0  0  0  0
   35.6860   24.6330   39.4480 H   0  0  0  0  0  0  0  0  0  0  0  0
   35.8300   28.9310   40.7330 C   0  0  0  0  0  0  0  0  0  0  0  0
   34.6540   29.0470   40.3940 O   0  0  0  0  0  0  0  0  0  0  0  0
   36.7430   30.0800   38.6190 C   0  0  0  0  0  0  0  0  0  0  0  0
   36.4470   30.0470   39.9590 C   0  0  0  0  0  0  0  0  0  0  0  0
   36.7200   31.2560   40.6280 C   0  0  0  0  0  0  0  0  0  0  0  0
   36.4980   31.2590   41.6970 H   0  0  0  0  0  0  0  0  0  0  0  0
   37.2290   32.4260   40.1080 C   0  0  0  0  0  0  0  0  0  0  0  0
   37.3840   33.2720   40.7540 H   0  0  0  0  0  0  0  0  0  0  0  0
   37.4980   32.3870   38.7620 C   0  0  0  0  0  3  0  0  0  0  0  0
   37.2620   31.2450   38.0340 C   0  0  0  0  0  3  0  0  0  0  0  0
   36.3020   27.6170   38.6230 H   0  0  0  0  0  0  0  0  0  0  0  0
   36.5490   28.6440   37.7050 S   0  0  0  0  0  0  0  0  0  0  0  0
   37.6960   28.1810   36.9090 O   0  0  0  0  0  0  0  0  0  0  0  0
   35.2630   28.6620   36.8780 O   0  0  0  0  0  0  0  0  0  0  0  0
  1  6  1  0  0  0  0
  2  1  2  0  0  0  0
  2  3  1  0  0  0  0
  3  4  2  0  0  0  0
  4  5  1  0  0  0  0
  5  8  1  0  0  0  0
  6  5  2  0  0  0  0
  7  3  1  0  0  0  0
  9 11  1  0  0  0  0
  9  2  1  0  0  0  0
 10  9  1  0  0  0  0
 10 11  1  0  0  0  0
 10 13  1  0  0  0  0
 11 15  1  0  0  0  0
 12  9  1  0  0  0  0
 14 10  1  0  0  0  0
 16 11  1  0  0  0  0
 17  1  1  0  0  0  0
 18 17  2  0  0  0  0
 19 20  1  0  0  0  0
 20 21  2  0  0  0  0
 20 17  1  0  0  0  0
 21 22  1  0  0  0  0
 23 21  1  0  0  0  0
 23 24  1  0  0  0  0
 25 23  2  0  0  0  0
 26 19  2  0  0  0  0
 26 25  1  0  0  0  0
 28 19  1  0  0  0  0
 28 27  1  0  0  0  0
 29 28  2  0  0  0  0
 30 28  2  0  0  0  0
M  END
>  <minimizedAffinity>
-4.95181942

$$$$

 OpenBabel03242523173D

 30 32  0  0  0  0  0  0  0  0999 V2000
   37.5600   30.1780   41.4310 C   0  0  0  0  0  0  0  0  0  0  0  0
   37.8580   31.3450   40.8390 C   0  0  0  0  0  0  0  0  0  0  0  0
   39.0500   31.9120   41.2470 C   0  0  0  0  0  0  0  0  0  0  0  0
   39.8160   31.2540   42.2050 N   0  0  0  0  0  0  0  0  0  0  0  0
   39.4610   30.1060   42.7490 C   0  0  0  0  0  0  0  0  0  0  0  0
   38.2810   29.5060   42.3710 N   0  0  0  0  0  0  0  0  0  0  0  0
   39.4140   32.8570   40.8470 H   0  0  0  0  0  0  0  0  0  0  0  0
   40.1840   29.7530   43.4710 H   0  0  0  0  0  0  0  0  0  0  0  0
   37.0390   32.0310   39.9200 C   0  0  0  0  0  0  0  0  0  0  0  0
   37.2230   33.2000   39.2470 C   0  0  0  0  0  0  0  0  0  0  0  0
   37.4040   31.9560   38.3760 C   0  0  0  0  0  0  0  0  0  0  0  0
   36.0150   31.4420   39.8550 H   0  0  0  0  0  0  0  0  0  0  0  0
   38.1780   33.8080   39.3030 H   0  0  0  0  0  0  0  0  0  0  0  0
   36.4040   33.8550   38.8680 H   0  0  0  0  0  0  0  0  0  0  0  0
   38.4360   31.5770   38.2400 H   0  0  0  0  0  0  0  0  0  0  0  0
   36.6460   31.6970   37.6600 H   0  0  0  0  0  0  0  0  0  0  0  0
   36.4610   29.2600   41.1190 C   0  0  0  0  0  0  0  0  0  0  0  0
   35.2620   29.1090   40.8930 O   0  0  0  0  0  0  0  0  0  0  0  0
   37.6080   27.2540   39.9860 C   0  0  0  0  0  0  0  0  0  0  0  0
   36.9350   27.8490   41.0250 C   0  0  0  0  0  0  0  0  0  0  0  0
   36.7490   27.0040   42.1360 C   0  0  0  0  0  0  0  0  0  0  0  0
   36.2140   27.4490   42.9770 H   0  0  0  0  0  0  0  0  0  0  0  0
   37.1530   25.6960   42.2940 C   0  0  0  0  0  0  0  0  0  0  0  0
   36.9340   25.1790   43.2110 H   0  0  0  0  0  0  0  0  0  0  0  0
   37.8220   25.1670   41.2170 C   0  0  0  0  0  3  0  0  0  0  0  0
   38.0450   25.9250   40.0910 C   0  0  0  0  0  3  0  0  0  0  0  0
   36.8750   29.1760   38.5610 H   0  0  0  0  0  0  0  0  0  0  0  0
   37.8170   28.1400   38.5350 S   0  0  0  0  0  0  0  0  0  0  0  0
   37.5800   27.4360   37.2650 O   0  0  0  0  0  0  0  0  0  0  0  0
   39.1430   28.9010   38.5160 O   0  0  0  0  0  0  0  0  0  0  0  0
  1  6  1  0  0  0  0
  2  3  1  0  0  0  0
  2  1  2  0  0  0  0
  3  4  2  0  0  0  0
  4  5  1  0  0  0  0
  5  8  1  0  0  0  0
  6  5  2  0  0  0  0
  7  3  1  0  0  0  0
  9  2  1  0  0  0  0
 10 13  1  0  0  0  0
 10  9  1  0  0  0  0
 11 10  1  0  0  0  0
 11  9  1  0  0  0  0
 12  9  1  0  0  0  0
 14 10  1  0  0  0  0
 15 11  1  0  0  0  0
 16 11  1  0  0  0  0
 17  1  1  0  0  0  0
 18 17  2  0  0  0  0
 19 26  2  0  0  0  0
 19 20  1  0  0  0  0
 20 17  1  0  0  0  0
 20 21  2  0  0  0  0
 21 23  1  0  0  0  0
 21 22  1  0  0  0  0
 23 24  1  0  0  0  0
 25 23  2  0  0  0  0
 26 25  1  0  0  0  0
 28 27  1  0  0  0  0
 28 19  1  0  0  0  0
 29 28  2  0  0  0  0
 30 28  2  0  0  0  0
M  END
>  <minimizedAffinity>
-4.86417961

$$$$

 OpenBabel03242523173D

 30 32  0  0  0  0  0  0  0  0999 V2000
   36.5960   30.5810   39.6160 C   0  0  0  0  0  0  0  0  0  0  0  0
   37.0790   30.5420   38.3640 C   0  0  0  0  0  0  0  0  0  0  0  0
   37.8450   31.6350   38.0070 C   0  0  0  0  0  0  0  0  0  0  0  0
   38.0460   32.6510   38.9370 N   0  0  0  0  0  0  0  0  0  0  0  0
   37.5390   32.6250   40.1540 C   0  0  0  0  0  0  0  0  0  0  0  0
   36.7700   31.5550   40.5520 N   0  0  0  0  0  0  0  0  0  0  0  0
   38.2990   31.7320   37.0220 H   0  0  0  0  0  0  0  0  0  0  0  0
   37.8050   33.5020   40.7280 H   0  0  0  0  0  0  0  0  0  0  0  0
   36.8100   29.5390   37.4120 C   0  0  0  0  0  0  0  0  0  0  0  0
   35.6500   29.1490   36.8170 C   0  0  0  0  0  0  0  0  0  0  0  0
   36.5600   29.9710   35.9040 C   0  0  0  0  0  0  0  0  0  0  0  0
   37.8200   28.9510   37.2280 H   0  0  0  0  0  0  0  0  0  0  0  0
   34.6560   29.6670   36.9870 H   0  0  0  0  0  0  0  0  0  0  0  0
   35.4560   28.1320   36.4010 H   0  0  0  0  0  0  0  0  0  0  0  0
   36.3660   31.0590   35.8410 H   0  0  0  0  0  0  0  0  0  0  0  0
   37.0970   29.4810   35.1120 H   0  0  0  0  0  0  0  0  0  0  0  0
   35.8840   29.5270   40.3430 C   0  0  0  0  0  0  0  0  0  0  0  0
   34.8190   28.9580   40.5740 O   0  0  0  0  0  0  0  0  0  0  0  0
   37.4190   27.5620   40.9790 C   0  0  0  0  0  0  0  0  0  0  0  0
   36.8010   28.7600   41.2360 C   0  0  0  0  0  0  0  0  0  0  0  0
   37.1550   29.3250   42.4760 C   0  0  0  0  0  0  0  0  0  0  0  0
   36.6780   30.2780   42.7100 H   0  0  0  0  0  0  0  0  0  0  0  0
   38.0220   28.8290   43.4260 C   0  0  0  0  0  0  0  0  0  0  0  0
   38.1900   29.3820   44.3320 H   0  0  0  0  0  0  0  0  0  0  0  0
   38.6050   27.6290   43.1010 C   0  0  0  0  0  3  0  0  0  0  0  0
   38.3120   27.0090   41.9080 C   0  0  0  0  0  3  0  0  0  0  0  0
   36.1450   27.5590   38.8250 H   0  0  0  0  0  0  0  0  0  0  0  0
   37.0020   26.7190   39.5450 S   0  0  0  0  0  0  0  0  0  0  0  0
   36.2700   25.4510   39.6880 O   0  0  0  0  0  0  0  0  0  0  0  0
   38.1950   26.5760   38.6000 O   0  0  0  0  0  0  0  0  0  0  0  0
  1 17  1  0  0  0  0
  1  6  1  0  0  0  0
  2  1  2  0  0  0  0
  3  2  1  0  0  0  0
  3  4  2  0  0  0  0
  4  5  1  0  0  0  0
  5  6  2  0  0  0  0
  5  8  1  0  0  0  0
  7  3  1  0  0  0  0
  9  2  1  0  0  0  0
 10 13  1  0  0  0  0
 10  9  1  0  0  0  0
 11 10  1  0  0  0  0
 11  9  1  0  0  0  0
 12  9  1  0  0  0  0
 14 10  1  0  0  0  0
 15 11  1  0  0  0  0
 16 11  1  0  0  0  0
 17 18  2  0  0  0  0
 17 20  1  0  0  0  0
 19 20  2  0  0  0  0
 19 26  1  0  0  0  0
 20 21  1  0  0  0  0
 21 22  1  0  0  0  0
 21 23  2  0  0  0  0
 23 24  1  0  0  0  0
 25 23  1  0  0  0  0
 26 25  2  0  0  0  0
 27 28  1  0  0  0  0
 28 29  2  0  0  0  0
 28 19  1  0  0  0  0
 30 28  2  0  0  0  0
M  END
>  <minimizedAffinity>
-4.81152058

$$$$

 OpenBabel03242523173D

 30 32  0  0  0  0  0  0  0  0999 V2000
   38.8110   26.6980   42.8100 C   0  0  0  0  0  0  0  0  0  0  0  0
   38.6210   25.6290   42.0210 C   0  0  0  0  0  0  0  0  0  0  0  0
   39.6220   24.6790   42.0860 C   0  0  0  0  0  0  0  0  0  0  0  0
   40.7070   24.8990   42.9300 N   0  0  0  0  0  0  0  0  0  0  0  0
   40.8310   25.9770   43.6790 C   0  0  0  0  0  0  0  0  0  0  0  0
   39.8570   26.9490   43.6460 N   0  0  0  0  0  0  0  0  0  0  0  0
   39.5940   23.7620   41.5000 H   0  0  0  0  0  0  0  0  0  0  0  0
   41.7390   25.9670   44.2650 H   0  0  0  0  0  0  0  0  0  0  0  0
   37.5510   25.4530   41.1220 C   0  0  0  0  0  0  0  0  0  0  0  0
   37.3280   24.5180   40.1580 C   0  0  0  0  0  0  0  0  0  0  0  0
   36.4910   24.3080   41.4200 C   0  0  0  0  0  0  0  0  0  0  0  0
   36.8170   26.3690   41.2660 H   0  0  0  0  0  0  0  0  0  0  0  0
   38.0200   23.6400   39.9690 H   0  0  0  0  0  0  0  0  0  0  0  0
   36.6880   24.6690   39.2570 H   0  0  0  0  0  0  0  0  0  0  0  0
   36.8850   23.6040   42.1790 H   0  0  0  0  0  0  0  0  0  0  0  0
   35.4400   24.5340   41.4020 H   0  0  0  0  0  0  0  0  0  0  0  0
   37.8800   27.7970   43.0840 C   0  0  0  0  0  0  0  0  0  0  0  0
   36.8790   28.1900   43.6790 O   0  0  0  0  0  0  0  0  0  0  0  0
   37.6700   29.5030   41.1690 C   0  0  0  0  0  0  0  0  0  0  0  0
   38.2430   29.0260   42.3220 C   0  0  0  0  0  0  0  0  0  0  0  0
   39.2480   29.8650   42.8420 C   0  0  0  0  0  0  0  0  0  0  0  0
   39.7250   29.5110   43.7570 H   0  0  0  0  0  0  0  0  0  0  0  0
   39.7020   31.0670   42.3440 C   0  0  0  0  0  0  0  0  0  0  0  0
   40.4840   31.5940   42.8600 H   0  0  0  0  0  0  0  0  0  0  0  0
   39.0820   31.4830   41.1920 C   0  0  0  0  0  3  0  0  0  0  0  0
   38.0910   30.7220   40.6170 C   0  0  0  0  0  3  0  0  0  0  0  0
   36.5970   27.2540   40.9390 H   0  0  0  0  0  0  0  0  0  0  0  0
   36.5000   28.5320   40.3770 S   0  0  0  0  0  0  0  0  0  0  0  0
   36.6500   28.3290   38.9280 O   0  0  0  0  0  0  0  0  0  0  0  0
   35.0740   28.9450   40.7430 O   0  0  0  0  0  0  0  0  0  0  0  0
  1 17  1  0  0  0  0
  1  6  1  0  0  0  0
  2  3  1  0  0  0  0
  2  1  2  0  0  0  0
  3  4  2  0  0  0  0
  4  5  1  0  0  0  0
  5  8  1  0  0  0  0
  6  5  2  0  0  0  0
  7  3  1  0  0  0  0
  9 12  1  0  0  0  0
  9 11  1  0  0  0  0
  9  2  1  0  0  0  0
 10  9  1  0  0  0  0
 10 11  1  0  0  0  0
 11 15  1  0  0  0  0
 13 10  1  0  0  0  0
 14 10  1  0  0  0  0
 16 11  1  0  0  0  0
 17 18  2  0  0  0  0
 19 20  1  0  0  0  0
 20 21  2  0  0  0  0
 20 17  1  0  0  0  0
 21 22  1  0  0  0  0
 23 21  1  0  0  0  0
 23 24  1  0  0  0  0
 25 23  2  0  0  0  0
 26 19  2  0  0  0  0
 26 25  1  0  0  0  0
 28 30  2  0  0  0  0
 28 27  1  0  0  0  0
 28 19  1  0  0  0  0
 29 28  2  0  0  0  0
M  END
>  <minimizedAffinity>
-4.79694557

$$$$

 OpenBabel03242523173D

 30 32  0  0  0  0  0  0  0  0999 V2000
   37.3680   28.9850   41.7730 C   0  0  0  0  0  0  0  0  0  0  0  0
   38.7070   28.9210   41.8390 C   0  0  0  0  0  0  0  0  0  0  0  0
   39.2040   27.7200   42.3070 C   0  0  0  0  0  0  0  0  0  0  0  0
   38.3110   26.7120   42.6600 N   0  0  0  0  0  0  0  0  0  0  0  0
   37.0020   26.8440   42.5700 C   0  0  0  0  0  0  0  0  0  0  0  0
   36.4640   28.0230   42.1100 N   0  0  0  0  0  0  0  0  0  0  0  0
   40.2710   27.5310   42.4100 H   0  0  0  0  0  0  0  0  0  0  0  0
   36.4780   25.9540   42.8900 H   0  0  0  0  0  0  0  0  0  0  0  0
   39.5940   29.9740   41.5420 C   0  0  0  0  0  0  0  0  0  0  0  0
   39.7510   31.2050   42.1000 C   0  0  0  0  0  0  0  0  0  0  0  0
   40.8410   30.2080   42.4980 C   0  0  0  0  0  0  0  0  0  0  0  0
   40.2070   29.6550   40.5820 H   0  0  0  0  0  0  0  0  0  0  0  0
   39.1650   31.5600   43.0040 H   0  0  0  0  0  0  0  0  0  0  0  0
   40.1750   32.0950   41.5770 H   0  0  0  0  0  0  0  0  0  0  0  0
   40.7050   29.6620   43.4520 H   0  0  0  0  0  0  0  0  0  0  0  0
   41.8250   30.3060   42.0780 H   0  0  0  0  0  0  0  0  0  0  0  0
   36.5410   30.0460   41.1890 C   0  0  0  0  0  0  0  0  0  0  0  0
   35.9610   31.1190   41.3450 O   0  0  0  0  0  0  0  0  0  0  0  0
   36.7500   30.3220   38.6400 C   0  0  0  0  0  0  0  0  0  0  0  0
   36.2040   29.7580   39.7650 C   0  0  0  0  0  0  0  0  0  0  0  0
   35.2630   28.7470   39.4910 C   0  0  0  0  0  0  0  0  0  0  0  0
   34.8080   28.2810   40.3670 H   0  0  0  0  0  0  0  0  0  0  0  0
   34.8450   28.2760   38.2650 C   0  0  0  0  0  0  0  0  0  0  0  0
   34.1100   27.4930   38.2190 H   0  0  0  0  0  0  0  0  0  0  0  0
   35.4350   28.8850   37.1850 C   0  0  0  0  0  3  0  0  0  0  0  0
   36.3640   29.8820   37.3650 C   0  0  0  0  0  3  0  0  0  0  0  0
   38.5240   31.4100   40.0310 H   0  0  0  0  0  0  0  0  0  0  0  0
   37.8400   31.6320   38.8300 S   0  0  0  0  0  0  0  0  0  0  0  0
   37.2680   32.9820   38.9560 O   0  0  0  0  0  0  0  0  0  0  0  0
   38.9660   31.5920   37.7970 O   0  0  0  0  0  0  0  0  0  0  0  0
  1  2  2  0  0  0  0
  1  6  1  0  0  0  0
  2  3  1  0  0  0  0
  3  7  1  0  0  0  0
  3  4  2  0  0  0  0
  5  4  1  0  0  0  0
  5  8  1  0  0  0  0
  6  5  2  0  0  0  0
  9  2  1  0  0  0  0
  9 10  1  0  0  0  0
  9 11  1  0  0  0  0
 10 11  1  0  0  0  0
 10 13  1  0  0  0  0
 11 15  1  0  0  0  0
 12  9  1  0  0  0  0
 14 10  1  0  0  0  0
 16 11  1  0  0  0  0
 17 18  2  0  0  0  0
 17  1  1  0  0  0  0
 19 28  1  0  0  0  0
 19 20  1  0  0  0  0
 20 17  1  0  0  0  0
 21 20  2  0  0  0  0
 21 22  1  0  0  0  0
 23 21  1  0  0  0  0
 24 23  1  0  0  0  0
 25 26  1  0  0  0  0
 25 23  2  0  0  0  0
 26 19  2  0  0  0  0
 28 29  2  0  0  0  0
 28 27  1  0  0  0  0
 30 28  2  0  0  0  0
M  END
>  <minimizedAffinity>
-4.79175186

$$$$
