
 OpenBabel03242520443D

 25 26  0  0  0  0  0  0  0  0999 V2000
   48.2880   34.8430   42.1360 C   0  0  0  0  0  0  0  0  0  0  0  0
   48.6020   35.9730   41.7090 O   0  0  0  0  0  0  0  0  0  0  0  0
   45.0070   35.0520   43.7760 C   0  0  0  0  0  0  0  0  0  0  0  0
   46.0920   35.2900   42.8920 C   0  0  0  0  0  0  0  0  0  0  0  0
   47.2490   34.5410   43.0730 C   0  0  0  0  0  0  0  0  0  0  0  0
   47.3160   33.6300   44.0560 N   0  0  0  0  0  0  0  0  0  0  0  0
   46.2580   33.4230   44.8900 C   0  0  0  0  0  0  0  0  0  0  0  0
   45.1200   34.1290   44.7460 N   0  0  0  0  0  0  0  0  0  0  0  0
   43.8030   35.7720   43.6530 N   0  0  0  0  0  0  0  0  0  0  0  0
   45.8930   36.0500   42.1530 H   0  0  0  0  0  0  0  0  0  0  0  0
   46.2790   32.7060   45.6820 H   0  0  0  0  0  0  0  0  0  0  0  0
   43.6420   36.7790   43.8740 H   0  0  0  0  0  0  0  0  0  0  0  0
   43.0350   35.1460   43.2910 H   0  0  0  0  0  0  0  0  0  0  0  0
   48.6960   33.0960   40.4390 C   0  0  0  0  0  0  0  0  0  0  0  0
   49.1070   33.7530   41.5780 C   0  0  0  0  0  0  0  0  0  0  0  0
   50.2790   33.3650   42.1660 C   0  0  0  0  0  0  0  0  0  0  0  0
   50.6520   33.8420   43.0600 H   0  0  0  0  0  0  0  0  0  0  0  0
   51.0770   32.3520   41.6810 C   0  0  0  0  0  0  0  0  0  0  0  0
   52.0020   32.0470   42.1430 H   0  0  0  0  0  0  0  0  0  0  0  0
   50.6910   31.6770   40.5400 C   0  0  0  0  0  3  0  0  0  0  0  0
   49.5060   32.0690   39.9480 C   0  0  0  0  0  3  0  0  0  0  0  0
   46.8800   34.8130   39.9360 H   0  0  0  0  0  0  0  0  0  0  0  0
   47.2320   33.5140   39.6300 S   0  0  0  0  0  0  0  0  0  0  0  0
   47.2300   33.2420   38.1640 O   0  0  0  0  0  0  0  0  0  0  0  0
   46.1270   32.6570   40.2080 O   0  0  0  0  0  0  0  0  0  0  0  0
  1  5  1  0  0  0  0
  2  1  2  0  0  0  0
  3  8  1  0  0  0  0
  4  5  1  0  0  0  0
  4  3  2  0  0  0  0
  5  6  2  0  0  0  0
  6  7  1  0  0  0  0
  7 11  1  0  0  0  0
  8  7  2  0  0  0  0
  9  3  1  0  0  0  0
  9 12  1  0  0  0  0
 10  4  1  0  0  0  0
 13  9  1  0  0  0  0
 14 15  1  0  0  0  0
 15  1  1  0  0  0  0
 15 16  2  0  0  0  0
 16 17  1  0  0  0  0
 18 19  1  0  0  0  0
 18 16  1  0  0  0  0
 20 18  2  0  0  0  0
 21 14  2  0  0  0  0
 21 20  1  0  0  0  0
 23 22  1  0  0  0  0
 23 25  2  0  0  0  0
 23 14  1  0  0  0  0
 24 23  2  0  0  0  0
M  END
>  <minimizedAffinity>
-5.05526924

>  <minimizedRMSD>
2.59662962

$$$$
