
 OpenBabel03242520463D

 25 26  0  0  0  0  0  0  0  0999 V2000
   36.6120   30.1810   40.6950 C   0  0  0  0  0  0  0  0  0  0  0  0
   36.0010   31.1360   41.2190 O   0  0  0  0  0  0  0  0  0  0  0  0
   37.5190   30.9750   37.2240 C   0  0  0  0  0  0  0  0  0  0  0  0
   37.2720   31.0980   38.6180 C   0  0  0  0  0  0  0  0  0  0  0  0
   36.8310   29.9680   39.2970 C   0  0  0  0  0  0  0  0  0  0  0  0
   36.6510   28.8130   38.6390 N   0  0  0  0  0  0  0  0  0  0  0  0
   36.8970   28.7250   37.3010 C   0  0  0  0  0  0  0  0  0  0  0  0
   37.3250   29.7970   36.6080 N   0  0  0  0  0  0  0  0  0  0  0  0
   37.9680   32.0770   36.4710 N   0  0  0  0  0  0  0  0  0  0  0  0
   37.4600   32.0860   39.0080 H   0  0  0  0  0  0  0  0  0  0  0  0
   36.7640   27.8200   36.7480 H   0  0  0  0  0  0  0  0  0  0  0  0
   37.4240   32.9270   36.2060 H   0  0  0  0  0  0  0  0  0  0  0  0
   38.9750   31.9420   36.1860 H   0  0  0  0  0  0  0  0  0  0  0  0
   38.3880   29.3980   42.2210 C   0  0  0  0  0  0  0  0  0  0  0  0
   37.1390   29.2120   41.6720 C   0  0  0  0  0  0  0  0  0  0  0  0
   36.4140   28.1180   42.0590 C   0  0  0  0  0  0  0  0  0  0  0  0
   35.4290   27.9200   41.6640 H   0  0  0  0  0  0  0  0  0  0  0  0
   36.8660   27.1870   42.9690 C   0  0  0  0  0  0  0  0  0  0  0  0
   36.2960   26.3260   43.2730 H   0  0  0  0  0  0  0  0  0  0  0  0
   38.1150   27.3480   43.5340 C   0  0  0  0  0  3  0  0  0  0  0  0
   38.8450   28.4520   43.1440 C   0  0  0  0  0  3  0  0  0  0  0  0
   38.5790   31.7980   41.3820 H   0  0  0  0  0  0  0  0  0  0  0  0
   39.3740   30.7470   41.7950 S   0  0  0  0  0  0  0  0  0  0  0  0
   40.3700   31.1450   42.8300 O   0  0  0  0  0  0  0  0  0  0  0  0
   40.1820   30.3570   40.5760 O   0  0  0  0  0  0  0  0  0  0  0  0
  1  2  2  0  0  0  0
  1 15  1  0  0  0  0
  3  4  1  0  0  0  0
  4 10  1  0  0  0  0
  4  5  2  0  0  0  0
  5  1  1  0  0  0  0
  6  5  1  0  0  0  0
  7  6  2  0  0  0  0
  8  3  2  0  0  0  0
  8  7  1  0  0  0  0
  9  3  1  0  0  0  0
 11  7  1  0  0  0  0
 12  9  1  0  0  0  0
 13  9  1  0  0  0  0
 14 21  1  0  0  0  0
 15 16  1  0  0  0  0
 15 14  2  0  0  0  0
 16 18  2  0  0  0  0
 17 16  1  0  0  0  0
 18 19  1  0  0  0  0
 18 20  1  0  0  0  0
 21 20  2  0  0  0  0
 22 23  1  0  0  0  0
 23 14  1  0  0  0  0
 23 24  2  0  0  0  0
 25 23  2  0  0  0  0
M  END
>  <minimizedAffinity>
-5.11478758

$$$$

 OpenBabel03242520463D

 25 26  0  0  0  0  0  0  0  0999 V2000
   35.5740   29.3670   40.1260 C   0  0  0  0  0  0  0  0  0  0  0  0
   34.3620   29.2200   39.8660 O   0  0  0  0  0  0  0  0  0  0  0  0
   37.5270   31.7360   38.1070 C   0  0  0  0  0  0  0  0  0  0  0  0
   36.7310   30.6240   38.4900 C   0  0  0  0  0  0  0  0  0  0  0  0
   36.3800   30.5120   39.8310 C   0  0  0  0  0  0  0  0  0  0  0  0
   36.7910   31.4340   40.7150 N   0  0  0  0  0  0  0  0  0  0  0  0
   37.5540   32.4910   40.3180 C   0  0  0  0  0  0  0  0  0  0  0  0
   37.9150   32.6340   39.0280 N   0  0  0  0  0  0  0  0  0  0  0  0
   37.9210   31.9150   36.7670 N   0  0  0  0  0  0  0  0  0  0  0  0
   36.4780   29.9670   37.6730 H   0  0  0  0  0  0  0  0  0  0  0  0
   37.8980   33.2420   40.9960 H   0  0  0  0  0  0  0  0  0  0  0  0
   38.6150   31.3490   36.2300 H   0  0  0  0  0  0  0  0  0  0  0  0
   37.4080   32.7300   36.3390 H   0  0  0  0  0  0  0  0  0  0  0  0
   36.5150   27.0840   40.0810 C   0  0  0  0  0  0  0  0  0  0  0  0
   36.1770   28.2070   40.8050 C   0  0  0  0  0  0  0  0  0  0  0  0
   36.4160   28.2090   42.1520 C   0  0  0  0  0  0  0  0  0  0  0  0
   36.1730   29.0590   42.7710 H   0  0  0  0  0  0  0  0  0  0  0  0
   36.9770   27.1480   42.8280 C   0  0  0  0  0  0  0  0  0  0  0  0
   37.1660   27.1490   43.8880 H   0  0  0  0  0  0  0  0  0  0  0  0
   37.3250   26.0100   42.1280 C   0  0  0  0  0  3  0  0  0  0  0  0
   37.0840   26.0090   40.7690 C   0  0  0  0  0  3  0  0  0  0  0  0
   35.1650   27.7670   38.0280 H   0  0  0  0  0  0  0  0  0  0  0  0
   36.2510   26.9900   38.3790 S   0  0  0  0  0  0  0  0  0  0  0  0
   37.4540   27.2640   37.5450 O   0  0  0  0  0  0  0  0  0  0  0  0
   35.8420   25.5690   38.0580 O   0  0  0  0  0  0  0  0  0  0  0  0
  1 15  1  0  0  0  0
  2  1  2  0  0  0  0
  3  4  2  0  0  0  0
  3  8  1  0  0  0  0
  4  5  1  0  0  0  0
  5  1  1  0  0  0  0
  5  6  2  0  0  0  0
  7  6  1  0  0  0  0
  7 11  1  0  0  0  0
  8  7  2  0  0  0  0
  9  3  1  0  0  0  0
 10  4  1  0  0  0  0
 12  9  1  0  0  0  0
 13  9  1  0  0  0  0
 14 21  2  0  0  0  0
 14 15  1  0  0  0  0
 15 16  2  0  0  0  0
 16 17  1  0  0  0  0
 16 18  1  0  0  0  0
 18 19  1  0  0  0  0
 20 18  2  0  0  0  0
 21 20  1  0  0  0  0
 22 23  1  0  0  0  0
 23 14  1  0  0  0  0
 24 23  2  0  0  0  0
 25 23  2  0  0  0  0
M  END
>  <minimizedAffinity>
-5.09481287

$$$$

 OpenBabel03242520463D

 25 26  0  0  0  0  0  0  0  0999 V2000
   36.7450   27.5820   42.5020 C   0  0  0  0  0  0  0  0  0  0  0  0
   36.3630   27.7700   43.6760 O   0  0  0  0  0  0  0  0  0  0  0  0
   36.3930   30.6550   40.5190 C   0  0  0  0  0  0  0  0  0  0  0  0
   36.6480   29.7630   41.5950 C   0  0  0  0  0  0  0  0  0  0  0  0
   36.4610   28.4040   41.3660 C   0  0  0  0  0  0  0  0  0  0  0  0
   36.0540   27.9730   40.1630 N   0  0  0  0  0  0  0  0  0  0  0  0
   35.8170   28.8520   39.1490 C   0  0  0  0  0  0  0  0  0  0  0  0
   35.9860   30.1760   39.3320 N   0  0  0  0  0  0  0  0  0  0  0  0
   36.5600   32.0440   40.6760 N   0  0  0  0  0  0  0  0  0  0  0  0
   36.9680   30.2540   42.5000 H   0  0  0  0  0  0  0  0  0  0  0  0
   35.4910   28.5410   38.1790 H   0  0  0  0  0  0  0  0  0  0  0  0
   35.9650   32.6940   41.2350 H   0  0  0  0  0  0  0  0  0  0  0  0
   37.4030   32.3760   40.1370 H   0  0  0  0  0  0  0  0  0  0  0  0
   38.9360   26.4440   42.4970 C   0  0  0  0  0  0  0  0  0  0  0  0
   37.5700   26.3720   42.3380 C   0  0  0  0  0  0  0  0  0  0  0  0
   37.0130   25.1600   42.0310 C   0  0  0  0  0  0  0  0  0  0  0  0
   35.9490   25.0420   41.8950 H   0  0  0  0  0  0  0  0  0  0  0  0
   37.7450   24.0040   41.8690 C   0  0  0  0  0  0  0  0  0  0  0  0
   37.3070   23.0510   41.6270 H   0  0  0  0  0  0  0  0  0  0  0  0
   39.1160   24.0470   42.0210 C   0  0  0  0  0  3  0  0  0  0  0  0
   39.6770   25.2690   42.3320 C   0  0  0  0  0  3  0  0  0  0  0  0
   38.8580   28.7590   43.5620 H   0  0  0  0  0  0  0  0  0  0  0  0
   39.7270   27.9260   42.8850 S   0  0  0  0  0  0  0  0  0  0  0  0
   41.0390   27.7720   43.5750 O   0  0  0  0  0  0  0  0  0  0  0  0
   40.0280   28.6390   41.5840 O   0  0  0  0  0  0  0  0  0  0  0  0
  1  2  2  0  0  0  0
  3  9  1  0  0  0  0
  3  4  1  0  0  0  0
  4 10  1  0  0  0  0
  5  4  2  0  0  0  0
  5  1  1  0  0  0  0
  6  5  1  0  0  0  0
  7  8  1  0  0  0  0
  7  6  2  0  0  0  0
  8  3  2  0  0  0  0
  9 12  1  0  0  0  0
 11  7  1  0  0  0  0
 13  9  1  0  0  0  0
 14 23  1  0  0  0  0
 15 14  1  0  0  0  0
 15  1  1  0  0  0  0
 16 15  2  0  0  0  0
 17 16  1  0  0  0  0
 18 20  2  0  0  0  0
 18 16  1  0  0  0  0
 19 18  1  0  0  0  0
 20 21  1  0  0  0  0
 21 14  2  0  0  0  0
 23 22  1  0  0  0  0
 23 24  2  0  0  0  0
 25 23  2  0  0  0  0
M  END
>  <minimizedAffinity>
-5.09407377

$$$$

 OpenBabel03242520463D

 25 26  0  0  0  0  0  0  0  0999 V2000
   36.0040   29.1840   40.5820 C   0  0  0  0  0  0  0  0  0  0  0  0
   34.7900   28.9140   40.6960 O   0  0  0  0  0  0  0  0  0  0  0  0
   37.1640   32.4640   39.4030 C   0  0  0  0  0  0  0  0  0  0  0  0
   36.5980   31.4420   40.2100 C   0  0  0  0  0  0  0  0  0  0  0  0
   36.5880   30.1480   39.7010 C   0  0  0  0  0  0  0  0  0  0  0  0
   37.1010   29.8970   38.4870 N   0  0  0  0  0  0  0  0  0  0  0  0
   37.6380   30.8980   37.7350 C   0  0  0  0  0  0  0  0  0  0  0  0
   37.6660   32.1640   38.1930 N   0  0  0  0  0  0  0  0  0  0  0  0
   37.2100   33.7980   39.8520 N   0  0  0  0  0  0  0  0  0  0  0  0
   36.2260   31.7940   41.1590 H   0  0  0  0  0  0  0  0  0  0  0  0
   38.0530   30.7320   36.7640 H   0  0  0  0  0  0  0  0  0  0  0  0
   36.4080   34.4570   39.9620 H   0  0  0  0  0  0  0  0  0  0  0  0
   38.2010   34.0760   40.0790 H   0  0  0  0  0  0  0  0  0  0  0  0
   37.2220   27.1080   41.1320 C   0  0  0  0  0  0  0  0  0  0  0  0
   36.8690   28.3940   41.4760 C   0  0  0  0  0  0  0  0  0  0  0  0
   37.3420   28.9060   42.6530 C   0  0  0  0  0  0  0  0  0  0  0  0
   37.1000   29.9080   42.9750 H   0  0  0  0  0  0  0  0  0  0  0  0
   38.1530   28.2040   43.5180 C   0  0  0  0  0  0  0  0  0  0  0  0
   38.5250   28.6060   44.4450 H   0  0  0  0  0  0  0  0  0  0  0  0
   38.5210   26.9120   43.1990 C   0  0  0  0  0  3  0  0  0  0  0  0
   38.0450   26.3980   42.0110 C   0  0  0  0  0  3  0  0  0  0  0  0
   35.4680   26.9330   39.2890 H   0  0  0  0  0  0  0  0  0  0  0  0
   36.6740   26.3780   39.6680 S   0  0  0  0  0  0  0  0  0  0  0  0
   37.6770   26.3620   38.5660 O   0  0  0  0  0  0  0  0  0  0  0  0
   36.3670   24.9270   39.9670 O   0  0  0  0  0  0  0  0  0  0  0  0
  1  2  2  0  0  0  0
  1 15  1  0  0  0  0
  3  9  1  0  0  0  0
  3  4  1  0  0  0  0
  4 10  1  0  0  0  0
  5  4  2  0  0  0  0
  5  1  1  0  0  0  0
  6  5  1  0  0  0  0
  7  8  1  0  0  0  0
  7  6  2  0  0  0  0
  8  3  2  0  0  0  0
  9 12  1  0  0  0  0
  9 13  1  0  0  0  0
 11  7  1  0  0  0  0
 14 15  2  0  0  0  0
 14 21  1  0  0  0  0
 15 16  1  0  0  0  0
 16 17  1  0  0  0  0
 16 18  2  0  0  0  0
 18 19  1  0  0  0  0
 20 18  1  0  0  0  0
 21 20  2  0  0  0  0
 22 23  1  0  0  0  0
 23 25  2  0  0  0  0
 23 14  1  0  0  0  0
 24 23  2  0  0  0  0
M  END
>  <minimizedAffinity>
-5.07736778

$$$$

 OpenBabel03242520463D

 25 26  0  0  0  0  0  0  0  0999 V2000
   37.3950   30.7480   40.8520 C   0  0  0  0  0  0  0  0  0  0  0  0
   36.3860   31.4740   40.9690 O   0  0  0  0  0  0  0  0  0  0  0  0
   39.4320   31.7980   37.9800 C   0  0  0  0  0  0  0  0  0  0  0  0
   38.3180   31.4820   38.8030 C   0  0  0  0  0  0  0  0  0  0  0  0
   38.5750   31.0370   40.0950 C   0  0  0  0  0  0  0  0  0  0  0  0
   39.8380   30.9170   40.5280 N   0  0  0  0  0  0  0  0  0  0  0  0
   40.8880   31.2280   39.7160 C   0  0  0  0  0  0  0  0  0  0  0  0
   40.6800   31.6610   38.4580 N   0  0  0  0  0  0  0  0  0  0  0  0
   39.2500   32.2540   36.6610 N   0  0  0  0  0  0  0  0  0  0  0  0
   37.3650   31.6270   38.3180 H   0  0  0  0  0  0  0  0  0  0  0  0
   41.9060   31.1430   40.0310 H   0  0  0  0  0  0  0  0  0  0  0  0
   38.9170   31.7020   35.8400 H   0  0  0  0  0  0  0  0  0  0  0  0
   39.5010   33.2760   36.5870 H   0  0  0  0  0  0  0  0  0  0  0  0
   36.6730   28.3940   41.0250 C   0  0  0  0  0  0  0  0  0  0  0  0
   37.2990   29.4800   41.5950 C   0  0  0  0  0  0  0  0  0  0  0  0
   37.8200   29.3440   42.8530 C   0  0  0  0  0  0  0  0  0  0  0  0
   38.3230   30.1600   43.3510 H   0  0  0  0  0  0  0  0  0  0  0  0
   37.7530   28.1780   43.5840 C   0  0  0  0  0  0  0  0  0  0  0  0
   38.1640   28.0710   44.5740 H   0  0  0  0  0  0  0  0  0  0  0  0
   37.1310   27.0740   43.0380 C   0  0  0  0  0  3  0  0  0  0  0  0
   36.6060   27.2120   41.7690 C   0  0  0  0  0  3  0  0  0  0  0  0
   36.6790   29.3830   38.6750 H   0  0  0  0  0  0  0  0  0  0  0  0
   35.9860   28.4700   39.4450 S   0  0  0  0  0  0  0  0  0  0  0  0
   35.8200   27.1510   38.7720 O   0  0  0  0  0  0  0  0  0  0  0  0
   34.5910   29.0420   39.5790 O   0  0  0  0  0  0  0  0  0  0  0  0
  1  2  2  0  0  0  0
  1 15  1  0  0  0  0
  3  8  2  0  0  0  0
  3  4  1  0  0  0  0
  4  5  2  0  0  0  0
  5  6  1  0  0  0  0
  5  1  1  0  0  0  0
  7 11  1  0  0  0  0
  7  6  2  0  0  0  0
  8  7  1  0  0  0  0
  9  3  1  0  0  0  0
 10  4  1  0  0  0  0
 12  9  1  0  0  0  0
 13  9  1  0  0  0  0
 14 15  2  0  0  0  0
 14 21  1  0  0  0  0
 15 16  1  0  0  0  0
 16 17  1  0  0  0  0
 16 18  2  0  0  0  0
 18 19  1  0  0  0  0
 20 18  1  0  0  0  0
 21 20  2  0  0  0  0
 22 23  1  0  0  0  0
 23 25  2  0  0  0  0
 23 14  1  0  0  0  0
 24 23  2  0  0  0  0
M  END
>  <minimizedAffinity>
-5.07428694

$$$$

 OpenBabel03242520463D

 25 26  0  0  0  0  0  0  0  0999 V2000
   39.0640   28.8690   39.9430 C   0  0  0  0  0  0  0  0  0  0  0  0
   39.1580   27.9580   39.0950 O   0  0  0  0  0  0  0  0  0  0  0  0
   39.9140   31.9820   38.1860 C   0  0  0  0  0  0  0  0  0  0  0  0
   39.5440   30.6350   38.4460 C   0  0  0  0  0  0  0  0  0  0  0  0
   39.4460   30.2380   39.7750 C   0  0  0  0  0  0  0  0  0  0  0  0
   39.6960   31.1130   40.7610 N   0  0  0  0  0  0  0  0  0  0  0  0
   40.0490   32.3990   40.4800 C   0  0  0  0  0  0  0  0  0  0  0  0
   40.1550   32.8220   39.2060 N   0  0  0  0  0  0  0  0  0  0  0  0
   40.0340   32.4560   36.8660 N   0  0  0  0  0  0  0  0  0  0  0  0
   39.3750   30.0510   37.5560 H   0  0  0  0  0  0  0  0  0  0  0  0
   40.2550   33.1200   41.2420 H   0  0  0  0  0  0  0  0  0  0  0  0
   40.7740   32.2150   36.1710 H   0  0  0  0  0  0  0  0  0  0  0  0
   39.2470   33.1200   36.6400 H   0  0  0  0  0  0  0  0  0  0  0  0
   37.1580   28.6380   41.4960 C   0  0  0  0  0  0  0  0  0  0  0  0
   38.4910   28.4240   41.2250 C   0  0  0  0  0  0  0  0  0  0  0  0
   39.2530   27.7930   42.1700 C   0  0  0  0  0  0  0  0  0  0  0  0
   40.3040   27.5960   42.0150 H   0  0  0  0  0  0  0  0  0  0  0  0
   38.7610   27.3590   43.3820 C   0  0  0  0  0  0  0  0  0  0  0  0
   39.3610   26.8630   44.1260 H   0  0  0  0  0  0  0  0  0  0  0  0
   37.4280   27.5620   43.6790 C   0  0  0  0  0  3  0  0  0  0  0  0
   36.6600   28.1970   42.7250 C   0  0  0  0  0  3  0  0  0  0  0  0
   36.6670   29.3600   39.0990 H   0  0  0  0  0  0  0  0  0  0  0  0
   36.1190   29.4250   40.3660 S   0  0  0  0  0  0  0  0  0  0  0  0
   34.6990   28.9760   40.4070 O   0  0  0  0  0  0  0  0  0  0  0  0
   36.0960   30.8970   40.7140 O   0  0  0  0  0  0  0  0  0  0  0  0
  1 15  1  0  0  0  0
  2  1  2  0  0  0  0
  3  4  2  0  0  0  0
  3  8  1  0  0  0  0
  4  5  1  0  0  0  0
  5  1  1  0  0  0  0
  5  6  2  0  0  0  0
  7  6  1  0  0  0  0
  7 11  1  0  0  0  0
  8  7  2  0  0  0  0
  9  3  1  0  0  0  0
 10  4  1  0  0  0  0
 12  9  1  0  0  0  0
 13  9  1  0  0  0  0
 14 21  1  0  0  0  0
 15 14  2  0  0  0  0
 15 16  1  0  0  0  0
 16 18  2  0  0  0  0
 17 16  1  0  0  0  0
 18 20  1  0  0  0  0
 18 19  1  0  0  0  0
 21 20  2  0  0  0  0
 22 23  1  0  0  0  0
 23 24  2  0  0  0  0
 23 25  2  0  0  0  0
 23 14  1  0  0  0  0
M  END
>  <minimizedAffinity>
-4.93768454

$$$$

 OpenBabel03242520463D

 25 26  0  0  0  0  0  0  0  0999 V2000
   39.2000   30.4640   41.2760 C   0  0  0  0  0  0  0  0  0  0  0  0
   39.2440   31.5210   41.9390 O   0  0  0  0  0  0  0  0  0  0  0  0
   40.1930   31.2550   37.8290 C   0  0  0  0  0  0  0  0  0  0  0  0
   39.6800   31.3740   39.1480 C   0  0  0  0  0  0  0  0  0  0  0  0
   39.7340   30.2510   39.9660 C   0  0  0  0  0  0  0  0  0  0  0  0
   40.2570   29.1050   39.5050 N   0  0  0  0  0  0  0  0  0  0  0  0
   40.7420   29.0210   38.2340 C   0  0  0  0  0  0  0  0  0  0  0  0
   40.7070   30.0860   37.4110 N   0  0  0  0  0  0  0  0  0  0  0  0
   40.1730   32.3500   36.9440 N   0  0  0  0  0  0  0  0  0  0  0  0
   39.2920   32.3540   39.3770 H   0  0  0  0  0  0  0  0  0  0  0  0
   41.1640   28.1230   37.8360 H   0  0  0  0  0  0  0  0  0  0  0  0
   39.3390   32.7750   36.4820 H   0  0  0  0  0  0  0  0  0  0  0  0
   41.1490   32.7160   36.7890 H   0  0  0  0  0  0  0  0  0  0  0  0
   37.1730   29.1370   41.7560 C   0  0  0  0  0  0  0  0  0  0  0  0
   38.5150   29.3610   41.9730 C   0  0  0  0  0  0  0  0  0  0  0  0
   39.1800   28.5370   42.8400 C   0  0  0  0  0  0  0  0  0  0  0  0
   40.2320   28.6630   43.0490 H   0  0  0  0  0  0  0  0  0  0  0  0
   38.5810   27.4940   43.5120 C   0  0  0  0  0  0  0  0  0  0  0  0
   39.1040   26.8460   44.1950 H   0  0  0  0  0  0  0  0  0  0  0  0
   37.2370   27.2480   43.3150 C   0  0  0  0  0  3  0  0  0  0  0  0
   36.5670   28.0790   42.4390 C   0  0  0  0  0  3  0  0  0  0  0  0
   34.9090   29.8300   40.8090 H   0  0  0  0  0  0  0  0  0  0  0  0
   36.2530   30.1230   40.6810 S   0  0  0  0  0  0  0  0  0  0  0  0
   36.5390   31.5820   40.7730 O   0  0  0  0  0  0  0  0  0  0  0  0
   36.6140   29.7200   39.2680 O   0  0  0  0  0  0  0  0  0  0  0  0
  1  2  2  0  0  0  0
  1 15  1  0  0  0  0
  3  4  1  0  0  0  0
  4 10  1  0  0  0  0
  4  5  2  0  0  0  0
  5  1  1  0  0  0  0
  6  5  1  0  0  0  0
  7  6  2  0  0  0  0
  8  3  2  0  0  0  0
  8  7  1  0  0  0  0
  9  3  1  0  0  0  0
 11  7  1  0  0  0  0
 12  9  1  0  0  0  0
 13  9  1  0  0  0  0
 14 15  2  0  0  0  0
 14 21  1  0  0  0  0
 15 16  1  0  0  0  0
 16 17  1  0  0  0  0
 16 18  2  0  0  0  0
 18 19  1  0  0  0  0
 20 18  1  0  0  0  0
 21 20  2  0  0  0  0
 23 24  2  0  0  0  0
 23 22  1  0  0  0  0
 23 14  1  0  0  0  0
 25 23  2  0  0  0  0
M  END
>  <minimizedAffinity>
-4.89304209

$$$$

 OpenBabel03242520463D

 25 26  0  0  0  0  0  0  0  0999 V2000
   39.1840   28.9220   40.2510 C   0  0  0  0  0  0  0  0  0  0  0  0
   40.3260   28.4210   40.1900 O   0  0  0  0  0  0  0  0  0  0  0  0
   39.0620   31.5400   37.6760 C   0  0  0  0  0  0  0  0  0  0  0  0
   39.5460   30.5920   38.6170 C   0  0  0  0  0  0  0  0  0  0  0  0
   38.6080   29.8540   39.3310 C   0  0  0  0  0  0  0  0  0  0  0  0
   37.2970   30.0470   39.1220 N   0  0  0  0  0  0  0  0  0  0  0  0
   36.8620   30.9650   38.2120 C   0  0  0  0  0  0  0  0  0  0  0  0
   37.7390   31.6990   37.5020 N   0  0  0  0  0  0  0  0  0  0  0  0
   39.9520   32.3230   36.9160 N   0  0  0  0  0  0  0  0  0  0  0  0
   40.6220   30.5480   38.6760 H   0  0  0  0  0  0  0  0  0  0  0  0
   35.8250   31.1430   38.0230 H   0  0  0  0  0  0  0  0  0  0  0  0
   40.5550   33.1040   37.2550 H   0  0  0  0  0  0  0  0  0  0  0  0
   39.9430   32.0160   35.9080 H   0  0  0  0  0  0  0  0  0  0  0  0
   37.7020   27.2780   41.3450 C   0  0  0  0  0  0  0  0  0  0  0  0
   38.4010   28.4630   41.4110 C   0  0  0  0  0  0  0  0  0  0  0  0
   38.3450   29.1870   42.5710 C   0  0  0  0  0  0  0  0  0  0  0  0
   38.8730   30.1230   42.6820 H   0  0  0  0  0  0  0  0  0  0  0  0
   37.6270   28.7970   43.6800 C   0  0  0  0  0  0  0  0  0  0  0  0
   37.5830   29.3670   44.5920 H   0  0  0  0  0  0  0  0  0  0  0  0
   36.9160   27.6140   43.6410 C   0  0  0  0  0  3  0  0  0  0  0  0
   36.9730   26.8840   42.4710 C   0  0  0  0  0  3  0  0  0  0  0  0
   38.7990   26.6230   39.1380 H   0  0  0  0  0  0  0  0  0  0  0  0
   37.7120   26.2980   39.9260 S   0  0  0  0  0  0  0  0  0  0  0  0
   37.5950   24.8340   40.1780 O   0  0  0  0  0  0  0  0  0  0  0  0
   36.4980   26.6720   39.1020 O   0  0  0  0  0  0  0  0  0  0  0  0
  1 15  1  0  0  0  0
  2  1  2  0  0  0  0
  3  4  1  0  0  0  0
  4 10  1  0  0  0  0
  4  5  2  0  0  0  0
  5  1  1  0  0  0  0
  6  5  1  0  0  0  0
  7  6  2  0  0  0  0
  8  3  2  0  0  0  0
  8  7  1  0  0  0  0
  9 12  1  0  0  0  0
  9  3  1  0  0  0  0
 11  7  1  0  0  0  0
 13  9  1  0  0  0  0
 14 15  2  0  0  0  0
 14 21  1  0  0  0  0
 15 16  1  0  0  0  0
 16 17  1  0  0  0  0
 16 18  2  0  0  0  0
 18 19  1  0  0  0  0
 20 18  1  0  0  0  0
 21 20  2  0  0  0  0
 22 23  1  0  0  0  0
 23 24  2  0  0  0  0
 23 14  1  0  0  0  0
 25 23  2  0  0  0  0
M  END
>  <minimizedAffinity>
-4.81390619

$$$$

 OpenBabel03242520463D

 25 26  0  0  0  0  0  0  0  0999 V2000
   36.3730   29.9780   41.0160 C   0  0  0  0  0  0  0  0  0  0  0  0
   36.0550   31.1220   41.4010 O   0  0  0  0  0  0  0  0  0  0  0  0
   37.4240   26.7050   42.3120 C   0  0  0  0  0  0  0  0  0  0  0  0
   36.6940   27.7190   41.6370 C   0  0  0  0  0  0  0  0  0  0  0  0
   37.1660   29.0240   41.7280 C   0  0  0  0  0  0  0  0  0  0  0  0
   38.2760   29.2920   42.4330 N   0  0  0  0  0  0  0  0  0  0  0  0
   38.9560   28.2970   43.0700 C   0  0  0  0  0  0  0  0  0  0  0  0
   38.5290   27.0210   43.0060 N   0  0  0  0  0  0  0  0  0  0  0  0
   37.0050   25.3610   42.2640 N   0  0  0  0  0  0  0  0  0  0  0  0
   35.8250   27.3550   41.1130 H   0  0  0  0  0  0  0  0  0  0  0  0
   39.8420   28.4770   43.6400 H   0  0  0  0  0  0  0  0  0  0  0  0
   36.1710   24.9410   42.7290 H   0  0  0  0  0  0  0  0  0  0  0  0
   37.6660   24.7910   41.6720 H   0  0  0  0  0  0  0  0  0  0  0  0
   36.6230   29.8290   38.5640 C   0  0  0  0  0  0  0  0  0  0  0  0
   35.8440   29.6370   39.6840 C   0  0  0  0  0  0  0  0  0  0  0  0
   34.5850   29.1270   39.5210 C   0  0  0  0  0  0  0  0  0  0  0  0
   33.9290   28.9540   40.3610 H   0  0  0  0  0  0  0  0  0  0  0  0
   34.0500   28.7940   38.2960 C   0  0  0  0  0  0  0  0  0  0  0  0
   33.0590   28.3930   38.1670 H   0  0  0  0  0  0  0  0  0  0  0  0
   34.8080   28.9770   37.1560 C   0  0  0  0  0  3  0  0  0  0  0  0
   36.0780   29.4900   37.3220 C   0  0  0  0  0  3  0  0  0  0  0  0
   38.2820   31.4200   39.6680 H   0  0  0  0  0  0  0  0  0  0  0  0
   38.2220   30.4670   38.6700 S   0  0  0  0  0  0  0  0  0  0  0  0
   39.2970   29.4400   38.7830 O   0  0  0  0  0  0  0  0  0  0  0  0
   38.5020   31.2170   37.3860 O   0  0  0  0  0  0  0  0  0  0  0  0
  1  2  2  0  0  0  0
  1  5  1  0  0  0  0
  3  8  1  0  0  0  0
  4  5  1  0  0  0  0
  4  3  2  0  0  0  0
  5  6  2  0  0  0  0
  6  7  1  0  0  0  0
  7 11  1  0  0  0  0
  8  7  2  0  0  0  0
  9  3  1  0  0  0  0
  9 12  1  0  0  0  0
 10  4  1  0  0  0  0
 13  9  1  0  0  0  0
 14 23  1  0  0  0  0
 14 15  1  0  0  0  0
 15  1  1  0  0  0  0
 16 15  2  0  0  0  0
 16 17  1  0  0  0  0
 18 16  1  0  0  0  0
 19 18  1  0  0  0  0
 20 21  1  0  0  0  0
 20 18  2  0  0  0  0
 21 14  2  0  0  0  0
 23 24  2  0  0  0  0
 23 22  1  0  0  0  0
 25 23  2  0  0  0  0
M  END
>  <minimizedAffinity>
-4.76358557

$$$$
