
 OpenBabel03252503273D

 28 29  0  0  0  0  0  0  0  0999 V2000
   47.8270   34.3180   41.2100 C   0  0  0  0  0  0  0  0  0  0  0  0
   48.2730   33.0120   41.4700 C   0  0  0  0  0  0  0  0  0  0  0  0
   49.4930   32.9130   42.1770 C   0  0  0  0  0  0  0  0  0  0  0  0
   50.1100   34.0510   42.5340 N   0  0  0  0  0  0  0  0  0  0  0  0
   49.6480   35.2900   42.2660 C   0  0  0  0  0  0  0  0  0  0  0  0
   48.4820   35.4160   41.5890 N   0  0  0  0  0  0  0  0  0  0  0  0
   45.4710   34.2550   41.3040 C   0  0  0  0  0  0  0  0  0  0  0  0
   45.6750   33.9100   42.5240 O   0  0  0  0  0  0  0  0  0  0  0  0
   46.6000   34.5340   40.4980 N   0  0  0  0  0  0  0  0  0  0  0  0
   47.7050   32.1760   41.1410 H   0  0  0  0  0  0  0  0  0  0  0  0
   50.2330   36.1360   42.6030 H   0  0  0  0  0  0  0  0  0  0  0  0
   46.3650   34.8420   39.5470 H   0  0  0  0  0  0  0  0  0  0  0  0
   43.4250   33.3760   40.1780 C   0  0  0  0  0  0  0  0  0  0  0  0
   44.0550   34.3000   40.9510 C   0  0  0  0  0  0  0  0  0  0  0  0
   43.3810   35.3840   41.4760 C   0  0  0  0  0  0  0  0  0  0  0  0
   43.8450   36.1380   42.0930 H   0  0  0  0  0  0  0  0  0  0  0  0
   42.0180   35.5880   41.2410 C   0  0  0  0  0  0  0  0  0  0  0  0
   41.4460   36.4190   41.6290 H   0  0  0  0  0  0  0  0  0  0  0  0
   41.4000   34.6190   40.4430 C   0  0  0  0  0  3  0  0  0  0  0  0
   42.0590   33.5280   39.9090 C   0  0  0  0  0  3  0  0  0  0  0  0
   45.3250   31.7140   40.4490 H   0  0  0  0  0  0  0  0  0  0  0  0
   44.3280   32.0450   39.5550 S   0  0  0  0  0  0  0  0  0  0  0  0
   43.4630   30.8140   39.4060 O   0  0  0  0  0  0  0  0  0  0  0  0
   44.9200   32.3270   38.1920 O   0  0  0  0  0  0  0  0  0  0  0  0
   49.9410   31.5410   42.4390 C   0  0  0  0  0  0  0  0  0  0  0  0
   51.2860   31.5840   42.8390 F   0  0  0  0  0  0  0  0  0  0  0  0
   49.9370   30.8760   41.2290 F   0  0  0  0  0  0  0  0  0  0  0  0
   49.2390   30.9090   43.4240 F   0  0  0  0  0  0  0  0  0  0  0  0
  1  2  2  0  0  0  0
  1  6  1  0  0  0  0
  2  3  1  0  0  0  0
  3 25  1  0  0  0  0
  3  4  2  0  0  0  0
  5  4  1  0  0  0  0
  5 11  1  0  0  0  0
  6  5  2  0  0  0  0
  7  8  2  0  0  0  0
  9  1  1  0  0  0  0
  9  7  1  0  0  0  0
 10  2  1  0  0  0  0
 12  9  1  0  0  0  0
 13 14  1  0  0  0  0
 14  7  1  0  0  0  0
 14 15  2  0  0  0  0
 15 16  1  0  0  0  0
 17 15  1  0  0  0  0
 17 18  1  0  0  0  0
 19 17  2  0  0  0  0
 20 13  2  0  0  0  0
 20 19  1  0  0  0  0
 22 13  1  0  0  0  0
 22 21  1  0  0  0  0
 23 22  2  0  0  0  0
 24 22  2  0  0  0  0
 25 26  1  0  0  0  0
 25 28  1  0  0  0  0
 27 25  1  0  0  0  0
M  END
>  <minimizedAffinity>
-4.67741823

>  <minimizedRMSD>
4.45948315

$$$$
