
 OpenBabel03252500493D

 31 33  0  0  0  0  0  0  0  0999 V2000
   39.6540   30.4220   40.8220 C   0  0  0  0  0  0  0  0  0  0  0  0
   38.4180   31.0920   40.7650 C   0  0  0  0  0  0  0  0  0  0  0  0
   38.3120   32.3640   40.2030 C   0  0  0  0  0  0  0  0  0  0  0  0
   39.4710   32.9240   39.7110 N   0  0  0  0  0  0  0  0  0  0  0  0
   40.6470   32.2650   39.7760 C   0  0  0  0  0  0  0  0  0  0  0  0
   40.7280   31.0490   40.3190 N   0  0  0  0  0  0  0  0  0  0  0  0
   39.7570   29.4440   41.2500 H   0  0  0  0  0  0  0  0  0  0  0  0
   37.3620   32.8810   40.1580 H   0  0  0  0  0  0  0  0  0  0  0  0
   41.8340   32.9200   39.2340 C   0  0  0  0  0  0  0  0  0  0  0  0
   42.9970   33.0460   39.8880 C   0  0  0  0  0  0  0  0  0  0  0  0
   44.1200   33.6490   39.4140 C   0  0  0  0  0  0  0  0  0  0  0  0
   44.0180   34.1600   38.1580 N   0  0  0  0  0  0  0  0  0  0  0  0
   42.8620   34.0470   37.4800 C   0  0  0  0  0  0  0  0  0  0  0  0
   41.7540   33.4420   37.9700 N   0  0  0  0  0  0  0  0  0  0  0  0
   43.0760   32.6320   40.9020 H   0  0  0  0  0  0  0  0  0  0  0  0
   45.0490   33.7390   39.9610 H   0  0  0  0  0  0  0  0  0  0  0  0
   42.8360   34.4780   36.4700 H   0  0  0  0  0  0  0  0  0  0  0  0
   37.2560   30.4130   41.3120 C   0  0  0  0  0  0  0  0  0  0  0  0
   36.1660   31.0680   41.3080 O   0  0  0  0  0  0  0  0  0  0  0  0
   36.9130   28.0390   40.9910 C   0  0  0  0  0  0  0  0  0  0  0  0
   37.2460   29.0610   41.8550 C   0  0  0  0  0  0  0  0  0  0  0  0
   37.5570   28.8090   43.1780 C   0  0  0  0  0  0  0  0  0  0  0  0
   37.8150   29.6080   43.8390 H   0  0  0  0  0  0  0  0  0  0  0  0
   37.5300   27.5100   43.6270 C   0  0  0  0  0  0  0  0  0  0  0  0
   37.7750   27.3110   44.6740 H   0  0  0  0  0  0  0  0  0  0  0  0
   37.2030   26.4230   42.8160 C   0  0  0  0  0  3  0  0  0  0  0  0
   36.9100   26.7670   41.5250 C   0  0  0  0  0  3  0  0  0  0  0  0
   37.2410   29.3140   38.7670 H   0  0  0  0  0  0  0  0  0  0  0  0
   36.5150   28.3110   39.3140 S   0  0  0  0  0  0  0  0  0  0  0  0
   35.0330   28.6220   39.2040 O   0  0  0  0  0  0  0  0  0  0  0  0
   36.7210   27.0560   38.5130 O   0  0  0  0  0  0  0  0  0  0  0  0
  1  7  1  0  0  0  0
  2  1  1  0  0  0  0
  2 18  1  0  0  0  0
  3  2  2  0  0  0  0
  4  5  2  0  0  0  0
  4  3  1  0  0  0  0
  5  6  1  0  0  0  0
  6  1  2  0  0  0  0
  8  3  1  0  0  0  0
  9  5  1  0  0  0  0
  9 10  1  0  0  0  0
 10 15  1  0  0  0  0
 11 10  2  0  0  0  0
 11 16  1  0  0  0  0
 12 11  1  0  0  0  0
 13 14  1  0  0  0  0
 13 12  2  0  0  0  0
 14  9  2  0  0  0  0
 17 13  1  0  0  0  0
 18 21  1  0  0  0  0
 19 18  2  0  0  0  0
 20 27  2  0  0  0  0
 20 21  1  0  0  0  0
 21 22  2  0  0  0  0
 22 24  1  0  0  0  0
 22 23  1  0  0  0  0
 24 25  1  0  0  0  0
 26 24  2  0  0  0  0
 27 26  1  0  0  0  0
 28 29  1  0  0  0  0
 29 20  1  0  0  0  0
 30 29  2  0  0  0  0
 31 29  2  0  0  0  0
M  END
>  <minimizedAffinity>
-5.22447014

$$$$

 OpenBabel03252500493D

 31 33  0  0  0  0  0  0  0  0999 V2000
   39.9050   29.7960   39.5110 C   0  0  0  0  0  0  0  0  0  0  0  0
   39.3440   31.0490   39.8210 C   0  0  0  0  0  0  0  0  0  0  0  0
   39.8550   32.2250   39.2720 C   0  0  0  0  0  0  0  0  0  0  0  0
   40.9280   32.0950   38.4170 N   0  0  0  0  0  0  0  0  0  0  0  0
   41.4530   30.8840   38.1330 C   0  0  0  0  0  0  0  0  0  0  0  0
   40.9490   29.7710   38.6700 N   0  0  0  0  0  0  0  0  0  0  0  0
   39.5270   28.8810   39.9230 H   0  0  0  0  0  0  0  0  0  0  0  0
   39.4240   33.1890   39.5080 H   0  0  0  0  0  0  0  0  0  0  0  0
   42.5890   30.8240   37.2190 C   0  0  0  0  0  0  0  0  0  0  0  0
   43.7260   31.5150   37.3740 C   0  0  0  0  0  0  0  0  0  0  0  0
   44.8020   31.4820   36.5430 C   0  0  0  0  0  0  0  0  0  0  0  0
   44.6790   30.6610   35.4660 N   0  0  0  0  0  0  0  0  0  0  0  0
   43.5480   29.9560   35.2870 C   0  0  0  0  0  0  0  0  0  0  0  0
   42.4870   30.0030   36.1270 N   0  0  0  0  0  0  0  0  0  0  0  0
   43.8230   32.1760   38.2450 H   0  0  0  0  0  0  0  0  0  0  0  0
   45.7120   32.0500   36.6900 H   0  0  0  0  0  0  0  0  0  0  0  0
   43.5030   29.3110   34.3990 H   0  0  0  0  0  0  0  0  0  0  0  0
   38.2130   31.0750   40.7330 C   0  0  0  0  0  0  0  0  0  0  0  0
   37.5640   32.1670   40.7950 O   0  0  0  0  0  0  0  0  0  0  0  0
   36.7030   29.2250   41.1180 C   0  0  0  0  0  0  0  0  0  0  0  0
   37.7770   29.9640   41.5680 C   0  0  0  0  0  0  0  0  0  0  0  0
   38.4080   29.6610   42.7600 C   0  0  0  0  0  0  0  0  0  0  0  0
   39.2400   30.2400   43.0990 H   0  0  0  0  0  0  0  0  0  0  0  0
   37.9460   28.5980   43.5000 C   0  0  0  0  0  0  0  0  0  0  0  0
   38.4460   28.3590   44.4430 H   0  0  0  0  0  0  0  0  0  0  0  0
   36.8670   27.8040   43.1130 C   0  0  0  0  0  3  0  0  0  0  0  0
   36.3050   28.1770   41.9240 C   0  0  0  0  0  3  0  0  0  0  0  0
   35.9770   30.8740   39.2670 H   0  0  0  0  0  0  0  0  0  0  0  0
   35.8770   29.5720   39.6210 S   0  0  0  0  0  0  0  0  0  0  0  0
   34.4170   29.1810   39.7620 O   0  0  0  0  0  0  0  0  0  0  0  0
   36.4150   28.7130   38.5110 O   0  0  0  0  0  0  0  0  0  0  0  0
  1  2  1  0  0  0  0
  1  7  1  0  0  0  0
  2 18  1  0  0  0  0
  3  8  1  0  0  0  0
  3  2  2  0  0  0  0
  4  3  1  0  0  0  0
  5  4  2  0  0  0  0
  5  6  1  0  0  0  0
  6  1  2  0  0  0  0
  9 10  1  0  0  0  0
  9  5  1  0  0  0  0
 10 15  1  0  0  0  0
 11 16  1  0  0  0  0
 11 10  2  0  0  0  0
 12 11  1  0  0  0  0
 13 12  2  0  0  0  0
 13 14  1  0  0  0  0
 14  9  2  0  0  0  0
 17 13  1  0  0  0  0
 18 19  2  0  0  0  0
 18 21  1  0  0  0  0
 20 21  2  0  0  0  0
 20 27  1  0  0  0  0
 21 22  1  0  0  0  0
 22 23  1  0  0  0  0
 22 24  2  0  0  0  0
 24 25  1  0  0  0  0
 26 24  1  0  0  0  0
 27 26  2  0  0  0  0
 28 29  1  0  0  0  0
 29 30  2  0  0  0  0
 29 20  1  0  0  0  0
 31 29  2  0  0  0  0
M  END
>  <minimizedAffinity>
-5.17314243

$$$$

 OpenBabel03252500493D

 31 33  0  0  0  0  0  0  0  0999 V2000
   37.0560   27.9170   40.3450 C   0  0  0  0  0  0  0  0  0  0  0  0
   37.2170   27.5130   41.6830 C   0  0  0  0  0  0  0  0  0  0  0  0
   37.5780   28.4250   42.6740 C   0  0  0  0  0  0  0  0  0  0  0  0
   37.7660   29.7320   42.2760 N   0  0  0  0  0  0  0  0  0  0  0  0
   37.6070   30.0990   40.9870 C   0  0  0  0  0  0  0  0  0  0  0  0
   37.2620   29.2100   40.0540 N   0  0  0  0  0  0  0  0  0  0  0  0
   36.7790   27.2310   39.5680 H   0  0  0  0  0  0  0  0  0  0  0  0
   37.7030   28.1170   43.7040 H   0  0  0  0  0  0  0  0  0  0  0  0
   37.8220   31.5000   40.6390 C   0  0  0  0  0  0  0  0  0  0  0  0
   37.0380   32.2080   39.8150 C   0  0  0  0  0  0  0  0  0  0  0  0
   37.2090   33.5120   39.4700 C   0  0  0  0  0  0  0  0  0  0  0  0
   38.2850   34.1240   40.0320 N   0  0  0  0  0  0  0  0  0  0  0  0
   39.0890   33.4360   40.8630 C   0  0  0  0  0  0  0  0  0  0  0  0
   38.9010   32.1370   41.1950 N   0  0  0  0  0  0  0  0  0  0  0  0
   36.1690   31.7100   39.3630 H   0  0  0  0  0  0  0  0  0  0  0  0
   36.5610   34.0630   38.8010 H   0  0  0  0  0  0  0  0  0  0  0  0
   39.9430   33.9810   41.2870 H   0  0  0  0  0  0  0  0  0  0  0  0
   36.9950   26.1120   41.9970 C   0  0  0  0  0  0  0  0  0  0  0  0
   36.4850   25.8630   43.1350 O   0  0  0  0  0  0  0  0  0  0  0  0
   38.6160   24.5560   41.1000 C   0  0  0  0  0  0  0  0  0  0  0  0
   37.3080   24.9910   41.1210 C   0  0  0  0  0  0  0  0  0  0  0  0
   36.3380   24.3860   40.3440 C   0  0  0  0  0  0  0  0  0  0  0  0
   35.3260   24.7300   40.3690 H   0  0  0  0  0  0  0  0  0  0  0  0
   36.6990   23.3310   39.5390 C   0  0  0  0  0  0  0  0  0  0  0  0
   35.9320   22.8530   38.9240 H   0  0  0  0  0  0  0  0  0  0  0  0
   38.0000   22.8350   39.4620 C   0  0  0  0  0  3  0  0  0  0  0  0
   38.8910   23.4930   40.2630 C   0  0  0  0  0  3  0  0  0  0  0  0
   39.6370   26.6000   42.3060 H   0  0  0  0  0  0  0  0  0  0  0  0
   39.8720   25.2900   42.0640 S   0  0  0  0  0  0  0  0  0  0  0  0
   41.2020   25.1220   41.3500 O   0  0  0  0  0  0  0  0  0  0  0  0
   40.0250   24.5630   43.3710 O   0  0  0  0  0  0  0  0  0  0  0  0
  1  2  1  0  0  0  0
  2 18  1  0  0  0  0
  2  3  2  0  0  0  0
  3  8  1  0  0  0  0
  4  3  1  0  0  0  0
  5  4  2  0  0  0  0
  6  1  2  0  0  0  0
  6  5  1  0  0  0  0
  7  1  1  0  0  0  0
  9  5  1  0  0  0  0
  9 14  1  0  0  0  0
 10  9  2  0  0  0  0
 11 10  1  0  0  0  0
 11 12  2  0  0  0  0
 12 13  1  0  0  0  0
 13 14  2  0  0  0  0
 13 17  1  0  0  0  0
 15 10  1  0  0  0  0
 16 11  1  0  0  0  0
 18 19  2  0  0  0  0
 20 21  1  0  0  0  0
 20 29  1  0  0  0  0
 21 18  1  0  0  0  0
 22 23  1  0  0  0  0
 22 21  2  0  0  0  0
 24 22  1  0  0  0  0
 25 24  1  0  0  0  0
 26 24  2  0  0  0  0
 26 27  1  0  0  0  0
 27 20  2  0  0  0  0
 29 28  1  0  0  0  0
 29 31  2  0  0  0  0
 30 29  2  0  0  0  0
M  END
>  <minimizedAffinity>
-5.13524628

$$$$

 OpenBabel03252500493D

 31 33  0  0  0  0  0  0  0  0999 V2000
   36.9360   27.0800   40.3120 C   0  0  0  0  0  0  0  0  0  0  0  0
   36.6240   27.9440   41.3780 C   0  0  0  0  0  0  0  0  0  0  0  0
   35.7590   29.0230   41.2020 C   0  0  0  0  0  0  0  0  0  0  0  0
   35.2300   29.1960   39.9400 N   0  0  0  0  0  0  0  0  0  0  0  0
   35.5430   28.3570   38.9310 C   0  0  0  0  0  0  0  0  0  0  0  0
   36.3750   27.3300   39.1200 N   0  0  0  0  0  0  0  0  0  0  0  0
   37.6000   26.2440   40.4260 H   0  0  0  0  0  0  0  0  0  0  0  0
   35.5160   29.6880   42.0210 H   0  0  0  0  0  0  0  0  0  0  0  0
   34.9460   28.6020   37.6220 C   0  0  0  0  0  0  0  0  0  0  0  0
   33.6340   28.5330   37.3610 C   0  0  0  0  0  0  0  0  0  0  0  0
   33.0450   28.7550   36.1550 C   0  0  0  0  0  0  0  0  0  0  0  0
   33.8960   29.0750   35.1440 N   0  0  0  0  0  0  0  0  0  0  0  0
   35.2180   29.1520   35.3800 C   0  0  0  0  0  0  0  0  0  0  0  0
   35.7850   28.9270   36.5890 N   0  0  0  0  0  0  0  0  0  0  0  0
   32.9490   28.2740   38.1800 H   0  0  0  0  0  0  0  0  0  0  0  0
   31.9810   28.6930   35.9680 H   0  0  0  0  0  0  0  0  0  0  0  0
   35.8580   29.4130   34.5260 H   0  0  0  0  0  0  0  0  0  0  0  0
   37.2340   27.6720   42.6680 C   0  0  0  0  0  0  0  0  0  0  0  0
   36.4550   27.6830   43.6740 O   0  0  0  0  0  0  0  0  0  0  0  0
   39.5220   28.4530   42.7790 C   0  0  0  0  0  0  0  0  0  0  0  0
   38.6460   27.3930   42.8920 C   0  0  0  0  0  0  0  0  0  0  0  0
   39.0930   26.1230   43.2050 C   0  0  0  0  0  0  0  0  0  0  0  0
   38.4060   25.3090   43.2910 H   0  0  0  0  0  0  0  0  0  0  0  0
   40.4400   25.9270   43.4050 C   0  0  0  0  0  0  0  0  0  0  0  0
   40.7930   24.9230   43.6520 H   0  0  0  0  0  0  0  0  0  0  0  0
   41.3870   26.9470   43.3080 C   0  0  0  0  0  3  0  0  0  0  0  0
   40.8550   28.1670   42.9950 C   0  0  0  0  0  3  0  0  0  0  0  0
   37.7300   30.3140   42.7820 H   0  0  0  0  0  0  0  0  0  0  0  0
   39.0010   30.0710   42.3860 S   0  0  0  0  0  0  0  0  0  0  0  0
   39.1290   30.2800   40.8880 O   0  0  0  0  0  0  0  0  0  0  0  0
   39.9180   31.0860   43.0120 O   0  0  0  0  0  0  0  0  0  0  0  0
  1  7  1  0  0  0  0
  1  2  1  0  0  0  0
  2 18  1  0  0  0  0
  3  2  2  0  0  0  0
  3  8  1  0  0  0  0
  4  3  1  0  0  0  0
  5  6  1  0  0  0  0
  5  4  2  0  0  0  0
  6  1  2  0  0  0  0
  9  5  1  0  0  0  0
 10  9  1  0  0  0  0
 10 15  1  0  0  0  0
 11 10  2  0  0  0  0
 12 13  2  0  0  0  0
 12 11  1  0  0  0  0
 13 14  1  0  0  0  0
 14  9  2  0  0  0  0
 16 11  1  0  0  0  0
 17 13  1  0  0  0  0
 18 21  1  0  0  0  0
 18 19  2  0  0  0  0
 20 21  2  0  0  0  0
 20 27  1  0  0  0  0
 21 22  1  0  0  0  0
 22 23  1  0  0  0  0
 22 24  2  0  0  0  0
 24 25  1  0  0  0  0
 26 24  1  0  0  0  0
 27 26  2  0  0  0  0
 29 20  1  0  0  0  0
 29 28  1  0  0  0  0
 29 31  2  0  0  0  0
 30 29  2  0  0  0  0
M  END
>  <minimizedAffinity>
-5.05073404

$$$$

 OpenBabel03252500493D

 31 33  0  0  0  0  0  0  0  0999 V2000
   36.6580   27.1610   39.9180 C   0  0  0  0  0  0  0  0  0  0  0  0
   36.4740   28.0270   41.0130 C   0  0  0  0  0  0  0  0  0  0  0  0
   35.6250   29.1290   40.9260 C   0  0  0  0  0  0  0  0  0  0  0  0
   34.9810   29.3240   39.7220 N   0  0  0  0  0  0  0  0  0  0  0  0
   35.1720   28.4820   38.6840 C   0  0  0  0  0  0  0  0  0  0  0  0
   35.9900   27.4330   38.7880 N   0  0  0  0  0  0  0  0  0  0  0  0
   37.3080   26.3080   39.9650 H   0  0  0  0  0  0  0  0  0  0  0  0
   35.4810   29.7970   41.7660 H   0  0  0  0  0  0  0  0  0  0  0  0
   34.4570   28.7500   37.4400 C   0  0  0  0  0  0  0  0  0  0  0  0
   33.1370   28.9650   37.3540 C   0  0  0  0  0  0  0  0  0  0  0  0
   32.4410   29.2180   36.2140 C   0  0  0  0  0  0  0  0  0  0  0  0
   33.1830   29.2480   35.0750 N   0  0  0  0  0  0  0  0  0  0  0  0
   34.5100   29.0360   35.1340 C   0  0  0  0  0  0  0  0  0  0  0  0
   35.1850   28.7860   36.2810 N   0  0  0  0  0  0  0  0  0  0  0  0
   32.5410   28.9410   38.2760 H   0  0  0  0  0  0  0  0  0  0  0  0
   31.3730   29.3890   36.1690 H   0  0  0  0  0  0  0  0  0  0  0  0
   35.0580   29.0710   34.1840 H   0  0  0  0  0  0  0  0  0  0  0  0
   37.2000   27.7320   42.2370 C   0  0  0  0  0  0  0  0  0  0  0  0
   36.5140   27.2600   43.1980 O   0  0  0  0  0  0  0  0  0  0  0  0
   39.4170   26.8050   42.5140 C   0  0  0  0  0  0  0  0  0  0  0  0
   38.6280   27.9330   42.4400 C   0  0  0  0  0  0  0  0  0  0  0  0
   39.1730   29.1980   42.5550 C   0  0  0  0  0  0  0  0  0  0  0  0
   38.5520   30.0670   42.4960 H   0  0  0  0  0  0  0  0  0  0  0  0
   40.5290   29.3190   42.7460 C   0  0  0  0  0  0  0  0  0  0  0  0
   40.9600   30.3200   42.8380 H   0  0  0  0  0  0  0  0  0  0  0  0
   41.3930   28.2260   42.8310 C   0  0  0  0  0  3  0  0  0  0  0  0
   40.7670   27.0170   42.7070 C   0  0  0  0  0  3  0  0  0  0  0  0
   37.4570   25.1300   42.6880 H   0  0  0  0  0  0  0  0  0  0  0  0
   38.7720   25.1890   42.3730 S   0  0  0  0  0  0  0  0  0  0  0  0
   39.5670   24.2620   43.2750 O   0  0  0  0  0  0  0  0  0  0  0  0
   38.9730   24.6610   40.9800 O   0  0  0  0  0  0  0  0  0  0  0  0
  1  7  1  0  0  0  0
  1  2  1  0  0  0  0
  2 18  1  0  0  0  0
  3  2  2  0  0  0  0
  3  8  1  0  0  0  0
  4  3  1  0  0  0  0
  5  6  1  0  0  0  0
  5  4  2  0  0  0  0
  6  1  2  0  0  0  0
  9  5  1  0  0  0  0
 10  9  1  0  0  0  0
 10 15  1  0  0  0  0
 11 10  2  0  0  0  0
 12 13  2  0  0  0  0
 12 11  1  0  0  0  0
 13 14  1  0  0  0  0
 14  9  2  0  0  0  0
 16 11  1  0  0  0  0
 17 13  1  0  0  0  0
 18 21  1  0  0  0  0
 18 19  2  0  0  0  0
 20 27  1  0  0  0  0
 21 20  2  0  0  0  0
 21 22  1  0  0  0  0
 22 24  2  0  0  0  0
 23 22  1  0  0  0  0
 24 26  1  0  0  0  0
 24 25  1  0  0  0  0
 27 26  2  0  0  0  0
 29 20  1  0  0  0  0
 29 28  1  0  0  0  0
 29 30  2  0  0  0  0
 31 29  2  0  0  0  0
M  END
>  <minimizedAffinity>
-5.0076313

$$$$

 OpenBabel03252500493D

 31 33  0  0  0  0  0  0  0  0999 V2000
   37.1750   31.1420   38.7670 C   0  0  0  0  0  0  0  0  0  0  0  0
   36.6220   30.0460   39.4540 C   0  0  0  0  0  0  0  0  0  0  0  0
   36.0660   28.9680   38.7650 C   0  0  0  0  0  0  0  0  0  0  0  0
   36.0880   29.0340   37.3880 N   0  0  0  0  0  0  0  0  0  0  0  0
   36.6230   30.0950   36.7480 C   0  0  0  0  0  0  0  0  0  0  0  0
   37.1490   31.1170   37.4260 N   0  0  0  0  0  0  0  0  0  0  0  0
   37.6070   31.9810   39.2790 H   0  0  0  0  0  0  0  0  0  0  0  0
   35.6410   28.1230   39.2910 H   0  0  0  0  0  0  0  0  0  0  0  0
   36.6110   30.0960   35.2890 C   0  0  0  0  0  0  0  0  0  0  0  0
   36.5340   28.9950   34.5290 C   0  0  0  0  0  0  0  0  0  0  0  0
   36.5210   28.9600   33.1700 C   0  0  0  0  0  0  0  0  0  0  0  0
   36.5930   30.1720   32.5570 N   0  0  0  0  0  0  0  0  0  0  0  0
   36.6700   31.2920   33.2960 C   0  0  0  0  0  0  0  0  0  0  0  0
   36.6820   31.3060   34.6500 N   0  0  0  0  0  0  0  0  0  0  0  0
   36.4760   28.0180   35.0270 H   0  0  0  0  0  0  0  0  0  0  0  0
   36.4580   28.0560   32.5770 H   0  0  0  0  0  0  0  0  0  0  0  0
   36.7270   32.2430   32.7490 H   0  0  0  0  0  0  0  0  0  0  0  0
   36.6500   30.0750   40.9060 C   0  0  0  0  0  0  0  0  0  0  0  0
   36.0880   31.0720   41.4610 O   0  0  0  0  0  0  0  0  0  0  0  0
   38.5490   29.3060   42.1940 C   0  0  0  0  0  0  0  0  0  0  0  0
   37.2620   29.0650   41.7600 C   0  0  0  0  0  0  0  0  0  0  0  0
   36.5860   27.9150   42.1220 C   0  0  0  0  0  0  0  0  0  0  0  0
   35.5880   27.7390   41.7810 H   0  0  0  0  0  0  0  0  0  0  0  0
   37.2210   27.0020   42.9300 C   0  0  0  0  0  0  0  0  0  0  0  0
   36.6860   26.0930   43.2160 H   0  0  0  0  0  0  0  0  0  0  0  0
   38.5200   27.1740   43.4090 C   0  0  0  0  0  3  0  0  0  0  0  0
   39.1100   28.3370   43.0010 C   0  0  0  0  0  3  0  0  0  0  0  0
   38.6320   31.8150   41.5840 H   0  0  0  0  0  0  0  0  0  0  0  0
   39.4390   30.7430   41.7620 S   0  0  0  0  0  0  0  0  0  0  0  0
   40.2300   30.4700   40.4950 O   0  0  0  0  0  0  0  0  0  0  0  0
   40.4650   31.0630   42.8130 O   0  0  0  0  0  0  0  0  0  0  0  0
  1  7  1  0  0  0  0
  1  2  1  0  0  0  0
  2 18  1  0  0  0  0
  3  8  1  0  0  0  0
  3  2  2  0  0  0  0
  4  3  1  0  0  0  0
  5  4  2  0  0  0  0
  5  6  1  0  0  0  0
  6  1  2  0  0  0  0
  9  5  1  0  0  0  0
 10 15  1  0  0  0  0
 10  9  2  0  0  0  0
 11 10  1  0  0  0  0
 12 11  2  0  0  0  0
 12 13  1  0  0  0  0
 13 14  2  0  0  0  0
 14  9  1  0  0  0  0
 16 11  1  0  0  0  0
 17 13  1  0  0  0  0
 18 19  2  0  0  0  0
 18 21  1  0  0  0  0
 20 27  1  0  0  0  0
 21 22  1  0  0  0  0
 21 20  2  0  0  0  0
 22 24  2  0  0  0  0
 23 22  1  0  0  0  0
 24 25  1  0  0  0  0
 24 26  1  0  0  0  0
 27 26  2  0  0  0  0
 28 29  1  0  0  0  0
 29 20  1  0  0  0  0
 29 31  2  0  0  0  0
 30 29  2  0  0  0  0
M  END
>  <minimizedAffinity>
-4.93655825

$$$$

 OpenBabel03252500493D

 31 33  0  0  0  0  0  0  0  0999 V2000
   35.9090   28.3510   37.2940 C   0  0  0  0  0  0  0  0  0  0  0  0
   35.8700   28.4690   38.6960 C   0  0  0  0  0  0  0  0  0  0  0  0
   34.7040   28.8580   39.3550 C   0  0  0  0  0  0  0  0  0  0  0  0
   33.6030   29.1180   38.5680 N   0  0  0  0  0  0  0  0  0  0  0  0
   33.6610   28.9990   37.2250 C   0  0  0  0  0  0  0  0  0  0  0  0
   34.7870   28.6270   36.6130 N   0  0  0  0  0  0  0  0  0  0  0  0
   36.7960   28.0540   36.7680 H   0  0  0  0  0  0  0  0  0  0  0  0
   34.6710   28.9490   40.4330 H   0  0  0  0  0  0  0  0  0  0  0  0
   32.4550   29.2900   36.4550 C   0  0  0  0  0  0  0  0  0  0  0  0
   31.3210   29.7770   36.9760 C   0  0  0  0  0  0  0  0  0  0  0  0
   30.1820   30.0590   36.2900 C   0  0  0  0  0  0  0  0  0  0  0  0
   30.2340   29.8130   34.9540 N   0  0  0  0  0  0  0  0  0  0  0  0
   31.3600   29.3250   34.4050 C   0  0  0  0  0  0  0  0  0  0  0  0
   32.4850   29.0510   35.1070 N   0  0  0  0  0  0  0  0  0  0  0  0
   31.2830   29.9750   38.0560 H   0  0  0  0  0  0  0  0  0  0  0  0
   29.2760   30.4520   36.7330 H   0  0  0  0  0  0  0  0  0  0  0  0
   31.3450   29.1440   33.3220 H   0  0  0  0  0  0  0  0  0  0  0  0
   37.0860   28.1720   39.4330 C   0  0  0  0  0  0  0  0  0  0  0  0
   38.1200   27.9200   38.7360 O   0  0  0  0  0  0  0  0  0  0  0  0
   37.5940   29.3100   41.5070 C   0  0  0  0  0  0  0  0  0  0  0  0
   37.2080   28.1420   40.8840 C   0  0  0  0  0  0  0  0  0  0  0  0
   36.9490   26.9940   41.6100 C   0  0  0  0  0  0  0  0  0  0  0  0
   36.6500   26.0940   41.1170 H   0  0  0  0  0  0  0  0  0  0  0  0
   37.0820   27.0330   42.9780 C   0  0  0  0  0  0  0  0  0  0  0  0
   36.8780   26.1250   43.5510 H   0  0  0  0  0  0  0  0  0  0  0  0
   37.4680   28.1750   43.6800 C   0  0  0  0  0  3  0  0  0  0  0  0
   37.7030   29.2600   42.8820 C   0  0  0  0  0  3  0  0  0  0  0  0
   38.4210   30.5430   39.3920 H   0  0  0  0  0  0  0  0  0  0  0  0
   37.9310   30.7810   40.6310 S   0  0  0  0  0  0  0  0  0  0  0  0
   38.9150   31.6160   41.4300 O   0  0  0  0  0  0  0  0  0  0  0  0
   36.6900   31.6240   40.5190 O   0  0  0  0  0  0  0  0  0  0  0  0
  1  2  1  0  0  0  0
  2  3  2  0  0  0  0
  2 18  1  0  0  0  0
  3  8  1  0  0  0  0
  4  3  1  0  0  0  0
  5  4  2  0  0  0  0
  6  5  1  0  0  0  0
  6  1  2  0  0  0  0
  7  1  1  0  0  0  0
  9 10  1  0  0  0  0
  9  5  1  0  0  0  0
 10 15  1  0  0  0  0
 11 16  1  0  0  0  0
 11 10  2  0  0  0  0
 12 11  1  0  0  0  0
 13 12  2  0  0  0  0
 13 14  1  0  0  0  0
 14  9  2  0  0  0  0
 17 13  1  0  0  0  0
 18 21  1  0  0  0  0
 19 18  2  0  0  0  0
 20 27  1  0  0  0  0
 21 20  2  0  0  0  0
 21 22  1  0  0  0  0
 22 24  2  0  0  0  0
 23 22  1  0  0  0  0
 24 25  1  0  0  0  0
 24 26  1  0  0  0  0
 27 26  2  0  0  0  0
 28 29  1  0  0  0  0
 29 30  2  0  0  0  0
 29 20  1  0  0  0  0
 31 29  2  0  0  0  0
M  END
>  <minimizedAffinity>
-4.88956881

$$$$

 OpenBabel03252500493D

 31 33  0  0  0  0  0  0  0  0999 V2000
   37.8370   27.9540   41.0270 C   0  0  0  0  0  0  0  0  0  0  0  0
   38.7360   27.6540   42.0670 C   0  0  0  0  0  0  0  0  0  0  0  0
   39.4970   28.6530   42.6740 C   0  0  0  0  0  0  0  0  0  0  0  0
   39.3210   29.9380   42.2060 N   0  0  0  0  0  0  0  0  0  0  0  0
   38.4530   30.2040   41.2070 C   0  0  0  0  0  0  0  0  0  0  0  0
   37.7360   29.2340   40.6380 N   0  0  0  0  0  0  0  0  0  0  0  0
   37.2430   27.2000   40.5460 H   0  0  0  0  0  0  0  0  0  0  0  0
   40.1890   28.4250   43.4740 H   0  0  0  0  0  0  0  0  0  0  0  0
   38.3200   31.5880   40.7630 C   0  0  0  0  0  0  0  0  0  0  0  0
   39.1640   32.5760   41.0910 C   0  0  0  0  0  0  0  0  0  0  0  0
   39.0690   33.8740   40.6960 C   0  0  0  0  0  0  0  0  0  0  0  0
   38.0090   34.1600   39.8950 N   0  0  0  0  0  0  0  0  0  0  0  0
   37.1470   33.1870   39.5500 C   0  0  0  0  0  0  0  0  0  0  0  0
   37.2590   31.9000   39.9540 N   0  0  0  0  0  0  0  0  0  0  0  0
   40.0200   32.3410   41.7380 H   0  0  0  0  0  0  0  0  0  0  0  0
   39.7640   34.6550   40.9740 H   0  0  0  0  0  0  0  0  0  0  0  0
   36.3090   33.4760   38.9020 H   0  0  0  0  0  0  0  0  0  0  0  0
   38.8460   26.2670   42.4860 C   0  0  0  0  0  0  0  0  0  0  0  0
   39.2360   26.0680   43.6800 O   0  0  0  0  0  0  0  0  0  0  0  0
   39.5290   24.6920   40.7800 C   0  0  0  0  0  0  0  0  0  0  0  0
   38.5470   25.1080   41.6550 C   0  0  0  0  0  0  0  0  0  0  0  0
   37.3340   24.4510   41.7370 C   0  0  0  0  0  0  0  0  0  0  0  0
   36.5800   24.7810   42.4180 H   0  0  0  0  0  0  0  0  0  0  0  0
   37.1150   23.3630   40.9240 C   0  0  0  0  0  0  0  0  0  0  0  0
   36.1550   22.8440   40.9890 H   0  0  0  0  0  0  0  0  0  0  0  0
   38.0580   22.8820   40.0150 C   0  0  0  0  0  3  0  0  0  0  0  0
   39.2260   23.5920   40.0030 C   0  0  0  0  0  3  0  0  0  0  0  0
   40.9580   26.8390   40.6290 H   0  0  0  0  0  0  0  0  0  0  0  0
   41.0740   25.4910   40.6450 S   0  0  0  0  0  0  0  0  0  0  0  0
   41.7670   25.0120   39.3820 O   0  0  0  0  0  0  0  0  0  0  0  0
   41.9780   25.0850   41.7750 O   0  0  0  0  0  0  0  0  0  0  0  0
  1  2  1  0  0  0  0
  2 18  1  0  0  0  0
  2  3  2  0  0  0  0
  3  8  1  0  0  0  0
  4  3  1  0  0  0  0
  5  4  2  0  0  0  0
  6  1  2  0  0  0  0
  6  5  1  0  0  0  0
  7  1  1  0  0  0  0
  9 10  1  0  0  0  0
  9  5  1  0  0  0  0
 10 15  1  0  0  0  0
 11 16  1  0  0  0  0
 11 10  2  0  0  0  0
 12 11  1  0  0  0  0
 13 12  2  0  0  0  0
 13 14  1  0  0  0  0
 14  9  2  0  0  0  0
 17 13  1  0  0  0  0
 18 19  2  0  0  0  0
 20 21  1  0  0  0  0
 21 22  2  0  0  0  0
 21 18  1  0  0  0  0
 22 23  1  0  0  0  0
 24 25  1  0  0  0  0
 24 22  1  0  0  0  0
 26 24  2  0  0  0  0
 27 26  1  0  0  0  0
 27 20  2  0  0  0  0
 28 29  1  0  0  0  0
 29 20  1  0  0  0  0
 29 31  2  0  0  0  0
 30 29  2  0  0  0  0
M  END
>  <minimizedAffinity>
-4.83285809

$$$$

 OpenBabel03252500493D

 31 33  0  0  0  0  0  0  0  0999 V2000
   38.2640   30.0380   40.3080 C   0  0  0  0  0  0  0  0  0  0  0  0
   37.8030   29.3690   41.4570 C   0  0  0  0  0  0  0  0  0  0  0  0
   38.4610   29.4980   42.6800 C   0  0  0  0  0  0  0  0  0  0  0  0
   39.5760   30.3090   42.7030 N   0  0  0  0  0  0  0  0  0  0  0  0
   40.0020   30.9420   41.5890 C   0  0  0  0  0  0  0  0  0  0  0  0
   39.3590   30.8030   40.4280 N   0  0  0  0  0  0  0  0  0  0  0  0
   37.7730   29.9510   39.3580 H   0  0  0  0  0  0  0  0  0  0  0  0
   38.1080   28.9850   43.5660 H   0  0  0  0  0  0  0  0  0  0  0  0
   41.1900   31.7840   41.6880 C   0  0  0  0  0  0  0  0  0  0  0  0
   42.2090   31.5640   42.5300 C   0  0  0  0  0  0  0  0  0  0  0  0
   43.3280   32.3270   42.6480 C   0  0  0  0  0  0  0  0  0  0  0  0
   43.3860   33.4040   41.8200 N   0  0  0  0  0  0  0  0  0  0  0  0
   42.3760   33.6470   40.9650 C   0  0  0  0  0  0  0  0  0  0  0  0
   41.2690   32.8740   40.8630 N   0  0  0  0  0  0  0  0  0  0  0  0
   42.1590   30.6930   43.1970 H   0  0  0  0  0  0  0  0  0  0  0  0
   44.1390   32.1300   43.3360 H   0  0  0  0  0  0  0  0  0  0  0  0
   42.4760   34.5310   40.3210 H   0  0  0  0  0  0  0  0  0  0  0  0
   36.6180   28.5380   41.3260 C   0  0  0  0  0  0  0  0  0  0  0  0
   36.2290   27.9400   42.3790 O   0  0  0  0  0  0  0  0  0  0  0  0
   36.2310   27.2940   39.2870 C   0  0  0  0  0  0  0  0  0  0  0  0
   35.8560   28.3430   40.1000 C   0  0  0  0  0  0  0  0  0  0  0  0
   34.8020   29.1720   39.7620 C   0  0  0  0  0  0  0  0  0  0  0  0
   34.5200   29.9820   40.3990 H   0  0  0  0  0  0  0  0  0  0  0  0
   34.1230   28.9330   38.5900 C   0  0  0  0  0  0  0  0  0  0  0  0
   33.2900   29.5880   38.3230 H   0  0  0  0  0  0  0  0  0  0  0  0
   34.4420   27.8930   37.7170 C   0  0  0  0  0  3  0  0  0  0  0  0
   35.4950   27.1270   38.1310 C   0  0  0  0  0  3  0  0  0  0  0  0
   38.5720   26.8660   40.2930 H   0  0  0  0  0  0  0  0  0  0  0  0
   37.5530   26.2240   39.6750 S   0  0  0  0  0  0  0  0  0  0  0  0
   38.0480   25.5700   38.3970 O   0  0  0  0  0  0  0  0  0  0  0  0
   37.0790   25.0940   40.5450 O   0  0  0  0  0  0  0  0  0  0  0  0
  1  6  2  0  0  0  0
  1  2  1  0  0  0  0
  2  3  2  0  0  0  0
  3  4  1  0  0  0  0
  3  8  1  0  0  0  0
  5  9  1  0  0  0  0
  5  4  2  0  0  0  0
  6  5  1  0  0  0  0
  7  1  1  0  0  0  0
  9 10  1  0  0  0  0
 10 11  2  0  0  0  0
 10 15  1  0  0  0  0
 11 16  1  0  0  0  0
 12 11  1  0  0  0  0
 13 12  2  0  0  0  0
 14 13  1  0  0  0  0
 14  9  2  0  0  0  0
 17 13  1  0  0  0  0
 18  2  1  0  0  0  0
 18 19  2  0  0  0  0
 20 29  1  0  0  0  0
 20 21  1  0  0  0  0
 21 18  1  0  0  0  0
 22 21  2  0  0  0  0
 22 23  1  0  0  0  0
 24 22  1  0  0  0  0
 25 24  1  0  0  0  0
 26 27  1  0  0  0  0
 26 24  2  0  0  0  0
 27 20  2  0  0  0  0
 29 28  1  0  0  0  0
 29 31  2  0  0  0  0
 30 29  2  0  0  0  0
M  END
>  <minimizedAffinity>
-4.8085947

$$$$
