
 OpenBabel03242520443D

 25 26  0  0  0  0  0  0  0  0999 V2000
   50.0670   32.2200   41.3050 C   0  0  0  0  0  0  0  0  0  0  0  0
   51.3000   32.4190   41.2970 O   0  0  0  0  0  0  0  0  0  0  0  0
   47.5580   33.6740   43.5600 C   0  0  0  0  0  0  0  0  0  0  0  0
   48.5630   32.8250   43.0260 C   0  0  0  0  0  0  0  0  0  0  0  0
   49.0570   33.1250   41.7610 C   0  0  0  0  0  0  0  0  0  0  0  0
   48.5860   34.1840   41.0870 N   0  0  0  0  0  0  0  0  0  0  0  0
   47.6210   34.9820   41.6260 C   0  0  0  0  0  0  0  0  0  0  0  0
   47.1170   34.7250   42.8480 N   0  0  0  0  0  0  0  0  0  0  0  0
   47.0110   33.4340   44.8350 N   0  0  0  0  0  0  0  0  0  0  0  0
   48.8410   32.0140   43.6810 H   0  0  0  0  0  0  0  0  0  0  0  0
   47.2240   35.8330   41.1150 H   0  0  0  0  0  0  0  0  0  0  0  0
   46.3730   32.6560   45.1130 H   0  0  0  0  0  0  0  0  0  0  0  0
   47.3370   34.1670   45.5200 H   0  0  0  0  0  0  0  0  0  0  0  0
   49.4290   30.7440   39.4320 C   0  0  0  0  0  0  0  0  0  0  0  0
   49.6810   30.9010   40.7760 C   0  0  0  0  0  0  0  0  0  0  0  0
   49.5590   29.8090   41.5920 C   0  0  0  0  0  0  0  0  0  0  0  0
   49.7440   29.8700   42.6540 H   0  0  0  0  0  0  0  0  0  0  0  0
   49.2000   28.5570   41.1420 C   0  0  0  0  0  0  0  0  0  0  0  0
   49.1050   27.6970   41.7850 H   0  0  0  0  0  0  0  0  0  0  0  0
   48.9430   28.3710   39.7980 C   0  0  0  0  0  3  0  0  0  0  0  0
   49.0650   29.4740   38.9760 C   0  0  0  0  0  3  0  0  0  0  0  0
   50.2060   33.1200   38.9290 H   0  0  0  0  0  0  0  0  0  0  0  0
   49.5550   32.0630   38.3260 S   0  0  0  0  0  0  0  0  0  0  0  0
   50.1280   31.7100   36.9960 O   0  0  0  0  0  0  0  0  0  0  0  0
   48.1550   32.5650   38.0500 O   0  0  0  0  0  0  0  0  0  0  0  0
  1  5  1  0  0  0  0
  2  1  2  0  0  0  0
  3  9  1  0  0  0  0
  4  3  1  0  0  0  0
  4 10  1  0  0  0  0
  5  4  2  0  0  0  0
  6  7  2  0  0  0  0
  6  5  1  0  0  0  0
  7  8  1  0  0  0  0
  8  3  2  0  0  0  0
  9 12  1  0  0  0  0
  9 13  1  0  0  0  0
 11  7  1  0  0  0  0
 14 15  1  0  0  0  0
 15  1  1  0  0  0  0
 15 16  2  0  0  0  0
 16 17  1  0  0  0  0
 18 16  1  0  0  0  0
 18 19  1  0  0  0  0
 20 18  2  0  0  0  0
 21 14  2  0  0  0  0
 21 20  1  0  0  0  0
 23 22  1  0  0  0  0
 23 14  1  0  0  0  0
 24 23  2  0  0  0  0
 25 23  2  0  0  0  0
M  END
>  <minimizedAffinity>
-3.09120154

>  <minimizedRMSD>
4.47863007

$$$$
