
 OpenBabel03252506453D

 45 48  0  0  1  0  0  0  0  0999 V2000
   49.6600   33.6190   41.3910 N   0  0  1  0  0  0  0  0  0  0  0  0
   50.7250   33.0780   42.2100 C   0  0  0  0  0  0  0  0  0  0  0  0
   51.2610   31.7660   41.7150 C   0  0  0  0  0  0  0  0  0  0  0  0
   50.1720   30.7120   41.8440 C   0  0  0  0  0  0  0  0  0  0  0  0
   48.8290   31.3130   41.5680 C   0  0  0  0  0  0  0  0  0  0  0  0
   48.9870   32.5590   40.7190 C   0  0  2  0  0  0  0  0  0  0  0  0
   51.5380   33.8340   42.2270 H   0  0  0  0  0  0  0  0  0  0  0  0
   50.3770   32.8900   43.2620 H   0  0  0  0  0  0  0  0  0  0  0  0
   51.7220   31.7770   40.7310 H   0  0  0  0  0  0  0  0  0  0  0  0
   52.0680   31.4770   42.4290 H   0  0  0  0  0  0  0  0  0  0  0  0
   50.2440   30.2000   42.8170 H   0  0  0  0  0  0  0  0  0  0  0  0
   50.3870   29.9280   41.0610 H   0  0  0  0  0  0  0  0  0  0  0  0
   48.1250   30.6220   41.0790 H   0  0  0  0  0  0  0  0  0  0  0  0
   48.3730   31.6170   42.5310 H   0  0  0  0  0  0  0  0  0  0  0  0
   47.9410   32.8890   40.5090 H   0  0  0  0  0  0  0  0  0  0  0  0
   47.4250   34.7620   41.9470 C   0  0  1  0  0  0  0  0  0  0  0  0
   48.4890   35.7770   41.7540 C   0  0  0  0  0  0  0  0  0  0  0  0
   48.8440   34.4230   42.2220 C   0  0  2  0  0  0  0  0  0  0  0  0
   46.9370   34.4130   40.9900 H   0  0  0  0  0  0  0  0  0  0  0  0
   48.5770   36.5960   42.5020 H   0  0  0  0  0  0  0  0  0  0  0  0
   48.7770   36.0630   40.7220 H   0  0  0  0  0  0  0  0  0  0  0  0
   49.0650   34.2980   43.3230 H   0  0  0  0  0  0  0  0  0  0  0  0
   45.5860   36.0170   43.1100 C   0  0  0  0  0  0  0  0  0  0  0  0
   46.4700   34.9360   43.0390 C   0  0  0  0  0  0  0  0  0  0  0  0
   46.3910   33.9850   44.0810 C   0  0  0  0  0  0  0  0  0  0  0  0
   45.4810   34.1650   45.0730 N   0  0  0  0  0  0  0  0  0  0  0  0
   44.6500   35.2190   45.1030 C   0  0  0  0  0  0  0  0  0  0  0  0
   44.6920   36.1590   44.1190 N   0  0  0  0  0  0  0  0  0  0  0  0
   45.6080   36.7650   42.3420 H   0  0  0  0  0  0  0  0  0  0  0  0
   47.0530   33.1320   44.0730 H   0  0  0  0  0  0  0  0  0  0  0  0
   43.9900   35.2090   45.9610 H   0  0  0  0  0  0  0  0  0  0  0  0
   49.5610   32.2150   39.4490 N   0  0  0  0  0  0  0  0  0  0  0  0
   50.4160   32.8470   39.3540 H   0  0  0  0  0  0  0  0  0  0  0  0
   48.5360   32.7610   38.1500 S   0  0  0  0  0  0  0  0  0  0  0  0
   48.3690   34.2480   38.1890 O   0  0  0  0  0  0  0  0  0  0  0  0
   47.1690   32.1660   38.4070 O   0  0  0  0  0  0  0  0  0  0  0  0
   49.0830   32.2180   36.6020 C   0  0  0  0  0  0  0  0  0  0  0  0
   50.0010   31.2300   36.3130 C   0  0  0  0  0  0  0  0  0  0  0  0
   50.4130   30.7510   37.1750 H   0  0  0  0  0  0  0  0  0  0  0  0
   50.3340   30.9120   35.0140 C   0  0  0  0  0  0  0  0  0  0  0  0
   51.0760   30.1100   34.9040 H   0  0  0  0  0  0  0  0  0  0  0  0
   49.7480   31.5870   33.9480 C   0  0  0  0  0  0  0  0  0  0  0  0
   50.0720   31.2680   32.9770 H   0  0  0  0  0  0  0  0  0  0  0  0
   48.8160   32.5890   34.2240 C   0  0  0  0  0  0  0  0  0  0  0  0
   48.4920   32.8960   35.5490 C   0  0  0  0  0  0  0  0  0  0  0  0
  1  2  1  1  0  0  0
  1 18  1  0  0  0  0
  2  7  1  0  0  0  0
  2  8  1  0  0  0  0
  3  4  1  0  0  0  0
  3  2  1  0  0  0  0
  3 10  1  0  0  0  0
  4 11  1  0  0  0  0
  5  4  1  0  0  0  0
  5 14  1  0  0  0  0
  6 15  1  6  0  0  0
  6  1  1  0  0  0  0
  6  5  1  0  0  0  0
  9  3  1  0  0  0  0
 12  4  1  0  0  0  0
 13  5  1  0  0  0  0
 16 19  1  6  0  0  0
 16 18  1  0  0  0  0
 16 24  1  0  0  0  0
 17 16  1  0  0  0  0
 17 18  1  0  0  0  0
 17 20  1  0  0  0  0
 18 22  1  1  0  0  0
 21 17  1  0  0  0  0
 23 28  1  0  0  0  0
 24 23  2  0  0  0  0
 24 25  1  0  0  0  0
 25 26  2  0  0  0  0
 26 27  1  0  0  0  0
 27 31  1  0  0  0  0
 28 27  2  0  0  0  0
 29 23  1  0  0  0  0
 30 25  1  0  0  0  0
 32  6  1  0  0  0  0
 33 32  1  0  0  0  0
 34 35  2  0  0  0  0
 34 36  2  0  0  0  0
 34 32  1  0  0  0  0
 37 34  1  0  0  0  0
 38 37  1  0  0  0  0
 38 39  1  0  0  0  0
 40 38  2  0  0  0  0
 41 40  1  0  0  0  0
 42 44  2  0  0  0  0
 42 40  1  0  0  0  0
 43 42  1  0  0  0  0
 44 45  1  0  0  0  0
 45 37  2  0  0  0  0
M  END
>  <minimizedAffinity>
-5.56871986

>  <minimizedRMSD>
1.78764975

$$$$
