
 OpenBabel03252506483D

 45 48  0  0  1  0  0  0  0  0999 V2000
   36.6090   30.0430   40.0050 N   0  0  1  0  0  0  0  0  0  0  0  0
   35.9070   29.7240   38.7790 C   0  0  0  0  0  0  0  0  0  0  0  0
   35.4110   28.3090   38.7180 C   0  0  0  0  0  0  0  0  0  0  0  0
   36.6070   27.3710   38.6710 C   0  0  0  0  0  0  0  0  0  0  0  0
   37.7260   27.9110   39.5060 C   0  0  0  0  0  0  0  0  0  0  0  0
   37.1770   28.8580   40.5540 C   0  0  2  0  0  0  0  0  0  0  0  0
   35.0510   30.4270   38.7030 H   0  0  0  0  0  0  0  0  0  0  0  0
   36.5710   29.8550   37.8810 H   0  0  0  0  0  0  0  0  0  0  0  0
   34.6820   28.0230   39.4720 H   0  0  0  0  0  0  0  0  0  0  0  0
   34.8910   28.2090   37.7360 H   0  0  0  0  0  0  0  0  0  0  0  0
   36.8870   27.1560   37.6280 H   0  0  0  0  0  0  0  0  0  0  0  0
   36.2660   26.3900   39.1130 H   0  0  0  0  0  0  0  0  0  0  0  0
   38.3320   27.1330   39.9950 H   0  0  0  0  0  0  0  0  0  0  0  0
   38.4060   28.4920   38.8510 H   0  0  0  0  0  0  0  0  0  0  0  0
   38.0660   29.1480   41.1640 H   0  0  0  0  0  0  0  0  0  0  0  0
   37.8380   32.2190   40.6130 C   0  0  1  0  0  0  0  0  0  0  0  0
   37.0030   32.4180   39.4030 C   0  0  0  0  0  0  0  0  0  0  0  0
   37.5320   31.0760   39.7150 C   0  0  2  0  0  0  0  0  0  0  0  0
   37.2800   32.3350   41.5870 H   0  0  0  0  0  0  0  0  0  0  0  0
   37.4580   32.9370   38.5300 H   0  0  0  0  0  0  0  0  0  0  0  0
   35.9150   32.5900   39.5250 H   0  0  0  0  0  0  0  0  0  0  0  0
   38.4290   30.7240   39.1240 H   0  0  0  0  0  0  0  0  0  0  0  0
   40.3060   32.0840   41.0580 C   0  0  0  0  0  0  0  0  0  0  0  0
   39.1770   32.8030   40.6530 C   0  0  0  0  0  0  0  0  0  0  0  0
   39.3880   34.1420   40.2590 C   0  0  0  0  0  0  0  0  0  0  0  0
   40.6460   34.6520   40.2900 N   0  0  0  0  0  0  0  0  0  0  0  0
   41.7050   33.9260   40.6860 C   0  0  0  0  0  0  0  0  0  0  0  0
   41.5470   32.6300   41.0750 N   0  0  0  0  0  0  0  0  0  0  0  0
   40.1970   31.0630   41.3670 H   0  0  0  0  0  0  0  0  0  0  0  0
   38.5470   34.7400   39.9380 H   0  0  0  0  0  0  0  0  0  0  0  0
   42.6330   34.4820   40.6510 H   0  0  0  0  0  0  0  0  0  0  0  0
   36.2990   28.1480   41.4410 N   0  0  0  0  0  0  0  0  0  0  0  0
   35.5420   28.8540   41.7010 H   0  0  0  0  0  0  0  0  0  0  0  0
   37.0860   27.8500   42.9670 S   0  0  0  0  0  0  0  0  0  0  0  0
   36.0800   27.6300   44.0530 O   0  0  0  0  0  0  0  0  0  0  0  0
   37.8290   29.1200   43.3180 O   0  0  0  0  0  0  0  0  0  0  0  0
   38.2290   26.5560   42.8810 C   0  0  0  0  0  0  0  0  0  0  0  0
   38.1530   25.3880   42.1510 C   0  0  0  0  0  0  0  0  0  0  0  0
   37.2610   25.2940   41.5700 H   0  0  0  0  0  0  0  0  0  0  0  0
   39.1570   24.4450   42.1900 C   0  0  0  0  0  0  0  0  0  0  0  0
   38.9880   23.5560   41.5700 H   0  0  0  0  0  0  0  0  0  0  0  0
   40.2870   24.6480   42.9760 C   0  0  0  0  0  0  0  0  0  0  0  0
   41.0120   23.8590   42.9400 H   0  0  0  0  0  0  0  0  0  0  0  0
   40.3810   25.8260   43.7200 C   0  0  0  0  0  3  0  0  0  0  0  0
   39.3500   26.7690   43.6660 C   0  0  0  0  0  3  0  0  0  0  0  0
  1  2  1  6  0  0  0
  1  6  1  0  0  0  0
  3  2  1  0  0  0  0
  3  9  1  0  0  0  0
  4  3  1  0  0  0  0
  4 12  1  0  0  0  0
  4  5  1  0  0  0  0
  5 13  1  0  0  0  0
  5  6  1  0  0  0  0
  6 15  1  1  0  0  0
  6 32  1  0  0  0  0
  7  2  1  0  0  0  0
  8  2  1  0  0  0  0
 10  3  1  0  0  0  0
 11  4  1  0  0  0  0
 14  5  1  0  0  0  0
 16 24  1  0  0  0  0
 16 19  1  1  0  0  0
 17 21  1  0  0  0  0
 17 18  1  0  0  0  0
 17 16  1  0  0  0  0
 18 22  1  6  0  0  0
 18  1  1  0  0  0  0
 18 16  1  0  0  0  0
 20 17  1  0  0  0  0
 23 28  1  0  0  0  0
 23 29  1  0  0  0  0
 24 23  2  0  0  0  0
 25 26  2  0  0  0  0
 25 24  1  0  0  0  0
 26 27  1  0  0  0  0
 27 28  2  0  0  0  0
 30 25  1  0  0  0  0
 31 27  1  0  0  0  0
 32 33  1  0  0  0  0
 32 34  1  0  0  0  0
 34 36  2  0  0  0  0
 34 35  2  0  0  0  0
 37 34  1  0  0  0  0
 37 45  1  0  0  0  0
 38 40  1  0  0  0  0
 38 37  2  0  0  0  0
 39 38  1  0  0  0  0
 40 42  2  0  0  0  0
 41 40  1  0  0  0  0
 42 44  1  0  0  0  0
 43 42  1  0  0  0  0
 45 44  2  0  0  0  0
M  END
>  <minimizedAffinity>
-6.03347445

$$$$

 OpenBabel03252506483D

 45 48  0  0  1  0  0  0  0  0999 V2000
   37.2010   29.0850   41.6470 N   0  0  1  0  0  0  0  0  0  0  0  0
   36.6970   28.1850   42.6640 C   0  0  0  0  0  0  0  0  0  0  0  0
   37.6920   27.8750   43.7430 C   0  0  0  0  0  0  0  0  0  0  0  0
   38.8430   27.0860   43.1390 C   0  0  0  0  0  0  0  0  0  0  0  0
   39.1230   27.5560   41.7460 C   0  0  0  0  0  0  0  0  0  0  0  0
   38.6190   28.9750   41.5700 C   0  0  2  0  0  0  0  0  0  0  0  0
   35.7990   28.6650   43.1060 H   0  0  0  0  0  0  0  0  0  0  0  0
   36.4030   27.1930   42.2230 H   0  0  0  0  0  0  0  0  0  0  0  0
   38.0300   28.7180   44.3410 H   0  0  0  0  0  0  0  0  0  0  0  0
   37.1720   27.1870   44.4500 H   0  0  0  0  0  0  0  0  0  0  0  0
   38.6500   26.0030   43.2180 H   0  0  0  0  0  0  0  0  0  0  0  0
   39.7480   27.2900   43.7800 H   0  0  0  0  0  0  0  0  0  0  0  0
   40.1860   27.5070   41.4650 H   0  0  0  0  0  0  0  0  0  0  0  0
   38.5670   26.9110   41.0360 H   0  0  0  0  0  0  0  0  0  0  0  0
   38.9340   29.2590   40.5370 H   0  0  0  0  0  0  0  0  0  0  0  0
   35.8820   29.8310   39.5700 C   0  0  1  0  0  0  0  0  0  0  0  0
   35.0400   28.9670   40.4330 C   0  0  0  0  0  0  0  0  0  0  0  0
   36.5070   28.8080   40.4450 C   0  0  2  0  0  0  0  0  0  0  0  0
   35.8960   30.9180   39.8730 H   0  0  0  0  0  0  0  0  0  0  0  0
   34.4590   28.1490   39.9510 H   0  0  0  0  0  0  0  0  0  0  0  0
   34.5560   29.4100   41.3260 H   0  0  0  0  0  0  0  0  0  0  0  0
   36.9370   27.9350   39.8710 H   0  0  0  0  0  0  0  0  0  0  0  0
   34.7580   29.0330   37.4700 C   0  0  0  0  0  0  0  0  0  0  0  0
   35.8320   29.6480   38.1210 C   0  0  0  0  0  0  0  0  0  0  0  0
   36.8840   30.1130   37.3020 C   0  0  0  0  0  0  0  0  0  0  0  0
   36.8010   29.9450   35.9570 N   0  0  0  0  0  0  0  0  0  0  0  0
   35.7500   29.3480   35.3720 C   0  0  0  0  0  0  0  0  0  0  0  0
   34.7130   28.8840   36.1230 N   0  0  0  0  0  0  0  0  0  0  0  0
   33.9340   28.6630   38.0490 H   0  0  0  0  0  0  0  0  0  0  0  0
   37.7380   30.5960   37.7560 H   0  0  0  0  0  0  0  0  0  0  0  0
   35.8430   29.2950   34.2940 H   0  0  0  0  0  0  0  0  0  0  0  0
   39.3210   29.8560   42.4590 N   0  0  0  0  0  0  0  0  0  0  0  0
   38.5760   30.5240   42.8300 H   0  0  0  0  0  0  0  0  0  0  0  0
   40.3720   30.9170   41.5600 S   0  0  0  0  0  0  0  0  0  0  0  0
   41.1020   30.1660   40.4910 O   0  0  0  0  0  0  0  0  0  0  0  0
   41.4190   31.4060   42.5350 O   0  0  0  0  0  0  0  0  0  0  0  0
   39.5380   32.2910   40.9230 C   0  0  0  0  0  0  0  0  0  0  0  0
   38.2110   32.4000   40.5630 C   0  0  0  0  0  0  0  0  0  0  0  0
   37.6440   31.5060   40.7070 H   0  0  0  0  0  0  0  0  0  0  0  0
   37.6920   33.5760   40.0640 C   0  0  0  0  0  0  0  0  0  0  0  0
   36.6250   33.5460   39.8110 H   0  0  0  0  0  0  0  0  0  0  0  0
   38.5020   34.6960   39.9090 C   0  0  0  0  0  0  0  0  0  0  0  0
   38.0080   35.5620   39.5140 H   0  0  0  0  0  0  0  0  0  0  0  0
   39.8480   34.6030   40.2700 C   0  0  0  0  0  3  0  0  0  0  0  0
   40.3530   33.4000   40.7730 C   0  0  0  0  0  3  0  0  0  0  0  0
  1  2  1  1  0  0  0
  2  7  1  0  0  0  0
  2  3  1  0  0  0  0
  3  9  1  0  0  0  0
  3 10  1  0  0  0  0
  4 11  1  0  0  0  0
  4  3  1  0  0  0  0
  4 12  1  0  0  0  0
  5  4  1  0  0  0  0
  6 15  1  6  0  0  0
  6  1  1  0  0  0  0
  6  5  1  0  0  0  0
  6 32  1  0  0  0  0
  8  2  1  0  0  0  0
 13  5  1  0  0  0  0
 14  5  1  0  0  0  0
 16 19  1  1  0  0  0
 16 17  1  0  0  0  0
 16 18  1  0  0  0  0
 17 18  1  0  0  0  0
 17 21  1  0  0  0  0
 18 22  1  6  0  0  0
 18  1  1  0  0  0  0
 20 17  1  0  0  0  0
 23 29  1  0  0  0  0
 23 24  1  0  0  0  0
 24 16  1  0  0  0  0
 25 30  1  0  0  0  0
 25 24  2  0  0  0  0
 26 25  1  0  0  0  0
 27 26  2  0  0  0  0
 27 28  1  0  0  0  0
 28 23  2  0  0  0  0
 31 27  1  0  0  0  0
 32 33  1  0  0  0  0
 34 32  1  0  0  0  0
 34 36  2  0  0  0  0
 35 34  2  0  0  0  0
 37 34  1  0  0  0  0
 38 39  1  0  0  0  0
 38 37  2  0  0  0  0
 40 38  1  0  0  0  0
 41 40  1  0  0  0  0
 42 40  2  0  0  0  0
 42 44  1  0  0  0  0
 43 42  1  0  0  0  0
 44 45  2  0  0  0  0
 45 37  1  0  0  0  0
M  END
>  <minimizedAffinity>
-5.59414768

$$$$

 OpenBabel03252506483D

 45 48  0  0  1  0  0  0  0  0999 V2000
   37.0390   29.8010   39.5890 N   0  0  1  0  0  0  0  0  0  0  0  0
   35.6220   30.0220   39.7870 C   0  0  0  0  0  0  0  0  0  0  0  0
   34.7540   28.9670   39.1670 C   0  0  0  0  0  0  0  0  0  0  0  0
   34.8950   29.0420   37.6540 C   0  0  0  0  0  0  0  0  0  0  0  0
   36.2970   29.4080   37.2790 C   0  0  0  0  0  0  0  0  0  0  0  0
   37.2440   29.0390   38.4030 C   0  0  2  0  0  0  0  0  0  0  0  0
   35.4490   30.0550   40.8840 H   0  0  0  0  0  0  0  0  0  0  0  0
   35.2920   30.9960   39.3340 H   0  0  0  0  0  0  0  0  0  0  0  0
   34.8770   27.9570   39.5500 H   0  0  0  0  0  0  0  0  0  0  0  0
   33.7030   29.2580   39.4020 H   0  0  0  0  0  0  0  0  0  0  0  0
   34.1270   29.7080   37.2280 H   0  0  0  0  0  0  0  0  0  0  0  0
   34.6710   28.0100   37.2570 H   0  0  0  0  0  0  0  0  0  0  0  0
   36.6420   28.9460   36.3410 H   0  0  0  0  0  0  0  0  0  0  0  0
   36.3510   30.5070   37.1410 H   0  0  0  0  0  0  0  0  0  0  0  0
   38.2590   29.2810   38.0050 H   0  0  0  0  0  0  0  0  0  0  0  0
   38.3240   31.6660   40.8070 C   0  0  1  0  0  0  0  0  0  0  0  0
   37.0130   32.1700   40.3290 C   0  0  0  0  0  0  0  0  0  0  0  0
   37.6790   31.0640   39.6130 C   0  0  2  0  0  0  0  0  0  0  0  0
   38.2810   31.1320   41.8010 H   0  0  0  0  0  0  0  0  0  0  0  0
   36.9870   33.1510   39.8040 H   0  0  0  0  0  0  0  0  0  0  0  0
   36.1020   31.9370   40.9160 H   0  0  0  0  0  0  0  0  0  0  0  0
   38.2080   31.3170   38.6480 H   0  0  0  0  0  0  0  0  0  0  0  0
   39.4220   33.8840   40.3790 C   0  0  0  0  0  0  0  0  0  0  0  0
   39.5030   32.5190   40.6720 C   0  0  0  0  0  0  0  0  0  0  0  0
   40.7980   31.9870   40.8550 C   0  0  0  0  0  0  0  0  0  0  0  0
   41.8740   32.8080   40.7410 N   0  0  0  0  0  0  0  0  0  0  0  0
   41.7510   34.1150   40.4570 C   0  0  0  0  0  0  0  0  0  0  0  0
   40.5210   34.6700   40.2730 N   0  0  0  0  0  0  0  0  0  0  0  0
   38.4600   34.3340   40.2310 H   0  0  0  0  0  0  0  0  0  0  0  0
   40.9140   30.9370   41.0830 H   0  0  0  0  0  0  0  0  0  0  0  0
   42.7060   34.6240   40.4020 H   0  0  0  0  0  0  0  0  0  0  0  0
   37.2250   27.6190   38.6120 N   0  0  0  0  0  0  0  0  0  0  0  0
   36.3460   27.4390   39.1900 H   0  0  0  0  0  0  0  0  0  0  0  0
   38.5010   27.1450   39.6980 S   0  0  0  0  0  0  0  0  0  0  0  0
   39.8140   27.7180   39.2630 O   0  0  0  0  0  0  0  0  0  0  0  0
   38.6260   25.6430   39.5800 O   0  0  0  0  0  0  0  0  0  0  0  0
   38.1480   27.5340   41.3450 C   0  0  0  0  0  0  0  0  0  0  0  0
   38.8780   28.3100   42.2210 C   0  0  0  0  0  0  0  0  0  0  0  0
   39.7740   28.7150   41.8030 H   0  0  0  0  0  0  0  0  0  0  0  0
   38.4590   28.5270   43.5160 C   0  0  0  0  0  0  0  0  0  0  0  0
   39.1200   29.1600   44.1220 H   0  0  0  0  0  0  0  0  0  0  0  0
   37.2760   27.9610   43.9800 C   0  0  0  0  0  0  0  0  0  0  0  0
   37.0340   28.1880   45.0000 H   0  0  0  0  0  0  0  0  0  0  0  0
   36.5240   27.1730   43.1060 C   0  0  0  0  0  3  0  0  0  0  0  0
   36.9680   26.9660   41.7960 C   0  0  0  0  0  3  0  0  0  0  0  0
  1 18  1  0  0  0  0
  1  2  1  6  0  0  0
  2  7  1  0  0  0  0
  3 10  1  0  0  0  0
  3  9  1  0  0  0  0
  3  2  1  0  0  0  0
  4  3  1  0  0  0  0
  5  4  1  0  0  0  0
  5  6  1  0  0  0  0
  6 15  1  6  0  0  0
  6 32  1  0  0  0  0
  6  1  1  0  0  0  0
  8  2  1  0  0  0  0
 11  4  1  0  0  0  0
 12  4  1  0  0  0  0
 13  5  1  0  0  0  0
 14  5  1  0  0  0  0
 16 19  1  1  0  0  0
 17 16  1  0  0  0  0
 17 21  1  0  0  0  0
 18 22  1  6  0  0  0
 18 17  1  0  0  0  0
 18 16  1  0  0  0  0
 20 17  1  0  0  0  0
 23 24  1  0  0  0  0
 24 16  1  0  0  0  0
 24 25  2  0  0  0  0
 25 30  1  0  0  0  0
 26 25  1  0  0  0  0
 27 26  2  0  0  0  0
 28 23  2  0  0  0  0
 28 27  1  0  0  0  0
 29 23  1  0  0  0  0
 31 27  1  0  0  0  0
 32 33  1  0  0  0  0
 32 34  1  0  0  0  0
 34 37  1  0  0  0  0
 35 34  2  0  0  0  0
 36 34  2  0  0  0  0
 37 45  2  0  0  0  0
 37 38  1  0  0  0  0
 38 40  2  0  0  0  0
 39 38  1  0  0  0  0
 40 42  1  0  0  0  0
 40 41  1  0  0  0  0
 42 43  1  0  0  0  0
 44 42  2  0  0  0  0
 45 44  1  0  0  0  0
M  END
>  <minimizedAffinity>
-5.57635117

$$$$

 OpenBabel03252506483D

 45 48  0  0  1  0  0  0  0  0999 V2000
   36.9680   26.8490   41.6140 N   0  0  1  0  0  0  0  0  0  0  0  0
   36.9980   26.9460   43.0580 C   0  0  0  0  0  0  0  0  0  0  0  0
   37.0930   28.3550   43.5670 C   0  0  0  0  0  0  0  0  0  0  0  0
   38.4410   28.9330   43.1650 C   0  0  0  0  0  0  0  0  0  0  0  0
   38.8490   28.4180   41.8190 C   0  0  0  0  0  0  0  0  0  0  0  0
   37.6230   27.9780   41.0430 C   0  0  2  0  0  0  0  0  0  0  0  0
   36.0680   26.4710   43.4360 H   0  0  0  0  0  0  0  0  0  0  0  0
   37.8860   26.4050   43.4860 H   0  0  0  0  0  0  0  0  0  0  0  0
   36.2630   29.0110   43.3180 H   0  0  0  0  0  0  0  0  0  0  0  0
   37.1000   28.2780   44.6790 H   0  0  0  0  0  0  0  0  0  0  0  0
   39.1870   28.7590   43.9570 H   0  0  0  0  0  0  0  0  0  0  0  0
   38.3080   30.0510   43.1000 H   0  0  0  0  0  0  0  0  0  0  0  0
   39.4220   29.1430   41.2210 H   0  0  0  0  0  0  0  0  0  0  0  0
   39.4940   27.5280   41.9620 H   0  0  0  0  0  0  0  0  0  0  0  0
   38.0170   27.6820   40.0410 H   0  0  0  0  0  0  0  0  0  0  0  0
   36.7100   24.3980   40.8800 C   0  0  1  0  0  0  0  0  0  0  0  0
   37.3670   24.4730   42.2070 C   0  0  0  0  0  0  0  0  0  0  0  0
   37.5100   25.5920   41.2550 C   0  0  2  0  0  0  0  0  0  0  0  0
   35.5830   24.4400   40.9160 H   0  0  0  0  0  0  0  0  0  0  0  0
   38.2760   23.8540   42.3800 H   0  0  0  0  0  0  0  0  0  0  0  0
   36.7410   24.6320   43.1080 H   0  0  0  0  0  0  0  0  0  0  0  0
   38.4850   25.6680   40.6900 H   0  0  0  0  0  0  0  0  0  0  0  0
   38.0220   22.3540   40.2370 C   0  0  0  0  0  0  0  0  0  0  0  0
   37.2100   23.4410   39.8950 C   0  0  0  0  0  0  0  0  0  0  0  0
   36.8690   23.5710   38.5310 C   0  0  0  0  0  0  0  0  0  0  0  0
   37.3340   22.6550   37.6420 N   0  0  0  0  0  0  0  0  0  0  0  0
   38.1120   21.6250   38.0130 C   0  0  0  0  0  0  0  0  0  0  0  0
   38.4650   21.4620   39.3180 N   0  0  0  0  0  0  0  0  0  0  0  0
   38.3080   22.2130   41.2610 H   0  0  0  0  0  0  0  0  0  0  0  0
   36.2450   24.3940   38.2150 H   0  0  0  0  0  0  0  0  0  0  0  0
   38.3940   20.9910   37.1820 H   0  0  0  0  0  0  0  0  0  0  0  0
   36.7590   29.1010   40.8170 N   0  0  0  0  0  0  0  0  0  0  0  0
   35.8190   28.6750   40.5460 H   0  0  0  0  0  0  0  0  0  0  0  0
   37.2270   29.9480   39.3690 S   0  0  0  0  0  0  0  0  0  0  0  0
   36.0650   30.0970   38.4370 O   0  0  0  0  0  0  0  0  0  0  0  0
   38.2340   29.0660   38.6660 O   0  0  0  0  0  0  0  0  0  0  0  0
   37.9770   31.4700   39.7050 C   0  0  0  0  0  0  0  0  0  0  0  0
   39.2620   31.7170   40.1410 C   0  0  0  0  0  0  0  0  0  0  0  0
   39.8520   30.8370   40.2810 H   0  0  0  0  0  0  0  0  0  0  0  0
   39.7150   32.9990   40.3650 C   0  0  0  0  0  0  0  0  0  0  0  0
   40.7540   33.0750   40.7110 H   0  0  0  0  0  0  0  0  0  0  0  0
   38.8780   34.0910   40.1570 C   0  0  0  0  0  0  0  0  0  0  0  0
   39.3210   35.0460   40.3590 H   0  0  0  0  0  0  0  0  0  0  0  0
   37.5740   33.8580   39.7150 C   0  0  0  0  0  3  0  0  0  0  0  0
   37.1360   32.5490   39.4930 C   0  0  0  0  0  3  0  0  0  0  0  0
  1  2  1  1  0  0  0
  2  7  1  0  0  0  0
  2  8  1  0  0  0  0
  2  3  1  0  0  0  0
  3 10  1  0  0  0  0
  4  3  1  0  0  0  0
  4 11  1  0  0  0  0
  5 14  1  0  0  0  0
  5  4  1  0  0  0  0
  6 15  1  6  0  0  0
  6  1  1  0  0  0  0
  6  5  1  0  0  0  0
  9  3  1  0  0  0  0
 12  4  1  0  0  0  0
 13  5  1  0  0  0  0
 16 19  1  1  0  0  0
 16 18  1  0  0  0  0
 16 17  1  0  0  0  0
 17 20  1  0  0  0  0
 17 21  1  0  0  0  0
 18 22  1  6  0  0  0
 18  1  1  0  0  0  0
 18 17  1  0  0  0  0
 23 29  1  0  0  0  0
 24 23  1  0  0  0  0
 24 16  1  0  0  0  0
 25 24  2  0  0  0  0
 26 27  2  0  0  0  0
 26 25  1  0  0  0  0
 27 28  1  0  0  0  0
 28 23  2  0  0  0  0
 30 25  1  0  0  0  0
 31 27  1  0  0  0  0
 32  6  1  0  0  0  0
 33 32  1  0  0  0  0
 34 37  1  0  0  0  0
 34 32  1  0  0  0  0
 35 34  2  0  0  0  0
 36 34  2  0  0  0  0
 37 38  1  0  0  0  0
 38 39  1  0  0  0  0
 38 40  2  0  0  0  0
 40 41  1  0  0  0  0
 42 43  1  0  0  0  0
 42 40  1  0  0  0  0
 44 42  2  0  0  0  0
 45 37  2  0  0  0  0
 45 44  1  0  0  0  0
M  END
>  <minimizedAffinity>
-5.52492523

$$$$

 OpenBabel03252506483D

 45 48  0  0  1  0  0  0  0  0999 V2000
   39.2920   29.5150   42.0590 N   0  0  1  0  0  0  0  0  0  0  0  0
   40.5530   29.6580   42.7560 C   0  0  0  0  0  0  0  0  0  0  0  0
   41.3450   30.8590   42.3290 C   0  0  0  0  0  0  0  0  0  0  0  0
   41.7820   30.6710   40.8840 C   0  0  0  0  0  0  0  0  0  0  0  0
   40.7220   29.9530   40.1090 C   0  0  0  0  0  0  0  0  0  0  0  0
   39.3760   30.1390   40.7820 C   0  0  2  0  0  0  0  0  0  0  0  0
   40.3200   29.7280   43.8390 H   0  0  0  0  0  0  0  0  0  0  0  0
   41.2210   28.7720   42.5810 H   0  0  0  0  0  0  0  0  0  0  0  0
   40.8830   31.8270   42.5050 H   0  0  0  0  0  0  0  0  0  0  0  0
   42.2750   30.8470   42.9450 H   0  0  0  0  0  0  0  0  0  0  0  0
   42.7730   30.1920   40.8400 H   0  0  0  0  0  0  0  0  0  0  0  0
   41.9130   31.7030   40.4480 H   0  0  0  0  0  0  0  0  0  0  0  0
   40.6520   30.2660   39.0550 H   0  0  0  0  0  0  0  0  0  0  0  0
   40.9530   28.8690   40.1130 H   0  0  0  0  0  0  0  0  0  0  0  0
   38.6500   29.6340   40.1000 H   0  0  0  0  0  0  0  0  0  0  0  0
   37.5920   27.5870   42.1400 C   0  0  1  0  0  0  0  0  0  0  0  0
   38.5190   27.5060   43.2950 C   0  0  0  0  0  0  0  0  0  0  0  0
   38.9670   28.1370   42.0380 C   0  0  2  0  0  0  0  0  0  0  0  0
   36.7160   28.2830   42.2960 H   0  0  0  0  0  0  0  0  0  0  0  0
   38.9710   26.5180   43.5390 H   0  0  0  0  0  0  0  0  0  0  0  0
   38.3430   28.1600   44.1720 H   0  0  0  0  0  0  0  0  0  0  0  0
   39.6390   27.5280   41.3650 H   0  0  0  0  0  0  0  0  0  0  0  0
   37.1090   25.1230   42.0860 C   0  0  0  0  0  0  0  0  0  0  0  0
   37.2220   26.3580   41.4410 C   0  0  0  0  0  0  0  0  0  0  0  0
   36.9410   26.3770   40.0570 C   0  0  0  0  0  0  0  0  0  0  0  0
   36.5830   25.2220   39.4380 N   0  0  0  0  0  0  0  0  0  0  0  0
   36.4860   24.0560   40.0970 C   0  0  0  0  0  0  0  0  0  0  0  0
   36.7480   23.9920   41.4320 N   0  0  0  0  0  0  0  0  0  0  0  0
   37.3120   25.0580   43.1370 H   0  0  0  0  0  0  0  0  0  0  0  0
   37.0150   27.3070   39.5130 H   0  0  0  0  0  0  0  0  0  0  0  0
   36.1890   23.2350   39.4560 H   0  0  0  0  0  0  0  0  0  0  0  0
   39.0210   31.5290   40.7870 N   0  0  0  0  0  0  0  0  0  0  0  0
   38.4120   31.6530   41.6550 H   0  0  0  0  0  0  0  0  0  0  0  0
   37.9140   31.8800   39.4880 S   0  0  0  0  0  0  0  0  0  0  0  0
   38.6430   32.0230   38.1880 O   0  0  0  0  0  0  0  0  0  0  0  0
   37.3110   33.2320   39.7960 O   0  0  0  0  0  0  0  0  0  0  0  0
   36.6320   30.7250   39.3800 C   0  0  0  0  0  0  0  0  0  0  0  0
   35.8070   30.2600   40.3830 C   0  0  0  0  0  0  0  0  0  0  0  0
   36.0040   30.6860   41.3420 H   0  0  0  0  0  0  0  0  0  0  0  0
   34.8220   29.3280   40.1330 C   0  0  0  0  0  0  0  0  0  0  0  0
   34.2270   29.0320   41.0070 H   0  0  0  0  0  0  0  0  0  0  0  0
   34.6330   28.8250   38.8500 C   0  0  0  0  0  0  0  0  0  0  0  0
   33.8430   28.1060   38.7570 H   0  0  0  0  0  0  0  0  0  0  0  0
   35.4600   29.2850   37.8240 C   0  0  0  0  0  3  0  0  0  0  0  0
   36.4530   30.2310   38.0980 C   0  0  0  0  0  3  0  0  0  0  0  0
  1  2  1  6  0  0  0
  2  7  1  0  0  0  0
  3  9  1  0  0  0  0
  3  2  1  0  0  0  0
  3 10  1  0  0  0  0
  4  3  1  0  0  0  0
  5 14  1  0  0  0  0
  5  6  1  0  0  0  0
  5  4  1  0  0  0  0
  6 15  1  6  0  0  0
  6 32  1  0  0  0  0
  6  1  1  0  0  0  0
  8  2  1  0  0  0  0
 11  4  1  0  0  0  0
 12  4  1  0  0  0  0
 13  5  1  0  0  0  0
 16 19  1  1  0  0  0
 16 17  1  0  0  0  0
 17 20  1  0  0  0  0
 17 21  1  0  0  0  0
 18 22  1  6  0  0  0
 18  1  1  0  0  0  0
 18 16  1  0  0  0  0
 18 17  1  0  0  0  0
 23 29  1  0  0  0  0
 24 23  1  0  0  0  0
 24 16  1  0  0  0  0
 25 24  2  0  0  0  0
 26 25  1  0  0  0  0
 26 27  2  0  0  0  0
 27 28  1  0  0  0  0
 28 23  2  0  0  0  0
 30 25  1  0  0  0  0
 31 27  1  0  0  0  0
 32 33  1  0  0  0  0
 34 36  2  0  0  0  0
 34 32  1  0  0  0  0
 35 34  2  0  0  0  0
 37 34  1  0  0  0  0
 37 38  1  0  0  0  0
 38 39  1  0  0  0  0
 40 38  2  0  0  0  0
 40 41  1  0  0  0  0
 42 40  1  0  0  0  0
 43 42  1  0  0  0  0
 44 45  1  0  0  0  0
 44 42  2  0  0  0  0
 45 37  2  0  0  0  0
M  END
>  <minimizedAffinity>
-5.43069315

$$$$

 OpenBabel03252506483D

 45 48  0  0  1  0  0  0  0  0999 V2000
   36.7780   29.3750   39.4770 N   0  0  1  0  0  0  0  0  0  0  0  0
   35.8770   29.0890   38.3800 C   0  0  0  0  0  0  0  0  0  0  0  0
   35.3120   27.6990   38.4090 C   0  0  0  0  0  0  0  0  0  0  0  0
   36.4400   26.7050   38.1820 C   0  0  0  0  0  0  0  0  0  0  0  0
   37.7010   27.1920   38.8260 C   0  0  0  0  0  0  0  0  0  0  0  0
   37.3680   28.1640   39.9400 C   0  0  2  0  0  0  0  0  0  0  0  0
   35.0530   29.8310   38.4340 H   0  0  0  0  0  0  0  0  0  0  0  0
   36.3960   29.1890   37.3880 H   0  0  0  0  0  0  0  0  0  0  0  0
   34.6980   27.4490   39.2700 H   0  0  0  0  0  0  0  0  0  0  0  0
   34.6400   27.6240   37.5220 H   0  0  0  0  0  0  0  0  0  0  0  0
   36.5430   26.4770   37.1090 H   0  0  0  0  0  0  0  0  0  0  0  0
   36.1280   25.7420   38.6790 H   0  0  0  0  0  0  0  0  0  0  0  0
   38.3400   26.3860   39.2200 H   0  0  0  0  0  0  0  0  0  0  0  0
   38.2960   27.7400   38.0680 H   0  0  0  0  0  0  0  0  0  0  0  0
   38.3550   28.4120   40.4000 H   0  0  0  0  0  0  0  0  0  0  0  0
   37.5210   31.8250   39.2360 C   0  0  1  0  0  0  0  0  0  0  0  0
   37.3010   31.2180   37.9000 C   0  0  0  0  0  0  0  0  0  0  0  0
   37.6910   30.3630   39.0380 C   0  0  2  0  0  0  0  0  0  0  0  0
   36.5840   32.2230   39.7250 H   0  0  0  0  0  0  0  0  0  0  0  0
   38.0740   31.3780   37.1160 H   0  0  0  0  0  0  0  0  0  0  0  0
   36.2650   31.1310   37.5140 H   0  0  0  0  0  0  0  0  0  0  0  0
   38.7700   30.0310   39.0890 H   0  0  0  0  0  0  0  0  0  0  0  0
   39.8540   32.5770   38.6890 C   0  0  0  0  0  0  0  0  0  0  0  0
   38.6780   32.6940   39.4370 C   0  0  0  0  0  0  0  0  0  0  0  0
   38.6450   33.7200   40.4060 C   0  0  0  0  0  0  0  0  0  0  0  0
   39.7300   34.5240   40.5580 N   0  0  0  0  0  0  0  0  0  0  0  0
   40.8400   34.3770   39.8180 C   0  0  0  0  0  0  0  0  0  0  0  0
   40.9160   33.3990   38.8720 N   0  0  0  0  0  0  0  0  0  0  0  0
   39.9280   31.8120   37.9410 H   0  0  0  0  0  0  0  0  0  0  0  0
   37.7590   33.8520   41.0100 H   0  0  0  0  0  0  0  0  0  0  0  0
   41.6090   35.0980   40.0660 H   0  0  0  0  0  0  0  0  0  0  0  0
   36.6090   27.4970   40.9590 N   0  0  0  0  0  0  0  0  0  0  0  0
   35.8350   28.1850   41.2200 H   0  0  0  0  0  0  0  0  0  0  0  0
   37.5330   27.3850   42.4320 S   0  0  0  0  0  0  0  0  0  0  0  0
   38.0790   26.0030   42.6180 O   0  0  0  0  0  0  0  0  0  0  0  0
   36.5600   27.6200   43.5650 O   0  0  0  0  0  0  0  0  0  0  0  0
   38.7770   28.5820   42.5270 C   0  0  0  0  0  0  0  0  0  0  0  0
   38.6460   29.9530   42.6040 C   0  0  0  0  0  0  0  0  0  0  0  0
   37.6340   30.2960   42.6060 H   0  0  0  0  0  0  0  0  0  0  0  0
   39.7460   30.7810   42.6740 C   0  0  0  0  0  0  0  0  0  0  0  0
   39.5210   31.8540   42.7310 H   0  0  0  0  0  0  0  0  0  0  0  0
   41.0310   30.2500   42.6660 C   0  0  0  0  0  0  0  0  0  0  0  0
   41.8210   30.9740   42.7240 H   0  0  0  0  0  0  0  0  0  0  0  0
   41.1820   28.8640   42.5890 C   0  0  0  0  0  3  0  0  0  0  0  0
   40.0520   28.0430   42.5190 C   0  0  0  0  0  3  0  0  0  0  0  0
  1  2  1  6  0  0  0
  1  6  1  0  0  0  0
  2  3  1  0  0  0  0
  2  7  1  0  0  0  0
  3  9  1  0  0  0  0
  4  3  1  0  0  0  0
  4 12  1  0  0  0  0
  4  5  1  0  0  0  0
  5 13  1  0  0  0  0
  5  6  1  0  0  0  0
  6 15  1  1  0  0  0
  6 32  1  0  0  0  0
  8  2  1  0  0  0  0
 10  3  1  0  0  0  0
 11  4  1  0  0  0  0
 14  5  1  0  0  0  0
 16 24  1  0  0  0  0
 16 19  1  1  0  0  0
 17 18  1  0  0  0  0
 17 16  1  0  0  0  0
 18 22  1  6  0  0  0
 18 16  1  0  0  0  0
 18  1  1  0  0  0  0
 20 17  1  0  0  0  0
 21 17  1  0  0  0  0
 23 28  2  0  0  0  0
 23 24  1  0  0  0  0
 24 25  2  0  0  0  0
 25 26  1  0  0  0  0
 25 30  1  0  0  0  0
 27 31  1  0  0  0  0
 27 26  2  0  0  0  0
 28 27  1  0  0  0  0
 29 23  1  0  0  0  0
 32 33  1  0  0  0  0
 32 34  1  0  0  0  0
 34 37  1  0  0  0  0
 34 35  2  0  0  0  0
 34 36  2  0  0  0  0
 37 38  1  0  0  0  0
 38 39  1  0  0  0  0
 38 40  2  0  0  0  0
 40 41  1  0  0  0  0
 42 40  1  0  0  0  0
 42 43  1  0  0  0  0
 44 42  2  0  0  0  0
 45 37  2  0  0  0  0
 45 44  1  0  0  0  0
M  END
>  <minimizedAffinity>
-5.42874813

$$$$

 OpenBabel03252506483D

 45 48  0  0  1  0  0  0  0  0999 V2000
   38.4480   31.5420   39.8930 N   0  0  1  0  0  0  0  0  0  0  0  0
   37.2090   32.2860   39.9870 C   0  0  0  0  0  0  0  0  0  0  0  0
   37.2740   33.6480   39.3610 C   0  0  0  0  0  0  0  0  0  0  0  0
   38.2410   34.5090   40.1580 C   0  0  0  0  0  0  0  0  0  0  0  0
   39.3810   33.6810   40.6650 C   0  0  0  0  0  0  0  0  0  0  0  0
   39.5450   32.4470   39.8010 C   0  0  2  0  0  0  0  0  0  0  0  0
   36.4270   31.6780   39.4840 H   0  0  0  0  0  0  0  0  0  0  0  0
   36.9120   32.4540   41.0580 H   0  0  0  0  0  0  0  0  0  0  0  0
   37.4710   33.6760   38.2920 H   0  0  0  0  0  0  0  0  0  0  0  0
   36.2630   34.0960   39.4990 H   0  0  0  0  0  0  0  0  0  0  0  0
   37.7040   35.0640   40.9450 H   0  0  0  0  0  0  0  0  0  0  0  0
   38.6450   35.2860   39.4480 H   0  0  0  0  0  0  0  0  0  0  0  0
   40.3370   34.2240   40.7150 H   0  0  0  0  0  0  0  0  0  0  0  0
   39.1420   33.3430   41.6930 H   0  0  0  0  0  0  0  0  0  0  0  0
   40.4510   31.9380   40.2080 H   0  0  0  0  0  0  0  0  0  0  0  0
   38.2120   29.1910   40.9080 C   0  0  1  0  0  0  0  0  0  0  0  0
   37.2220   30.1160   41.5120 C   0  0  0  0  0  0  0  0  0  0  0  0
   38.4960   30.6460   40.9880 C   0  0  2  0  0  0  0  0  0  0  0  0
   37.8830   28.7330   39.9300 H   0  0  0  0  0  0  0  0  0  0  0  0
   37.1070   30.1140   42.6200 H   0  0  0  0  0  0  0  0  0  0  0  0
   36.2920   30.3470   40.9540 H   0  0  0  0  0  0  0  0  0  0  0  0
   39.2980   30.9010   41.7420 H   0  0  0  0  0  0  0  0  0  0  0  0
   38.4880   27.9400   43.0690 C   0  0  0  0  0  0  0  0  0  0  0  0
   38.9120   28.2420   41.7710 C   0  0  0  0  0  0  0  0  0  0  0  0
   40.0610   27.5650   41.3070 C   0  0  0  0  0  0  0  0  0  0  0  0
   40.6810   26.6750   42.1250 N   0  0  0  0  0  0  0  0  0  0  0  0
   40.2400   26.4140   43.3660 C   0  0  0  0  0  0  0  0  0  0  0  0
   39.1360   27.0440   43.8540 N   0  0  0  0  0  0  0  0  0  0  0  0
   37.6200   28.4290   43.4650 H   0  0  0  0  0  0  0  0  0  0  0  0
   40.4300   27.7630   40.3110 H   0  0  0  0  0  0  0  0  0  0  0  0
   40.8480   25.6820   43.8830 H   0  0  0  0  0  0  0  0  0  0  0  0
   39.8710   32.8310   38.4570 N   0  0  0  0  0  0  0  0  0  0  0  0
   39.4190   32.0870   37.8410 H   0  0  0  0  0  0  0  0  0  0  0  0
   41.5710   32.5980   38.1530 S   0  0  0  0  0  0  0  0  0  0  0  0
   42.3650   32.7440   39.4140 O   0  0  0  0  0  0  0  0  0  0  0  0
   42.0000   33.7250   37.2400 O   0  0  0  0  0  0  0  0  0  0  0  0
   41.9020   31.0980   37.3590 C   0  0  0  0  0  0  0  0  0  0  0  0
   41.2320   29.8980   37.4740 C   0  0  0  0  0  0  0  0  0  0  0  0
   40.4030   29.9240   38.1470 H   0  0  0  0  0  0  0  0  0  0  0  0
   41.6230   28.7820   36.7670 C   0  0  0  0  0  0  0  0  0  0  0  0
   41.0170   27.8830   36.9390 H   0  0  0  0  0  0  0  0  0  0  0  0
   42.7170   28.8360   35.9100 C   0  0  0  0  0  0  0  0  0  0  0  0
   42.9430   27.9170   35.4050 H   0  0  0  0  0  0  0  0  0  0  0  0
   43.4060   30.0430   35.7810 C   0  0  0  0  0  3  0  0  0  0  0  0
   42.9920   31.1640   36.5070 C   0  0  0  0  0  3  0  0  0  0  0  0
  1  2  1  1  0  0  0
  1 18  1  0  0  0  0
  2  8  1  0  0  0  0
  3 10  1  0  0  0  0
  3  2  1  0  0  0  0
  3  4  1  0  0  0  0
  4  5  1  0  0  0  0
  4 11  1  0  0  0  0
  5 13  1  0  0  0  0
  5 14  1  0  0  0  0
  6  1  1  0  0  0  0
  6 15  1  1  0  0  0
  6  5  1  0  0  0  0
  7  2  1  0  0  0  0
  9  3  1  0  0  0  0
 12  4  1  0  0  0  0
 16 19  1  6  0  0  0
 16 18  1  0  0  0  0
 16 17  1  0  0  0  0
 16 24  1  0  0  0  0
 17 20  1  0  0  0  0
 18 17  1  0  0  0  0
 18 22  1  1  0  0  0
 21 17  1  0  0  0  0
 23 29  1  0  0  0  0
 23 28  1  0  0  0  0
 24 23  2  0  0  0  0
 25 24  1  0  0  0  0
 25 26  2  0  0  0  0
 26 27  1  0  0  0  0
 27 28  2  0  0  0  0
 27 31  1  0  0  0  0
 30 25  1  0  0  0  0
 32  6  1  0  0  0  0
 33 32  1  0  0  0  0
 34 32  1  0  0  0  0
 34 35  2  0  0  0  0
 36 34  2  0  0  0  0
 37 38  1  0  0  0  0
 37 34  1  0  0  0  0
 38 39  1  0  0  0  0
 40 41  1  0  0  0  0
 40 38  2  0  0  0  0
 42 40  1  0  0  0  0
 43 42  1  0  0  0  0
 44 42  2  0  0  0  0
 44 45  1  0  0  0  0
 45 37  2  0  0  0  0
M  END
>  <minimizedAffinity>
-5.39168167

$$$$

 OpenBabel03252506483D

 45 48  0  0  1  0  0  0  0  0999 V2000
   37.1530   30.6690   40.4450 N   0  0  1  0  0  0  0  0  0  0  0  0
   36.3740   30.6910   39.2240 C   0  0  0  0  0  0  0  0  0  0  0  0
   35.5310   29.4650   39.0260 C   0  0  0  0  0  0  0  0  0  0  0  0
   36.4450   28.2680   38.8160 C   0  0  0  0  0  0  0  0  0  0  0  0
   37.6790   28.4030   39.6530 C   0  0  0  0  0  0  0  0  0  0  0  0
   37.4070   29.3210   40.8280 C   0  0  2  0  0  0  0  0  0  0  0  0
   35.7240   31.5900   39.2690 H   0  0  0  0  0  0  0  0  0  0  0  0
   37.0340   30.7590   38.3170 H   0  0  0  0  0  0  0  0  0  0  0  0
   34.7650   29.2820   39.7750 H   0  0  0  0  0  0  0  0  0  0  0  0
   34.9870   29.6210   38.0640 H   0  0  0  0  0  0  0  0  0  0  0  0
   36.6450   28.1190   37.7430 H   0  0  0  0  0  0  0  0  0  0  0  0
   35.8720   27.3590   39.1580 H   0  0  0  0  0  0  0  0  0  0  0  0
   38.0730   27.4430   40.0220 H   0  0  0  0  0  0  0  0  0  0  0  0
   38.4750   28.8690   39.0390 H   0  0  0  0  0  0  0  0  0  0  0  0
   38.3510   29.3010   41.4240 H   0  0  0  0  0  0  0  0  0  0  0  0
   39.1110   32.0970   41.3070 C   0  0  1  0  0  0  0  0  0  0  0  0
   38.2050   32.9170   40.4670 C   0  0  0  0  0  0  0  0  0  0  0  0
   38.3060   31.4640   40.2320 C   0  0  2  0  0  0  0  0  0  0  0  0
   38.7870   32.0020   42.3850 H   0  0  0  0  0  0  0  0  0  0  0  0
   38.6570   33.5750   39.6920 H   0  0  0  0  0  0  0  0  0  0  0  0
   37.2680   33.3090   40.9130 H   0  0  0  0  0  0  0  0  0  0  0  0
   38.9280   31.1250   39.3530 H   0  0  0  0  0  0  0  0  0  0  0  0
   41.1280   33.2460   40.3480 C   0  0  0  0  0  0  0  0  0  0  0  0
   40.5550   32.2640   41.1620 C   0  0  0  0  0  0  0  0  0  0  0  0
   41.4480   31.4300   41.8700 C   0  0  0  0  0  0  0  0  0  0  0  0
   42.7860   31.6200   41.7280 N   0  0  0  0  0  0  0  0  0  0  0  0
   43.2940   32.5770   40.9350 C   0  0  0  0  0  0  0  0  0  0  0  0
   42.4700   33.4040   40.2340 N   0  0  0  0  0  0  0  0  0  0  0  0
   40.4900   33.9040   39.7900 H   0  0  0  0  0  0  0  0  0  0  0  0
   41.0560   30.6550   42.5120 H   0  0  0  0  0  0  0  0  0  0  0  0
   44.3770   32.5930   40.9370 H   0  0  0  0  0  0  0  0  0  0  0  0
   36.3910   28.7530   41.6680 N   0  0  0  0  0  0  0  0  0  0  0  0
   35.9650   29.5840   42.1840 H   0  0  0  0  0  0  0  0  0  0  0  0
   37.1130   27.8310   42.9570 S   0  0  0  0  0  0  0  0  0  0  0  0
   36.1240   27.5770   44.0520 O   0  0  0  0  0  0  0  0  0  0  0  0
   38.1980   28.7020   43.5490 O   0  0  0  0  0  0  0  0  0  0  0  0
   37.8380   26.3640   42.3970 C   0  0  0  0  0  0  0  0  0  0  0  0
   39.1720   26.0110   42.3940 C   0  0  0  0  0  0  0  0  0  0  0  0
   39.8220   26.7580   42.7950 H   0  0  0  0  0  0  0  0  0  0  0  0
   39.5950   24.7930   41.9070 C   0  0  0  0  0  0  0  0  0  0  0  0
   40.6780   24.6220   41.9540 H   0  0  0  0  0  0  0  0  0  0  0  0
   38.6790   23.8770   41.4010 C   0  0  0  0  0  0  0  0  0  0  0  0
   39.1040   22.9580   41.0470 H   0  0  0  0  0  0  0  0  0  0  0  0
   37.3250   24.2180   41.3980 C   0  0  0  0  0  3  0  0  0  0  0  0
   36.9170   25.4590   41.8970 C   0  0  0  0  0  3  0  0  0  0  0  0
  1  2  1  6  0  0  0
  1  6  1  0  0  0  0
  2  7  1  0  0  0  0
  3  2  1  0  0  0  0
  3  9  1  0  0  0  0
  4  3  1  0  0  0  0
  4 12  1  0  0  0  0
  4  5  1  0  0  0  0
  5 13  1  0  0  0  0
  5  6  1  0  0  0  0
  6 15  1  1  0  0  0
  6 32  1  0  0  0  0
  8  2  1  0  0  0  0
 10  3  1  0  0  0  0
 11  4  1  0  0  0  0
 14  5  1  0  0  0  0
 16 19  1  1  0  0  0
 17 21  1  0  0  0  0
 17 16  1  0  0  0  0
 18 22  1  6  0  0  0
 18  1  1  0  0  0  0
 18 17  1  0  0  0  0
 18 16  1  0  0  0  0
 20 17  1  0  0  0  0
 23 24  1  0  0  0  0
 24 16  1  0  0  0  0
 24 25  2  0  0  0  0
 25 30  1  0  0  0  0
 26 25  1  0  0  0  0
 27 31  1  0  0  0  0
 27 26  2  0  0  0  0
 28 23  2  0  0  0  0
 28 27  1  0  0  0  0
 29 23  1  0  0  0  0
 32 33  1  0  0  0  0
 32 34  1  0  0  0  0
 34 36  2  0  0  0  0
 34 35  2  0  0  0  0
 37 34  1  0  0  0  0
 38 37  1  0  0  0  0
 38 39  1  0  0  0  0
 40 41  1  0  0  0  0
 40 38  2  0  0  0  0
 42 40  1  0  0  0  0
 43 42  1  0  0  0  0
 44 42  2  0  0  0  0
 44 45  1  0  0  0  0
 45 37  2  0  0  0  0
M  END
>  <minimizedAffinity>
-5.35432959

$$$$

 OpenBabel03252506483D

 45 48  0  0  1  0  0  0  0  0999 V2000
   37.7390   29.9180   38.8080 N   0  0  1  0  0  0  0  0  0  0  0  0
   38.5360   31.0870   38.5020 C   0  0  0  0  0  0  0  0  0  0  0  0
   39.2610   31.6500   39.6890 C   0  0  0  0  0  0  0  0  0  0  0  0
   38.2400   32.1910   40.6780 C   0  0  0  0  0  0  0  0  0  0  0  0
   37.0120   31.3350   40.6790 C   0  0  0  0  0  0  0  0  0  0  0  0
   37.3520   29.9450   40.1780 C   0  0  2  0  0  0  0  0  0  0  0  0
   39.2670   30.7880   37.7220 H   0  0  0  0  0  0  0  0  0  0  0  0
   37.8990   31.9250   38.1060 H   0  0  0  0  0  0  0  0  0  0  0  0
   39.9940   30.9980   40.1570 H   0  0  0  0  0  0  0  0  0  0  0  0
   39.8320   32.5300   39.3090 H   0  0  0  0  0  0  0  0  0  0  0  0
   38.0440   33.2580   40.4840 H   0  0  0  0  0  0  0  0  0  0  0  0
   38.7180   32.1410   41.6980 H   0  0  0  0  0  0  0  0  0  0  0  0
   36.5220   31.2610   41.6630 H   0  0  0  0  0  0  0  0  0  0  0  0
   36.2740   31.7740   39.9780 H   0  0  0  0  0  0  0  0  0  0  0  0
   36.4010   29.3690   40.2830 H   0  0  0  0  0  0  0  0  0  0  0  0
   36.4850   28.8160   36.8510 C   0  0  1  0  0  0  0  0  0  0  0  0
   36.9630   30.1660   36.4630 C   0  0  0  0  0  0  0  0  0  0  0  0
   36.6710   29.8700   37.8790 C   0  0  2  0  0  0  0  0  0  0  0  0
   37.2560   27.9990   36.7340 H   0  0  0  0  0  0  0  0  0  0  0  0
   36.2510   30.8470   35.9450 H   0  0  0  0  0  0  0  0  0  0  0  0
   38.0230   30.2960   36.1660 H   0  0  0  0  0  0  0  0  0  0  0  0
   35.6960   30.2580   38.2980 H   0  0  0  0  0  0  0  0  0  0  0  0
   34.4330   29.0230   35.4180 C   0  0  0  0  0  0  0  0  0  0  0  0
   35.1470   28.3940   36.4430 C   0  0  0  0  0  0  0  0  0  0  0  0
   34.5180   27.2980   37.0720 C   0  0  0  0  0  0  0  0  0  0  0  0
   33.2810   26.9180   36.6590 N   0  0  0  0  0  0  0  0  0  0  0  0
   32.6290   27.5500   35.6690 C   0  0  0  0  0  0  0  0  0  0  0  0
   33.1980   28.6120   35.0350 N   0  0  0  0  0  0  0  0  0  0  0  0
   34.8690   29.8600   34.9100 H   0  0  0  0  0  0  0  0  0  0  0  0
   35.0280   26.7780   37.8700 H   0  0  0  0  0  0  0  0  0  0  0  0
   31.6560   27.1200   35.4650 H   0  0  0  0  0  0  0  0  0  0  0  0
   38.2960   29.3250   41.0630 N   0  0  0  0  0  0  0  0  0  0  0  0
   38.8040   28.6040   40.4610 H   0  0  0  0  0  0  0  0  0  0  0  0
   37.4710   28.3330   42.2340 S   0  0  0  0  0  0  0  0  0  0  0  0
   36.0310   28.1570   41.8680 O   0  0  0  0  0  0  0  0  0  0  0  0
   37.4940   29.1020   43.5360 O   0  0  0  0  0  0  0  0  0  0  0  0
   38.2580   26.8140   42.4860 C   0  0  0  0  0  0  0  0  0  0  0  0
   37.9840   25.5960   41.8990 C   0  0  0  0  0  0  0  0  0  0  0  0
   37.1770   25.6210   41.1990 H   0  0  0  0  0  0  0  0  0  0  0  0
   38.7080   24.4650   42.2090 C   0  0  0  0  0  0  0  0  0  0  0  0
   38.4010   23.5540   41.6810 H   0  0  0  0  0  0  0  0  0  0  0  0
   39.7450   24.5220   43.1340 C   0  0  0  0  0  0  0  0  0  0  0  0
   40.2490   23.5910   43.3080 H   0  0  0  0  0  0  0  0  0  0  0  0
   40.0360   25.7470   43.7380 C   0  0  0  0  0  3  0  0  0  0  0  0
   39.2890   26.8820   43.4080 C   0  0  0  0  0  3  0  0  0  0  0  0
  1  2  1  6  0  0  0
  1  6  1  0  0  0  0
  2  3  1  0  0  0  0
  3  9  1  0  0  0  0
  3  4  1  0  0  0  0
  4  5  1  0  0  0  0
  4 12  1  0  0  0  0
  5 13  1  0  0  0  0
  6 15  1  1  0  0  0
  6  5  1  0  0  0  0
  6 32  1  0  0  0  0
  7  2  1  0  0  0  0
  8  2  1  0  0  0  0
 10  3  1  0  0  0  0
 11  4  1  0  0  0  0
 14  5  1  0  0  0  0
 16 19  1  6  0  0  0
 16 18  1  0  0  0  0
 17 16  1  0  0  0  0
 17 18  1  0  0  0  0
 18 22  1  1  0  0  0
 18  1  1  0  0  0  0
 20 17  1  0  0  0  0
 21 17  1  0  0  0  0
 23 24  1  0  0  0  0
 24 16  1  0  0  0  0
 24 25  2  0  0  0  0
 25 30  1  0  0  0  0
 26 25  1  0  0  0  0
 27 26  2  0  0  0  0
 28 23  2  0  0  0  0
 28 27  1  0  0  0  0
 29 23  1  0  0  0  0
 31 27  1  0  0  0  0
 32 34  1  0  0  0  0
 33 32  1  0  0  0  0
 34 37  1  0  0  0  0
 34 36  2  0  0  0  0
 35 34  2  0  0  0  0
 37 45  1  0  0  0  0
 38 40  1  0  0  0  0
 38 37  2  0  0  0  0
 39 38  1  0  0  0  0
 40 42  2  0  0  0  0
 41 40  1  0  0  0  0
 42 43  1  0  0  0  0
 42 44  1  0  0  0  0
 45 44  2  0  0  0  0
M  END
>  <minimizedAffinity>
-5.34854174

$$$$
