
 OpenBabel03242522203D

 48 51  0  0  0  0  0  0  0  0999 V2000
   41.9520   34.5290   39.6350 C   0  0  0  0  0  0  0  0  0  0  0  0
   41.3430   34.4730   38.4020 C   0  0  0  0  0  0  0  0  0  0  0  0
   40.2230   33.7230   38.0760 C   0  0  0  0  0  0  0  0  0  0  0  0
   39.7020   32.9790   39.1040 C   0  0  0  0  0  0  0  0  0  0  0  0
   40.3060   33.0320   40.3330 C   0  0  0  0  0  0  0  0  0  0  0  0
   41.3880   33.7690   40.6130 N   0  0  0  0  0  0  0  0  0  0  0  0
   41.8150   35.0910   37.6420 H   0  0  0  0  0  0  0  0  0  0  0  0
   39.8020   33.7280   37.0920 H   0  0  0  0  0  0  0  0  0  0  0  0
   39.6580   32.1850   41.3740 C   0  0  0  0  0  0  0  0  0  0  0  0
   38.2650   32.3330   41.2860 F   0  0  0  0  0  0  0  0  0  0  0  0
   40.1250   32.4310   42.6410 F   0  0  0  0  0  0  0  0  0  0  0  0
   39.8960   30.8490   41.1070 F   0  0  0  0  0  0  0  0  0  0  0  0
   43.1080   35.2810   40.0420 C   0  0  0  0  0  0  0  0  0  0  0  0
   44.0420   34.7910   39.6660 H   0  0  0  0  0  0  0  0  0  0  0  0
   43.0960   36.2710   39.5070 H   0  0  0  0  0  0  0  0  0  0  0  0
   43.2650   35.5130   41.5060 C   0  0  0  0  0  0  0  0  0  0  0  0
   42.4220   35.1050   42.1080 H   0  0  0  0  0  0  0  0  0  0  0  0
   43.2830   36.6020   41.7170 H   0  0  0  0  0  0  0  0  0  0  0  0
   46.5360   33.8840   42.1040 C   0  0  0  0  0  0  0  0  0  0  0  0
   46.7590   34.3170   43.3690 C   0  0  0  0  0  0  0  0  0  0  0  0
   45.2620   35.3260   43.6890 S   0  0  0  0  0  0  0  0  0  0  0  0
   44.5670   34.9800   42.0050 C   0  0  0  0  0  0  0  0  0  0  0  0
   45.4110   34.3230   41.6260 N   0  0  0  0  0  0  0  0  0  0  0  0
   47.5960   34.1260   44.0310 H   0  0  0  0  0  0  0  0  0  0  0  0
   49.1640   32.6150   39.7420 C   0  0  0  0  0  0  0  0  0  0  0  0
   48.3220   33.5100   40.4060 C   0  0  0  0  0  0  0  0  0  0  0  0
   47.4610   33.0150   41.3530 C   0  0  0  0  0  0  0  0  0  0  0  0
   47.4910   31.6440   41.5810 N   0  0  0  0  0  0  0  0  0  0  0  0
   48.3240   30.8330   40.9120 C   0  0  0  0  0  0  0  0  0  0  0  0
   49.1630   31.3120   39.9910 N   0  0  0  0  0  0  0  0  0  0  0  0
   49.8500   33.0220   38.9860 H   0  0  0  0  0  0  0  0  0  0  0  0
   48.3120   29.7700   41.1250 H   0  0  0  0  0  0  0  0  0  0  0  0
   48.4100   34.8860   40.0590 N   0  0  0  0  0  0  0  0  0  0  0  0
   48.7260   35.6480   40.7190 H   0  0  0  0  0  0  0  0  0  0  0  0
   48.1660   35.2450   39.1210 H   0  0  0  0  0  0  0  0  0  0  0  0
   38.2520   31.9750   38.7760 S   0  0  0  0  0  0  0  0  0  0  0  0
   38.0790   29.3440   38.4850 C   0  0  0  0  0  0  0  0  0  0  0  0
   38.6220   30.4830   37.9110 C   0  0  0  0  0  0  0  0  0  0  0  0
   39.3660   30.3240   36.7660 C   0  0  0  0  0  0  0  0  0  0  0  0
   39.7630   31.2460   36.3630 H   0  0  0  0  0  0  0  0  0  0  0  0
   39.5650   29.0800   36.2070 C   0  0  0  0  0  0  0  0  0  0  0  0
   40.1570   28.9970   35.3050 H   0  0  0  0  0  0  0  0  0  0  0  0
   39.0350   27.9330   36.7600 C   0  0  0  0  0  0  0  0  0  0  0  0
   38.2890   28.0950   37.9100 C   0  0  0  0  0  0  0  0  0  0  0  0
   37.0260   30.6280   40.4450 H   0  0  0  0  0  0  0  0  0  0  0  0
   37.1000   29.3630   39.9540 S   0  0  0  0  0  0  0  0  0  0  0  0
   37.7780   28.4950   40.9890 O   0  0  0  0  0  0  0  0  0  0  0  0
   35.7580   28.7700   39.7180 O   0  0  0  0  0  0  0  0  0  0  0  0
  1 13  1  0  0  0  0
  1  6  1  0  0  0  0
  2  1  2  0  0  0  0
  3  2  1  0  0  0  0
  3  4  2  0  0  0  0
  4  5  1  0  0  0  0
  5  6  2  0  0  0  0
  5  9  1  0  0  0  0
  7  2  1  0  0  0  0
  8  3  1  0  0  0  0
  9 11  1  0  0  0  0
 10  9  1  0  0  0  0
 12  9  1  0  0  0  0
 13 16  1  0  0  0  0
 14 13  1  0  0  0  0
 15 13  1  0  0  0  0
 16 18  1  0  0  0  0
 16 22  1  0  0  0  0
 16 17  1  0  0  0  0
 19 20  2  0  0  0  0
 20 21  1  0  0  0  0
 20 24  1  0  0  0  0
 22 21  1  0  0  0  0
 23 22  2  0  0  0  0
 23 19  1  0  0  0  0
 25 30  2  0  0  0  0
 25 26  1  0  0  0  0
 26 27  2  0  0  0  0
 27 28  1  0  0  0  0
 27 19  1  0  0  0  0
 29 32  1  0  0  0  0
 29 28  2  0  0  0  0
 30 29  1  0  0  0  0
 31 25  1  0  0  0  0
 33 26  1  0  0  0  0
 33 34  1  0  0  0  0
 35 33  1  0  0  0  0
 36  4  1  0  0  0  0
 37 46  1  0  0  0  0
 38 37  1  0  0  0  0
 38 36  1  0  0  0  0
 39 38  2  0  0  0  0
 40 39  1  0  0  0  0
 41 43  2  0  0  0  0
 41 39  1  0  0  0  0
 42 41  1  0  0  0  0
 43 44  1  0  0  0  0
 44 37  2  0  0  0  0
 46 45  1  0  0  0  0
 46 47  2  0  0  0  0
 48 46  2  0  0  0  0
M  END
>  <minimizedAffinity>
-5.65708208

>  <minimizedRMSD>
1.3736285

$$$$
