
 OpenBabel03242516233D

 32 34  0  0  0  0  0  0  0  0999 V2000
   37.3340   26.5550   41.6680 C   0  0  0  0  0  0  0  0  0  0  0  0
   36.7790   27.7060   41.1620 C   0  0  0  0  0  0  0  0  0  0  0  0
   36.9050   28.9170   41.8100 C   0  0  0  0  0  0  0  0  0  0  0  0
   37.6090   29.0020   43.0100 C   0  0  0  0  0  0  0  0  0  0  0  0
   38.1650   27.8780   43.5280 C   0  0  0  0  0  0  0  0  0  0  0  0
   38.0210   26.6830   42.8560 C   0  0  0  0  0  0  0  0  0  0  0  0
   36.2320   27.6310   40.2270 H   0  0  0  0  0  0  0  0  0  0  0  0
   37.6950   29.9720   43.5010 H   0  0  0  0  0  0  0  0  0  0  0  0
   38.7220   27.9000   44.4610 H   0  0  0  0  0  0  0  0  0  0  0  0
   38.4610   25.7730   43.2600 H   0  0  0  0  0  0  0  0  0  0  0  0
   36.2670   24.0790   39.2130 C   0  0  0  0  0  0  0  0  0  0  0  0
   36.8870   22.9050   39.6250 C   0  0  0  0  0  0  0  0  0  0  0  0
   37.6850   22.9580   40.7650 C   0  0  0  0  0  0  0  0  0  0  0  0
   37.8310   24.1410   41.4290 N   0  0  0  0  0  0  0  0  0  0  0  0
   37.1960   25.2760   40.9790 C   0  0  0  0  0  0  0  0  0  0  0  0
   36.4140   25.2480   39.8720 N   0  0  0  0  0  0  0  0  0  0  0  0
   35.6510   24.0160   38.3240 H   0  0  0  0  0  0  0  0  0  0  0  0
   36.8060   21.9530   39.1430 H   0  0  0  0  0  0  0  0  0  0  0  0
   38.2320   22.1280   41.2100 H   0  0  0  0  0  0  0  0  0  0  0  0
   36.1520   30.3650   41.0810 S   0  0  0  0  0  0  0  0  0  0  0  0
   37.4870   31.6380   39.1770 C   0  0  0  0  0  0  0  0  0  0  0  0
   36.6190   30.5610   39.3770 C   0  0  0  0  0  0  0  0  0  0  0  0
   36.2360   29.8040   38.2930 C   0  0  0  0  0  0  0  0  0  0  0  0
   35.5570   28.9880   38.5560 H   0  0  0  0  0  0  0  0  0  0  0  0
   36.7160   30.1250   37.0380 C   0  0  0  0  0  0  0  0  0  0  0  0
   36.3690   29.4830   36.2390 H   0  0  0  0  0  0  0  0  0  0  0  0
   37.5620   31.1710   36.8320 C   0  0  0  0  0  3  0  0  0  0  0  0
   37.9610   31.9470   37.9040 C   0  0  0  0  0  3  0  0  0  0  0  0
   37.1700   32.6960   41.4950 H   0  0  0  0  0  0  0  0  0  0  0  0
   38.0730   32.7030   40.4560 S   0  0  0  0  0  0  0  0  0  0  0  0
   39.3760   32.1280   40.9550 O   0  0  0  0  0  0  0  0  0  0  0  0
   38.2930   34.0870   39.9440 O   0  0  0  0  0  0  0  0  0  0  0  0
  1  6  1  0  0  0  0
  2  1  2  0  0  0  0
  2  3  1  0  0  0  0
  3  4  2  0  0  0  0
  4  8  1  0  0  0  0
  4  5  1  0  0  0  0
  5  9  1  0  0  0  0
  6 10  1  0  0  0  0
  6  5  2  0  0  0  0
  7  2  1  0  0  0  0
 11 12  2  0  0  0  0
 11 16  1  0  0  0  0
 12 13  1  0  0  0  0
 13 19  1  0  0  0  0
 13 14  2  0  0  0  0
 15 14  1  0  0  0  0
 15  1  1  0  0  0  0
 16 15  2  0  0  0  0
 17 11  1  0  0  0  0
 18 12  1  0  0  0  0
 20  3  1  0  0  0  0
 21 22  1  0  0  0  0
 21 30  1  0  0  0  0
 22 20  1  0  0  0  0
 23 24  1  0  0  0  0
 23 22  2  0  0  0  0
 25 23  1  0  0  0  0
 26 25  1  0  0  0  0
 27 25  2  0  0  0  0
 27 28  1  0  0  0  0
 28 21  2  0  0  0  0
 30 31  2  0  0  0  0
 30 29  1  0  0  0  0
 32 30  2  0  0  0  0
M  END
>  <minimizedAffinity>
-5.58622551

$$$$

 OpenBabel03242516233D

 32 34  0  0  0  0  0  0  0  0999 V2000
   37.5330   30.8090   40.5960 C   0  0  0  0  0  0  0  0  0  0  0  0
   37.5870   29.8600   41.5880 C   0  0  0  0  0  0  0  0  0  0  0  0
   36.6560   28.8450   41.6740 C   0  0  0  0  0  0  0  0  0  0  0  0
   35.6240   28.7600   40.7400 C   0  0  0  0  0  0  0  0  0  0  0  0
   35.5510   29.6860   39.7520 C   0  0  0  0  0  0  0  0  0  0  0  0
   36.4970   30.6870   39.6950 C   0  0  0  0  0  0  0  0  0  0  0  0
   38.3930   29.9350   42.3110 H   0  0  0  0  0  0  0  0  0  0  0  0
   34.9010   27.9470   40.8300 H   0  0  0  0  0  0  0  0  0  0  0  0
   34.7630   29.6560   39.0040 H   0  0  0  0  0  0  0  0  0  0  0  0
   36.4510   31.4370   38.9070 H   0  0  0  0  0  0  0  0  0  0  0  0
   38.9450   34.1510   40.2400 C   0  0  0  0  0  0  0  0  0  0  0  0
   40.3170   33.9520   40.3420 C   0  0  0  0  0  0  0  0  0  0  0  0
   40.7710   32.6500   40.5370 C   0  0  0  0  0  0  0  0  0  0  0  0
   39.8690   31.6290   40.6190 N   0  0  0  0  0  0  0  0  0  0  0  0
   38.5210   31.8800   40.5120 C   0  0  0  0  0  0  0  0  0  0  0  0
   38.0560   33.1390   40.3220 N   0  0  0  0  0  0  0  0  0  0  0  0
   38.6130   35.1720   40.0890 H   0  0  0  0  0  0  0  0  0  0  0  0
   41.0650   34.7140   40.2850 H   0  0  0  0  0  0  0  0  0  0  0  0
   41.8090   32.3350   40.6350 H   0  0  0  0  0  0  0  0  0  0  0  0
   36.8010   27.6520   42.9970 S   0  0  0  0  0  0  0  0  0  0  0  0
   38.4450   25.7250   42.2160 C   0  0  0  0  0  0  0  0  0  0  0  0
   38.3990   26.8750   43.0080 C   0  0  0  0  0  0  0  0  0  0  0  0
   39.5360   27.2670   43.6790 C   0  0  0  0  0  0  0  0  0  0  0  0
   39.3960   28.1770   44.2700 H   0  0  0  0  0  0  0  0  0  0  0  0
   40.6890   26.5170   43.5540 C   0  0  0  0  0  0  0  0  0  0  0  0
   41.5380   26.8900   44.1120 H   0  0  0  0  0  0  0  0  0  0  0  0
   40.7440   25.3950   42.7860 C   0  0  0  0  0  3  0  0  0  0  0  0
   39.6170   24.9810   42.1020 C   0  0  0  0  0  3  0  0  0  0  0  0
   35.9090   25.5340   41.8630 H   0  0  0  0  0  0  0  0  0  0  0  0
   37.0800   25.0900   41.2940 S   0  0  0  0  0  0  0  0  0  0  0  0
   37.1790   25.6610   39.9000 O   0  0  0  0  0  0  0  0  0  0  0  0
   37.1190   23.6000   41.2340 O   0  0  0  0  0  0  0  0  0  0  0  0
  1  2  1  0  0  0  0
  2  3  2  0  0  0  0
  2  7  1  0  0  0  0
  3 20  1  0  0  0  0
  4  8  1  0  0  0  0
  4  3  1  0  0  0  0
  5  4  2  0  0  0  0
  6  5  1  0  0  0  0
  6  1  2  0  0  0  0
  9  5  1  0  0  0  0
 10  6  1  0  0  0  0
 11 16  2  0  0  0  0
 11 12  1  0  0  0  0
 12 13  2  0  0  0  0
 13 14  1  0  0  0  0
 13 19  1  0  0  0  0
 15  1  1  0  0  0  0
 15 14  2  0  0  0  0
 16 15  1  0  0  0  0
 17 11  1  0  0  0  0
 18 12  1  0  0  0  0
 20 22  1  0  0  0  0
 21 22  1  0  0  0  0
 22 23  2  0  0  0  0
 23 24  1  0  0  0  0
 25 23  1  0  0  0  0
 25 26  1  0  0  0  0
 27 25  2  0  0  0  0
 28 21  2  0  0  0  0
 28 27  1  0  0  0  0
 30 29  1  0  0  0  0
 30 21  1  0  0  0  0
 31 30  2  0  0  0  0
 32 30  2  0  0  0  0
M  END
>  <minimizedAffinity>
-5.4974246

$$$$

 OpenBabel03242516233D

 32 34  0  0  0  0  0  0  0  0999 V2000
   38.2500   24.7590   41.8990 C   0  0  0  0  0  0  0  0  0  0  0  0
   37.6830   25.9850   42.1500 C   0  0  0  0  0  0  0  0  0  0  0  0
   38.2580   26.8850   43.0230 C   0  0  0  0  0  0  0  0  0  0  0  0
   39.4450   26.5650   43.6790 C   0  0  0  0  0  0  0  0  0  0  0  0
   40.0230   25.3600   43.4460 C   0  0  0  0  0  0  0  0  0  0  0  0
   39.4230   24.4830   42.5680 C   0  0  0  0  0  0  0  0  0  0  0  0
   36.7570   26.2250   41.6350 H   0  0  0  0  0  0  0  0  0  0  0  0
   39.8800   27.2950   44.3650 H   0  0  0  0  0  0  0  0  0  0  0  0
   40.9480   25.0710   43.9370 H   0  0  0  0  0  0  0  0  0  0  0  0
   39.8750   23.5120   42.3720 H   0  0  0  0  0  0  0  0  0  0  0  0
   35.8060   23.2530   39.6500 C   0  0  0  0  0  0  0  0  0  0  0  0
   36.4130   22.0750   39.2310 C   0  0  0  0  0  0  0  0  0  0  0  0
   37.6820   21.7880   39.7240 C   0  0  0  0  0  0  0  0  0  0  0  0
   38.2800   22.6570   40.5900 N   0  0  0  0  0  0  0  0  0  0  0  0
   37.6360   23.8100   40.9740 C   0  0  0  0  0  0  0  0  0  0  0  0
   36.3990   24.1120   40.5070 N   0  0  0  0  0  0  0  0  0  0  0  0
   34.8180   23.4580   39.2550 H   0  0  0  0  0  0  0  0  0  0  0  0
   35.9900   21.3610   38.5550 H   0  0  0  0  0  0  0  0  0  0  0  0
   38.2840   20.9100   39.4910 H   0  0  0  0  0  0  0  0  0  0  0  0
   37.4530   28.4580   43.2920 S   0  0  0  0  0  0  0  0  0  0  0  0
   37.8920   30.1230   41.2770 C   0  0  0  0  0  0  0  0  0  0  0  0
   36.9530   29.2100   41.7620 C   0  0  0  0  0  0  0  0  0  0  0  0
   35.7980   28.9970   41.0420 C   0  0  0  0  0  0  0  0  0  0  0  0
   35.1300   28.2660   41.5050 H   0  0  0  0  0  0  0  0  0  0  0  0
   35.5970   29.6890   39.8630 C   0  0  0  0  0  0  0  0  0  0  0  0
   34.6660   29.4670   39.3570 H   0  0  0  0  0  0  0  0  0  0  0  0
   36.5060   30.5810   39.3830 C   0  0  0  0  0  3  0  0  0  0  0  0
   37.6730   30.8110   40.0860 C   0  0  0  0  0  3  0  0  0  0  0  0
   39.2560   30.3830   43.4360 H   0  0  0  0  0  0  0  0  0  0  0  0
   39.4190   30.5080   42.0760 S   0  0  0  0  0  0  0  0  0  0  0  0
   40.4310   29.4850   41.6210 O   0  0  0  0  0  0  0  0  0  0  0  0
   39.8850   31.8770   41.7120 O   0  0  0  0  0  0  0  0  0  0  0  0
  1  2  2  0  0  0  0
  1  6  1  0  0  0  0
  2  3  1  0  0  0  0
  3 20  1  0  0  0  0
  3  4  2  0  0  0  0
  4  8  1  0  0  0  0
  5  4  1  0  0  0  0
  5  9  1  0  0  0  0
  6  5  2  0  0  0  0
  7  2  1  0  0  0  0
 10  6  1  0  0  0  0
 11 16  1  0  0  0  0
 12 11  2  0  0  0  0
 12 13  1  0  0  0  0
 13 14  2  0  0  0  0
 14 15  1  0  0  0  0
 15  1  1  0  0  0  0
 16 15  2  0  0  0  0
 17 11  1  0  0  0  0
 18 12  1  0  0  0  0
 19 13  1  0  0  0  0
 21 22  1  0  0  0  0
 21 30  1  0  0  0  0
 22 20  1  0  0  0  0
 23 24  1  0  0  0  0
 23 22  2  0  0  0  0
 25 23  1  0  0  0  0
 26 25  1  0  0  0  0
 27 25  2  0  0  0  0
 27 28  1  0  0  0  0
 28 21  2  0  0  0  0
 30 29  1  0  0  0  0
 31 30  2  0  0  0  0
 32 30  2  0  0  0  0
M  END
>  <minimizedAffinity>
-5.47256899

$$$$

 OpenBabel03242516233D

 32 34  0  0  0  0  0  0  0  0999 V2000
   37.4840   31.4810   39.0810 C   0  0  0  0  0  0  0  0  0  0  0  0
   38.2840   30.9850   40.0820 C   0  0  0  0  0  0  0  0  0  0  0  0
   38.9170   31.8150   40.9840 C   0  0  0  0  0  0  0  0  0  0  0  0
   38.7550   33.1970   40.8990 C   0  0  0  0  0  0  0  0  0  0  0  0
   37.9690   33.7090   39.9190 C   0  0  0  0  0  0  0  0  0  0  0  0
   37.3510   32.8520   39.0330 C   0  0  0  0  0  0  0  0  0  0  0  0
   38.4060   29.9070   40.1400 H   0  0  0  0  0  0  0  0  0  0  0  0
   39.2660   33.8310   41.6250 H   0  0  0  0  0  0  0  0  0  0  0  0
   37.8160   34.7800   39.8160 H   0  0  0  0  0  0  0  0  0  0  0  0
   36.7180   33.2490   38.2410 H   0  0  0  0  0  0  0  0  0  0  0  0
   35.2000   28.9690   37.7510 C   0  0  0  0  0  0  0  0  0  0  0  0
   35.5170   28.9050   36.3990 C   0  0  0  0  0  0  0  0  0  0  0  0
   36.5310   29.7360   35.9310 C   0  0  0  0  0  0  0  0  0  0  0  0
   37.1700   30.5720   36.7990 N   0  0  0  0  0  0  0  0  0  0  0  0
   36.8190   30.5970   38.1290 C   0  0  0  0  0  0  0  0  0  0  0  0
   35.8340   29.7970   38.6080 N   0  0  0  0  0  0  0  0  0  0  0  0
   34.4090   28.3140   38.0950 H   0  0  0  0  0  0  0  0  0  0  0  0
   35.0490   28.2690   35.6770 H   0  0  0  0  0  0  0  0  0  0  0  0
   36.8920   29.8010   34.9050 H   0  0  0  0  0  0  0  0  0  0  0  0
   39.9400   31.0860   42.2550 S   0  0  0  0  0  0  0  0  0  0  0  0
   40.2130   28.5150   42.8390 C   0  0  0  0  0  0  0  0  0  0  0  0
   39.2690   29.5450   42.8340 C   0  0  0  0  0  0  0  0  0  0  0  0
   37.9860   29.2750   43.2550 C   0  0  0  0  0  0  0  0  0  0  0  0
   37.3270   30.1460   43.2130 H   0  0  0  0  0  0  0  0  0  0  0  0
   37.6640   27.9970   43.6710 C   0  0  0  0  0  0  0  0  0  0  0  0
   36.6370   27.8660   43.9870 H   0  0  0  0  0  0  0  0  0  0  0  0
   38.5760   26.9870   43.6790 C   0  0  0  0  0  3  0  0  0  0  0  0
   39.8700   27.2320   43.2610 C   0  0  0  0  0  3  0  0  0  0  0  0
   41.9880   29.7530   41.4570 H   0  0  0  0  0  0  0  0  0  0  0  0
   41.8940   28.6940   42.3310 S   0  0  0  0  0  0  0  0  0  0  0  0
   42.6990   29.0230   43.5650 O   0  0  0  0  0  0  0  0  0  0  0  0
   42.4060   27.4370   41.7130 O   0  0  0  0  0  0  0  0  0  0  0  0
  1  2  1  0  0  0  0
  2  7  1  0  0  0  0
  2  3  2  0  0  0  0
  3 20  1  0  0  0  0
  4  3  1  0  0  0  0
  4  8  1  0  0  0  0
  5  4  2  0  0  0  0
  6  1  2  0  0  0  0
  6  5  1  0  0  0  0
  9  5  1  0  0  0  0
 10  6  1  0  0  0  0
 11 17  1  0  0  0  0
 11 16  1  0  0  0  0
 12 11  2  0  0  0  0
 13 12  1  0  0  0  0
 13 14  2  0  0  0  0
 14 15  1  0  0  0  0
 15 16  2  0  0  0  0
 15  1  1  0  0  0  0
 18 12  1  0  0  0  0
 19 13  1  0  0  0  0
 20 22  1  0  0  0  0
 21 28  1  0  0  0  0
 22 21  2  0  0  0  0
 22 23  1  0  0  0  0
 23 25  2  0  0  0  0
 24 23  1  0  0  0  0
 25 27  1  0  0  0  0
 25 26  1  0  0  0  0
 28 27  2  0  0  0  0
 29 30  1  0  0  0  0
 30 21  1  0  0  0  0
 30 31  2  0  0  0  0
 32 30  2  0  0  0  0
M  END
>  <minimizedAffinity>
-5.39404726

$$$$

 OpenBabel03242516233D

 32 34  0  0  0  0  0  0  0  0999 V2000
   37.3750   26.9760   41.5170 C   0  0  0  0  0  0  0  0  0  0  0  0
   38.2700   27.9370   41.1130 C   0  0  0  0  0  0  0  0  0  0  0  0
   38.6790   28.9480   41.9570 C   0  0  0  0  0  0  0  0  0  0  0  0
   38.1860   29.0190   43.2590 C   0  0  0  0  0  0  0  0  0  0  0  0
   37.3010   28.0810   43.6790 C   0  0  0  0  0  0  0  0  0  0  0  0
   36.9120   27.0830   42.8110 C   0  0  0  0  0  0  0  0  0  0  0  0
   38.6490   27.8750   40.0970 H   0  0  0  0  0  0  0  0  0  0  0  0
   38.5260   29.8290   43.9060 H   0  0  0  0  0  0  0  0  0  0  0  0
   36.8920   28.0990   44.6860 H   0  0  0  0  0  0  0  0  0  0  0  0
   36.2020   26.3240   43.1350 H   0  0  0  0  0  0  0  0  0  0  0  0
   36.5310   23.6400   40.3110 C   0  0  0  0  0  0  0  0  0  0  0  0
   36.1480   23.8450   38.9910 C   0  0  0  0  0  0  0  0  0  0  0  0
   36.1770   25.1480   38.5010 C   0  0  0  0  0  0  0  0  0  0  0  0
   36.5750   26.1650   39.3190 N   0  0  0  0  0  0  0  0  0  0  0  0
   36.9450   25.9090   40.6190 C   0  0  0  0  0  0  0  0  0  0  0  0
   36.9240   24.6490   41.1180 N   0  0  0  0  0  0  0  0  0  0  0  0
   36.5010   22.6190   40.6730 H   0  0  0  0  0  0  0  0  0  0  0  0
   35.8280   23.0850   38.3080 H   0  0  0  0  0  0  0  0  0  0  0  0
   35.9080   25.4660   37.4940 H   0  0  0  0  0  0  0  0  0  0  0  0
   39.8480   30.1570   41.3500 S   0  0  0  0  0  0  0  0  0  0  0  0
   39.9090   32.6790   40.5390 C   0  0  0  0  0  0  0  0  0  0  0  0
   39.0300   31.6120   40.7410 C   0  0  0  0  0  0  0  0  0  0  0  0
   37.6930   31.7890   40.4620 C   0  0  0  0  0  0  0  0  0  0  0  0
   37.0920   30.8960   40.6530 H   0  0  0  0  0  0  0  0  0  0  0  0
   37.2540   33.0110   39.9910 C   0  0  0  0  0  0  0  0  0  0  0  0
   36.1910   33.0700   39.7960 H   0  0  0  0  0  0  0  0  0  0  0  0
   38.1020   34.0570   39.7910 C   0  0  0  0  0  3  0  0  0  0  0  0
   39.4490   33.9050   40.0630 C   0  0  0  0  0  3  0  0  0  0  0  0
   41.8910   31.7110   41.8510 H   0  0  0  0  0  0  0  0  0  0  0  0
   41.6460   32.6180   40.8460 S   0  0  0  0  0  0  0  0  0  0  0  0
   42.3050   32.1180   39.5840 O   0  0  0  0  0  0  0  0  0  0  0  0
   42.1780   33.9670   41.1950 O   0  0  0  0  0  0  0  0  0  0  0  0
  1  6  1  0  0  0  0
  2  1  2  0  0  0  0
  2  3  1  0  0  0  0
  3  4  2  0  0  0  0
  4  5  1  0  0  0  0
  4  8  1  0  0  0  0
  5  9  1  0  0  0  0
  6 10  1  0  0  0  0
  6  5  2  0  0  0  0
  7  2  1  0  0  0  0
 11 17  1  0  0  0  0
 11 16  1  0  0  0  0
 12 11  2  0  0  0  0
 13 12  1  0  0  0  0
 13 14  2  0  0  0  0
 14 15  1  0  0  0  0
 15 16  2  0  0  0  0
 15  1  1  0  0  0  0
 18 12  1  0  0  0  0
 19 13  1  0  0  0  0
 20  3  1  0  0  0  0
 21 22  1  0  0  0  0
 21 30  1  0  0  0  0
 22 20  1  0  0  0  0
 23 24  1  0  0  0  0
 23 22  2  0  0  0  0
 25 23  1  0  0  0  0
 26 25  1  0  0  0  0
 27 25  2  0  0  0  0
 27 28  1  0  0  0  0
 28 21  2  0  0  0  0
 30 32  2  0  0  0  0
 30 29  1  0  0  0  0
 31 30  2  0  0  0  0
M  END
>  <minimizedAffinity>
-5.33990669

$$$$

 OpenBabel03242516233D

 32 34  0  0  0  0  0  0  0  0999 V2000
   38.0550   31.3230   38.4730 C   0  0  0  0  0  0  0  0  0  0  0  0
   37.3730   30.6550   39.4610 C   0  0  0  0  0  0  0  0  0  0  0  0
   36.3870   29.7350   39.1670 C   0  0  0  0  0  0  0  0  0  0  0  0
   36.0560   29.4600   37.8410 C   0  0  0  0  0  0  0  0  0  0  0  0
   36.7160   30.1090   36.8500 C   0  0  0  0  0  0  0  0  0  0  0  0
   37.6960   31.0220   37.1760 C   0  0  0  0  0  0  0  0  0  0  0  0
   37.6370   30.8750   40.4900 H   0  0  0  0  0  0  0  0  0  0  0  0
   35.2730   28.7280   37.6360 H   0  0  0  0  0  0  0  0  0  0  0  0
   36.4890   29.9240   35.8030 H   0  0  0  0  0  0  0  0  0  0  0  0
   38.2340   31.5500   36.3910 H   0  0  0  0  0  0  0  0  0  0  0  0
   41.1900   33.1740   38.2850 C   0  0  0  0  0  0  0  0  0  0  0  0
   41.1020   34.0960   39.3220 C   0  0  0  0  0  0  0  0  0  0  0  0
   39.9490   34.0860   40.1020 C   0  0  0  0  0  0  0  0  0  0  0  0
   38.9590   33.1870   39.8280 N   0  0  0  0  0  0  0  0  0  0  0  0
   39.0960   32.2960   38.7890 C   0  0  0  0  0  0  0  0  0  0  0  0
   40.2100   32.2860   38.0160 N   0  0  0  0  0  0  0  0  0  0  0  0
   42.0960   33.1980   37.6900 H   0  0  0  0  0  0  0  0  0  0  0  0
   41.8470   34.8200   39.5790 H   0  0  0  0  0  0  0  0  0  0  0  0
   39.7330   34.7410   40.9450 H   0  0  0  0  0  0  0  0  0  0  0  0
   35.5510   28.9100   40.5140 S   0  0  0  0  0  0  0  0  0  0  0  0
   37.1530   27.0020   41.4180 C   0  0  0  0  0  0  0  0  0  0  0  0
   36.7000   28.2890   41.7190 C   0  0  0  0  0  0  0  0  0  0  0  0
   37.1670   28.9100   42.8560 C   0  0  0  0  0  0  0  0  0  0  0  0
   36.7540   29.9120   42.9990 H   0  0  0  0  0  0  0  0  0  0  0  0
   38.0680   28.2490   43.6680 C   0  0  0  0  0  0  0  0  0  0  0  0
   38.3860   28.8040   44.5410 H   0  0  0  0  0  0  0  0  0  0  0  0
   38.5130   26.9950   43.3850 C   0  0  0  0  0  3  0  0  0  0  0  0
   38.0600   26.3500   42.2500 C   0  0  0  0  0  3  0  0  0  0  0  0
   35.4230   26.5180   39.5830 H   0  0  0  0  0  0  0  0  0  0  0  0
   36.6540   26.0700   40.0040 S   0  0  0  0  0  0  0  0  0  0  0  0
   37.6590   26.3430   38.9130 O   0  0  0  0  0  0  0  0  0  0  0  0
   36.6210   24.6100   40.3080 O   0  0  0  0  0  0  0  0  0  0  0  0
  1 15  1  0  0  0  0
  1  2  1  0  0  0  0
  2  7  1  0  0  0  0
  3  2  2  0  0  0  0
  3 20  1  0  0  0  0
  4  3  1  0  0  0  0
  5  6  1  0  0  0  0
  5  4  2  0  0  0  0
  6  1  2  0  0  0  0
  8  4  1  0  0  0  0
  9  5  1  0  0  0  0
 10  6  1  0  0  0  0
 11 12  1  0  0  0  0
 12 18  1  0  0  0  0
 12 13  2  0  0  0  0
 13 19  1  0  0  0  0
 14 13  1  0  0  0  0
 15 14  2  0  0  0  0
 16 11  2  0  0  0  0
 16 15  1  0  0  0  0
 17 11  1  0  0  0  0
 20 22  1  0  0  0  0
 21 22  2  0  0  0  0
 21 28  1  0  0  0  0
 22 23  1  0  0  0  0
 23 24  1  0  0  0  0
 23 25  2  0  0  0  0
 25 26  1  0  0  0  0
 27 25  1  0  0  0  0
 28 27  2  0  0  0  0
 29 30  1  0  0  0  0
 30 32  2  0  0  0  0
 30 21  1  0  0  0  0
 31 30  2  0  0  0  0
M  END
>  <minimizedAffinity>
-5.3232069

$$$$

 OpenBabel03242516233D

 32 34  0  0  0  0  0  0  0  0999 V2000
   36.0100   29.4000   37.2070 C   0  0  0  0  0  0  0  0  0  0  0  0
   35.9240   29.6070   38.5630 C   0  0  0  0  0  0  0  0  0  0  0  0
   36.6420   30.6030   39.1920 C   0  0  0  0  0  0  0  0  0  0  0  0
   37.4830   31.4340   38.4550 C   0  0  0  0  0  0  0  0  0  0  0  0
   37.5840   31.2480   37.1150 C   0  0  0  0  0  0  0  0  0  0  0  0
   36.8540   30.2450   36.5170 C   0  0  0  0  0  0  0  0  0  0  0  0
   35.2660   28.9540   39.1290 H   0  0  0  0  0  0  0  0  0  0  0  0
   38.0400   32.2140   38.9770 H   0  0  0  0  0  0  0  0  0  0  0  0
   38.2280   31.8740   36.5030 H   0  0  0  0  0  0  0  0  0  0  0  0
   36.9250   30.0840   35.4420 H   0  0  0  0  0  0  0  0  0  0  0  0
   34.7420   27.2210   34.5740 C   0  0  0  0  0  0  0  0  0  0  0  0
   33.8510   26.3790   35.2310 C   0  0  0  0  0  0  0  0  0  0  0  0
   33.6790   26.5590   36.6010 C   0  0  0  0  0  0  0  0  0  0  0  0
   34.3790   27.5380   37.2440 N   0  0  0  0  0  0  0  0  0  0  0  0
   35.2480   28.3450   36.5470 C   0  0  0  0  0  0  0  0  0  0  0  0
   35.4320   28.1890   35.2130 N   0  0  0  0  0  0  0  0  0  0  0  0
   34.8610   27.0640   33.5080 H   0  0  0  0  0  0  0  0  0  0  0  0
   33.2790   25.5980   34.7760 H   0  0  0  0  0  0  0  0  0  0  0  0
   33.0220   25.9830   37.2510 H   0  0  0  0  0  0  0  0  0  0  0  0
   36.4700   30.8020   40.9600 S   0  0  0  0  0  0  0  0  0  0  0  0
   38.4260   29.5160   42.2030 C   0  0  0  0  0  0  0  0  0  0  0  0
   37.0820   29.3860   41.8430 C   0  0  0  0  0  0  0  0  0  0  0  0
   36.4070   28.2370   42.1910 C   0  0  0  0  0  0  0  0  0  0  0  0
   35.3640   28.2350   41.8630 H   0  0  0  0  0  0  0  0  0  0  0  0
   37.0720   27.2440   42.8850 C   0  0  0  0  0  0  0  0  0  0  0  0
   36.4730   26.3740   43.1200 H   0  0  0  0  0  0  0  0  0  0  0  0
   38.3800   27.3610   43.2390 C   0  0  0  0  0  3  0  0  0  0  0  0
   39.0800   28.5040   42.9030 C   0  0  0  0  0  3  0  0  0  0  0  0
   38.6280   32.0340   41.7450 H   0  0  0  0  0  0  0  0  0  0  0  0
   39.4300   30.9200   41.8350 S   0  0  0  0  0  0  0  0  0  0  0  0
   40.3760   31.1080   42.9960 O   0  0  0  0  0  0  0  0  0  0  0  0
   40.2060   30.7110   40.5790 O   0  0  0  0  0  0  0  0  0  0  0  0
  1  2  1  0  0  0  0
  2  7  1  0  0  0  0
  2  3  2  0  0  0  0
  3 20  1  0  0  0  0
  4  8  1  0  0  0  0
  4  3  1  0  0  0  0
  5  4  2  0  0  0  0
  6  5  1  0  0  0  0
  6  1  2  0  0  0  0
  9  5  1  0  0  0  0
 10  6  1  0  0  0  0
 11 16  2  0  0  0  0
 11 12  1  0  0  0  0
 12 13  2  0  0  0  0
 13 14  1  0  0  0  0
 13 19  1  0  0  0  0
 15  1  1  0  0  0  0
 15 14  2  0  0  0  0
 16 15  1  0  0  0  0
 17 11  1  0  0  0  0
 18 12  1  0  0  0  0
 20 22  1  0  0  0  0
 21 28  1  0  0  0  0
 22 23  1  0  0  0  0
 22 21  2  0  0  0  0
 23 25  2  0  0  0  0
 24 23  1  0  0  0  0
 25 26  1  0  0  0  0
 25 27  1  0  0  0  0
 28 27  2  0  0  0  0
 29 30  1  0  0  0  0
 30 21  1  0  0  0  0
 30 31  2  0  0  0  0
 32 30  2  0  0  0  0
M  END
>  <minimizedAffinity>
-5.15311337

$$$$

 OpenBabel03242516233D

 32 34  0  0  0  0  0  0  0  0999 V2000
   35.6380   29.2200   38.1210 C   0  0  0  0  0  0  0  0  0  0  0  0
   34.3030   29.0630   37.8340 C   0  0  0  0  0  0  0  0  0  0  0  0
   33.8420   29.0040   36.5350 C   0  0  0  0  0  0  0  0  0  0  0  0
   34.7340   29.1030   35.4690 C   0  0  0  0  0  0  0  0  0  0  0  0
   36.0560   29.2590   35.7280 C   0  0  0  0  0  0  0  0  0  0  0  0
   36.4850   29.3150   37.0370 C   0  0  0  0  0  0  0  0  0  0  0  0
   33.6160   28.9870   38.6710 H   0  0  0  0  0  0  0  0  0  0  0  0
   34.3440   29.0530   34.4510 H   0  0  0  0  0  0  0  0  0  0  0  0
   36.7860   29.3410   34.9260 H   0  0  0  0  0  0  0  0  0  0  0  0
   37.5430   29.4400   37.2600 H   0  0  0  0  0  0  0  0  0  0  0  0
   37.1320   30.5380   41.1740 C   0  0  0  0  0  0  0  0  0  0  0  0
   37.0510   29.4810   42.0740 C   0  0  0  0  0  0  0  0  0  0  0  0
   36.4740   28.2950   41.6300 C   0  0  0  0  0  0  0  0  0  0  0  0
   36.0150   28.2080   40.3480 N   0  0  0  0  0  0  0  0  0  0  0  0
   36.1200   29.2830   39.4970 C   0  0  0  0  0  0  0  0  0  0  0  0
   36.6780   30.4490   39.9060 N   0  0  0  0  0  0  0  0  0  0  0  0
   37.5850   31.4520   41.5390 H   0  0  0  0  0  0  0  0  0  0  0  0
   37.3940   29.4960   43.0870 H   0  0  0  0  0  0  0  0  0  0  0  0
   36.3390   27.3840   42.2130 H   0  0  0  0  0  0  0  0  0  0  0  0
   32.0900   28.7970   36.2520 S   0  0  0  0  0  0  0  0  0  0  0  0
   30.3170   30.7510   36.5030 C   0  0  0  0  0  0  0  0  0  0  0  0
   31.3380   30.2970   35.6650 C   0  0  0  0  0  0  0  0  0  0  0  0
   31.6410   31.0190   34.5320 C   0  0  0  0  0  0  0  0  0  0  0  0
   32.4530   30.5800   33.9460 H   0  0  0  0  0  0  0  0  0  0  0  0
   30.9310   32.1710   34.2530 C   0  0  0  0  0  0  0  0  0  0  0  0
   31.2290   32.6810   33.3460 H   0  0  0  0  0  0  0  0  0  0  0  0
   29.9350   32.6210   35.0620 C   0  0  0  0  0  3  0  0  0  0  0  0
   29.6120   31.9150   36.2050 C   0  0  0  0  0  3  0  0  0  0  0  0
   30.9170   29.4480   38.6320 H   0  0  0  0  0  0  0  0  0  0  0  0
   29.8070   29.9450   37.9890 S   0  0  0  0  0  0  0  0  0  0  0  0
   29.1750   30.9930   38.8710 O   0  0  0  0  0  0  0  0  0  0  0  0
   28.8210   28.8630   37.7010 O   0  0  0  0  0  0  0  0  0  0  0  0
  1 15  1  0  0  0  0
  2  1  1  0  0  0  0
  2  7  1  0  0  0  0
  3  2  2  0  0  0  0
  4  5  2  0  0  0  0
  4  3  1  0  0  0  0
  5  6  1  0  0  0  0
  6 10  1  0  0  0  0
  6  1  2  0  0  0  0
  8  4  1  0  0  0  0
  9  5  1  0  0  0  0
 11 17  1  0  0  0  0
 11 12  1  0  0  0  0
 12 18  1  0  0  0  0
 13 12  2  0  0  0  0
 13 19  1  0  0  0  0
 14 13  1  0  0  0  0
 15 16  1  0  0  0  0
 15 14  2  0  0  0  0
 16 11  2  0  0  0  0
 20  3  1  0  0  0  0
 21 30  1  0  0  0  0
 22 20  1  0  0  0  0
 22 21  2  0  0  0  0
 23 22  1  0  0  0  0
 24 23  1  0  0  0  0
 25 23  2  0  0  0  0
 25 27  1  0  0  0  0
 26 25  1  0  0  0  0
 27 28  2  0  0  0  0
 28 21  1  0  0  0  0
 30 29  1  0  0  0  0
 30 31  2  0  0  0  0
 32 30  2  0  0  0  0
M  END
>  <minimizedAffinity>
-5.09955168

$$$$

 OpenBabel03242516233D

 32 34  0  0  0  0  0  0  0  0999 V2000
   35.8870   29.4540   37.5730 C   0  0  0  0  0  0  0  0  0  0  0  0
   34.5630   29.1940   37.3160 C   0  0  0  0  0  0  0  0  0  0  0  0
   34.0830   29.0780   36.0280 C   0  0  0  0  0  0  0  0  0  0  0  0
   34.9450   29.2220   34.9420 C   0  0  0  0  0  0  0  0  0  0  0  0
   36.2570   29.4780   35.1720 C   0  0  0  0  0  0  0  0  0  0  0  0
   36.7050   29.5890   36.4710 C   0  0  0  0  0  0  0  0  0  0  0  0
   33.8980   29.0840   38.1680 H   0  0  0  0  0  0  0  0  0  0  0  0
   34.5400   29.1240   33.9330 H   0  0  0  0  0  0  0  0  0  0  0  0
   36.9630   29.5980   34.3550 H   0  0  0  0  0  0  0  0  0  0  0  0
   37.7550   29.7950   36.6710 H   0  0  0  0  0  0  0  0  0  0  0  0
   37.9910   28.9670   40.5110 C   0  0  0  0  0  0  0  0  0  0  0  0
   37.3950   29.7570   41.4880 C   0  0  0  0  0  0  0  0  0  0  0  0
   36.2530   30.4700   41.1380 C   0  0  0  0  0  0  0  0  0  0  0  0
   35.7620   30.3730   39.8680 N   0  0  0  0  0  0  0  0  0  0  0  0
   36.3890   29.5770   38.9380 C   0  0  0  0  0  0  0  0  0  0  0  0
   37.5030   28.8730   39.2560 N   0  0  0  0  0  0  0  0  0  0  0  0
   38.8790   28.4190   40.8040 H   0  0  0  0  0  0  0  0  0  0  0  0
   37.7380   29.8680   42.4960 H   0  0  0  0  0  0  0  0  0  0  0  0
   35.6770   31.1280   41.7880 H   0  0  0  0  0  0  0  0  0  0  0  0
   32.3450   28.7390   35.7840 S   0  0  0  0  0  0  0  0  0  0  0  0
   30.9950   31.0150   35.9360 C   0  0  0  0  0  0  0  0  0  0  0  0
   31.3210   29.8800   36.6830 C   0  0  0  0  0  0  0  0  0  0  0  0
   30.8410   29.7680   37.9690 C   0  0  0  0  0  0  0  0  0  0  0  0
   31.1520   28.8450   38.4660 H   0  0  0  0  0  0  0  0  0  0  0  0
   30.0520   30.7770   38.4870 C   0  0  0  0  0  0  0  0  0  0  0  0
   29.7140   30.6140   39.5030 H   0  0  0  0  0  0  0  0  0  0  0  0
   29.7300   31.8860   37.7690 C   0  0  0  0  0  3  0  0  0  0  0  0
   30.1990   32.0220   36.4760 C   0  0  0  0  0  3  0  0  0  0  0  0
   32.7130   30.6450   34.0640 H   0  0  0  0  0  0  0  0  0  0  0  0
   31.5290   31.3110   34.2790 S   0  0  0  0  0  0  0  0  0  0  0  0
   30.4810   30.7270   33.3630 O   0  0  0  0  0  0  0  0  0  0  0  0
   31.6750   32.7710   34.0150 O   0  0  0  0  0  0  0  0  0  0  0  0
  1 15  1  0  0  0  0
  2  1  1  0  0  0  0
  2  7  1  0  0  0  0
  3  2  2  0  0  0  0
  4  5  2  0  0  0  0
  4  3  1  0  0  0  0
  5  6  1  0  0  0  0
  6 10  1  0  0  0  0
  6  1  2  0  0  0  0
  8  4  1  0  0  0  0
  9  5  1  0  0  0  0
 11 17  1  0  0  0  0
 11 12  1  0  0  0  0
 12 18  1  0  0  0  0
 13 12  2  0  0  0  0
 13 19  1  0  0  0  0
 14 13  1  0  0  0  0
 15 16  1  0  0  0  0
 15 14  2  0  0  0  0
 16 11  2  0  0  0  0
 20  3  1  0  0  0  0
 20 22  1  0  0  0  0
 21 28  2  0  0  0  0
 21 22  1  0  0  0  0
 22 23  2  0  0  0  0
 23 24  1  0  0  0  0
 23 25  1  0  0  0  0
 25 26  1  0  0  0  0
 27 25  2  0  0  0  0
 28 27  1  0  0  0  0
 29 30  1  0  0  0  0
 30 21  1  0  0  0  0
 31 30  2  0  0  0  0
 32 30  2  0  0  0  0
M  END
>  <minimizedAffinity>
-5.04191589

$$$$
