
 OpenBabel03252503173D

 39 42  0  0  0  0  0  0  0  0999 V2000
   39.0760   31.9850   40.4520 C   0  0  0  0  0  0  0  0  0  0  0  0
   39.3070   30.6900   40.8780 C   0  0  0  0  0  0  0  0  0  0  0  0
   38.0920   30.2080   41.2100 N   0  0  0  0  0  0  0  0  0  0  0  0
   37.1680   31.1650   40.9940 C   0  0  0  0  0  0  0  0  0  0  0  0
   37.7710   32.2780   40.5220 N   0  0  0  0  0  0  0  0  0  0  0  0
   35.7530   31.1620   41.1830 N   0  0  0  0  0  0  0  0  0  0  0  0
   40.2490   30.1630   40.9390 H   0  0  0  0  0  0  0  0  0  0  0  0
   35.1930   31.3280   40.3070 H   0  0  0  0  0  0  0  0  0  0  0  0
   35.4520   30.9950   42.1720 H   0  0  0  0  0  0  0  0  0  0  0  0
   37.3400   27.8380   40.9630 C   0  0  0  0  0  0  0  0  0  0  0  0
   37.7790   28.9130   41.7090 C   0  0  0  0  0  0  0  0  0  0  0  0
   37.9350   28.7320   43.0710 C   0  0  0  0  0  0  0  0  0  0  0  0
   38.2810   29.5440   43.7240 H   0  0  0  0  0  0  0  0  0  0  0  0
   37.6650   27.5220   43.6800 C   0  0  0  0  0  0  0  0  0  0  0  0
   37.7910   27.3840   44.7650 H   0  0  0  0  0  0  0  0  0  0  0  0
   37.2200   26.4280   42.9390 C   0  0  0  0  0  3  0  0  0  0  0  0
   37.0720   26.6340   41.5800 C   0  0  0  0  0  3  0  0  0  0  0  0
   38.1900   28.7920   38.7130 H   0  0  0  0  0  0  0  0  0  0  0  0
   37.1520   28.1000   39.2450 S   0  0  0  0  0  0  0  0  0  0  0  0
   37.1540   26.7120   38.6200 O   0  0  0  0  0  0  0  0  0  0  0  0
   35.8100   28.7320   38.9890 O   0  0  0  0  0  0  0  0  0  0  0  0
   40.1320   32.9450   39.9730 C   0  0  0  0  0  0  0  0  0  0  0  0
   40.2200   34.1480   40.3760 O   0  0  0  0  0  0  0  0  0  0  0  0
   40.7460   32.3970   37.6690 C   0  0  0  0  0  0  0  0  0  0  0  0
   41.1030   32.5390   39.0220 C   0  0  0  0  0  0  0  0  0  0  0  0
   42.4200   32.2610   39.3110 C   0  0  0  0  0  0  0  0  0  0  0  0
   43.2990   31.8790   38.3660 N   0  0  0  0  0  0  0  0  0  0  0  0
   42.9030   31.7570   37.0730 C   0  0  0  0  0  0  0  0  0  0  0  0
   41.6310   32.0160   36.7370 N   0  0  0  0  0  0  0  0  0  0  0  0
   39.7240   32.5990   37.3710 H   0  0  0  0  0  0  0  0  0  0  0  0
   43.6450   31.4460   36.3440 H   0  0  0  0  0  0  0  0  0  0  0  0
   42.8620   32.3780   40.6520 C   0  0  0  0  0  0  0  0  0  0  0  0
   42.7990   31.5920   41.7600 C   0  0  0  0  0  0  0  0  0  0  0  0
   43.3130   31.9680   42.9110 C   0  0  0  0  0  0  0  0  0  0  0  0
   43.9130   33.1760   42.9600 C   0  0  0  0  0  0  0  0  0  0  0  0
   43.7290   33.8090   41.2620 S   0  0  0  0  0  0  0  0  0  0  0  0
   42.2840   30.6220   41.5980 H   0  0  0  0  0  0  0  0  0  0  0  0
   43.3040   31.4030   43.8330 H   0  0  0  0  0  0  0  0  0  0  0  0
   44.4190   33.7340   43.7800 H   0  0  0  0  0  0  0  0  0  0  0  0
  1  5  1  0  0  0  0
  1  2  2  0  0  0  0
  2  7  1  0  0  0  0
  2  3  1  0  0  0  0
  3 11  1  0  0  0  0
  4  6  1  0  0  0  0
  4  3  1  0  0  0  0
  5  4  2  0  0  0  0
  6  9  1  0  0  0  0
  8  6  1  0  0  0  0
 10 17  2  0  0  0  0
 10 11  1  0  0  0  0
 11 12  2  0  0  0  0
 12 14  1  0  0  0  0
 12 13  1  0  0  0  0
 14 15  1  0  0  0  0
 16 14  2  0  0  0  0
 17 16  1  0  0  0  0
 18 19  1  0  0  0  0
 19 10  1  0  0  0  0
 20 19  2  0  0  0  0
 21 19  2  0  0  0  0
 22 23  2  0  0  0  0
 22  1  1  0  0  0  0
 24 25  1  0  0  0  0
 25 26  2  0  0  0  0
 25 22  1  0  0  0  0
 26 32  1  0  0  0  0
 27 26  1  0  0  0  0
 28 27  2  0  0  0  0
 29 28  1  0  0  0  0
 29 24  2  0  0  0  0
 30 24  1  0  0  0  0
 31 28  1  0  0  0  0
 32 36  1  0  0  0  0
 32 33  2  0  0  0  0
 33 34  1  0  0  0  0
 34 35  2  0  0  0  0
 34 38  1  0  0  0  0
 35 39  1  0  0  0  0
 36 35  1  0  0  0  0
 37 33  1  0  0  0  0
M  END
>  <minimizedAffinity>
-5.95298386

$$$$

 OpenBabel03252503173D

 39 42  0  0  0  0  0  0  0  0999 V2000
   38.9930   31.7360   40.3040 C   0  0  0  0  0  0  0  0  0  0  0  0
   39.0990   30.3810   40.0500 C   0  0  0  0  0  0  0  0  0  0  0  0
   37.9060   29.8640   40.4040 N   0  0  0  0  0  0  0  0  0  0  0  0
   37.1130   30.8580   40.8510 C   0  0  0  0  0  0  0  0  0  0  0  0
   37.7820   32.0300   40.7940 N   0  0  0  0  0  0  0  0  0  0  0  0
   35.7720   30.8400   41.3390 N   0  0  0  0  0  0  0  0  0  0  0  0
   39.9470   29.8380   39.6540 H   0  0  0  0  0  0  0  0  0  0  0  0
   35.0940   31.4210   40.7800 H   0  0  0  0  0  0  0  0  0  0  0  0
   35.6320   30.2500   42.1930 H   0  0  0  0  0  0  0  0  0  0  0  0
   37.6270   27.5640   41.3410 C   0  0  0  0  0  0  0  0  0  0  0  0
   37.4960   28.5030   40.3390 C   0  0  0  0  0  0  0  0  0  0  0  0
   36.9110   28.1010   39.1510 C   0  0  0  0  0  0  0  0  0  0  0  0
   36.7740   28.7960   38.3130 H   0  0  0  0  0  0  0  0  0  0  0  0
   36.4690   26.8070   38.9600 C   0  0  0  0  0  0  0  0  0  0  0  0
   36.0030   26.4930   38.0120 H   0  0  0  0  0  0  0  0  0  0  0  0
   36.5960   25.8470   39.9640 C   0  0  0  0  0  3  0  0  0  0  0  0
   37.1830   26.2740   41.1400 C   0  0  0  0  0  3  0  0  0  0  0  0
   39.3630   29.0010   42.6120 H   0  0  0  0  0  0  0  0  0  0  0  0
   38.3700   28.1030   42.8290 S   0  0  0  0  0  0  0  0  0  0  0  0
   37.2660   28.8110   43.6010 O   0  0  0  0  0  0  0  0  0  0  0  0
   38.8060   26.9000   43.6230 O   0  0  0  0  0  0  0  0  0  0  0  0
   40.0770   32.7530   40.0690 C   0  0  0  0  0  0  0  0  0  0  0  0
   40.0920   33.9010   40.6160 O   0  0  0  0  0  0  0  0  0  0  0  0
   41.0680   32.7800   37.8320 C   0  0  0  0  0  0  0  0  0  0  0  0
   41.1630   32.4690   39.2010 C   0  0  0  0  0  0  0  0  0  0  0  0
   42.3510   31.8930   39.5880 C   0  0  0  0  0  0  0  0  0  0  0  0
   43.3490   31.6470   38.7180 N   0  0  0  0  0  0  0  0  0  0  0  0
   43.2070   31.9660   37.4070 C   0  0  0  0  0  0  0  0  0  0  0  0
   42.0690   32.5290   36.9760 N   0  0  0  0  0  0  0  0  0  0  0  0
   40.1590   33.2360   37.4580 H   0  0  0  0  0  0  0  0  0  0  0  0
   44.0360   31.7490   36.7410 H   0  0  0  0  0  0  0  0  0  0  0  0
   42.5280   31.5470   40.9510 C   0  0  0  0  0  0  0  0  0  0  0  0
   42.2950   30.4370   41.7010 C   0  0  0  0  0  0  0  0  0  0  0  0
   42.5650   30.3960   42.9870 C   0  0  0  0  0  0  0  0  0  0  0  0
   43.0870   31.5060   43.5490 C   0  0  0  0  0  0  0  0  0  0  0  0
   43.1970   32.6740   42.1550 S   0  0  0  0  0  0  0  0  0  0  0  0
   41.8640   29.5870   41.1310 H   0  0  0  0  0  0  0  0  0  0  0  0
   42.4090   29.5560   43.6500 H   0  0  0  0  0  0  0  0  0  0  0  0
   43.4040   31.7480   44.5900 H   0  0  0  0  0  0  0  0  0  0  0  0
  1  5  1  0  0  0  0
  2  1  2  0  0  0  0
  2  3  1  0  0  0  0
  3  4  1  0  0  0  0
  4  6  1  0  0  0  0
  5  4  2  0  0  0  0
  6  9  1  0  0  0  0
  7  2  1  0  0  0  0
  8  6  1  0  0  0  0
 10 19  1  0  0  0  0
 11  3  1  0  0  0  0
 11 10  2  0  0  0  0
 12 11  1  0  0  0  0
 13 12  1  0  0  0  0
 14 12  2  0  0  0  0
 14 16  1  0  0  0  0
 15 14  1  0  0  0  0
 16 17  2  0  0  0  0
 17 10  1  0  0  0  0
 18 19  1  0  0  0  0
 19 20  2  0  0  0  0
 19 21  2  0  0  0  0
 22  1  1  0  0  0  0
 22 23  2  0  0  0  0
 24 25  1  0  0  0  0
 25 26  2  0  0  0  0
 25 22  1  0  0  0  0
 26 32  1  0  0  0  0
 27 26  1  0  0  0  0
 28 27  2  0  0  0  0
 29 28  1  0  0  0  0
 29 24  2  0  0  0  0
 30 24  1  0  0  0  0
 31 28  1  0  0  0  0
 32 33  2  0  0  0  0
 32 36  1  0  0  0  0
 33 34  1  0  0  0  0
 34 35  2  0  0  0  0
 34 38  1  0  0  0  0
 35 39  1  0  0  0  0
 36 35  1  0  0  0  0
 37 33  1  0  0  0  0
M  END
>  <minimizedAffinity>
-5.84563208

$$$$

 OpenBabel03252503173D

 39 42  0  0  0  0  0  0  0  0999 V2000
   37.8940   30.1940   41.0750 C   0  0  0  0  0  0  0  0  0  0  0  0
   38.7940   29.1450   41.0280 C   0  0  0  0  0  0  0  0  0  0  0  0
   38.3900   28.2940   41.9920 N   0  0  0  0  0  0  0  0  0  0  0  0
   37.2950   28.8010   42.5930 C   0  0  0  0  0  0  0  0  0  0  0  0
   36.9780   29.9870   42.0290 N   0  0  0  0  0  0  0  0  0  0  0  0
   36.4920   28.2970   43.6600 N   0  0  0  0  0  0  0  0  0  0  0  0
   39.6430   29.0200   40.3710 H   0  0  0  0  0  0  0  0  0  0  0  0
   35.4840   28.1260   43.4070 H   0  0  0  0  0  0  0  0  0  0  0  0
   37.0100   28.1600   44.5600 H   0  0  0  0  0  0  0  0  0  0  0  0
   38.5960   25.8050   41.9080 C   0  0  0  0  0  0  0  0  0  0  0  0
   38.9800   27.0520   42.3570 C   0  0  0  0  0  0  0  0  0  0  0  0
   40.0370   27.1190   43.2460 C   0  0  0  0  0  0  0  0  0  0  0  0
   40.3950   28.0780   43.6440 H   0  0  0  0  0  0  0  0  0  0  0  0
   40.6970   25.9860   43.6800 C   0  0  0  0  0  0  0  0  0  0  0  0
   41.5390   26.0460   44.3880 H   0  0  0  0  0  0  0  0  0  0  0  0
   40.3200   24.7190   43.2340 C   0  0  0  0  0  3  0  0  0  0  0  0
   39.2610   24.6790   42.3460 C   0  0  0  0  0  3  0  0  0  0  0  0
   36.4540   26.8410   40.8910 H   0  0  0  0  0  0  0  0  0  0  0  0
   37.2570   25.7540   40.7850 S   0  0  0  0  0  0  0  0  0  0  0  0
   37.8870   25.7770   39.3990 O   0  0  0  0  0  0  0  0  0  0  0  0
   36.5280   24.4470   40.9510 O   0  0  0  0  0  0  0  0  0  0  0  0
   37.9250   31.4060   40.1830 C   0  0  0  0  0  0  0  0  0  0  0  0
   36.9280   32.1770   40.0140 O   0  0  0  0  0  0  0  0  0  0  0  0
   40.0630   32.5910   40.0660 C   0  0  0  0  0  0  0  0  0  0  0  0
   39.1020   31.7540   39.4710 C   0  0  0  0  0  0  0  0  0  0  0  0
   39.4060   31.3290   38.1980 C   0  0  0  0  0  0  0  0  0  0  0  0
   40.5400   31.6910   37.5690 N   0  0  0  0  0  0  0  0  0  0  0  0
   41.4350   32.5020   38.1890 C   0  0  0  0  0  0  0  0  0  0  0  0
   41.1890   32.9450   39.4300 N   0  0  0  0  0  0  0  0  0  0  0  0
   39.8870   32.9630   41.0690 H   0  0  0  0  0  0  0  0  0  0  0  0
   42.3360   32.7690   37.6450 H   0  0  0  0  0  0  0  0  0  0  0  0
   38.4890   30.4830   37.5250 C   0  0  0  0  0  0  0  0  0  0  0  0
   37.2860   30.6570   36.9160 C   0  0  0  0  0  0  0  0  0  0  0  0
   36.6390   29.6590   36.3550 C   0  0  0  0  0  0  0  0  0  0  0  0
   37.2130   28.4380   36.4030 C   0  0  0  0  0  0  0  0  0  0  0  0
   38.7680   28.7390   37.3040 S   0  0  0  0  0  0  0  0  0  0  0  0
   36.9130   31.7020   36.9390 H   0  0  0  0  0  0  0  0  0  0  0  0
   35.6820   29.7140   35.8540 H   0  0  0  0  0  0  0  0  0  0  0  0
   36.8990   27.4400   36.0220 H   0  0  0  0  0  0  0  0  0  0  0  0
  1  5  1  0  0  0  0
  2  1  2  0  0  0  0
  2  3  1  0  0  0  0
  3 11  1  0  0  0  0
  3  4  1  0  0  0  0
  4  6  1  0  0  0  0
  5  4  2  0  0  0  0
  6  9  1  0  0  0  0
  7  2  1  0  0  0  0
  8  6  1  0  0  0  0
 10 17  2  0  0  0  0
 10 11  1  0  0  0  0
 11 12  2  0  0  0  0
 12 13  1  0  0  0  0
 12 14  1  0  0  0  0
 14 15  1  0  0  0  0
 16 14  2  0  0  0  0
 17 16  1  0  0  0  0
 19 18  1  0  0  0  0
 19 21  2  0  0  0  0
 19 10  1  0  0  0  0
 20 19  2  0  0  0  0
 22  1  1  0  0  0  0
 23 22  2  0  0  0  0
 24 30  1  0  0  0  0
 25 24  1  0  0  0  0
 25 22  1  0  0  0  0
 26 25  2  0  0  0  0
 27 28  2  0  0  0  0
 27 26  1  0  0  0  0
 28 29  1  0  0  0  0
 29 24  2  0  0  0  0
 31 28  1  0  0  0  0
 32 26  1  0  0  0  0
 33 37  1  0  0  0  0
 33 32  2  0  0  0  0
 34 35  2  0  0  0  0
 34 33  1  0  0  0  0
 35 36  1  0  0  0  0
 36 32  1  0  0  0  0
 38 34  1  0  0  0  0
 39 35  1  0  0  0  0
M  END
>  <minimizedAffinity>
-5.84213543

$$$$

 OpenBabel03252503173D

 39 42  0  0  0  0  0  0  0  0999 V2000
   40.1740   30.1250   41.7360 C   0  0  0  0  0  0  0  0  0  0  0  0
   40.0760   28.8190   41.2920 C   0  0  0  0  0  0  0  0  0  0  0  0
   39.0020   28.3120   41.9280 N   0  0  0  0  0  0  0  0  0  0  0  0
   38.4720   29.2660   42.7190 C   0  0  0  0  0  0  0  0  0  0  0  0
   39.1960   30.4000   42.6080 N   0  0  0  0  0  0  0  0  0  0  0  0
   37.3410   29.2400   43.5900 N   0  0  0  0  0  0  0  0  0  0  0  0
   40.7150   28.3020   40.5890 H   0  0  0  0  0  0  0  0  0  0  0  0
   36.5830   29.9290   43.3450 H   0  0  0  0  0  0  0  0  0  0  0  0
   37.4090   28.5370   44.3630 H   0  0  0  0  0  0  0  0  0  0  0  0
   37.3790   26.6210   41.0610 C   0  0  0  0  0  0  0  0  0  0  0  0
   38.4690   26.9970   41.8190 C   0  0  0  0  0  0  0  0  0  0  0  0
   39.1170   26.0170   42.5480 C   0  0  0  0  0  0  0  0  0  0  0  0
   39.9900   26.2460   43.1720 H   0  0  0  0  0  0  0  0  0  0  0  0
   38.6990   24.7010   42.5290 C   0  0  0  0  0  0  0  0  0  0  0  0
   39.2190   23.9240   43.1110 H   0  0  0  0  0  0  0  0  0  0  0  0
   37.6000   24.3060   41.7670 C   0  0  0  0  0  3  0  0  0  0  0  0
   36.9700   25.3040   41.0470 C   0  0  0  0  0  3  0  0  0  0  0  0
   37.4630   28.7590   39.6060 H   0  0  0  0  0  0  0  0  0  0  0  0
   36.5830   27.8840   40.1510 S   0  0  0  0  0  0  0  0  0  0  0  0
   35.8700   27.1740   39.0090 O   0  0  0  0  0  0  0  0  0  0  0  0
   35.5440   28.5360   41.0240 O   0  0  0  0  0  0  0  0  0  0  0  0
   41.2270   31.1130   41.3100 C   0  0  0  0  0  0  0  0  0  0  0  0
   41.7850   31.9310   42.1070 O   0  0  0  0  0  0  0  0  0  0  0  0
   42.8300   30.5140   39.5610 C   0  0  0  0  0  0  0  0  0  0  0  0
   41.6560   31.1780   39.9590 C   0  0  0  0  0  0  0  0  0  0  0  0
   41.0020   31.8590   38.9570 C   0  0  0  0  0  0  0  0  0  0  0  0
   41.4560   31.8870   37.6900 N   0  0  0  0  0  0  0  0  0  0  0  0
   42.5950   31.2280   37.3580 C   0  0  0  0  0  0  0  0  0  0  0  0
   43.2720   30.5490   38.2950 N   0  0  0  0  0  0  0  0  0  0  0  0
   43.3950   29.9580   40.2990 H   0  0  0  0  0  0  0  0  0  0  0  0
   42.9250   31.2770   36.3250 H   0  0  0  0  0  0  0  0  0  0  0  0
   39.8100   32.5580   39.2740 C   0  0  0  0  0  0  0  0  0  0  0  0
   39.5200   33.7540   39.8530 C   0  0  0  0  0  0  0  0  0  0  0  0
   38.2810   34.1610   40.0250 C   0  0  0  0  0  0  0  0  0  0  0  0
   37.2930   33.3440   39.6060 C   0  0  0  0  0  0  0  0  0  0  0  0
   38.1890   31.9110   38.9260 S   0  0  0  0  0  0  0  0  0  0  0  0
   40.4130   34.3390   40.1570 H   0  0  0  0  0  0  0  0  0  0  0  0
   37.9680   35.0930   40.4750 H   0  0  0  0  0  0  0  0  0  0  0  0
   36.1820   33.4300   39.6260 H   0  0  0  0  0  0  0  0  0  0  0  0
  1  5  1  0  0  0  0
  2  1  2  0  0  0  0
  2  3  1  0  0  0  0
  3  4  1  0  0  0  0
  4  6  1  0  0  0  0
  5  4  2  0  0  0  0
  6  9  1  0  0  0  0
  7  2  1  0  0  0  0
  8  6  1  0  0  0  0
 10 11  1  0  0  0  0
 11  3  1  0  0  0  0
 11 12  2  0  0  0  0
 12 13  1  0  0  0  0
 14 12  1  0  0  0  0
 14 15  1  0  0  0  0
 16 14  2  0  0  0  0
 17 10  2  0  0  0  0
 17 16  1  0  0  0  0
 18 19  1  0  0  0  0
 19 21  2  0  0  0  0
 19 10  1  0  0  0  0
 20 19  2  0  0  0  0
 22  1  1  0  0  0  0
 22 23  2  0  0  0  0
 24 25  1  0  0  0  0
 24 30  1  0  0  0  0
 25 22  1  0  0  0  0
 26 32  1  0  0  0  0
 26 25  2  0  0  0  0
 27 26  1  0  0  0  0
 28 27  2  0  0  0  0
 28 29  1  0  0  0  0
 29 24  2  0  0  0  0
 31 28  1  0  0  0  0
 32 33  2  0  0  0  0
 33 34  1  0  0  0  0
 33 37  1  0  0  0  0
 34 38  1  0  0  0  0
 35 39  1  0  0  0  0
 35 34  2  0  0  0  0
 36 32  1  0  0  0  0
 36 35  1  0  0  0  0
M  END
>  <minimizedAffinity>
-5.83606815

$$$$

 OpenBabel03252503173D

 39 42  0  0  0  0  0  0  0  0999 V2000
   39.2730   30.7180   39.6780 C   0  0  0  0  0  0  0  0  0  0  0  0
   40.5060   30.2090   39.3120 C   0  0  0  0  0  0  0  0  0  0  0  0
   40.7620   30.7450   38.1030 N   0  0  0  0  0  0  0  0  0  0  0  0
   39.7340   31.5430   37.7510 C   0  0  0  0  0  0  0  0  0  0  0  0
   38.7990   31.5330   38.7260 N   0  0  0  0  0  0  0  0  0  0  0  0
   39.5160   32.3320   36.5820 N   0  0  0  0  0  0  0  0  0  0  0  0
   41.1390   29.5280   39.8640 H   0  0  0  0  0  0  0  0  0  0  0  0
   39.4150   33.3650   36.7620 H   0  0  0  0  0  0  0  0  0  0  0  0
   39.4860   31.7820   35.6910 H   0  0  0  0  0  0  0  0  0  0  0  0
   42.9770   31.4050   37.1520 C   0  0  0  0  0  0  0  0  0  0  0  0
   41.9100   30.5400   37.2870 C   0  0  0  0  0  0  0  0  0  0  0  0
   41.9430   29.3570   36.5710 C   0  0  0  0  0  0  0  0  0  0  0  0
   41.1290   28.6240   36.6320 H   0  0  0  0  0  0  0  0  0  0  0  0
   43.0010   29.0380   35.7430 C   0  0  0  0  0  0  0  0  0  0  0  0
   43.0230   28.0940   35.1750 H   0  0  0  0  0  0  0  0  0  0  0  0
   44.0860   29.9020   35.5970 C   0  0  0  0  0  3  0  0  0  0  0  0
   44.0290   31.0770   36.3230 C   0  0  0  0  0  3  0  0  0  0  0  0
   42.3380   32.7140   39.2900 H   0  0  0  0  0  0  0  0  0  0  0  0
   42.9040   32.8900   38.0710 S   0  0  0  0  0  0  0  0  0  0  0  0
   44.3530   33.3050   38.2880 O   0  0  0  0  0  0  0  0  0  0  0  0
   42.2290   33.9480   37.2380 O   0  0  0  0  0  0  0  0  0  0  0  0
   38.5500   30.4110   40.9620 C   0  0  0  0  0  0  0  0  0  0  0  0
   37.8790   31.2730   41.6120 O   0  0  0  0  0  0  0  0  0  0  0  0
   39.6330   28.7440   42.3890 C   0  0  0  0  0  0  0  0  0  0  0  0
   38.5870   29.1070   41.5210 C   0  0  0  0  0  0  0  0  0  0  0  0
   37.6550   28.1220   41.2840 C   0  0  0  0  0  0  0  0  0  0  0  0
   37.7410   26.9000   41.8440 N   0  0  0  0  0  0  0  0  0  0  0  0
   38.7710   26.6010   42.6750 C   0  0  0  0  0  0  0  0  0  0  0  0
   39.7070   27.5230   42.9400 N   0  0  0  0  0  0  0  0  0  0  0  0
   40.4020   29.4710   42.6180 H   0  0  0  0  0  0  0  0  0  0  0  0
   38.8010   25.6030   43.1040 H   0  0  0  0  0  0  0  0  0  0  0  0
   36.5690   28.4050   40.4190 C   0  0  0  0  0  0  0  0  0  0  0  0
   35.3290   28.9420   40.5730 C   0  0  0  0  0  0  0  0  0  0  0  0
   34.5050   29.0910   39.5600 C   0  0  0  0  0  0  0  0  0  0  0  0
   34.9320   28.6890   38.3440 C   0  0  0  0  0  0  0  0  0  0  0  0
   36.6100   28.0610   38.6730 S   0  0  0  0  0  0  0  0  0  0  0  0
   35.0890   29.2360   41.6160 H   0  0  0  0  0  0  0  0  0  0  0  0
   33.5070   29.5070   39.5990 H   0  0  0  0  0  0  0  0  0  0  0  0
   34.4570   28.6950   37.3370 H   0  0  0  0  0  0  0  0  0  0  0  0
  1 22  1  0  0  0  0
  2  1  2  0  0  0  0
  2  7  1  0  0  0  0
  3  2  1  0  0  0  0
  4  3  1  0  0  0  0
  4  5  2  0  0  0  0
  5  1  1  0  0  0  0
  6  8  1  0  0  0  0
  6  4  1  0  0  0  0
  9  6  1  0  0  0  0
 10 11  1  0  0  0  0
 10 19  1  0  0  0  0
 11  3  1  0  0  0  0
 12 13  1  0  0  0  0
 12 11  2  0  0  0  0
 14 12  1  0  0  0  0
 15 14  1  0  0  0  0
 16 14  2  0  0  0  0
 16 17  1  0  0  0  0
 17 10  2  0  0  0  0
 19 20  2  0  0  0  0
 19 18  1  0  0  0  0
 21 19  2  0  0  0  0
 22 25  1  0  0  0  0
 22 23  2  0  0  0  0
 24 30  1  0  0  0  0
 24 29  1  0  0  0  0
 25 24  2  0  0  0  0
 26 25  1  0  0  0  0
 26 27  2  0  0  0  0
 27 28  1  0  0  0  0
 28 29  2  0  0  0  0
 28 31  1  0  0  0  0
 32 33  2  0  0  0  0
 32 26  1  0  0  0  0
 33 37  1  0  0  0  0
 34 38  1  0  0  0  0
 34 33  1  0  0  0  0
 35 36  1  0  0  0  0
 35 34  2  0  0  0  0
 36 32  1  0  0  0  0
 39 35  1  0  0  0  0
M  END
>  <minimizedAffinity>
-5.79345369

$$$$

 OpenBabel03252503173D

 39 42  0  0  0  0  0  0  0  0999 V2000
   37.9980   29.1230   38.4580 C   0  0  0  0  0  0  0  0  0  0  0  0
   39.0720   29.8510   38.9380 C   0  0  0  0  0  0  0  0  0  0  0  0
   39.0920   30.9760   38.1970 N   0  0  0  0  0  0  0  0  0  0  0  0
   38.0780   30.9340   37.3100 C   0  0  0  0  0  0  0  0  0  0  0  0
   37.3900   29.7820   37.4640 N   0  0  0  0  0  0  0  0  0  0  0  0
   37.6670   31.8670   36.3100 N   0  0  0  0  0  0  0  0  0  0  0  0
   39.7560   29.5890   39.7330 H   0  0  0  0  0  0  0  0  0  0  0  0
   36.6900   32.2410   36.4340 H   0  0  0  0  0  0  0  0  0  0  0  0
   38.3920   32.0610   35.5790 H   0  0  0  0  0  0  0  0  0  0  0  0
   39.9170   33.1280   39.1640 C   0  0  0  0  0  0  0  0  0  0  0  0
   40.0060   32.0620   38.2910 C   0  0  0  0  0  0  0  0  0  0  0  0
   41.0800   32.0290   37.4210 C   0  0  0  0  0  0  0  0  0  0  0  0
   41.2140   31.2120   36.7010 H   0  0  0  0  0  0  0  0  0  0  0  0
   42.0390   33.0230   37.4120 C   0  0  0  0  0  0  0  0  0  0  0  0
   42.8940   32.9920   36.7160 H   0  0  0  0  0  0  0  0  0  0  0  0
   41.9620   34.1060   38.2870 C   0  0  0  0  0  3  0  0  0  0  0  0
   40.8800   34.1150   39.1470 C   0  0  0  0  0  3  0  0  0  0  0  0
   38.3670   31.9430   40.8630 H   0  0  0  0  0  0  0  0  0  0  0  0
   38.5480   33.1390   40.2510 S   0  0  0  0  0  0  0  0  0  0  0  0
   38.8910   34.1610   41.3250 O   0  0  0  0  0  0  0  0  0  0  0  0
   37.3340   33.6260   39.5050 O   0  0  0  0  0  0  0  0  0  0  0  0
   37.5600   27.7770   38.9700 C   0  0  0  0  0  0  0  0  0  0  0  0
   36.3440   27.4620   39.1630 O   0  0  0  0  0  0  0  0  0  0  0  0
   39.2020   26.1210   38.2290 C   0  0  0  0  0  0  0  0  0  0  0  0
   38.5140   26.7700   39.2700 C   0  0  0  0  0  0  0  0  0  0  0  0
   38.8440   26.3510   40.5390 C   0  0  0  0  0  0  0  0  0  0  0  0
   39.7580   25.3890   40.7640 N   0  0  0  0  0  0  0  0  0  0  0  0
   40.3940   24.7940   39.7230 C   0  0  0  0  0  0  0  0  0  0  0  0
   40.1110   25.1640   38.4670 N   0  0  0  0  0  0  0  0  0  0  0  0
   38.9910   26.4010   37.2040 H   0  0  0  0  0  0  0  0  0  0  0  0
   41.1240   24.0230   39.9510 H   0  0  0  0  0  0  0  0  0  0  0  0
   38.1940   26.9530   41.6450 C   0  0  0  0  0  0  0  0  0  0  0  0
   37.0750   26.6840   42.3690 C   0  0  0  0  0  0  0  0  0  0  0  0
   36.7000   27.4390   43.3780 C   0  0  0  0  0  0  0  0  0  0  0  0
   37.4700   28.5060   43.6770 C   0  0  0  0  0  0  0  0  0  0  0  0
   38.8080   28.4210   42.4430 S   0  0  0  0  0  0  0  0  0  0  0  0
   36.5230   25.7820   42.0310 H   0  0  0  0  0  0  0  0  0  0  0  0
   35.8270   27.2930   43.9990 H   0  0  0  0  0  0  0  0  0  0  0  0
   37.3940   29.2970   44.4580 H   0  0  0  0  0  0  0  0  0  0  0  0
  1  2  2  0  0  0  0
  1 22  1  0  0  0  0
  2  7  1  0  0  0  0
  3 11  1  0  0  0  0
  3  2  1  0  0  0  0
  4  5  2  0  0  0  0
  4  3  1  0  0  0  0
  5  1  1  0  0  0  0
  6  8  1  0  0  0  0
  6  4  1  0  0  0  0
  9  6  1  0  0  0  0
 10 19  1  0  0  0  0
 11 10  2  0  0  0  0
 12 11  1  0  0  0  0
 13 12  1  0  0  0  0
 14 12  2  0  0  0  0
 14 16  1  0  0  0  0
 15 14  1  0  0  0  0
 16 17  2  0  0  0  0
 17 10  1  0  0  0  0
 19 18  1  0  0  0  0
 19 20  2  0  0  0  0
 21 19  2  0  0  0  0
 22 23  2  0  0  0  0
 22 25  1  0  0  0  0
 24 29  2  0  0  0  0
 24 25  1  0  0  0  0
 25 26  2  0  0  0  0
 26 27  1  0  0  0  0
 26 32  1  0  0  0  0
 28 31  1  0  0  0  0
 28 27  2  0  0  0  0
 29 28  1  0  0  0  0
 30 24  1  0  0  0  0
 32 33  2  0  0  0  0
 32 36  1  0  0  0  0
 33 34  1  0  0  0  0
 34 35  2  0  0  0  0
 34 38  1  0  0  0  0
 35 39  1  0  0  0  0
 36 35  1  0  0  0  0
 37 33  1  0  0  0  0
M  END
>  <minimizedAffinity>
-5.73587561

$$$$

 OpenBabel03252503173D

 39 42  0  0  0  0  0  0  0  0999 V2000
   37.4650   30.4360   39.1950 C   0  0  0  0  0  0  0  0  0  0  0  0
   38.5320   30.8410   39.9750 C   0  0  0  0  0  0  0  0  0  0  0  0
   39.3140   31.5650   39.1500 N   0  0  0  0  0  0  0  0  0  0  0  0
   38.7480   31.5990   37.9280 C   0  0  0  0  0  0  0  0  0  0  0  0
   37.5940   30.8980   37.9450 N   0  0  0  0  0  0  0  0  0  0  0  0
   39.1690   32.2250   36.7160 N   0  0  0  0  0  0  0  0  0  0  0  0
   38.7160   30.6310   41.0200 H   0  0  0  0  0  0  0  0  0  0  0  0
   38.5000   32.9460   36.3390 H   0  0  0  0  0  0  0  0  0  0  0  0
   40.0920   31.8870   36.3560 H   0  0  0  0  0  0  0  0  0  0  0  0
   41.8080   31.7290   39.1880 C   0  0  0  0  0  0  0  0  0  0  0  0
   40.5440   32.2100   39.4630 C   0  0  0  0  0  0  0  0  0  0  0  0
   40.4430   33.4330   40.1000 C   0  0  0  0  0  0  0  0  0  0  0  0
   39.4700   33.8750   40.3490 H   0  0  0  0  0  0  0  0  0  0  0  0
   41.5610   34.1610   40.4580 C   0  0  0  0  0  0  0  0  0  0  0  0
   41.4750   35.1350   40.9660 H   0  0  0  0  0  0  0  0  0  0  0  0
   42.8440   33.6880   40.1870 C   0  0  0  0  0  3  0  0  0  0  0  0
   42.9180   32.4640   39.5490 C   0  0  0  0  0  3  0  0  0  0  0  0
   40.8340   29.3910   38.6600 H   0  0  0  0  0  0  0  0  0  0  0  0
   41.9000   30.1810   38.3810 S   0  0  0  0  0  0  0  0  0  0  0  0
   41.8660   30.4970   36.8920 O   0  0  0  0  0  0  0  0  0  0  0  0
   43.2260   29.5420   38.6990 O   0  0  0  0  0  0  0  0  0  0  0  0
   36.3100   29.5950   39.6690 C   0  0  0  0  0  0  0  0  0  0  0  0
   35.3870   30.0340   40.4250 O   0  0  0  0  0  0  0  0  0  0  0  0
   35.6410   27.9010   38.0350 C   0  0  0  0  0  0  0  0  0  0  0  0
   36.1980   28.2340   39.2830 C   0  0  0  0  0  0  0  0  0  0  0  0
   36.6000   27.1630   40.0480 C   0  0  0  0  0  0  0  0  0  0  0  0
   36.4690   25.8900   39.6300 N   0  0  0  0  0  0  0  0  0  0  0  0
   35.9240   25.6220   38.4160 C   0  0  0  0  0  0  0  0  0  0  0  0
   35.5150   26.6280   37.6310 N   0  0  0  0  0  0  0  0  0  0  0  0
   35.3020   28.6960   37.3820 H   0  0  0  0  0  0  0  0  0  0  0  0
   35.8370   24.5810   38.1200 H   0  0  0  0  0  0  0  0  0  0  0  0
   37.1710   27.4110   41.3220 C   0  0  0  0  0  0  0  0  0  0  0  0
   36.6800   27.6480   42.5670 C   0  0  0  0  0  0  0  0  0  0  0  0
   37.4690   27.8510   43.6000 C   0  0  0  0  0  0  0  0  0  0  0  0
   38.8010   27.8180   43.3810 C   0  0  0  0  0  0  0  0  0  0  0  0
   38.9280   27.4770   41.5960 S   0  0  0  0  0  0  0  0  0  0  0  0
   35.5720   27.6510   42.6250 H   0  0  0  0  0  0  0  0  0  0  0  0
   37.1590   28.0450   44.6170 H   0  0  0  0  0  0  0  0  0  0  0  0
   39.6800   27.9530   44.0530 H   0  0  0  0  0  0  0  0  0  0  0  0
  1 22  1  0  0  0  0
  1  2  2  0  0  0  0
  2  7  1  0  0  0  0
  3 11  1  0  0  0  0
  3  2  1  0  0  0  0
  4  5  2  0  0  0  0
  4  3  1  0  0  0  0
  5  1  1  0  0  0  0
  6  4  1  0  0  0  0
  8  6  1  0  0  0  0
  9  6  1  0  0  0  0
 10 11  2  0  0  0  0
 10 17  1  0  0  0  0
 11 12  1  0  0  0  0
 12 13  1  0  0  0  0
 12 14  2  0  0  0  0
 14 15  1  0  0  0  0
 16 14  1  0  0  0  0
 17 16  2  0  0  0  0
 19 18  1  0  0  0  0
 19 21  2  0  0  0  0
 19 10  1  0  0  0  0
 20 19  2  0  0  0  0
 22 23  2  0  0  0  0
 24 25  1  0  0  0  0
 25 22  1  0  0  0  0
 25 26  2  0  0  0  0
 26 32  1  0  0  0  0
 27 26  1  0  0  0  0
 28 27  2  0  0  0  0
 29 24  2  0  0  0  0
 29 28  1  0  0  0  0
 30 24  1  0  0  0  0
 31 28  1  0  0  0  0
 32 36  1  0  0  0  0
 32 33  2  0  0  0  0
 33 37  1  0  0  0  0
 33 34  1  0  0  0  0
 34 38  1  0  0  0  0
 35 34  2  0  0  0  0
 35 39  1  0  0  0  0
 36 35  1  0  0  0  0
M  END
>  <minimizedAffinity>
-5.70291138

$$$$

 OpenBabel03252503173D

 39 42  0  0  0  0  0  0  0  0999 V2000
   38.4070   31.2210   39.9480 C   0  0  0  0  0  0  0  0  0  0  0  0
   39.6990   31.4400   40.3890 C   0  0  0  0  0  0  0  0  0  0  0  0
   40.3710   31.8720   39.3030 N   0  0  0  0  0  0  0  0  0  0  0  0
   39.5270   31.9130   38.2540 C   0  0  0  0  0  0  0  0  0  0  0  0
   38.2990   31.5090   38.6450 N   0  0  0  0  0  0  0  0  0  0  0  0
   39.7380   32.2950   36.8950 N   0  0  0  0  0  0  0  0  0  0  0  0
   40.1000   31.3000   41.3840 H   0  0  0  0  0  0  0  0  0  0  0  0
   39.1550   33.1110   36.5720 H   0  0  0  0  0  0  0  0  0  0  0  0
   40.4490   31.7140   36.3900 H   0  0  0  0  0  0  0  0  0  0  0  0
   42.7660   31.4540   38.7270 C   0  0  0  0  0  0  0  0  0  0  0  0
   41.7440   32.2380   39.2210 C   0  0  0  0  0  0  0  0  0  0  0  0
   42.0640   33.5020   39.6810 C   0  0  0  0  0  0  0  0  0  0  0  0
   41.3010   34.1780   40.0860 H   0  0  0  0  0  0  0  0  0  0  0  0
   43.3610   33.9780   39.6560 C   0  0  0  0  0  0  0  0  0  0  0  0
   43.6100   34.9860   40.0230 H   0  0  0  0  0  0  0  0  0  0  0  0
   44.4040   33.1960   39.1600 C   0  0  0  0  0  3  0  0  0  0  0  0
   44.0580   31.9380   38.7060 C   0  0  0  0  0  3  0  0  0  0  0  0
   41.2130   29.3850   38.7600 H   0  0  0  0  0  0  0  0  0  0  0  0
   42.3280   29.8620   38.1530 S   0  0  0  0  0  0  0  0  0  0  0  0
   42.0100   30.0370   36.6750 O   0  0  0  0  0  0  0  0  0  0  0  0
   43.5200   28.9510   38.2760 O   0  0  0  0  0  0  0  0  0  0  0  0
   37.2680   30.7280   40.8000 C   0  0  0  0  0  0  0  0  0  0  0  0
   36.2370   31.4240   41.0640 O   0  0  0  0  0  0  0  0  0  0  0  0
   37.8790   29.2220   42.6290 C   0  0  0  0  0  0  0  0  0  0  0  0
   37.2960   29.4270   41.3660 C   0  0  0  0  0  0  0  0  0  0  0  0
   36.7810   28.2980   40.7690 C   0  0  0  0  0  0  0  0  0  0  0  0
   36.8360   27.0870   41.3540 N   0  0  0  0  0  0  0  0  0  0  0  0
   37.4100   26.9430   42.5750 C   0  0  0  0  0  0  0  0  0  0  0  0
   37.9270   28.0100   43.2010 N   0  0  0  0  0  0  0  0  0  0  0  0
   38.3050   30.0680   43.1560 H   0  0  0  0  0  0  0  0  0  0  0  0
   37.4320   25.9480   43.0090 H   0  0  0  0  0  0  0  0  0  0  0  0
   36.1770   28.4170   39.4930 C   0  0  0  0  0  0  0  0  0  0  0  0
   34.9470   28.7790   39.0400 C   0  0  0  0  0  0  0  0  0  0  0  0
   34.6560   28.8000   37.7570 C   0  0  0  0  0  0  0  0  0  0  0  0
   35.6290   28.4450   36.8920 C   0  0  0  0  0  0  0  0  0  0  0  0
   37.0400   28.0600   37.9780 S   0  0  0  0  0  0  0  0  0  0  0  0
   34.2300   29.0500   39.8420 H   0  0  0  0  0  0  0  0  0  0  0  0
   33.7060   29.0740   37.3190 H   0  0  0  0  0  0  0  0  0  0  0  0
   35.6620   28.3730   35.7810 H   0  0  0  0  0  0  0  0  0  0  0  0
  1  2  2  0  0  0  0
  1 22  1  0  0  0  0
  2  7  1  0  0  0  0
  3  2  1  0  0  0  0
  4  5  2  0  0  0  0
  4  3  1  0  0  0  0
  5  1  1  0  0  0  0
  6  4  1  0  0  0  0
  8  6  1  0  0  0  0
  9  6  1  0  0  0  0
 10 11  1  0  0  0  0
 11  3  1  0  0  0  0
 11 12  2  0  0  0  0
 12 13  1  0  0  0  0
 14 12  1  0  0  0  0
 14 15  1  0  0  0  0
 16 14  2  0  0  0  0
 17 10  2  0  0  0  0
 17 16  1  0  0  0  0
 19 21  2  0  0  0  0
 19 10  1  0  0  0  0
 19 18  1  0  0  0  0
 20 19  2  0  0  0  0
 22 23  2  0  0  0  0
 22 25  1  0  0  0  0
 24 30  1  0  0  0  0
 24 29  1  0  0  0  0
 25 24  2  0  0  0  0
 26 27  2  0  0  0  0
 26 25  1  0  0  0  0
 27 28  1  0  0  0  0
 28 31  1  0  0  0  0
 28 29  2  0  0  0  0
 32 26  1  0  0  0  0
 33 32  2  0  0  0  0
 33 37  1  0  0  0  0
 34 33  1  0  0  0  0
 35 34  2  0  0  0  0
 35 36  1  0  0  0  0
 36 32  1  0  0  0  0
 38 34  1  0  0  0  0
 39 35  1  0  0  0  0
M  END
>  <minimizedAffinity>
-5.57491875

$$$$

 OpenBabel03252503173D

 39 42  0  0  0  0  0  0  0  0999 V2000
   38.0220   30.5970   40.5590 C   0  0  0  0  0  0  0  0  0  0  0  0
   38.3810   29.2630   40.6260 C   0  0  0  0  0  0  0  0  0  0  0  0
   37.2160   28.5900   40.7140 N   0  0  0  0  0  0  0  0  0  0  0  0
   36.1990   29.4740   40.7010 C   0  0  0  0  0  0  0  0  0  0  0  0
   36.6900   30.7280   40.6050 N   0  0  0  0  0  0  0  0  0  0  0  0
   34.7860   29.2790   40.7690 N   0  0  0  0  0  0  0  0  0  0  0  0
   39.3740   28.8350   40.6130 H   0  0  0  0  0  0  0  0  0  0  0  0
   34.2540   29.6310   39.9320 H   0  0  0  0  0  0  0  0  0  0  0  0
   34.4590   28.8090   41.6460 H   0  0  0  0  0  0  0  0  0  0  0  0
   36.7110   26.3330   39.7690 C   0  0  0  0  0  0  0  0  0  0  0  0
   37.0310   27.1830   40.8080 C   0  0  0  0  0  0  0  0  0  0  0  0
   37.1930   26.6310   42.0660 C   0  0  0  0  0  0  0  0  0  0  0  0
   37.4470   27.2470   42.9370 H   0  0  0  0  0  0  0  0  0  0  0  0
   37.0410   25.2770   42.2910 C   0  0  0  0  0  0  0  0  0  0  0  0
   37.1710   24.8420   43.2950 H   0  0  0  0  0  0  0  0  0  0  0  0
   36.7170   24.4060   41.2500 C   0  0  0  0  0  3  0  0  0  0  0  0
   36.5620   24.9820   40.0030 C   0  0  0  0  0  3  0  0  0  0  0  0
   37.4470   28.0150   37.9460 H   0  0  0  0  0  0  0  0  0  0  0  0
   36.5150   27.0620   38.1920 S   0  0  0  0  0  0  0  0  0  0  0  0
   36.7310   25.9340   37.1930 O   0  0  0  0  0  0  0  0  0  0  0  0
   35.0980   27.5520   38.0520 O   0  0  0  0  0  0  0  0  0  0  0  0
   38.9810   31.7510   40.4500 C   0  0  0  0  0  0  0  0  0  0  0  0
   38.9450   32.7670   41.2140 O   0  0  0  0  0  0  0  0  0  0  0  0
   39.6850   32.1120   38.1350 C   0  0  0  0  0  0  0  0  0  0  0  0
   39.9980   31.7590   39.4600 C   0  0  0  0  0  0  0  0  0  0  0  0
   41.3180   31.4420   39.6850 C   0  0  0  0  0  0  0  0  0  0  0  0
   42.2410   31.4670   38.7050 N   0  0  0  0  0  0  0  0  0  0  0  0
   41.8870   31.8140   37.4420 C   0  0  0  0  0  0  0  0  0  0  0  0
   40.6140   32.1330   37.1680 N   0  0  0  0  0  0  0  0  0  0  0  0
   38.6630   32.3720   37.8870 H   0  0  0  0  0  0  0  0  0  0  0  0
   42.6640   31.8210   36.6830 H   0  0  0  0  0  0  0  0  0  0  0  0
   41.7170   31.0740   40.9940 C   0  0  0  0  0  0  0  0  0  0  0  0
   42.0180   31.7500   42.1350 C   0  0  0  0  0  0  0  0  0  0  0  0
   42.3680   31.1280   43.2400 C   0  0  0  0  0  0  0  0  0  0  0  0
   42.4220   29.7800   43.2060 C   0  0  0  0  0  0  0  0  0  0  0  0
   41.9430   29.3810   41.4940 S   0  0  0  0  0  0  0  0  0  0  0  0
   41.9380   32.8530   42.0430 H   0  0  0  0  0  0  0  0  0  0  0  0
   42.6220   31.5910   44.1840 H   0  0  0  0  0  0  0  0  0  0  0  0
   42.6820   29.0160   43.9740 H   0  0  0  0  0  0  0  0  0  0  0  0
  1  5  1  0  0  0  0
  1  2  2  0  0  0  0
  2  3  1  0  0  0  0
  3 11  1  0  0  0  0
  4  3  1  0  0  0  0
  4  6  1  0  0  0  0
  5  4  2  0  0  0  0
  6  9  1  0  0  0  0
  7  2  1  0  0  0  0
  8  6  1  0  0  0  0
 10 17  2  0  0  0  0
 10 11  1  0  0  0  0
 11 12  2  0  0  0  0
 12 14  1  0  0  0  0
 12 13  1  0  0  0  0
 14 15  1  0  0  0  0
 16 14  2  0  0  0  0
 17 16  1  0  0  0  0
 18 19  1  0  0  0  0
 19 10  1  0  0  0  0
 20 19  2  0  0  0  0
 21 19  2  0  0  0  0
 22  1  1  0  0  0  0
 22 23  2  0  0  0  0
 24 25  1  0  0  0  0
 25 26  2  0  0  0  0
 25 22  1  0  0  0  0
 26 32  1  0  0  0  0
 27 26  1  0  0  0  0
 28 27  2  0  0  0  0
 29 28  1  0  0  0  0
 29 24  2  0  0  0  0
 30 24  1  0  0  0  0
 31 28  1  0  0  0  0
 32 36  1  0  0  0  0
 32 33  2  0  0  0  0
 33 34  1  0  0  0  0
 34 38  1  0  0  0  0
 35 34  2  0  0  0  0
 35 39  1  0  0  0  0
 36 35  1  0  0  0  0
 37 33  1  0  0  0  0
M  END
>  <minimizedAffinity>
-5.49136114

$$$$
