
 OpenBabel03242516223D

 32 34  0  0  0  0  0  0  0  0999 V2000
   45.9760   32.7470   46.9330 C   0  0  0  0  0  0  0  0  0  0  0  0
   47.0990   31.9570   46.9820 C   0  0  0  0  0  0  0  0  0  0  0  0
   47.3290   31.0860   48.0270 C   0  0  0  0  0  0  0  0  0  0  0  0
   46.4120   30.9870   49.0730 C   0  0  0  0  0  0  0  0  0  0  0  0
   45.2960   31.7580   49.0450 C   0  0  0  0  0  0  0  0  0  0  0  0
   45.0960   32.6180   47.9870 C   0  0  0  0  0  0  0  0  0  0  0  0
   47.8080   32.0410   46.1640 H   0  0  0  0  0  0  0  0  0  0  0  0
   46.6170   30.2910   49.8870 H   0  0  0  0  0  0  0  0  0  0  0  0
   44.5560   31.7120   49.8400 H   0  0  0  0  0  0  0  0  0  0  0  0
   44.2050   33.2430   47.9510 H   0  0  0  0  0  0  0  0  0  0  0  0
   44.5780   35.5110   45.0090 C   0  0  0  0  0  0  0  0  0  0  0  0
   45.2360   35.4390   43.7860 C   0  0  0  0  0  0  0  0  0  0  0  0
   46.1750   34.4260   43.6140 C   0  0  0  0  0  0  0  0  0  0  0  0
   46.4170   33.5520   44.6340 N   0  0  0  0  0  0  0  0  0  0  0  0
   45.7390   33.6670   45.8250 C   0  0  0  0  0  0  0  0  0  0  0  0
   44.8190   34.6450   46.0160 N   0  0  0  0  0  0  0  0  0  0  0  0
   43.8510   36.3060   45.1230 H   0  0  0  0  0  0  0  0  0  0  0  0
   45.0840   36.0970   42.9560 H   0  0  0  0  0  0  0  0  0  0  0  0
   46.7690   34.2400   42.7190 H   0  0  0  0  0  0  0  0  0  0  0  0
   48.8160   30.0950   48.0110 S   0  0  0  0  0  0  0  0  0  0  0  0
   50.3970   29.2050   49.9430 C   0  0  0  0  0  0  0  0  0  0  0  0
   49.8070   30.3750   49.4590 C   0  0  0  0  0  0  0  0  0  0  0  0
   50.0420   31.5610   50.1180 C   0  0  0  0  0  0  0  0  0  0  0  0
   49.5370   32.4160   49.6610 H   0  0  0  0  0  0  0  0  0  0  0  0
   50.8530   31.5660   51.2370 C   0  0  0  0  0  0  0  0  0  0  0  0
   50.9880   32.5360   51.6980 H   0  0  0  0  0  0  0  0  0  0  0  0
   51.4310   30.4310   51.7170 C   0  0  0  0  0  0  0  0  0  0  0  0
   51.2110   29.2280   51.0730 C   0  0  0  0  0  0  0  0  0  0  0  0
   48.9590   27.5390   48.6200 H   0  0  0  0  0  0  0  0  0  0  0  0
   50.1970   27.6080   49.2160 S   0  0  0  0  0  0  0  0  0  0  0  0
   51.2500   27.4720   48.1440 O   0  0  0  0  0  0  0  0  0  0  0  0
   50.3670   26.5300   50.2330 O   0  0  0  0  0  0  0  0  0  0  0  0
  1  2  2  0  0  0  0
  1  6  1  0  0  0  0
  2  3  1  0  0  0  0
  3  4  2  0  0  0  0
  4  8  1  0  0  0  0
  5  4  1  0  0  0  0
  5  9  1  0  0  0  0
  6  5  2  0  0  0  0
  7  2  1  0  0  0  0
 10  6  1  0  0  0  0
 11 17  1  0  0  0  0
 11 16  1  0  0  0  0
 12 11  2  0  0  0  0
 13 12  1  0  0  0  0
 13 14  2  0  0  0  0
 14 15  1  0  0  0  0
 15 16  2  0  0  0  0
 15  1  1  0  0  0  0
 18 12  1  0  0  0  0
 19 13  1  0  0  0  0
 20  3  1  0  0  0  0
 20 22  1  0  0  0  0
 21 28  1  0  0  0  0
 22 21  2  0  0  0  0
 22 23  1  0  0  0  0
 23 25  2  0  0  0  0
 24 23  1  0  0  0  0
 25 26  1  0  0  0  0
 25 27  1  0  0  0  0
 28 27  2  0  0  0  0
 29 30  1  0  0  0  0
 30 21  1  0  0  0  0
 30 32  2  0  0  0  0
 31 30  2  0  0  0  0
M  END
>  <minimizedAffinity>
-5.84152126

>  <minimizedRMSD>
1.44691706

$$$$
