
 OpenBabel03252507453D

 40 42  0  0  0  0  0  0  0  0999 V2000
   48.7870   33.8900   41.2330 C   0  0  0  0  0  0  0  0  0  0  0  0
   48.9920   32.6810   40.5950 C   0  0  0  0  0  0  0  0  0  0  0  0
   50.1200   31.9120   40.8560 C   0  0  0  0  0  0  0  0  0  0  0  0
   51.0070   32.4000   41.7620 N   0  0  0  0  0  0  0  0  0  0  0  0
   50.7750   33.5980   42.3740 C   0  0  0  0  0  0  0  0  0  0  0  0
   49.6880   34.2970   42.0970 N   0  0  0  0  0  0  0  0  0  0  0  0
   50.3460   30.9800   40.4060 H   0  0  0  0  0  0  0  0  0  0  0  0
   51.4390   34.0450   43.1050 H   0  0  0  0  0  0  0  0  0  0  0  0
   47.5680   34.6200   40.8670 C   0  0  0  0  0  0  0  0  0  0  0  0
   47.8450   35.5720   40.3210 H   0  0  0  0  0  0  0  0  0  0  0  0
   46.9210   34.0720   40.1580 H   0  0  0  0  0  0  0  0  0  0  0  0
   46.7200   34.9880   42.0550 C   0  0  0  0  0  0  0  0  0  0  0  0
   46.9610   36.0320   42.3450 H   0  0  0  0  0  0  0  0  0  0  0  0
   47.0380   34.2900   42.8800 H   0  0  0  0  0  0  0  0  0  0  0  0
   45.2650   34.9560   41.8130 C   0  0  0  0  0  0  0  0  0  0  0  0
   44.3880   35.5960   42.7300 C   0  0  0  0  0  0  0  0  0  0  0  0
   42.7300   35.2870   42.0110 S   0  0  0  0  0  0  0  0  0  0  0  0
   43.5180   34.3240   40.5620 C   0  0  0  0  0  0  0  0  0  0  0  0
   44.6300   34.3910   40.8180 N   0  0  0  0  0  0  0  0  0  0  0  0
   44.6450   36.1330   43.6300 H   0  0  0  0  0  0  0  0  0  0  0  0
   42.7730   33.7470   39.5360 O   0  0  0  0  0  0  0  0  0  0  0  0
   40.7910   33.9950   37.7990 O   0  0  0  0  0  0  0  0  0  0  0  0
   41.8220   34.7830   38.5880 P   0  0  0  0  0  0  0  0  0  0  0  0
   41.0230   35.8590   39.6150 O   0  0  0  0  0  0  0  0  0  0  0  0
   40.5390   36.5730   39.1180 H   0  0  0  0  0  0  0  0  0  0  0  0
   42.8230   35.6740   37.5470 O   0  0  0  0  0  0  0  0  0  0  0  0
   43.4100   35.0200   37.1110 H   0  0  0  0  0  0  0  0  0  0  0  0
   47.8050   32.0670   39.3760 S   0  0  0  0  0  0  0  0  0  0  0  0
   45.3020   31.1520   39.2360 C   0  0  0  0  0  0  0  0  0  0  0  0
   46.3370   31.4170   40.1340 C   0  0  0  0  0  0  0  0  0  0  0  0
   46.0930   31.1440   41.4610 C   0  0  0  0  0  0  0  0  0  0  0  0
   46.8990   31.3580   42.1180 H   0  0  0  0  0  0  0  0  0  0  0  0
   44.9040   30.6370   41.9310 C   0  0  0  0  0  0  0  0  0  0  0  0
   44.8080   30.4570   42.9910 H   0  0  0  0  0  0  0  0  0  0  0  0
   43.8790   30.3760   41.0480 C   0  0  0  0  0  3  0  0  0  0  0  0
   44.0980   30.6400   39.7010 C   0  0  0  0  0  3  0  0  0  0  0  0
   46.1550   32.3280   37.0870 H   0  0  0  0  0  0  0  0  0  0  0  0
   45.2800   31.3850   37.5080 S   0  0  0  0  0  0  0  0  0  0  0  0
   43.8920   31.7370   37.0310 O   0  0  0  0  0  0  0  0  0  0  0  0
   45.6370   30.0830   36.8420 O   0  0  0  0  0  0  0  0  0  0  0  0
  1  6  1  0  0  0  0
  2  3  1  0  0  0  0
  2  1  2  0  0  0  0
  3  4  2  0  0  0  0
  4  5  1  0  0  0  0
  5  8  1  0  0  0  0
  6  5  2  0  0  0  0
  7  3  1  0  0  0  0
  9  1  1  0  0  0  0
  9 12  1  0  0  0  0
 10  9  1  0  0  0  0
 11  9  1  0  0  0  0
 12 13  1  0  0  0  0
 12 14  1  0  0  0  0
 15 12  1  0  0  0  0
 15 16  2  0  0  0  0
 16 20  1  0  0  0  0
 17 16  1  0  0  0  0
 18 19  2  0  0  0  0
 18 17  1  0  0  0  0
 19 15  1  0  0  0  0
 21 18  1  0  0  0  0
 22 23  2  0  0  0  0
 23 21  1  0  0  0  0
 23 24  1  0  0  0  0
 25 24  1  0  0  0  0
 26 23  1  0  0  0  0
 27 26  1  0  0  0  0
 28 30  1  0  0  0  0
 28  2  1  0  0  0  0
 29 36  2  0  0  0  0
 29 30  1  0  0  0  0
 30 31  2  0  0  0  0
 31 33  1  0  0  0  0
 31 32  1  0  0  0  0
 33 34  1  0  0  0  0
 35 33  2  0  0  0  0
 36 35  1  0  0  0  0
 37 38  1  0  0  0  0
 38 29  1  0  0  0  0
 39 38  2  0  0  0  0
 40 38  2  0  0  0  0
M  END
>  <minimizedAffinity>
-4.48066044

>  <minimizedRMSD>
1.0947957

$$$$
