
 OpenBabel03252501103D

 23 24  0  0  0  0  0  0  0  0999 V2000
   45.6740   33.5190   40.3540 C   0  0  0  0  0  0  0  0  0  0  0  0
   45.4010   34.5400   41.2070 C   0  0  0  0  0  0  0  0  0  0  0  0
   44.1540   35.1370   41.1220 C   0  0  0  0  0  0  0  0  0  0  0  0
   43.9080   35.9670   41.8030 H   0  0  0  0  0  0  0  0  0  0  0  0
   43.1840   34.7520   40.2250 C   0  0  0  0  0  0  0  0  0  0  0  0
   42.2170   35.2530   40.1970 H   0  0  0  0  0  0  0  0  0  0  0  0
   43.4610   33.7140   39.3580 C   0  0  0  0  0  0  0  0  0  0  0  0
   44.7070   33.1250   39.4480 C   0  0  0  0  0  0  0  0  0  0  0  0
   47.0920   31.5360   39.4990 H   0  0  0  0  0  0  0  0  0  0  0  0
   47.1740   32.6590   40.3150 S   0  0  0  0  0  0  0  0  0  0  0  0
   48.3350   33.4790   39.8480 O   0  0  0  0  0  0  0  0  0  0  0  0
   47.4900   32.1240   41.6940 O   0  0  0  0  0  0  0  0  0  0  0  0
   46.4200   34.9650   42.1690 C   0  0  0  0  0  0  0  0  0  0  0  0
   47.5510   35.4590   41.9140 O   0  0  0  0  0  0  0  0  0  0  0  0
   44.5620   35.4940   45.3140 C   0  0  0  0  0  0  0  0  0  0  0  0
   45.0420   35.6920   44.0070 C   0  0  0  0  0  0  0  0  0  0  0  0
   45.9420   34.7330   43.5220 C   0  0  0  0  0  0  0  0  0  0  0  0
   46.2960   33.6940   44.3110 N   0  0  0  0  0  0  0  0  0  0  0  0
   45.8130   33.5430   45.5550 C   0  0  0  0  0  0  0  0  0  0  0  0
   44.9340   34.4530   46.0670 N   0  0  0  0  0  0  0  0  0  0  0  0
   43.8650   36.2140   45.7230 H   0  0  0  0  0  0  0  0  0  0  0  0
   44.6760   36.5640   43.4900 H   0  0  0  0  0  0  0  0  0  0  0  0
   46.0930   32.7240   46.1760 H   0  0  0  0  0  0  0  0  0  0  0  0
  1  2  1  0  0  0  0
  2 13  1  0  0  0  0
  3  2  2  0  0  0  0
  3  4  1  0  0  0  0
  5  3  1  0  0  0  0
  6  5  1  0  0  0  0
  7  8  1  0  0  0  0
  7  5  2  0  0  0  0
  8  1  2  0  0  0  0
  9 10  1  0  0  0  0
 10  1  1  0  0  0  0
 10 12  2  0  0  0  0
 11 10  2  0  0  0  0
 13 17  1  0  0  0  0
 14 13  2  0  0  0  0
 15 21  1  0  0  0  0
 15 20  1  0  0  0  0
 16 15  2  0  0  0  0
 17 16  1  0  0  0  0
 17 18  2  0  0  0  0
 18 19  1  0  0  0  0
 19 20  2  0  0  0  0
 19 23  1  0  0  0  0
 22 16  1  0  0  0  0
M  END
>  <minimizedAffinity>
-4.47629976

>  <minimizedRMSD>
1.67401016

$$$$
