
 OpenBabel03252508023D

 45 48  0  0  1  0  0  0  0  0999 V2000
   42.0140   33.3150   41.1000 C   0  0  0  0  0  0  0  0  0  0  0  0
   42.7870   34.4210   41.3000 C   0  0  0  0  0  0  0  0  0  0  0  0
   42.1520   35.6790   41.2780 C   0  0  0  0  0  0  0  0  0  0  0  0
   40.8070   35.8450   41.0680 C   0  0  0  0  0  0  0  0  0  0  0  0
   40.0390   34.7330   40.8700 C   0  0  0  0  0  0  0  0  0  0  0  0
   40.6420   33.5120   40.8890 C   0  0  0  0  0  0  0  0  0  0  0  0
   42.6900   36.6130   41.4190 H   0  0  0  0  0  0  0  0  0  0  0  0
   40.3400   36.7940   41.0550 H   0  0  0  0  0  0  0  0  0  0  0  0
   38.9930   34.7900   40.7020 H   0  0  0  0  0  0  0  0  0  0  0  0
   40.0110   32.6260   40.7260 H   0  0  0  0  0  0  0  0  0  0  0  0
   42.6150   31.7490   41.1930 S   0  0  0  0  0  0  0  0  0  0  0  0
   41.4290   30.9500   40.5600 O   0  0  0  0  0  0  0  0  0  0  0  0
   42.7660   31.2660   42.5830 O   0  0  0  0  0  0  0  0  0  0  0  0
   44.0130   29.5830   40.5940 C   0  0  0  0  0  0  0  0  0  0  0  0
   43.6640   30.8960   40.1960 C   0  0  0  0  0  0  0  0  0  0  0  0
   44.2450   31.2160   38.9420 C   0  0  0  0  0  0  0  0  0  0  0  0
   43.9280   32.2300   38.6240 H   0  0  0  0  0  0  0  0  0  0  0  0
   45.0560   30.5000   38.0890 C   0  0  0  0  0  0  0  0  0  0  0  0
   45.3780   30.9490   37.1890 H   0  0  0  0  0  0  0  0  0  0  0  0
   45.2820   29.2840   38.6250 C   0  0  0  0  0  3  0  0  0  0  0  0
   44.8150   28.7880   39.8100 C   0  0  0  0  0  3  0  0  0  0  0  0
   43.0200   29.7550   43.0060 H   0  0  0  0  0  0  0  0  0  0  0  0
   43.4750   28.8650   42.1020 S   0  0  0  0  0  0  0  0  0  0  0  0
   44.4960   27.8860   42.6560 O   0  0  0  0  0  0  0  0  0  0  0  0
   42.2720   27.9580   41.8590 O   0  0  0  0  0  0  0  0  0  0  0  0
   44.2180   34.3520   41.5270 C   0  0  0  0  0  0  0  0  0  0  0  0
   45.0870   34.2240   40.6100 O   0  0  0  0  0  0  0  0  0  0  0  0
   44.5750   34.4450   42.9180 C   0  0  0  0  0  0  0  0  0  0  0  0
   44.3030   35.7090   43.5490 C   0  0  0  0  0  0  0  0  0  0  0  0
   44.6320   35.8170   44.8890 C   0  0  0  0  0  0  0  0  0  0  0  0
   45.1830   34.7410   45.5150 N   0  0  0  0  0  0  0  0  0  0  0  0
   45.4210   33.5570   44.8640 C   0  0  0  0  0  0  0  0  0  0  0  0
   45.1170   33.4530   43.6180 N   0  0  0  0  0  0  0  0  0  0  0  0
   43.8830   36.5870   43.1370 H   0  0  0  0  0  0  0  0  0  0  0  0
   44.4760   36.7160   45.4710 H   0  0  0  0  0  0  0  0  0  0  0  0
   46.0140   32.4420   45.6270 C   0  0  1  0  0  0  0  0  0  0  0  0
   46.9630   32.7500   46.7640 C   0  0  0  0  0  0  0  0  0  0  0  0
   45.5470   32.3360   47.0350 C   0  0  1  0  0  0  0  0  0  0  0  0
   46.2020   31.5050   45.0850 H   0  0  0  0  0  0  0  0  0  0  0  0
   47.2500   33.8340   46.7940 H   0  0  0  0  0  0  0  0  0  0  0  0
   47.7920   32.0440   46.9170 H   0  0  0  0  0  0  0  0  0  0  0  0
   45.4670   31.3060   47.4530 H   0  0  0  0  0  0  0  0  0  0  0  0
   44.7670   33.4040   47.6250 N   0  0  0  0  0  0  0  0  0  0  0  0
   44.1200   33.0170   48.3470 H   0  0  0  0  0  0  0  0  0  0  0  0
   45.3160   34.2100   47.9460 H   0  0  0  0  0  0  0  0  0  0  0  0
  1 11  1  0  0  0  0
  1  2  1  0  0  0  0
  2 26  1  0  0  0  0
  3  2  2  0  0  0  0
  3  7  1  0  0  0  0
  4  3  1  0  0  0  0
  5  6  1  0  0  0  0
  5  4  2  0  0  0  0
  6  1  2  0  0  0  0
  8  4  1  0  0  0  0
  9  5  1  0  0  0  0
 10  6  1  0  0  0  0
 11 13  2  0  0  0  0
 12 11  2  0  0  0  0
 14 23  1  0  0  0  0
 15 14  1  0  0  0  0
 15 11  1  0  0  0  0
 16 15  2  0  0  0  0
 17 16  1  0  0  0  0
 18 20  2  0  0  0  0
 18 16  1  0  0  0  0
 19 18  1  0  0  0  0
 20 21  1  0  0  0  0
 21 14  2  0  0  0  0
 23 24  2  0  0  0  0
 23 22  1  0  0  0  0
 25 23  2  0  0  0  0
 26 28  1  0  0  0  0
 27 26  2  0  0  0  0
 28 29  2  0  0  0  0
 28 33  1  0  0  0  0
 29 30  1  0  0  0  0
 30 35  1  0  0  0  0
 30 31  2  0  0  0  0
 32 31  1  0  0  0  0
 32 36  1  0  0  0  0
 33 32  2  0  0  0  0
 34 29  1  0  0  0  0
 36 39  1  6  0  0  0
 36 37  1  0  0  0  0
 36 38  1  0  0  0  0
 37 40  1  0  0  0  0
 37 41  1  0  0  0  0
 37 38  1  0  0  0  0
 38 42  1  1  0  0  0
 38 43  1  0  0  0  0
 43 45  1  0  0  0  0
 43 44  1  0  0  0  0
M  END
>  <minimizedAffinity>
-5.56886816

>  <minimizedRMSD>
1.52091908

$$$$
