
 OpenBabel03242519413D

 34 36  0  0  0  0  0  0  0  0999 V2000
   48.0620   32.6490   41.7690 O   0  0  0  0  0  0  0  0  0  0  0  0
   47.0150   33.6980   41.3070 P   0  0  2  0  0  0  0  0  0  0  0  0
   45.5210   33.3630   42.0860 O   0  0  0  0  0  0  0  0  0  0  0  0
   44.3570   35.8710   44.4580 C   0  0  0  0  0  0  0  0  0  0  0  0
   44.6280   35.2130   43.2330 C   0  0  0  0  0  0  0  0  0  0  0  0
   45.2710   33.9720   43.2980 C   0  0  0  0  0  0  0  0  0  0  0  0
   45.5940   33.4750   44.5060 N   0  0  0  0  0  0  0  0  0  0  0  0
   45.3210   34.1280   45.6580 C   0  0  0  0  0  0  0  0  0  0  0  0
   44.7070   35.3190   45.6440 N   0  0  0  0  0  0  0  0  0  0  0  0
   43.8580   36.8330   44.3970 H   0  0  0  0  0  0  0  0  0  0  0  0
   44.3190   35.7140   42.3210 H   0  0  0  0  0  0  0  0  0  0  0  0
   45.6310   33.6250   46.5780 H   0  0  0  0  0  0  0  0  0  0  0  0
   46.7980   33.5610   39.6710 O   0  0  0  0  0  0  0  0  0  0  0  0
   45.6740   33.3220   38.9510 C   0  0  0  0  0  0  0  0  0  0  0  0
   45.8230   32.6780   37.7480 O   0  0  0  0  0  0  0  0  0  0  0  0
   43.8720   35.1540   37.6470 H   0  0  0  0  0  0  0  0  0  0  0  0
   43.4400   34.3830   38.2510 N   0  0  0  0  0  0  0  0  0  0  0  0
   44.1960   33.4590   38.9070 C   0  0  0  0  0  0  0  0  0  0  0  0
   43.2650   32.7470   39.4950 N   0  0  0  0  0  0  0  0  0  0  0  0
   42.0530   33.2340   39.1930 C   0  0  0  0  0  0  0  0  0  0  0  0
   40.9220   32.6440   39.6990 C   0  0  0  0  0  0  0  0  0  0  0  0
   39.7820   33.2700   39.2890 N   0  0  0  0  0  0  0  0  0  0  0  0
   39.7840   34.3440   38.4800 C   0  0  0  0  0  0  0  0  0  0  0  0
   38.8570   34.8200   38.1730 H   0  0  0  0  0  0  0  0  0  0  0  0
   40.9760   34.8460   38.0360 N   0  0  0  0  0  0  0  0  0  0  0  0
   42.1330   34.3190   38.3700 C   0  0  0  0  0  0  0  0  0  0  0  0
   40.8130   31.5160   40.5560 N   0  0  0  0  0  0  0  0  0  0  0  0
   40.5620   30.6660   40.0140 H   0  0  0  0  0  0  0  0  0  0  0  0
   40.9760   31.5910   41.5990 H   0  0  0  0  0  0  0  0  0  0  0  0
   47.5550   35.1800   41.8160 O   0  0  0  0  0  0  0  0  0  0  0  0
   48.8110   35.4880   41.3040 C   0  0  0  0  0  0  0  0  0  0  0  0
   49.2590   36.7280   41.7230 F   0  0  0  0  0  0  0  0  0  0  0  0
   49.6960   34.4920   41.5770 F   0  0  0  0  0  0  0  0  0  0  0  0
   48.6520   35.5760   39.9240 F   0  0  0  0  0  0  0  0  0  0  0  0
  2  1  2  1  0  0  0
  2 30  1  0  0  0  0
  2  3  1  0  0  0  0
  3  6  1  0  0  0  0
  4  9  1  0  0  0  0
  5  6  1  0  0  0  0
  5  4  2  0  0  0  0
  6  7  2  0  0  0  0
  7  8  1  0  0  0  0
  8 12  1  0  0  0  0
  9  8  2  0  0  0  0
 10  4  1  0  0  0  0
 11  5  1  0  0  0  0
 13  2  1  0  0  0  0
 14 13  1  0  0  0  0
 15 14  2  0  0  0  0
 16 17  1  0  0  0  0
 17 26  1  0  0  0  0
 17 18  1  0  0  0  0
 18 14  1  0  0  0  0
 18 19  2  0  0  0  0
 20 19  1  0  0  0  0
 20 21  1  0  0  0  0
 21 27  1  0  0  0  0
 22 21  2  0  0  0  0
 23 22  1  0  0  0  0
 24 23  1  0  0  0  0
 25 26  1  0  0  0  0
 25 23  2  0  0  0  0
 26 20  2  0  0  0  0
 27 29  1  0  0  0  0
 28 27  1  0  0  0  0
 31 33  1  0  0  0  0
 31 32  1  0  0  0  0
 31 30  1  0  0  0  0
 34 31  1  0  0  0  0
M  END
>  <minimizedAffinity>
-6.03201532

>  <minimizedRMSD>
4.0950489

$$$$
