
 OpenBabel03252504283D

 27 29  0  0  0  0  0  0  0  0999 V2000
   39.7960   29.7560   42.1950 H   0  0  0  0  0  0  0  0  0  0  0  0
   39.0750   30.3730   41.7540 N   0  0  0  0  0  0  0  0  0  0  0  0
   37.7600   30.1020   41.6560 C   0  0  0  0  0  0  0  0  0  0  0  0
   37.1660   31.1190   41.0360 N   0  0  0  0  0  0  0  0  0  0  0  0
   38.0890   32.0600   40.7270 C   0  0  0  0  0  0  0  0  0  0  0  0
   38.1240   33.2860   40.1150 C   0  0  0  0  0  0  0  0  0  0  0  0
   39.2650   33.9750   39.9710 N   0  0  0  0  0  0  0  0  0  0  0  0
   40.4470   33.4790   40.4320 C   0  0  0  0  0  0  0  0  0  0  0  0
   41.3010   34.1260   40.2590 H   0  0  0  0  0  0  0  0  0  0  0  0
   40.4420   32.2780   41.0380 N   0  0  0  0  0  0  0  0  0  0  0  0
   39.3040   31.5750   41.1890 C   0  0  0  0  0  0  0  0  0  0  0  0
   36.9020   33.8080   39.6320 N   0  0  0  0  0  0  0  0  0  0  0  0
   36.7110   34.6030   40.3090 H   0  0  0  0  0  0  0  0  0  0  0  0
   36.1720   33.6950   38.8970 H   0  0  0  0  0  0  0  0  0  0  0  0
   37.0670   28.9740   42.1010 O   0  0  0  0  0  0  0  0  0  0  0  0
   37.4090   28.3770   43.3050 C   0  0  0  0  0  0  0  0  0  0  0  0
   38.0510   29.0650   43.9190 H   0  0  0  0  0  0  0  0  0  0  0  0
   36.5040   28.2080   43.9270 H   0  0  0  0  0  0  0  0  0  0  0  0
   37.5530   26.1430   42.4180 C   0  0  0  0  0  0  0  0  0  0  0  0
   38.1710   27.1340   43.1590 C   0  0  0  0  0  0  0  0  0  0  0  0
   39.4210   26.8640   43.6800 C   0  0  0  0  0  0  0  0  0  0  0  0
   39.9540   25.6510   43.4310 N   0  0  0  0  0  0  0  0  0  0  0  0
   39.3360   24.6990   42.7060 C   0  0  0  0  0  0  0  0  0  0  0  0
   38.0910   24.9080   42.1610 N   0  0  0  0  0  0  0  0  0  0  0  0
   36.5640   26.2440   41.9570 H   0  0  0  0  0  0  0  0  0  0  0  0
   39.8780   27.6400   44.2470 H   0  0  0  0  0  0  0  0  0  0  0  0
   39.9190   23.7770   42.6070 H   0  0  0  0  0  0  0  0  0  0  0  0
  2  1  1  0  0  0  0
  3  2  1  0  0  0  0
  3 15  1  0  0  0  0
  4  3  2  0  0  0  0
  5  4  1  0  0  0  0
  5 11  1  0  0  0  0
  6  5  2  0  0  0  0
  7  6  1  0  0  0  0
  7  8  2  0  0  0  0
  8 10  1  0  0  0  0
  9  8  1  0  0  0  0
 10 11  2  0  0  0  0
 11  2  1  0  0  0  0
 12  6  1  0  0  0  0
 12 13  1  0  0  0  0
 14 12  1  0  0  0  0
 15 16  1  0  0  0  0
 16 17  1  0  0  0  0
 16 18  1  0  0  0  0
 19 20  1  0  0  0  0
 20 16  1  0  0  0  0
 20 21  2  0  0  0  0
 21 26  1  0  0  0  0
 22 21  1  0  0  0  0
 23 22  2  0  0  0  0
 24 19  2  0  0  0  0
 24 23  1  0  0  0  0
 25 19  1  0  0  0  0
 27 23  1  0  0  0  0
M  END
>  <minimizedAffinity>
-5.1515789

$$$$

 OpenBabel03252504283D

 27 29  0  0  0  0  0  0  0  0999 V2000
   36.9230   27.6420   39.4580 H   0  0  0  0  0  0  0  0  0  0  0  0
   36.8630   28.6280   39.8050 N   0  0  0  0  0  0  0  0  0  0  0  0
   36.5490   29.0050   41.0570 C   0  0  0  0  0  0  0  0  0  0  0  0
   36.5760   30.3340   41.1170 N   0  0  0  0  0  0  0  0  0  0  0  0
   36.9100   30.8320   39.9030 C   0  0  0  0  0  0  0  0  0  0  0  0
   37.1000   32.0620   39.3280 C   0  0  0  0  0  0  0  0  0  0  0  0
   37.4400   32.1970   38.0380 N   0  0  0  0  0  0  0  0  0  0  0  0
   37.6130   31.1060   37.2400 C   0  0  0  0  0  0  0  0  0  0  0  0
   37.8880   31.3400   36.2170 H   0  0  0  0  0  0  0  0  0  0  0  0
   37.4330   29.8860   37.7790 N   0  0  0  0  0  0  0  0  0  0  0  0
   37.0910   29.7370   39.0720 C   0  0  0  0  0  0  0  0  0  0  0  0
   36.9220   33.2000   40.1480 N   0  0  0  0  0  0  0  0  0  0  0  0
   37.9160   33.5520   40.2660 H   0  0  0  0  0  0  0  0  0  0  0  0
   36.2090   33.7750   40.6430 H   0  0  0  0  0  0  0  0  0  0  0  0
   36.2360   28.2020   42.1570 O   0  0  0  0  0  0  0  0  0  0  0  0
   37.1660   28.0110   43.1670 C   0  0  0  0  0  0  0  0  0  0  0  0
   37.9000   28.8610   43.1940 H   0  0  0  0  0  0  0  0  0  0  0  0
   36.6720   28.0360   44.1610 H   0  0  0  0  0  0  0  0  0  0  0  0
   39.1800   26.7960   43.6790 C   0  0  0  0  0  0  0  0  0  0  0  0
   37.9650   26.7910   43.0210 C   0  0  0  0  0  0  0  0  0  0  0  0
   37.6260   25.6620   42.3010 C   0  0  0  0  0  0  0  0  0  0  0  0
   38.5050   24.6400   42.2900 N   0  0  0  0  0  0  0  0  0  0  0  0
   39.6840   24.6630   42.9400 C   0  0  0  0  0  0  0  0  0  0  0  0
   40.0780   25.7590   43.6720 N   0  0  0  0  0  0  0  0  0  0  0  0
   39.5530   27.6330   44.2790 H   0  0  0  0  0  0  0  0  0  0  0  0
   36.6870   25.6800   41.8020 H   0  0  0  0  0  0  0  0  0  0  0  0
   40.2680   23.7450   42.8190 H   0  0  0  0  0  0  0  0  0  0  0  0
  1  2  1  0  0  0  0
  2  3  1  0  0  0  0
  3  4  2  0  0  0  0
  3 15  1  0  0  0  0
  5  4  1  0  0  0  0
  6  5  1  0  0  0  0
  6 12  1  0  0  0  0
  7  6  2  0  0  0  0
  8 10  2  0  0  0  0
  8  7  1  0  0  0  0
  9  8  1  0  0  0  0
 10 11  1  0  0  0  0
 11  2  1  0  0  0  0
 11  5  2  0  0  0  0
 12 13  1  0  0  0  0
 12 14  1  0  0  0  0
 15 16  1  0  0  0  0
 16 17  1  0  0  0  0
 16 18  1  0  0  0  0
 19 25  1  0  0  0  0
 20 16  1  0  0  0  0
 20 19  2  0  0  0  0
 21 20  1  0  0  0  0
 22 21  2  0  0  0  0
 22 23  1  0  0  0  0
 23 24  2  0  0  0  0
 24 19  1  0  0  0  0
 26 21  1  0  0  0  0
 27 23  1  0  0  0  0
M  END
>  <minimizedAffinity>
-5.07242346

$$$$

 OpenBabel03252504283D

 27 29  0  0  0  0  0  0  0  0999 V2000
   35.4700   30.4560   40.3150 H   0  0  0  0  0  0  0  0  0  0  0  0
   36.4330   30.5480   40.7150 N   0  0  0  0  0  0  0  0  0  0  0  0
   37.0660   29.6260   41.4640 C   0  0  0  0  0  0  0  0  0  0  0  0
   38.2680   30.0980   41.7860 N   0  0  0  0  0  0  0  0  0  0  0  0
   38.4270   31.3300   41.2490 C   0  0  0  0  0  0  0  0  0  0  0  0
   39.3900   32.3050   41.2110 C   0  0  0  0  0  0  0  0  0  0  0  0
   39.2060   33.4600   40.5540 N   0  0  0  0  0  0  0  0  0  0  0  0
   38.0430   33.7120   39.8920 C   0  0  0  0  0  0  0  0  0  0  0  0
   38.0100   34.6780   39.3980 H   0  0  0  0  0  0  0  0  0  0  0  0
   37.0800   32.7720   39.9120 N   0  0  0  0  0  0  0  0  0  0  0  0
   37.2520   31.6090   40.5670 C   0  0  0  0  0  0  0  0  0  0  0  0
   40.6010   32.0520   41.8960 N   0  0  0  0  0  0  0  0  0  0  0  0
   41.2870   31.9100   41.1000 H   0  0  0  0  0  0  0  0  0  0  0  0
   41.0270   31.9610   42.8420 H   0  0  0  0  0  0  0  0  0  0  0  0
   36.6070   28.3710   41.8730 O   0  0  0  0  0  0  0  0  0  0  0  0
   37.0220   27.8380   43.0840 C   0  0  0  0  0  0  0  0  0  0  0  0
   37.5910   28.6050   43.6780 H   0  0  0  0  0  0  0  0  0  0  0  0
   36.1470   27.5850   43.7180 H   0  0  0  0  0  0  0  0  0  0  0  0
   39.0990   26.7670   43.6620 C   0  0  0  0  0  0  0  0  0  0  0  0
   37.9150   26.6840   42.9530 C   0  0  0  0  0  0  0  0  0  0  0  0
   37.6910   25.5460   42.2040 C   0  0  0  0  0  0  0  0  0  0  0  0
   38.6430   24.5920   42.2140 N   0  0  0  0  0  0  0  0  0  0  0  0
   39.7900   24.6910   42.9130 C   0  0  0  0  0  0  0  0  0  0  0  0
   40.0710   25.7990   43.6770 N   0  0  0  0  0  0  0  0  0  0  0  0
   39.3840   27.6190   44.2880 H   0  0  0  0  0  0  0  0  0  0  0  0
   36.7740   25.5030   41.6650 H   0  0  0  0  0  0  0  0  0  0  0  0
   40.4450   23.8200   42.8030 H   0  0  0  0  0  0  0  0  0  0  0  0
  1  2  1  0  0  0  0
  2  3  1  0  0  0  0
  3  4  2  0  0  0  0
  3 15  1  0  0  0  0
  5  4  1  0  0  0  0
  6  5  1  0  0  0  0
  6 12  1  0  0  0  0
  7  6  2  0  0  0  0
  8 10  2  0  0  0  0
  8  7  1  0  0  0  0
  9  8  1  0  0  0  0
 10 11  1  0  0  0  0
 11  2  1  0  0  0  0
 11  5  2  0  0  0  0
 12 14  1  0  0  0  0
 13 12  1  0  0  0  0
 15 16  1  0  0  0  0
 16 17  1  0  0  0  0
 16 18  1  0  0  0  0
 19 24  1  0  0  0  0
 19 25  1  0  0  0  0
 20 16  1  0  0  0  0
 20 19  2  0  0  0  0
 21 22  2  0  0  0  0
 21 20  1  0  0  0  0
 22 23  1  0  0  0  0
 23 24  2  0  0  0  0
 26 21  1  0  0  0  0
 27 23  1  0  0  0  0
M  END
>  <minimizedAffinity>
-4.96519661

$$$$

 OpenBabel03252504283D

 27 29  0  0  0  0  0  0  0  0999 V2000
   40.5620   28.9690   42.8670 H   0  0  0  0  0  0  0  0  0  0  0  0
   39.5490   29.0990   42.6390 N   0  0  0  0  0  0  0  0  0  0  0  0
   38.5520   28.2590   42.9710 C   0  0  0  0  0  0  0  0  0  0  0  0
   37.4080   28.7580   42.5100 N   0  0  0  0  0  0  0  0  0  0  0  0
   37.6520   29.9290   41.8760 C   0  0  0  0  0  0  0  0  0  0  0  0
   36.9360   30.8930   41.2140 C   0  0  0  0  0  0  0  0  0  0  0  0
   37.5240   31.9740   40.6820 N   0  0  0  0  0  0  0  0  0  0  0  0
   38.8710   32.1590   40.7790 C   0  0  0  0  0  0  0  0  0  0  0  0
   39.2320   33.0690   40.3110 H   0  0  0  0  0  0  0  0  0  0  0  0
   39.5980   31.2280   41.4230 N   0  0  0  0  0  0  0  0  0  0  0  0
   39.0200   30.1390   41.9630 C   0  0  0  0  0  0  0  0  0  0  0  0
   35.5380   30.7090   41.1070 N   0  0  0  0  0  0  0  0  0  0  0  0
   35.1600   31.4530   41.7630 H   0  0  0  0  0  0  0  0  0  0  0  0
   34.7990   30.1400   40.6440 H   0  0  0  0  0  0  0  0  0  0  0  0
   38.6260   27.0540   43.6740 O   0  0  0  0  0  0  0  0  0  0  0  0
   39.3120   25.9750   43.1390 C   0  0  0  0  0  0  0  0  0  0  0  0
   40.2240   26.3240   42.5810 H   0  0  0  0  0  0  0  0  0  0  0  0
   39.7100   25.3260   43.9470 H   0  0  0  0  0  0  0  0  0  0  0  0
   39.2380   24.6940   41.1010 C   0  0  0  0  0  0  0  0  0  0  0  0
   38.5300   25.1860   42.1830 C   0  0  0  0  0  0  0  0  0  0  0  0
   37.1830   24.8930   42.2580 C   0  0  0  0  0  0  0  0  0  0  0  0
   36.6480   24.1490   41.2710 N   0  0  0  0  0  0  0  0  0  0  0  0
   37.3550   23.6780   40.2250 C   0  0  0  0  0  0  0  0  0  0  0  0
   38.6990   23.9350   40.0940 N   0  0  0  0  0  0  0  0  0  0  0  0
   40.3080   24.8620   40.9370 H   0  0  0  0  0  0  0  0  0  0  0  0
   36.6580   25.2820   43.0980 H   0  0  0  0  0  0  0  0  0  0  0  0
   36.7550   23.0910   39.5210 H   0  0  0  0  0  0  0  0  0  0  0  0
  2  1  1  0  0  0  0
  2  3  1  0  0  0  0
  3 15  1  0  0  0  0
  4  3  2  0  0  0  0
  5 11  1  0  0  0  0
  5  4  1  0  0  0  0
  6  5  2  0  0  0  0
  7  8  2  0  0  0  0
  7  6  1  0  0  0  0
  8 10  1  0  0  0  0
  9  8  1  0  0  0  0
 10 11  2  0  0  0  0
 11  2  1  0  0  0  0
 12  6  1  0  0  0  0
 12 13  1  0  0  0  0
 14 12  1  0  0  0  0
 16 15  1  0  0  0  0
 16 18  1  0  0  0  0
 17 16  1  0  0  0  0
 19 20  1  0  0  0  0
 20 21  2  0  0  0  0
 20 16  1  0  0  0  0
 21 26  1  0  0  0  0
 22 21  1  0  0  0  0
 23 22  2  0  0  0  0
 24 23  1  0  0  0  0
 24 19  2  0  0  0  0
 25 19  1  0  0  0  0
 27 23  1  0  0  0  0
M  END
>  <minimizedAffinity>
-4.92852068

$$$$

 OpenBabel03252504283D

 27 29  0  0  0  0  0  0  0  0999 V2000
   39.4170   26.8690   42.3930 H   0  0  0  0  0  0  0  0  0  0  0  0
   38.5510   27.4190   42.1870 N   0  0  0  0  0  0  0  0  0  0  0  0
   37.2950   26.9370   42.1790 C   0  0  0  0  0  0  0  0  0  0  0  0
   36.4630   27.9320   41.8770 N   0  0  0  0  0  0  0  0  0  0  0  0
   37.1730   29.0680   41.6860 C   0  0  0  0  0  0  0  0  0  0  0  0
   36.9240   30.3780   41.3660 C   0  0  0  0  0  0  0  0  0  0  0  0
   37.9100   31.2810   41.2530 N   0  0  0  0  0  0  0  0  0  0  0  0
   39.2110   30.9270   41.4530 C   0  0  0  0  0  0  0  0  0  0  0  0
   39.9180   31.7420   41.3350 H   0  0  0  0  0  0  0  0  0  0  0  0
   39.4830   29.6480   41.7680 N   0  0  0  0  0  0  0  0  0  0  0  0
   38.5030   28.7320   41.8860 C   0  0  0  0  0  0  0  0  0  0  0  0
   35.5780   30.7540   41.1550 N   0  0  0  0  0  0  0  0  0  0  0  0
   35.3700   31.3460   42.0110 H   0  0  0  0  0  0  0  0  0  0  0  0
   34.7720   30.6610   40.5010 H   0  0  0  0  0  0  0  0  0  0  0  0
   36.8590   25.6340   42.4340 O   0  0  0  0  0  0  0  0  0  0  0  0
   37.6850   24.5560   42.1540 C   0  0  0  0  0  0  0  0  0  0  0  0
   38.7140   24.9100   41.8750 H   0  0  0  0  0  0  0  0  0  0  0  0
   37.8380   23.9370   43.0630 H   0  0  0  0  0  0  0  0  0  0  0  0
   38.0680   22.6910   40.6820 C   0  0  0  0  0  0  0  0  0  0  0  0
   37.2240   23.7270   41.0370 C   0  0  0  0  0  0  0  0  0  0  0  0
   36.0530   23.8790   40.3220 C   0  0  0  0  0  0  0  0  0  0  0  0
   35.8120   23.0070   39.3230 N   0  0  0  0  0  0  0  0  0  0  0  0
   36.6470   22.0020   38.9920 C   0  0  0  0  0  0  0  0  0  0  0  0
   37.8280   21.7990   39.6670 N   0  0  0  0  0  0  0  0  0  0  0  0
   39.0210   22.4740   41.1760 H   0  0  0  0  0  0  0  0  0  0  0  0
   35.4190   24.6830   40.6120 H   0  0  0  0  0  0  0  0  0  0  0  0
   36.2880   21.3930   38.1560 H   0  0  0  0  0  0  0  0  0  0  0  0
  2  1  1  0  0  0  0
  3  2  1  0  0  0  0
  3 15  1  0  0  0  0
  4  3  2  0  0  0  0
  5  4  1  0  0  0  0
  5 11  1  0  0  0  0
  6  5  2  0  0  0  0
  7  6  1  0  0  0  0
  7  8  2  0  0  0  0
  8 10  1  0  0  0  0
  9  8  1  0  0  0  0
 10 11  2  0  0  0  0
 11  2  1  0  0  0  0
 12  6  1  0  0  0  0
 12 13  1  0  0  0  0
 14 12  1  0  0  0  0
 16 15  1  0  0  0  0
 16 18  1  0  0  0  0
 17 16  1  0  0  0  0
 19 20  1  0  0  0  0
 19 25  1  0  0  0  0
 20 16  1  0  0  0  0
 21 26  1  0  0  0  0
 21 20  2  0  0  0  0
 22 21  1  0  0  0  0
 23 22  2  0  0  0  0
 23 24  1  0  0  0  0
 24 19  2  0  0  0  0
 27 23  1  0  0  0  0
M  END
>  <minimizedAffinity>
-4.68124819

$$$$

 OpenBabel03252504283D

 27 29  0  0  0  0  0  0  0  0999 V2000
   35.9220   28.7060   42.0750 H   0  0  0  0  0  0  0  0  0  0  0  0
   36.8620   29.1610   42.1550 N   0  0  0  0  0  0  0  0  0  0  0  0
   37.9010   28.7010   42.8750 C   0  0  0  0  0  0  0  0  0  0  0  0
   38.9200   29.5440   42.7320 N   0  0  0  0  0  0  0  0  0  0  0  0
   38.5520   30.5600   41.9160 C   0  0  0  0  0  0  0  0  0  0  0  0
   39.1120   31.6970   41.3940 C   0  0  0  0  0  0  0  0  0  0  0  0
   38.4290   32.5170   40.5820 N   0  0  0  0  0  0  0  0  0  0  0  0
   37.1380   32.2480   40.2390 C   0  0  0  0  0  0  0  0  0  0  0  0
   36.6890   32.9820   39.5770 H   0  0  0  0  0  0  0  0  0  0  0  0
   36.5630   31.1380   40.7370 N   0  0  0  0  0  0  0  0  0  0  0  0
   37.2370   30.3070   41.5530 C   0  0  0  0  0  0  0  0  0  0  0  0
   40.4510   31.9850   41.7450 N   0  0  0  0  0  0  0  0  0  0  0  0
   40.9680   31.8000   40.8380 H   0  0  0  0  0  0  0  0  0  0  0  0
   41.0670   32.2920   42.5270 H   0  0  0  0  0  0  0  0  0  0  0  0
   37.9740   27.5480   43.6610 O   0  0  0  0  0  0  0  0  0  0  0  0
   38.7640   26.4810   43.2620 C   0  0  0  0  0  0  0  0  0  0  0  0
   39.7530   26.8460   42.8730 H   0  0  0  0  0  0  0  0  0  0  0  0
   39.0230   25.8410   44.1310 H   0  0  0  0  0  0  0  0  0  0  0  0
   38.8660   25.7000   40.9870 C   0  0  0  0  0  0  0  0  0  0  0  0
   38.1790   25.6750   42.1870 C   0  0  0  0  0  0  0  0  0  0  0  0
   37.0310   24.9110   42.2560 C   0  0  0  0  0  0  0  0  0  0  0  0
   36.6570   24.2410   41.1490 N   0  0  0  0  0  0  0  0  0  0  0  0
   37.3410   24.2760   39.9890 C   0  0  0  0  0  0  0  0  0  0  0  0
   38.4910   25.0190   39.8570 N   0  0  0  0  0  0  0  0  0  0  0  0
   39.7860   26.2690   40.8150 H   0  0  0  0  0  0  0  0  0  0  0  0
   36.5180   24.9070   43.1890 H   0  0  0  0  0  0  0  0  0  0  0  0
   36.8900   23.6690   39.1960 H   0  0  0  0  0  0  0  0  0  0  0  0
  1  2  1  0  0  0  0
  2  3  1  0  0  0  0
  3 15  1  0  0  0  0
  4  3  2  0  0  0  0
  5  4  1  0  0  0  0
  6 12  1  0  0  0  0
  6  5  2  0  0  0  0
  7  6  1  0  0  0  0
  8  7  2  0  0  0  0
  8 10  1  0  0  0  0
  9  8  1  0  0  0  0
 10 11  2  0  0  0  0
 11  5  1  0  0  0  0
 11  2  1  0  0  0  0
 12 14  1  0  0  0  0
 13 12  1  0  0  0  0
 16 15  1  0  0  0  0
 16 18  1  0  0  0  0
 17 16  1  0  0  0  0
 19 20  1  0  0  0  0
 20 21  2  0  0  0  0
 20 16  1  0  0  0  0
 21 26  1  0  0  0  0
 22 21  1  0  0  0  0
 23 22  2  0  0  0  0
 24 23  1  0  0  0  0
 24 19  2  0  0  0  0
 25 19  1  0  0  0  0
 27 23  1  0  0  0  0
M  END
>  <minimizedAffinity>
-4.67183399

$$$$

 OpenBabel03252504283D

 27 29  0  0  0  0  0  0  0  0999 V2000
   38.2030   29.8200   37.9370 H   0  0  0  0  0  0  0  0  0  0  0  0
   38.0810   30.5660   38.6600 N   0  0  0  0  0  0  0  0  0  0  0  0
   37.0000   30.7350   39.4440 C   0  0  0  0  0  0  0  0  0  0  0  0
   37.2120   31.7840   40.2340 N   0  0  0  0  0  0  0  0  0  0  0  0
   38.4330   32.3060   39.9710 C   0  0  0  0  0  0  0  0  0  0  0  0
   39.2120   33.3430   40.4170 C   0  0  0  0  0  0  0  0  0  0  0  0
   40.4300   33.5850   39.9110 N   0  0  0  0  0  0  0  0  0  0  0  0
   40.9470   32.8020   38.9220 C   0  0  0  0  0  0  0  0  0  0  0  0
   41.9390   33.0950   38.5940 H   0  0  0  0  0  0  0  0  0  0  0  0
   40.2040   31.7780   38.4660 N   0  0  0  0  0  0  0  0  0  0  0  0
   38.9800   31.5230   38.9660 C   0  0  0  0  0  0  0  0  0  0  0  0
   38.6830   34.1610   41.4420 N   0  0  0  0  0  0  0  0  0  0  0  0
   39.2770   33.8890   42.2780 H   0  0  0  0  0  0  0  0  0  0  0  0
   37.9660   34.8860   41.6520 H   0  0  0  0  0  0  0  0  0  0  0  0
   35.8240   29.9820   39.4800 O   0  0  0  0  0  0  0  0  0  0  0  0
   35.4480   29.3320   40.6450 C   0  0  0  0  0  0  0  0  0  0  0  0
   35.4030   30.0560   41.5040 H   0  0  0  0  0  0  0  0  0  0  0  0
   34.4130   28.9390   40.5560 H   0  0  0  0  0  0  0  0  0  0  0  0
   36.9350   28.4290   42.3090 C   0  0  0  0  0  0  0  0  0  0  0  0
   36.3680   28.2690   41.0580 C   0  0  0  0  0  0  0  0  0  0  0  0
   36.7160   27.1470   40.3320 C   0  0  0  0  0  0  0  0  0  0  0  0
   37.5850   26.2840   40.8930 N   0  0  0  0  0  0  0  0  0  0  0  0
   38.1270   26.4570   42.1140 C   0  0  0  0  0  0  0  0  0  0  0  0
   37.8200   27.5540   42.8850 N   0  0  0  0  0  0  0  0  0  0  0  0
   36.7340   29.2770   42.9730 H   0  0  0  0  0  0  0  0  0  0  0  0
   36.2680   27.0440   39.3720 H   0  0  0  0  0  0  0  0  0  0  0  0
   38.8120   25.6540   42.4070 H   0  0  0  0  0  0  0  0  0  0  0  0
  1  2  1  0  0  0  0
  2 11  1  0  0  0  0
  2  3  1  0  0  0  0
  3 15  1  0  0  0  0
  3  4  2  0  0  0  0
  5  4  1  0  0  0  0
  5  6  1  0  0  0  0
  6 12  1  0  0  0  0
  7  6  2  0  0  0  0
  8  7  1  0  0  0  0
  9  8  1  0  0  0  0
 10  8  2  0  0  0  0
 10 11  1  0  0  0  0
 11  5  2  0  0  0  0
 12 14  1  0  0  0  0
 12 13  1  0  0  0  0
 15 16  1  0  0  0  0
 16 20  1  0  0  0  0
 16 17  1  0  0  0  0
 18 16  1  0  0  0  0
 19 24  1  0  0  0  0
 19 25  1  0  0  0  0
 20 19  2  0  0  0  0
 21 22  2  0  0  0  0
 21 20  1  0  0  0  0
 22 23  1  0  0  0  0
 23 27  1  0  0  0  0
 23 24  2  0  0  0  0
 26 21  1  0  0  0  0
M  END
>  <minimizedAffinity>
-4.52727127

$$$$

 OpenBabel03252504283D

 27 29  0  0  0  0  0  0  0  0999 V2000
   37.4910   27.9130   38.1630 H   0  0  0  0  0  0  0  0  0  0  0  0
   37.1750   28.1170   39.1400 N   0  0  0  0  0  0  0  0  0  0  0  0
   36.5300   29.2260   39.5440 C   0  0  0  0  0  0  0  0  0  0  0  0
   36.2960   29.1250   40.8510 N   0  0  0  0  0  0  0  0  0  0  0  0
   36.7860   27.9480   41.3060 C   0  0  0  0  0  0  0  0  0  0  0  0
   36.8650   27.2740   42.4970 C   0  0  0  0  0  0  0  0  0  0  0  0
   37.4480   26.0700   42.5940 N   0  0  0  0  0  0  0  0  0  0  0  0
   37.9910   25.4640   41.5020 C   0  0  0  0  0  0  0  0  0  0  0  0
   38.4340   24.4930   41.7030 H   0  0  0  0  0  0  0  0  0  0  0  0
   37.9280   26.1030   40.3190 N   0  0  0  0  0  0  0  0  0  0  0  0
   37.3460   27.3110   40.2080 C   0  0  0  0  0  0  0  0  0  0  0  0
   36.3050   27.8960   43.6360 N   0  0  0  0  0  0  0  0  0  0  0  0
   35.4460   27.3010   43.8200 H   0  0  0  0  0  0  0  0  0  0  0  0
   36.4290   28.6780   44.3120 H   0  0  0  0  0  0  0  0  0  0  0  0
   36.1400   30.3330   38.7860 O   0  0  0  0  0  0  0  0  0  0  0  0
   37.0700   31.0100   38.0120 C   0  0  0  0  0  0  0  0  0  0  0  0
   37.8430   30.2990   37.6120 H   0  0  0  0  0  0  0  0  0  0  0  0
   36.5870   31.4370   37.1080 H   0  0  0  0  0  0  0  0  0  0  0  0
   39.1870   31.9450   38.6760 C   0  0  0  0  0  0  0  0  0  0  0  0
   37.8090   32.0460   38.7380 C   0  0  0  0  0  0  0  0  0  0  0  0
   37.2720   33.0910   39.4650 C   0  0  0  0  0  0  0  0  0  0  0  0
   38.1280   33.9410   40.0640 N   0  0  0  0  0  0  0  0  0  0  0  0
   39.4680   33.8260   39.9900 C   0  0  0  0  0  0  0  0  0  0  0  0
   40.0630   32.8080   39.2830 N   0  0  0  0  0  0  0  0  0  0  0  0
   39.7230   31.1600   38.1310 H   0  0  0  0  0  0  0  0  0  0  0  0
   36.2100   33.1490   39.5000 H   0  0  0  0  0  0  0  0  0  0  0  0
   40.0050   34.6080   40.5380 H   0  0  0  0  0  0  0  0  0  0  0  0
  1  2  1  0  0  0  0
  2  3  1  0  0  0  0
  2 11  1  0  0  0  0
  3  4  2  0  0  0  0
  4  5  1  0  0  0  0
  5  6  1  0  0  0  0
  6  7  2  0  0  0  0
  6 12  1  0  0  0  0
  8  9  1  0  0  0  0
  8  7  1  0  0  0  0
 10  8  2  0  0  0  0
 11 10  1  0  0  0  0
 11  5  2  0  0  0  0
 12 13  1  0  0  0  0
 12 14  1  0  0  0  0
 15  3  1  0  0  0  0
 16 20  1  0  0  0  0
 16 15  1  0  0  0  0
 17 16  1  0  0  0  0
 18 16  1  0  0  0  0
 19 20  2  0  0  0  0
 19 24  1  0  0  0  0
 20 21  1  0  0  0  0
 21 26  1  0  0  0  0
 21 22  2  0  0  0  0
 23 22  1  0  0  0  0
 23 27  1  0  0  0  0
 24 23  2  0  0  0  0
 25 19  1  0  0  0  0
M  END
>  <minimizedAffinity>
-4.47663498

$$$$

 OpenBabel03252504283D

 27 29  0  0  0  0  0  0  0  0999 V2000
   41.0890   30.1560   39.6520 H   0  0  0  0  0  0  0  0  0  0  0  0
   40.0840   30.4310   39.7550 N   0  0  0  0  0  0  0  0  0  0  0  0
   39.3970   31.2330   38.9220 C   0  0  0  0  0  0  0  0  0  0  0  0
   38.1530   31.3510   39.3790 N   0  0  0  0  0  0  0  0  0  0  0  0
   38.0200   30.6240   40.5130 C   0  0  0  0  0  0  0  0  0  0  0  0
   37.0390   30.3400   41.4280 C   0  0  0  0  0  0  0  0  0  0  0  0
   37.2630   29.5450   42.4850 N   0  0  0  0  0  0  0  0  0  0  0  0
   38.4860   28.9840   42.6940 C   0  0  0  0  0  0  0  0  0  0  0  0
   38.5460   28.3600   43.5800 H   0  0  0  0  0  0  0  0  0  0  0  0
   39.4680   29.2460   41.8110 N   0  0  0  0  0  0  0  0  0  0  0  0
   39.2570   30.0410   40.7460 C   0  0  0  0  0  0  0  0  0  0  0  0
   35.7670   30.9190   41.2200 N   0  0  0  0  0  0  0  0  0  0  0  0
   35.1800   30.0820   40.9350 H   0  0  0  0  0  0  0  0  0  0  0  0
   35.2380   31.8160   41.2450 H   0  0  0  0  0  0  0  0  0  0  0  0
   39.8430   31.8690   37.7600 O   0  0  0  0  0  0  0  0  0  0  0  0
   40.9330   32.7250   37.8080 C   0  0  0  0  0  0  0  0  0  0  0  0
   40.7480   33.6350   37.1750 H   0  0  0  0  0  0  0  0  0  0  0  0
   41.0710   33.1220   38.8360 H   0  0  0  0  0  0  0  0  0  0  0  0
   43.3230   32.8670   37.5630 C   0  0  0  0  0  0  0  0  0  0  0  0
   42.1780   32.1330   37.3130 C   0  0  0  0  0  0  0  0  0  0  0  0
   42.3140   30.9380   36.6340 C   0  0  0  0  0  0  0  0  0  0  0  0
   43.5540   30.5680   36.2600 N   0  0  0  0  0  0  0  0  0  0  0  0
   44.6590   31.2960   36.5140 C   0  0  0  0  0  0  0  0  0  0  0  0
   44.5890   32.4950   37.1860 N   0  0  0  0  0  0  0  0  0  0  0  0
   43.3380   33.8260   38.0910 H   0  0  0  0  0  0  0  0  0  0  0  0
   41.4200   30.3910   36.4520 H   0  0  0  0  0  0  0  0  0  0  0  0
   45.5800   30.8400   36.1370 H   0  0  0  0  0  0  0  0  0  0  0  0
  1  2  1  0  0  0  0
  2 11  1  0  0  0  0
  3  4  2  0  0  0  0
  3  2  1  0  0  0  0
  4  5  1  0  0  0  0
  5 11  2  0  0  0  0
  5  6  1  0  0  0  0
  6  7  2  0  0  0  0
  7  8  1  0  0  0  0
  8  9  1  0  0  0  0
 10  8  2  0  0  0  0
 11 10  1  0  0  0  0
 12 14  1  0  0  0  0
 12  6  1  0  0  0  0
 13 12  1  0  0  0  0
 15 16  1  0  0  0  0
 15  3  1  0  0  0  0
 16 18  1  0  0  0  0
 17 16  1  0  0  0  0
 19 25  1  0  0  0  0
 20 19  1  0  0  0  0
 20 16  1  0  0  0  0
 21 20  2  0  0  0  0
 22 23  2  0  0  0  0
 22 21  1  0  0  0  0
 23 24  1  0  0  0  0
 24 19  2  0  0  0  0
 26 21  1  0  0  0  0
 27 23  1  0  0  0  0
M  END
>  <minimizedAffinity>
-4.47610044

$$$$
