
 OpenBabel03252504003D

 39 43  0  0  0  0  0  0  0  0999 V2000
   46.7970   35.0150   42.7610 C   0  0  0  0  0  0  0  0  0  0  0  0
   45.8540   36.0500   42.7090 C   0  0  0  0  0  0  0  0  0  0  0  0
   44.8460   36.0570   43.6700 C   0  0  0  0  0  0  0  0  0  0  0  0
   44.8350   35.0690   44.5940 N   0  0  0  0  0  0  0  0  0  0  0  0
   45.7600   34.0900   44.6120 C   0  0  0  0  0  0  0  0  0  0  0  0
   46.7460   34.0540   43.6990 N   0  0  0  0  0  0  0  0  0  0  0  0
   45.8870   36.8310   41.9540 H   0  0  0  0  0  0  0  0  0  0  0  0
   44.1050   36.8520   43.6460 H   0  0  0  0  0  0  0  0  0  0  0  0
   46.0010   31.7270   45.2020 C   0  0  0  0  0  0  0  0  0  0  0  0
   45.7290   33.0250   45.6260 C   0  0  0  0  0  0  0  0  0  0  0  0
   45.4480   33.2620   46.9510 C   0  0  0  0  0  0  0  0  0  0  0  0
   45.4380   32.2120   47.8450 C   0  0  0  0  0  0  0  0  0  0  0  0
   45.2070   32.1230   49.1560 N   0  0  0  0  0  0  0  0  0  0  0  0
   45.3120   30.8650   49.5920 C   0  0  0  0  0  0  0  0  0  0  0  0
   45.6280   30.0730   48.5240 C   0  0  0  0  0  0  0  0  0  0  0  0
   45.7070   30.9170   47.4310 C   0  0  0  0  0  0  0  0  0  0  0  0
   45.9920   30.6750   46.0930 C   0  0  0  0  0  0  0  0  0  0  0  0
   46.2260   31.5170   44.1570 H   0  0  0  0  0  0  0  0  0  0  0  0
   45.2370   34.2750   47.2750 H   0  0  0  0  0  0  0  0  0  0  0  0
   44.9740   32.9480   49.7510 H   0  0  0  0  0  0  0  0  0  0  0  0
   45.1680   30.5400   50.6250 H   0  0  0  0  0  0  0  0  0  0  0  0
   45.7870   29.0230   48.5120 H   0  0  0  0  0  0  0  0  0  0  0  0
   46.2060   29.6830   45.7270 H   0  0  0  0  0  0  0  0  0  0  0  0
   47.8130   35.0660   41.7380 C   0  0  0  0  0  0  0  0  0  0  0  0
   48.7070   35.9730   41.6460 O   0  0  0  0  0  0  0  0  0  0  0  0
   45.8390   33.2780   40.6600 H   0  0  0  0  0  0  0  0  0  0  0  0
   46.8090   33.2680   40.3240 N   0  0  0  0  0  0  0  0  0  0  0  0
   47.8680   34.0180   40.6980 C   0  0  0  0  0  0  0  0  0  0  0  0
   48.9390   33.6430   39.9730 N   0  0  0  0  0  0  0  0  0  0  0  0
   48.5950   32.6610   39.1320 C   0  0  0  0  0  0  0  0  0  0  0  0
   49.1780   31.8690   38.1640 C   0  0  0  0  0  0  0  0  0  0  0  0
   48.5460   30.9280   37.4600 N   0  0  0  0  0  0  0  0  0  0  0  0
   47.2240   30.7190   37.7020 C   0  0  0  0  0  0  0  0  0  0  0  0
   46.5800   30.0010   37.2180 H   0  0  0  0  0  0  0  0  0  0  0  0
   46.6270   31.4770   38.6400 N   0  0  0  0  0  0  0  0  0  0  0  0
   47.2500   32.4250   39.3540 C   0  0  0  0  0  0  0  0  0  0  0  0
   50.5600   32.0790   37.9040 N   0  0  0  0  0  0  0  0  0  0  0  0
   50.7150   32.9880   37.3750 H   0  0  0  0  0  0  0  0  0  0  0  0
   51.5580   31.7800   37.9710 H   0  0  0  0  0  0  0  0  0  0  0  0
  1  6  1  0  0  0  0
  2  1  2  0  0  0  0
  2  3  1  0  0  0  0
  3  4  2  0  0  0  0
  4  5  1  0  0  0  0
  5 10  1  0  0  0  0
  6  5  2  0  0  0  0
  7  2  1  0  0  0  0
  8  3  1  0  0  0  0
  9 10  2  0  0  0  0
  9 17  1  0  0  0  0
 10 11  1  0  0  0  0
 11 19  1  0  0  0  0
 11 12  2  0  0  0  0
 12 13  1  0  0  0  0
 13 14  1  0  0  0  0
 13 20  1  0  0  0  0
 14 21  1  0  0  0  0
 15 14  2  0  0  0  0
 16 12  1  0  0  0  0
 16 15  1  0  0  0  0
 17 16  2  0  0  0  0
 18  9  1  0  0  0  0
 22 15  1  0  0  0  0
 23 17  1  0  0  0  0
 24  1  1  0  0  0  0
 25 24  2  0  0  0  0
 27 26  1  0  0  0  0
 27 28  1  0  0  0  0
 28 24  1  0  0  0  0
 29 28  2  0  0  0  0
 30 36  1  0  0  0  0
 30 29  1  0  0  0  0
 31 30  2  0  0  0  0
 32 33  2  0  0  0  0
 32 31  1  0  0  0  0
 33 35  1  0  0  0  0
 34 33  1  0  0  0  0
 35 36  2  0  0  0  0
 36 27  1  0  0  0  0
 37 39  1  0  0  0  0
 37 31  1  0  0  0  0
 38 37  1  0  0  0  0
M  END
>  <minimizedAffinity>
-6.21495008

>  <minimizedRMSD>
0.231990367

$$$$
