
 OpenBabel03252504473D

 32 34  0  0  0  0  0  0  0  0999 V2000
   44.9880   30.8350   49.4290 O   0  0  0  0  0  0  0  0  0  0  0  0
   45.5250   30.9440   48.0050 P   0  0  1  0  0  0  0  0  0  0  0  0
   44.3500   30.2320   47.0110 O   0  0  0  0  0  0  0  0  0  0  0  0
   44.5960   29.2980   46.7780 H   0  0  0  0  0  0  0  0  0  0  0  0
   45.7400   32.5880   47.6930 O   0  0  0  0  0  0  0  0  0  0  0  0
   45.2960   34.6670   44.7790 C   0  0  0  0  0  0  0  0  0  0  0  0
   46.2480   34.1210   43.8990 C   0  0  0  0  0  0  0  0  0  0  0  0
   47.0100   33.0370   44.3710 C   0  0  0  0  0  0  0  0  0  0  0  0
   46.7810   32.5930   45.6330 N   0  0  0  0  0  0  0  0  0  0  0  0
   45.8530   33.1590   46.4290 C   0  0  0  0  0  0  0  0  0  0  0  0
   45.1090   34.2000   46.0020 N   0  0  0  0  0  0  0  0  0  0  0  0
   46.4050   34.4980   42.8990 H   0  0  0  0  0  0  0  0  0  0  0  0
   47.7520   32.5890   43.7230 H   0  0  0  0  0  0  0  0  0  0  0  0
   44.4880   35.8290   44.2610 C   0  0  0  0  0  0  0  0  0  0  0  0
   43.4710   35.8420   44.7100 H   0  0  0  0  0  0  0  0  0  0  0  0
   44.4530   35.8090   43.1460 H   0  0  0  0  0  0  0  0  0  0  0  0
   45.0370   36.7390   44.5840 H   0  0  0  0  0  0  0  0  0  0  0  0
   46.9580   30.0970   47.7950 O   0  0  0  0  0  0  0  0  0  0  0  0
   47.5460   31.0290   50.4350 H   0  0  0  0  0  0  0  0  0  0  0  0
   48.3470   30.7680   49.8500 N   0  0  0  0  0  0  0  0  0  0  0  0
   48.0480   30.3340   48.6160 C   0  0  0  0  0  0  0  0  0  0  0  0
   49.2010   30.0360   47.9860 N   0  0  0  0  0  0  0  0  0  0  0  0
   50.2670   30.2640   48.7790 C   0  0  0  0  0  0  0  0  0  0  0  0
   51.6400   30.1720   48.7460 C   0  0  0  0  0  0  0  0  0  0  0  0
   52.4100   30.5140   49.8050 N   0  0  0  0  0  0  0  0  0  0  0  0
   51.7660   30.9550   50.9090 C   0  0  0  0  0  0  0  0  0  0  0  0
   52.4110   31.2170   51.7290 H   0  0  0  0  0  0  0  0  0  0  0  0
   50.4110   31.0710   51.0100 N   0  0  0  0  0  0  0  0  0  0  0  0
   49.6880   30.7200   49.9340 C   0  0  0  0  0  0  0  0  0  0  0  0
   52.2050   29.6940   47.5280 N   0  0  0  0  0  0  0  0  0  0  0  0
   52.2460   28.8250   46.9590 H   0  0  0  0  0  0  0  0  0  0  0  0
   52.7420   30.4930   47.0960 H   0  0  0  0  0  0  0  0  0  0  0  0
  2  1  2  1  0  0  0
  3  2  1  0  0  0  0
  4  3  1  0  0  0  0
  5  2  1  0  0  0  0
  6 11  1  0  0  0  0
  7  8  1  0  0  0  0
  7  6  2  0  0  0  0
  8  9  2  0  0  0  0
  9 10  1  0  0  0  0
 10  5  1  0  0  0  0
 11 10  2  0  0  0  0
 12  7  1  0  0  0  0
 13  8  1  0  0  0  0
 14 17  1  0  0  0  0
 14 15  1  0  0  0  0
 14  6  1  0  0  0  0
 16 14  1  0  0  0  0
 18  2  1  0  0  0  0
 18 21  1  0  0  0  0
 20 29  1  0  0  0  0
 20 19  1  0  0  0  0
 21 20  1  0  0  0  0
 22 21  2  0  0  0  0
 22 23  1  0  0  0  0
 23 29  1  0  0  0  0
 24 23  2  0  0  0  0
 24 25  1  0  0  0  0
 25 26  2  0  0  0  0
 26 28  1  0  0  0  0
 26 27  1  0  0  0  0
 29 28  2  0  0  0  0
 30 24  1  0  0  0  0
 31 30  1  0  0  0  0
 32 30  1  0  0  0  0
M  END
>  <minimizedAffinity>
-5.69816303

>  <minimizedRMSD>
0.99966526

$$$$
