
 OpenBabel03242520203D

 40 43  0  0  0  0  0  0  0  0999 V2000
   36.7500   31.4640   40.6350 C   0  0  0  0  0  0  0  0  0  0  0  0
   36.1390   32.1370   40.0320 H   0  0  0  0  0  0  0  0  0  0  0  0
   36.3720   31.5990   41.6910 H   0  0  0  0  0  0  0  0  0  0  0  0
   38.5400   33.0580   40.1760 C   0  0  0  0  0  0  0  0  0  0  0  0
   37.7610   34.0260   39.9590 O   0  0  0  0  0  0  0  0  0  0  0  0
   38.1660   31.7440   40.5560 N   0  0  0  0  0  0  0  0  0  0  0  0
   38.8570   30.9990   40.7720 H   0  0  0  0  0  0  0  0  0  0  0  0
   40.7980   33.0190   41.9810 H   0  0  0  0  0  0  0  0  0  0  0  0
   40.9650   33.2520   40.9800 N   0  0  0  0  0  0  0  0  0  0  0  0
   39.9920   33.3060   40.0240 C   0  0  0  0  0  0  0  0  0  0  0  0
   40.6430   33.6430   38.8740 N   0  0  0  0  0  0  0  0  0  0  0  0
   41.9490   33.7950   39.0820 C   0  0  0  0  0  0  0  0  0  0  0  0
   42.9530   34.1320   38.1800 C   0  0  0  0  0  0  0  0  0  0  0  0
   44.2010   34.2070   38.7170 N   0  0  0  0  0  0  0  0  0  0  0  0
   44.4200   33.9680   40.0190 C   0  0  0  0  0  0  0  0  0  0  0  0
   45.4390   34.0450   40.3840 H   0  0  0  0  0  0  0  0  0  0  0  0
   43.4200   33.6430   40.8650 N   0  0  0  0  0  0  0  0  0  0  0  0
   42.1540   33.5460   40.4240 C   0  0  0  0  0  0  0  0  0  0  0  0
   42.6300   34.3680   36.8160 N   0  0  0  0  0  0  0  0  0  0  0  0
   42.3600   33.4160   36.4760 H   0  0  0  0  0  0  0  0  0  0  0  0
   42.6290   35.2340   36.2120 H   0  0  0  0  0  0  0  0  0  0  0  0
   36.4120   30.0450   40.2340 C   0  0  0  0  0  0  0  0  0  0  0  0
   36.8970   29.7750   39.2730 H   0  0  0  0  0  0  0  0  0  0  0  0
   35.3170   29.9200   40.0700 H   0  0  0  0  0  0  0  0  0  0  0  0
   37.1450   26.8490   42.1210 C   0  0  0  0  0  0  0  0  0  0  0  0
   36.7210   27.7280   41.0980 C   0  0  0  0  0  0  0  0  0  0  0  0
   36.8360   29.0940   41.2900 C   0  0  0  0  0  0  0  0  0  0  0  0
   37.3640   29.5130   42.4900 N   0  0  0  0  0  0  0  0  0  0  0  0
   37.7550   28.6290   43.4430 C   0  0  0  0  0  0  0  0  0  0  0  0
   37.6480   27.3150   43.2620 N   0  0  0  0  0  0  0  0  0  0  0  0
   36.3210   27.3020   40.1970 H   0  0  0  0  0  0  0  0  0  0  0  0
   38.1680   29.0030   44.3780 H   0  0  0  0  0  0  0  0  0  0  0  0
   37.0080   25.3880   41.9080 C   0  0  0  0  0  0  0  0  0  0  0  0
   38.0770   24.8420   40.8960 C   0  0  0  0  0  0  0  0  0  0  0  0
   37.9680   24.4210   42.2970 C   0  0  0  0  0  0  0  0  0  0  0  0
   35.9680   25.0680   41.6020 H   0  0  0  0  0  0  0  0  0  0  0  0
   37.7020   24.2410   40.0580 H   0  0  0  0  0  0  0  0  0  0  0  0
   38.9220   25.5080   40.6610 H   0  0  0  0  0  0  0  0  0  0  0  0
   37.6410   23.3660   42.4770 H   0  0  0  0  0  0  0  0  0  0  0  0
   38.8020   24.6750   43.0150 H   0  0  0  0  0  0  0  0  0  0  0  0
  1  3  1  0  0  0  0
  2  1  1  0  0  0  0
  4  6  1  0  0  0  0
  5  4  2  0  0  0  0
  6  1  1  0  0  0  0
  6  7  1  0  0  0  0
  9  8  1  0  0  0  0
 10  4  1  0  0  0  0
 10  9  1  0  0  0  0
 11 12  1  0  0  0  0
 11 10  2  0  0  0  0
 12 18  1  0  0  0  0
 13 14  1  0  0  0  0
 13 12  2  0  0  0  0
 14 15  2  0  0  0  0
 15 16  1  0  0  0  0
 15 17  1  0  0  0  0
 18 17  2  0  0  0  0
 18  9  1  0  0  0  0
 19 13  1  0  0  0  0
 20 19  1  0  0  0  0
 21 19  1  0  0  0  0
 22  1  1  0  0  0  0
 22 27  1  0  0  0  0
 23 22  1  0  0  0  0
 24 22  1  0  0  0  0
 25 30  1  0  0  0  0
 26 27  1  0  0  0  0
 26 25  2  0  0  0  0
 27 28  2  0  0  0  0
 28 29  1  0  0  0  0
 29 32  1  0  0  0  0
 30 29  2  0  0  0  0
 31 26  1  0  0  0  0
 33 25  1  0  0  0  0
 33 35  1  0  0  0  0
 34 33  1  0  0  0  0
 34 35  1  0  0  0  0
 35 39  1  0  0  0  0
 35 40  1  0  0  0  0
 36 33  1  0  0  0  0
 37 34  1  0  0  0  0
 38 34  1  0  0  0  0
M  END
>  <minimizedAffinity>
-6.42311668

$$$$

 OpenBabel03242520203D

 40 43  0  0  0  0  0  0  0  0999 V2000
   36.3170   31.2000   40.8250 C   0  0  0  0  0  0  0  0  0  0  0  0
   35.6420   31.8280   40.2430 H   0  0  0  0  0  0  0  0  0  0  0  0
   35.9800   31.3280   41.8960 H   0  0  0  0  0  0  0  0  0  0  0  0
   37.9930   32.7730   40.0060 C   0  0  0  0  0  0  0  0  0  0  0  0
   37.1480   33.6060   39.5730 O   0  0  0  0  0  0  0  0  0  0  0  0
   37.7100   31.5590   40.6790 N   0  0  0  0  0  0  0  0  0  0  0  0
   38.4510   30.9360   41.0580 H   0  0  0  0  0  0  0  0  0  0  0  0
   39.6380   33.2430   37.6750 H   0  0  0  0  0  0  0  0  0  0  0  0
   40.0830   33.2880   38.6160 N   0  0  0  0  0  0  0  0  0  0  0  0
   39.4240   33.0870   39.7950 C   0  0  0  0  0  0  0  0  0  0  0  0
   40.3740   33.2370   40.7610 N   0  0  0  0  0  0  0  0  0  0  0  0
   41.5640   33.5170   40.2330 C   0  0  0  0  0  0  0  0  0  0  0  0
   42.7810   33.7420   40.8690 C   0  0  0  0  0  0  0  0  0  0  0  0
   43.8220   34.0050   40.0330 N   0  0  0  0  0  0  0  0  0  0  0  0
   43.6600   34.0400   38.7010 C   0  0  0  0  0  0  0  0  0  0  0  0
   44.5310   34.2560   38.0900 H   0  0  0  0  0  0  0  0  0  0  0  0
   42.4620   33.8170   38.1200 N   0  0  0  0  0  0  0  0  0  0  0  0
   41.3780   33.5480   38.8670 C   0  0  0  0  0  0  0  0  0  0  0  0
   42.8600   33.6850   42.2870 N   0  0  0  0  0  0  0  0  0  0  0  0
   42.3160   34.5280   42.5820 H   0  0  0  0  0  0  0  0  0  0  0  0
   43.3200   33.0130   42.9600 H   0  0  0  0  0  0  0  0  0  0  0  0
   36.0430   29.7580   40.4560 C   0  0  0  0  0  0  0  0  0  0  0  0
   36.4160   29.5290   39.4370 H   0  0  0  0  0  0  0  0  0  0  0  0
   34.9500   29.5460   40.4380 H   0  0  0  0  0  0  0  0  0  0  0  0
   37.2760   26.6310   42.1910 C   0  0  0  0  0  0  0  0  0  0  0  0
   36.6520   27.4730   41.2430 C   0  0  0  0  0  0  0  0  0  0  0  0
   36.6780   28.8440   41.4350 C   0  0  0  0  0  0  0  0  0  0  0  0
   37.3230   29.3030   42.5620 N   0  0  0  0  0  0  0  0  0  0  0  0
   37.9070   28.4530   43.4440 C   0  0  0  0  0  0  0  0  0  0  0  0
   37.8850   27.1340   43.2620 N   0  0  0  0  0  0  0  0  0  0  0  0
   36.1740   27.0180   40.3960 H   0  0  0  0  0  0  0  0  0  0  0  0
   38.4060   28.8580   44.3220 H   0  0  0  0  0  0  0  0  0  0  0  0
   37.2330   25.1630   41.9790 C   0  0  0  0  0  0  0  0  0  0  0  0
   38.3060   24.6920   40.9340 C   0  0  0  0  0  0  0  0  0  0  0  0
   38.2680   24.2650   42.3370 C   0  0  0  0  0  0  0  0  0  0  0  0
   36.2080   24.7730   41.7040 H   0  0  0  0  0  0  0  0  0  0  0  0
   37.9480   24.0670   40.1060 H   0  0  0  0  0  0  0  0  0  0  0  0
   39.0960   25.4140   40.6760 H   0  0  0  0  0  0  0  0  0  0  0  0
   38.0190   23.1900   42.5250 H   0  0  0  0  0  0  0  0  0  0  0  0
   39.1040   24.5750   43.0300 H   0  0  0  0  0  0  0  0  0  0  0  0
  1  3  1  0  0  0  0
  2  1  1  0  0  0  0
  4  6  1  0  0  0  0
  5  4  2  0  0  0  0
  6  1  1  0  0  0  0
  6  7  1  0  0  0  0
  8  9  1  0  0  0  0
  9 18  1  0  0  0  0
  9 10  1  0  0  0  0
 10  4  1  0  0  0  0
 10 11  2  0  0  0  0
 12 11  1  0  0  0  0
 12 13  1  0  0  0  0
 13 19  1  0  0  0  0
 14 13  2  0  0  0  0
 15 14  1  0  0  0  0
 16 15  1  0  0  0  0
 17 15  2  0  0  0  0
 17 18  1  0  0  0  0
 18 12  2  0  0  0  0
 19 20  1  0  0  0  0
 19 21  1  0  0  0  0
 22  1  1  0  0  0  0
 22 27  1  0  0  0  0
 23 22  1  0  0  0  0
 24 22  1  0  0  0  0
 25 30  1  0  0  0  0
 26 27  1  0  0  0  0
 26 25  2  0  0  0  0
 27 28  2  0  0  0  0
 28 29  1  0  0  0  0
 29 32  1  0  0  0  0
 30 29  2  0  0  0  0
 31 26  1  0  0  0  0
 33 25  1  0  0  0  0
 33 35  1  0  0  0  0
 34 33  1  0  0  0  0
 34 35  1  0  0  0  0
 35 39  1  0  0  0  0
 35 40  1  0  0  0  0
 36 33  1  0  0  0  0
 37 34  1  0  0  0  0
 38 34  1  0  0  0  0
M  END
>  <minimizedAffinity>
-6.13563728

$$$$

 OpenBabel03242520203D

 40 43  0  0  0  0  0  0  0  0999 V2000
   37.3290   32.5470   39.2680 C   0  0  0  0  0  0  0  0  0  0  0  0
   36.9800   32.0500   38.3620 H   0  0  0  0  0  0  0  0  0  0  0  0
   36.8550   33.5730   39.2360 H   0  0  0  0  0  0  0  0  0  0  0  0
   39.2960   33.8020   39.9840 C   0  0  0  0  0  0  0  0  0  0  0  0
   38.6330   34.7240   40.5370 O   0  0  0  0  0  0  0  0  0  0  0  0
   38.7690   32.6490   39.3510 N   0  0  0  0  0  0  0  0  0  0  0  0
   39.3680   31.8960   38.9570 H   0  0  0  0  0  0  0  0  0  0  0  0
   41.2850   34.1350   42.0550 H   0  0  0  0  0  0  0  0  0  0  0  0
   41.6020   34.0840   41.0640 N   0  0  0  0  0  0  0  0  0  0  0  0
   40.7710   33.9290   39.9920 C   0  0  0  0  0  0  0  0  0  0  0  0
   41.5940   33.9140   38.9050 N   0  0  0  0  0  0  0  0  0  0  0  0
   42.8700   34.0500   39.2600 C   0  0  0  0  0  0  0  0  0  0  0  0
   44.0100   34.0840   38.4630 C   0  0  0  0  0  0  0  0  0  0  0  0
   45.1780   34.2370   39.1420 N   0  0  0  0  0  0  0  0  0  0  0  0
   45.2020   34.3440   40.4800 C   0  0  0  0  0  0  0  0  0  0  0  0
   46.1670   34.4650   40.9610 H   0  0  0  0  0  0  0  0  0  0  0  0
   44.0750   34.3070   41.2210 N   0  0  0  0  0  0  0  0  0  0  0  0
   42.8740   34.1590   40.6350 C   0  0  0  0  0  0  0  0  0  0  0  0
   43.8890   33.9620   37.0510 N   0  0  0  0  0  0  0  0  0  0  0  0
   43.5850   32.9690   36.9310 H   0  0  0  0  0  0  0  0  0  0  0  0
   44.0440   34.6350   36.2510 H   0  0  0  0  0  0  0  0  0  0  0  0
   36.7240   31.8290   40.4550 C   0  0  0  0  0  0  0  0  0  0  0  0
   35.6180   31.9160   40.4530 H   0  0  0  0  0  0  0  0  0  0  0  0
   37.0660   32.2780   41.4150 H   0  0  0  0  0  0  0  0  0  0  0  0
   37.2880   28.2430   41.5180 C   0  0  0  0  0  0  0  0  0  0  0  0
   36.9170   29.6070   41.5650 C   0  0  0  0  0  0  0  0  0  0  0  0
   37.1100   30.3980   40.4450 C   0  0  0  0  0  0  0  0  0  0  0  0
   37.6630   29.7910   39.3400 N   0  0  0  0  0  0  0  0  0  0  0  0
   38.0040   28.4770   39.3460 C   0  0  0  0  0  0  0  0  0  0  0  0
   37.8180   27.7130   40.4200 N   0  0  0  0  0  0  0  0  0  0  0  0
   36.4940   29.9870   42.4750 H   0  0  0  0  0  0  0  0  0  0  0  0
   38.4390   28.0370   38.4500 H   0  0  0  0  0  0  0  0  0  0  0  0
   37.0850   27.4070   42.7260 C   0  0  0  0  0  0  0  0  0  0  0  0
   38.3650   27.3720   43.6350 C   0  0  0  0  0  0  0  0  0  0  0  0
   37.0620   27.9000   44.0550 C   0  0  0  0  0  0  0  0  0  0  0  0
   36.7260   26.3600   42.5000 H   0  0  0  0  0  0  0  0  0  0  0  0
   38.7350   26.3820   43.9290 H   0  0  0  0  0  0  0  0  0  0  0  0
   39.1410   28.1250   43.4260 H   0  0  0  0  0  0  0  0  0  0  0  0
   36.5200   27.3200   44.8440 H   0  0  0  0  0  0  0  0  0  0  0  0
   36.9590   29.0030   44.2720 H   0  0  0  0  0  0  0  0  0  0  0  0
  1  6  1  0  0  0  0
  1 22  1  0  0  0  0
  2  1  1  0  0  0  0
  3  1  1  0  0  0  0
  4 10  1  0  0  0  0
  4  5  2  0  0  0  0
  6  4  1  0  0  0  0
  7  6  1  0  0  0  0
  9  8  1  0  0  0  0
 10  9  1  0  0  0  0
 11 12  1  0  0  0  0
 11 10  2  0  0  0  0
 12 18  1  0  0  0  0
 13 14  1  0  0  0  0
 13 12  2  0  0  0  0
 14 15  2  0  0  0  0
 15 16  1  0  0  0  0
 15 17  1  0  0  0  0
 18  9  1  0  0  0  0
 18 17  2  0  0  0  0
 19 13  1  0  0  0  0
 20 19  1  0  0  0  0
 21 19  1  0  0  0  0
 22 24  1  0  0  0  0
 23 22  1  0  0  0  0
 25 26  1  0  0  0  0
 25 33  1  0  0  0  0
 26 31  1  0  0  0  0
 27 22  1  0  0  0  0
 27 26  2  0  0  0  0
 28 29  2  0  0  0  0
 28 27  1  0  0  0  0
 29 30  1  0  0  0  0
 30 25  2  0  0  0  0
 32 29  1  0  0  0  0
 33 34  1  0  0  0  0
 33 35  1  0  0  0  0
 34 37  1  0  0  0  0
 34 35  1  0  0  0  0
 35 40  1  0  0  0  0
 35 39  1  0  0  0  0
 36 33  1  0  0  0  0
 38 34  1  0  0  0  0
M  END
>  <minimizedAffinity>
-6.12837553

$$$$

 OpenBabel03242520203D

 40 43  0  0  0  0  0  0  0  0999 V2000
   37.4650   28.9040   36.6130 C   0  0  0  0  0  0  0  0  0  0  0  0
   37.4900   28.5850   35.5700 H   0  0  0  0  0  0  0  0  0  0  0  0
   36.5150   29.5080   36.7080 H   0  0  0  0  0  0  0  0  0  0  0  0
   38.3680   31.0150   37.4390 C   0  0  0  0  0  0  0  0  0  0  0  0
   37.2380   31.5610   37.5780 O   0  0  0  0  0  0  0  0  0  0  0  0
   38.6140   29.6890   37.0030 N   0  0  0  0  0  0  0  0  0  0  0  0
   39.5670   29.2770   36.9570 H   0  0  0  0  0  0  0  0  0  0  0  0
   40.3650   32.3850   35.8600 H   0  0  0  0  0  0  0  0  0  0  0  0
   40.4340   32.4300   36.8980 N   0  0  0  0  0  0  0  0  0  0  0  0
   39.5610   31.8310   37.7600 C   0  0  0  0  0  0  0  0  0  0  0  0
   40.0210   32.1430   39.0050 N   0  0  0  0  0  0  0  0  0  0  0  0
   41.1190   32.8940   38.9420 C   0  0  0  0  0  0  0  0  0  0  0  0
   41.8880   33.4210   39.9750 C   0  0  0  0  0  0  0  0  0  0  0  0
   42.9610   34.1540   39.5720 N   0  0  0  0  0  0  0  0  0  0  0  0
   43.2320   34.3420   38.2710 C   0  0  0  0  0  0  0  0  0  0  0  0
   44.1030   34.9380   38.0170 H   0  0  0  0  0  0  0  0  0  0  0  0
   42.4610   33.8170   37.2960 N   0  0  0  0  0  0  0  0  0  0  0  0
   41.3820   33.0760   37.6000 C   0  0  0  0  0  0  0  0  0  0  0  0
   41.5250   33.1700   41.3270 N   0  0  0  0  0  0  0  0  0  0  0  0
   40.6400   33.7170   41.4320 H   0  0  0  0  0  0  0  0  0  0  0  0
   41.9640   32.5990   42.1000 H   0  0  0  0  0  0  0  0  0  0  0  0
   37.2800   27.6720   37.4710 C   0  0  0  0  0  0  0  0  0  0  0  0
   38.2440   27.1450   37.6270 H   0  0  0  0  0  0  0  0  0  0  0  0
   36.6040   26.9350   36.9810 H   0  0  0  0  0  0  0  0  0  0  0  0
   36.5490   27.7950   41.1810 C   0  0  0  0  0  0  0  0  0  0  0  0
   37.1190   27.4140   39.9450 C   0  0  0  0  0  0  0  0  0  0  0  0
   36.6970   28.0380   38.7840 C   0  0  0  0  0  0  0  0  0  0  0  0
   35.7280   29.0080   38.9150 N   0  0  0  0  0  0  0  0  0  0  0  0
   35.2090   29.3370   40.1250 C   0  0  0  0  0  0  0  0  0  0  0  0
   35.6140   28.7400   41.2440 N   0  0  0  0  0  0  0  0  0  0  0  0
   37.8690   26.6450   39.9470 H   0  0  0  0  0  0  0  0  0  0  0  0
   34.4450   30.1100   40.1840 H   0  0  0  0  0  0  0  0  0  0  0  0
   37.0030   27.1120   42.4170 C   0  0  0  0  0  0  0  0  0  0  0  0
   37.9690   28.0160   43.2630 C   0  0  0  0  0  0  0  0  0  0  0  0
   36.6710   27.5190   43.7320 C   0  0  0  0  0  0  0  0  0  0  0  0
   37.4640   26.0970   42.2320 H   0  0  0  0  0  0  0  0  0  0  0  0
   38.9260   27.5710   43.5610 H   0  0  0  0  0  0  0  0  0  0  0  0
   38.0040   29.0840   42.9990 H   0  0  0  0  0  0  0  0  0  0  0  0
   36.6950   26.7660   44.5600 H   0  0  0  0  0  0  0  0  0  0  0  0
   35.8380   28.2540   43.9290 H   0  0  0  0  0  0  0  0  0  0  0  0
  1  3  1  0  0  0  0
  1  6  1  0  0  0  0
  1 22  1  0  0  0  0
  2  1  1  0  0  0  0
  4  5  2  0  0  0  0
  4 10  1  0  0  0  0
  6  4  1  0  0  0  0
  7  6  1  0  0  0  0
  8  9  1  0  0  0  0
  9 18  1  0  0  0  0
  9 10  1  0  0  0  0
 10 11  2  0  0  0  0
 12 11  1  0  0  0  0
 12 13  1  0  0  0  0
 13 19  1  0  0  0  0
 14 13  2  0  0  0  0
 15 14  1  0  0  0  0
 16 15  1  0  0  0  0
 17 18  1  0  0  0  0
 17 15  2  0  0  0  0
 18 12  2  0  0  0  0
 19 20  1  0  0  0  0
 19 21  1  0  0  0  0
 22 23  1  0  0  0  0
 22 27  1  0  0  0  0
 24 22  1  0  0  0  0
 25 30  1  0  0  0  0
 25 33  1  0  0  0  0
 26 31  1  0  0  0  0
 26 25  2  0  0  0  0
 27 28  2  0  0  0  0
 27 26  1  0  0  0  0
 28 29  1  0  0  0  0
 29 32  1  0  0  0  0
 29 30  2  0  0  0  0
 33 34  1  0  0  0  0
 33 35  1  0  0  0  0
 34 37  1  0  0  0  0
 34 35  1  0  0  0  0
 35 40  1  0  0  0  0
 35 39  1  0  0  0  0
 36 33  1  0  0  0  0
 38 34  1  0  0  0  0
M  END
>  <minimizedAffinity>
-5.95863962

$$$$

 OpenBabel03242520203D

 40 43  0  0  0  0  0  0  0  0999 V2000
   37.5490   28.2010   44.0180 C   0  0  0  0  0  0  0  0  0  0  0  0
   37.2700   28.3930   45.0550 H   0  0  0  0  0  0  0  0  0  0  0  0
   38.4840   27.5690   44.0830 H   0  0  0  0  0  0  0  0  0  0  0  0
   39.1070   29.5920   42.7550 C   0  0  0  0  0  0  0  0  0  0  0  0
   40.0720   28.7830   42.8580 O   0  0  0  0  0  0  0  0  0  0  0  0
   37.7940   29.4040   43.2540 N   0  0  0  0  0  0  0  0  0  0  0  0
   37.0250   30.0850   43.0940 H   0  0  0  0  0  0  0  0  0  0  0  0
   41.4520   31.2210   42.3010 H   0  0  0  0  0  0  0  0  0  0  0  0
   40.5420   31.5360   41.9040 N   0  0  0  0  0  0  0  0  0  0  0  0
   39.3610   30.8650   42.0430 C   0  0  0  0  0  0  0  0  0  0  0  0
   38.4430   31.6220   41.3790 N   0  0  0  0  0  0  0  0  0  0  0  0
   39.0010   32.7080   40.8480 C   0  0  0  0  0  0  0  0  0  0  0  0
   38.4170   33.7250   40.1000 C   0  0  0  0  0  0  0  0  0  0  0  0
   39.2720   34.7050   39.7020 N   0  0  0  0  0  0  0  0  0  0  0  0
   40.5760   34.6690   40.0190 C   0  0  0  0  0  0  0  0  0  0  0  0
   41.2040   35.4820   39.6700 H   0  0  0  0  0  0  0  0  0  0  0  0
   41.1080   33.6640   40.7460 N   0  0  0  0  0  0  0  0  0  0  0  0
   40.3380   32.6530   41.1840 C   0  0  0  0  0  0  0  0  0  0  0  0
   37.0250   33.6820   39.8120 N   0  0  0  0  0  0  0  0  0  0  0  0
   36.9520   32.8740   39.1510 H   0  0  0  0  0  0  0  0  0  0  0  0
   36.2020   34.2630   40.1280 H   0  0  0  0  0  0  0  0  0  0  0  0
   36.4800   27.3260   43.4020 C   0  0  0  0  0  0  0  0  0  0  0  0
   35.5330   27.8880   43.2680 H   0  0  0  0  0  0  0  0  0  0  0  0
   36.2330   26.4630   44.0620 H   0  0  0  0  0  0  0  0  0  0  0  0
   38.0090   25.1040   40.7500 C   0  0  0  0  0  0  0  0  0  0  0  0
   37.5990   25.5850   42.0140 C   0  0  0  0  0  0  0  0  0  0  0  0
   36.9340   26.7960   42.0940 C   0  0  0  0  0  0  0  0  0  0  0  0
   36.7140   27.4660   40.9110 N   0  0  0  0  0  0  0  0  0  0  0  0
   37.1290   26.9630   39.7210 C   0  0  0  0  0  0  0  0  0  0  0  0
   37.7680   25.7970   39.6400 N   0  0  0  0  0  0  0  0  0  0  0  0
   37.8190   24.9880   42.8800 H   0  0  0  0  0  0  0  0  0  0  0  0
   36.9340   27.5240   38.8090 H   0  0  0  0  0  0  0  0  0  0  0  0
   38.7300   23.8100   40.6780 C   0  0  0  0  0  0  0  0  0  0  0  0
   37.7470   22.6050   40.4570 C   0  0  0  0  0  0  0  0  0  0  0  0
   38.8100   22.9930   39.5230 C   0  0  0  0  0  0  0  0  0  0  0  0
   39.4060   23.6160   41.5630 H   0  0  0  0  0  0  0  0  0  0  0  0
   37.8360   21.7610   41.1510 H   0  0  0  0  0  0  0  0  0  0  0  0
   36.7210   22.8550   40.1430 H   0  0  0  0  0  0  0  0  0  0  0  0
   39.6660   22.2790   39.4170 H   0  0  0  0  0  0  0  0  0  0  0  0
   38.5310   23.3870   38.5030 H   0  0  0  0  0  0  0  0  0  0  0  0
  1  3  1  0  0  0  0
  1  2  1  0  0  0  0
  4  5  2  0  0  0  0
  4  6  1  0  0  0  0
  6  1  1  0  0  0  0
  7  6  1  0  0  0  0
  9 10  1  0  0  0  0
  9  8  1  0  0  0  0
 10  4  1  0  0  0  0
 11 10  2  0  0  0  0
 12 18  1  0  0  0  0
 12 11  1  0  0  0  0
 13 12  2  0  0  0  0
 14 15  2  0  0  0  0
 14 13  1  0  0  0  0
 15 17  1  0  0  0  0
 16 15  1  0  0  0  0
 17 18  2  0  0  0  0
 18  9  1  0  0  0  0
 19 13  1  0  0  0  0
 19 21  1  0  0  0  0
 20 19  1  0  0  0  0
 22  1  1  0  0  0  0
 22 24  1  0  0  0  0
 23 22  1  0  0  0  0
 25 26  1  0  0  0  0
 26 27  2  0  0  0  0
 26 31  1  0  0  0  0
 27 22  1  0  0  0  0
 28 27  1  0  0  0  0
 29 28  2  0  0  0  0
 30 29  1  0  0  0  0
 30 25  2  0  0  0  0
 32 29  1  0  0  0  0
 33 25  1  0  0  0  0
 33 36  1  0  0  0  0
 34 33  1  0  0  0  0
 34 37  1  0  0  0  0
 35 34  1  0  0  0  0
 35 33  1  0  0  0  0
 38 34  1  0  0  0  0
 39 35  1  0  0  0  0
 40 35  1  0  0  0  0
M  END
>  <minimizedAffinity>
-5.94651508

$$$$

 OpenBabel03242520203D

 40 43  0  0  0  0  0  0  0  0999 V2000
   36.8660   28.9640   36.9150 C   0  0  0  0  0  0  0  0  0  0  0  0
   37.3420   28.0160   37.1660 H   0  0  0  0  0  0  0  0  0  0  0  0
   36.5150   28.8380   35.8490 H   0  0  0  0  0  0  0  0  0  0  0  0
   38.9960   29.8840   37.6710 C   0  0  0  0  0  0  0  0  0  0  0  0
   39.4400   28.7800   38.0920 O   0  0  0  0  0  0  0  0  0  0  0  0
   37.7490   30.1030   37.0340 N   0  0  0  0  0  0  0  0  0  0  0  0
   37.4590   31.0280   36.6610 H   0  0  0  0  0  0  0  0  0  0  0  0
   40.8910   31.2870   35.9980 H   0  0  0  0  0  0  0  0  0  0  0  0
   40.7210   31.6410   36.9620 N   0  0  0  0  0  0  0  0  0  0  0  0
   39.8550   31.0760   37.8540 C   0  0  0  0  0  0  0  0  0  0  0  0
   39.9450   31.8490   38.9740 N   0  0  0  0  0  0  0  0  0  0  0  0
   40.8120   32.8450   38.8070 C   0  0  0  0  0  0  0  0  0  0  0  0
   41.1880   33.8470   39.6980 C   0  0  0  0  0  0  0  0  0  0  0  0
   42.1100   34.7240   39.2160 N   0  0  0  0  0  0  0  0  0  0  0  0
   42.6010   34.6100   37.9720 C   0  0  0  0  0  0  0  0  0  0  0  0
   43.3340   35.3430   37.6480 H   0  0  0  0  0  0  0  0  0  0  0  0
   42.2120   33.6250   37.1350 N   0  0  0  0  0  0  0  0  0  0  0  0
   41.3070   32.7120   37.5260 C   0  0  0  0  0  0  0  0  0  0  0  0
   40.6140   33.8900   40.9980 N   0  0  0  0  0  0  0  0  0  0  0  0
   39.6210   34.1520   40.8020 H   0  0  0  0  0  0  0  0  0  0  0  0
   41.0010   33.7190   41.9660 H   0  0  0  0  0  0  0  0  0  0  0  0
   35.6220   29.0990   37.7660 C   0  0  0  0  0  0  0  0  0  0  0  0
   35.0160   28.1700   37.7380 H   0  0  0  0  0  0  0  0  0  0  0  0
   34.9580   29.9090   37.3860 H   0  0  0  0  0  0  0  0  0  0  0  0
   36.4750   28.7410   41.4340 C   0  0  0  0  0  0  0  0  0  0  0  0
   36.1170   28.4060   40.1080 C   0  0  0  0  0  0  0  0  0  0  0  0
   35.9850   29.4140   39.1680 C   0  0  0  0  0  0  0  0  0  0  0  0
   36.2150   30.7020   39.5980 N   0  0  0  0  0  0  0  0  0  0  0  0
   36.5550   30.9730   40.8840 C   0  0  0  0  0  0  0  0  0  0  0  0
   36.6850   30.0060   41.7900 N   0  0  0  0  0  0  0  0  0  0  0  0
   35.9580   27.3710   39.8710 H   0  0  0  0  0  0  0  0  0  0  0  0
   36.7290   32.0050   41.1820 H   0  0  0  0  0  0  0  0  0  0  0  0
   36.6040   27.6540   42.4340 C   0  0  0  0  0  0  0  0  0  0  0  0
   38.1030   27.3860   42.8170 C   0  0  0  0  0  0  0  0  0  0  0  0
   37.0700   27.8270   43.7600 C   0  0  0  0  0  0  0  0  0  0  0  0
   36.0910   26.6930   42.1300 H   0  0  0  0  0  0  0  0  0  0  0  0
   38.4520   26.3480   42.7510 H   0  0  0  0  0  0  0  0  0  0  0  0
   38.8350   28.1520   42.5170 H   0  0  0  0  0  0  0  0  0  0  0  0
   36.7670   27.0910   44.5480 H   0  0  0  0  0  0  0  0  0  0  0  0
   37.1520   28.8520   44.2270 H   0  0  0  0  0  0  0  0  0  0  0  0
  1  6  1  0  0  0  0
  1  2  1  0  0  0  0
  1 22  1  0  0  0  0
  3  1  1  0  0  0  0
  4 10  1  0  0  0  0
  4  5  2  0  0  0  0
  6  4  1  0  0  0  0
  7  6  1  0  0  0  0
  8  9  1  0  0  0  0
  9 18  1  0  0  0  0
  9 10  1  0  0  0  0
 10 11  2  0  0  0  0
 12 11  1  0  0  0  0
 12 13  1  0  0  0  0
 13 19  1  0  0  0  0
 14 13  2  0  0  0  0
 15 14  1  0  0  0  0
 16 15  1  0  0  0  0
 17 18  1  0  0  0  0
 17 15  2  0  0  0  0
 18 12  2  0  0  0  0
 19 21  1  0  0  0  0
 20 19  1  0  0  0  0
 22 27  1  0  0  0  0
 23 22  1  0  0  0  0
 24 22  1  0  0  0  0
 25 30  1  0  0  0  0
 25 33  1  0  0  0  0
 26 25  2  0  0  0  0
 27 28  2  0  0  0  0
 27 26  1  0  0  0  0
 28 29  1  0  0  0  0
 29 32  1  0  0  0  0
 29 30  2  0  0  0  0
 31 26  1  0  0  0  0
 33 34  1  0  0  0  0
 33 35  1  0  0  0  0
 34 35  1  0  0  0  0
 35 40  1  0  0  0  0
 35 39  1  0  0  0  0
 36 33  1  0  0  0  0
 37 34  1  0  0  0  0
 38 34  1  0  0  0  0
M  END
>  <minimizedAffinity>
-5.91966391

$$$$

 OpenBabel03242520203D

 40 43  0  0  0  0  0  0  0  0999 V2000
   36.0090   29.9060   38.2890 C   0  0  0  0  0  0  0  0  0  0  0  0
   35.5110   30.2490   37.3820 H   0  0  0  0  0  0  0  0  0  0  0  0
   35.2540   30.0680   39.1140 H   0  0  0  0  0  0  0  0  0  0  0  0
   37.8610   31.2800   37.4900 C   0  0  0  0  0  0  0  0  0  0  0  0
   37.4170   31.3730   36.3120 O   0  0  0  0  0  0  0  0  0  0  0  0
   37.2390   30.6110   38.5730 N   0  0  0  0  0  0  0  0  0  0  0  0
   37.6290   30.6120   39.5370 H   0  0  0  0  0  0  0  0  0  0  0  0
   40.0310   32.2770   35.8610 H   0  0  0  0  0  0  0  0  0  0  0  0
   40.1070   32.3600   36.8960 N   0  0  0  0  0  0  0  0  0  0  0  0
   39.1590   31.9310   37.7800 C   0  0  0  0  0  0  0  0  0  0  0  0
   39.6600   32.2310   39.0120 N   0  0  0  0  0  0  0  0  0  0  0  0
   40.8540   32.8140   38.9210 C   0  0  0  0  0  0  0  0  0  0  0  0
   41.6920   33.2720   39.9330 C   0  0  0  0  0  0  0  0  0  0  0  0
   42.8580   33.8260   39.5030 N   0  0  0  0  0  0  0  0  0  0  0  0
   43.1510   33.9140   38.1960 C   0  0  0  0  0  0  0  0  0  0  0  0
   44.0980   34.3670   37.9190 H   0  0  0  0  0  0  0  0  0  0  0  0
   42.3120   33.4600   37.2410 N   0  0  0  0  0  0  0  0  0  0  0  0
   41.1380   32.8950   37.5740 C   0  0  0  0  0  0  0  0  0  0  0  0
   41.2980   33.1380   41.2930 N   0  0  0  0  0  0  0  0  0  0  0  0
   40.5010   33.8090   41.3690 H   0  0  0  0  0  0  0  0  0  0  0  0
   41.6520   32.5460   42.0940 H   0  0  0  0  0  0  0  0  0  0  0  0
   36.2080   28.4100   38.1730 C   0  0  0  0  0  0  0  0  0  0  0  0
   36.5520   28.1300   37.1560 H   0  0  0  0  0  0  0  0  0  0  0  0
   35.2520   27.8620   38.3360 H   0  0  0  0  0  0  0  0  0  0  0  0
   37.7430   27.1020   41.3730 C   0  0  0  0  0  0  0  0  0  0  0  0
   36.7800   27.5560   40.4430 C   0  0  0  0  0  0  0  0  0  0  0  0
   37.1910   27.9390   39.1780 C   0  0  0  0  0  0  0  0  0  0  0  0
   38.5380   27.8510   38.9060 N   0  0  0  0  0  0  0  0  0  0  0  0
   39.4240   27.4100   39.8350 C   0  0  0  0  0  0  0  0  0  0  0  0
   39.0330   27.0400   41.0520 N   0  0  0  0  0  0  0  0  0  0  0  0
   35.7520   27.5890   40.7520 H   0  0  0  0  0  0  0  0  0  0  0  0
   40.4800   27.3560   39.5790 H   0  0  0  0  0  0  0  0  0  0  0  0
   37.2930   26.7040   42.7290 C   0  0  0  0  0  0  0  0  0  0  0  0
   37.7010   27.7610   43.8160 C   0  0  0  0  0  0  0  0  0  0  0  0
   36.3180   27.3930   43.4920 C   0  0  0  0  0  0  0  0  0  0  0  0
   37.6280   25.6680   43.0340 H   0  0  0  0  0  0  0  0  0  0  0  0
   38.2320   27.3840   44.6980 H   0  0  0  0  0  0  0  0  0  0  0  0
   38.0310   28.7460   43.4480 H   0  0  0  0  0  0  0  0  0  0  0  0
   35.7510   26.8400   44.2830 H   0  0  0  0  0  0  0  0  0  0  0  0
   35.6380   28.1620   43.0220 H   0  0  0  0  0  0  0  0  0  0  0  0
  1  6  1  0  0  0  0
  1  3  1  0  0  0  0
  2  1  1  0  0  0  0
  4 10  1  0  0  0  0
  4  6  1  0  0  0  0
  5  4  2  0  0  0  0
  6  7  1  0  0  0  0
  8  9  1  0  0  0  0
  9 18  1  0  0  0  0
  9 10  1  0  0  0  0
 10 11  2  0  0  0  0
 12 11  1  0  0  0  0
 12 13  1  0  0  0  0
 13 19  1  0  0  0  0
 14 13  2  0  0  0  0
 15 14  1  0  0  0  0
 16 15  1  0  0  0  0
 17 18  1  0  0  0  0
 17 15  2  0  0  0  0
 18 12  2  0  0  0  0
 19 20  1  0  0  0  0
 19 21  1  0  0  0  0
 22  1  1  0  0  0  0
 22 24  1  0  0  0  0
 22 27  1  0  0  0  0
 23 22  1  0  0  0  0
 25 33  1  0  0  0  0
 26 31  1  0  0  0  0
 26 25  2  0  0  0  0
 27 26  1  0  0  0  0
 28 27  2  0  0  0  0
 28 29  1  0  0  0  0
 29 30  2  0  0  0  0
 30 25  1  0  0  0  0
 32 29  1  0  0  0  0
 33 36  1  0  0  0  0
 33 35  1  0  0  0  0
 33 34  1  0  0  0  0
 34 37  1  0  0  0  0
 35 34  1  0  0  0  0
 35 39  1  0  0  0  0
 38 34  1  0  0  0  0
 40 35  1  0  0  0  0
M  END
>  <minimizedAffinity>
-5.6948185

$$$$

 OpenBabel03242520203D

 40 43  0  0  0  0  0  0  0  0999 V2000
   35.9260   29.8720   38.7720 C   0  0  0  0  0  0  0  0  0  0  0  0
   35.9330   28.9730   38.1540 H   0  0  0  0  0  0  0  0  0  0  0  0
   35.1960   30.5680   38.2620 H   0  0  0  0  0  0  0  0  0  0  0  0
   37.8520   30.9230   37.7040 C   0  0  0  0  0  0  0  0  0  0  0  0
   37.3630   30.8710   36.5410 O   0  0  0  0  0  0  0  0  0  0  0  0
   37.2250   30.4940   38.9000 N   0  0  0  0  0  0  0  0  0  0  0  0
   37.6570   30.6090   39.8380 H   0  0  0  0  0  0  0  0  0  0  0  0
   39.4680   32.7230   36.1210 H   0  0  0  0  0  0  0  0  0  0  0  0
   39.8670   32.3420   37.0050 N   0  0  0  0  0  0  0  0  0  0  0  0
   39.2140   31.4860   37.8440 C   0  0  0  0  0  0  0  0  0  0  0  0
   40.0910   31.2480   38.8600 N   0  0  0  0  0  0  0  0  0  0  0  0
   41.2320   31.9110   38.6820 C   0  0  0  0  0  0  0  0  0  0  0  0
   42.3700   31.9410   39.4820 C   0  0  0  0  0  0  0  0  0  0  0  0
   43.3770   32.7260   39.0140 N   0  0  0  0  0  0  0  0  0  0  0  0
   43.2560   33.4110   37.8660 C   0  0  0  0  0  0  0  0  0  0  0  0
   44.0970   34.0200   37.5480 H   0  0  0  0  0  0  0  0  0  0  0  0
   42.1350   33.3590   37.1160 N   0  0  0  0  0  0  0  0  0  0  0  0
   41.0890   32.6070   37.5000 C   0  0  0  0  0  0  0  0  0  0  0  0
   42.4100   31.1820   40.6840 N   0  0  0  0  0  0  0  0  0  0  0  0
   41.7200   31.6790   41.2920 H   0  0  0  0  0  0  0  0  0  0  0  0
   42.9570   30.3290   40.9840 H   0  0  0  0  0  0  0  0  0  0  0  0
   35.3160   29.5120   40.1100 C   0  0  0  0  0  0  0  0  0  0  0  0
   34.4500   28.8310   39.9830 H   0  0  0  0  0  0  0  0  0  0  0  0
   34.9230   30.4150   40.6310 H   0  0  0  0  0  0  0  0  0  0  0  0
   37.6220   26.9590   41.6820 C   0  0  0  0  0  0  0  0  0  0  0  0
   36.6440   27.5330   40.8380 C   0  0  0  0  0  0  0  0  0  0  0  0
   36.3280   28.8730   40.9840 C   0  0  0  0  0  0  0  0  0  0  0  0
   37.0000   29.5690   41.9640 N   0  0  0  0  0  0  0  0  0  0  0  0
   37.9310   28.9710   42.7510 C   0  0  0  0  0  0  0  0  0  0  0  0
   38.2380   27.6830   42.6120 N   0  0  0  0  0  0  0  0  0  0  0  0
   36.1750   26.9060   40.1030 H   0  0  0  0  0  0  0  0  0  0  0  0
   38.4390   29.5580   43.5140 H   0  0  0  0  0  0  0  0  0  0  0  0
   37.9450   25.5200   41.5220 C   0  0  0  0  0  0  0  0  0  0  0  0
   36.8960   24.6010   42.2450 C   0  0  0  0  0  0  0  0  0  0  0  0
   37.1570   24.5900   40.8010 C   0  0  0  0  0  0  0  0  0  0  0  0
   38.9970   25.2520   41.8400 H   0  0  0  0  0  0  0  0  0  0  0  0
   37.2930   23.8440   42.9320 H   0  0  0  0  0  0  0  0  0  0  0  0
   35.9530   25.0770   42.5560 H   0  0  0  0  0  0  0  0  0  0  0  0
   37.6390   23.6680   40.3880 H   0  0  0  0  0  0  0  0  0  0  0  0
   36.3470   24.9300   40.0920 H   0  0  0  0  0  0  0  0  0  0  0  0
  1  6  1  0  0  0  0
  1 22  1  0  0  0  0
  2  1  1  0  0  0  0
  3  1  1  0  0  0  0
  4 10  1  0  0  0  0
  4  6  1  0  0  0  0
  5  4  2  0  0  0  0
  6  7  1  0  0  0  0
  8  9  1  0  0  0  0
  9 18  1  0  0  0  0
  9 10  1  0  0  0  0
 10 11  2  0  0  0  0
 12 11  1  0  0  0  0
 12 13  1  0  0  0  0
 13 19  1  0  0  0  0
 14 13  2  0  0  0  0
 15 14  1  0  0  0  0
 16 15  1  0  0  0  0
 17 18  1  0  0  0  0
 17 15  2  0  0  0  0
 18 12  2  0  0  0  0
 19 21  1  0  0  0  0
 19 20  1  0  0  0  0
 22 24  1  0  0  0  0
 22 27  1  0  0  0  0
 23 22  1  0  0  0  0
 25 30  1  0  0  0  0
 26 27  1  0  0  0  0
 26 25  2  0  0  0  0
 27 28  2  0  0  0  0
 28 29  1  0  0  0  0
 29 32  1  0  0  0  0
 30 29  2  0  0  0  0
 31 26  1  0  0  0  0
 33 25  1  0  0  0  0
 33 36  1  0  0  0  0
 33 34  1  0  0  0  0
 34 38  1  0  0  0  0
 34 37  1  0  0  0  0
 35 33  1  0  0  0  0
 35 34  1  0  0  0  0
 39 35  1  0  0  0  0
 40 35  1  0  0  0  0
M  END
>  <minimizedAffinity>
-5.60578775

$$$$

 OpenBabel03242520203D

 40 43  0  0  0  0  0  0  0  0999 V2000
   37.2040   32.4970   38.9830 C   0  0  0  0  0  0  0  0  0  0  0  0
   36.6660   31.8160   38.3230 H   0  0  0  0  0  0  0  0  0  0  0  0
   36.6620   33.4840   38.8860 H   0  0  0  0  0  0  0  0  0  0  0  0
   39.1880   31.6070   37.8740 C   0  0  0  0  0  0  0  0  0  0  0  0
   38.5960   30.5960   37.4030 O   0  0  0  0  0  0  0  0  0  0  0  0
   38.6030   32.6430   38.6440 N   0  0  0  0  0  0  0  0  0  0  0  0
   39.1310   33.4790   38.9620 H   0  0  0  0  0  0  0  0  0  0  0  0
   41.1800   29.8810   36.6870 H   0  0  0  0  0  0  0  0  0  0  0  0
   41.4730   30.8210   37.0240 N   0  0  0  0  0  0  0  0  0  0  0  0
   40.6380   31.7330   37.6020 C   0  0  0  0  0  0  0  0  0  0  0  0
   41.4280   32.8080   37.8860 N   0  0  0  0  0  0  0  0  0  0  0  0
   42.6880   32.5960   37.5120 C   0  0  0  0  0  0  0  0  0  0  0  0
   43.7940   33.4330   37.6210 C   0  0  0  0  0  0  0  0  0  0  0  0
   44.9550   32.9130   37.1380 N   0  0  0  0  0  0  0  0  0  0  0  0
   45.0010   31.6840   36.6000 C   0  0  0  0  0  0  0  0  0  0  0  0
   45.9590   31.3280   36.2330 H   0  0  0  0  0  0  0  0  0  0  0  0
   43.9070   30.9000   36.5100 N   0  0  0  0  0  0  0  0  0  0  0  0
   42.7170   31.3300   36.9630 C   0  0  0  0  0  0  0  0  0  0  0  0
   43.6510   34.7220   38.2050 N   0  0  0  0  0  0  0  0  0  0  0  0
   43.0770   35.2330   37.4970 H   0  0  0  0  0  0  0  0  0  0  0  0
   43.9950   35.1490   39.1080 H   0  0  0  0  0  0  0  0  0  0  0  0
   36.9950   32.0280   40.4060 C   0  0  0  0  0  0  0  0  0  0  0  0
   36.1410   32.5560   40.8790 H   0  0  0  0  0  0  0  0  0  0  0  0
   37.8830   32.2520   41.0410 H   0  0  0  0  0  0  0  0  0  0  0  0
   37.3380   28.3390   41.1650 C   0  0  0  0  0  0  0  0  0  0  0  0
   37.6010   29.7270   41.1460 C   0  0  0  0  0  0  0  0  0  0  0  0
   36.7560   30.5660   40.4400 C   0  0  0  0  0  0  0  0  0  0  0  0
   35.6950   29.9770   39.7890 N   0  0  0  0  0  0  0  0  0  0  0  0
   35.4850   28.6370   39.8370 C   0  0  0  0  0  0  0  0  0  0  0  0
   36.2960   27.8280   40.5160 N   0  0  0  0  0  0  0  0  0  0  0  0
   38.4560   30.0900   41.6850 H   0  0  0  0  0  0  0  0  0  0  0  0
   34.6340   28.2120   39.3080 H   0  0  0  0  0  0  0  0  0  0  0  0
   38.2570   27.4490   41.9170 C   0  0  0  0  0  0  0  0  0  0  0  0
   37.9380   27.4450   43.4550 C   0  0  0  0  0  0  0  0  0  0  0  0
   37.8650   26.2640   42.5870 C   0  0  0  0  0  0  0  0  0  0  0  0
   39.3510   27.6680   41.7370 H   0  0  0  0  0  0  0  0  0  0  0  0
   38.7770   27.6400   44.1340 H   0  0  0  0  0  0  0  0  0  0  0  0
   36.9710   27.8730   43.7610 H   0  0  0  0  0  0  0  0  0  0  0  0
   38.6250   25.4630   42.7710 H   0  0  0  0  0  0  0  0  0  0  0  0
   36.8620   25.7830   42.3950 H   0  0  0  0  0  0  0  0  0  0  0  0
  1 22  1  0  0  0  0
  2  1  1  0  0  0  0
  3  1  1  0  0  0  0
  4  6  1  0  0  0  0
  5  4  2  0  0  0  0
  6  7  1  0  0  0  0
  6  1  1  0  0  0  0
  8  9  1  0  0  0  0
  9 10  1  0  0  0  0
 10  4  1  0  0  0  0
 10 11  2  0  0  0  0
 12 13  1  0  0  0  0
 12 11  1  0  0  0  0
 13 19  1  0  0  0  0
 14 13  2  0  0  0  0
 15 14  1  0  0  0  0
 16 15  1  0  0  0  0
 17 15  2  0  0  0  0
 17 18  1  0  0  0  0
 18  9  1  0  0  0  0
 18 12  2  0  0  0  0
 19 21  1  0  0  0  0
 20 19  1  0  0  0  0
 22 27  1  0  0  0  0
 22 23  1  0  0  0  0
 22 24  1  0  0  0  0
 25 33  1  0  0  0  0
 26 25  1  0  0  0  0
 26 31  1  0  0  0  0
 27 26  2  0  0  0  0
 28 29  2  0  0  0  0
 28 27  1  0  0  0  0
 29 30  1  0  0  0  0
 30 25  2  0  0  0  0
 32 29  1  0  0  0  0
 33 35  1  0  0  0  0
 33 34  1  0  0  0  0
 34 38  1  0  0  0  0
 34 37  1  0  0  0  0
 35 39  1  0  0  0  0
 35 34  1  0  0  0  0
 36 33  1  0  0  0  0
 40 35  1  0  0  0  0
M  END
>  <minimizedAffinity>
-5.60259962

$$$$
