
 OpenBabel03242523313D

 27 29  0  0  0  0  0  0  0  0999 V2000
   47.9140   32.2870   45.6150 H   0  0  0  0  0  0  0  0  0  0  0  0
   47.0780   32.9100   45.5320 N   0  0  0  0  0  0  0  0  0  0  0  0
   46.1490   32.9910   46.4980 C   0  0  0  0  0  0  0  0  0  0  0  0
   45.2230   33.8720   46.0740 N   0  0  0  0  0  0  0  0  0  0  0  0
   45.5800   34.3180   44.8730 C   0  0  0  0  0  0  0  0  0  0  0  0
   44.9870   35.2190   44.0170 C   0  0  0  0  0  0  0  0  0  0  0  0
   45.5750   35.4980   42.8320 N   0  0  0  0  0  0  0  0  0  0  0  0
   46.7460   34.8790   42.5090 C   0  0  0  0  0  0  0  0  0  0  0  0
   47.1130   35.1860   41.5390 H   0  0  0  0  0  0  0  0  0  0  0  0
   47.3340   34.0000   43.3340 N   0  0  0  0  0  0  0  0  0  0  0  0
   46.7650   33.7140   44.5070 C   0  0  0  0  0  0  0  0  0  0  0  0
   43.7660   35.8220   44.4260 N   0  0  0  0  0  0  0  0  0  0  0  0
   43.6120   36.1170   45.4350 H   0  0  0  0  0  0  0  0  0  0  0  0
   42.8630   36.1000   43.9980 H   0  0  0  0  0  0  0  0  0  0  0  0
   45.9870   32.1930   48.0760 S   0  0  0  0  0  0  0  0  0  0  0  0
   46.5580   30.4710   48.0310 C   0  0  0  0  0  0  0  0  0  0  0  0
   45.9200   29.8120   48.6420 H   0  0  0  0  0  0  0  0  0  0  0  0
   46.5720   30.0710   46.9750 H   0  0  0  0  0  0  0  0  0  0  0  0
   50.0870   29.4850   48.6550 C   0  0  0  0  0  0  0  0  0  0  0  0
   50.5990   30.6120   49.2740 C   0  0  0  0  0  0  0  0  0  0  0  0
   49.7340   31.6790   49.4660 C   0  0  0  0  0  0  0  0  0  0  0  0
   48.4390   31.6050   49.0550 N   0  0  0  0  0  0  0  0  0  0  0  0
   47.9750   30.4840   48.4520 C   0  0  0  0  0  0  0  0  0  0  0  0
   48.8050   29.4470   48.2620 N   0  0  0  0  0  0  0  0  0  0  0  0
   50.8060   28.6870   48.5320 H   0  0  0  0  0  0  0  0  0  0  0  0
   51.5980   30.7980   49.6460 H   0  0  0  0  0  0  0  0  0  0  0  0
   49.9980   32.6280   49.9400 H   0  0  0  0  0  0  0  0  0  0  0  0
  2  1  1  0  0  0  0
  2  3  1  0  0  0  0
  3 15  1  0  0  0  0
  4  3  2  0  0  0  0
  5  4  1  0  0  0  0
  6 12  1  0  0  0  0
  6  5  2  0  0  0  0
  7  6  1  0  0  0  0
  8  7  2  0  0  0  0
  8 10  1  0  0  0  0
  9  8  1  0  0  0  0
 10 11  2  0  0  0  0
 11  5  1  0  0  0  0
 11  2  1  0  0  0  0
 12 13  1  0  0  0  0
 14 12  1  0  0  0  0
 16 15  1  0  0  0  0
 16 23  1  0  0  0  0
 16 17  1  0  0  0  0
 18 16  1  0  0  0  0
 19 20  1  0  0  0  0
 20 21  2  0  0  0  0
 20 26  1  0  0  0  0
 21 27  1  0  0  0  0
 22 21  1  0  0  0  0
 23 22  2  0  0  0  0
 24 23  1  0  0  0  0
 24 19  2  0  0  0  0
 25 19  1  0  0  0  0
M  END
>  <minimizedAffinity>
-5.38070011

>  <minimizedRMSD>
7.49925184

$$$$
