
 OpenBabel03252502563D

 42 45  0  0  0  0  0  0  0  0999 V2000
   45.6250   29.9880   44.7250 Br  0  0  0  0  0  0  0  0  0  0  0  0
   45.6710   30.5950   46.5650 C   0  0  0  0  0  0  0  0  0  0  0  0
   46.3490   31.7520   46.7780 C   0  0  0  0  0  0  0  0  0  0  0  0
   46.3660   32.1660   48.1170 C   0  0  0  0  0  0  0  0  0  0  0  0
   45.7540   31.4710   49.1300 C   0  0  0  0  0  0  0  0  0  0  0  0
   45.0900   30.3110   48.8280 C   0  0  0  0  0  0  0  0  0  0  0  0
   45.0380   29.8510   47.5280 C   0  0  0  0  0  0  0  0  0  0  0  0
   46.8740   33.0700   48.4020 H   0  0  0  0  0  0  0  0  0  0  0  0
   45.7920   31.8270   50.1500 H   0  0  0  0  0  0  0  0  0  0  0  0
   44.5910   29.7210   49.5810 H   0  0  0  0  0  0  0  0  0  0  0  0
   47.0420   32.5860   45.7920 C   0  0  0  0  0  0  0  0  0  0  0  0
   47.9910   32.9380   46.2090 H   0  0  0  0  0  0  0  0  0  0  0  0
   47.3270   31.8990   44.9480 H   0  0  0  0  0  0  0  0  0  0  0  0
   44.5370   35.3140   45.3940 C   0  0  0  0  0  0  0  0  0  0  0  0
   44.7480   35.7140   44.0760 C   0  0  0  0  0  0  0  0  0  0  0  0
   45.7390   35.0490   43.3430 C   0  0  0  0  0  0  0  0  0  0  0  0
   46.4350   34.0640   43.9400 N   0  0  0  0  0  0  0  0  0  0  0  0
   46.2180   33.6820   45.2310 C   0  0  0  0  0  0  0  0  0  0  0  0
   45.2580   34.3340   45.9260 N   0  0  0  0  0  0  0  0  0  0  0  0
   43.7660   35.8370   45.9520 H   0  0  0  0  0  0  0  0  0  0  0  0
   44.1890   36.5060   43.5940 H   0  0  0  0  0  0  0  0  0  0  0  0
   45.9790   35.2780   42.3280 H   0  0  0  0  0  0  0  0  0  0  0  0
   44.3610   28.6710   47.2340 O   0  0  0  0  0  0  0  0  0  0  0  0
   44.2140   26.1150   46.7990 O   0  0  0  0  0  0  0  0  0  0  0  0
   44.9000   27.1360   47.6860 P   0  0  2  0  0  0  0  0  0  0  0  0
   44.4790   26.9000   49.2970 O   0  0  0  0  0  0  0  0  0  0  0  0
   45.2170   27.2000   49.8700 H   0  0  0  0  0  0  0  0  0  0  0  0
   46.5710   26.9770   47.4630 O   0  0  0  0  0  0  0  0  0  0  0  0
   49.2160   27.2890   48.4520 H   0  0  0  0  0  0  0  0  0  0  0  0
   48.6670   26.4300   48.6670 N   0  0  0  0  0  0  0  0  0  0  0  0
   47.4100   26.2190   48.2300 C   0  0  0  0  0  0  0  0  0  0  0  0
   47.0050   25.0180   48.6900 N   0  0  0  0  0  0  0  0  0  0  0  0
   48.0380   24.5140   49.4080 C   0  0  0  0  0  0  0  0  0  0  0  0
   48.0910   23.2870   50.0800 C   0  0  0  0  0  0  0  0  0  0  0  0
   49.2360   23.0040   50.7300 N   0  0  0  0  0  0  0  0  0  0  0  0
   50.2630   23.8830   50.7120 C   0  0  0  0  0  0  0  0  0  0  0  0
   51.1210   23.5360   51.2700 H   0  0  0  0  0  0  0  0  0  0  0  0
   50.2140   25.0740   50.0610 N   0  0  0  0  0  0  0  0  0  0  0  0
   49.1000   25.3930   49.4060 C   0  0  0  0  0  0  0  0  0  0  0  0
   46.9600   22.4110   50.0510 N   0  0  0  0  0  0  0  0  0  0  0  0
   46.8580   21.4810   49.5720 H   0  0  0  0  0  0  0  0  0  0  0  0
   46.0770   22.6710   50.5570 H   0  0  0  0  0  0  0  0  0  0  0  0
  1  2  1  0  0  0  0
  2  3  2  0  0  0  0
  2  7  1  0  0  0  0
  3  4  1  0  0  0  0
  4  8  1  0  0  0  0
  4  5  2  0  0  0  0
  5  9  1  0  0  0  0
  6  5  1  0  0  0  0
  6 10  1  0  0  0  0
  7  6  2  0  0  0  0
 11 12  1  0  0  0  0
 11  3  1  0  0  0  0
 13 11  1  0  0  0  0
 14 19  1  0  0  0  0
 14 20  1  0  0  0  0
 15 14  2  0  0  0  0
 16 17  2  0  0  0  0
 16 15  1  0  0  0  0
 17 18  1  0  0  0  0
 18 11  1  0  0  0  0
 18 19  2  0  0  0  0
 21 15  1  0  0  0  0
 22 16  1  0  0  0  0
 23  7  1  0  0  0  0
 23 25  1  0  0  0  0
 25 24  2  6  0  0  0
 25 26  1  0  0  0  0
 26 27  1  0  0  0  0
 28 25  1  0  0  0  0
 28 31  1  0  0  0  0
 29 30  1  0  0  0  0
 30 39  1  0  0  0  0
 31 30  1  0  0  0  0
 31 32  2  0  0  0  0
 32 33  1  0  0  0  0
 33 34  1  0  0  0  0
 34 35  2  0  0  0  0
 36 35  1  0  0  0  0
 36 37  1  0  0  0  0
 38 36  2  0  0  0  0
 39 33  2  0  0  0  0
 39 38  1  0  0  0  0
 40 34  1  0  0  0  0
 40 42  1  0  0  0  0
 41 40  1  0  0  0  0
M  END
>  <minimizedAffinity>
-6.1736517

>  <minimizedRMSD>
0.653527081

$$$$
