
 OpenBabel03242521443D

 43 46  0  0  1  0  0  0  0  0999 V2000
   45.3400   34.3960   43.8340 C   0  0  0  0  0  0  0  0  0  0  0  0
   46.4750   33.7880   43.2720 C   0  0  0  0  0  0  0  0  0  0  0  0
   47.3460   33.0750   44.1070 C   0  0  0  0  0  0  0  0  0  0  0  0
   47.0440   33.0120   45.4000 N   0  0  0  0  0  0  0  0  0  0  0  0
   45.9470   33.6020   45.9270 C   0  0  0  0  0  0  0  0  0  0  0  0
   45.0930   34.2950   45.1450 N   0  0  0  0  0  0  0  0  0  0  0  0
   46.6150   33.9070   42.2150 H   0  0  0  0  0  0  0  0  0  0  0  0
   45.7730   33.5060   46.9740 H   0  0  0  0  0  0  0  0  0  0  0  0
   49.2730   33.3650   42.5600 C   0  0  2  0  0  0  0  0  0  0  0  0
   48.5070   32.4670   43.4660 C   0  0  2  0  0  0  0  0  0  0  0  0
   48.1830   31.4000   42.5770 O   0  0  0  0  0  0  0  0  0  0  0  0
   49.4180   31.0890   42.0370 C   0  0  0  0  0  0  0  0  0  0  0  0
   50.2760   32.3230   42.0210 C   0  0  1  0  0  0  0  0  0  0  0  0
   48.6960   33.6430   41.6360 H   0  0  0  0  0  0  0  0  0  0  0  0
   49.2190   32.0050   44.1980 H   0  0  0  0  0  0  0  0  0  0  0  0
   49.2730   30.7590   40.9870 H   0  0  0  0  0  0  0  0  0  0  0  0
   49.9040   30.3170   42.6420 H   0  0  0  0  0  0  0  0  0  0  0  0
   51.1400   32.2640   42.7140 H   0  0  0  0  0  0  0  0  0  0  0  0
   49.8590   34.4320   43.1700 O   0  0  0  0  0  0  0  0  0  0  0  0
   49.8690   35.2660   42.6450 H   0  0  0  0  0  0  0  0  0  0  0  0
   50.6780   32.7090   40.7460 O   0  0  0  0  0  0  0  0  0  0  0  0
   50.7350   33.6850   40.7420 H   0  0  0  0  0  0  0  0  0  0  0  0
   44.4190   35.1670   42.9250 C   0  0  0  0  0  0  0  0  0  0  0  0
   44.8160   35.1430   41.9010 H   0  0  0  0  0  0  0  0  0  0  0  0
   43.3980   34.7650   43.0280 H   0  0  0  0  0  0  0  0  0  0  0  0
   45.4430   37.4780   43.4110 C   0  0  0  0  0  0  0  0  0  0  0  0
   46.5350   37.0880   42.9210 O   0  0  0  0  0  0  0  0  0  0  0  0
   44.3950   36.5340   43.4320 N   0  0  0  0  0  0  0  0  0  0  0  0
   43.4860   36.8600   43.8680 H   0  0  0  0  0  0  0  0  0  0  0  0
   45.3700   40.1180   42.2370 H   0  0  0  0  0  0  0  0  0  0  0  0
   45.2360   39.9870   43.2500 N   0  0  0  0  0  0  0  0  0  0  0  0
   45.2430   38.8240   43.9340 C   0  0  0  0  0  0  0  0  0  0  0  0
   45.0280   39.1320   45.2260 N   0  0  0  0  0  0  0  0  0  0  0  0
   44.8840   40.4650   45.3770 C   0  0  0  0  0  0  0  0  0  0  0  0
   44.6500   41.1980   46.5240 C   0  0  0  0  0  0  0  0  0  0  0  0
   44.5560   42.5390   46.3260 N   0  0  0  0  0  0  0  0  0  0  0  0
   44.6780   43.1150   45.1200 C   0  0  0  0  0  0  0  0  0  0  0  0
   44.5960   44.1980   45.0000 H   0  0  0  0  0  0  0  0  0  0  0  0
   44.9070   42.3700   44.0060 N   0  0  0  0  0  0  0  0  0  0  0  0
   45.0160   41.0150   44.1190 C   0  0  0  0  0  0  0  0  0  0  0  0
   44.5190   40.5940   47.8120 N   0  0  0  0  0  0  0  0  0  0  0  0
   44.9080   39.6160   47.8910 H   0  0  0  0  0  0  0  0  0  0  0  0
   44.0500   41.1950   48.5300 H   0  0  0  0  0  0  0  0  0  0  0  0
  1  6  1  0  0  0  0
  2  1  2  0  0  0  0
  2  3  1  0  0  0  0
  3  4  2  0  0  0  0
  4  5  1  0  0  0  0
  5  8  1  0  0  0  0
  6  5  2  0  0  0  0
  7  2  1  0  0  0  0
  9 14  1  6  0  0  0
  9 19  1  0  0  0  0
  9 10  1  0  0  0  0
 10  3  1  0  0  0  0
 10 15  1  1  0  0  0
 11 10  1  0  0  0  0
 12 11  1  0  0  0  0
 12 17  1  0  0  0  0
 13 12  1  0  0  0  0
 13  9  1  0  0  0  0
 13 18  1  1  0  0  0
 16 12  1  0  0  0  0
 20 19  1  0  0  0  0
 21 13  1  0  0  0  0
 22 21  1  0  0  0  0
 23 25  1  0  0  0  0
 23 28  1  0  0  0  0
 23  1  1  0  0  0  0
 24 23  1  0  0  0  0
 26 28  1  0  0  0  0
 26 32  1  0  0  0  0
 27 26  2  0  0  0  0
 28 29  1  0  0  0  0
 30 31  1  0  0  0  0
 31 32  1  0  0  0  0
 31 40  1  0  0  0  0
 32 33  2  0  0  0  0
 33 34  1  0  0  0  0
 34 35  1  0  0  0  0
 35 41  1  0  0  0  0
 36 35  2  0  0  0  0
 37 36  1  0  0  0  0
 38 37  1  0  0  0  0
 39 40  1  0  0  0  0
 39 37  2  0  0  0  0
 40 34  2  0  0  0  0
 41 42  1  0  0  0  0
 41 43  1  0  0  0  0
M  END
>  <minimizedAffinity>
-2.99348903

>  <minimizedRMSD>
2.05842471

$$$$
