
 OpenBabel03242523193D

 42 46  0  0  0  0  0  0  0  0999 V2000
   44.4670   31.8740   42.7340 Cl  0  0  0  0  0  0  0  0  0  0  0  0
   44.5420   33.6330   42.6770 C   0  0  0  0  0  0  0  0  0  0  0  0
   45.3540   34.2310   43.6650 C   0  0  0  0  0  0  0  0  0  0  0  0
   45.3440   35.6120   43.5400 C   0  0  0  0  0  0  0  0  0  0  0  0
   44.7050   36.3890   42.6540 C   0  0  0  0  0  0  0  0  0  0  0  0
   43.9410   35.7330   41.7310 C   0  0  0  0  0  0  0  0  0  0  0  0
   43.8510   34.3870   41.7300 C   0  0  0  0  0  0  0  0  0  0  0  0
   45.9070   36.2430   44.2610 H   0  0  0  0  0  0  0  0  0  0  0  0
   44.7250   37.4560   42.5890 H   0  0  0  0  0  0  0  0  0  0  0  0
   43.3580   36.1930   40.9450 H   0  0  0  0  0  0  0  0  0  0  0  0
   43.0790   33.5720   40.8120 N   0  0  0  0  0  0  0  0  0  0  0  0
   43.5950   32.8520   39.7780 C   0  0  0  0  0  0  0  0  0  0  0  0
   44.6280   32.7680   39.4780 H   0  0  0  0  0  0  0  0  0  0  0  0
   42.5820   32.2140   39.1350 N   0  0  0  0  0  0  0  0  0  0  0  0
   41.4220   32.5340   39.7660 C   0  0  0  0  0  0  0  0  0  0  0  0
   40.1330   32.1310   39.4800 C   0  0  0  0  0  0  0  0  0  0  0  0
   39.1530   32.6190   40.2970 N   0  0  0  0  0  0  0  0  0  0  0  0
   39.4940   33.4490   41.3150 C   0  0  0  0  0  0  0  0  0  0  0  0
   38.6720   33.7970   41.9200 H   0  0  0  0  0  0  0  0  0  0  0  0
   40.7560   33.8440   41.5950 N   0  0  0  0  0  0  0  0  0  0  0  0
   41.7530   33.3780   40.8050 C   0  0  0  0  0  0  0  0  0  0  0  0
   39.8610   31.2450   38.3760 N   0  0  0  0  0  0  0  0  0  0  0  0
   39.7670   32.0000   37.6880 H   0  0  0  0  0  0  0  0  0  0  0  0
   39.9310   30.3680   38.9740 H   0  0  0  0  0  0  0  0  0  0  0  0
   46.1510   33.5340   44.7170 C   0  0  0  0  0  0  0  0  0  0  0  0
   45.5460   33.9280   45.6840 O   0  0  0  0  0  0  0  0  0  0  0  0
   47.2140   32.7600   44.0610 C   0  0  0  0  0  0  0  0  0  0  0  0
   48.1130   33.2310   43.1850 C   0  0  0  0  0  0  0  0  0  0  0  0
   48.9420   32.2660   42.6400 C   0  0  0  0  0  0  0  0  0  0  0  0
   48.7800   30.9270   43.0410 N   0  0  0  0  0  0  0  0  0  0  0  0
   47.8700   30.5480   43.9140 C   0  0  0  0  0  0  0  0  0  0  0  0
   47.0240   31.4790   44.4770 N   0  0  0  0  0  0  0  0  0  0  0  0
   49.7200   32.4390   41.9230 H   0  0  0  0  0  0  0  0  0  0  0  0
   47.8650   29.4850   44.1270 H   0  0  0  0  0  0  0  0  0  0  0  0
   48.3530   34.5930   42.8660 C   0  0  0  0  0  0  0  0  0  0  0  0
   49.4010   35.1310   42.1870 C   0  0  0  0  0  0  0  0  0  0  0  0
   48.1630   35.0070   41.3400 C   0  0  0  0  0  0  0  0  0  0  0  0
   47.9170   35.3130   43.5850 H   0  0  0  0  0  0  0  0  0  0  0  0
   50.2350   34.4660   41.8350 H   0  0  0  0  0  0  0  0  0  0  0  0
   49.7970   36.1780   42.2060 H   0  0  0  0  0  0  0  0  0  0  0  0
   47.5040   35.8810   41.1950 H   0  0  0  0  0  0  0  0  0  0  0  0
   48.0630   34.1270   40.6730 H   0  0  0  0  0  0  0  0  0  0  0  0
  2  1  1  0  0  0  0
  2  3  1  0  0  0  0
  3 25  1  0  0  0  0
  4  3  2  0  0  0  0
  4  8  1  0  0  0  0
  5  4  1  0  0  0  0
  6  5  2  0  0  0  0
  7  6  1  0  0  0  0
  7  2  2  0  0  0  0
  9  5  1  0  0  0  0
 10  6  1  0  0  0  0
 11  7  1  0  0  0  0
 12 11  1  0  0  0  0
 13 12  1  0  0  0  0
 14 15  1  0  0  0  0
 14 12  2  0  0  0  0
 15 21  1  0  0  0  0
 16 15  2  0  0  0  0
 16 17  1  0  0  0  0
 17 18  2  0  0  0  0
 18 20  1  0  0  0  0
 18 19  1  0  0  0  0
 21 11  1  0  0  0  0
 21 20  2  0  0  0  0
 22 24  1  0  0  0  0
 22 16  1  0  0  0  0
 23 22  1  0  0  0  0
 25 26  2  0  0  0  0
 27 32  1  0  0  0  0
 27 25  1  0  0  0  0
 28 27  2  0  0  0  0
 29 30  2  0  0  0  0
 29 28  1  0  0  0  0
 30 31  1  0  0  0  0
 31 34  1  0  0  0  0
 31 32  2  0  0  0  0
 33 29  1  0  0  0  0
 35 28  1  0  0  0  0
 35 38  1  0  0  0  0
 36 40  1  0  0  0  0
 36 35  1  0  0  0  0
 37 36  1  0  0  0  0
 37 35  1  0  0  0  0
 39 36  1  0  0  0  0
 41 37  1  0  0  0  0
 42 37  1  0  0  0  0
M  END
>  <minimizedAffinity>
-6.16028404

>  <minimizedRMSD>
0.747017264

$$$$
