
 OpenBabel03252504273D

 27 29  0  0  0  0  0  0  0  0999 V2000
   43.7930   35.6390   39.0310 H   0  0  0  0  0  0  0  0  0  0  0  0
   43.2260   35.2890   39.8390 N   0  0  0  0  0  0  0  0  0  0  0  0
   43.6890   35.0440   41.0780 C   0  0  0  0  0  0  0  0  0  0  0  0
   42.6780   34.6130   41.8290 N   0  0  0  0  0  0  0  0  0  0  0  0
   41.5490   34.5760   41.0830 C   0  0  0  0  0  0  0  0  0  0  0  0
   40.2300   34.2410   41.2540 C   0  0  0  0  0  0  0  0  0  0  0  0
   39.3410   34.3270   40.2540 N   0  0  0  0  0  0  0  0  0  0  0  0
   39.7170   34.7540   39.0160 C   0  0  0  0  0  0  0  0  0  0  0  0
   38.9110   34.7830   38.2900 H   0  0  0  0  0  0  0  0  0  0  0  0
   41.0050   35.0900   38.8210 N   0  0  0  0  0  0  0  0  0  0  0  0
   41.9080   35.0090   39.8160 C   0  0  0  0  0  0  0  0  0  0  0  0
   39.8320   33.7950   42.5350 N   0  0  0  0  0  0  0  0  0  0  0  0
   39.2510   34.6090   42.8880 H   0  0  0  0  0  0  0  0  0  0  0  0
   39.9020   33.0040   43.2080 H   0  0  0  0  0  0  0  0  0  0  0  0
   44.9900   35.1900   41.5680 O   0  0  0  0  0  0  0  0  0  0  0  0
   45.2080   35.7900   42.7980 C   0  0  0  0  0  0  0  0  0  0  0  0
   46.0180   36.5660   42.7220 H   0  0  0  0  0  0  0  0  0  0  0  0
   44.3080   36.3550   43.1210 H   0  0  0  0  0  0  0  0  0  0  0  0
   44.9260   34.9360   45.0310 C   0  0  0  0  0  0  0  0  0  0  0  0
   45.6360   34.8600   43.8470 C   0  0  0  0  0  0  0  0  0  0  0  0
   46.6590   33.9360   43.7670 C   0  0  0  0  0  0  0  0  0  0  0  0
   46.8970   33.1710   44.8500 N   0  0  0  0  0  0  0  0  0  0  0  0
   46.1940   33.2580   45.9950 C   0  0  0  0  0  0  0  0  0  0  0  0
   45.1630   34.1590   46.1360 N   0  0  0  0  0  0  0  0  0  0  0  0
   44.0960   35.6280   45.2100 H   0  0  0  0  0  0  0  0  0  0  0  0
   47.1920   33.8960   42.8470 H   0  0  0  0  0  0  0  0  0  0  0  0
   46.5270   32.5580   46.7680 H   0  0  0  0  0  0  0  0  0  0  0  0
  1  2  1  0  0  0  0
  2  3  1  0  0  0  0
  3 15  1  0  0  0  0
  3  4  2  0  0  0  0
  5  6  1  0  0  0  0
  5  4  1  0  0  0  0
  6 12  1  0  0  0  0
  7  6  2  0  0  0  0
  8  7  1  0  0  0  0
  9  8  1  0  0  0  0
 10  8  2  0  0  0  0
 10 11  1  0  0  0  0
 11  2  1  0  0  0  0
 11  5  2  0  0  0  0
 12 13  1  0  0  0  0
 12 14  1  0  0  0  0
 15 16  1  0  0  0  0
 16 18  1  0  0  0  0
 16 20  1  0  0  0  0
 17 16  1  0  0  0  0
 19 25  1  0  0  0  0
 19 24  1  0  0  0  0
 20 19  2  0  0  0  0
 21 20  1  0  0  0  0
 21 22  2  0  0  0  0
 22 23  1  0  0  0  0
 23 24  2  0  0  0  0
 23 27  1  0  0  0  0
 26 21  1  0  0  0  0
M  END
>  <minimizedAffinity>
-5.6629858

>  <minimizedRMSD>
2.97625613

$$$$
