
 OpenBabel03252505483D

 34 37  0  0  1  0  0  0  0  0999 V2000
   37.7360   29.8810   40.4550 C   0  0  0  0  0  0  0  0  0  0  0  0
   36.9060   30.1410   39.3230 C   0  0  0  0  0  0  0  0  0  0  0  0
   36.8680   31.4000   38.7400 C   0  0  0  0  0  0  0  0  0  0  0  0
   37.6600   32.3610   39.3090 N   0  0  0  0  0  0  0  0  0  0  0  0
   38.4410   32.0750   40.3950 C   0  0  0  0  0  0  0  0  0  0  0  0
   38.4730   30.8670   40.9470 N   0  0  0  0  0  0  0  0  0  0  0  0
   36.3020   29.3380   38.9180 H   0  0  0  0  0  0  0  0  0  0  0  0
   36.2630   31.6260   37.8980 H   0  0  0  0  0  0  0  0  0  0  0  0
   37.7130   28.5300   41.0320 C   0  0  1  0  0  0  0  0  0  0  0  0
   36.5310   28.3770   42.0560 C   0  0  1  0  0  0  0  0  0  0  0  0
   36.7150   27.5550   40.8030 C   0  0  0  0  0  0  0  0  0  0  0  0
   38.7050   28.2380   41.4790 H   0  0  0  0  0  0  0  0  0  0  0  0
   35.7800   29.1590   42.0950 H   0  0  0  0  0  0  0  0  0  0  0  0
   35.8940   27.7480   40.0510 H   0  0  0  0  0  0  0  0  0  0  0  0
   36.9010   26.4840   40.9080 H   0  0  0  0  0  0  0  0  0  0  0  0
   36.9090   27.6530   43.3230 C   0  0  0  0  0  0  0  0  0  0  0  0
   37.7780   26.6220   43.1240 F   0  0  0  0  0  0  0  0  0  0  0  0
   37.5310   28.5730   44.1940 F   0  0  0  0  0  0  0  0  0  0  0  0
   35.7780   27.2340   44.0070 F   0  0  0  0  0  0  0  0  0  0  0  0
   39.1880   33.1430   40.8690 O   0  0  0  0  0  0  0  0  0  0  0  0
   41.5970   33.1480   42.1600 H   0  0  0  0  0  0  0  0  0  0  0  0
   41.4840   33.3570   41.1260 N   0  0  0  0  0  0  0  0  0  0  0  0
   40.4210   33.4110   40.2940 C   0  0  0  0  0  0  0  0  0  0  0  0
   40.8940   33.7310   39.0610 N   0  0  0  0  0  0  0  0  0  0  0  0
   42.2340   33.8720   39.1310 C   0  0  0  0  0  0  0  0  0  0  0  0
   43.1390   34.1930   38.1330 C   0  0  0  0  0  0  0  0  0  0  0  0
   44.4540   34.2830   38.4270 N   0  0  0  0  0  0  0  0  0  0  0  0
   44.8200   34.0490   39.7210 C   0  0  0  0  0  0  0  0  0  0  0  0
   45.8600   34.0990   40.0530 H   0  0  0  0  0  0  0  0  0  0  0  0
   43.9390   33.7380   40.6890 N   0  0  0  0  0  0  0  0  0  0  0  0
   42.6120   33.6360   40.4430 C   0  0  0  0  0  0  0  0  0  0  0  0
   42.7040   34.4290   36.7920 N   0  0  0  0  0  0  0  0  0  0  0  0
   42.7120   33.8530   35.9030 H   0  0  0  0  0  0  0  0  0  0  0  0
   42.3260   35.4100   36.8660 H   0  0  0  0  0  0  0  0  0  0  0  0
  1  6  1  0  0  0  0
  1  9  1  0  0  0  0
  2  1  2  0  0  0  0
  3  4  2  0  0  0  0
  3  2  1  0  0  0  0
  4  5  1  0  0  0  0
  5 20  1  0  0  0  0
  5  6  2  0  0  0  0
  7  2  1  0  0  0  0
  8  3  1  0  0  0  0
  9 12  1  1  0  0  0
  9 10  1  0  0  0  0
 10 13  1  1  0  0  0
 10 16  1  0  0  0  0
 11 15  1  0  0  0  0
 11  9  1  0  0  0  0
 11 10  1  0  0  0  0
 14 11  1  0  0  0  0
 16 19  1  0  0  0  0
 16 18  1  0  0  0  0
 17 16  1  0  0  0  0
 22 21  1  0  0  0  0
 23 20  1  0  0  0  0
 23 22  1  0  0  0  0
 24 25  1  0  0  0  0
 24 23  2  0  0  0  0
 25 31  1  0  0  0  0
 26 27  1  0  0  0  0
 26 25  2  0  0  0  0
 27 28  2  0  0  0  0
 28 29  1  0  0  0  0
 28 30  1  0  0  0  0
 31 30  2  0  0  0  0
 31 22  1  0  0  0  0
 32 34  1  0  0  0  0
 32 26  1  0  0  0  0
 33 32  1  0  0  0  0
M  END
>  <minimizedAffinity>
-6.78447819

$$$$

 OpenBabel03252505483D

 34 37  0  0  1  0  0  0  0  0999 V2000
   37.4410   28.7160   42.1970 C   0  0  0  0  0  0  0  0  0  0  0  0
   36.2900   28.1050   41.6110 C   0  0  0  0  0  0  0  0  0  0  0  0
   35.4440   28.8280   40.7810 C   0  0  0  0  0  0  0  0  0  0  0  0
   35.7750   30.1390   40.5640 N   0  0  0  0  0  0  0  0  0  0  0  0
   36.8840   30.6900   41.1440 C   0  0  0  0  0  0  0  0  0  0  0  0
   37.6900   29.9910   41.9370 N   0  0  0  0  0  0  0  0  0  0  0  0
   36.0820   27.0630   41.8220 H   0  0  0  0  0  0  0  0  0  0  0  0
   34.5820   28.4050   40.3290 H   0  0  0  0  0  0  0  0  0  0  0  0
   38.2810   27.8970   43.0810 C   0  0  1  0  0  0  0  0  0  0  0  0
   39.2290   26.9620   42.2460 C   0  0  1  0  0  0  0  0  0  0  0  0
   39.6830   28.0170   43.2260 C   0  0  0  0  0  0  0  0  0  0  0  0
   37.6760   27.3240   43.8380 H   0  0  0  0  0  0  0  0  0  0  0  0
   39.3100   27.1330   41.1780 H   0  0  0  0  0  0  0  0  0  0  0  0
   40.2370   28.8560   42.7100 H   0  0  0  0  0  0  0  0  0  0  0  0
   40.2130   27.6970   44.1250 H   0  0  0  0  0  0  0  0  0  0  0  0
   39.3230   25.5550   42.7780 C   0  0  0  0  0  0  0  0  0  0  0  0
   38.1530   24.8580   42.6900 F   0  0  0  0  0  0  0  0  0  0  0  0
   40.2910   24.8560   42.0240 F   0  0  0  0  0  0  0  0  0  0  0  0
   39.8170   25.5480   44.0730 F   0  0  0  0  0  0  0  0  0  0  0  0
   37.0950   32.0260   40.8390 O   0  0  0  0  0  0  0  0  0  0  0  0
   39.1670   33.2230   42.1600 H   0  0  0  0  0  0  0  0  0  0  0  0
   39.1890   32.9840   41.1260 N   0  0  0  0  0  0  0  0  0  0  0  0
   38.3060   32.4070   40.2820 C   0  0  0  0  0  0  0  0  0  0  0  0
   38.8940   32.3640   39.0570 N   0  0  0  0  0  0  0  0  0  0  0  0
   40.1260   32.9070   39.1460 C   0  0  0  0  0  0  0  0  0  0  0  0
   41.0850   33.0800   38.1620 C   0  0  0  0  0  0  0  0  0  0  0  0
   42.2660   33.6560   38.4730 N   0  0  0  0  0  0  0  0  0  0  0  0
   42.4470   34.0440   39.7690 C   0  0  0  0  0  0  0  0  0  0  0  0
   43.3690   34.5180   40.1140 H   0  0  0  0  0  0  0  0  0  0  0  0
   41.5140   33.8750   40.7230 N   0  0  0  0  0  0  0  0  0  0  0  0
   40.3160   33.3040   40.4600 C   0  0  0  0  0  0  0  0  0  0  0  0
   40.8460   32.6560   36.8180 N   0  0  0  0  0  0  0  0  0  0  0  0
   41.1480   31.8180   36.2450 H   0  0  0  0  0  0  0  0  0  0  0  0
   40.2330   33.4350   36.4600 H   0  0  0  0  0  0  0  0  0  0  0  0
  1  9  1  0  0  0  0
  2  7  1  0  0  0  0
  2  1  2  0  0  0  0
  3  2  1  0  0  0  0
  4  3  2  0  0  0  0
  4  5  1  0  0  0  0
  5  6  2  0  0  0  0
  6  1  1  0  0  0  0
  8  3  1  0  0  0  0
  9 11  1  0  0  0  0
  9 12  1  1  0  0  0
 10 13  1  6  0  0  0
 10 16  1  0  0  0  0
 10  9  1  0  0  0  0
 10 11  1  0  0  0  0
 11 15  1  0  0  0  0
 14 11  1  0  0  0  0
 16 19  1  0  0  0  0
 17 16  1  0  0  0  0
 18 16  1  0  0  0  0
 20  5  1  0  0  0  0
 22 21  1  0  0  0  0
 23 20  1  0  0  0  0
 23 22  1  0  0  0  0
 24 25  1  0  0  0  0
 24 23  2  0  0  0  0
 25 31  1  0  0  0  0
 26 27  1  0  0  0  0
 26 25  2  0  0  0  0
 27 28  2  0  0  0  0
 28 29  1  0  0  0  0
 28 30  1  0  0  0  0
 31 30  2  0  0  0  0
 31 22  1  0  0  0  0
 32 26  1  0  0  0  0
 33 32  1  0  0  0  0
 34 32  1  0  0  0  0
M  END
>  <minimizedAffinity>
-6.40587902

$$$$

 OpenBabel03252505483D

 34 37  0  0  1  0  0  0  0  0999 V2000
   36.3750   29.0850   40.8820 C   0  0  0  0  0  0  0  0  0  0  0  0
   35.9890   28.8350   39.5300 C   0  0  0  0  0  0  0  0  0  0  0  0
   36.0670   29.8350   38.5700 C   0  0  0  0  0  0  0  0  0  0  0  0
   36.5270   31.0530   38.9920 N   0  0  0  0  0  0  0  0  0  0  0  0
   36.8860   31.2550   40.2960 C   0  0  0  0  0  0  0  0  0  0  0  0
   36.8100   30.2940   41.2100 N   0  0  0  0  0  0  0  0  0  0  0  0
   35.6320   27.8490   39.2590 H   0  0  0  0  0  0  0  0  0  0  0  0
   35.7890   29.6820   37.5570 H   0  0  0  0  0  0  0  0  0  0  0  0
   36.2490   27.9870   41.8500 C   0  0  1  0  0  0  0  0  0  0  0  0
   37.5920   27.1780   41.9600 C   0  0  1  0  0  0  0  0  0  0  0  0
   36.9140   27.9080   43.0950 C   0  0  0  0  0  0  0  0  0  0  0  0
   35.3670   27.3220   41.6310 H   0  0  0  0  0  0  0  0  0  0  0  0
   38.4800   27.5910   41.4940 H   0  0  0  0  0  0  0  0  0  0  0  0
   37.5350   28.7770   43.4640 H   0  0  0  0  0  0  0  0  0  0  0  0
   36.5310   27.3220   43.9330 H   0  0  0  0  0  0  0  0  0  0  0  0
   37.4040   25.6830   41.9970 C   0  0  0  0  0  0  0  0  0  0  0  0
   37.1490   25.1340   40.7750 F   0  0  0  0  0  0  0  0  0  0  0  0
   38.5900   25.0970   42.4890 F   0  0  0  0  0  0  0  0  0  0  0  0
   36.4310   25.3310   42.9200 F   0  0  0  0  0  0  0  0  0  0  0  0
   37.3300   32.5370   40.5830 O   0  0  0  0  0  0  0  0  0  0  0  0
   38.6030   33.3560   38.3070 H   0  0  0  0  0  0  0  0  0  0  0  0
   39.0940   33.2140   39.2370 N   0  0  0  0  0  0  0  0  0  0  0  0
   38.6810   32.8250   40.4630 C   0  0  0  0  0  0  0  0  0  0  0  0
   39.7730   32.8280   41.2720 N   0  0  0  0  0  0  0  0  0  0  0  0
   40.8470   33.2160   40.5530 C   0  0  0  0  0  0  0  0  0  0  0  0
   42.1650   33.3660   40.9510 C   0  0  0  0  0  0  0  0  0  0  0  0
   43.0920   33.7700   40.0550 N   0  0  0  0  0  0  0  0  0  0  0  0
   42.6640   34.0100   38.7820 C   0  0  0  0  0  0  0  0  0  0  0  0
   43.3400   34.3400   37.9900 H   0  0  0  0  0  0  0  0  0  0  0  0
   41.3830   33.8630   38.3980 N   0  0  0  0  0  0  0  0  0  0  0  0
   40.4190   33.4610   39.2580 C   0  0  0  0  0  0  0  0  0  0  0  0
   42.5630   33.1010   42.2980 N   0  0  0  0  0  0  0  0  0  0  0  0
   42.7780   33.7120   43.1360 H   0  0  0  0  0  0  0  0  0  0  0  0
   42.6060   32.0480   42.2990 H   0  0  0  0  0  0  0  0  0  0  0  0
  1  6  1  0  0  0  0
  1  9  1  0  0  0  0
  2  1  2  0  0  0  0
  3  4  2  0  0  0  0
  3  2  1  0  0  0  0
  4  5  1  0  0  0  0
  5 20  1  0  0  0  0
  5  6  2  0  0  0  0
  7  2  1  0  0  0  0
  8  3  1  0  0  0  0
  9 12  1  6  0  0  0
  9 10  1  0  0  0  0
  9 11  1  0  0  0  0
 10 13  1  6  0  0  0
 10 16  1  0  0  0  0
 10 11  1  0  0  0  0
 11 14  1  0  0  0  0
 11 15  1  0  0  0  0
 16 18  1  0  0  0  0
 16 19  1  0  0  0  0
 17 16  1  0  0  0  0
 21 22  1  0  0  0  0
 22 31  1  0  0  0  0
 22 23  1  0  0  0  0
 23 20  1  0  0  0  0
 23 24  2  0  0  0  0
 25 26  1  0  0  0  0
 25 24  1  0  0  0  0
 26 32  1  0  0  0  0
 27 26  2  0  0  0  0
 28 27  1  0  0  0  0
 29 28  1  0  0  0  0
 30 28  2  0  0  0  0
 30 31  1  0  0  0  0
 31 25  2  0  0  0  0
 32 34  1  0  0  0  0
 32 33  1  0  0  0  0
M  END
>  <minimizedAffinity>
-6.13744736

$$$$

 OpenBabel03252505483D

 34 37  0  0  1  0  0  0  0  0999 V2000
   36.6690   30.9880   40.2410 C   0  0  0  0  0  0  0  0  0  0  0  0
   36.2150   30.4690   38.9900 C   0  0  0  0  0  0  0  0  0  0  0  0
   35.8130   29.1450   38.8710 C   0  0  0  0  0  0  0  0  0  0  0  0
   35.8800   28.3820   40.0060 N   0  0  0  0  0  0  0  0  0  0  0  0
   36.3220   28.9140   41.1860 C   0  0  0  0  0  0  0  0  0  0  0  0
   36.7040   30.1820   41.2930 N   0  0  0  0  0  0  0  0  0  0  0  0
   36.1860   31.1240   38.1280 H   0  0  0  0  0  0  0  0  0  0  0  0
   35.4700   28.7290   37.9580 H   0  0  0  0  0  0  0  0  0  0  0  0
   37.0970   32.3920   40.2910 C   0  0  1  0  0  0  0  0  0  0  0  0
   38.4860   32.5820   39.5800 C   0  0  1  0  0  0  0  0  0  0  0  0
   37.1980   33.2610   39.1790 C   0  0  0  0  0  0  0  0  0  0  0  0
   37.0940   32.8040   41.3390 H   0  0  0  0  0  0  0  0  0  0  0  0
   38.8790   31.7600   38.9920 H   0  0  0  0  0  0  0  0  0  0  0  0
   36.8460   32.9230   38.1600 H   0  0  0  0  0  0  0  0  0  0  0  0
   37.1330   34.3470   39.2710 H   0  0  0  0  0  0  0  0  0  0  0  0
   39.4390   33.4760   40.3300 C   0  0  0  0  0  0  0  0  0  0  0  0
   38.8190   34.4540   41.0510 F   0  0  0  0  0  0  0  0  0  0  0  0
   40.1760   32.6820   41.2360 F   0  0  0  0  0  0  0  0  0  0  0  0
   40.3930   34.0070   39.4770 F   0  0  0  0  0  0  0  0  0  0  0  0
   36.3400   28.0270   42.2510 O   0  0  0  0  0  0  0  0  0  0  0  0
   38.6780   29.2590   42.9480 H   0  0  0  0  0  0  0  0  0  0  0  0
   38.5620   28.2050   42.8940 N   0  0  0  0  0  0  0  0  0  0  0  0
   37.5280   27.3930   42.5810 C   0  0  0  0  0  0  0  0  0  0  0  0
   37.9780   26.1160   42.6860 N   0  0  0  0  0  0  0  0  0  0  0  0
   39.2740   26.1380   43.0610 C   0  0  0  0  0  0  0  0  0  0  0  0
   40.1430   25.0850   43.2910 C   0  0  0  0  0  0  0  0  0  0  0  0
   41.4160   25.3380   43.6630 N   0  0  0  0  0  0  0  0  0  0  0  0
   41.7790   26.6480   43.7920 C   0  0  0  0  0  0  0  0  0  0  0  0
   42.7870   26.9490   44.0880 H   0  0  0  0  0  0  0  0  0  0  0  0
   40.9330   27.6690   43.5680 N   0  0  0  0  0  0  0  0  0  0  0  0
   39.6490   27.4660   43.1930 C   0  0  0  0  0  0  0  0  0  0  0  0
   39.7140   23.7300   43.1420 N   0  0  0  0  0  0  0  0  0  0  0  0
   39.4280   22.9690   43.8210 H   0  0  0  0  0  0  0  0  0  0  0  0
   39.7390   23.6180   42.0940 H   0  0  0  0  0  0  0  0  0  0  0  0
  1  9  1  0  0  0  0
  1  6  1  0  0  0  0
  2  1  2  0  0  0  0
  3  2  1  0  0  0  0
  3  4  2  0  0  0  0
  4  5  1  0  0  0  0
  5  6  2  0  0  0  0
  5 20  1  0  0  0  0
  7  2  1  0  0  0  0
  8  3  1  0  0  0  0
  9 12  1  1  0  0  0
 10 13  1  6  0  0  0
 10  9  1  0  0  0  0
 10 16  1  0  0  0  0
 11 15  1  0  0  0  0
 11 10  1  0  0  0  0
 11  9  1  0  0  0  0
 14 11  1  0  0  0  0
 16 17  1  0  0  0  0
 16 18  1  0  0  0  0
 19 16  1  0  0  0  0
 20 23  1  0  0  0  0
 22 21  1  0  0  0  0
 22 31  1  0  0  0  0
 23 24  2  0  0  0  0
 23 22  1  0  0  0  0
 24 25  1  0  0  0  0
 25 31  2  0  0  0  0
 25 26  1  0  0  0  0
 26 27  2  0  0  0  0
 27 28  1  0  0  0  0
 28 29  1  0  0  0  0
 30 28  2  0  0  0  0
 31 30  1  0  0  0  0
 32 26  1  0  0  0  0
 32 33  1  0  0  0  0
 34 32  1  0  0  0  0
M  END
>  <minimizedAffinity>
-6.11941814

$$$$

 OpenBabel03252505483D

 34 37  0  0  1  0  0  0  0  0999 V2000
   37.9280   25.0620   42.3000 C   0  0  0  0  0  0  0  0  0  0  0  0
   39.2010   24.6080   42.7590 C   0  0  0  0  0  0  0  0  0  0  0  0
   40.0060   25.4180   43.5490 C   0  0  0  0  0  0  0  0  0  0  0  0
   39.5120   26.6580   43.8530 N   0  0  0  0  0  0  0  0  0  0  0  0
   38.2880   27.0600   43.3940 C   0  0  0  0  0  0  0  0  0  0  0  0
   37.5220   26.2780   42.6390 N   0  0  0  0  0  0  0  0  0  0  0  0
   39.5360   23.6150   42.4830 H   0  0  0  0  0  0  0  0  0  0  0  0
   40.9560   25.1110   43.9070 H   0  0  0  0  0  0  0  0  0  0  0  0
   37.1370   24.1600   41.4530 C   0  0  1  0  0  0  0  0  0  0  0  0
   37.4160   24.4310   39.9300 C   0  0  1  0  0  0  0  0  0  0  0  0
   37.6590   23.1240   40.6450 C   0  0  0  0  0  0  0  0  0  0  0  0
   36.0380   24.1950   41.6980 H   0  0  0  0  0  0  0  0  0  0  0  0
   38.2480   25.0760   39.6670 H   0  0  0  0  0  0  0  0  0  0  0  0
   38.7590   22.8680   40.6880 H   0  0  0  0  0  0  0  0  0  0  0  0
   37.0700   22.2530   40.3480 H   0  0  0  0  0  0  0  0  0  0  0  0
   36.1760   24.4380   39.0730 C   0  0  0  0  0  0  0  0  0  0  0  0
   35.1350   23.7420   39.6130 F   0  0  0  0  0  0  0  0  0  0  0  0
   35.7550   25.7750   38.9080 F   0  0  0  0  0  0  0  0  0  0  0  0
   36.4620   24.0010   37.7890 F   0  0  0  0  0  0  0  0  0  0  0  0
   37.9160   28.3390   43.7770 O   0  0  0  0  0  0  0  0  0  0  0  0
   36.0150   29.0600   41.9510 H   0  0  0  0  0  0  0  0  0  0  0  0
   36.9500   29.5510   42.0500 N   0  0  0  0  0  0  0  0  0  0  0  0
   38.0180   29.3740   42.8590 C   0  0  0  0  0  0  0  0  0  0  0  0
   38.9360   30.3160   42.5210 N   0  0  0  0  0  0  0  0  0  0  0  0
   38.4410   31.0670   41.5150 C   0  0  0  0  0  0  0  0  0  0  0  0
   39.0160   32.1360   40.8490 C   0  0  0  0  0  0  0  0  0  0  0  0
   38.3350   32.7510   39.8580 N   0  0  0  0  0  0  0  0  0  0  0  0
   37.0920   32.2690   39.5650 C   0  0  0  0  0  0  0  0  0  0  0  0
   36.4670   32.7020   38.7810 H   0  0  0  0  0  0  0  0  0  0  0  0
   36.5360   31.2300   40.2140 N   0  0  0  0  0  0  0  0  0  0  0  0
   37.1790   30.5820   41.2120 C   0  0  0  0  0  0  0  0  0  0  0  0
   40.3220   32.6020   41.1940 N   0  0  0  0  0  0  0  0  0  0  0  0
   40.6860   33.4220   41.7580 H   0  0  0  0  0  0  0  0  0  0  0  0
   40.9320   31.8850   40.7200 H   0  0  0  0  0  0  0  0  0  0  0  0
  1  6  2  0  0  0  0
  1  2  1  0  0  0  0
  2  3  2  0  0  0  0
  3  4  1  0  0  0  0
  3  8  1  0  0  0  0
  5 20  1  0  0  0  0
  5  4  2  0  0  0  0
  6  5  1  0  0  0  0
  7  2  1  0  0  0  0
  9 12  1  1  0  0  0
  9  1  1  0  0  0  0
 10 13  1  6  0  0  0
 10 11  1  0  0  0  0
 10  9  1  0  0  0  0
 11 14  1  0  0  0  0
 11  9  1  0  0  0  0
 15 11  1  0  0  0  0
 16 17  1  0  0  0  0
 16 10  1  0  0  0  0
 18 16  1  0  0  0  0
 19 16  1  0  0  0  0
 21 22  1  0  0  0  0
 22 23  1  0  0  0  0
 23 20  1  0  0  0  0
 24 23  2  0  0  0  0
 25 24  1  0  0  0  0
 26 32  1  0  0  0  0
 26 25  2  0  0  0  0
 27 26  1  0  0  0  0
 28 27  2  0  0  0  0
 28 30  1  0  0  0  0
 29 28  1  0  0  0  0
 30 31  2  0  0  0  0
 31 25  1  0  0  0  0
 31 22  1  0  0  0  0
 32 33  1  0  0  0  0
 34 32  1  0  0  0  0
M  END
>  <minimizedAffinity>
-6.0860219

$$$$

 OpenBabel03252505483D

 34 37  0  0  1  0  0  0  0  0999 V2000
   40.5570   27.4420   43.4630 C   0  0  0  0  0  0  0  0  0  0  0  0
   41.7070   26.8660   44.0840 C   0  0  0  0  0  0  0  0  0  0  0  0
   42.9670   27.4240   43.9080 C   0  0  0  0  0  0  0  0  0  0  0  0
   43.0370   28.5380   43.1160 N   0  0  0  0  0  0  0  0  0  0  0  0
   41.9130   29.0600   42.5360 C   0  0  0  0  0  0  0  0  0  0  0  0
   40.7110   28.5220   42.7100 N   0  0  0  0  0  0  0  0  0  0  0  0
   41.5870   25.9840   44.6990 H   0  0  0  0  0  0  0  0  0  0  0  0
   43.8410   27.0210   44.3550 H   0  0  0  0  0  0  0  0  0  0  0  0
   39.2590   26.7900   43.6770 C   0  0  1  0  0  0  0  0  0  0  0  0
   38.2070   27.2710   42.6130 C   0  0  1  0  0  0  0  0  0  0  0  0
   38.6610   25.8440   42.8120 C   0  0  0  0  0  0  0  0  0  0  0  0
   38.8850   26.9150   44.7320 H   0  0  0  0  0  0  0  0  0  0  0  0
   38.5610   27.8460   41.7640 H   0  0  0  0  0  0  0  0  0  0  0  0
   39.2290   25.4570   41.9150 H   0  0  0  0  0  0  0  0  0  0  0  0
   37.9300   25.1100   43.1550 H   0  0  0  0  0  0  0  0  0  0  0  0
   36.8450   27.5640   43.1880 C   0  0  0  0  0  0  0  0  0  0  0  0
   36.8720   28.4280   44.2420 F   0  0  0  0  0  0  0  0  0  0  0  0
   36.0500   28.1470   42.1780 F   0  0  0  0  0  0  0  0  0  0  0  0
   36.1850   26.3890   43.5160 F   0  0  0  0  0  0  0  0  0  0  0  0
   42.1330   30.1870   41.7580 O   0  0  0  0  0  0  0  0  0  0  0  0
   40.2920   29.3090   39.9390 H   0  0  0  0  0  0  0  0  0  0  0  0
   40.2620   30.2700   40.3880 N   0  0  0  0  0  0  0  0  0  0  0  0
   41.0430   30.9050   41.2900 C   0  0  0  0  0  0  0  0  0  0  0  0
   40.5040   32.1360   41.4890 N   0  0  0  0  0  0  0  0  0  0  0  0
   39.4020   32.2590   40.7200 C   0  0  0  0  0  0  0  0  0  0  0  0
   38.5330   33.3300   40.5910 C   0  0  0  0  0  0  0  0  0  0  0  0
   37.4790   33.2380   39.7520 N   0  0  0  0  0  0  0  0  0  0  0  0
   37.3300   32.0680   39.0640 C   0  0  0  0  0  0  0  0  0  0  0  0
   36.5080   31.9020   38.3640 H   0  0  0  0  0  0  0  0  0  0  0  0
   38.1760   31.0300   39.1910 N   0  0  0  0  0  0  0  0  0  0  0  0
   39.2460   31.0740   40.0180 C   0  0  0  0  0  0  0  0  0  0  0  0
   38.7330   34.5340   41.3350 N   0  0  0  0  0  0  0  0  0  0  0  0
   38.2910   34.9430   42.2070 H   0  0  0  0  0  0  0  0  0  0  0  0
   39.5000   34.9960   40.7800 H   0  0  0  0  0  0  0  0  0  0  0  0
  1  9  1  0  0  0  0
  1  2  1  0  0  0  0
  2  7  1  0  0  0  0
  3  2  2  0  0  0  0
  3  8  1  0  0  0  0
  4  3  1  0  0  0  0
  5  6  1  0  0  0  0
  5  4  2  0  0  0  0
  6  1  2  0  0  0  0
  9 12  1  1  0  0  0
 10 13  1  6  0  0  0
 10 11  1  0  0  0  0
 10 16  1  0  0  0  0
 10  9  1  0  0  0  0
 11 15  1  0  0  0  0
 11  9  1  0  0  0  0
 14 11  1  0  0  0  0
 16 19  1  0  0  0  0
 16 17  1  0  0  0  0
 18 16  1  0  0  0  0
 20  5  1  0  0  0  0
 21 22  1  0  0  0  0
 22 23  1  0  0  0  0
 23 24  2  0  0  0  0
 23 20  1  0  0  0  0
 25 24  1  0  0  0  0
 26 25  1  0  0  0  0
 26 32  1  0  0  0  0
 27 26  2  0  0  0  0
 28 30  2  0  0  0  0
 28 27  1  0  0  0  0
 29 28  1  0  0  0  0
 30 31  1  0  0  0  0
 31 22  1  0  0  0  0
 31 25  2  0  0  0  0
 32 33  1  0  0  0  0
 34 32  1  0  0  0  0
M  END
>  <minimizedAffinity>
-6.03210402

$$$$

 OpenBabel03252505483D

 34 37  0  0  1  0  0  0  0  0999 V2000
   37.2280   28.8260   40.8660 C   0  0  0  0  0  0  0  0  0  0  0  0
   36.3780   29.8720   41.3360 C   0  0  0  0  0  0  0  0  0  0  0  0
   36.3750   31.1180   40.7230 C   0  0  0  0  0  0  0  0  0  0  0  0
   37.2230   31.2790   39.6600 N   0  0  0  0  0  0  0  0  0  0  0  0
   38.0240   30.2530   39.2390 C   0  0  0  0  0  0  0  0  0  0  0  0
   38.0210   29.0630   39.8300 N   0  0  0  0  0  0  0  0  0  0  0  0
   35.7290   29.6830   42.1820 H   0  0  0  0  0  0  0  0  0  0  0  0
   35.7550   31.9170   41.0470 H   0  0  0  0  0  0  0  0  0  0  0  0
   37.1940   27.5390   41.5730 C   0  0  1  0  0  0  0  0  0  0  0  0
   38.3010   27.4810   42.6870 C   0  0  1  0  0  0  0  0  0  0  0  0
   36.8150   27.3520   42.9230 C   0  0  0  0  0  0  0  0  0  0  0  0
   37.2510   26.6610   40.8700 H   0  0  0  0  0  0  0  0  0  0  0  0
   38.8200   28.3980   42.9440 H   0  0  0  0  0  0  0  0  0  0  0  0
   36.4100   28.2190   43.5240 H   0  0  0  0  0  0  0  0  0  0  0  0
   36.4300   26.4040   43.3020 H   0  0  0  0  0  0  0  0  0  0  0  0
   39.0440   26.1710   42.7430 C   0  0  0  0  0  0  0  0  0  0  0  0
   40.0730   26.0870   41.8530 F   0  0  0  0  0  0  0  0  0  0  0  0
   39.5880   26.0210   44.0380 F   0  0  0  0  0  0  0  0  0  0  0  0
   38.1710   25.1020   42.6070 F   0  0  0  0  0  0  0  0  0  0  0  0
   38.8330   30.5570   38.1550 O   0  0  0  0  0  0  0  0  0  0  0  0
   40.1890   30.9740   40.4920 H   0  0  0  0  0  0  0  0  0  0  0  0
   40.4220   31.4660   39.5810 N   0  0  0  0  0  0  0  0  0  0  0  0
   39.9030   31.4200   38.3340 C   0  0  0  0  0  0  0  0  0  0  0  0
   40.6230   32.2830   37.5700 N   0  0  0  0  0  0  0  0  0  0  0  0
   41.5750   32.8540   38.3370 C   0  0  0  0  0  0  0  0  0  0  0  0
   42.5370   33.7910   37.9950 C   0  0  0  0  0  0  0  0  0  0  0  0
   43.4020   34.2330   38.9320 N   0  0  0  0  0  0  0  0  0  0  0  0
   43.2730   33.7200   40.1910 C   0  0  0  0  0  0  0  0  0  0  0  0
   43.9270   34.0180   41.0140 H   0  0  0  0  0  0  0  0  0  0  0  0
   42.3380   32.8110   40.5200 N   0  0  0  0  0  0  0  0  0  0  0  0
   41.4490   32.3380   39.6170 C   0  0  0  0  0  0  0  0  0  0  0  0
   42.6300   34.2970   36.6620 N   0  0  0  0  0  0  0  0  0  0  0  0
   43.2700   34.0980   35.8410 H   0  0  0  0  0  0  0  0  0  0  0  0
   41.8400   34.9950   36.6490 H   0  0  0  0  0  0  0  0  0  0  0  0
  1  2  1  0  0  0  0
  1  9  1  0  0  0  0
  2  7  1  0  0  0  0
  3  8  1  0  0  0  0
  3  2  2  0  0  0  0
  4  3  1  0  0  0  0
  5  4  2  0  0  0  0
  5  6  1  0  0  0  0
  6  1  2  0  0  0  0
  9 12  1  6  0  0  0
  9 10  1  0  0  0  0
  9 11  1  0  0  0  0
 10 16  1  0  0  0  0
 10 11  1  0  0  0  0
 10 13  1  1  0  0  0
 11 15  1  0  0  0  0
 11 14  1  0  0  0  0
 16 18  1  0  0  0  0
 17 16  1  0  0  0  0
 19 16  1  0  0  0  0
 20 23  1  0  0  0  0
 20  5  1  0  0  0  0
 22 31  1  0  0  0  0
 22 21  1  0  0  0  0
 23 22  1  0  0  0  0
 24 23  2  0  0  0  0
 24 25  1  0  0  0  0
 25 31  1  0  0  0  0
 26 25  2  0  0  0  0
 26 27  1  0  0  0  0
 27 28  2  0  0  0  0
 28 30  1  0  0  0  0
 28 29  1  0  0  0  0
 31 30  2  0  0  0  0
 32 26  1  0  0  0  0
 33 32  1  0  0  0  0
 34 32  1  0  0  0  0
M  END
>  <minimizedAffinity>
-6.00889111

$$$$

 OpenBabel03252505483D

 34 37  0  0  1  0  0  0  0  0999 V2000
   37.5410   26.7670   42.0080 C   0  0  0  0  0  0  0  0  0  0  0  0
   36.8560   27.1830   43.1900 C   0  0  0  0  0  0  0  0  0  0  0  0
   37.2560   28.3180   43.8840 C   0  0  0  0  0  0  0  0  0  0  0  0
   38.3290   29.0000   43.3740 N   0  0  0  0  0  0  0  0  0  0  0  0
   38.9600   28.5690   42.2390 C   0  0  0  0  0  0  0  0  0  0  0  0
   38.5720   27.4820   41.5800 N   0  0  0  0  0  0  0  0  0  0  0  0
   36.0140   26.6010   43.5440 H   0  0  0  0  0  0  0  0  0  0  0  0
   36.7690   28.6560   44.7640 H   0  0  0  0  0  0  0  0  0  0  0  0
   37.0760   25.5470   41.3360 C   0  0  1  0  0  0  0  0  0  0  0  0
   38.2570   24.5280   41.1410 C   0  0  1  0  0  0  0  0  0  0  0  0
   36.9930   24.2640   41.9250 C   0  0  0  0  0  0  0  0  0  0  0  0
   36.5390   25.7670   40.3700 H   0  0  0  0  0  0  0  0  0  0  0  0
   39.1920   24.7210   41.6560 H   0  0  0  0  0  0  0  0  0  0  0  0
   37.2040   24.1300   43.0270 H   0  0  0  0  0  0  0  0  0  0  0  0
   36.3110   23.4910   41.5640 H   0  0  0  0  0  0  0  0  0  0  0  0
   38.2810   23.8730   39.7840 C   0  0  0  0  0  0  0  0  0  0  0  0
   37.2350   23.0270   39.5660 F   0  0  0  0  0  0  0  0  0  0  0  0
   38.2240   24.8840   38.8000 F   0  0  0  0  0  0  0  0  0  0  0  0
   39.4950   23.2400   39.5640 F   0  0  0  0  0  0  0  0  0  0  0  0
   40.0320   29.3530   41.8390 O   0  0  0  0  0  0  0  0  0  0  0  0
   41.9040   31.3210   41.5390 H   0  0  0  0  0  0  0  0  0  0  0  0
   40.8730   31.4520   41.3230 N   0  0  0  0  0  0  0  0  0  0  0  0
   39.7930   30.6430   41.3940 C   0  0  0  0  0  0  0  0  0  0  0  0
   38.7220   31.3710   40.9830 N   0  0  0  0  0  0  0  0  0  0  0  0
   39.1360   32.6150   40.6610 C   0  0  0  0  0  0  0  0  0  0  0  0
   38.4040   33.6950   40.1980 C   0  0  0  0  0  0  0  0  0  0  0  0
   39.0290   34.8630   39.9370 N   0  0  0  0  0  0  0  0  0  0  0  0
   40.3760   34.9110   40.1510 C   0  0  0  0  0  0  0  0  0  0  0  0
   40.9660   35.8120   39.9670 H   0  0  0  0  0  0  0  0  0  0  0  0
   41.0850   33.8600   40.6010 N   0  0  0  0  0  0  0  0  0  0  0  0
   40.5040   32.6700   40.8780 C   0  0  0  0  0  0  0  0  0  0  0  0
   36.9940   33.5940   39.9900 N   0  0  0  0  0  0  0  0  0  0  0  0
   36.3830   33.4690   39.1340 H   0  0  0  0  0  0  0  0  0  0  0  0
   36.6310   33.6780   40.9760 H   0  0  0  0  0  0  0  0  0  0  0  0
  1  2  1  0  0  0  0
  2  7  1  0  0  0  0
  2  3  2  0  0  0  0
  3  8  1  0  0  0  0
  4  3  1  0  0  0  0
  5  4  2  0  0  0  0
  6  1  2  0  0  0  0
  6  5  1  0  0  0  0
  9 12  1  6  0  0  0
  9 11  1  0  0  0  0
  9  1  1  0  0  0  0
 10  9  1  0  0  0  0
 10 13  1  1  0  0  0
 10 11  1  0  0  0  0
 11 14  1  0  0  0  0
 15 11  1  0  0  0  0
 16 10  1  0  0  0  0
 17 16  1  0  0  0  0
 18 16  1  0  0  0  0
 19 16  1  0  0  0  0
 20  5  1  0  0  0  0
 22 23  1  0  0  0  0
 22 21  1  0  0  0  0
 23 20  1  0  0  0  0
 24 23  2  0  0  0  0
 25 31  1  0  0  0  0
 25 24  1  0  0  0  0
 26 25  2  0  0  0  0
 27 28  2  0  0  0  0
 27 26  1  0  0  0  0
 28 30  1  0  0  0  0
 29 28  1  0  0  0  0
 30 31  2  0  0  0  0
 31 22  1  0  0  0  0
 32 26  1  0  0  0  0
 32 34  1  0  0  0  0
 33 32  1  0  0  0  0
M  END
>  <minimizedAffinity>
-6.00115108

$$$$

 OpenBabel03252505483D

 34 37  0  0  1  0  0  0  0  0999 V2000
   37.5700   28.9280   41.8150 C   0  0  0  0  0  0  0  0  0  0  0  0
   38.4210   29.4810   42.8190 C   0  0  0  0  0  0  0  0  0  0  0  0
   39.2220   30.5830   42.5460 C   0  0  0  0  0  0  0  0  0  0  0  0
   39.1470   31.0940   41.2790 N   0  0  0  0  0  0  0  0  0  0  0  0
   38.3210   30.5360   40.3430 C   0  0  0  0  0  0  0  0  0  0  0  0
   37.5560   29.4820   40.6110 N   0  0  0  0  0  0  0  0  0  0  0  0
   38.4360   29.0310   43.8030 H   0  0  0  0  0  0  0  0  0  0  0  0
   39.8650   31.0190   43.2690 H   0  0  0  0  0  0  0  0  0  0  0  0
   36.7640   27.7510   42.1660 C   0  0  1  0  0  0  0  0  0  0  0  0
   37.6820   26.5270   42.5240 C   0  0  1  0  0  0  0  0  0  0  0  0
   36.6770   27.1680   43.4510 C   0  0  0  0  0  0  0  0  0  0  0  0
   36.0060   27.4980   41.3720 H   0  0  0  0  0  0  0  0  0  0  0  0
   38.7440   26.7040   42.6590 H   0  0  0  0  0  0  0  0  0  0  0  0
   37.1780   27.6620   44.3350 H   0  0  0  0  0  0  0  0  0  0  0  0
   35.8180   26.5760   43.7750 H   0  0  0  0  0  0  0  0  0  0  0  0
   37.2200   25.2220   41.9300 C   0  0  0  0  0  0  0  0  0  0  0  0
   38.1930   24.2670   41.8840 F   0  0  0  0  0  0  0  0  0  0  0  0
   36.1670   24.7180   42.7250 F   0  0  0  0  0  0  0  0  0  0  0  0
   36.6500   25.4210   40.6830 F   0  0  0  0  0  0  0  0  0  0  0  0
   38.3480   31.1540   39.1020 O   0  0  0  0  0  0  0  0  0  0  0  0
   39.1610   33.6980   39.6830 H   0  0  0  0  0  0  0  0  0  0  0  0
   39.7210   33.0240   39.0840 N   0  0  0  0  0  0  0  0  0  0  0  0
   39.5230   31.7520   38.6740 C   0  0  0  0  0  0  0  0  0  0  0  0
   40.5950   31.4060   37.9150 N   0  0  0  0  0  0  0  0  0  0  0  0
   41.4460   32.4520   37.8580 C   0  0  0  0  0  0  0  0  0  0  0  0
   42.6620   32.5650   37.2050 C   0  0  0  0  0  0  0  0  0  0  0  0
   43.3580   33.7200   37.2810 N   0  0  0  0  0  0  0  0  0  0  0  0
   42.8070   34.7310   38.0140 C   0  0  0  0  0  0  0  0  0  0  0  0
   43.2960   35.7010   38.1320 H   0  0  0  0  0  0  0  0  0  0  0  0
   41.6250   34.6190   38.6470 N   0  0  0  0  0  0  0  0  0  0  0  0
   40.8920   33.4840   38.6000 C   0  0  0  0  0  0  0  0  0  0  0  0
   43.1950   31.4750   36.4500 N   0  0  0  0  0  0  0  0  0  0  0  0
   43.9440   30.7490   36.6330 H   0  0  0  0  0  0  0  0  0  0  0  0
   42.6300   31.5400   35.5630 H   0  0  0  0  0  0  0  0  0  0  0  0
  1  9  1  0  0  0  0
  1  2  1  0  0  0  0
  2  7  1  0  0  0  0
  3  2  2  0  0  0  0
  3  8  1  0  0  0  0
  4  3  1  0  0  0  0
  5  6  1  0  0  0  0
  5  4  2  0  0  0  0
  6  1  2  0  0  0  0
  9 12  1  6  0  0  0
  9 10  1  0  0  0  0
  9 11  1  0  0  0  0
 10 13  1  1  0  0  0
 10 11  1  0  0  0  0
 11 15  1  0  0  0  0
 11 14  1  0  0  0  0
 16 10  1  0  0  0  0
 16 18  1  0  0  0  0
 17 16  1  0  0  0  0
 19 16  1  0  0  0  0
 20  5  1  0  0  0  0
 22 21  1  0  0  0  0
 23 22  1  0  0  0  0
 23 20  1  0  0  0  0
 24 23  2  0  0  0  0
 25 24  1  0  0  0  0
 25 31  1  0  0  0  0
 26 27  1  0  0  0  0
 26 25  2  0  0  0  0
 27 28  2  0  0  0  0
 28 29  1  0  0  0  0
 28 30  1  0  0  0  0
 31 30  2  0  0  0  0
 31 22  1  0  0  0  0
 32 33  1  0  0  0  0
 32 26  1  0  0  0  0
 34 32  1  0  0  0  0
M  END
>  <minimizedAffinity>
-5.96533632

$$$$
