
 OpenBabel03252509313D

 32 34  0  0  0  0  0  0  0  0999 V2000
   47.4740   31.4470   43.3580 O   0  0  0  0  0  0  0  0  0  0  0  0
   46.8740   32.8150   43.5350 P   0  0  2  0  0  0  0  0  0  0  0  0
   48.0100   33.9800   43.9620 O   0  0  0  0  0  0  0  0  0  0  0  0
   48.8930   33.6190   44.2000 H   0  0  0  0  0  0  0  0  0  0  0  0
   45.7140   32.7460   44.7780 O   0  0  0  0  0  0  0  0  0  0  0  0
   46.4050   32.9550   45.9640 C   0  0  0  0  0  0  0  0  0  0  0  0
   46.2640   34.0360   46.2480 H   0  0  0  0  0  0  0  0  0  0  0  0
   47.5020   32.8370   45.8740 H   0  0  0  0  0  0  0  0  0  0  0  0
   45.2710   29.8670   47.7240 C   0  0  0  0  0  0  0  0  0  0  0  0
   45.7000   30.7280   46.6930 C   0  0  0  0  0  0  0  0  0  0  0  0
   45.9580   32.0410   47.0160 C   0  0  0  0  0  0  0  0  0  0  0  0
   45.7920   32.4590   48.3100 N   0  0  0  0  0  0  0  0  0  0  0  0
   45.3790   31.6020   49.2760 C   0  0  0  0  0  0  0  0  0  0  0  0
   45.1190   30.3180   48.9870 N   0  0  0  0  0  0  0  0  0  0  0  0
   45.0490   28.8240   47.5520 H   0  0  0  0  0  0  0  0  0  0  0  0
   45.8060   30.3110   45.6930 H   0  0  0  0  0  0  0  0  0  0  0  0
   45.2500   31.9450   50.2990 H   0  0  0  0  0  0  0  0  0  0  0  0
   46.0720   33.2180   42.1150 O   0  0  0  0  0  0  0  0  0  0  0  0
   48.6650   32.6210   41.1510 H   0  0  0  0  0  0  0  0  0  0  0  0
   47.8990   32.8600   40.4820 N   0  0  0  0  0  0  0  0  0  0  0  0
   46.6420   33.1560   40.8510 C   0  0  0  0  0  0  0  0  0  0  0  0
   45.9420   33.4080   39.7160 N   0  0  0  0  0  0  0  0  0  0  0  0
   46.7600   33.2680   38.6560 C   0  0  0  0  0  0  0  0  0  0  0  0
   46.6650   33.3810   37.2900 C   0  0  0  0  0  0  0  0  0  0  0  0
   47.6950   33.1740   36.4460 N   0  0  0  0  0  0  0  0  0  0  0  0
   48.9080   32.8330   36.9420 C   0  0  0  0  0  0  0  0  0  0  0  0
   49.8270   32.6340   36.4050 H   0  0  0  0  0  0  0  0  0  0  0  0
   49.0080   32.7210   38.2680 N   0  0  0  0  0  0  0  0  0  0  0  0
   48.0020   32.9200   39.1370 C   0  0  0  0  0  0  0  0  0  0  0  0
   45.4090   33.7380   36.7250 N   0  0  0  0  0  0  0  0  0  0  0  0
   44.6890   32.9730   36.7640 H   0  0  0  0  0  0  0  0  0  0  0  0
   44.7940   34.4480   36.2480 H   0  0  0  0  0  0  0  0  0  0  0  0
  2  1  2  6  0  0  0
  2  3  1  0  0  0  0
  2  5  1  0  0  0  0
  3  4  1  0  0  0  0
  5  6  1  0  0  0  0
  6  7  1  0  0  0  0
  6 11  1  0  0  0  0
  8  6  1  0  0  0  0
  9 14  1  0  0  0  0
 10 11  1  0  0  0  0
 10  9  2  0  0  0  0
 11 12  2  0  0  0  0
 12 13  1  0  0  0  0
 13 17  1  0  0  0  0
 14 13  2  0  0  0  0
 15  9  1  0  0  0  0
 16 10  1  0  0  0  0
 18  2  1  0  0  0  0
 20 21  1  0  0  0  0
 20 19  1  0  0  0  0
 21 18  1  0  0  0  0
 22 21  2  0  0  0  0
 23 29  1  0  0  0  0
 23 22  1  0  0  0  0
 24 23  2  0  0  0  0
 25 26  2  0  0  0  0
 25 24  1  0  0  0  0
 26 28  1  0  0  0  0
 27 26  1  0  0  0  0
 28 29  2  0  0  0  0
 29 20  1  0  0  0  0
 30 31  1  0  0  0  0
 30 24  1  0  0  0  0
 32 30  1  0  0  0  0
M  END
>  <minimizedAffinity>
-4.88908577

>  <minimizedRMSD>
5.56894875

$$$$
