
 OpenBabel03252502563D

 42 45  0  0  0  0  0  0  0  0999 V2000
   45.5890   29.9620   44.7630 Br  0  0  0  0  0  0  0  0  0  0  0  0
   45.6590   30.5980   46.5920 C   0  0  0  0  0  0  0  0  0  0  0  0
   46.3450   31.7560   46.7790 C   0  0  0  0  0  0  0  0  0  0  0  0
   46.3790   32.1910   48.1100 C   0  0  0  0  0  0  0  0  0  0  0  0
   45.7750   31.5160   49.1420 C   0  0  0  0  0  0  0  0  0  0  0  0
   45.1010   30.3550   48.8660 C   0  0  0  0  0  0  0  0  0  0  0  0
   45.0330   29.8740   47.5740 C   0  0  0  0  0  0  0  0  0  0  0  0
   46.8950   33.0970   48.3750 H   0  0  0  0  0  0  0  0  0  0  0  0
   45.8260   31.8890   50.1540 H   0  0  0  0  0  0  0  0  0  0  0  0
   44.6070   29.7800   49.6340 H   0  0  0  0  0  0  0  0  0  0  0  0
   47.0310   32.5690   45.7710 C   0  0  0  0  0  0  0  0  0  0  0  0
   47.9950   32.9080   46.1660 H   0  0  0  0  0  0  0  0  0  0  0  0
   47.2870   31.8700   44.9270 H   0  0  0  0  0  0  0  0  0  0  0  0
   44.5440   35.3160   45.3920 C   0  0  0  0  0  0  0  0  0  0  0  0
   44.7580   35.7240   44.0770 C   0  0  0  0  0  0  0  0  0  0  0  0
   45.7450   35.0580   43.3400 C   0  0  0  0  0  0  0  0  0  0  0  0
   46.4350   34.0640   43.9300 N   0  0  0  0  0  0  0  0  0  0  0  0
   46.2150   33.6750   45.2180 C   0  0  0  0  0  0  0  0  0  0  0  0
   45.2590   34.3270   45.9170 N   0  0  0  0  0  0  0  0  0  0  0  0
   43.7760   35.8400   45.9540 H   0  0  0  0  0  0  0  0  0  0  0  0
   44.2040   36.5230   43.6010 H   0  0  0  0  0  0  0  0  0  0  0  0
   45.9870   35.2930   42.3270 H   0  0  0  0  0  0  0  0  0  0  0  0
   44.3470   28.6930   47.3070 O   0  0  0  0  0  0  0  0  0  0  0  0
   44.1330   26.1270   46.9700 O   0  0  0  0  0  0  0  0  0  0  0  0
   44.8760   27.1640   47.7910 P   0  0  2  0  0  0  0  0  0  0  0  0
   44.5200   26.9930   49.4250 O   0  0  0  0  0  0  0  0  0  0  0  0
   45.2880   27.2970   49.9560 H   0  0  0  0  0  0  0  0  0  0  0  0
   46.5330   26.9640   47.5030 O   0  0  0  0  0  0  0  0  0  0  0  0
   46.2750   25.2520   49.7540 H   0  0  0  0  0  0  0  0  0  0  0  0
   47.1580   25.2690   49.2000 N   0  0  0  0  0  0  0  0  0  0  0  0
   47.3460   26.0580   48.1220 C   0  0  0  0  0  0  0  0  0  0  0  0
   48.5890   25.8300   47.6530 N   0  0  0  0  0  0  0  0  0  0  0  0
   49.1420   24.8960   48.4620 C   0  0  0  0  0  0  0  0  0  0  0  0
   50.4220   24.3390   48.3720 C   0  0  0  0  0  0  0  0  0  0  0  0
   50.7460   23.4190   49.3010 N   0  0  0  0  0  0  0  0  0  0  0  0
   49.8560   23.0750   50.2590 C   0  0  0  0  0  0  0  0  0  0  0  0
   50.2410   22.3300   50.9390 H   0  0  0  0  0  0  0  0  0  0  0  0
   48.6120   23.6140   50.3480 N   0  0  0  0  0  0  0  0  0  0  0  0
   48.2510   24.5270   49.4490 C   0  0  0  0  0  0  0  0  0  0  0  0
   51.3080   24.7570   47.3280 N   0  0  0  0  0  0  0  0  0  0  0  0
   52.1920   25.3190   47.4000 H   0  0  0  0  0  0  0  0  0  0  0  0
   51.1060   24.5000   46.3310 H   0  0  0  0  0  0  0  0  0  0  0  0
  1  2  1  0  0  0  0
  2  3  2  0  0  0  0
  2  7  1  0  0  0  0
  3  4  1  0  0  0  0
  4  8  1  0  0  0  0
  4  5  2  0  0  0  0
  5  9  1  0  0  0  0
  6  5  1  0  0  0  0
  6 10  1  0  0  0  0
  7  6  2  0  0  0  0
 11 12  1  0  0  0  0
 11  3  1  0  0  0  0
 13 11  1  0  0  0  0
 14 19  1  0  0  0  0
 14 20  1  0  0  0  0
 15 14  2  0  0  0  0
 16 17  2  0  0  0  0
 16 15  1  0  0  0  0
 17 18  1  0  0  0  0
 18 11  1  0  0  0  0
 18 19  2  0  0  0  0
 21 15  1  0  0  0  0
 22 16  1  0  0  0  0
 23  7  1  0  0  0  0
 23 25  1  0  0  0  0
 25 24  2  6  0  0  0
 25 26  1  0  0  0  0
 26 27  1  0  0  0  0
 28 25  1  0  0  0  0
 28 31  1  0  0  0  0
 30 39  1  0  0  0  0
 30 29  1  0  0  0  0
 31 30  1  0  0  0  0
 32 31  2  0  0  0  0
 32 33  1  0  0  0  0
 33 39  1  0  0  0  0
 34 33  2  0  0  0  0
 34 35  1  0  0  0  0
 35 36  2  0  0  0  0
 36 38  1  0  0  0  0
 36 37  1  0  0  0  0
 39 38  2  0  0  0  0
 40 41  1  0  0  0  0
 40 34  1  0  0  0  0
 42 40  1  0  0  0  0
M  END
>  <minimizedAffinity>
-5.70481205

>  <minimizedRMSD>
0.466674954

$$$$
