
 OpenBabel03252504233D

 37 41  0  0  0  0  0  0  0  0999 V2000
   47.6270   33.2650   40.2050 C   0  0  0  0  0  0  0  0  0  0  0  0
   48.9910   33.0110   40.3960 C   0  0  0  0  0  0  0  0  0  0  0  0
   49.5050   33.0820   41.7060 C   0  0  0  0  0  0  0  0  0  0  0  0
   48.6330   33.3960   42.7060 N   0  0  0  0  0  0  0  0  0  0  0  0
   47.3190   33.6350   42.4740 C   0  0  0  0  0  0  0  0  0  0  0  0
   46.8230   33.5680   41.2290 N   0  0  0  0  0  0  0  0  0  0  0  0
   46.4880   33.9530   43.5830 N   0  0  0  0  0  0  0  0  0  0  0  0
   45.5600   34.9410   43.6230 C   0  0  0  0  0  0  0  0  0  0  0  0
   44.9810   34.9190   44.8590 N   0  0  0  0  0  0  0  0  0  0  0  0
   45.5560   33.9340   45.5390 C   0  0  0  0  0  0  0  0  0  0  0  0
   45.3990   33.4370   46.8040 C   0  0  0  0  0  0  0  0  0  0  0  0
   46.1150   32.4140   47.2670 N   0  0  0  0  0  0  0  0  0  0  0  0
   47.0500   31.7960   46.5110 C   0  0  0  0  0  0  0  0  0  0  0  0
   47.2100   32.2770   45.2710 N   0  0  0  0  0  0  0  0  0  0  0  0
   46.5140   33.3020   44.7630 C   0  0  0  0  0  0  0  0  0  0  0  0
   49.6910   32.7630   39.6110 H   0  0  0  0  0  0  0  0  0  0  0  0
   50.5430   32.8980   41.9070 H   0  0  0  0  0  0  0  0  0  0  0  0
   45.2990   35.6430   42.8320 H   0  0  0  0  0  0  0  0  0  0  0  0
   47.6400   30.9620   46.8760 H   0  0  0  0  0  0  0  0  0  0  0  0
   44.4690   33.9620   47.7240 N   0  0  0  0  0  0  0  0  0  0  0  0
   44.8500   34.7880   48.2680 H   0  0  0  0  0  0  0  0  0  0  0  0
   43.5010   33.6580   47.9320 H   0  0  0  0  0  0  0  0  0  0  0  0
   47.0920   33.1440   38.4870 S   0  0  0  0  0  0  0  0  0  0  0  0
   44.5090   34.6770   39.2990 H   0  0  0  0  0  0  0  0  0  0  0  0
   44.3340   33.7900   38.7900 N   0  0  0  0  0  0  0  0  0  0  0  0
   45.3270   32.9920   38.3590 C   0  0  0  0  0  0  0  0  0  0  0  0
   44.7190   31.9440   37.7500 N   0  0  0  0  0  0  0  0  0  0  0  0
   43.4020   32.1030   37.8090 C   0  0  0  0  0  0  0  0  0  0  0  0
   42.3140   31.3800   37.3720 C   0  0  0  0  0  0  0  0  0  0  0  0
   41.0870   31.8460   37.6090 N   0  0  0  0  0  0  0  0  0  0  0  0
   40.8580   32.9960   38.2580 C   0  0  0  0  0  0  0  0  0  0  0  0
   39.8140   33.2830   38.3950 H   0  0  0  0  0  0  0  0  0  0  0  0
   41.8960   33.7420   38.7060 N   0  0  0  0  0  0  0  0  0  0  0  0
   43.1360   33.2820   38.4730 C   0  0  0  0  0  0  0  0  0  0  0  0
   42.4820   30.1660   36.6860 N   0  0  0  0  0  0  0  0  0  0  0  0
   43.3970   29.8610   36.2770 H   0  0  0  0  0  0  0  0  0  0  0  0
   41.6910   29.4940   36.5460 H   0  0  0  0  0  0  0  0  0  0  0  0
  1  2  2  0  0  0  0
  1  6  1  0  0  0  0
  2  3  1  0  0  0  0
  3 17  1  0  0  0  0
  3  4  2  0  0  0  0
  5  4  1  0  0  0  0
  5  7  1  0  0  0  0
  6  5  2  0  0  0  0
  7  8  1  0  0  0  0
  7 15  1  0  0  0  0
  8  9  2  0  0  0  0
  9 10  1  0  0  0  0
 10 11  1  0  0  0  0
 11 12  2  0  0  0  0
 11 20  1  0  0  0  0
 13 19  1  0  0  0  0
 13 12  1  0  0  0  0
 14 13  2  0  0  0  0
 15 14  1  0  0  0  0
 15 10  2  0  0  0  0
 16  2  1  0  0  0  0
 18  8  1  0  0  0  0
 20 22  1  0  0  0  0
 20 21  1  0  0  0  0
 23  1  1  0  0  0  0
 25 24  1  0  0  0  0
 26 23  1  0  0  0  0
 26 25  1  0  0  0  0
 27 28  1  0  0  0  0
 27 26  2  0  0  0  0
 28 34  1  0  0  0  0
 29 30  1  0  0  0  0
 29 28  2  0  0  0  0
 30 31  2  0  0  0  0
 31 32  1  0  0  0  0
 31 33  1  0  0  0  0
 34 33  2  0  0  0  0
 34 25  1  0  0  0  0
 35 29  1  0  0  0  0
 36 35  1  0  0  0  0
 37 35  1  0  0  0  0
M  END
>  <minimizedAffinity>
-6.47218609

>  <minimizedRMSD>
0.964643836

$$$$
