
 OpenBabel03242512553D

 34 36  0  0  0  0  0  0  0  0999 V2000
   38.6310   31.6300   39.1020 O   0  0  0  0  0  0  0  0  0  0  0  0
   38.1370   32.2670   40.3670 P   0  0  1  0  0  0  0  0  0  0  0  0
   36.7260   33.1440   40.0540 O   0  0  0  0  0  0  0  0  0  0  0  0
   36.4900   33.7340   40.8130 H   0  0  0  0  0  0  0  0  0  0  0  0
   37.8070   31.0210   41.4660 O   0  0  0  0  0  0  0  0  0  0  0  0
   38.9620   30.3980   41.8940 C   0  0  0  0  0  0  0  0  0  0  0  0
   39.1050   30.6880   42.9590 H   0  0  0  0  0  0  0  0  0  0  0  0
   39.8500   30.7970   41.3360 H   0  0  0  0  0  0  0  0  0  0  0  0
   38.4050   28.2040   42.8690 C   0  0  0  0  0  3  0  0  0  0  0  0
   38.8500   28.9300   41.8560 C   0  0  0  0  0  3  0  0  0  0  0  0
   38.3500   26.7650   42.7030 C   0  0  0  0  0  0  0  0  0  0  0  0
   37.1610   26.1810   42.2400 C   0  0  0  0  0  0  0  0  0  0  0  0
   37.0860   24.7850   42.0710 C   0  0  0  0  0  0  0  0  0  0  0  0
   38.1960   24.0620   42.3750 N   0  0  0  0  0  0  0  0  0  0  0  0
   39.3320   24.6390   42.8200 C   0  0  0  0  0  0  0  0  0  0  0  0
   39.3840   25.9630   42.9730 N   0  0  0  0  0  0  0  0  0  0  0  0
   36.2760   26.7310   41.9950 H   0  0  0  0  0  0  0  0  0  0  0  0
   36.1930   24.3070   41.7180 H   0  0  0  0  0  0  0  0  0  0  0  0
   40.1960   24.0030   43.0480 H   0  0  0  0  0  0  0  0  0  0  0  0
   39.3000   33.3420   40.9240 O   0  0  0  0  0  0  0  0  0  0  0  0
   41.7380   33.2390   42.1580 H   0  0  0  0  0  0  0  0  0  0  0  0
   41.6060   33.4470   41.1430 N   0  0  0  0  0  0  0  0  0  0  0  0
   40.5370   33.5550   40.3070 C   0  0  0  0  0  0  0  0  0  0  0  0
   40.9690   33.8480   39.0680 N   0  0  0  0  0  0  0  0  0  0  0  0
   42.3310   33.9290   39.1070 C   0  0  0  0  0  0  0  0  0  0  0  0
   43.1950   34.2080   38.0660 C   0  0  0  0  0  0  0  0  0  0  0  0
   44.4990   34.2240   38.3940 N   0  0  0  0  0  0  0  0  0  0  0  0
   44.9340   33.9850   39.6450 C   0  0  0  0  0  0  0  0  0  0  0  0
   45.9920   33.9990   39.9010 H   0  0  0  0  0  0  0  0  0  0  0  0
   44.0350   33.7200   40.6100 N   0  0  0  0  0  0  0  0  0  0  0  0
   42.7090   33.6760   40.4100 C   0  0  0  0  0  0  0  0  0  0  0  0
   42.7440   34.4600   36.7440 N   0  0  0  0  0  0  0  0  0  0  0  0
   42.0540   35.0900   36.3040 H   0  0  0  0  0  0  0  0  0  0  0  0
   43.2690   33.8310   36.1020 H   0  0  0  0  0  0  0  0  0  0  0  0
  2  1  2  6  0  0  0
  2 20  1  0  0  0  0
  2  5  1  0  0  0  0
  3  2  1  0  0  0  0
  3  4  1  0  0  0  0
  5  6  1  0  0  0  0
  6  7  1  0  0  0  0
  8  6  1  0  0  0  0
 10  6  1  0  0  0  0
 10  9  2  0  0  0  0
 11  9  1  0  0  0  0
 11 16  1  0  0  0  0
 12 11  2  0  0  0  0
 13 12  1  0  0  0  0
 13 14  2  0  0  0  0
 14 15  1  0  0  0  0
 15 16  2  0  0  0  0
 15 19  1  0  0  0  0
 17 12  1  0  0  0  0
 18 13  1  0  0  0  0
 22 21  1  0  0  0  0
 23 20  1  0  0  0  0
 23 22  1  0  0  0  0
 24 25  1  0  0  0  0
 24 23  2  0  0  0  0
 25 31  1  0  0  0  0
 26 27  1  0  0  0  0
 26 25  2  0  0  0  0
 27 28  2  0  0  0  0
 28 29  1  0  0  0  0
 28 30  1  0  0  0  0
 31 30  2  0  0  0  0
 31 22  1  0  0  0  0
 32 26  1  0  0  0  0
 33 32  1  0  0  0  0
 34 32  1  0  0  0  0
M  END
>  <minimizedAffinity>
-6.18203592

$$$$

 OpenBabel03242512553D

 34 36  0  0  0  0  0  0  0  0999 V2000
   35.0850   28.7860   40.0370 O   0  0  0  0  0  0  0  0  0  0  0  0
   36.1880   29.4920   40.7690 P   0  0  1  0  0  0  0  0  0  0  0  0
   35.6110   30.9430   41.4140 O   0  0  0  0  0  0  0  0  0  0  0  0
   36.3520   31.5220   41.7250 H   0  0  0  0  0  0  0  0  0  0  0  0
   36.7000   28.4700   42.0190 O   0  0  0  0  0  0  0  0  0  0  0  0
   37.4430   29.1500   42.9640 C   0  0  0  0  0  0  0  0  0  0  0  0
   36.9880   28.9190   43.9530 H   0  0  0  0  0  0  0  0  0  0  0  0
   37.3380   30.2570   42.8190 H   0  0  0  0  0  0  0  0  0  0  0  0
   39.1950   27.4640   43.3660 C   0  0  0  0  0  3  0  0  0  0  0  0
   38.8410   28.6890   43.0120 C   0  0  0  0  0  3  0  0  0  0  0  0
   40.6080   27.1400   43.3760 C   0  0  0  0  0  0  0  0  0  0  0  0
   40.9940   25.7900   43.3940 C   0  0  0  0  0  0  0  0  0  0  0  0
   42.3600   25.4540   43.4040 C   0  0  0  0  0  0  0  0  0  0  0  0
   43.2530   26.4780   43.3970 N   0  0  0  0  0  0  0  0  0  0  0  0
   42.8660   27.7710   43.3800 C   0  0  0  0  0  0  0  0  0  0  0  0
   41.5660   28.0710   43.3700 N   0  0  0  0  0  0  0  0  0  0  0  0
   40.3070   24.9690   43.4010 H   0  0  0  0  0  0  0  0  0  0  0  0
   42.6890   24.4320   43.4180 H   0  0  0  0  0  0  0  0  0  0  0  0
   43.6330   28.5550   43.3740 H   0  0  0  0  0  0  0  0  0  0  0  0
   37.4120   29.8600   39.6810 O   0  0  0  0  0  0  0  0  0  0  0  0
   39.5460   30.4280   38.0680 H   0  0  0  0  0  0  0  0  0  0  0  0
   39.1900   31.0690   38.8120 N   0  0  0  0  0  0  0  0  0  0  0  0
   38.1800   31.0290   39.7220 C   0  0  0  0  0  0  0  0  0  0  0  0
   38.1880   32.1630   40.4460 N   0  0  0  0  0  0  0  0  0  0  0  0
   39.2140   32.9410   39.9940 C   0  0  0  0  0  0  0  0  0  0  0  0
   39.5940   34.1900   40.4450 C   0  0  0  0  0  0  0  0  0  0  0  0
   40.6510   34.7290   39.8120 N   0  0  0  0  0  0  0  0  0  0  0  0
   41.2930   34.1000   38.8110 C   0  0  0  0  0  0  0  0  0  0  0  0
   42.1480   34.5440   38.3030 H   0  0  0  0  0  0  0  0  0  0  0  0
   40.8670   32.8840   38.4220 N   0  0  0  0  0  0  0  0  0  0  0  0
   39.8270   32.2420   38.9750 C   0  0  0  0  0  0  0  0  0  0  0  0
   38.9210   34.8600   41.5000 N   0  0  0  0  0  0  0  0  0  0  0  0
   38.6410   34.6270   42.4660 H   0  0  0  0  0  0  0  0  0  0  0  0
   38.6730   35.8140   41.1650 H   0  0  0  0  0  0  0  0  0  0  0  0
  2  1  2  6  0  0  0
  2  3  1  0  0  0  0
  2  5  1  0  0  0  0
  3  4  1  0  0  0  0
  5  6  1  0  0  0  0
  6 10  1  0  0  0  0
  6  7  1  0  0  0  0
  8  6  1  0  0  0  0
  9 11  1  0  0  0  0
 10  9  2  0  0  0  0
 11 12  1  0  0  0  0
 12 17  1  0  0  0  0
 12 13  2  0  0  0  0
 13 18  1  0  0  0  0
 14 13  1  0  0  0  0
 15 14  2  0  0  0  0
 16 11  2  0  0  0  0
 16 15  1  0  0  0  0
 19 15  1  0  0  0  0
 20 23  1  0  0  0  0
 20  2  1  0  0  0  0
 21 22  1  0  0  0  0
 22 31  1  0  0  0  0
 22 23  1  0  0  0  0
 23 24  2  0  0  0  0
 25 26  1  0  0  0  0
 25 24  1  0  0  0  0
 26 32  1  0  0  0  0
 27 26  2  0  0  0  0
 28 27  1  0  0  0  0
 29 28  1  0  0  0  0
 30 28  2  0  0  0  0
 30 31  1  0  0  0  0
 31 25  2  0  0  0  0
 32 33  1  0  0  0  0
 34 32  1  0  0  0  0
M  END
>  <minimizedAffinity>
-5.91918659

$$$$

 OpenBabel03242512553D

 34 36  0  0  0  0  0  0  0  0999 V2000
   37.1400   30.1370   39.4870 O   0  0  0  0  0  0  0  0  0  0  0  0
   37.1220   30.9550   40.7450 P   0  0  1  0  0  0  0  0  0  0  0  0
   35.5760   30.9230   41.4270 O   0  0  0  0  0  0  0  0  0  0  0  0
   35.4780   31.6070   42.1360 H   0  0  0  0  0  0  0  0  0  0  0  0
   38.2360   30.2610   41.8150 O   0  0  0  0  0  0  0  0  0  0  0  0
   37.6270   29.3760   42.6840 C   0  0  0  0  0  0  0  0  0  0  0  0
   36.5300   29.5210   42.5690 H   0  0  0  0  0  0  0  0  0  0  0  0
   37.8720   29.6420   43.7460 H   0  0  0  0  0  0  0  0  0  0  0  0
   37.0540   27.1760   41.7330 C   0  0  0  0  0  3  0  0  0  0  0  0
   37.9160   27.9720   42.3430 C   0  0  0  0  0  3  0  0  0  0  0  0
   37.4620   25.8120   41.4590 C   0  0  0  0  0  0  0  0  0  0  0  0
   36.6800   25.0310   40.5940 C   0  0  0  0  0  0  0  0  0  0  0  0
   37.0590   23.7040   40.3140 C   0  0  0  0  0  0  0  0  0  0  0  0
   38.1870   23.2410   40.9130 N   0  0  0  0  0  0  0  0  0  0  0  0
   38.9280   24.0040   41.7440 C   0  0  0  0  0  0  0  0  0  0  0  0
   38.5530   25.2590   41.9960 N   0  0  0  0  0  0  0  0  0  0  0  0
   35.7890   25.3760   40.1120 H   0  0  0  0  0  0  0  0  0  0  0  0
   36.4840   23.0810   39.6570 H   0  0  0  0  0  0  0  0  0  0  0  0
   39.8290   23.5740   42.1970 H   0  0  0  0  0  0  0  0  0  0  0  0
   37.4860   32.5480   40.3620 O   0  0  0  0  0  0  0  0  0  0  0  0
   38.7240   31.7100   38.0720 H   0  0  0  0  0  0  0  0  0  0  0  0
   39.1280   32.4130   38.7320 N   0  0  0  0  0  0  0  0  0  0  0  0
   38.7320   32.9840   39.9010 C   0  0  0  0  0  0  0  0  0  0  0  0
   39.6760   33.8470   40.3170 N   0  0  0  0  0  0  0  0  0  0  0  0
   40.6910   33.8300   39.4050 C   0  0  0  0  0  0  0  0  0  0  0  0
   41.8640   34.5580   39.4270 C   0  0  0  0  0  0  0  0  0  0  0  0
   42.6920   34.3410   38.3890 N   0  0  0  0  0  0  0  0  0  0  0  0
   42.4000   33.4770   37.4000 C   0  0  0  0  0  0  0  0  0  0  0  0
   43.0760   33.3070   36.5630 H   0  0  0  0  0  0  0  0  0  0  0  0
   41.2380   32.8010   37.4430 N   0  0  0  0  0  0  0  0  0  0  0  0
   40.3310   32.9290   38.4230 C   0  0  0  0  0  0  0  0  0  0  0  0
   42.1780   35.4720   40.4660 N   0  0  0  0  0  0  0  0  0  0  0  0
   42.2130   35.4370   41.4980 H   0  0  0  0  0  0  0  0  0  0  0  0
   42.4280   36.3820   40.0270 H   0  0  0  0  0  0  0  0  0  0  0  0
  2  1  2  6  0  0  0
  2  3  1  0  0  0  0
  2  5  1  0  0  0  0
  3  4  1  0  0  0  0
  5  6  1  0  0  0  0
  6  8  1  0  0  0  0
  7  6  1  0  0  0  0
  9 10  2  0  0  0  0
 10  6  1  0  0  0  0
 11  9  1  0  0  0  0
 11 16  1  0  0  0  0
 12 11  2  0  0  0  0
 13 12  1  0  0  0  0
 13 14  2  0  0  0  0
 14 15  1  0  0  0  0
 15 16  2  0  0  0  0
 15 19  1  0  0  0  0
 17 12  1  0  0  0  0
 18 13  1  0  0  0  0
 20  2  1  0  0  0  0
 21 22  1  0  0  0  0
 22 23  1  0  0  0  0
 23 24  2  0  0  0  0
 23 20  1  0  0  0  0
 25 26  1  0  0  0  0
 25 24  1  0  0  0  0
 26 32  1  0  0  0  0
 27 26  2  0  0  0  0
 28 30  2  0  0  0  0
 28 27  1  0  0  0  0
 29 28  1  0  0  0  0
 30 31  1  0  0  0  0
 31 22  1  0  0  0  0
 31 25  2  0  0  0  0
 32 33  1  0  0  0  0
 34 32  1  0  0  0  0
M  END
>  <minimizedAffinity>
-5.88814735

$$$$

 OpenBabel03242512553D

 34 36  0  0  0  0  0  0  0  0999 V2000
   36.8770   30.5920   38.8260 O   0  0  0  0  0  0  0  0  0  0  0  0
   36.9370   30.9900   40.2710 P   0  0  1  0  0  0  0  0  0  0  0  0
   36.6570   32.6510   40.4190 O   0  0  0  0  0  0  0  0  0  0  0  0
   36.8870   32.9780   41.3250 H   0  0  0  0  0  0  0  0  0  0  0  0
   35.7250   30.1290   41.0830 O   0  0  0  0  0  0  0  0  0  0  0  0
   35.5510   28.8670   40.5510 C   0  0  0  0  0  0  0  0  0  0  0  0
   35.6940   28.9620   39.4520 H   0  0  0  0  0  0  0  0  0  0  0  0
   34.4950   28.5220   40.7040 H   0  0  0  0  0  0  0  0  0  0  0  0
   36.7420   27.6260   42.3160 C   0  0  0  0  0  3  0  0  0  0  0  0
   36.5630   27.9130   41.0380 C   0  0  0  0  0  3  0  0  0  0  0  0
   37.7780   26.6710   42.6620 C   0  0  0  0  0  0  0  0  0  0  0  0
   37.6870   25.3630   42.1620 C   0  0  0  0  0  0  0  0  0  0  0  0
   38.6820   24.4210   42.4840 C   0  0  0  0  0  0  0  0  0  0  0  0
   39.7000   24.8400   43.2810 N   0  0  0  0  0  0  0  0  0  0  0  0
   39.7730   26.1010   43.7540 C   0  0  0  0  0  0  0  0  0  0  0  0
   38.8200   26.9800   43.4380 N   0  0  0  0  0  0  0  0  0  0  0  0
   36.8940   25.0120   41.5340 H   0  0  0  0  0  0  0  0  0  0  0  0
   38.6430   23.4130   42.1190 H   0  0  0  0  0  0  0  0  0  0  0  0
   40.6190   26.3800   44.3930 H   0  0  0  0  0  0  0  0  0  0  0  0
   38.4750   30.6710   40.8600 O   0  0  0  0  0  0  0  0  0  0  0  0
   39.1320   32.0600   38.5980 H   0  0  0  0  0  0  0  0  0  0  0  0
   39.6770   32.1030   39.4880 N   0  0  0  0  0  0  0  0  0  0  0  0
   39.5700   31.5310   40.7180 C   0  0  0  0  0  0  0  0  0  0  0  0
   40.5790   31.9580   41.4980 N   0  0  0  0  0  0  0  0  0  0  0  0
   41.3430   32.8160   40.7610 C   0  0  0  0  0  0  0  0  0  0  0  0
   42.4800   33.4930   41.1570 C   0  0  0  0  0  0  0  0  0  0  0  0
   43.0350   34.2780   40.2160 N   0  0  0  0  0  0  0  0  0  0  0  0
   42.5200   34.3970   38.9780 C   0  0  0  0  0  0  0  0  0  0  0  0
   42.9760   35.0360   38.2220 H   0  0  0  0  0  0  0  0  0  0  0  0
   41.4090   33.7080   38.6620 N   0  0  0  0  0  0  0  0  0  0  0  0
   40.7650   32.8930   39.5100 C   0  0  0  0  0  0  0  0  0  0  0  0
   43.0270   33.3720   42.4600 N   0  0  0  0  0  0  0  0  0  0  0  0
   43.3110   32.5930   43.0760 H   0  0  0  0  0  0  0  0  0  0  0  0
   43.1560   34.3320   42.8430 H   0  0  0  0  0  0  0  0  0  0  0  0
  2  1  2  6  0  0  0
  2  3  1  0  0  0  0
  2 20  1  0  0  0  0
  2  5  1  0  0  0  0
  3  4  1  0  0  0  0
  6  8  1  0  0  0  0
  6 10  1  0  0  0  0
  6  5  1  0  0  0  0
  7  6  1  0  0  0  0
  9 11  1  0  0  0  0
 10  9  2  0  0  0  0
 11 16  1  0  0  0  0
 12 13  1  0  0  0  0
 12 11  2  0  0  0  0
 13 14  2  0  0  0  0
 14 15  1  0  0  0  0
 15 19  1  0  0  0  0
 16 15  2  0  0  0  0
 17 12  1  0  0  0  0
 18 13  1  0  0  0  0
 21 22  1  0  0  0  0
 22 31  1  0  0  0  0
 22 23  1  0  0  0  0
 23 20  1  0  0  0  0
 23 24  2  0  0  0  0
 25 26  1  0  0  0  0
 25 24  1  0  0  0  0
 26 32  1  0  0  0  0
 27 26  2  0  0  0  0
 28 27  1  0  0  0  0
 29 28  1  0  0  0  0
 30 28  2  0  0  0  0
 30 31  1  0  0  0  0
 31 25  2  0  0  0  0
 32 34  1  0  0  0  0
 32 33  1  0  0  0  0
M  END
>  <minimizedAffinity>
-5.84450531

$$$$

 OpenBabel03242512553D

 34 36  0  0  0  0  0  0  0  0999 V2000
   38.9400   35.3510   40.3500 O   0  0  0  0  0  0  0  0  0  0  0  0
   38.8470   33.8600   40.2120 P   0  0  1  0  0  0  0  0  0  0  0  0
   39.2970   33.1220   41.6640 O   0  0  0  0  0  0  0  0  0  0  0  0
   39.4400   32.1490   41.5470 H   0  0  0  0  0  0  0  0  0  0  0  0
   37.2350   33.4860   39.8530 O   0  0  0  0  0  0  0  0  0  0  0  0
   37.1310   32.3090   39.1380 C   0  0  0  0  0  0  0  0  0  0  0  0
   37.9160   32.3440   38.3500 H   0  0  0  0  0  0  0  0  0  0  0  0
   36.1470   32.2640   38.6020 H   0  0  0  0  0  0  0  0  0  0  0  0
   36.6480   30.7540   40.9890 C   0  0  0  0  0  3  0  0  0  0  0  0
   37.4060   31.1250   39.9700 C   0  0  0  0  0  3  0  0  0  0  0  0
   37.0350   29.5700   41.7310 C   0  0  0  0  0  0  0  0  0  0  0  0
   38.1940   29.6140   42.5220 C   0  0  0  0  0  0  0  0  0  0  0  0
   38.5870   28.4760   43.2500 C   0  0  0  0  0  0  0  0  0  0  0  0
   37.8050   27.3700   43.1450 N   0  0  0  0  0  0  0  0  0  0  0  0
   36.6940   27.3430   42.3790 C   0  0  0  0  0  0  0  0  0  0  0  0
   36.3370   28.4320   41.6960 N   0  0  0  0  0  0  0  0  0  0  0  0
   38.8240   30.4750   42.6190 H   0  0  0  0  0  0  0  0  0  0  0  0
   39.4670   28.4770   43.8650 H   0  0  0  0  0  0  0  0  0  0  0  0
   36.1030   26.4200   42.3340 H   0  0  0  0  0  0  0  0  0  0  0  0
   39.9180   33.3570   39.0220 O   0  0  0  0  0  0  0  0  0  0  0  0
   41.3770   34.0020   41.2440 H   0  0  0  0  0  0  0  0  0  0  0  0
   41.7860   33.8880   40.2890 N   0  0  0  0  0  0  0  0  0  0  0  0
   41.2990   33.5800   39.0570 C   0  0  0  0  0  0  0  0  0  0  0  0
   42.3080   33.5720   38.1680 N   0  0  0  0  0  0  0  0  0  0  0  0
   43.4580   33.8780   38.8370 C   0  0  0  0  0  0  0  0  0  0  0  0
   44.7360   33.9810   38.3250 C   0  0  0  0  0  0  0  0  0  0  0  0
   45.6880   34.2990   39.2210 N   0  0  0  0  0  0  0  0  0  0  0  0
   45.4160   34.5000   40.5230 C   0  0  0  0  0  0  0  0  0  0  0  0
   46.1940   34.7560   41.2430 H   0  0  0  0  0  0  0  0  0  0  0  0
   44.1470   34.3810   40.9530 N   0  0  0  0  0  0  0  0  0  0  0  0
   43.1120   34.0710   40.1590 C   0  0  0  0  0  0  0  0  0  0  0  0
   45.0300   33.7700   36.9530 N   0  0  0  0  0  0  0  0  0  0  0  0
   44.6700   34.1290   36.0540 H   0  0  0  0  0  0  0  0  0  0  0  0
   45.8040   33.0760   36.8950 H   0  0  0  0  0  0  0  0  0  0  0  0
  2  1  2  1  0  0  0
  2  3  1  0  0  0  0
  4  3  1  0  0  0  0
  5  2  1  0  0  0  0
  6  5  1  0  0  0  0
  6 10  1  0  0  0  0
  7  6  1  0  0  0  0
  8  6  1  0  0  0  0
  9 11  1  0  0  0  0
 10  9  2  0  0  0  0
 11 12  1  0  0  0  0
 12 17  1  0  0  0  0
 12 13  2  0  0  0  0
 13 18  1  0  0  0  0
 14 13  1  0  0  0  0
 15 14  2  0  0  0  0
 16 11  2  0  0  0  0
 16 15  1  0  0  0  0
 19 15  1  0  0  0  0
 20 23  1  0  0  0  0
 20  2  1  0  0  0  0
 22 21  1  0  0  0  0
 23 22  1  0  0  0  0
 24 25  1  0  0  0  0
 24 23  2  0  0  0  0
 25 31  1  0  0  0  0
 26 25  2  0  0  0  0
 26 27  1  0  0  0  0
 27 28  2  0  0  0  0
 28 30  1  0  0  0  0
 28 29  1  0  0  0  0
 31 22  1  0  0  0  0
 31 30  2  0  0  0  0
 32 26  1  0  0  0  0
 33 32  1  0  0  0  0
 34 32  1  0  0  0  0
M  END
>  <minimizedAffinity>
-5.81372881

$$$$

 OpenBabel03242512553D

 34 36  0  0  0  0  0  0  0  0999 V2000
   36.9310   34.2780   39.1750 O   0  0  0  0  0  0  0  0  0  0  0  0
   37.7910   33.1790   39.7260 P   0  0  1  0  0  0  0  0  0  0  0  0
   38.7870   32.5640   38.5060 O   0  0  0  0  0  0  0  0  0  0  0  0
   39.2150   31.7150   38.7810 H   0  0  0  0  0  0  0  0  0  0  0  0
   38.7390   33.8490   40.9590 O   0  0  0  0  0  0  0  0  0  0  0  0
   39.2290   35.0920   40.6090 C   0  0  0  0  0  0  0  0  0  0  0  0
   38.8380   35.8120   41.3620 H   0  0  0  0  0  0  0  0  0  0  0  0
   38.8090   35.4110   39.6190 H   0  0  0  0  0  0  0  0  0  0  0  0
   41.4820   34.1020   40.4910 C   0  0  0  0  0  3  0  0  0  0  0  0
   40.6990   35.1510   40.6770 C   0  0  0  0  0  3  0  0  0  0  0  0
   42.9160   34.2960   40.5910 C   0  0  0  0  0  0  0  0  0  0  0  0
   43.4400   34.8960   41.7460 C   0  0  0  0  0  0  0  0  0  0  0  0
   44.8290   35.0940   41.8640 C   0  0  0  0  0  0  0  0  0  0  0  0
   45.6040   34.6830   40.8270 N   0  0  0  0  0  0  0  0  0  0  0  0
   45.0860   34.1080   39.7220 C   0  0  0  0  0  0  0  0  0  0  0  0
   43.7670   33.9290   39.6280 N   0  0  0  0  0  0  0  0  0  0  0  0
   42.8470   35.2270   42.5740 H   0  0  0  0  0  0  0  0  0  0  0  0
   45.2610   35.5490   42.7340 H   0  0  0  0  0  0  0  0  0  0  0  0
   45.7630   33.7980   38.9170 H   0  0  0  0  0  0  0  0  0  0  0  0
   36.8020   31.9330   40.2620 O   0  0  0  0  0  0  0  0  0  0  0  0
   39.4030   31.1860   40.6560 H   0  0  0  0  0  0  0  0  0  0  0  0
   38.5850   30.7050   41.0920 N   0  0  0  0  0  0  0  0  0  0  0  0
   37.2350   30.8700   41.0620 C   0  0  0  0  0  0  0  0  0  0  0  0
   36.6550   29.9350   41.8360 N   0  0  0  0  0  0  0  0  0  0  0  0
   37.6430   29.1610   42.3700 C   0  0  0  0  0  0  0  0  0  0  0  0
   37.5100   28.0840   43.2240 C   0  0  0  0  0  0  0  0  0  0  0  0
   38.6640   27.5010   43.5950 N   0  0  0  0  0  0  0  0  0  0  0  0
   39.8630   27.9360   43.1670 C   0  0  0  0  0  0  0  0  0  0  0  0
   40.7940   27.4580   43.4730 H   0  0  0  0  0  0  0  0  0  0  0  0
   39.9180   28.9920   42.3370 N   0  0  0  0  0  0  0  0  0  0  0  0
   38.8400   29.6570   41.8940 C   0  0  0  0  0  0  0  0  0  0  0  0
   36.2480   27.6200   43.6790 N   0  0  0  0  0  0  0  0  0  0  0  0
   35.3560   27.3460   43.2380 H   0  0  0  0  0  0  0  0  0  0  0  0
   36.2860   27.5600   44.7180 H   0  0  0  0  0  0  0  0  0  0  0  0
  2  1  2  6  0  0  0
  2 20  1  0  0  0  0
  2  5  1  0  0  0  0
  3  4  1  0  0  0  0
  3  2  1  0  0  0  0
  6 10  1  0  0  0  0
  6  5  1  0  0  0  0
  6  7  1  0  0  0  0
  8  6  1  0  0  0  0
  9 11  1  0  0  0  0
  9 10  2  0  0  0  0
 11 12  1  0  0  0  0
 12 13  2  0  0  0  0
 12 17  1  0  0  0  0
 13 18  1  0  0  0  0
 14 13  1  0  0  0  0
 15 14  2  0  0  0  0
 16 15  1  0  0  0  0
 16 11  2  0  0  0  0
 19 15  1  0  0  0  0
 20 23  1  0  0  0  0
 21 22  1  0  0  0  0
 22 31  1  0  0  0  0
 23 22  1  0  0  0  0
 23 24  2  0  0  0  0
 24 25  1  0  0  0  0
 25 26  1  0  0  0  0
 26 27  2  0  0  0  0
 26 32  1  0  0  0  0
 28 29  1  0  0  0  0
 28 27  1  0  0  0  0
 30 28  2  0  0  0  0
 31 30  1  0  0  0  0
 31 25  2  0  0  0  0
 32 34  1  0  0  0  0
 33 32  1  0  0  0  0
M  END
>  <minimizedAffinity>
-5.73008823

$$$$

 OpenBabel03242512553D

 34 36  0  0  0  0  0  0  0  0999 V2000
   41.8470   34.8690   39.2650 O   0  0  0  0  0  0  0  0  0  0  0  0
   41.1260   33.5870   38.9690 P   0  0  1  0  0  0  0  0  0  0  0  0
   41.0950   33.3180   37.3010 O   0  0  0  0  0  0  0  0  0  0  0  0
   40.4600   32.5970   37.0610 H   0  0  0  0  0  0  0  0  0  0  0  0
   41.9760   32.3390   39.7360 O   0  0  0  0  0  0  0  0  0  0  0  0
   41.7540   32.3320   41.0990 C   0  0  0  0  0  0  0  0  0  0  0  0
   41.0460   33.1640   41.3110 H   0  0  0  0  0  0  0  0  0  0  0  0
   42.7010   32.5760   41.6500 H   0  0  0  0  0  0  0  0  0  0  0  0
   40.0530   31.0610   42.3490 C   0  0  0  0  0  3  0  0  0  0  0  0
   41.1090   31.0880   41.5530 C   0  0  0  0  0  3  0  0  0  0  0  0
   39.5170   29.7670   42.7250 C   0  0  0  0  0  0  0  0  0  0  0  0
   40.3840   28.6640   42.7810 C   0  0  0  0  0  0  0  0  0  0  0  0
   39.8840   27.3990   43.1440 C   0  0  0  0  0  0  0  0  0  0  0  0
   38.5580   27.3130   43.4270 N   0  0  0  0  0  0  0  0  0  0  0  0
   37.7370   28.3830   43.3680 C   0  0  0  0  0  0  0  0  0  0  0  0
   38.2290   29.5740   43.0220 N   0  0  0  0  0  0  0  0  0  0  0  0
   41.4310   28.7100   42.5610 H   0  0  0  0  0  0  0  0  0  0  0  0
   40.5200   26.5370   43.1960 H   0  0  0  0  0  0  0  0  0  0  0  0
   36.6750   28.2510   43.6080 H   0  0  0  0  0  0  0  0  0  0  0  0
   39.5390   33.7220   39.5000 O   0  0  0  0  0  0  0  0  0  0  0  0
   38.9510   32.3480   37.2100 H   0  0  0  0  0  0  0  0  0  0  0  0
   38.4760   32.1860   38.1270 N   0  0  0  0  0  0  0  0  0  0  0  0
   38.5770   32.7140   39.3760 C   0  0  0  0  0  0  0  0  0  0  0  0
   37.6940   32.1070   40.1890 N   0  0  0  0  0  0  0  0  0  0  0  0
   37.0180   31.1770   39.4540 C   0  0  0  0  0  0  0  0  0  0  0  0
   36.0210   30.3210   39.8780 C   0  0  0  0  0  0  0  0  0  0  0  0
   35.5280   29.5030   38.9310 N   0  0  0  0  0  0  0  0  0  0  0  0
   35.9750   29.5150   37.6610 C   0  0  0  0  0  0  0  0  0  0  0  0
   35.5700   28.8480   36.9000 H   0  0  0  0  0  0  0  0  0  0  0  0
   36.9500   30.3750   37.3190 N   0  0  0  0  0  0  0  0  0  0  0  0
   37.5200   31.2410   38.1700 C   0  0  0  0  0  0  0  0  0  0  0  0
   35.5460   30.3020   41.2150 N   0  0  0  0  0  0  0  0  0  0  0  0
   35.1910   31.0030   41.8850 H   0  0  0  0  0  0  0  0  0  0  0  0
   35.5850   29.3180   41.5540 H   0  0  0  0  0  0  0  0  0  0  0  0
  2  1  2  1  0  0  0
  2 20  1  0  0  0  0
  2  5  1  0  0  0  0
  3  2  1  0  0  0  0
  4  3  1  0  0  0  0
  5  6  1  0  0  0  0
  6  7  1  0  0  0  0
  6 10  1  0  0  0  0
  6  8  1  0  0  0  0
  9 11  1  0  0  0  0
 10  9  2  0  0  0  0
 11 12  2  0  0  0  0
 11 16  1  0  0  0  0
 12 13  1  0  0  0  0
 13 18  1  0  0  0  0
 13 14  2  0  0  0  0
 15 14  1  0  0  0  0
 15 19  1  0  0  0  0
 16 15  2  0  0  0  0
 17 12  1  0  0  0  0
 21 22  1  0  0  0  0
 22 31  1  0  0  0  0
 22 23  1  0  0  0  0
 23 20  1  0  0  0  0
 23 24  2  0  0  0  0
 25 26  1  0  0  0  0
 25 24  1  0  0  0  0
 26 32  1  0  0  0  0
 27 26  2  0  0  0  0
 28 27  1  0  0  0  0
 29 28  1  0  0  0  0
 30 28  2  0  0  0  0
 30 31  1  0  0  0  0
 31 25  2  0  0  0  0
 32 34  1  0  0  0  0
 32 33  1  0  0  0  0
M  END
>  <minimizedAffinity>
-5.63262844

$$$$

 OpenBabel03242512553D

 34 36  0  0  0  0  0  0  0  0999 V2000
   37.6720   34.3970   39.5360 O   0  0  0  0  0  0  0  0  0  0  0  0
   38.8890   33.9880   40.3120 P   0  0  1  0  0  0  0  0  0  0  0  0
   38.8000   34.6010   41.8840 O   0  0  0  0  0  0  0  0  0  0  0  0
   39.6680   34.5220   42.3540 H   0  0  0  0  0  0  0  0  0  0  0  0
   38.9140   32.2940   40.3560 O   0  0  0  0  0  0  0  0  0  0  0  0
   39.4580   31.8220   41.5330 C   0  0  0  0  0  0  0  0  0  0  0  0
   38.8830   32.2940   42.3620 H   0  0  0  0  0  0  0  0  0  0  0  0
   40.5170   32.1740   41.6430 H   0  0  0  0  0  0  0  0  0  0  0  0
   38.8450   29.7800   42.7700 C   0  0  0  0  0  3  0  0  0  0  0  0
   39.3000   30.3640   41.6740 C   0  0  0  0  0  3  0  0  0  0  0  0
   38.7440   28.3330   42.7800 C   0  0  0  0  0  0  0  0  0  0  0  0
   39.8280   27.5820   43.2610 C   0  0  0  0  0  0  0  0  0  0  0  0
   39.7500   26.1760   43.2790 C   0  0  0  0  0  0  0  0  0  0  0  0
   38.6040   25.6110   42.8190 N   0  0  0  0  0  0  0  0  0  0  0  0
   37.5710   26.3470   42.3600 C   0  0  0  0  0  0  0  0  0  0  0  0
   37.6620   27.6780   42.3500 N   0  0  0  0  0  0  0  0  0  0  0  0
   40.7400   28.0070   43.6270 H   0  0  0  0  0  0  0  0  0  0  0  0
   40.5600   25.5720   43.6410 H   0  0  0  0  0  0  0  0  0  0  0  0
   36.6710   25.8340   42.0010 H   0  0  0  0  0  0  0  0  0  0  0  0
   40.2470   34.6450   39.5770 O   0  0  0  0  0  0  0  0  0  0  0  0
   40.9570   35.6890   42.0030 H   0  0  0  0  0  0  0  0  0  0  0  0
   41.6230   35.2140   41.3540 N   0  0  0  0  0  0  0  0  0  0  0  0
   41.5320   34.6250   40.1310 C   0  0  0  0  0  0  0  0  0  0  0  0
   42.7420   34.1660   39.7660 N   0  0  0  0  0  0  0  0  0  0  0  0
   43.6220   34.4610   40.7680 C   0  0  0  0  0  0  0  0  0  0  0  0
   44.9720   34.1770   40.8220 C   0  0  0  0  0  0  0  0  0  0  0  0
   45.5990   34.5890   41.9380 N   0  0  0  0  0  0  0  0  0  0  0  0
   44.9580   35.2310   42.9320 C   0  0  0  0  0  0  0  0  0  0  0  0
   45.4730   35.5600   43.8340 H   0  0  0  0  0  0  0  0  0  0  0  0
   43.6400   35.4740   42.8120 N   0  0  0  0  0  0  0  0  0  0  0  0
   42.9050   35.1150   41.7490 C   0  0  0  0  0  0  0  0  0  0  0  0
   45.6540   33.5000   39.7780 N   0  0  0  0  0  0  0  0  0  0  0  0
   45.7480   33.6170   38.7560 H   0  0  0  0  0  0  0  0  0  0  0  0
   46.1700   32.7000   40.1990 H   0  0  0  0  0  0  0  0  0  0  0  0
  2  1  2  6  0  0  0
  2  5  1  0  0  0  0
  2  3  1  0  0  0  0
  3  4  1  0  0  0  0
  5  6  1  0  0  0  0
  6  8  1  0  0  0  0
  6 10  1  0  0  0  0
  6  7  1  0  0  0  0
  9 11  1  0  0  0  0
 10  9  2  0  0  0  0
 11 12  1  0  0  0  0
 12 13  2  0  0  0  0
 12 17  1  0  0  0  0
 13 18  1  0  0  0  0
 14 13  1  0  0  0  0
 15 14  2  0  0  0  0
 16 15  1  0  0  0  0
 16 11  2  0  0  0  0
 19 15  1  0  0  0  0
 20 23  1  0  0  0  0
 20  2  1  0  0  0  0
 22 31  1  0  0  0  0
 22 21  1  0  0  0  0
 23 22  1  0  0  0  0
 24 23  2  0  0  0  0
 24 25  1  0  0  0  0
 25 26  2  0  0  0  0
 25 31  1  0  0  0  0
 26 27  1  0  0  0  0
 27 28  2  0  0  0  0
 28 29  1  0  0  0  0
 30 28  1  0  0  0  0
 31 30  2  0  0  0  0
 32 34  1  0  0  0  0
 32 26  1  0  0  0  0
 33 32  1  0  0  0  0
M  END
>  <minimizedAffinity>
-5.61358118

$$$$

 OpenBabel03242512553D

 34 36  0  0  0  0  0  0  0  0999 V2000
   37.0870   29.2920   39.7680 O   0  0  0  0  0  0  0  0  0  0  0  0
   36.8260   29.6110   41.2100 P   0  0  1  0  0  0  0  0  0  0  0  0
   35.8530   30.9890   41.3240 O   0  0  0  0  0  0  0  0  0  0  0  0
   35.8300   31.3400   42.2500 H   0  0  0  0  0  0  0  0  0  0  0  0
   36.0200   28.2820   41.8840 O   0  0  0  0  0  0  0  0  0  0  0  0
   36.9060   27.3400   42.3690 C   0  0  0  0  0  0  0  0  0  0  0  0
   36.5050   27.0030   43.3510 H   0  0  0  0  0  0  0  0  0  0  0  0
   37.9010   27.8130   42.5800 H   0  0  0  0  0  0  0  0  0  0  0  0
   36.9730   24.9110   41.9620 C   0  0  0  0  0  3  0  0  0  0  0  0
   36.9860   26.1520   41.5030 C   0  0  0  0  0  3  0  0  0  0  0  0
   37.0640   23.8290   41.0000 C   0  0  0  0  0  0  0  0  0  0  0  0
   36.0250   23.6580   40.0720 C   0  0  0  0  0  0  0  0  0  0  0  0
   36.0930   22.6150   39.1300 C   0  0  0  0  0  0  0  0  0  0  0  0
   37.1870   21.8100   39.1730 N   0  0  0  0  0  0  0  0  0  0  0  0
   38.1770   21.9860   40.0720 C   0  0  0  0  0  0  0  0  0  0  0  0
   38.0950   22.9810   40.9570 N   0  0  0  0  0  0  0  0  0  0  0  0
   35.1550   24.2800   40.0210 H   0  0  0  0  0  0  0  0  0  0  0  0
   35.3170   22.4570   38.4060 H   0  0  0  0  0  0  0  0  0  0  0  0
   39.0360   21.3040   40.0570 H   0  0  0  0  0  0  0  0  0  0  0  0
   38.2860   29.9450   41.9660 O   0  0  0  0  0  0  0  0  0  0  0  0
   38.2130   31.2320   39.5540 H   0  0  0  0  0  0  0  0  0  0  0  0
   38.9450   31.3960   40.2820 N   0  0  0  0  0  0  0  0  0  0  0  0
   39.2030   30.9050   41.5240 C   0  0  0  0  0  0  0  0  0  0  0  0
   40.3090   31.4930   42.0140 N   0  0  0  0  0  0  0  0  0  0  0  0
   40.7660   32.3730   41.0760 C   0  0  0  0  0  0  0  0  0  0  0  0
   41.8740   33.1940   41.1530 C   0  0  0  0  0  0  0  0  0  0  0  0
   42.0900   33.9650   40.0710 N   0  0  0  0  0  0  0  0  0  0  0  0
   41.2850   33.9400   38.9930 C   0  0  0  0  0  0  0  0  0  0  0  0
   41.4670   34.5680   38.1220 H   0  0  0  0  0  0  0  0  0  0  0  0
   40.2230   33.1150   38.9890 N   0  0  0  0  0  0  0  0  0  0  0  0
   39.9020   32.2980   40.0030 C   0  0  0  0  0  0  0  0  0  0  0  0
   42.7260   33.2260   42.2870 N   0  0  0  0  0  0  0  0  0  0  0  0
   43.2400   32.5280   42.8480 H   0  0  0  0  0  0  0  0  0  0  0  0
   42.8240   34.2190   42.5850 H   0  0  0  0  0  0  0  0  0  0  0  0
  2  1  2  6  0  0  0
  2  3  1  0  0  0  0
  2  5  1  0  0  0  0
  2 20  1  0  0  0  0
  3  4  1  0  0  0  0
  5  6  1  0  0  0  0
  6  8  1  0  0  0  0
  6  7  1  0  0  0  0
 10  9  2  0  0  0  0
 10  6  1  0  0  0  0
 11  9  1  0  0  0  0
 12 11  2  0  0  0  0
 13 14  2  0  0  0  0
 13 12  1  0  0  0  0
 14 15  1  0  0  0  0
 15 16  2  0  0  0  0
 16 11  1  0  0  0  0
 17 12  1  0  0  0  0
 18 13  1  0  0  0  0
 19 15  1  0  0  0  0
 21 22  1  0  0  0  0
 22 23  1  0  0  0  0
 23 20  1  0  0  0  0
 23 24  2  0  0  0  0
 25 26  1  0  0  0  0
 25 24  1  0  0  0  0
 26 32  1  0  0  0  0
 27 26  2  0  0  0  0
 28 27  1  0  0  0  0
 29 28  1  0  0  0  0
 30 28  2  0  0  0  0
 30 31  1  0  0  0  0
 31 22  1  0  0  0  0
 31 25  2  0  0  0  0
 32 34  1  0  0  0  0
 32 33  1  0  0  0  0
M  END
>  <minimizedAffinity>
-5.49762344

$$$$
