
 OpenBabel03252500273D

 48 51  0  0  1  0  0  0  0  0999 V2000
   47.1260   33.0920   46.7220 O   0  0  0  0  0  0  0  0  0  0  0  0
   45.6780   32.7670   46.6200 P   0  0  1  0  0  0  0  0  0  0  0  0
   45.4620   31.5470   45.4670 O   0  0  0  0  0  0  0  0  0  0  0  0
   45.9690   31.8060   44.6700 H   0  0  0  0  0  0  0  0  0  0  0  0
   45.1960   32.2250   48.1030 O   0  0  0  0  0  0  0  0  0  0  0  0
   47.0420   30.7100   48.1310 C   0  0  2  0  0  0  0  0  0  0  0  0
   45.5830   30.9220   48.2830 C   0  0  2  0  0  0  0  0  0  0  0  0
   44.9410   30.0020   47.3700 C   0  0  0  0  0  0  0  0  0  0  0  0
   45.8270   28.9520   47.0920 O   0  0  0  0  0  0  0  0  0  0  0  0
   46.9090   29.1570   47.8760 C   0  0  0  0  0  0  0  0  0  0  0  0
   47.5010   30.9170   47.1490 H   0  0  0  0  0  0  0  0  0  0  0  0
   45.4250   30.7590   49.3890 H   0  0  0  0  0  0  0  0  0  0  0  0
   44.2390   29.4060   48.0580 H   0  0  0  0  0  0  0  0  0  0  0  0
   44.2120   30.2550   46.6320 H   0  0  0  0  0  0  0  0  0  0  0  0
   46.7540   28.7550   48.9200 H   0  0  0  0  0  0  0  0  0  0  0  0
   47.8560   28.7410   47.5430 H   0  0  0  0  0  0  0  0  0  0  0  0
   47.8070   30.8780   49.2220 O   0  0  0  0  0  0  0  0  0  0  0  0
   49.0170   31.3540   49.2450 C   0  0  0  0  0  0  0  0  0  0  0  0
   49.2870   32.3720   49.1070 H   0  0  0  0  0  0  0  0  0  0  0  0
   49.5250   30.8390   48.2570 H   0  0  0  0  0  0  0  0  0  0  0  0
   49.8200   30.6070   50.2970 C   0  0  0  0  0  0  0  0  0  0  0  0
   49.5340   30.9120   51.3210 H   0  0  0  0  0  0  0  0  0  0  0  0
   49.6470   29.5280   50.1070 H   0  0  0  0  0  0  0  0  0  0  0  0
   50.8920   30.8700   50.1010 H   0  0  0  0  0  0  0  0  0  0  0  0
   44.9050   34.2180   46.1610 O   0  0  0  0  0  0  0  0  0  0  0  0
   45.2120   36.5880   43.4860 C   0  0  0  0  0  0  0  0  0  0  0  0
   45.1230   35.8010   42.3140 C   0  0  0  0  0  0  0  0  0  0  0  0
   44.9520   34.4130   42.5070 C   0  0  0  0  0  0  0  0  0  0  0  0
   44.8850   33.9280   43.7640 N   0  0  0  0  0  0  0  0  0  0  0  0
   44.9740   34.7150   44.8470 C   0  0  0  0  0  0  0  0  0  0  0  0
   45.1370   36.0380   44.7040 N   0  0  0  0  0  0  0  0  0  0  0  0
   45.1780   36.2030   41.3170 H   0  0  0  0  0  0  0  0  0  0  0  0
   44.8750   33.7500   41.6650 H   0  0  0  0  0  0  0  0  0  0  0  0
   45.3790   37.9330   43.3410 O   0  0  0  0  0  0  0  0  0  0  0  0
   45.1610   37.9840   46.1830 H   0  0  0  0  0  0  0  0  0  0  0  0
   45.0730   38.8750   45.6520 N   0  0  0  0  0  0  0  0  0  0  0  0
   45.1730   38.8730   44.3100 C   0  0  0  0  0  0  0  0  0  0  0  0
   45.0190   40.1560   43.9110 N   0  0  0  0  0  0  0  0  0  0  0  0
   44.8290   40.9070   45.0180 C   0  0  0  0  0  0  0  0  0  0  0  0
   44.6180   42.2660   45.2410 C   0  0  0  0  0  0  0  0  0  0  0  0
   44.4530   42.7810   46.4700 N   0  0  0  0  0  0  0  0  0  0  0  0
   44.4920   41.9520   47.5450 C   0  0  0  0  0  0  0  0  0  0  0  0
   44.3730   42.2490   48.5810 H   0  0  0  0  0  0  0  0  0  0  0  0
   44.6970   40.6150   47.3690 N   0  0  0  0  0  0  0  0  0  0  0  0
   44.8600   40.1090   46.1420 C   0  0  0  0  0  0  0  0  0  0  0  0
   44.5740   43.1570   44.1210 N   0  0  0  0  0  0  0  0  0  0  0  0
   45.1920   43.5980   43.4060 H   0  0  0  0  0  0  0  0  0  0  0  0
   43.5640   43.4410   44.0110 H   0  0  0  0  0  0  0  0  0  0  0  0
  2  1  2  1  0  0  0
  2  5  1  0  0  0  0
  3  2  1  0  0  0  0
  4  3  1  0  0  0  0
  5  7  1  0  0  0  0
  6 11  1  6  0  0  0
  6  7  1  0  0  0  0
  6 17  1  0  0  0  0
  7 12  1  1  0  0  0
  8 13  1  0  0  0  0
  8  7  1  0  0  0  0
  9  8  1  0  0  0  0
  9 10  1  0  0  0  0
 10  6  1  0  0  0  0
 10 15  1  0  0  0  0
 14  8  1  0  0  0  0
 16 10  1  0  0  0  0
 17 18  1  0  0  0  0
 18 21  1  0  0  0  0
 19 18  1  0  0  0  0
 20 18  1  0  0  0  0
 21 22  1  0  0  0  0
 23 21  1  0  0  0  0
 24 21  1  0  0  0  0
 25  2  1  0  0  0  0
 26 31  1  0  0  0  0
 27 28  1  0  0  0  0
 27 26  2  0  0  0  0
 28 29  2  0  0  0  0
 29 30  1  0  0  0  0
 30 25  1  0  0  0  0
 31 30  2  0  0  0  0
 32 27  1  0  0  0  0
 33 28  1  0  0  0  0
 34 26  1  0  0  0  0
 34 37  1  0  0  0  0
 36 45  1  0  0  0  0
 36 35  1  0  0  0  0
 37 36  1  0  0  0  0
 38 37  2  0  0  0  0
 38 39  1  0  0  0  0
 39 40  2  0  0  0  0
 39 45  1  0  0  0  0
 40 41  1  0  0  0  0
 41 42  2  0  0  0  0
 42 43  1  0  0  0  0
 44 42  1  0  0  0  0
 45 44  2  0  0  0  0
 46 40  1  0  0  0  0
 47 46  1  0  0  0  0
 48 46  1  0  0  0  0
M  END
>  <minimizedAffinity>
-4.22208357

>  <minimizedRMSD>
0.242321149

$$$$
