
 OpenBabel03252502563D

 42 45  0  0  0  0  0  0  0  0999 V2000
   45.6200   29.9790   44.7130 Br  0  0  0  0  0  0  0  0  0  0  0  0
   45.6700   30.5890   46.5520 C   0  0  0  0  0  0  0  0  0  0  0  0
   46.3480   31.7470   46.7610 C   0  0  0  0  0  0  0  0  0  0  0  0
   46.3680   32.1640   48.0990 C   0  0  0  0  0  0  0  0  0  0  0  0
   45.7580   31.4700   49.1150 C   0  0  0  0  0  0  0  0  0  0  0  0
   45.0940   30.3100   48.8170 C   0  0  0  0  0  0  0  0  0  0  0  0
   45.0390   29.8470   47.5180 C   0  0  0  0  0  0  0  0  0  0  0  0
   46.8770   33.0690   48.3810 H   0  0  0  0  0  0  0  0  0  0  0  0
   45.7990   31.8280   50.1340 H   0  0  0  0  0  0  0  0  0  0  0  0
   44.5960   29.7210   49.5720 H   0  0  0  0  0  0  0  0  0  0  0  0
   47.0380   32.5790   45.7720 C   0  0  0  0  0  0  0  0  0  0  0  0
   47.9920   32.9260   46.1840 H   0  0  0  0  0  0  0  0  0  0  0  0
   47.3150   31.8920   44.9250 H   0  0  0  0  0  0  0  0  0  0  0  0
   44.5400   35.3160   45.3930 C   0  0  0  0  0  0  0  0  0  0  0  0
   44.7490   35.7220   44.0770 C   0  0  0  0  0  0  0  0  0  0  0  0
   45.7370   35.0580   43.3380 C   0  0  0  0  0  0  0  0  0  0  0  0
   46.4320   34.0680   43.9290 N   0  0  0  0  0  0  0  0  0  0  0  0
   46.2170   33.6810   45.2190 C   0  0  0  0  0  0  0  0  0  0  0  0
   45.2600   34.3310   45.9190 N   0  0  0  0  0  0  0  0  0  0  0  0
   43.7720   35.8380   45.9550 H   0  0  0  0  0  0  0  0  0  0  0  0
   44.1910   36.5180   43.6000 H   0  0  0  0  0  0  0  0  0  0  0  0
   45.9760   35.2920   42.3240 H   0  0  0  0  0  0  0  0  0  0  0  0
   44.3620   28.6660   47.2270 O   0  0  0  0  0  0  0  0  0  0  0  0
   44.2140   26.1100   46.7990 O   0  0  0  0  0  0  0  0  0  0  0  0
   44.9010   27.1320   47.6840 P   0  0  2  0  0  0  0  0  0  0  0  0
   44.4790   26.9020   49.2950 O   0  0  0  0  0  0  0  0  0  0  0  0
   45.2170   27.2030   49.8680 H   0  0  0  0  0  0  0  0  0  0  0  0
   46.5720   26.9730   47.4620 O   0  0  0  0  0  0  0  0  0  0  0  0
   49.2170   27.2860   48.4500 H   0  0  0  0  0  0  0  0  0  0  0  0
   48.6670   26.4270   48.6670 N   0  0  0  0  0  0  0  0  0  0  0  0
   47.4100   26.2150   48.2300 C   0  0  0  0  0  0  0  0  0  0  0  0
   47.0050   25.0150   48.6920 N   0  0  0  0  0  0  0  0  0  0  0  0
   48.0370   24.5120   49.4100 C   0  0  0  0  0  0  0  0  0  0  0  0
   48.0890   23.2860   50.0840 C   0  0  0  0  0  0  0  0  0  0  0  0
   49.2350   23.0030   50.7340 N   0  0  0  0  0  0  0  0  0  0  0  0
   50.2630   23.8820   50.7150 C   0  0  0  0  0  0  0  0  0  0  0  0
   51.1190   23.5350   51.2740 H   0  0  0  0  0  0  0  0  0  0  0  0
   50.2150   25.0720   50.0620 N   0  0  0  0  0  0  0  0  0  0  0  0
   49.1000   25.3910   49.4060 C   0  0  0  0  0  0  0  0  0  0  0  0
   46.9580   22.4110   50.0550 N   0  0  0  0  0  0  0  0  0  0  0  0
   46.8560   21.4800   49.5780 H   0  0  0  0  0  0  0  0  0  0  0  0
   46.0760   22.6710   50.5610 H   0  0  0  0  0  0  0  0  0  0  0  0
  1  2  1  0  0  0  0
  2  3  2  0  0  0  0
  2  7  1  0  0  0  0
  3  4  1  0  0  0  0
  4  8  1  0  0  0  0
  4  5  2  0  0  0  0
  5  9  1  0  0  0  0
  6  5  1  0  0  0  0
  6 10  1  0  0  0  0
  7  6  2  0  0  0  0
 11 12  1  0  0  0  0
 11  3  1  0  0  0  0
 13 11  1  0  0  0  0
 14 19  1  0  0  0  0
 14 20  1  0  0  0  0
 15 14  2  0  0  0  0
 16 17  2  0  0  0  0
 16 15  1  0  0  0  0
 17 18  1  0  0  0  0
 18 11  1  0  0  0  0
 18 19  2  0  0  0  0
 21 15  1  0  0  0  0
 22 16  1  0  0  0  0
 23  7  1  0  0  0  0
 23 25  1  0  0  0  0
 25 24  2  6  0  0  0
 25 26  1  0  0  0  0
 26 27  1  0  0  0  0
 28 25  1  0  0  0  0
 28 31  1  0  0  0  0
 29 30  1  0  0  0  0
 30 39  1  0  0  0  0
 31 30  1  0  0  0  0
 31 32  2  0  0  0  0
 32 33  1  0  0  0  0
 33 34  1  0  0  0  0
 34 35  2  0  0  0  0
 36 35  1  0  0  0  0
 36 37  1  0  0  0  0
 38 36  2  0  0  0  0
 39 33  2  0  0  0  0
 39 38  1  0  0  0  0
 40 34  1  0  0  0  0
 40 42  1  0  0  0  0
 41 40  1  0  0  0  0
M  END
>  <minimizedAffinity>
-6.17893696

>  <minimizedRMSD>
0.950387836

$$$$
