
 OpenBabel03252504003D

 39 43  0  0  0  0  0  0  0  0999 V2000
   46.9110   35.0210   42.5910 C   0  0  0  0  0  0  0  0  0  0  0  0
   45.8920   35.9700   42.4450 C   0  0  0  0  0  0  0  0  0  0  0  0
   44.8290   35.9250   43.3440 C   0  0  0  0  0  0  0  0  0  0  0  0
   44.8430   34.9710   44.3040 N   0  0  0  0  0  0  0  0  0  0  0  0
   45.8430   34.0750   44.4140 C   0  0  0  0  0  0  0  0  0  0  0  0
   46.8820   34.0910   43.5610 N   0  0  0  0  0  0  0  0  0  0  0  0
   45.9070   36.7250   41.6630 H   0  0  0  0  0  0  0  0  0  0  0  0
   44.0290   36.6530   43.2480 H   0  0  0  0  0  0  0  0  0  0  0  0
   46.1780   31.7480   45.0930 C   0  0  0  0  0  0  0  0  0  0  0  0
   45.8380   33.0460   45.4650 C   0  0  0  0  0  0  0  0  0  0  0  0
   45.5160   33.3160   46.7730 C   0  0  0  0  0  0  0  0  0  0  0  0
   45.5340   32.2990   47.7050 C   0  0  0  0  0  0  0  0  0  0  0  0
   45.2770   32.2450   49.0120 N   0  0  0  0  0  0  0  0  0  0  0  0
   45.4300   31.0100   49.4960 C   0  0  0  0  0  0  0  0  0  0  0  0
   45.8070   30.1960   48.4640 C   0  0  0  0  0  0  0  0  0  0  0  0
   45.8710   31.0030   47.3430 C   0  0  0  0  0  0  0  0  0  0  0  0
   46.1970   30.7280   46.0210 C   0  0  0  0  0  0  0  0  0  0  0  0
   46.4360   31.5120   44.0610 H   0  0  0  0  0  0  0  0  0  0  0  0
   45.2520   34.3280   47.0560 H   0  0  0  0  0  0  0  0  0  0  0  0
   44.9930   33.0790   49.5730 H   0  0  0  0  0  0  0  0  0  0  0  0
   45.2780   30.7150   50.5370 H   0  0  0  0  0  0  0  0  0  0  0  0
   46.0130   29.1550   48.4940 H   0  0  0  0  0  0  0  0  0  0  0  0
   46.4640   29.7360   45.6960 H   0  0  0  0  0  0  0  0  0  0  0  0
   47.9800   35.1230   41.6280 C   0  0  0  0  0  0  0  0  0  0  0  0
   49.0870   35.7250   41.8310 O   0  0  0  0  0  0  0  0  0  0  0  0
   49.5090   35.3270   39.2030 H   0  0  0  0  0  0  0  0  0  0  0  0
   48.6760   34.7300   39.2600 N   0  0  0  0  0  0  0  0  0  0  0  0
   47.8350   34.5030   40.2940 C   0  0  0  0  0  0  0  0  0  0  0  0
   46.8820   33.6410   39.8930 N   0  0  0  0  0  0  0  0  0  0  0  0
   47.0870   33.3020   38.6160 C   0  0  0  0  0  0  0  0  0  0  0  0
   46.5140   32.5040   37.6460 C   0  0  0  0  0  0  0  0  0  0  0  0
   46.9690   32.3640   36.4010 N   0  0  0  0  0  0  0  0  0  0  0  0
   48.0850   33.0540   36.0380 C   0  0  0  0  0  0  0  0  0  0  0  0
   48.5700   33.0440   35.0740 H   0  0  0  0  0  0  0  0  0  0  0  0
   48.6670   33.8400   36.9610 N   0  0  0  0  0  0  0  0  0  0  0  0
   48.2190   33.9900   38.2160 C   0  0  0  0  0  0  0  0  0  0  0  0
   45.3470   31.7800   38.0140 N   0  0  0  0  0  0  0  0  0  0  0  0
   45.5880   30.9700   38.6590 H   0  0  0  0  0  0  0  0  0  0  0  0
   44.3160   31.6270   37.9730 H   0  0  0  0  0  0  0  0  0  0  0  0
  1  6  1  0  0  0  0
  2  1  2  0  0  0  0
  2  3  1  0  0  0  0
  3  4  2  0  0  0  0
  4  5  1  0  0  0  0
  5 10  1  0  0  0  0
  6  5  2  0  0  0  0
  7  2  1  0  0  0  0
  8  3  1  0  0  0  0
  9 10  2  0  0  0  0
  9 17  1  0  0  0  0
 10 11  1  0  0  0  0
 11 19  1  0  0  0  0
 11 12  2  0  0  0  0
 12 13  1  0  0  0  0
 13 14  1  0  0  0  0
 13 20  1  0  0  0  0
 14 21  1  0  0  0  0
 15 22  1  0  0  0  0
 15 14  2  0  0  0  0
 16 12  1  0  0  0  0
 16 15  1  0  0  0  0
 17 16  2  0  0  0  0
 18  9  1  0  0  0  0
 23 17  1  0  0  0  0
 24 25  2  0  0  0  0
 24  1  1  0  0  0  0
 26 27  1  0  0  0  0
 27 28  1  0  0  0  0
 28 24  1  0  0  0  0
 29 28  2  0  0  0  0
 30 29  1  0  0  0  0
 31 37  1  0  0  0  0
 31 30  2  0  0  0  0
 32 31  1  0  0  0  0
 33 32  2  0  0  0  0
 33 35  1  0  0  0  0
 34 33  1  0  0  0  0
 35 36  2  0  0  0  0
 36 30  1  0  0  0  0
 36 27  1  0  0  0  0
 37 38  1  0  0  0  0
 39 37  1  0  0  0  0
M  END
>  <minimizedAffinity>
-7.14859629

>  <minimizedRMSD>
1.12594509

$$$$
