
 OpenBabel03242515563D

 42 46  0  0  0  0  0  0  0  0999 V2000
   45.9100   32.6550   46.7420 C   0  0  0  0  0  0  0  0  0  0  0  0
   45.5700   32.9450   48.0880 C   0  0  0  0  0  0  0  0  0  0  0  0
   45.7610   32.0670   49.1220 C   0  0  0  0  0  0  0  0  0  0  0  0
   46.2990   30.8480   48.8980 C   0  0  0  0  0  0  0  0  0  0  0  0
   46.6470   30.5130   47.6060 C   0  0  0  0  0  0  0  0  0  0  0  0
   47.1930   29.2720   47.4160 C   0  0  0  0  0  0  0  0  0  0  0  0
   47.5640   28.8750   46.1490 C   0  0  0  0  0  0  0  0  0  0  0  0
   47.3520   29.7840   45.1170 C   0  0  0  0  0  0  0  0  0  0  0  0
   46.8150   30.9830   45.3740 C   0  0  0  0  0  0  0  0  0  0  0  0
   46.4490   31.4000   46.5840 C   0  0  0  0  0  0  0  0  0  0  0  0
   45.1380   33.9080   48.3090 H   0  0  0  0  0  0  0  0  0  0  0  0
   45.4730   32.3670   50.1180 H   0  0  0  0  0  0  0  0  0  0  0  0
   46.4370   30.1850   49.7260 H   0  0  0  0  0  0  0  0  0  0  0  0
   47.3240   28.6100   48.3010 H   0  0  0  0  0  0  0  0  0  0  0  0
   47.9900   27.8530   46.1480 H   0  0  0  0  0  0  0  0  0  0  0  0
   47.6820   29.2080   44.2700 H   0  0  0  0  0  0  0  0  0  0  0  0
   44.4570   35.5510   45.1880 C   0  0  0  0  0  0  0  0  0  0  0  0
   45.1930   35.6560   43.9680 C   0  0  0  0  0  0  0  0  0  0  0  0
   46.2030   34.7000   43.6700 C   0  0  0  0  0  0  0  0  0  0  0  0
   46.3970   33.7390   44.5880 N   0  0  0  0  0  0  0  0  0  0  0  0
   45.7510   33.6240   45.6880 C   0  0  0  0  0  0  0  0  0  0  0  0
   44.7790   34.5450   45.9720 N   0  0  0  0  0  0  0  0  0  0  0  0
   43.6920   36.2850   45.3990 H   0  0  0  0  0  0  0  0  0  0  0  0
   46.7130   34.8380   42.7420 H   0  0  0  0  0  0  0  0  0  0  0  0
   44.8370   36.7480   43.1260 N   0  0  0  0  0  0  0  0  0  0  0  0
   44.8500   36.4190   42.1150 H   0  0  0  0  0  0  0  0  0  0  0  0
   44.6290   37.6620   43.5920 H   0  0  0  0  0  0  0  0  0  0  0  0
   46.7340   31.6320   44.1850 O   0  0  0  0  0  0  0  0  0  0  0  0
   46.9330   30.0720   41.5860 H   0  0  0  0  0  0  0  0  0  0  0  0
   47.6290   30.7500   41.9140 N   0  0  0  0  0  0  0  0  0  0  0  0
   47.4670   31.3680   43.0540 C   0  0  0  0  0  0  0  0  0  0  0  0
   48.6290   32.0860   43.1040 N   0  0  0  0  0  0  0  0  0  0  0  0
   49.4050   31.8860   42.0470 C   0  0  0  0  0  0  0  0  0  0  0  0
   50.6520   32.3650   41.6280 C   0  0  0  0  0  0  0  0  0  0  0  0
   51.1490   31.9190   40.4380 N   0  0  0  0  0  0  0  0  0  0  0  0
   50.4460   31.0310   39.6800 C   0  0  0  0  0  0  0  0  0  0  0  0
   50.9280   30.7290   38.7380 H   0  0  0  0  0  0  0  0  0  0  0  0
   49.2310   30.5510   40.0670 N   0  0  0  0  0  0  0  0  0  0  0  0
   48.7480   30.9940   41.2380 C   0  0  0  0  0  0  0  0  0  0  0  0
   51.3490   33.2930   42.4570 N   0  0  0  0  0  0  0  0  0  0  0  0
   50.8380   34.2240   42.4710 H   0  0  0  0  0  0  0  0  0  0  0  0
   52.2260   33.2230   43.0200 H   0  0  0  0  0  0  0  0  0  0  0  0
  1  2  1  0  0  0  0
  2 11  1  0  0  0  0
  2  3  2  0  0  0  0
  3 12  1  0  0  0  0
  4  3  1  0  0  0  0
  4 13  1  0  0  0  0
  5  4  2  0  0  0  0
  6  5  1  0  0  0  0
  6 14  1  0  0  0  0
  7  6  2  0  0  0  0
  8  9  2  0  0  0  0
  8  7  1  0  0  0  0
  9 10  1  0  0  0  0
 10  1  2  0  0  0  0
 10  5  1  0  0  0  0
 15  7  1  0  0  0  0
 16  8  1  0  0  0  0
 17 23  1  0  0  0  0
 17 22  1  0  0  0  0
 18 17  2  0  0  0  0
 19 18  1  0  0  0  0
 19 20  2  0  0  0  0
 20 21  1  0  0  0  0
 21 22  2  0  0  0  0
 21  1  1  0  0  0  0
 24 19  1  0  0  0  0
 25 27  1  0  0  0  0
 25 18  1  0  0  0  0
 26 25  1  0  0  0  0
 28  9  1  0  0  0  0
 29 30  1  0  0  0  0
 30 31  1  0  0  0  0
 31 32  2  0  0  0  0
 31 28  1  0  0  0  0
 33 32  1  0  0  0  0
 34 33  1  0  0  0  0
 34 40  1  0  0  0  0
 35 34  2  0  0  0  0
 36 38  2  0  0  0  0
 36 35  1  0  0  0  0
 37 36  1  0  0  0  0
 38 39  1  0  0  0  0
 39 30  1  0  0  0  0
 39 33  2  0  0  0  0
 40 41  1  0  0  0  0
 40 42  1  0  0  0  0
M  END
>  <minimizedAffinity>
-6.68442059

>  <minimizedRMSD>
1.06367457

$$$$
