
 OpenBabel03242520193D

 40 43  0  0  0  0  0  0  0  0999 V2000
   39.9270   35.7710   40.2860 C   0  0  0  0  0  0  0  0  0  0  0  0
   40.2710   35.8170   41.3200 H   0  0  0  0  0  0  0  0  0  0  0  0
   39.2420   36.6620   40.1690 H   0  0  0  0  0  0  0  0  0  0  0  0
   39.3110   33.4940   40.9120 C   0  0  0  0  0  0  0  0  0  0  0  0
   39.8780   33.5420   42.0400 O   0  0  0  0  0  0  0  0  0  0  0  0
   39.2320   34.5440   39.9640 N   0  0  0  0  0  0  0  0  0  0  0  0
   38.7060   34.4620   39.0720 H   0  0  0  0  0  0  0  0  0  0  0  0
   37.3400   31.7820   42.1530 H   0  0  0  0  0  0  0  0  0  0  0  0
   37.7280   31.5040   41.2280 N   0  0  0  0  0  0  0  0  0  0  0  0
   38.6610   32.2190   40.5330 C   0  0  0  0  0  0  0  0  0  0  0  0
   38.8780   31.5030   39.3920 N   0  0  0  0  0  0  0  0  0  0  0  0
   38.1310   30.4020   39.3620 C   0  0  0  0  0  0  0  0  0  0  0  0
   38.0560   29.4150   38.3850 C   0  0  0  0  0  0  0  0  0  0  0  0
   37.1830   28.4070   38.6560 N   0  0  0  0  0  0  0  0  0  0  0  0
   36.4610   28.3900   39.7880 C   0  0  0  0  0  0  0  0  0  0  0  0
   35.7840   27.5580   39.9450 H   0  0  0  0  0  0  0  0  0  0  0  0
   36.5610   29.3680   40.7150 N   0  0  0  0  0  0  0  0  0  0  0  0
   37.3990   30.4030   40.5300 C   0  0  0  0  0  0  0  0  0  0  0  0
   38.8580   29.5120   37.2150 N   0  0  0  0  0  0  0  0  0  0  0  0
   38.4350   30.3290   36.7140 H   0  0  0  0  0  0  0  0  0  0  0  0
   39.6820   28.9600   36.8540 H   0  0  0  0  0  0  0  0  0  0  0  0
   41.1180   36.0210   39.3870 C   0  0  0  0  0  0  0  0  0  0  0  0
   41.3860   37.0970   39.3700 H   0  0  0  0  0  0  0  0  0  0  0  0
   40.8930   35.7440   38.3320 H   0  0  0  0  0  0  0  0  0  0  0  0
   43.9560   34.6610   41.4860 C   0  0  0  0  0  0  0  0  0  0  0  0
   42.8510   35.4450   41.0820 C   0  0  0  0  0  0  0  0  0  0  0  0
   42.2840   35.2240   39.8390 C   0  0  0  0  0  0  0  0  0  0  0  0
   42.8460   34.2360   39.0640 N   0  0  0  0  0  0  0  0  0  0  0  0
   43.9090   33.5100   39.4960 C   0  0  0  0  0  0  0  0  0  0  0  0
   44.4560   33.7190   40.6910 N   0  0  0  0  0  0  0  0  0  0  0  0
   42.4850   36.1940   41.7600 H   0  0  0  0  0  0  0  0  0  0  0  0
   44.3230   32.7380   38.8510 H   0  0  0  0  0  0  0  0  0  0  0  0
   44.5610   34.9130   42.8160 C   0  0  0  0  0  0  0  0  0  0  0  0
   46.0700   35.3350   42.7020 C   0  0  0  0  0  0  0  0  0  0  0  0
   45.0120   36.1770   43.2720 C   0  0  0  0  0  0  0  0  0  0  0  0
   44.4410   34.0540   43.5410 H   0  0  0  0  0  0  0  0  0  0  0  0
   46.7870   34.7750   43.3140 H   0  0  0  0  0  0  0  0  0  0  0  0
   46.4260   35.6290   41.7020 H   0  0  0  0  0  0  0  0  0  0  0  0
   45.0700   36.3720   44.3730 H   0  0  0  0  0  0  0  0  0  0  0  0
   44.7220   37.1310   42.7440 H   0  0  0  0  0  0  0  0  0  0  0  0
  1  2  1  0  0  0  0
  3  1  1  0  0  0  0
  4  5  2  0  0  0  0
  6  1  1  0  0  0  0
  6  4  1  0  0  0  0
  7  6  1  0  0  0  0
  9  8  1  0  0  0  0
 10  4  1  0  0  0  0
 10  9  1  0  0  0  0
 11 10  2  0  0  0  0
 12 11  1  0  0  0  0
 12 18  1  0  0  0  0
 13 14  1  0  0  0  0
 13 12  2  0  0  0  0
 14 15  2  0  0  0  0
 15 16  1  0  0  0  0
 15 17  1  0  0  0  0
 18 17  2  0  0  0  0
 18  9  1  0  0  0  0
 19 13  1  0  0  0  0
 20 19  1  0  0  0  0
 21 19  1  0  0  0  0
 22 27  1  0  0  0  0
 22  1  1  0  0  0  0
 23 22  1  0  0  0  0
 24 22  1  0  0  0  0
 25 33  1  0  0  0  0
 26 25  1  0  0  0  0
 26 31  1  0  0  0  0
 27 26  2  0  0  0  0
 28 29  2  0  0  0  0
 28 27  1  0  0  0  0
 29 30  1  0  0  0  0
 30 25  2  0  0  0  0
 32 29  1  0  0  0  0
 33 35  1  0  0  0  0
 33 36  1  0  0  0  0
 34 33  1  0  0  0  0
 34 35  1  0  0  0  0
 34 37  1  0  0  0  0
 35 39  1  0  0  0  0
 38 34  1  0  0  0  0
 40 35  1  0  0  0  0
M  END
>  <minimizedAffinity>
-5.40358591

>  <minimizedRMSD>
0.738886714

$$$$
