
 OpenBabel03242521433D

 43 46  0  0  1  0  0  0  0  0999 V2000
   45.4800   34.6410   43.9050 C   0  0  0  0  0  0  0  0  0  0  0  0
   46.5580   33.9920   43.2800 C   0  0  0  0  0  0  0  0  0  0  0  0
   47.3130   33.0690   44.0160 C   0  0  0  0  0  0  0  0  0  0  0  0
   46.9610   32.8560   45.2810 N   0  0  0  0  0  0  0  0  0  0  0  0
   45.9200   33.4890   45.8680 C   0  0  0  0  0  0  0  0  0  0  0  0
   45.1770   34.3820   45.1820 N   0  0  0  0  0  0  0  0  0  0  0  0
   46.7470   34.2450   42.2540 H   0  0  0  0  0  0  0  0  0  0  0  0
   45.7000   33.2640   46.8870 H   0  0  0  0  0  0  0  0  0  0  0  0
   49.2330   33.3300   42.4550 C   0  0  2  0  0  0  0  0  0  0  0  0
   48.4190   32.4280   43.3150 C   0  0  2  0  0  0  0  0  0  0  0  0
   48.0080   31.4480   42.3620 O   0  0  0  0  0  0  0  0  0  0  0  0
   49.2110   31.0910   41.7790 C   0  0  0  0  0  0  0  0  0  0  0  0
   50.1530   32.2610   41.8290 C   0  0  1  0  0  0  0  0  0  0  0  0
   48.6630   33.7090   41.5630 H   0  0  0  0  0  0  0  0  0  0  0  0
   49.1080   31.8700   44.0000 H   0  0  0  0  0  0  0  0  0  0  0  0
   49.0280   30.8430   40.7120 H   0  0  0  0  0  0  0  0  0  0  0  0
   49.6510   30.2480   42.3210 H   0  0  0  0  0  0  0  0  0  0  0  0
   51.0200   32.0960   42.5000 H   0  0  0  0  0  0  0  0  0  0  0  0
   49.9000   34.3110   43.1230 O   0  0  0  0  0  0  0  0  0  0  0  0
   49.9600   35.1760   42.6560 H   0  0  0  0  0  0  0  0  0  0  0  0
   50.5610   32.7040   40.5750 O   0  0  0  0  0  0  0  0  0  0  0  0
   50.6860   33.6720   40.6350 H   0  0  0  0  0  0  0  0  0  0  0  0
   44.6850   35.6370   43.1020 C   0  0  0  0  0  0  0  0  0  0  0  0
   45.2060   35.8430   42.1580 H   0  0  0  0  0  0  0  0  0  0  0  0
   43.6560   35.2580   42.9820 H   0  0  0  0  0  0  0  0  0  0  0  0
   45.3720   38.0220   43.7850 C   0  0  0  0  0  0  0  0  0  0  0  0
   46.2460   38.0220   42.8780 O   0  0  0  0  0  0  0  0  0  0  0  0
   44.6050   36.8450   43.9150 N   0  0  0  0  0  0  0  0  0  0  0  0
   43.8880   36.8430   44.6950 H   0  0  0  0  0  0  0  0  0  0  0  0
   45.3190   38.3920   46.6510 H   0  0  0  0  0  0  0  0  0  0  0  0
   45.1490   39.1830   46.0130 N   0  0  0  0  0  0  0  0  0  0  0  0
   45.1430   39.1620   44.6650 C   0  0  0  0  0  0  0  0  0  0  0  0
   44.8790   40.4170   44.2580 N   0  0  0  0  0  0  0  0  0  0  0  0
   44.7180   41.2350   45.3180 C   0  0  0  0  0  0  0  0  0  0  0  0
   44.4380   42.5870   45.3500 C   0  0  0  0  0  0  0  0  0  0  0  0
   44.3390   43.1120   46.5990 N   0  0  0  0  0  0  0  0  0  0  0  0
   44.4980   42.3870   47.7170 C   0  0  0  0  0  0  0  0  0  0  0  0
   44.4120   42.8450   48.7060 H   0  0  0  0  0  0  0  0  0  0  0  0
   44.7740   41.0580   47.6580 N   0  0  0  0  0  0  0  0  0  0  0  0
   44.8900   40.4520   46.4410 C   0  0  0  0  0  0  0  0  0  0  0  0
   44.2670   43.3660   44.1650 N   0  0  0  0  0  0  0  0  0  0  0  0
   44.0610   42.8150   43.2900 H   0  0  0  0  0  0  0  0  0  0  0  0
   44.3660   44.4000   44.3060 H   0  0  0  0  0  0  0  0  0  0  0  0
  1  6  1  0  0  0  0
  2  1  2  0  0  0  0
  2  3  1  0  0  0  0
  3  4  2  0  0  0  0
  4  5  1  0  0  0  0
  5  8  1  0  0  0  0
  6  5  2  0  0  0  0
  7  2  1  0  0  0  0
  9 14  1  6  0  0  0
  9 19  1  0  0  0  0
  9 10  1  0  0  0  0
 10 15  1  1  0  0  0
 10  3  1  0  0  0  0
 11 10  1  0  0  0  0
 12 13  1  0  0  0  0
 12 17  1  0  0  0  0
 12 11  1  0  0  0  0
 13  9  1  0  0  0  0
 13 18  1  1  0  0  0
 16 12  1  0  0  0  0
 20 19  1  0  0  0  0
 21 22  1  0  0  0  0
 21 13  1  0  0  0  0
 23  1  1  0  0  0  0
 23 28  1  0  0  0  0
 24 23  1  0  0  0  0
 25 23  1  0  0  0  0
 26 28  1  0  0  0  0
 26 32  1  0  0  0  0
 27 26  2  0  0  0  0
 28 29  1  0  0  0  0
 31 40  1  0  0  0  0
 31 30  1  0  0  0  0
 32 31  1  0  0  0  0
 33 32  2  0  0  0  0
 33 34  1  0  0  0  0
 34 35  2  0  0  0  0
 34 40  1  0  0  0  0
 35 36  1  0  0  0  0
 36 37  2  0  0  0  0
 37 38  1  0  0  0  0
 39 37  1  0  0  0  0
 40 39  2  0  0  0  0
 41 43  1  0  0  0  0
 41 35  1  0  0  0  0
 42 41  1  0  0  0  0
M  END
>  <minimizedAffinity>
-2.91755295

>  <minimizedRMSD>
1.3973912

$$$$
