
 OpenBabel03252502563D

 42 45  0  0  0  0  0  0  0  0999 V2000
   45.5840   29.9940   44.7410 Br  0  0  0  0  0  0  0  0  0  0  0  0
   45.6600   30.6090   46.5780 C   0  0  0  0  0  0  0  0  0  0  0  0
   46.3520   31.7610   46.7770 C   0  0  0  0  0  0  0  0  0  0  0  0
   46.3900   32.1810   48.1130 C   0  0  0  0  0  0  0  0  0  0  0  0
   45.7840   31.4970   49.1380 C   0  0  0  0  0  0  0  0  0  0  0  0
   45.1040   30.3420   48.8500 C   0  0  0  0  0  0  0  0  0  0  0  0
   45.0320   29.8770   47.5520 C   0  0  0  0  0  0  0  0  0  0  0  0
   46.9100   33.0820   48.3870 H   0  0  0  0  0  0  0  0  0  0  0  0
   45.8380   31.8580   50.1540 H   0  0  0  0  0  0  0  0  0  0  0  0
   44.6090   29.7610   49.6120 H   0  0  0  0  0  0  0  0  0  0  0  0
   47.0400   32.5830   45.7780 C   0  0  0  0  0  0  0  0  0  0  0  0
   47.9970   32.9290   46.1820 H   0  0  0  0  0  0  0  0  0  0  0  0
   47.3100   31.8880   44.9340 H   0  0  0  0  0  0  0  0  0  0  0  0
   44.5420   35.3180   45.3870 C   0  0  0  0  0  0  0  0  0  0  0  0
   44.7550   35.7220   44.0700 C   0  0  0  0  0  0  0  0  0  0  0  0
   45.7450   35.0580   43.3360 C   0  0  0  0  0  0  0  0  0  0  0  0
   46.4390   34.0690   43.9300 N   0  0  0  0  0  0  0  0  0  0  0  0
   46.2190   33.6830   45.2200 C   0  0  0  0  0  0  0  0  0  0  0  0
   45.2600   34.3340   45.9160 N   0  0  0  0  0  0  0  0  0  0  0  0
   43.7710   35.8400   45.9450 H   0  0  0  0  0  0  0  0  0  0  0  0
   44.1980   36.5170   43.5910 H   0  0  0  0  0  0  0  0  0  0  0  0
   45.9870   35.2900   42.3220 H   0  0  0  0  0  0  0  0  0  0  0  0
   44.3400   28.7020   47.2730 O   0  0  0  0  0  0  0  0  0  0  0  0
   44.1520   26.1440   46.8650 O   0  0  0  0  0  0  0  0  0  0  0  0
   44.8660   27.1640   47.7310 P   0  0  2  0  0  0  0  0  0  0  0  0
   44.4680   26.9490   49.3500 O   0  0  0  0  0  0  0  0  0  0  0  0
   45.2200   27.2440   49.9090 H   0  0  0  0  0  0  0  0  0  0  0  0
   46.5320   26.9820   47.4830 O   0  0  0  0  0  0  0  0  0  0  0  0
   49.2170   27.2380   48.3690 H   0  0  0  0  0  0  0  0  0  0  0  0
   48.6500   26.4030   48.6290 N   0  0  0  0  0  0  0  0  0  0  0  0
   47.3720   26.2190   48.2420 C   0  0  0  0  0  0  0  0  0  0  0  0
   46.9480   25.0460   48.7510 N   0  0  0  0  0  0  0  0  0  0  0  0
   47.9890   24.5290   49.4470 C   0  0  0  0  0  0  0  0  0  0  0  0
   48.0280   23.3220   50.1540 C   0  0  0  0  0  0  0  0  0  0  0  0
   49.1860   23.0220   50.7720 N   0  0  0  0  0  0  0  0  0  0  0  0
   50.2400   23.8660   50.6930 C   0  0  0  0  0  0  0  0  0  0  0  0
   51.1040   23.5080   51.2310 H   0  0  0  0  0  0  0  0  0  0  0  0
   50.2040   25.0390   50.0080 N   0  0  0  0  0  0  0  0  0  0  0  0
   49.0780   25.3740   49.3830 C   0  0  0  0  0  0  0  0  0  0  0  0
   46.8690   22.4810   50.1900 N   0  0  0  0  0  0  0  0  0  0  0  0
   46.7220   21.5420   49.7420 H   0  0  0  0  0  0  0  0  0  0  0  0
   46.0140   22.7830   50.7170 H   0  0  0  0  0  0  0  0  0  0  0  0
  1  2  1  0  0  0  0
  2  3  2  0  0  0  0
  2  7  1  0  0  0  0
  3  4  1  0  0  0  0
  4  8  1  0  0  0  0
  4  5  2  0  0  0  0
  5  9  1  0  0  0  0
  6  5  1  0  0  0  0
  6 10  1  0  0  0  0
  7  6  2  0  0  0  0
 11 12  1  0  0  0  0
 11  3  1  0  0  0  0
 13 11  1  0  0  0  0
 14 19  1  0  0  0  0
 14 20  1  0  0  0  0
 15 14  2  0  0  0  0
 16 17  2  0  0  0  0
 16 15  1  0  0  0  0
 17 18  1  0  0  0  0
 18 11  1  0  0  0  0
 18 19  2  0  0  0  0
 21 15  1  0  0  0  0
 22 16  1  0  0  0  0
 23  7  1  0  0  0  0
 23 25  1  0  0  0  0
 25 24  2  6  0  0  0
 25 26  1  0  0  0  0
 26 27  1  0  0  0  0
 28 25  1  0  0  0  0
 28 31  1  0  0  0  0
 29 30  1  0  0  0  0
 30 39  1  0  0  0  0
 31 30  1  0  0  0  0
 31 32  2  0  0  0  0
 32 33  1  0  0  0  0
 33 34  1  0  0  0  0
 34 40  1  0  0  0  0
 34 35  2  0  0  0  0
 36 35  1  0  0  0  0
 36 37  1  0  0  0  0
 38 36  2  0  0  0  0
 39 33  2  0  0  0  0
 39 38  1  0  0  0  0
 40 42  1  0  0  0  0
 41 40  1  0  0  0  0
M  END
>  <minimizedAffinity>
-6.17173624

>  <minimizedRMSD>
1.25272536

$$$$
