
 OpenBabel03252504233D

 37 41  0  0  0  0  0  0  0  0999 V2000
   47.2600   33.3200   40.0480 C   0  0  0  0  0  0  0  0  0  0  0  0
   48.6360   33.0870   40.1680 C   0  0  0  0  0  0  0  0  0  0  0  0
   49.2190   33.1820   41.4470 C   0  0  0  0  0  0  0  0  0  0  0  0
   48.3970   33.4960   42.4890 N   0  0  0  0  0  0  0  0  0  0  0  0
   47.0690   33.7130   42.3260 C   0  0  0  0  0  0  0  0  0  0  0  0
   46.5080   33.6230   41.1100 N   0  0  0  0  0  0  0  0  0  0  0  0
   46.2940   34.0330   43.4740 N   0  0  0  0  0  0  0  0  0  0  0  0
   45.3550   35.0080   43.5530 C   0  0  0  0  0  0  0  0  0  0  0  0
   44.8440   34.9940   44.8180 N   0  0  0  0  0  0  0  0  0  0  0  0
   45.4690   34.0250   45.4780 C   0  0  0  0  0  0  0  0  0  0  0  0
   45.3880   33.5420   46.7550 C   0  0  0  0  0  0  0  0  0  0  0  0
   46.1430   32.5340   47.1910 N   0  0  0  0  0  0  0  0  0  0  0  0
   47.0450   31.9210   46.3930 C   0  0  0  0  0  0  0  0  0  0  0  0
   47.1310   32.3880   45.1410 N   0  0  0  0  0  0  0  0  0  0  0  0
   46.3930   33.3970   44.6590 C   0  0  0  0  0  0  0  0  0  0  0  0
   49.2960   32.8400   39.3500 H   0  0  0  0  0  0  0  0  0  0  0  0
   50.2690   33.0150   41.5950 H   0  0  0  0  0  0  0  0  0  0  0  0
   45.0410   35.6970   42.7690 H   0  0  0  0  0  0  0  0  0  0  0  0
   47.6660   31.1000   46.7350 H   0  0  0  0  0  0  0  0  0  0  0  0
   44.5010   34.0650   47.7180 N   0  0  0  0  0  0  0  0  0  0  0  0
   44.8980   34.9030   48.2310 H   0  0  0  0  0  0  0  0  0  0  0  0
   43.5500   33.7500   47.9810 H   0  0  0  0  0  0  0  0  0  0  0  0
   46.6350   33.1690   38.3630 S   0  0  0  0  0  0  0  0  0  0  0  0
   44.9510   30.5620   38.5860 H   0  0  0  0  0  0  0  0  0  0  0  0
   44.3870   31.4200   38.4540 N   0  0  0  0  0  0  0  0  0  0  0  0
   44.9390   32.6420   38.3370 C   0  0  0  0  0  0  0  0  0  0  0  0
   43.9030   33.5020   38.1810 N   0  0  0  0  0  0  0  0  0  0  0  0
   42.7610   32.8240   38.2020 C   0  0  0  0  0  0  0  0  0  0  0  0
   41.4290   33.1580   38.0930 C   0  0  0  0  0  0  0  0  0  0  0  0
   40.5100   32.1940   38.1600 N   0  0  0  0  0  0  0  0  0  0  0  0
   40.8220   30.9020   38.3310 C   0  0  0  0  0  0  0  0  0  0  0  0
   39.9900   30.1970   38.3710 H   0  0  0  0  0  0  0  0  0  0  0  0
   42.1180   30.5250   38.4420 N   0  0  0  0  0  0  0  0  0  0  0  0
   43.0520   31.4880   38.3770 C   0  0  0  0  0  0  0  0  0  0  0  0
   41.0320   34.4940   37.9140 N   0  0  0  0  0  0  0  0  0  0  0  0
   41.6700   35.3080   38.0750 H   0  0  0  0  0  0  0  0  0  0  0  0
   40.0640   34.7470   37.6030 H   0  0  0  0  0  0  0  0  0  0  0  0
  1  2  2  0  0  0  0
  1  6  1  0  0  0  0
  2  3  1  0  0  0  0
  3 17  1  0  0  0  0
  3  4  2  0  0  0  0
  5  4  1  0  0  0  0
  5  7  1  0  0  0  0
  6  5  2  0  0  0  0
  7  8  1  0  0  0  0
  7 15  1  0  0  0  0
  8  9  2  0  0  0  0
  9 10  1  0  0  0  0
 10 11  1  0  0  0  0
 11 12  2  0  0  0  0
 11 20  1  0  0  0  0
 13 19  1  0  0  0  0
 13 12  1  0  0  0  0
 14 13  2  0  0  0  0
 15 14  1  0  0  0  0
 15 10  2  0  0  0  0
 16  2  1  0  0  0  0
 18  8  1  0  0  0  0
 20 22  1  0  0  0  0
 20 21  1  0  0  0  0
 23  1  1  0  0  0  0
 25 24  1  0  0  0  0
 26 23  1  0  0  0  0
 26 25  1  0  0  0  0
 27 28  1  0  0  0  0
 27 26  2  0  0  0  0
 28 34  1  0  0  0  0
 29 30  1  0  0  0  0
 29 28  2  0  0  0  0
 30 31  2  0  0  0  0
 31 32  1  0  0  0  0
 31 33  1  0  0  0  0
 34 33  2  0  0  0  0
 34 25  1  0  0  0  0
 35 36  1  0  0  0  0
 35 29  1  0  0  0  0
 37 35  1  0  0  0  0
M  END
>  <minimizedAffinity>
-6.24741173

>  <minimizedRMSD>
1.63919103

$$$$
