
 OpenBabel03252502563D

 42 45  0  0  0  0  0  0  0  0999 V2000
   45.6030   30.0950   44.5660 Br  0  0  0  0  0  0  0  0  0  0  0  0
   45.6930   30.6760   46.4130 C   0  0  0  0  0  0  0  0  0  0  0  0
   46.3950   31.8180   46.6290 C   0  0  0  0  0  0  0  0  0  0  0  0
   46.4440   32.2140   47.9720 C   0  0  0  0  0  0  0  0  0  0  0  0
   45.8380   31.5160   48.9880 C   0  0  0  0  0  0  0  0  0  0  0  0
   45.1480   30.3720   48.6820 C   0  0  0  0  0  0  0  0  0  0  0  0
   45.0650   29.9300   47.3770 C   0  0  0  0  0  0  0  0  0  0  0  0
   46.9730   33.1050   48.2600 H   0  0  0  0  0  0  0  0  0  0  0  0
   45.9010   31.8570   50.0110 H   0  0  0  0  0  0  0  0  0  0  0  0
   44.6520   29.7800   49.4370 H   0  0  0  0  0  0  0  0  0  0  0  0
   47.0850   32.6530   45.6410 C   0  0  0  0  0  0  0  0  0  0  0  0
   48.0340   33.0060   46.0570 H   0  0  0  0  0  0  0  0  0  0  0  0
   47.3690   31.9660   44.7960 H   0  0  0  0  0  0  0  0  0  0  0  0
   44.5570   35.3590   45.2400 C   0  0  0  0  0  0  0  0  0  0  0  0
   44.7850   35.7800   43.9310 C   0  0  0  0  0  0  0  0  0  0  0  0
   45.7950   35.1360   43.2050 C   0  0  0  0  0  0  0  0  0  0  0  0
   46.4930   34.1500   43.8000 N   0  0  0  0  0  0  0  0  0  0  0  0
   46.2580   33.7480   45.0820 C   0  0  0  0  0  0  0  0  0  0  0  0
   45.2800   34.3790   45.7700 N   0  0  0  0  0  0  0  0  0  0  0  0
   43.7710   35.8650   45.7920 H   0  0  0  0  0  0  0  0  0  0  0  0
   44.2250   36.5720   43.4510 H   0  0  0  0  0  0  0  0  0  0  0  0
   46.0500   35.3820   42.1980 H   0  0  0  0  0  0  0  0  0  0  0  0
   44.3620   28.7660   47.0800 O   0  0  0  0  0  0  0  0  0  0  0  0
   43.9380   26.2070   46.9640 O   0  0  0  0  0  0  0  0  0  0  0  0
   44.7280   27.2510   47.7300 P   0  0  2  0  0  0  0  0  0  0  0  0
   44.2770   27.2660   49.3490 O   0  0  0  0  0  0  0  0  0  0  0  0
   45.0410   27.5540   49.8940 H   0  0  0  0  0  0  0  0  0  0  0  0
   46.3730   26.8860   47.5580 O   0  0  0  0  0  0  0  0  0  0  0  0
   49.1220   26.2900   47.9530 H   0  0  0  0  0  0  0  0  0  0  0  0
   48.3830   25.7260   48.4250 N   0  0  0  0  0  0  0  0  0  0  0  0
   47.0630   25.9550   48.2810 C   0  0  0  0  0  0  0  0  0  0  0  0
   46.3990   25.0480   49.0250 N   0  0  0  0  0  0  0  0  0  0  0  0
   47.3400   24.2730   49.6170 C   0  0  0  0  0  0  0  0  0  0  0  0
   47.1340   23.1940   50.4840 C   0  0  0  0  0  0  0  0  0  0  0  0
   48.2360   22.5740   50.9470 N   0  0  0  0  0  0  0  0  0  0  0  0
   49.4650   22.9980   50.5720 C   0  0  0  0  0  0  0  0  0  0  0  0
   50.2600   22.4160   51.0130 H   0  0  0  0  0  0  0  0  0  0  0  0
   49.6660   24.0450   49.7300 N   0  0  0  0  0  0  0  0  0  0  0  0
   48.6040   24.6860   49.2500 C   0  0  0  0  0  0  0  0  0  0  0  0
   45.8010   22.8060   50.8340 N   0  0  0  0  0  0  0  0  0  0  0  0
   45.2760   21.9370   50.5640 H   0  0  0  0  0  0  0  0  0  0  0  0
   45.2120   23.4290   51.4380 H   0  0  0  0  0  0  0  0  0  0  0  0
  1  2  1  0  0  0  0
  2  3  2  0  0  0  0
  2  7  1  0  0  0  0
  3  4  1  0  0  0  0
  4  8  1  0  0  0  0
  4  5  2  0  0  0  0
  5  9  1  0  0  0  0
  6  5  1  0  0  0  0
  6 10  1  0  0  0  0
  7  6  2  0  0  0  0
 11 12  1  0  0  0  0
 11  3  1  0  0  0  0
 13 11  1  0  0  0  0
 14 19  1  0  0  0  0
 14 20  1  0  0  0  0
 15 14  2  0  0  0  0
 16 17  2  0  0  0  0
 16 15  1  0  0  0  0
 17 18  1  0  0  0  0
 18 11  1  0  0  0  0
 18 19  2  0  0  0  0
 21 15  1  0  0  0  0
 22 16  1  0  0  0  0
 23  7  1  0  0  0  0
 23 25  1  0  0  0  0
 25 24  2  6  0  0  0
 25 26  1  0  0  0  0
 26 27  1  0  0  0  0
 28 25  1  0  0  0  0
 28 31  1  0  0  0  0
 29 30  1  0  0  0  0
 30 39  1  0  0  0  0
 31 30  1  0  0  0  0
 31 32  2  0  0  0  0
 32 33  1  0  0  0  0
 33 34  1  0  0  0  0
 34 40  1  0  0  0  0
 34 35  2  0  0  0  0
 36 35  1  0  0  0  0
 36 37  1  0  0  0  0
 38 36  2  0  0  0  0
 39 33  2  0  0  0  0
 39 38  1  0  0  0  0
 40 42  1  0  0  0  0
 41 40  1  0  0  0  0
M  END
>  <minimizedAffinity>
-6.19042635

>  <minimizedRMSD>
0.493881881

$$$$
