
 OpenBabel03252500283D

 48 51  0  0  1  0  0  0  0  0999 V2000
   47.1160   33.0990   46.7340 O   0  0  0  0  0  0  0  0  0  0  0  0
   45.6690   32.7730   46.6170 P   0  0  1  0  0  0  0  0  0  0  0  0
   45.4640   31.5590   45.4550 O   0  0  0  0  0  0  0  0  0  0  0  0
   45.9780   31.8230   44.6640 H   0  0  0  0  0  0  0  0  0  0  0  0
   45.1740   32.2220   48.0920 O   0  0  0  0  0  0  0  0  0  0  0  0
   47.0400   30.7320   48.1320 C   0  0  2  0  0  0  0  0  0  0  0  0
   45.5780   30.9240   48.2760 C   0  0  2  0  0  0  0  0  0  0  0  0
   44.9520   29.9950   47.3610 C   0  0  0  0  0  0  0  0  0  0  0  0
   45.8540   28.9560   47.0900 O   0  0  0  0  0  0  0  0  0  0  0  0
   46.9290   29.1770   47.8790 C   0  0  0  0  0  0  0  0  0  0  0  0
   47.5020   30.9440   47.1520 H   0  0  0  0  0  0  0  0  0  0  0  0
   45.4160   30.7610   49.3820 H   0  0  0  0  0  0  0  0  0  0  0  0
   44.2550   29.3900   48.0470 H   0  0  0  0  0  0  0  0  0  0  0  0
   44.2240   30.2370   46.6190 H   0  0  0  0  0  0  0  0  0  0  0  0
   46.7740   28.7740   48.9220 H   0  0  0  0  0  0  0  0  0  0  0  0
   47.8830   28.7730   47.5510 H   0  0  0  0  0  0  0  0  0  0  0  0
   47.7970   30.9110   49.2270 O   0  0  0  0  0  0  0  0  0  0  0  0
   49.0220   31.3460   49.2500 C   0  0  0  0  0  0  0  0  0  0  0  0
   49.3270   32.3550   49.1160 H   0  0  0  0  0  0  0  0  0  0  0  0
   49.5110   30.8180   48.2590 H   0  0  0  0  0  0  0  0  0  0  0  0
   49.8010   30.5680   50.2980 C   0  0  0  0  0  0  0  0  0  0  0  0
   49.5280   30.8790   51.3240 H   0  0  0  0  0  0  0  0  0  0  0  0
   49.5910   29.4960   50.1040 H   0  0  0  0  0  0  0  0  0  0  0  0
   50.8810   30.7960   50.1010 H   0  0  0  0  0  0  0  0  0  0  0  0
   44.8980   34.2250   46.1590 O   0  0  0  0  0  0  0  0  0  0  0  0
   45.2100   36.5980   43.4870 C   0  0  0  0  0  0  0  0  0  0  0  0
   45.1200   35.8130   42.3140 C   0  0  0  0  0  0  0  0  0  0  0  0
   44.9470   34.4250   42.5060 C   0  0  0  0  0  0  0  0  0  0  0  0
   44.8780   33.9380   43.7620 N   0  0  0  0  0  0  0  0  0  0  0  0
   44.9690   34.7240   44.8460 C   0  0  0  0  0  0  0  0  0  0  0  0
   45.1330   36.0470   44.7050 N   0  0  0  0  0  0  0  0  0  0  0  0
   45.1760   36.2160   41.3170 H   0  0  0  0  0  0  0  0  0  0  0  0
   44.8700   33.7630   41.6630 H   0  0  0  0  0  0  0  0  0  0  0  0
   45.3790   37.9430   43.3440 O   0  0  0  0  0  0  0  0  0  0  0  0
   45.1700   37.9930   46.1870 H   0  0  0  0  0  0  0  0  0  0  0  0
   45.0770   38.8840   45.6560 N   0  0  0  0  0  0  0  0  0  0  0  0
   45.1730   38.8820   44.3140 C   0  0  0  0  0  0  0  0  0  0  0  0
   45.0130   40.1650   43.9160 N   0  0  0  0  0  0  0  0  0  0  0  0
   44.8250   40.9160   45.0230 C   0  0  0  0  0  0  0  0  0  0  0  0
   44.6090   42.2730   45.2460 C   0  0  0  0  0  0  0  0  0  0  0  0
   44.4460   42.7880   46.4760 N   0  0  0  0  0  0  0  0  0  0  0  0
   44.4910   41.9590   47.5500 C   0  0  0  0  0  0  0  0  0  0  0  0
   44.3740   42.2560   48.5860 H   0  0  0  0  0  0  0  0  0  0  0  0
   44.7000   40.6220   47.3740 N   0  0  0  0  0  0  0  0  0  0  0  0
   44.8620   40.1170   46.1470 C   0  0  0  0  0  0  0  0  0  0  0  0
   44.5590   43.1650   44.1260 N   0  0  0  0  0  0  0  0  0  0  0  0
   45.1730   43.6070   43.4100 H   0  0  0  0  0  0  0  0  0  0  0  0
   43.5480   43.4460   44.0200 H   0  0  0  0  0  0  0  0  0  0  0  0
  2  1  2  1  0  0  0
  2  5  1  0  0  0  0
  3  2  1  0  0  0  0
  4  3  1  0  0  0  0
  5  7  1  0  0  0  0
  6 11  1  6  0  0  0
  6  7  1  0  0  0  0
  6 17  1  0  0  0  0
  7 12  1  1  0  0  0
  8 13  1  0  0  0  0
  8  7  1  0  0  0  0
  9  8  1  0  0  0  0
  9 10  1  0  0  0  0
 10  6  1  0  0  0  0
 10 15  1  0  0  0  0
 14  8  1  0  0  0  0
 16 10  1  0  0  0  0
 17 18  1  0  0  0  0
 18 21  1  0  0  0  0
 19 18  1  0  0  0  0
 20 18  1  0  0  0  0
 21 22  1  0  0  0  0
 23 21  1  0  0  0  0
 24 21  1  0  0  0  0
 25  2  1  0  0  0  0
 26 31  1  0  0  0  0
 27 28  1  0  0  0  0
 27 26  2  0  0  0  0
 28 29  2  0  0  0  0
 29 30  1  0  0  0  0
 30 25  1  0  0  0  0
 31 30  2  0  0  0  0
 32 27  1  0  0  0  0
 33 28  1  0  0  0  0
 34 26  1  0  0  0  0
 34 37  1  0  0  0  0
 36 45  1  0  0  0  0
 36 35  1  0  0  0  0
 37 36  1  0  0  0  0
 38 37  2  0  0  0  0
 38 39  1  0  0  0  0
 39 40  2  0  0  0  0
 39 45  1  0  0  0  0
 40 41  1  0  0  0  0
 41 42  2  0  0  0  0
 42 43  1  0  0  0  0
 44 42  1  0  0  0  0
 45 44  2  0  0  0  0
 46 40  1  0  0  0  0
 47 46  1  0  0  0  0
 48 46  1  0  0  0  0
M  END
>  <minimizedAffinity>
-4.22889948

>  <minimizedRMSD>
0.292733848

$$$$
