
 OpenBabel03252500283D

 48 51  0  0  1  0  0  0  0  0999 V2000
   47.1270   33.0900   46.7340 O   0  0  0  0  0  0  0  0  0  0  0  0
   45.6790   32.7640   46.6250 P   0  0  1  0  0  0  0  0  0  0  0  0
   45.4680   31.5470   45.4670 O   0  0  0  0  0  0  0  0  0  0  0  0
   45.9780   31.8080   44.6740 H   0  0  0  0  0  0  0  0  0  0  0  0
   45.1910   32.2180   48.1040 O   0  0  0  0  0  0  0  0  0  0  0  0
   47.0370   30.7030   48.1280 C   0  0  2  0  0  0  0  0  0  0  0  0
   45.5780   30.9140   48.2830 C   0  0  2  0  0  0  0  0  0  0  0  0
   44.9340   29.9950   47.3690 C   0  0  0  0  0  0  0  0  0  0  0  0
   45.8200   28.9460   47.0900 O   0  0  0  0  0  0  0  0  0  0  0  0
   46.9030   29.1500   47.8730 C   0  0  0  0  0  0  0  0  0  0  0  0
   47.4950   30.9110   47.1460 H   0  0  0  0  0  0  0  0  0  0  0  0
   45.4210   30.7510   49.3880 H   0  0  0  0  0  0  0  0  0  0  0  0
   44.2330   29.3990   48.0580 H   0  0  0  0  0  0  0  0  0  0  0  0
   44.2040   30.2490   46.6320 H   0  0  0  0  0  0  0  0  0  0  0  0
   46.7490   28.7470   48.9160 H   0  0  0  0  0  0  0  0  0  0  0  0
   47.8490   28.7340   47.5370 H   0  0  0  0  0  0  0  0  0  0  0  0
   47.8030   30.8690   49.2190 O   0  0  0  0  0  0  0  0  0  0  0  0
   49.0100   31.3530   49.2420 C   0  0  0  0  0  0  0  0  0  0  0  0
   49.2730   32.3730   49.1040 H   0  0  0  0  0  0  0  0  0  0  0  0
   49.5220   30.8400   48.2550 H   0  0  0  0  0  0  0  0  0  0  0  0
   49.8170   30.6130   50.2960 C   0  0  0  0  0  0  0  0  0  0  0  0
   49.5290   30.9170   51.3190 H   0  0  0  0  0  0  0  0  0  0  0  0
   49.6510   29.5330   50.1070 H   0  0  0  0  0  0  0  0  0  0  0  0
   50.8880   30.8830   50.1000 H   0  0  0  0  0  0  0  0  0  0  0  0
   44.9070   34.2160   46.1660 O   0  0  0  0  0  0  0  0  0  0  0  0
   45.2120   36.5850   43.4900 C   0  0  0  0  0  0  0  0  0  0  0  0
   45.1210   35.7970   42.3180 C   0  0  0  0  0  0  0  0  0  0  0  0
   44.9500   34.4090   42.5130 C   0  0  0  0  0  0  0  0  0  0  0  0
   44.8840   33.9250   43.7690 N   0  0  0  0  0  0  0  0  0  0  0  0
   44.9750   34.7130   44.8520 C   0  0  0  0  0  0  0  0  0  0  0  0
   45.1380   36.0350   44.7090 N   0  0  0  0  0  0  0  0  0  0  0  0
   45.1750   36.1980   41.3210 H   0  0  0  0  0  0  0  0  0  0  0  0
   44.8710   33.7460   41.6710 H   0  0  0  0  0  0  0  0  0  0  0  0
   45.3800   37.9290   43.3450 O   0  0  0  0  0  0  0  0  0  0  0  0
   45.1590   37.9830   46.1860 H   0  0  0  0  0  0  0  0  0  0  0  0
   45.0720   38.8740   45.6540 N   0  0  0  0  0  0  0  0  0  0  0  0
   45.1730   38.8700   44.3130 C   0  0  0  0  0  0  0  0  0  0  0  0
   45.0210   40.1530   43.9120 N   0  0  0  0  0  0  0  0  0  0  0  0
   44.8300   40.9060   45.0170 C   0  0  0  0  0  0  0  0  0  0  0  0
   44.6200   42.2640   45.2390 C   0  0  0  0  0  0  0  0  0  0  0  0
   44.4550   42.7820   46.4670 N   0  0  0  0  0  0  0  0  0  0  0  0
   44.4920   41.9530   47.5430 C   0  0  0  0  0  0  0  0  0  0  0  0
   44.3720   42.2520   48.5780 H   0  0  0  0  0  0  0  0  0  0  0  0
   44.6950   40.6160   47.3690 N   0  0  0  0  0  0  0  0  0  0  0  0
   44.8600   40.1080   46.1430 C   0  0  0  0  0  0  0  0  0  0  0  0
   44.5790   43.1550   44.1170 N   0  0  0  0  0  0  0  0  0  0  0  0
   45.1980   43.5940   43.4030 H   0  0  0  0  0  0  0  0  0  0  0  0
   43.5690   43.4400   44.0070 H   0  0  0  0  0  0  0  0  0  0  0  0
  2  1  2  1  0  0  0
  2  5  1  0  0  0  0
  3  2  1  0  0  0  0
  4  3  1  0  0  0  0
  5  7  1  0  0  0  0
  6 11  1  6  0  0  0
  6  7  1  0  0  0  0
  6 17  1  0  0  0  0
  7 12  1  1  0  0  0
  8 13  1  0  0  0  0
  8  7  1  0  0  0  0
  9  8  1  0  0  0  0
  9 10  1  0  0  0  0
 10  6  1  0  0  0  0
 10 15  1  0  0  0  0
 14  8  1  0  0  0  0
 16 10  1  0  0  0  0
 17 18  1  0  0  0  0
 18 21  1  0  0  0  0
 19 18  1  0  0  0  0
 20 18  1  0  0  0  0
 21 22  1  0  0  0  0
 23 21  1  0  0  0  0
 24 21  1  0  0  0  0
 25  2  1  0  0  0  0
 26 31  1  0  0  0  0
 27 28  1  0  0  0  0
 27 26  2  0  0  0  0
 28 29  2  0  0  0  0
 29 30  1  0  0  0  0
 30 25  1  0  0  0  0
 31 30  2  0  0  0  0
 32 27  1  0  0  0  0
 33 28  1  0  0  0  0
 34 26  1  0  0  0  0
 34 37  1  0  0  0  0
 36 45  1  0  0  0  0
 36 35  1  0  0  0  0
 37 36  1  0  0  0  0
 38 37  2  0  0  0  0
 38 39  1  0  0  0  0
 39 40  2  0  0  0  0
 39 45  1  0  0  0  0
 40 41  1  0  0  0  0
 41 42  2  0  0  0  0
 42 43  1  0  0  0  0
 44 42  1  0  0  0  0
 45 44  2  0  0  0  0
 46 40  1  0  0  0  0
 47 46  1  0  0  0  0
 48 46  1  0  0  0  0
M  END
>  <minimizedAffinity>
-4.21986341

>  <minimizedRMSD>
1.28116131

$$$$
