
 OpenBabel03242523303D

 27 29  0  0  0  0  0  0  0  0999 V2000
   46.5120   28.7700   44.3200 H   0  0  0  0  0  0  0  0  0  0  0  0
   47.0530   28.9510   45.1980 N   0  0  0  0  0  0  0  0  0  0  0  0
   47.4030   30.1900   45.5770 C   0  0  0  0  0  0  0  0  0  0  0  0
   48.0800   30.0650   46.7340 N   0  0  0  0  0  0  0  0  0  0  0  0
   48.1400   28.7760   47.0550 C   0  0  0  0  0  0  0  0  0  0  0  0
   48.7120   28.1250   48.1250 C   0  0  0  0  0  0  0  0  0  0  0  0
   48.6240   26.7770   48.2080 N   0  0  0  0  0  0  0  0  0  0  0  0
   47.9710   26.0930   47.2260 C   0  0  0  0  0  0  0  0  0  0  0  0
   47.9710   25.0260   47.4070 H   0  0  0  0  0  0  0  0  0  0  0  0
   47.4110   26.7170   46.1790 N   0  0  0  0  0  0  0  0  0  0  0  0
   47.4890   28.0450   46.0840 C   0  0  0  0  0  0  0  0  0  0  0  0
   49.3750   28.9110   49.1070 N   0  0  0  0  0  0  0  0  0  0  0  0
   48.9830   29.8470   49.4140 H   0  0  0  0  0  0  0  0  0  0  0  0
   50.2300   28.8490   49.6920 H   0  0  0  0  0  0  0  0  0  0  0  0
   47.1320   31.7880   44.8510 S   0  0  0  0  0  0  0  0  0  0  0  0
   46.1290   32.8590   45.9170 C   0  0  0  0  0  0  0  0  0  0  0  0
   45.2850   32.3130   46.3690 H   0  0  0  0  0  0  0  0  0  0  0  0
   46.7470   33.3050   46.7500 H   0  0  0  0  0  0  0  0  0  0  0  0
   44.4790   35.9730   44.7360 C   0  0  0  0  0  0  0  0  0  0  0  0
   45.0140   36.1230   43.4690 C   0  0  0  0  0  0  0  0  0  0  0  0
   45.9210   35.1630   43.0440 C   0  0  0  0  0  0  0  0  0  0  0  0
   46.2600   34.1250   43.8540 N   0  0  0  0  0  0  0  0  0  0  0  0
   45.7160   34.0120   45.0900 C   0  0  0  0  0  0  0  0  0  0  0  0
   44.8370   34.9370   45.5080 N   0  0  0  0  0  0  0  0  0  0  0  0
   43.7800   36.7500   45.0120 H   0  0  0  0  0  0  0  0  0  0  0  0
   44.8300   36.8940   42.7320 H   0  0  0  0  0  0  0  0  0  0  0  0
   46.4200   35.1530   42.0730 H   0  0  0  0  0  0  0  0  0  0  0  0
  1  2  1  0  0  0  0
  2  3  1  0  0  0  0
  2 11  1  0  0  0  0
  3  4  2  0  0  0  0
  4  5  1  0  0  0  0
  5  6  1  0  0  0  0
  6  7  2  0  0  0  0
  6 12  1  0  0  0  0
  8  9  1  0  0  0  0
  8  7  1  0  0  0  0
 10  8  2  0  0  0  0
 11 10  1  0  0  0  0
 11  5  2  0  0  0  0
 12 13  1  0  0  0  0
 12 14  1  0  0  0  0
 15  3  1  0  0  0  0
 15 16  1  0  0  0  0
 16 17  1  0  0  0  0
 16 18  1  0  0  0  0
 19 25  1  0  0  0  0
 19 24  1  0  0  0  0
 20 19  2  0  0  0  0
 21 20  1  0  0  0  0
 21 22  2  0  0  0  0
 22 23  1  0  0  0  0
 23 24  2  0  0  0  0
 23 16  1  0  0  0  0
 26 20  1  0  0  0  0
 27 21  1  0  0  0  0
M  END
>  <minimizedAffinity>
-3.84972882

>  <minimizedRMSD>
1.44101799

$$$$
