
 OpenBabel03242518153D

 37 40  0  0  0  0  0  0  0  0999 V2000
   48.1430   33.1410   43.0260 C   0  0  0  0  0  0  0  0  0  0  0  0
   48.4630   31.7600   43.0340 C   0  0  0  0  0  0  0  0  0  0  0  0
   49.5840   31.3200   42.4400 C   0  0  0  0  0  0  0  0  0  0  0  0
   50.4370   32.2930   41.8070 C   0  0  0  0  0  0  0  0  0  0  0  0
   49.6190   33.8610   42.0640 S   0  0  0  0  0  0  0  0  0  0  0  0
   47.7160   31.1890   43.5500 H   0  0  0  0  0  0  0  0  0  0  0  0
   49.8380   30.2710   42.4390 H   0  0  0  0  0  0  0  0  0  0  0  0
   47.0930   33.9630   43.5270 C   0  0  0  0  0  0  0  0  0  0  0  0
   46.1870   33.3020   43.6780 H   0  0  0  0  0  0  0  0  0  0  0  0
   47.3460   34.2760   44.5510 H   0  0  0  0  0  0  0  0  0  0  0  0
   46.7380   35.1600   42.7330 C   0  0  0  0  0  0  0  0  0  0  0  0
   46.7590   36.0770   43.3290 H   0  0  0  0  0  0  0  0  0  0  0  0
   47.5520   35.2870   41.9640 H   0  0  0  0  0  0  0  0  0  0  0  0
   45.4800   34.9420   42.0330 C   0  0  0  0  0  0  0  0  0  0  0  0
   44.3000   35.5120   42.4790 C   0  0  0  0  0  0  0  0  0  0  0  0
   43.1370   35.2570   41.7570 C   0  0  0  0  0  0  0  0  0  0  0  0
   43.2250   34.4680   40.6600 N   0  0  0  0  0  0  0  0  0  0  0  0
   44.3950   33.9320   40.2580 C   0  0  0  0  0  0  0  0  0  0  0  0
   45.4910   34.1680   40.9340 N   0  0  0  0  0  0  0  0  0  0  0  0
   44.2560   36.1390   43.3570 H   0  0  0  0  0  0  0  0  0  0  0  0
   42.1750   35.6700   42.0480 H   0  0  0  0  0  0  0  0  0  0  0  0
   44.3750   33.3120   39.3710 H   0  0  0  0  0  0  0  0  0  0  0  0
   51.5560   32.0610   41.1860 O   0  0  0  0  0  0  0  0  0  0  0  0
   49.5070   32.4930   39.4440 H   0  0  0  0  0  0  0  0  0  0  0  0
   50.4300   32.0200   39.2100 N   0  0  0  0  0  0  0  0  0  0  0  0
   51.5870   31.6820   39.8510 C   0  0  0  0  0  0  0  0  0  0  0  0
   52.3660   31.0850   38.9380 N   0  0  0  0  0  0  0  0  0  0  0  0
   51.7610   31.0250   37.7410 C   0  0  0  0  0  0  0  0  0  0  0  0
   52.2680   30.4800   36.5770 C   0  0  0  0  0  0  0  0  0  0  0  0
   51.4350   30.5530   35.4960 N   0  0  0  0  0  0  0  0  0  0  0  0
   50.2090   31.1350   35.6280 C   0  0  0  0  0  0  0  0  0  0  0  0
   49.5660   31.1810   34.7550 H   0  0  0  0  0  0  0  0  0  0  0  0
   49.7640   31.6500   36.7880 N   0  0  0  0  0  0  0  0  0  0  0  0
   50.5280   31.6190   37.9080 C   0  0  0  0  0  0  0  0  0  0  0  0
   53.5630   29.8940   36.5340 N   0  0  0  0  0  0  0  0  0  0  0  0
   54.5060   30.2470   36.2470 H   0  0  0  0  0  0  0  0  0  0  0  0
   53.3970   28.9090   36.8860 H   0  0  0  0  0  0  0  0  0  0  0  0
  1  2  2  0  0  0  0
  1  8  1  0  0  0  0
  2  6  1  0  0  0  0
  3  2  1  0  0  0  0
  4  5  1  0  0  0  0
  4  3  2  0  0  0  0
  5  1  1  0  0  0  0
  7  3  1  0  0  0  0
  8  9  1  0  0  0  0
  8 10  1  0  0  0  0
 11 12  1  0  0  0  0
 11  8  1  0  0  0  0
 13 11  1  0  0  0  0
 14 15  1  0  0  0  0
 14 11  1  0  0  0  0
 15 20  1  0  0  0  0
 16 21  1  0  0  0  0
 16 15  2  0  0  0  0
 17 16  1  0  0  0  0
 18 17  2  0  0  0  0
 18 19  1  0  0  0  0
 19 14  2  0  0  0  0
 22 18  1  0  0  0  0
 23  4  1  0  0  0  0
 25 24  1  0  0  0  0
 25 26  1  0  0  0  0
 26 23  1  0  0  0  0
 27 26  2  0  0  0  0
 28 34  1  0  0  0  0
 28 27  1  0  0  0  0
 29 28  2  0  0  0  0
 30 31  2  0  0  0  0
 30 29  1  0  0  0  0
 31 33  1  0  0  0  0
 32 31  1  0  0  0  0
 33 34  2  0  0  0  0
 34 25  1  0  0  0  0
 35 29  1  0  0  0  0
 35 37  1  0  0  0  0
 36 35  1  0  0  0  0
M  END
>  <minimizedAffinity>
-4.69554901

>  <minimizedRMSD>
1.86231232

$$$$
