
 OpenBabel03242519413D

 34 36  0  0  0  0  0  0  0  0999 V2000
   48.0160   32.7540   42.2290 O   0  0  0  0  0  0  0  0  0  0  0  0
   47.0970   33.7700   41.5010 P   0  0  2  0  0  0  0  0  0  0  0  0
   45.5040   33.6160   42.1260 O   0  0  0  0  0  0  0  0  0  0  0  0
   44.3600   35.9700   44.6590 C   0  0  0  0  0  0  0  0  0  0  0  0
   44.6390   35.4000   43.3940 C   0  0  0  0  0  0  0  0  0  0  0  0
   45.2450   34.1380   43.3750 C   0  0  0  0  0  0  0  0  0  0  0  0
   45.5260   33.5410   44.5480 N   0  0  0  0  0  0  0  0  0  0  0  0
   45.2460   34.1120   45.7410 C   0  0  0  0  0  0  0  0  0  0  0  0
   44.6670   35.3190   45.8060 N   0  0  0  0  0  0  0  0  0  0  0  0
   43.8900   36.9480   44.6630 H   0  0  0  0  0  0  0  0  0  0  0  0
   44.3650   35.9780   42.5170 H   0  0  0  0  0  0  0  0  0  0  0  0
   45.5210   33.5310   46.6250 H   0  0  0  0  0  0  0  0  0  0  0  0
   47.0660   33.4110   39.8850 O   0  0  0  0  0  0  0  0  0  0  0  0
   46.0150   33.2270   39.0450 C   0  0  0  0  0  0  0  0  0  0  0  0
   46.2910   32.7490   37.7890 O   0  0  0  0  0  0  0  0  0  0  0  0
   44.0360   35.1650   39.8370 H   0  0  0  0  0  0  0  0  0  0  0  0
   43.6940   34.2930   39.3200 N   0  0  0  0  0  0  0  0  0  0  0  0
   44.5420   33.3160   38.8920 C   0  0  0  0  0  0  0  0  0  0  0  0
   43.6990   32.4800   38.3330 N   0  0  0  0  0  0  0  0  0  0  0  0
   42.4480   32.9510   38.4340 C   0  0  0  0  0  0  0  0  0  0  0  0
   41.3950   32.2410   37.9170 C   0  0  0  0  0  0  0  0  0  0  0  0
   40.1980   32.8670   38.1110 N   0  0  0  0  0  0  0  0  0  0  0  0
   40.0840   34.0480   38.7400 C   0  0  0  0  0  0  0  0  0  0  0  0
   39.1150   34.5220   38.8790 H   0  0  0  0  0  0  0  0  0  0  0  0
   41.2060   34.6680   39.2170 N   0  0  0  0  0  0  0  0  0  0  0  0
   42.4080   34.1510   39.0830 C   0  0  0  0  0  0  0  0  0  0  0  0
   41.4110   30.9920   37.2380 N   0  0  0  0  0  0  0  0  0  0  0  0
   41.3370   31.1310   36.2120 H   0  0  0  0  0  0  0  0  0  0  0  0
   41.4890   30.0750   37.7620 H   0  0  0  0  0  0  0  0  0  0  0  0
   47.6620   35.2850   41.8660 O   0  0  0  0  0  0  0  0  0  0  0  0
   48.9020   35.5380   41.2880 C   0  0  0  0  0  0  0  0  0  0  0  0
   49.4160   36.7660   41.6660 F   0  0  0  0  0  0  0  0  0  0  0  0
   49.7620   34.5140   41.5320 F   0  0  0  0  0  0  0  0  0  0  0  0
   48.6780   35.6140   39.9160 F   0  0  0  0  0  0  0  0  0  0  0  0
  2 30  1  0  0  0  0
  2  3  1  0  0  0  0
  2  1  2  1  0  0  0
  3  6  1  0  0  0  0
  4 10  1  0  0  0  0
  4  9  1  0  0  0  0
  5  4  2  0  0  0  0
  6  5  1  0  0  0  0
  6  7  2  0  0  0  0
  7  8  1  0  0  0  0
  8  9  2  0  0  0  0
  8 12  1  0  0  0  0
 11  5  1  0  0  0  0
 13  2  1  0  0  0  0
 14 13  1  0  0  0  0
 15 14  2  0  0  0  0
 17 16  1  0  0  0  0
 18 14  1  0  0  0  0
 18 17  1  0  0  0  0
 19 20  1  0  0  0  0
 19 18  2  0  0  0  0
 20 26  1  0  0  0  0
 21 22  1  0  0  0  0
 21 20  2  0  0  0  0
 22 23  2  0  0  0  0
 23 24  1  0  0  0  0
 23 25  1  0  0  0  0
 26 25  2  0  0  0  0
 26 17  1  0  0  0  0
 27 29  1  0  0  0  0
 27 21  1  0  0  0  0
 28 27  1  0  0  0  0
 31 33  1  0  0  0  0
 31 32  1  0  0  0  0
 31 30  1  0  0  0  0
 34 31  1  0  0  0  0
M  END
>  <minimizedAffinity>
-5.94372606

>  <minimizedRMSD>
3.6693511

$$$$
