
 OpenBabel03252503163D

 41 45  0  0  0  0  0  0  0  0999 V2000
   45.3680   34.1630   40.7380 C   0  0  0  0  0  0  0  0  0  0  0  0
   43.9940   34.2750   40.6430 C   0  0  0  0  0  0  0  0  0  0  0  0
   43.6540   33.6330   39.5140 N   0  0  0  0  0  0  0  0  0  0  0  0
   44.7870   33.1420   38.9330 C   0  0  0  0  0  0  0  0  0  0  0  0
   45.8460   33.4720   39.6930 N   0  0  0  0  0  0  0  0  0  0  0  0
   44.9510   32.3960   37.7370 N   0  0  0  0  0  0  0  0  0  0  0  0
   43.3620   34.7720   41.3360 H   0  0  0  0  0  0  0  0  0  0  0  0
   44.8060   31.3800   37.9690 H   0  0  0  0  0  0  0  0  0  0  0  0
   45.1750   32.8830   36.8330 H   0  0  0  0  0  0  0  0  0  0  0  0
   41.6260   35.4670   38.6460 H   0  0  0  0  0  0  0  0  0  0  0  0
   41.4980   34.4460   38.6160 N   0  0  0  0  0  0  0  0  0  0  0  0
   42.3440   33.4720   38.9810 C   0  0  0  0  0  0  0  0  0  0  0  0
   41.7410   32.2880   38.7600 N   0  0  0  0  0  0  0  0  0  0  0  0
   40.5220   32.4850   38.2570 C   0  0  0  0  0  0  0  0  0  0  0  0
   39.4680   31.6910   37.8430 C   0  0  0  0  0  0  0  0  0  0  0  0
   38.3120   32.1800   37.3600 N   0  0  0  0  0  0  0  0  0  0  0  0
   38.1850   33.5250   37.2810 C   0  0  0  0  0  0  0  0  0  0  0  0
   37.3600   34.1280   36.9310 H   0  0  0  0  0  0  0  0  0  0  0  0
   39.2000   34.3190   37.6790 N   0  0  0  0  0  0  0  0  0  0  0  0
   40.3600   33.8410   38.1630 C   0  0  0  0  0  0  0  0  0  0  0  0
   39.6330   30.2900   37.9400 N   0  0  0  0  0  0  0  0  0  0  0  0
   40.0200   29.9340   38.8240 H   0  0  0  0  0  0  0  0  0  0  0  0
   39.5440   29.3530   37.5070 H   0  0  0  0  0  0  0  0  0  0  0  0
   46.2220   34.7180   41.8260 C   0  0  0  0  0  0  0  0  0  0  0  0
   47.4450   35.0630   41.6740 O   0  0  0  0  0  0  0  0  0  0  0  0
   45.0800   36.1050   43.4950 C   0  0  0  0  0  0  0  0  0  0  0  0
   45.7010   34.8950   43.1330 C   0  0  0  0  0  0  0  0  0  0  0  0
   45.7500   33.9480   44.1340 C   0  0  0  0  0  0  0  0  0  0  0  0
   45.2420   34.1620   45.3570 N   0  0  0  0  0  0  0  0  0  0  0  0
   44.6540   35.3450   45.6580 C   0  0  0  0  0  0  0  0  0  0  0  0
   44.5760   36.3080   44.7270 N   0  0  0  0  0  0  0  0  0  0  0  0
   44.9930   36.9210   42.7710 H   0  0  0  0  0  0  0  0  0  0  0  0
   44.2620   35.4830   46.6360 H   0  0  0  0  0  0  0  0  0  0  0  0
   46.3580   32.6980   43.8620 C   0  0  0  0  0  0  0  0  0  0  0  0
   47.6310   32.2100   43.9250 C   0  0  0  0  0  0  0  0  0  0  0  0
   47.9280   30.9670   43.6050 C   0  0  0  0  0  0  0  0  0  0  0  0
   46.9040   30.1820   43.2040 C   0  0  0  0  0  0  0  0  0  0  0  0
   45.4450   31.2790   43.2920 S   0  0  0  0  0  0  0  0  0  0  0  0
   48.3740   32.9590   44.2690 H   0  0  0  0  0  0  0  0  0  0  0  0
   48.9190   30.5310   43.6370 H   0  0  0  0  0  0  0  0  0  0  0  0
   46.9330   29.0730   42.8810 H   0  0  0  0  0  0  0  0  0  0  0  0
  1 24  1  0  0  0  0
  2  1  2  0  0  0  0
  2  7  1  0  0  0  0
  3  2  1  0  0  0  0
  4  3  1  0  0  0  0
  4  5  2  0  0  0  0
  5  1  1  0  0  0  0
  6  8  1  0  0  0  0
  6  4  1  0  0  0  0
  9  6  1  0  0  0  0
 11 10  1  0  0  0  0
 11 12  1  0  0  0  0
 12  3  1  0  0  0  0
 13 12  2  0  0  0  0
 14 13  1  0  0  0  0
 15 21  1  0  0  0  0
 15 14  2  0  0  0  0
 16 15  1  0  0  0  0
 17 16  2  0  0  0  0
 17 19  1  0  0  0  0
 18 17  1  0  0  0  0
 19 20  2  0  0  0  0
 20 14  1  0  0  0  0
 20 11  1  0  0  0  0
 21 22  1  0  0  0  0
 23 21  1  0  0  0  0
 24 27  1  0  0  0  0
 25 24  2  0  0  0  0
 26 31  1  0  0  0  0
 27 26  2  0  0  0  0
 27 28  1  0  0  0  0
 28 29  2  0  0  0  0
 29 30  1  0  0  0  0
 30 33  1  0  0  0  0
 31 30  2  0  0  0  0
 32 26  1  0  0  0  0
 34 35  2  0  0  0  0
 34 28  1  0  0  0  0
 35 39  1  0  0  0  0
 36 40  1  0  0  0  0
 36 35  1  0  0  0  0
 37 38  1  0  0  0  0
 37 36  2  0  0  0  0
 38 34  1  0  0  0  0
 41 37  1  0  0  0  0
M  END
>  <minimizedAffinity>
-6.47405434

>  <minimizedRMSD>
0.634224117

$$$$
