
 OpenBabel03242515563D

 42 46  0  0  0  0  0  0  0  0999 V2000
   46.9510   32.3200   46.1410 C   0  0  0  0  0  0  0  0  0  0  0  0
   47.1550   32.6410   47.5070 C   0  0  0  0  0  0  0  0  0  0  0  0
   47.5810   31.7340   48.4410 C   0  0  0  0  0  0  0  0  0  0  0  0
   47.8330   30.4540   48.0920 C   0  0  0  0  0  0  0  0  0  0  0  0
   47.6500   30.0860   46.7750 C   0  0  0  0  0  0  0  0  0  0  0  0
   47.9200   28.7820   46.4550 C   0  0  0  0  0  0  0  0  0  0  0  0
   47.7580   28.3500   45.1560 C   0  0  0  0  0  0  0  0  0  0  0  0
   47.3180   29.2910   44.2300 C   0  0  0  0  0  0  0  0  0  0  0  0
   47.0750   30.5500   44.6110 C   0  0  0  0  0  0  0  0  0  0  0  0
   47.2230   31.0030   45.8540 C   0  0  0  0  0  0  0  0  0  0  0  0
   46.9650   33.6530   47.8270 H   0  0  0  0  0  0  0  0  0  0  0  0
   47.7100   32.0610   49.4620 H   0  0  0  0  0  0  0  0  0  0  0  0
   48.1660   29.7700   48.8450 H   0  0  0  0  0  0  0  0  0  0  0  0
   48.2660   28.0990   47.2630 H   0  0  0  0  0  0  0  0  0  0  0  0
   48.0130   27.2770   45.0460 H   0  0  0  0  0  0  0  0  0  0  0  0
   47.2440   28.6810   43.3450 H   0  0  0  0  0  0  0  0  0  0  0  0
   44.7640   34.8030   44.7400 C   0  0  0  0  0  0  0  0  0  0  0  0
   45.5000   35.2660   43.6060 C   0  0  0  0  0  0  0  0  0  0  0  0
   46.7730   34.7020   43.3130 C   0  0  0  0  0  0  0  0  0  0  0  0
   47.2020   33.7440   44.1510 N   0  0  0  0  0  0  0  0  0  0  0  0
   46.5610   33.3120   45.1720 C   0  0  0  0  0  0  0  0  0  0  0  0
   45.3360   33.8560   45.4520 N   0  0  0  0  0  0  0  0  0  0  0  0
   43.7990   35.2420   44.9490 H   0  0  0  0  0  0  0  0  0  0  0  0
   47.2670   35.0960   42.4530 H   0  0  0  0  0  0  0  0  0  0  0  0
   44.8730   36.2920   42.8420 N   0  0  0  0  0  0  0  0  0  0  0  0
   45.0450   36.1020   41.8100 H   0  0  0  0  0  0  0  0  0  0  0  0
   44.3650   37.0390   43.3710 H   0  0  0  0  0  0  0  0  0  0  0  0
   46.6650   31.2160   43.5020 O   0  0  0  0  0  0  0  0  0  0  0  0
   46.3040   30.5350   40.5630 H   0  0  0  0  0  0  0  0  0  0  0  0
   47.1670   30.9090   40.9740 N   0  0  0  0  0  0  0  0  0  0  0  0
   47.2370   31.1620   42.2540 C   0  0  0  0  0  0  0  0  0  0  0  0
   48.5420   31.5560   42.3490 N   0  0  0  0  0  0  0  0  0  0  0  0
   49.1740   31.5300   41.1850 C   0  0  0  0  0  0  0  0  0  0  0  0
   50.4730   31.8290   40.7540 C   0  0  0  0  0  0  0  0  0  0  0  0
   50.7670   31.6770   39.4310 N   0  0  0  0  0  0  0  0  0  0  0  0
   49.8190   31.2440   38.5520 C   0  0  0  0  0  0  0  0  0  0  0  0
   50.1480   31.1520   37.5070 H   0  0  0  0  0  0  0  0  0  0  0  0
   48.5480   30.9470   38.9480 N   0  0  0  0  0  0  0  0  0  0  0  0
   48.2670   31.0990   40.2500 C   0  0  0  0  0  0  0  0  0  0  0  0
   51.4310   32.2790   41.7100 N   0  0  0  0  0  0  0  0  0  0  0  0
   51.1700   33.2470   42.0600 H   0  0  0  0  0  0  0  0  0  0  0  0
   52.2960   31.8480   42.1050 H   0  0  0  0  0  0  0  0  0  0  0  0
  1  2  1  0  0  0  0
  2 11  1  0  0  0  0
  2  3  2  0  0  0  0
  3 12  1  0  0  0  0
  4  3  1  0  0  0  0
  4 13  1  0  0  0  0
  5  4  2  0  0  0  0
  6  5  1  0  0  0  0
  6 14  1  0  0  0  0
  7  6  2  0  0  0  0
  8  9  2  0  0  0  0
  8  7  1  0  0  0  0
  9 10  1  0  0  0  0
 10  1  2  0  0  0  0
 10  5  1  0  0  0  0
 15  7  1  0  0  0  0
 16  8  1  0  0  0  0
 17 23  1  0  0  0  0
 17 22  1  0  0  0  0
 18 17  2  0  0  0  0
 19 18  1  0  0  0  0
 19 20  2  0  0  0  0
 20 21  1  0  0  0  0
 21 22  2  0  0  0  0
 21  1  1  0  0  0  0
 24 19  1  0  0  0  0
 25 27  1  0  0  0  0
 25 18  1  0  0  0  0
 26 25  1  0  0  0  0
 28  9  1  0  0  0  0
 29 30  1  0  0  0  0
 30 31  1  0  0  0  0
 31 32  2  0  0  0  0
 31 28  1  0  0  0  0
 33 32  1  0  0  0  0
 34 33  1  0  0  0  0
 34 40  1  0  0  0  0
 35 34  2  0  0  0  0
 36 38  2  0  0  0  0
 36 35  1  0  0  0  0
 37 36  1  0  0  0  0
 38 39  1  0  0  0  0
 39 30  1  0  0  0  0
 39 33  2  0  0  0  0
 40 41  1  0  0  0  0
 40 42  1  0  0  0  0
M  END
>  <minimizedAffinity>
-5.43417645

>  <minimizedRMSD>
1.61340749

$$$$
