
 OpenBabel03242521443D

 43 46  0  0  1  0  0  0  0  0999 V2000
   45.4840   34.6520   43.8850 C   0  0  0  0  0  0  0  0  0  0  0  0
   46.5590   33.9970   43.2600 C   0  0  0  0  0  0  0  0  0  0  0  0
   47.3090   33.0710   43.9970 C   0  0  0  0  0  0  0  0  0  0  0  0
   46.9560   32.8610   45.2620 N   0  0  0  0  0  0  0  0  0  0  0  0
   45.9180   33.5000   45.8500 C   0  0  0  0  0  0  0  0  0  0  0  0
   45.1800   34.3960   45.1620 N   0  0  0  0  0  0  0  0  0  0  0  0
   46.7490   34.2480   42.2340 H   0  0  0  0  0  0  0  0  0  0  0  0
   45.6980   33.2770   46.8680 H   0  0  0  0  0  0  0  0  0  0  0  0
   49.2370   33.3230   42.4460 C   0  0  2  0  0  0  0  0  0  0  0  0
   48.4120   32.4230   43.2960 C   0  0  2  0  0  0  0  0  0  0  0  0
   47.9950   31.4540   42.3360 O   0  0  0  0  0  0  0  0  0  0  0  0
   49.1970   31.0880   41.7560 C   0  0  0  0  0  0  0  0  0  0  0  0
   50.1500   32.2480   41.8160 C   0  0  1  0  0  0  0  0  0  0  0  0
   48.6750   33.7130   41.5530 H   0  0  0  0  0  0  0  0  0  0  0  0
   49.0920   31.8540   43.9810 H   0  0  0  0  0  0  0  0  0  0  0  0
   49.0160   30.8490   40.6870 H   0  0  0  0  0  0  0  0  0  0  0  0
   49.6260   30.2370   42.2940 H   0  0  0  0  0  0  0  0  0  0  0  0
   51.0130   32.0710   42.4900 H   0  0  0  0  0  0  0  0  0  0  0  0
   49.9120   34.2930   43.1230 O   0  0  0  0  0  0  0  0  0  0  0  0
   49.9820   35.1600   42.6610 H   0  0  0  0  0  0  0  0  0  0  0  0
   50.5670   32.6950   40.5670 O   0  0  0  0  0  0  0  0  0  0  0  0
   50.7020   33.6620   40.6340 H   0  0  0  0  0  0  0  0  0  0  0  0
   44.6940   35.6510   43.0810 C   0  0  0  0  0  0  0  0  0  0  0  0
   45.2210   35.8600   42.1410 H   0  0  0  0  0  0  0  0  0  0  0  0
   43.6660   35.2740   42.9550 H   0  0  0  0  0  0  0  0  0  0  0  0
   45.3840   38.0310   43.7800 C   0  0  0  0  0  0  0  0  0  0  0  0
   46.2670   38.0300   42.8830 O   0  0  0  0  0  0  0  0  0  0  0  0
   44.6110   36.8570   43.8980 N   0  0  0  0  0  0  0  0  0  0  0  0
   43.8860   36.8540   44.6700 H   0  0  0  0  0  0  0  0  0  0  0  0
   45.3310   38.3970   46.6470 H   0  0  0  0  0  0  0  0  0  0  0  0
   45.1570   39.1880   46.0100 N   0  0  0  0  0  0  0  0  0  0  0  0
   45.1500   39.1680   44.6620 C   0  0  0  0  0  0  0  0  0  0  0  0
   44.8800   40.4230   44.2580 N   0  0  0  0  0  0  0  0  0  0  0  0
   44.7150   41.2370   45.3190 C   0  0  0  0  0  0  0  0  0  0  0  0
   44.4290   42.5890   45.3530 C   0  0  0  0  0  0  0  0  0  0  0  0
   44.3280   43.1120   46.6030 N   0  0  0  0  0  0  0  0  0  0  0  0
   44.4920   42.3870   47.7200 C   0  0  0  0  0  0  0  0  0  0  0  0
   44.4040   42.8420   48.7090 H   0  0  0  0  0  0  0  0  0  0  0  0
   44.7740   41.0580   47.6590 N   0  0  0  0  0  0  0  0  0  0  0  0
   44.8920   40.4550   46.4410 C   0  0  0  0  0  0  0  0  0  0  0  0
   44.2530   43.3690   44.1700 N   0  0  0  0  0  0  0  0  0  0  0  0
   44.0490   42.8170   43.2940 H   0  0  0  0  0  0  0  0  0  0  0  0
   44.3460   44.4040   44.3120 H   0  0  0  0  0  0  0  0  0  0  0  0
  1  6  1  0  0  0  0
  2  1  2  0  0  0  0
  2  3  1  0  0  0  0
  3  4  2  0  0  0  0
  4  5  1  0  0  0  0
  5  8  1  0  0  0  0
  6  5  2  0  0  0  0
  7  2  1  0  0  0  0
  9 14  1  6  0  0  0
  9 19  1  0  0  0  0
  9 10  1  0  0  0  0
 10 15  1  1  0  0  0
 10  3  1  0  0  0  0
 11 10  1  0  0  0  0
 12 13  1  0  0  0  0
 12 17  1  0  0  0  0
 12 11  1  0  0  0  0
 13  9  1  0  0  0  0
 13 18  1  1  0  0  0
 16 12  1  0  0  0  0
 20 19  1  0  0  0  0
 21 22  1  0  0  0  0
 21 13  1  0  0  0  0
 23  1  1  0  0  0  0
 23 28  1  0  0  0  0
 24 23  1  0  0  0  0
 25 23  1  0  0  0  0
 26 28  1  0  0  0  0
 26 32  1  0  0  0  0
 27 26  2  0  0  0  0
 28 29  1  0  0  0  0
 31 40  1  0  0  0  0
 31 30  1  0  0  0  0
 32 31  1  0  0  0  0
 33 32  2  0  0  0  0
 33 34  1  0  0  0  0
 34 35  2  0  0  0  0
 34 40  1  0  0  0  0
 35 36  1  0  0  0  0
 36 37  2  0  0  0  0
 37 38  1  0  0  0  0
 39 37  1  0  0  0  0
 40 39  2  0  0  0  0
 41 43  1  0  0  0  0
 41 35  1  0  0  0  0
 42 41  1  0  0  0  0
M  END
>  <minimizedAffinity>
-2.90697551

>  <minimizedRMSD>
1.59727824

$$$$
