
 OpenBabel03242523303D

 27 29  0  0  0  0  0  0  0  0999 V2000
   48.5850   29.3400   44.9880 H   0  0  0  0  0  0  0  0  0  0  0  0
   48.7740   30.0380   44.2320 N   0  0  0  0  0  0  0  0  0  0  0  0
   47.8980   31.0060   43.9170 C   0  0  0  0  0  0  0  0  0  0  0  0
   48.4500   31.7170   42.9150 N   0  0  0  0  0  0  0  0  0  0  0  0
   49.6370   31.1940   42.6260 C   0  0  0  0  0  0  0  0  0  0  0  0
   50.5900   31.5440   41.6930 C   0  0  0  0  0  0  0  0  0  0  0  0
   51.7340   30.8260   41.6090 N   0  0  0  0  0  0  0  0  0  0  0  0
   51.9180   29.7690   42.4510 C   0  0  0  0  0  0  0  0  0  0  0  0
   52.8680   29.2800   42.2840 H   0  0  0  0  0  0  0  0  0  0  0  0
   50.9980   29.4190   43.3620 N   0  0  0  0  0  0  0  0  0  0  0  0
   49.8650   30.1180   43.4570 C   0  0  0  0  0  0  0  0  0  0  0  0
   50.3220   32.6590   40.8540 N   0  0  0  0  0  0  0  0  0  0  0  0
   49.8430   33.5260   41.2320 H   0  0  0  0  0  0  0  0  0  0  0  0
   50.4650   32.9270   39.8610 H   0  0  0  0  0  0  0  0  0  0  0  0
   46.2990   31.4320   44.5600 S   0  0  0  0  0  0  0  0  0  0  0  0
   46.3740   32.8520   45.6870 C   0  0  0  0  0  0  0  0  0  0  0  0
   45.8340   32.6570   46.6270 H   0  0  0  0  0  0  0  0  0  0  0  0
   47.4420   33.1190   45.9410 H   0  0  0  0  0  0  0  0  0  0  0  0
   44.4710   35.8940   44.7200 C   0  0  0  0  0  0  0  0  0  0  0  0
   44.9660   36.1580   43.4550 C   0  0  0  0  0  0  0  0  0  0  0  0
   45.9350   35.2960   42.9600 C   0  0  0  0  0  0  0  0  0  0  0  0
   46.3680   34.2410   43.7010 N   0  0  0  0  0  0  0  0  0  0  0  0
   45.8590   34.0160   44.9360 C   0  0  0  0  0  0  0  0  0  0  0  0
   44.9210   34.8440   45.4230 N   0  0  0  0  0  0  0  0  0  0  0  0
   43.7200   36.5980   45.0530 H   0  0  0  0  0  0  0  0  0  0  0  0
   44.7100   36.9540   42.7690 H   0  0  0  0  0  0  0  0  0  0  0  0
   46.4140   35.3810   41.9820 H   0  0  0  0  0  0  0  0  0  0  0  0
  2  1  1  0  0  0  0
  3  2  1  0  0  0  0
  3 15  1  0  0  0  0
  4  3  2  0  0  0  0
  5  4  1  0  0  0  0
  5 11  1  0  0  0  0
  6  5  2  0  0  0  0
  7  6  1  0  0  0  0
  7  8  2  0  0  0  0
  8 10  1  0  0  0  0
  9  8  1  0  0  0  0
 10 11  2  0  0  0  0
 11  2  1  0  0  0  0
 12 13  1  0  0  0  0
 12  6  1  0  0  0  0
 14 12  1  0  0  0  0
 15 16  1  0  0  0  0
 16 18  1  0  0  0  0
 16 17  1  0  0  0  0
 19 25  1  0  0  0  0
 19 24  1  0  0  0  0
 20 19  2  0  0  0  0
 21 20  1  0  0  0  0
 21 22  2  0  0  0  0
 22 23  1  0  0  0  0
 23 24  2  0  0  0  0
 23 16  1  0  0  0  0
 26 20  1  0  0  0  0
 27 21  1  0  0  0  0
M  END
>  <minimizedAffinity>
-4.04580927

>  <minimizedRMSD>
5.3922925

$$$$
