
 OpenBabel03242520193D

 40 43  0  0  0  0  0  0  0  0999 V2000
   40.8250   35.1900   41.6190 C   0  0  0  0  0  0  0  0  0  0  0  0
   41.3390   35.2880   42.5750 H   0  0  0  0  0  0  0  0  0  0  0  0
   39.9490   35.9010   41.6860 H   0  0  0  0  0  0  0  0  0  0  0  0
   39.2350   33.7080   40.5080 C   0  0  0  0  0  0  0  0  0  0  0  0
   38.6120   34.6420   39.9310 O   0  0  0  0  0  0  0  0  0  0  0  0
   40.3720   33.8440   41.3430 N   0  0  0  0  0  0  0  0  0  0  0  0
   40.8760   33.0320   41.7500 H   0  0  0  0  0  0  0  0  0  0  0  0
   38.8960   32.0110   38.1930 H   0  0  0  0  0  0  0  0  0  0  0  0
   38.6300   31.6360   39.1270 N   0  0  0  0  0  0  0  0  0  0  0  0
   38.7390   32.3290   40.2990 C   0  0  0  0  0  0  0  0  0  0  0  0
   38.2860   31.4730   41.2590 N   0  0  0  0  0  0  0  0  0  0  0  0
   37.9130   30.3080   40.7340 C   0  0  0  0  0  0  0  0  0  0  0  0
   37.4010   29.1790   41.3660 C   0  0  0  0  0  0  0  0  0  0  0  0
   37.1150   28.1400   40.5350 N   0  0  0  0  0  0  0  0  0  0  0  0
   37.3220   28.2230   39.2120 C   0  0  0  0  0  0  0  0  0  0  0  0
   37.0730   27.3580   38.6060 H   0  0  0  0  0  0  0  0  0  0  0  0
   37.8210   29.3350   38.6340 N   0  0  0  0  0  0  0  0  0  0  0  0
   38.1320   30.4120   39.3770 C   0  0  0  0  0  0  0  0  0  0  0  0
   37.2150   29.1790   42.7750 N   0  0  0  0  0  0  0  0  0  0  0  0
   38.1970   29.1890   43.1370 H   0  0  0  0  0  0  0  0  0  0  0  0
   36.3580   29.1720   43.3920 H   0  0  0  0  0  0  0  0  0  0  0  0
   41.7390   35.7310   40.5420 C   0  0  0  0  0  0  0  0  0  0  0  0
   42.1300   36.7330   40.8160 H   0  0  0  0  0  0  0  0  0  0  0  0
   41.1940   35.8670   39.5800 H   0  0  0  0  0  0  0  0  0  0  0  0
   45.0420   33.9200   40.8840 C   0  0  0  0  0  0  0  0  0  0  0  0
   43.9860   34.8270   41.1280 C   0  0  0  0  0  0  0  0  0  0  0  0
   42.8710   34.8020   40.3080 C   0  0  0  0  0  0  0  0  0  0  0  0
   42.8670   33.8780   39.2880 N   0  0  0  0  0  0  0  0  0  0  0  0
   43.9080   33.0290   39.0930 C   0  0  0  0  0  0  0  0  0  0  0  0
   44.9810   33.0490   39.8800 N   0  0  0  0  0  0  0  0  0  0  0  0
   44.0840   35.5110   41.9500 H   0  0  0  0  0  0  0  0  0  0  0  0
   43.8640   32.3130   38.2750 H   0  0  0  0  0  0  0  0  0  0  0  0
   46.2360   33.9620   41.7630 C   0  0  0  0  0  0  0  0  0  0  0  0
   47.4360   34.7160   41.0850 C   0  0  0  0  0  0  0  0  0  0  0  0
   46.7820   35.1410   42.3280 C   0  0  0  0  0  0  0  0  0  0  0  0
   46.5630   32.9460   42.1360 H   0  0  0  0  0  0  0  0  0  0  0  0
   48.3990   34.1920   41.0610 H   0  0  0  0  0  0  0  0  0  0  0  0
   47.2010   35.3170   40.1930 H   0  0  0  0  0  0  0  0  0  0  0  0
   47.3930   35.0670   43.2630 H   0  0  0  0  0  0  0  0  0  0  0  0
   46.2030   36.1100   42.3430 H   0  0  0  0  0  0  0  0  0  0  0  0
  1  3  1  0  0  0  0
  1  2  1  0  0  0  0
  4  6  1  0  0  0  0
  5  4  2  0  0  0  0
  6  1  1  0  0  0  0
  6  7  1  0  0  0  0
  8  9  1  0  0  0  0
  9 18  1  0  0  0  0
  9 10  1  0  0  0  0
 10  4  1  0  0  0  0
 10 11  2  0  0  0  0
 12 11  1  0  0  0  0
 12 13  1  0  0  0  0
 13 19  1  0  0  0  0
 14 13  2  0  0  0  0
 15 14  1  0  0  0  0
 16 15  1  0  0  0  0
 17 15  2  0  0  0  0
 17 18  1  0  0  0  0
 18 12  2  0  0  0  0
 19 20  1  0  0  0  0
 19 21  1  0  0  0  0
 22 23  1  0  0  0  0
 22  1  1  0  0  0  0
 24 22  1  0  0  0  0
 25 26  1  0  0  0  0
 25 33  1  0  0  0  0
 26 31  1  0  0  0  0
 27 22  1  0  0  0  0
 27 26  2  0  0  0  0
 28 27  1  0  0  0  0
 29 28  2  0  0  0  0
 29 30  1  0  0  0  0
 30 25  2  0  0  0  0
 32 29  1  0  0  0  0
 33 36  1  0  0  0  0
 33 35  1  0  0  0  0
 34 33  1  0  0  0  0
 34 35  1  0  0  0  0
 35 40  1  0  0  0  0
 35 39  1  0  0  0  0
 37 34  1  0  0  0  0
 38 34  1  0  0  0  0
M  END
>  <minimizedAffinity>
-5.42100668

>  <minimizedRMSD>
2.00409126

$$$$
