
 OpenBabel03242523303D

 27 29  0  0  0  0  0  0  0  0999 V2000
   48.8040   30.7140   46.7360 H   0  0  0  0  0  0  0  0  0  0  0  0
   48.0980   29.9430   46.7550 N   0  0  0  0  0  0  0  0  0  0  0  0
   46.8900   30.0660   46.1810 C   0  0  0  0  0  0  0  0  0  0  0  0
   46.2400   28.9040   46.3880 N   0  0  0  0  0  0  0  0  0  0  0  0
   47.0360   28.0900   47.0750 C   0  0  0  0  0  0  0  0  0  0  0  0
   46.8520   26.8050   47.5350 C   0  0  0  0  0  0  0  0  0  0  0  0
   47.8460   26.1950   48.2220 N   0  0  0  0  0  0  0  0  0  0  0  0
   49.0110   26.8690   48.4430 C   0  0  0  0  0  0  0  0  0  0  0  0
   49.7220   26.2750   49.0010 H   0  0  0  0  0  0  0  0  0  0  0  0
   49.2010   28.1200   47.9990 N   0  0  0  0  0  0  0  0  0  0  0  0
   48.2300   28.7350   47.3210 C   0  0  0  0  0  0  0  0  0  0  0  0
   45.6090   26.1710   47.2650 N   0  0  0  0  0  0  0  0  0  0  0  0
   45.1220   26.2980   46.3310 H   0  0  0  0  0  0  0  0  0  0  0  0
   44.9420   25.5420   47.7530 H   0  0  0  0  0  0  0  0  0  0  0  0
   46.1160   31.3910   45.2880 S   0  0  0  0  0  0  0  0  0  0  0  0
   46.1110   32.9390   46.2350 C   0  0  0  0  0  0  0  0  0  0  0  0
   45.4630   32.8730   47.1240 H   0  0  0  0  0  0  0  0  0  0  0  0
   47.1520   33.2140   46.5770 H   0  0  0  0  0  0  0  0  0  0  0  0
   44.4890   35.9210   44.7220 C   0  0  0  0  0  0  0  0  0  0  0  0
   45.0700   35.9620   43.4670 C   0  0  0  0  0  0  0  0  0  0  0  0
   45.9990   34.9770   43.1640 C   0  0  0  0  0  0  0  0  0  0  0  0
   46.3130   34.0170   44.0750 N   0  0  0  0  0  0  0  0  0  0  0  0
   45.7230   34.0100   45.2940 C   0  0  0  0  0  0  0  0  0  0  0  0
   44.8240   34.9600   45.5960 N   0  0  0  0  0  0  0  0  0  0  0  0
   43.7760   36.7130   44.9020 H   0  0  0  0  0  0  0  0  0  0  0  0
   44.9100   36.6630   42.6590 H   0  0  0  0  0  0  0  0  0  0  0  0
   46.5340   34.8850   42.2160 H   0  0  0  0  0  0  0  0  0  0  0  0
  1  2  1  0  0  0  0
  2 11  1  0  0  0  0
  3  4  2  0  0  0  0
  3  2  1  0  0  0  0
  4  5  1  0  0  0  0
  5 11  2  0  0  0  0
  5  6  1  0  0  0  0
  6  7  2  0  0  0  0
  7  8  1  0  0  0  0
  8  9  1  0  0  0  0
 10  8  2  0  0  0  0
 11 10  1  0  0  0  0
 12  6  1  0  0  0  0
 12 14  1  0  0  0  0
 13 12  1  0  0  0  0
 15  3  1  0  0  0  0
 15 16  1  0  0  0  0
 16 18  1  0  0  0  0
 16 17  1  0  0  0  0
 19 25  1  0  0  0  0
 19 24  1  0  0  0  0
 20 19  2  0  0  0  0
 21 20  1  0  0  0  0
 21 22  2  0  0  0  0
 22 23  1  0  0  0  0
 23 24  2  0  0  0  0
 23 16  1  0  0  0  0
 26 20  1  0  0  0  0
 27 21  1  0  0  0  0
M  END
>  <minimizedAffinity>
-3.98760462

>  <minimizedRMSD>
0.854755759

$$$$
