
 OpenBabel03242523313D

 27 29  0  0  0  0  0  0  0  0999 V2000
   49.1990   29.9600   46.5350 H   0  0  0  0  0  0  0  0  0  0  0  0
   48.2180   29.5980   46.5590 N   0  0  0  0  0  0  0  0  0  0  0  0
   47.1860   30.2950   46.0570 C   0  0  0  0  0  0  0  0  0  0  0  0
   46.0820   29.5490   46.2510 N   0  0  0  0  0  0  0  0  0  0  0  0
   46.4330   28.4200   46.8580 C   0  0  0  0  0  0  0  0  0  0  0  0
   45.6920   27.3340   47.2730 C   0  0  0  0  0  0  0  0  0  0  0  0
   46.3150   26.2970   47.8790 N   0  0  0  0  0  0  0  0  0  0  0  0
   47.6650   26.3490   48.0640 C   0  0  0  0  0  0  0  0  0  0  0  0
   48.0400   25.4620   48.5570 H   0  0  0  0  0  0  0  0  0  0  0  0
   48.3950   27.3990   47.6640 N   0  0  0  0  0  0  0  0  0  0  0  0
   47.7960   28.4300   47.0660 C   0  0  0  0  0  0  0  0  0  0  0  0
   44.2900   27.3580   47.0430 N   0  0  0  0  0  0  0  0  0  0  0  0
   43.8900   27.7520   46.1440 H   0  0  0  0  0  0  0  0  0  0  0  0
   43.4230   27.0750   47.5410 H   0  0  0  0  0  0  0  0  0  0  0  0
   47.0820   31.8800   45.2650 S   0  0  0  0  0  0  0  0  0  0  0  0
   45.9520   33.0040   46.1320 C   0  0  0  0  0  0  0  0  0  0  0  0
   45.0660   32.4740   46.5190 H   0  0  0  0  0  0  0  0  0  0  0  0
   46.4650   33.5140   46.9980 H   0  0  0  0  0  0  0  0  0  0  0  0
   44.4870   36.0530   44.5940 C   0  0  0  0  0  0  0  0  0  0  0  0
   45.0940   36.0720   43.3510 C   0  0  0  0  0  0  0  0  0  0  0  0
   45.9850   35.0490   43.0630 C   0  0  0  0  0  0  0  0  0  0  0  0
   46.2410   34.0760   43.9780 N   0  0  0  0  0  0  0  0  0  0  0  0
   45.6270   34.0910   45.1860 C   0  0  0  0  0  0  0  0  0  0  0  0
   44.7640   35.0780   45.4720 N   0  0  0  0  0  0  0  0  0  0  0  0
   43.8040   36.8750   44.7620 H   0  0  0  0  0  0  0  0  0  0  0  0
   44.9790   36.7810   42.5410 H   0  0  0  0  0  0  0  0  0  0  0  0
   46.5350   34.9360   42.1260 H   0  0  0  0  0  0  0  0  0  0  0  0
  1  2  1  0  0  0  0
  2 11  1  0  0  0  0
  3  4  2  0  0  0  0
  3  2  1  0  0  0  0
  4  5  1  0  0  0  0
  5 11  2  0  0  0  0
  5  6  1  0  0  0  0
  6  7  2  0  0  0  0
  7  8  1  0  0  0  0
  8  9  1  0  0  0  0
 10  8  2  0  0  0  0
 11 10  1  0  0  0  0
 12  6  1  0  0  0  0
 12 14  1  0  0  0  0
 13 12  1  0  0  0  0
 15  3  1  0  0  0  0
 15 16  1  0  0  0  0
 16 17  1  0  0  0  0
 16 18  1  0  0  0  0
 19 25  1  0  0  0  0
 19 24  1  0  0  0  0
 20 19  2  0  0  0  0
 21 20  1  0  0  0  0
 21 22  2  0  0  0  0
 22 23  1  0  0  0  0
 23 24  2  0  0  0  0
 23 16  1  0  0  0  0
 26 20  1  0  0  0  0
 27 21  1  0  0  0  0
M  END
>  <minimizedAffinity>
-4.03330851

>  <minimizedRMSD>
1.09049308

$$$$
