
 OpenBabel03252504463D

 32 34  0  0  0  0  0  0  0  0999 V2000
   45.4860   31.8440   49.3740 O   0  0  0  0  0  0  0  0  0  0  0  0
   45.7190   31.7140   47.8720 P   0  0  1  0  0  0  0  0  0  0  0  0
   44.6740   30.4860   47.3450 O   0  0  0  0  0  0  0  0  0  0  0  0
   45.1550   29.6220   47.2540 H   0  0  0  0  0  0  0  0  0  0  0  0
   45.3600   33.2170   47.1950 O   0  0  0  0  0  0  0  0  0  0  0  0
   45.4830   34.9150   44.0140 C   0  0  0  0  0  0  0  0  0  0  0  0
   46.5530   34.2530   43.3850 C   0  0  0  0  0  0  0  0  0  0  0  0
   47.1900   33.2300   44.1120 C   0  0  0  0  0  0  0  0  0  0  0  0
   46.7360   32.9520   45.3600 N   0  0  0  0  0  0  0  0  0  0  0  0
   45.7040   33.6230   45.9080 C   0  0  0  0  0  0  0  0  0  0  0  0
   45.0760   34.6080   45.2340 N   0  0  0  0  0  0  0  0  0  0  0  0
   46.8900   34.5000   42.3890 H   0  0  0  0  0  0  0  0  0  0  0  0
   48.0170   32.6980   43.6620 H   0  0  0  0  0  0  0  0  0  0  0  0
   44.8120   36.0090   43.2250 C   0  0  0  0  0  0  0  0  0  0  0  0
   43.7340   36.0880   43.4860 H   0  0  0  0  0  0  0  0  0  0  0  0
   44.9670   35.8490   42.1320 H   0  0  0  0  0  0  0  0  0  0  0  0
   45.3250   36.9480   43.5240 H   0  0  0  0  0  0  0  0  0  0  0  0
   47.2880   31.2470   47.5050 O   0  0  0  0  0  0  0  0  0  0  0  0
   48.4190   32.1690   49.9650 H   0  0  0  0  0  0  0  0  0  0  0  0
   48.6930   31.2300   49.6560 N   0  0  0  0  0  0  0  0  0  0  0  0
   48.1510   30.8190   48.5010 C   0  0  0  0  0  0  0  0  0  0  0  0
   48.6090   29.5790   48.2410 N   0  0  0  0  0  0  0  0  0  0  0  0
   49.4490   29.1540   49.2060 C   0  0  0  0  0  0  0  0  0  0  0  0
   50.2130   28.0530   49.5250 C   0  0  0  0  0  0  0  0  0  0  0  0
   50.9680   28.0020   50.6470 N   0  0  0  0  0  0  0  0  0  0  0  0
   50.9400   29.0890   51.4510 C   0  0  0  0  0  0  0  0  0  0  0  0
   51.5520   29.0100   52.3310 H   0  0  0  0  0  0  0  0  0  0  0  0
   50.2070   30.2100   51.1940 N   0  0  0  0  0  0  0  0  0  0  0  0
   49.4730   30.2160   50.0700 C   0  0  0  0  0  0  0  0  0  0  0  0
   50.1630   26.9680   48.6020 N   0  0  0  0  0  0  0  0  0  0  0  0
   49.4900   26.2580   48.2460 H   0  0  0  0  0  0  0  0  0  0  0  0
   51.1170   26.8880   48.1600 H   0  0  0  0  0  0  0  0  0  0  0  0
  2  1  2  1  0  0  0
  3  2  1  0  0  0  0
  4  3  1  0  0  0  0
  5  2  1  0  0  0  0
  6 11  1  0  0  0  0
  7  6  2  0  0  0  0
  7  8  1  0  0  0  0
  8  9  2  0  0  0  0
  9 10  1  0  0  0  0
 10  5  1  0  0  0  0
 11 10  2  0  0  0  0
 12  7  1  0  0  0  0
 13  8  1  0  0  0  0
 14 15  1  0  0  0  0
 14 17  1  0  0  0  0
 14  6  1  0  0  0  0
 16 14  1  0  0  0  0
 18  2  1  0  0  0  0
 18 21  1  0  0  0  0
 20 19  1  0  0  0  0
 20 29  1  0  0  0  0
 21 20  1  0  0  0  0
 22 21  2  0  0  0  0
 22 23  1  0  0  0  0
 23 24  2  0  0  0  0
 23 29  1  0  0  0  0
 24 25  1  0  0  0  0
 25 26  2  0  0  0  0
 26 27  1  0  0  0  0
 28 26  1  0  0  0  0
 29 28  2  0  0  0  0
 30 24  1  0  0  0  0
 31 30  1  0  0  0  0
 32 30  1  0  0  0  0
M  END
>  <minimizedAffinity>
-5.79013681

>  <minimizedRMSD>
0.308681697

$$$$
