
 OpenBabel03242515563D

 42 46  0  0  0  0  0  0  0  0999 V2000
   45.9460   32.6430   46.7650 C   0  0  0  0  0  0  0  0  0  0  0  0
   45.5410   32.9290   48.0930 C   0  0  0  0  0  0  0  0  0  0  0  0
   45.7310   32.0690   49.1430 C   0  0  0  0  0  0  0  0  0  0  0  0
   46.3320   30.8740   48.9530 C   0  0  0  0  0  0  0  0  0  0  0  0
   46.7450   30.5440   47.6790 C   0  0  0  0  0  0  0  0  0  0  0  0
   47.3540   29.3270   47.5240 C   0  0  0  0  0  0  0  0  0  0  0  0
   47.7920   28.9370   46.2770 C   0  0  0  0  0  0  0  0  0  0  0  0
   47.5800   29.8260   45.2280 C   0  0  0  0  0  0  0  0  0  0  0  0
   46.9790   31.0010   45.4510 C   0  0  0  0  0  0  0  0  0  0  0  0
   46.5470   31.4120   46.6410 C   0  0  0  0  0  0  0  0  0  0  0  0
   45.0570   33.8730   48.2880 H   0  0  0  0  0  0  0  0  0  0  0  0
   45.3910   32.3640   50.1250 H   0  0  0  0  0  0  0  0  0  0  0  0
   46.4670   30.2260   49.7940 H   0  0  0  0  0  0  0  0  0  0  0  0
   47.4800   28.6800   48.4200 H   0  0  0  0  0  0  0  0  0  0  0  0
   48.2640   27.9350   46.3030 H   0  0  0  0  0  0  0  0  0  0  0  0
   47.9680   29.2570   44.4010 H   0  0  0  0  0  0  0  0  0  0  0  0
   44.4820   35.5060   45.1610 C   0  0  0  0  0  0  0  0  0  0  0  0
   45.2200   35.5940   43.9410 C   0  0  0  0  0  0  0  0  0  0  0  0
   46.2370   34.6390   43.6610 C   0  0  0  0  0  0  0  0  0  0  0  0
   46.4330   33.6940   44.5950 N   0  0  0  0  0  0  0  0  0  0  0  0
   45.7850   33.5940   45.6950 C   0  0  0  0  0  0  0  0  0  0  0  0
   44.8070   34.5140   45.9620 N   0  0  0  0  0  0  0  0  0  0  0  0
   43.7130   36.2390   45.3590 H   0  0  0  0  0  0  0  0  0  0  0  0
   46.7480   34.7660   42.7330 H   0  0  0  0  0  0  0  0  0  0  0  0
   44.8610   36.6720   43.0810 N   0  0  0  0  0  0  0  0  0  0  0  0
   44.8780   36.3270   42.0760 H   0  0  0  0  0  0  0  0  0  0  0  0
   44.6470   37.5910   43.5320 H   0  0  0  0  0  0  0  0  0  0  0  0
   46.9150   31.6350   44.2530 O   0  0  0  0  0  0  0  0  0  0  0  0
   47.1160   29.8950   41.7710 H   0  0  0  0  0  0  0  0  0  0  0  0
   47.7850   30.6290   42.0240 N   0  0  0  0  0  0  0  0  0  0  0  0
   47.6270   31.3230   43.1200 C   0  0  0  0  0  0  0  0  0  0  0  0
   48.7500   32.0990   43.0760 N   0  0  0  0  0  0  0  0  0  0  0  0
   49.5020   31.8590   42.0110 C   0  0  0  0  0  0  0  0  0  0  0  0
   50.7090   32.3660   41.5160 C   0  0  0  0  0  0  0  0  0  0  0  0
   51.1920   31.8560   40.3450 N   0  0  0  0  0  0  0  0  0  0  0  0
   50.5150   30.8790   39.6800 C   0  0  0  0  0  0  0  0  0  0  0  0
   50.9810   30.5310   38.7460 H   0  0  0  0  0  0  0  0  0  0  0  0
   49.3380   30.3700   40.1430 N   0  0  0  0  0  0  0  0  0  0  0  0
   48.8690   30.8760   41.2930 C   0  0  0  0  0  0  0  0  0  0  0  0
   51.3820   33.3880   42.2470 N   0  0  0  0  0  0  0  0  0  0  0  0
   50.8240   34.2900   42.2100 H   0  0  0  0  0  0  0  0  0  0  0  0
   52.2790   33.4050   42.7830 H   0  0  0  0  0  0  0  0  0  0  0  0
  1  2  1  0  0  0  0
  2 11  1  0  0  0  0
  2  3  2  0  0  0  0
  3 12  1  0  0  0  0
  4  3  1  0  0  0  0
  4 13  1  0  0  0  0
  5  4  2  0  0  0  0
  6  5  1  0  0  0  0
  6 14  1  0  0  0  0
  7 15  1  0  0  0  0
  7  6  2  0  0  0  0
  8  9  2  0  0  0  0
  8  7  1  0  0  0  0
  9 10  1  0  0  0  0
 10  1  2  0  0  0  0
 10  5  1  0  0  0  0
 16  8  1  0  0  0  0
 17 23  1  0  0  0  0
 17 22  1  0  0  0  0
 18 17  2  0  0  0  0
 19 18  1  0  0  0  0
 19 20  2  0  0  0  0
 20 21  1  0  0  0  0
 21 22  2  0  0  0  0
 21  1  1  0  0  0  0
 24 19  1  0  0  0  0
 25 27  1  0  0  0  0
 25 18  1  0  0  0  0
 26 25  1  0  0  0  0
 28  9  1  0  0  0  0
 29 30  1  0  0  0  0
 30 31  1  0  0  0  0
 31 28  1  0  0  0  0
 32 31  2  0  0  0  0
 33 32  1  0  0  0  0
 34 33  1  0  0  0  0
 34 40  1  0  0  0  0
 35 34  2  0  0  0  0
 36 38  2  0  0  0  0
 36 35  1  0  0  0  0
 37 36  1  0  0  0  0
 38 39  1  0  0  0  0
 39 33  2  0  0  0  0
 39 30  1  0  0  0  0
 40 42  1  0  0  0  0
 41 40  1  0  0  0  0
M  END
>  <minimizedAffinity>
-6.70402288

>  <minimizedRMSD>
0.382790148

$$$$
