
 OpenBabel03242521433D

 43 46  0  0  1  0  0  0  0  0999 V2000
   45.3400   34.3970   43.8340 C   0  0  0  0  0  0  0  0  0  0  0  0
   46.4750   33.7890   43.2720 C   0  0  0  0  0  0  0  0  0  0  0  0
   47.3460   33.0760   44.1070 C   0  0  0  0  0  0  0  0  0  0  0  0
   47.0440   33.0120   45.4000 N   0  0  0  0  0  0  0  0  0  0  0  0
   45.9460   33.6030   45.9270 C   0  0  0  0  0  0  0  0  0  0  0  0
   45.0920   34.2960   45.1450 N   0  0  0  0  0  0  0  0  0  0  0  0
   46.6150   33.9080   42.2150 H   0  0  0  0  0  0  0  0  0  0  0  0
   45.7730   33.5070   46.9740 H   0  0  0  0  0  0  0  0  0  0  0  0
   49.2730   33.3660   42.5600 C   0  0  2  0  0  0  0  0  0  0  0  0
   48.5070   32.4680   43.4670 C   0  0  2  0  0  0  0  0  0  0  0  0
   48.1820   31.4010   42.5770 O   0  0  0  0  0  0  0  0  0  0  0  0
   49.4180   31.0900   42.0370 C   0  0  0  0  0  0  0  0  0  0  0  0
   50.2760   32.3230   42.0210 C   0  0  1  0  0  0  0  0  0  0  0  0
   48.6960   33.6440   41.6360 H   0  0  0  0  0  0  0  0  0  0  0  0
   49.2190   32.0060   44.1980 H   0  0  0  0  0  0  0  0  0  0  0  0
   49.2730   30.7600   40.9870 H   0  0  0  0  0  0  0  0  0  0  0  0
   49.9030   30.3180   42.6420 H   0  0  0  0  0  0  0  0  0  0  0  0
   51.1390   32.2650   42.7140 H   0  0  0  0  0  0  0  0  0  0  0  0
   49.8590   34.4330   43.1700 O   0  0  0  0  0  0  0  0  0  0  0  0
   49.8690   35.2670   42.6450 H   0  0  0  0  0  0  0  0  0  0  0  0
   50.6770   32.7090   40.7460 O   0  0  0  0  0  0  0  0  0  0  0  0
   50.7350   33.6860   40.7420 H   0  0  0  0  0  0  0  0  0  0  0  0
   44.4190   35.1680   42.9250 C   0  0  0  0  0  0  0  0  0  0  0  0
   44.8150   35.1440   41.9010 H   0  0  0  0  0  0  0  0  0  0  0  0
   43.3970   34.7660   43.0280 H   0  0  0  0  0  0  0  0  0  0  0  0
   45.4440   37.4790   43.4110 C   0  0  0  0  0  0  0  0  0  0  0  0
   46.5360   37.0890   42.9210 O   0  0  0  0  0  0  0  0  0  0  0  0
   44.3960   36.5350   43.4320 N   0  0  0  0  0  0  0  0  0  0  0  0
   43.4860   36.8610   43.8670 H   0  0  0  0  0  0  0  0  0  0  0  0
   45.3700   40.1200   42.2370 H   0  0  0  0  0  0  0  0  0  0  0  0
   45.2370   39.9880   43.2500 N   0  0  0  0  0  0  0  0  0  0  0  0
   45.2440   38.8250   43.9330 C   0  0  0  0  0  0  0  0  0  0  0  0
   45.0290   39.1340   45.2250 N   0  0  0  0  0  0  0  0  0  0  0  0
   44.8840   40.4650   45.3770 C   0  0  0  0  0  0  0  0  0  0  0  0
   44.6500   41.1980   46.5240 C   0  0  0  0  0  0  0  0  0  0  0  0
   44.5560   42.5390   46.3270 N   0  0  0  0  0  0  0  0  0  0  0  0
   44.6780   43.1150   45.1210 C   0  0  0  0  0  0  0  0  0  0  0  0
   44.5950   44.1980   45.0010 H   0  0  0  0  0  0  0  0  0  0  0  0
   44.9080   42.3710   44.0070 N   0  0  0  0  0  0  0  0  0  0  0  0
   45.0150   41.0160   44.1190 C   0  0  0  0  0  0  0  0  0  0  0  0
   44.5190   40.5930   47.8110 N   0  0  0  0  0  0  0  0  0  0  0  0
   44.9080   39.6160   47.8900 H   0  0  0  0  0  0  0  0  0  0  0  0
   44.0490   41.1960   48.5300 H   0  0  0  0  0  0  0  0  0  0  0  0
  1  6  1  0  0  0  0
  2  1  2  0  0  0  0
  2  3  1  0  0  0  0
  3  4  2  0  0  0  0
  4  5  1  0  0  0  0
  5  8  1  0  0  0  0
  6  5  2  0  0  0  0
  7  2  1  0  0  0  0
  9 14  1  6  0  0  0
  9 19  1  0  0  0  0
  9 10  1  0  0  0  0
 10  3  1  0  0  0  0
 10 15  1  1  0  0  0
 11 10  1  0  0  0  0
 12 11  1  0  0  0  0
 12 17  1  0  0  0  0
 13 12  1  0  0  0  0
 13  9  1  0  0  0  0
 13 18  1  1  0  0  0
 16 12  1  0  0  0  0
 20 19  1  0  0  0  0
 21 13  1  0  0  0  0
 22 21  1  0  0  0  0
 23 25  1  0  0  0  0
 23 28  1  0  0  0  0
 23  1  1  0  0  0  0
 24 23  1  0  0  0  0
 26 28  1  0  0  0  0
 26 32  1  0  0  0  0
 27 26  2  0  0  0  0
 28 29  1  0  0  0  0
 30 31  1  0  0  0  0
 31 32  1  0  0  0  0
 31 40  1  0  0  0  0
 32 33  2  0  0  0  0
 33 34  1  0  0  0  0
 34 35  1  0  0  0  0
 35 41  1  0  0  0  0
 36 35  2  0  0  0  0
 37 36  1  0  0  0  0
 38 37  1  0  0  0  0
 39 40  1  0  0  0  0
 39 37  2  0  0  0  0
 40 34  2  0  0  0  0
 41 42  1  0  0  0  0
 41 43  1  0  0  0  0
M  END
>  <minimizedAffinity>
-2.99772215

>  <minimizedRMSD>
2.22826314

$$$$
