
 OpenBabel03252504473D

 32 34  0  0  0  0  0  0  0  0999 V2000
   45.4320   31.6360   49.5040 O   0  0  0  0  0  0  0  0  0  0  0  0
   45.6860   31.5780   48.0020 P   0  0  1  0  0  0  0  0  0  0  0  0
   44.6250   30.4010   47.3970 O   0  0  0  0  0  0  0  0  0  0  0  0
   45.0890   29.5320   47.2680 H   0  0  0  0  0  0  0  0  0  0  0  0
   45.3690   33.1210   47.3970 O   0  0  0  0  0  0  0  0  0  0  0  0
   45.4230   34.9300   44.2760 C   0  0  0  0  0  0  0  0  0  0  0  0
   46.4340   34.2460   43.5750 C   0  0  0  0  0  0  0  0  0  0  0  0
   47.0570   33.1710   44.2350 C   0  0  0  0  0  0  0  0  0  0  0  0
   46.6470   32.8660   45.4920 N   0  0  0  0  0  0  0  0  0  0  0  0
   45.6720   33.5600   46.1110 C   0  0  0  0  0  0  0  0  0  0  0  0
   45.0580   34.5950   45.5020 N   0  0  0  0  0  0  0  0  0  0  0  0
   46.7350   34.5160   42.5730 H   0  0  0  0  0  0  0  0  0  0  0  0
   47.8390   32.6210   43.7280 H   0  0  0  0  0  0  0  0  0  0  0  0
   44.7660   36.0800   43.5590 C   0  0  0  0  0  0  0  0  0  0  0  0
   43.7050   36.1950   43.8720 H   0  0  0  0  0  0  0  0  0  0  0  0
   44.8640   35.9540   42.4540 H   0  0  0  0  0  0  0  0  0  0  0  0
   45.3330   36.9840   43.8660 H   0  0  0  0  0  0  0  0  0  0  0  0
   47.2510   31.0960   47.6350 O   0  0  0  0  0  0  0  0  0  0  0  0
   47.9790   29.0160   49.4570 H   0  0  0  0  0  0  0  0  0  0  0  0
   48.5270   29.8810   49.5050 N   0  0  0  0  0  0  0  0  0  0  0  0
   48.1690   30.8430   48.6410 C   0  0  0  0  0  0  0  0  0  0  0  0
   48.9800   31.9010   48.8320 N   0  0  0  0  0  0  0  0  0  0  0  0
   49.8760   31.6630   49.8100 C   0  0  0  0  0  0  0  0  0  0  0  0
   50.9200   32.2890   50.4560 C   0  0  0  0  0  0  0  0  0  0  0  0
   51.6180   31.6860   51.4460 N   0  0  0  0  0  0  0  0  0  0  0  0
   51.2440   30.4290   51.7770 C   0  0  0  0  0  0  0  0  0  0  0  0
   51.8230   29.9840   52.5670 H   0  0  0  0  0  0  0  0  0  0  0  0
   50.2230   29.7530   51.1790 N   0  0  0  0  0  0  0  0  0  0  0  0
   49.5580   30.3900   50.2030 C   0  0  0  0  0  0  0  0  0  0  0  0
   51.2200   33.6120   50.0200 N   0  0  0  0  0  0  0  0  0  0  0  0
   51.5880   34.1090   49.1830 H   0  0  0  0  0  0  0  0  0  0  0  0
   50.9860   34.2660   50.8140 H   0  0  0  0  0  0  0  0  0  0  0  0
  2  1  2  1  0  0  0
  3  2  1  0  0  0  0
  4  3  1  0  0  0  0
  5  2  1  0  0  0  0
  6 11  1  0  0  0  0
  7  8  1  0  0  0  0
  7  6  2  0  0  0  0
  8  9  2  0  0  0  0
  9 10  1  0  0  0  0
 10  5  1  0  0  0  0
 11 10  2  0  0  0  0
 12  7  1  0  0  0  0
 13  8  1  0  0  0  0
 14 17  1  0  0  0  0
 14 15  1  0  0  0  0
 14  6  1  0  0  0  0
 16 14  1  0  0  0  0
 18  2  1  0  0  0  0
 18 21  1  0  0  0  0
 19 20  1  0  0  0  0
 20 29  1  0  0  0  0
 21 22  2  0  0  0  0
 21 20  1  0  0  0  0
 22 23  1  0  0  0  0
 23 29  2  0  0  0  0
 23 24  1  0  0  0  0
 24 25  2  0  0  0  0
 25 26  1  0  0  0  0
 26 27  1  0  0  0  0
 28 26  2  0  0  0  0
 29 28  1  0  0  0  0
 30 24  1  0  0  0  0
 30 32  1  0  0  0  0
 31 30  1  0  0  0  0
M  END
>  <minimizedAffinity>
-6.29680967

>  <minimizedRMSD>
0.560664654

$$$$
