
 OpenBabel03252504233D

 37 41  0  0  0  0  0  0  0  0999 V2000
   47.3960   33.3360   39.9120 C   0  0  0  0  0  0  0  0  0  0  0  0
   48.7590   33.0540   40.0670 C   0  0  0  0  0  0  0  0  0  0  0  0
   49.3130   33.1280   41.3610 C   0  0  0  0  0  0  0  0  0  0  0  0
   48.4770   33.4710   42.3820 N   0  0  0  0  0  0  0  0  0  0  0  0
   47.1620   33.7350   42.1850 C   0  0  0  0  0  0  0  0  0  0  0  0
   46.6290   33.6660   40.9550 N   0  0  0  0  0  0  0  0  0  0  0  0
   46.3700   34.0840   43.3130 N   0  0  0  0  0  0  0  0  0  0  0  0
   45.4650   35.0920   43.3690 C   0  0  0  0  0  0  0  0  0  0  0  0
   44.9210   35.0960   44.6210 N   0  0  0  0  0  0  0  0  0  0  0  0
   45.4950   34.1050   45.2950 C   0  0  0  0  0  0  0  0  0  0  0  0
   45.3630   33.6250   46.5700 C   0  0  0  0  0  0  0  0  0  0  0  0
   46.0700   32.5910   47.0240 N   0  0  0  0  0  0  0  0  0  0  0  0
   46.9700   31.9460   46.2480 C   0  0  0  0  0  0  0  0  0  0  0  0
   47.1040   32.4100   44.9990 N   0  0  0  0  0  0  0  0  0  0  0  0
   46.4160   33.4450   44.4990 C   0  0  0  0  0  0  0  0  0  0  0  0
   49.4310   32.7820   39.2660 H   0  0  0  0  0  0  0  0  0  0  0  0
   50.3520   32.9230   41.5350 H   0  0  0  0  0  0  0  0  0  0  0  0
   45.1960   35.7910   42.5780 H   0  0  0  0  0  0  0  0  0  0  0  0
   47.5520   31.1030   46.6050 H   0  0  0  0  0  0  0  0  0  0  0  0
   44.4710   34.1800   47.5100 N   0  0  0  0  0  0  0  0  0  0  0  0
   44.8860   35.0030   48.0330 H   0  0  0  0  0  0  0  0  0  0  0  0
   43.5030   33.8990   47.7490 H   0  0  0  0  0  0  0  0  0  0  0  0
   46.8090   33.2080   38.2120 S   0  0  0  0  0  0  0  0  0  0  0  0
   44.8730   30.9590   37.2720 H   0  0  0  0  0  0  0  0  0  0  0  0
   44.3990   31.7840   37.6820 N   0  0  0  0  0  0  0  0  0  0  0  0
   45.0700   32.8550   38.1430 C   0  0  0  0  0  0  0  0  0  0  0  0
   44.1240   33.7160   38.5960 N   0  0  0  0  0  0  0  0  0  0  0  0
   42.9220   33.1840   38.4140 C   0  0  0  0  0  0  0  0  0  0  0  0
   41.6300   33.5880   38.6730 C   0  0  0  0  0  0  0  0  0  0  0  0
   40.6200   32.7790   38.3510 N   0  0  0  0  0  0  0  0  0  0  0  0
   40.8000   31.5790   37.7830 C   0  0  0  0  0  0  0  0  0  0  0  0
   39.9020   31.0010   37.5640 H   0  0  0  0  0  0  0  0  0  0  0  0
   42.0530   31.1390   37.5090 N   0  0  0  0  0  0  0  0  0  0  0  0
   43.0780   31.9450   37.8300 C   0  0  0  0  0  0  0  0  0  0  0  0
   41.3690   34.8340   39.2670 N   0  0  0  0  0  0  0  0  0  0  0  0
   42.1050   35.4090   39.7400 H   0  0  0  0  0  0  0  0  0  0  0  0
   40.4120   35.2590   39.2660 H   0  0  0  0  0  0  0  0  0  0  0  0
  1  2  2  0  0  0  0
  1  6  1  0  0  0  0
  2  3  1  0  0  0  0
  3 17  1  0  0  0  0
  3  4  2  0  0  0  0
  5  4  1  0  0  0  0
  5  7  1  0  0  0  0
  6  5  2  0  0  0  0
  7  8  1  0  0  0  0
  7 15  1  0  0  0  0
  8  9  2  0  0  0  0
  9 10  1  0  0  0  0
 10 11  1  0  0  0  0
 11 12  2  0  0  0  0
 11 20  1  0  0  0  0
 13 19  1  0  0  0  0
 13 12  1  0  0  0  0
 14 13  2  0  0  0  0
 15 14  1  0  0  0  0
 15 10  2  0  0  0  0
 16  2  1  0  0  0  0
 18  8  1  0  0  0  0
 20 22  1  0  0  0  0
 20 21  1  0  0  0  0
 23  1  1  0  0  0  0
 24 25  1  0  0  0  0
 25 34  1  0  0  0  0
 25 26  1  0  0  0  0
 26 23  1  0  0  0  0
 26 27  2  0  0  0  0
 28 27  1  0  0  0  0
 28 29  1  0  0  0  0
 29 35  1  0  0  0  0
 30 29  2  0  0  0  0
 31 30  1  0  0  0  0
 32 31  1  0  0  0  0
 33 31  2  0  0  0  0
 33 34  1  0  0  0  0
 34 28  2  0  0  0  0
 35 36  1  0  0  0  0
 37 35  1  0  0  0  0
M  END
>  <minimizedAffinity>
-6.2901516

>  <minimizedRMSD>
1.22091341

$$$$
