
 OpenBabel03242519413D

 34 36  0  0  0  0  0  0  0  0999 V2000
   48.0880   32.7490   42.1080 O   0  0  0  0  0  0  0  0  0  0  0  0
   47.1230   33.7790   41.4620 P   0  0  2  0  0  0  0  0  0  0  0  0
   45.5530   33.5460   42.1180 O   0  0  0  0  0  0  0  0  0  0  0  0
   44.3520   35.9140   44.6120 C   0  0  0  0  0  0  0  0  0  0  0  0
   44.6440   35.3290   43.3560 C   0  0  0  0  0  0  0  0  0  0  0  0
   45.2820   34.0830   43.3580 C   0  0  0  0  0  0  0  0  0  0  0  0
   45.5800   33.5140   44.5410 N   0  0  0  0  0  0  0  0  0  0  0  0
   45.2870   34.0980   45.7250 C   0  0  0  0  0  0  0  0  0  0  0  0
   44.6780   35.2910   45.7690 N   0  0  0  0  0  0  0  0  0  0  0  0
   43.8580   36.8800   44.5990 H   0  0  0  0  0  0  0  0  0  0  0  0
   44.3540   35.8840   42.4690 H   0  0  0  0  0  0  0  0  0  0  0  0
   45.5770   33.5400   46.6180 H   0  0  0  0  0  0  0  0  0  0  0  0
   47.0580   33.5110   39.8290 O   0  0  0  0  0  0  0  0  0  0  0  0
   46.0110   33.1730   39.0360 C   0  0  0  0  0  0  0  0  0  0  0  0
   46.2980   32.5470   37.8490 O   0  0  0  0  0  0  0  0  0  0  0  0
   44.1270   31.4560   37.6930 H   0  0  0  0  0  0  0  0  0  0  0  0
   43.7370   32.3030   38.2160 N   0  0  0  0  0  0  0  0  0  0  0  0
   44.5340   33.1780   38.8910 C   0  0  0  0  0  0  0  0  0  0  0  0
   43.6420   34.0200   39.3560 N   0  0  0  0  0  0  0  0  0  0  0  0
   42.4140   33.6510   38.9700 C   0  0  0  0  0  0  0  0  0  0  0  0
   41.3170   34.3890   39.3400 C   0  0  0  0  0  0  0  0  0  0  0  0
   40.1520   33.8680   38.8590 N   0  0  0  0  0  0  0  0  0  0  0  0
   40.1010   32.7550   38.1090 C   0  0  0  0  0  0  0  0  0  0  0  0
   39.1570   32.3660   37.7410 H   0  0  0  0  0  0  0  0  0  0  0  0
   41.2620   32.0990   37.8010 N   0  0  0  0  0  0  0  0  0  0  0  0
   42.4380   32.5160   38.2130 C   0  0  0  0  0  0  0  0  0  0  0  0
   41.2650   35.5720   40.1260 N   0  0  0  0  0  0  0  0  0  0  0  0
   40.9830   35.3530   41.1010 H   0  0  0  0  0  0  0  0  0  0  0  0
   41.4950   36.5220   39.7180 H   0  0  0  0  0  0  0  0  0  0  0  0
   47.6590   35.2850   41.8990 O   0  0  0  0  0  0  0  0  0  0  0  0
   48.9060   35.5800   41.3570 C   0  0  0  0  0  0  0  0  0  0  0  0
   49.3680   36.8250   41.7470 F   0  0  0  0  0  0  0  0  0  0  0  0
   49.7910   34.5850   41.6260 F   0  0  0  0  0  0  0  0  0  0  0  0
   48.7190   35.6470   39.9790 F   0  0  0  0  0  0  0  0  0  0  0  0
  2 30  1  0  0  0  0
  2  1  2  1  0  0  0
  2  3  1  0  0  0  0
  3  6  1  0  0  0  0
  4  9  1  0  0  0  0
  5  6  1  0  0  0  0
  5  4  2  0  0  0  0
  6  7  2  0  0  0  0
  7  8  1  0  0  0  0
  8  9  2  0  0  0  0
  8 12  1  0  0  0  0
 10  4  1  0  0  0  0
 11  5  1  0  0  0  0
 13  2  1  0  0  0  0
 14 13  1  0  0  0  0
 15 14  2  0  0  0  0
 16 17  1  0  0  0  0
 17 18  1  0  0  0  0
 18 14  1  0  0  0  0
 18 19  2  0  0  0  0
 20 21  1  0  0  0  0
 20 19  1  0  0  0  0
 21 27  1  0  0  0  0
 22 21  2  0  0  0  0
 23 22  1  0  0  0  0
 24 23  1  0  0  0  0
 25 23  2  0  0  0  0
 25 26  1  0  0  0  0
 26 17  1  0  0  0  0
 26 20  2  0  0  0  0
 27 28  1  0  0  0  0
 29 27  1  0  0  0  0
 31 33  1  0  0  0  0
 31 32  1  0  0  0  0
 31 30  1  0  0  0  0
 34 31  1  0  0  0  0
M  END
>  <minimizedAffinity>
-5.88202238

>  <minimizedRMSD>
3.88239503

$$$$
