
 OpenBabel03252506243D

 50 55  0  0  0  0  0  0  0  0999 V2000
   45.5100   27.8620   47.9290 C   0  0  0  0  0  0  0  0  0  0  0  0
   45.1610   29.1970   47.8920 C   0  0  0  0  0  0  0  0  0  0  0  0
   44.2640   29.5710   46.8870 C   0  0  0  0  0  0  0  0  0  0  0  0
   43.7580   28.6600   45.9870 C   0  0  0  0  0  0  0  0  0  0  0  0
   42.9030   28.7260   44.9430 N   0  0  0  0  0  0  0  0  0  0  0  0
   42.7410   27.5210   44.3830 C   0  0  0  0  0  0  0  0  0  0  0  0
   43.5080   26.6010   45.0630 C   0  0  0  0  0  0  0  0  0  0  0  0
   44.1170   27.3410   46.0410 C   0  0  0  0  0  0  0  0  0  0  0  0
   45.0050   26.9660   47.0320 C   0  0  0  0  0  0  0  0  0  0  0  0
   46.2110   27.6360   48.7340 H   0  0  0  0  0  0  0  0  0  0  0  0
   43.8970   30.5780   46.7320 H   0  0  0  0  0  0  0  0  0  0  0  0
   42.4230   29.5880   44.6020 H   0  0  0  0  0  0  0  0  0  0  0  0
   42.1050   27.2840   43.5220 H   0  0  0  0  0  0  0  0  0  0  0  0
   43.5600   25.5500   44.8150 H   0  0  0  0  0  0  0  0  0  0  0  0
   45.4160   25.6090   47.1400 N   0  0  0  0  0  0  0  0  0  0  0  0
   44.8290   24.7610   47.9910 C   0  0  0  0  0  0  0  0  0  0  0  0
   44.0180   24.8360   48.7130 H   0  0  0  0  0  0  0  0  0  0  0  0
   45.4040   23.5460   47.8950 N   0  0  0  0  0  0  0  0  0  0  0  0
   46.3770   23.6210   46.9690 C   0  0  0  0  0  0  0  0  0  0  0  0
   47.3120   22.7400   46.4210 C   0  0  0  0  0  0  0  0  0  0  0  0
   48.1720   23.1660   45.4720 N   0  0  0  0  0  0  0  0  0  0  0  0
   48.1490   24.4530   45.0300 C   0  0  0  0  0  0  0  0  0  0  0  0
   48.8770   24.6860   44.2710 H   0  0  0  0  0  0  0  0  0  0  0  0
   47.2460   25.3380   45.5440 N   0  0  0  0  0  0  0  0  0  0  0  0
   46.3820   24.9350   46.4890 C   0  0  0  0  0  0  0  0  0  0  0  0
   47.2400   21.4400   46.9570 N   0  0  0  0  0  0  0  0  0  0  0  0
   47.8240   21.5040   47.8420 H   0  0  0  0  0  0  0  0  0  0  0  0
   46.6310   20.9740   46.2370 H   0  0  0  0  0  0  0  0  0  0  0  0
   45.5740   30.3070   48.7370 C   0  0  0  0  0  0  0  0  0  0  0  0
   44.7910   31.0870   48.8030 H   0  0  0  0  0  0  0  0  0  0  0  0
   45.6420   29.9000   49.7860 H   0  0  0  0  0  0  0  0  0  0  0  0
   46.8840   30.9310   48.4470 C   0  0  0  0  0  0  0  0  0  0  0  0
   47.7290   30.2580   48.5510 H   0  0  0  0  0  0  0  0  0  0  0  0
   47.0250   31.7680   49.1690 H   0  0  0  0  0  0  0  0  0  0  0  0
   46.4080   32.9620   45.5430 C   0  0  0  0  0  0  0  0  0  0  0  0
   47.2150   31.9120   45.0340 C   0  0  0  0  0  0  0  0  0  0  0  0
   47.4860   31.0420   46.0390 C   0  0  0  0  0  0  0  0  0  0  0  0
   46.8710   31.5360   47.1220 N   0  0  0  0  0  0  0  0  0  0  0  0
   46.2320   32.6740   46.8270 N   0  0  0  0  0  0  0  0  0  0  0  0
   47.5520   31.8340   44.0030 H   0  0  0  0  0  0  0  0  0  0  0  0
   48.0630   30.1280   46.0440 H   0  0  0  0  0  0  0  0  0  0  0  0
   44.4990   35.8990   44.5320 C   0  0  0  0  0  0  0  0  0  0  0  0
   44.9960   36.1850   43.2710 C   0  0  0  0  0  0  0  0  0  0  0  0
   46.0070   35.3510   42.7590 C   0  0  0  0  0  0  0  0  0  0  0  0
   46.4240   34.3280   43.5350 N   0  0  0  0  0  0  0  0  0  0  0  0
   45.9240   34.0710   44.7570 C   0  0  0  0  0  0  0  0  0  0  0  0
   44.9570   34.8630   45.2550 N   0  0  0  0  0  0  0  0  0  0  0  0
   43.7320   36.5700   44.8640 H   0  0  0  0  0  0  0  0  0  0  0  0
   44.7100   36.9720   42.6170 H   0  0  0  0  0  0  0  0  0  0  0  0
   46.4630   35.4800   41.7940 H   0  0  0  0  0  0  0  0  0  0  0  0
  1 10  1  0  0  0  0
  2  1  1  0  0  0  0
  2 29  1  0  0  0  0
  3  2  2  0  0  0  0
  4  8  2  0  0  0  0
  4  3  1  0  0  0  0
  5  4  1  0  0  0  0
  6  5  1  0  0  0  0
  6  7  2  0  0  0  0
  7  8  1  0  0  0  0
  8  9  1  0  0  0  0
  9 15  1  0  0  0  0
  9  1  2  0  0  0  0
 11  3  1  0  0  0  0
 12  5  1  0  0  0  0
 13  6  1  0  0  0  0
 14  7  1  0  0  0  0
 15 16  1  0  0  0  0
 16 17  1  0  0  0  0
 18 16  2  0  0  0  0
 19 18  1  0  0  0  0
 20 26  1  0  0  0  0
 20 19  2  0  0  0  0
 21 20  1  0  0  0  0
 22 21  2  0  0  0  0
 22 24  1  0  0  0  0
 23 22  1  0  0  0  0
 24 25  2  0  0  0  0
 25 19  1  0  0  0  0
 25 15  1  0  0  0  0
 26 27  1  0  0  0  0
 28 26  1  0  0  0  0
 29 30  1  0  0  0  0
 29 31  1  0  0  0  0
 32 33  1  0  0  0  0
 32 29  1  0  0  0  0
 32 34  1  0  0  0  0
 35 39  2  0  0  0  0
 36 35  1  0  0  0  0
 36 37  2  0  0  0  0
 37 41  1  0  0  0  0
 37 38  1  0  0  0  0
 38 32  1  0  0  0  0
 39 38  1  0  0  0  0
 40 36  1  0  0  0  0
 42 48  1  0  0  0  0
 42 47  1  0  0  0  0
 43 42  2  0  0  0  0
 44 43  1  0  0  0  0
 44 45  2  0  0  0  0
 45 46  1  0  0  0  0
 46 47  2  0  0  0  0
 46 35  1  0  0  0  0
 49 43  1  0  0  0  0
 50 44  1  0  0  0  0
M  END
>  <minimizedAffinity>
-5.51961422

>  <minimizedRMSD>
1.32648659

$$$$
