
 OpenBabel03242523313D

 27 29  0  0  0  0  0  0  0  0999 V2000
   47.9700   32.6050   48.9930 H   0  0  0  0  0  0  0  0  0  0  0  0
   48.2190   31.6300   48.7080 N   0  0  0  0  0  0  0  0  0  0  0  0
   47.7580   31.0780   47.5740 C   0  0  0  0  0  0  0  0  0  0  0  0
   48.2660   29.8320   47.5130 N   0  0  0  0  0  0  0  0  0  0  0  0
   49.0210   29.6290   48.5900 C   0  0  0  0  0  0  0  0  0  0  0  0
   49.7520   28.5360   49.0020 C   0  0  0  0  0  0  0  0  0  0  0  0
   50.4440   28.5990   50.1620 N   0  0  0  0  0  0  0  0  0  0  0  0
   50.4010   29.7450   50.9000 C   0  0  0  0  0  0  0  0  0  0  0  0
   50.9930   29.6680   51.8030 H   0  0  0  0  0  0  0  0  0  0  0  0
   49.6920   30.8130   50.5100 N   0  0  0  0  0  0  0  0  0  0  0  0
   49.0040   30.7670   49.3680 C   0  0  0  0  0  0  0  0  0  0  0  0
   49.7470   27.3800   48.1760 N   0  0  0  0  0  0  0  0  0  0  0  0
   49.7750   27.4630   47.1180 H   0  0  0  0  0  0  0  0  0  0  0  0
   49.7200   26.3500   48.2940 H   0  0  0  0  0  0  0  0  0  0  0  0
   46.6960   31.6880   46.2880 S   0  0  0  0  0  0  0  0  0  0  0  0
   45.6660   33.0700   46.8540 C   0  0  0  0  0  0  0  0  0  0  0  0
   44.7110   32.7210   47.2800 H   0  0  0  0  0  0  0  0  0  0  0  0
   46.1980   33.6850   47.6370 H   0  0  0  0  0  0  0  0  0  0  0  0
   44.5600   35.8510   44.6500 C   0  0  0  0  0  0  0  0  0  0  0  0
   45.2790   35.6090   43.4940 C   0  0  0  0  0  0  0  0  0  0  0  0
   46.1230   34.5070   43.4880 C   0  0  0  0  0  0  0  0  0  0  0  0
   46.2260   33.7090   44.5850 N   0  0  0  0  0  0  0  0  0  0  0  0
   45.5050   33.9780   45.7000 C   0  0  0  0  0  0  0  0  0  0  0  0
   44.6870   35.0420   45.7130 N   0  0  0  0  0  0  0  0  0  0  0  0
   43.9210   36.7210   44.5960 H   0  0  0  0  0  0  0  0  0  0  0  0
   45.2890   36.1600   42.5620 H   0  0  0  0  0  0  0  0  0  0  0  0
   46.7480   34.1950   42.6490 H   0  0  0  0  0  0  0  0  0  0  0  0
  2  1  1  0  0  0  0
  2 11  1  0  0  0  0
  3  2  1  0  0  0  0
  4  3  2  0  0  0  0
  4  5  1  0  0  0  0
  5  6  2  0  0  0  0
  5 11  1  0  0  0  0
  6  7  1  0  0  0  0
  7  8  2  0  0  0  0
  8  9  1  0  0  0  0
 10  8  1  0  0  0  0
 11 10  2  0  0  0  0
 12 14  1  0  0  0  0
 12  6  1  0  0  0  0
 13 12  1  0  0  0  0
 15 16  1  0  0  0  0
 15  3  1  0  0  0  0
 16 17  1  0  0  0  0
 16 18  1  0  0  0  0
 19 24  1  0  0  0  0
 20 19  2  0  0  0  0
 21 20  1  0  0  0  0
 21 22  2  0  0  0  0
 22 23  1  0  0  0  0
 23 24  2  0  0  0  0
 23 16  1  0  0  0  0
 25 19  1  0  0  0  0
 26 20  1  0  0  0  0
 27 21  1  0  0  0  0
M  END
>  <minimizedAffinity>
-4.7704339

>  <minimizedRMSD>
2.27284527

$$$$
