
 OpenBabel03252504233D

 37 41  0  0  0  0  0  0  0  0999 V2000
   46.6570   33.0750   40.1680 C   0  0  0  0  0  0  0  0  0  0  0  0
   48.0180   32.7580   40.0760 C   0  0  0  0  0  0  0  0  0  0  0  0
   48.7790   32.7350   41.2610 C   0  0  0  0  0  0  0  0  0  0  0  0
   48.1340   33.0250   42.4270 N   0  0  0  0  0  0  0  0  0  0  0  0
   46.8130   33.3270   42.4690 C   0  0  0  0  0  0  0  0  0  0  0  0
   46.0820   33.3500   41.3430 N   0  0  0  0  0  0  0  0  0  0  0  0
   46.2280   33.6150   43.7330 N   0  0  0  0  0  0  0  0  0  0  0  0
   45.3760   34.6340   44.0010 C   0  0  0  0  0  0  0  0  0  0  0  0
   45.0460   34.5650   45.3240 N   0  0  0  0  0  0  0  0  0  0  0  0
   45.6930   33.5210   45.8300 C   0  0  0  0  0  0  0  0  0  0  0  0
   45.7600   32.9600   47.0760 C   0  0  0  0  0  0  0  0  0  0  0  0
   46.5010   31.8850   47.3410 N   0  0  0  0  0  0  0  0  0  0  0  0
   47.2410   31.2760   46.3870 C   0  0  0  0  0  0  0  0  0  0  0  0
   47.1810   31.8190   45.1650 N   0  0  0  0  0  0  0  0  0  0  0  0
   46.4510   32.8970   44.8530 C   0  0  0  0  0  0  0  0  0  0  0  0
   48.5400   32.5270   39.1590 H   0  0  0  0  0  0  0  0  0  0  0  0
   49.8260   32.4990   41.2470 H   0  0  0  0  0  0  0  0  0  0  0  0
   45.0000   35.3890   43.3110 H   0  0  0  0  0  0  0  0  0  0  0  0
   47.8490   30.4000   46.5900 H   0  0  0  0  0  0  0  0  0  0  0  0
   45.0520   33.4680   48.1850 N   0  0  0  0  0  0  0  0  0  0  0  0
   45.5720   34.2460   48.6820 H   0  0  0  0  0  0  0  0  0  0  0  0
   44.1290   33.1900   48.5640 H   0  0  0  0  0  0  0  0  0  0  0  0
   45.7940   33.0710   38.5850 S   0  0  0  0  0  0  0  0  0  0  0  0
   43.6160   34.8570   37.2620 H   0  0  0  0  0  0  0  0  0  0  0  0
   43.2790   34.3090   38.0740 N   0  0  0  0  0  0  0  0  0  0  0  0
   44.0760   33.4800   38.7730 C   0  0  0  0  0  0  0  0  0  0  0  0
   43.2940   32.9490   39.7460 N   0  0  0  0  0  0  0  0  0  0  0  0
   42.0640   33.4390   39.6380 C   0  0  0  0  0  0  0  0  0  0  0  0
   40.8840   33.2660   40.3280 C   0  0  0  0  0  0  0  0  0  0  0  0
   39.8000   33.9370   39.9380 N   0  0  0  0  0  0  0  0  0  0  0  0
   39.8000   34.7810   38.8970 C   0  0  0  0  0  0  0  0  0  0  0  0
   38.8570   35.2760   38.6660 H   0  0  0  0  0  0  0  0  0  0  0  0
   40.9370   34.9830   38.1870 N   0  0  0  0  0  0  0  0  0  0  0  0
   42.0360   34.3120   38.5720 C   0  0  0  0  0  0  0  0  0  0  0  0
   40.8120   32.3970   41.4290 N   0  0  0  0  0  0  0  0  0  0  0  0
   41.5490   31.6840   41.6450 H   0  0  0  0  0  0  0  0  0  0  0  0
   40.0090   32.4170   42.1010 H   0  0  0  0  0  0  0  0  0  0  0  0
  1  6  1  0  0  0  0
  2  1  2  0  0  0  0
  2  3  1  0  0  0  0
  3  4  2  0  0  0  0
  4  5  1  0  0  0  0
  5  7  1  0  0  0  0
  6  5  2  0  0  0  0
  7  8  1  0  0  0  0
  7 15  1  0  0  0  0
  8  9  2  0  0  0  0
  9 10  1  0  0  0  0
 10 11  1  0  0  0  0
 11 12  2  0  0  0  0
 11 20  1  0  0  0  0
 13 19  1  0  0  0  0
 13 12  1  0  0  0  0
 14 13  2  0  0  0  0
 15 14  1  0  0  0  0
 15 10  2  0  0  0  0
 16  2  1  0  0  0  0
 17  3  1  0  0  0  0
 18  8  1  0  0  0  0
 20 22  1  0  0  0  0
 20 21  1  0  0  0  0
 23 26  1  0  0  0  0
 23  1  1  0  0  0  0
 24 25  1  0  0  0  0
 25 34  1  0  0  0  0
 25 26  1  0  0  0  0
 26 27  2  0  0  0  0
 28 27  1  0  0  0  0
 28 29  1  0  0  0  0
 29 35  1  0  0  0  0
 30 29  2  0  0  0  0
 31 30  1  0  0  0  0
 32 31  1  0  0  0  0
 33 34  1  0  0  0  0
 33 31  2  0  0  0  0
 34 28  2  0  0  0  0
 35 36  1  0  0  0  0
 35 37  1  0  0  0  0
M  END
>  <minimizedAffinity>
-6.67257881

>  <minimizedRMSD>
1.39443159

$$$$
