
 OpenBabel03252504473D

 32 34  0  0  0  0  0  0  0  0999 V2000
   45.4320   31.6350   49.5040 O   0  0  0  0  0  0  0  0  0  0  0  0
   45.6860   31.5780   48.0020 P   0  0  1  0  0  0  0  0  0  0  0  0
   44.6250   30.4010   47.3970 O   0  0  0  0  0  0  0  0  0  0  0  0
   45.0900   29.5320   47.2690 H   0  0  0  0  0  0  0  0  0  0  0  0
   45.3690   33.1210   47.3970 O   0  0  0  0  0  0  0  0  0  0  0  0
   45.4230   34.9300   44.2760 C   0  0  0  0  0  0  0  0  0  0  0  0
   46.4340   34.2460   43.5760 C   0  0  0  0  0  0  0  0  0  0  0  0
   47.0570   33.1710   44.2360 C   0  0  0  0  0  0  0  0  0  0  0  0
   46.6470   32.8660   45.4920 N   0  0  0  0  0  0  0  0  0  0  0  0
   45.6720   33.5590   46.1120 C   0  0  0  0  0  0  0  0  0  0  0  0
   45.0580   34.5950   45.5030 N   0  0  0  0  0  0  0  0  0  0  0  0
   46.7360   34.5160   42.5740 H   0  0  0  0  0  0  0  0  0  0  0  0
   47.8380   32.6210   43.7280 H   0  0  0  0  0  0  0  0  0  0  0  0
   44.7660   36.0800   43.5590 C   0  0  0  0  0  0  0  0  0  0  0  0
   43.7050   36.1950   43.8730 H   0  0  0  0  0  0  0  0  0  0  0  0
   44.8640   35.9550   42.4550 H   0  0  0  0  0  0  0  0  0  0  0  0
   45.3340   36.9840   43.8660 H   0  0  0  0  0  0  0  0  0  0  0  0
   47.2510   31.0970   47.6350 O   0  0  0  0  0  0  0  0  0  0  0  0
   47.9790   29.0160   49.4580 H   0  0  0  0  0  0  0  0  0  0  0  0
   48.5270   29.8820   49.5040 N   0  0  0  0  0  0  0  0  0  0  0  0
   48.1690   30.8440   48.6420 C   0  0  0  0  0  0  0  0  0  0  0  0
   48.9800   31.9010   48.8320 N   0  0  0  0  0  0  0  0  0  0  0  0
   49.8760   31.6630   49.8100 C   0  0  0  0  0  0  0  0  0  0  0  0
   50.9200   32.2880   50.4560 C   0  0  0  0  0  0  0  0  0  0  0  0
   51.6180   31.6860   51.4460 N   0  0  0  0  0  0  0  0  0  0  0  0
   51.2450   30.4290   51.7770 C   0  0  0  0  0  0  0  0  0  0  0  0
   51.8230   29.9840   52.5670 H   0  0  0  0  0  0  0  0  0  0  0  0
   50.2230   29.7530   51.1800 N   0  0  0  0  0  0  0  0  0  0  0  0
   49.5570   30.3900   50.2030 C   0  0  0  0  0  0  0  0  0  0  0  0
   51.2200   33.6110   50.0200 N   0  0  0  0  0  0  0  0  0  0  0  0
   51.5890   34.1070   49.1840 H   0  0  0  0  0  0  0  0  0  0  0  0
   50.9870   34.2650   50.8140 H   0  0  0  0  0  0  0  0  0  0  0  0
  2  1  2  1  0  0  0
  3  2  1  0  0  0  0
  4  3  1  0  0  0  0
  5  2  1  0  0  0  0
  6 11  1  0  0  0  0
  7  8  1  0  0  0  0
  7  6  2  0  0  0  0
  8  9  2  0  0  0  0
  9 10  1  0  0  0  0
 10  5  1  0  0  0  0
 11 10  2  0  0  0  0
 12  7  1  0  0  0  0
 13  8  1  0  0  0  0
 14 17  1  0  0  0  0
 14 15  1  0  0  0  0
 14  6  1  0  0  0  0
 16 14  1  0  0  0  0
 18  2  1  0  0  0  0
 18 21  1  0  0  0  0
 19 20  1  0  0  0  0
 20 29  1  0  0  0  0
 21 22  2  0  0  0  0
 21 20  1  0  0  0  0
 22 23  1  0  0  0  0
 23 29  2  0  0  0  0
 23 24  1  0  0  0  0
 24 25  2  0  0  0  0
 25 26  1  0  0  0  0
 26 27  1  0  0  0  0
 28 26  2  0  0  0  0
 29 28  1  0  0  0  0
 30 24  1  0  0  0  0
 30 32  1  0  0  0  0
 31 30  1  0  0  0  0
M  END
>  <minimizedAffinity>
-6.29713106

>  <minimizedRMSD>
0.618878663

$$$$
