
 OpenBabel03252504233D

 37 41  0  0  0  0  0  0  0  0999 V2000
   46.4630   33.4430   39.5070 C   0  0  0  0  0  0  0  0  0  0  0  0
   47.8460   33.2250   39.5240 C   0  0  0  0  0  0  0  0  0  0  0  0
   48.5340   33.4060   40.7400 C   0  0  0  0  0  0  0  0  0  0  0  0
   47.8010   33.7830   41.8260 N   0  0  0  0  0  0  0  0  0  0  0  0
   46.4610   33.9820   41.7630 C   0  0  0  0  0  0  0  0  0  0  0  0
   45.8000   33.8110   40.6070 N   0  0  0  0  0  0  0  0  0  0  0  0
   45.7820   34.3730   42.9490 N   0  0  0  0  0  0  0  0  0  0  0  0
   44.8440   35.3470   43.0450 C   0  0  0  0  0  0  0  0  0  0  0  0
   44.4410   35.4120   44.3470 N   0  0  0  0  0  0  0  0  0  0  0  0
   45.1300   34.4920   45.0120 C   0  0  0  0  0  0  0  0  0  0  0  0
   45.1620   34.0920   46.3200 C   0  0  0  0  0  0  0  0  0  0  0  0
   45.9620   33.1190   46.7550 N   0  0  0  0  0  0  0  0  0  0  0  0
   46.8000   32.4600   45.9230 C   0  0  0  0  0  0  0  0  0  0  0  0
   46.7740   32.8450   44.6410 N   0  0  0  0  0  0  0  0  0  0  0  0
   45.9880   33.8160   44.1600 C   0  0  0  0  0  0  0  0  0  0  0  0
   48.4380   32.9280   38.6700 H   0  0  0  0  0  0  0  0  0  0  0  0
   49.5950   33.2540   40.8090 H   0  0  0  0  0  0  0  0  0  0  0  0
   44.4570   35.9810   42.2470 H   0  0  0  0  0  0  0  0  0  0  0  0
   47.4560   31.6660   46.2640 H   0  0  0  0  0  0  0  0  0  0  0  0
   44.3540   34.6730   47.3190 N   0  0  0  0  0  0  0  0  0  0  0  0
   44.7850   35.5440   47.7410 H   0  0  0  0  0  0  0  0  0  0  0  0
   43.4320   34.3710   47.6830 H   0  0  0  0  0  0  0  0  0  0  0  0
   45.6990   33.1790   37.8940 S   0  0  0  0  0  0  0  0  0  0  0  0
   43.3940   31.1760   37.2970 H   0  0  0  0  0  0  0  0  0  0  0  0
   43.0790   32.0790   37.6940 N   0  0  0  0  0  0  0  0  0  0  0  0
   43.9310   33.0690   38.0160 C   0  0  0  0  0  0  0  0  0  0  0  0
   43.1610   34.0760   38.4980 N   0  0  0  0  0  0  0  0  0  0  0  0
   41.8860   33.7080   38.4700 C   0  0  0  0  0  0  0  0  0  0  0  0
   40.6930   34.3020   38.8230 C   0  0  0  0  0  0  0  0  0  0  0  0
   39.5570   33.6240   38.6550 N   0  0  0  0  0  0  0  0  0  0  0  0
   39.5150   32.3830   38.1530 C   0  0  0  0  0  0  0  0  0  0  0  0
   38.5310   31.9240   38.0590 H   0  0  0  0  0  0  0  0  0  0  0  0
   40.6620   31.7580   37.7910 N   0  0  0  0  0  0  0  0  0  0  0  0
   41.8130   32.4300   37.9560 C   0  0  0  0  0  0  0  0  0  0  0  0
   40.6640   35.6010   39.3540 N   0  0  0  0  0  0  0  0  0  0  0  0
   41.5140   36.0920   39.7160 H   0  0  0  0  0  0  0  0  0  0  0  0
   39.7770   36.1550   39.4170 H   0  0  0  0  0  0  0  0  0  0  0  0
  1  2  2  0  0  0  0
  1  6  1  0  0  0  0
  2  3  1  0  0  0  0
  3 17  1  0  0  0  0
  3  4  2  0  0  0  0
  5  4  1  0  0  0  0
  5  7  1  0  0  0  0
  6  5  2  0  0  0  0
  7  8  1  0  0  0  0
  7 15  1  0  0  0  0
  8  9  2  0  0  0  0
  9 10  1  0  0  0  0
 10 11  1  0  0  0  0
 11 12  2  0  0  0  0
 11 20  1  0  0  0  0
 13 19  1  0  0  0  0
 13 12  1  0  0  0  0
 14 13  2  0  0  0  0
 15 14  1  0  0  0  0
 15 10  2  0  0  0  0
 16  2  1  0  0  0  0
 18  8  1  0  0  0  0
 20 22  1  0  0  0  0
 20 21  1  0  0  0  0
 23 26  1  0  0  0  0
 23  1  1  0  0  0  0
 24 25  1  0  0  0  0
 25 34  1  0  0  0  0
 25 26  1  0  0  0  0
 26 27  2  0  0  0  0
 28 27  1  0  0  0  0
 28 29  1  0  0  0  0
 29 35  1  0  0  0  0
 30 29  2  0  0  0  0
 31 30  1  0  0  0  0
 32 31  1  0  0  0  0
 33 34  1  0  0  0  0
 33 31  2  0  0  0  0
 34 28  2  0  0  0  0
 35 37  1  0  0  0  0
 35 36  1  0  0  0  0
M  END
>  <minimizedAffinity>
-6.68134546

>  <minimizedRMSD>
1.52926052

$$$$
