
 OpenBabel03242523513D

 48 52  0  0  1  0  0  0  0  0999 V2000
   42.9100   33.9360   39.2990 C   0  0  1  0  0  0  0  0  0  0  0  0
   43.1790   34.9960   40.3710 C   0  0  1  0  0  0  0  0  0  0  0  0
   41.9730   35.6520   40.6760 O   0  0  0  0  0  0  0  0  0  0  0  0
   41.1320   35.7900   39.5770 C   0  0  0  0  0  0  0  0  0  0  0  0
   40.5710   34.4510   39.1340 C   0  0  2  0  0  0  0  0  0  0  0  0
   41.5390   33.3640   39.6460 C   0  0  1  0  0  0  0  0  0  0  0  0
   43.6630   33.1090   39.3640 H   0  0  0  0  0  0  0  0  0  0  0  0
   43.9710   35.6970   40.1010 H   0  0  0  0  0  0  0  0  0  0  0  0
   41.6150   36.3540   38.7530 H   0  0  0  0  0  0  0  0  0  0  0  0
   40.3030   36.4370   39.9270 H   0  0  0  0  0  0  0  0  0  0  0  0
   39.5500   34.2780   39.4950 H   0  0  0  0  0  0  0  0  0  0  0  0
   41.3800   33.3410   40.7520 H   0  0  0  0  0  0  0  0  0  0  0  0
   42.8790   34.5210   38.0340 O   0  0  0  0  0  0  0  0  0  0  0  0
   43.0010   33.8110   37.3620 H   0  0  0  0  0  0  0  0  0  0  0  0
   40.6630   34.3630   37.7410 O   0  0  0  0  0  0  0  0  0  0  0  0
   39.9820   33.7490   37.3750 H   0  0  0  0  0  0  0  0  0  0  0  0
   43.4950   34.2870   41.5380 O   0  0  0  0  0  0  0  0  0  0  0  0
   44.6800   34.2990   42.1530 C   0  0  0  0  0  0  0  0  0  0  0  0
   45.8590   34.5020   41.4400 C   0  0  0  0  0  0  0  0  0  0  0  0
   47.0580   34.5060   42.1340 C   0  0  0  0  0  0  0  0  0  0  0  0
   47.0650   34.3110   43.5030 N   0  0  0  0  0  0  0  0  0  0  0  0
   45.9110   34.1190   44.1510 C   0  0  0  0  0  0  0  0  0  0  0  0
   44.7230   34.1110   43.4930 N   0  0  0  0  0  0  0  0  0  0  0  0
   45.8230   34.6510   40.3800 H   0  0  0  0  0  0  0  0  0  0  0  0
   45.9470   33.9700   45.2170 H   0  0  0  0  0  0  0  0  0  0  0  0
   48.3630   34.7130   41.3970 C   0  0  0  0  0  0  0  0  0  0  0  0
   49.0570   36.0430   41.5730 C   0  0  0  0  0  0  0  0  0  0  0  0
   49.6030   34.7150   42.1290 C   0  0  0  0  0  0  0  0  0  0  0  0
   48.2800   34.4490   40.3160 H   0  0  0  0  0  0  0  0  0  0  0  0
   49.6020   36.5140   40.7310 H   0  0  0  0  0  0  0  0  0  0  0  0
   48.6440   36.7090   42.3610 H   0  0  0  0  0  0  0  0  0  0  0  0
   50.5200   34.3170   41.6110 H   0  0  0  0  0  0  0  0  0  0  0  0
   49.5690   34.5620   43.2290 H   0  0  0  0  0  0  0  0  0  0  0  0
   41.2780   32.1560   39.0410 O   0  0  0  0  0  0  0  0  0  0  0  0
   40.4130   30.1130   37.4520 H   0  0  0  0  0  0  0  0  0  0  0  0
   39.9350   30.4460   38.3210 N   0  0  0  0  0  0  0  0  0  0  0  0
   40.1360   31.4050   39.2700 C   0  0  0  0  0  0  0  0  0  0  0  0
   39.1220   31.3020   40.1480 N   0  0  0  0  0  0  0  0  0  0  0  0
   38.2950   30.3140   39.7830 C   0  0  0  0  0  0  0  0  0  0  0  0
   37.1460   29.8890   40.4080 C   0  0  0  0  0  0  0  0  0  0  0  0
   36.4700   28.8800   39.8690 N   0  0  0  0  0  0  0  0  0  0  0  0
   36.9430   28.3200   38.7330 C   0  0  0  0  0  0  0  0  0  0  0  0
   36.3760   27.5010   38.3130 H   0  0  0  0  0  0  0  0  0  0  0  0
   38.0630   28.7490   38.1400 N   0  0  0  0  0  0  0  0  0  0  0  0
   38.8050   29.7620   38.6190 C   0  0  0  0  0  0  0  0  0  0  0  0
   36.6610   30.4790   41.5930 N   0  0  0  0  0  0  0  0  0  0  0  0
   36.1680   31.3470   41.2990 H   0  0  0  0  0  0  0  0  0  0  0  0
   36.6980   30.2370   42.6220 H   0  0  0  0  0  0  0  0  0  0  0  0
  1  7  1  1  0  0  0
  1  6  1  0  0  0  0
  1  2  1  0  0  0  0
  2  8  1  6  0  0  0
  2  3  1  0  0  0  0
  2 17  1  0  0  0  0
  4 10  1  0  0  0  0
  4  3  1  0  0  0  0
  5 11  1  1  0  0  0
  5  4  1  0  0  0  0
  5  6  1  0  0  0  0
  6 12  1  1  0  0  0
  9  4  1  0  0  0  0
 13  1  1  0  0  0  0
 14 13  1  0  0  0  0
 15  5  1  0  0  0  0
 16 15  1  0  0  0  0
 17 18  1  0  0  0  0
 18 23  1  0  0  0  0
 19 20  1  0  0  0  0
 19 18  2  0  0  0  0
 20 21  2  0  0  0  0
 21 22  1  0  0  0  0
 22 25  1  0  0  0  0
 23 22  2  0  0  0  0
 24 19  1  0  0  0  0
 26 27  1  0  0  0  0
 26 28  1  0  0  0  0
 26 20  1  0  0  0  0
 27 28  1  0  0  0  0
 27 31  1  0  0  0  0
 28 33  1  0  0  0  0
 29 26  1  0  0  0  0
 30 27  1  0  0  0  0
 32 28  1  0  0  0  0
 34 37  1  0  0  0  0
 34  6  1  0  0  0  0
 35 36  1  0  0  0  0
 36 45  1  0  0  0  0
 36 37  1  0  0  0  0
 37 38  2  0  0  0  0
 39 38  1  0  0  0  0
 39 40  1  0  0  0  0
 40 46  1  0  0  0  0
 41 40  2  0  0  0  0
 42 41  1  0  0  0  0
 43 42  1  0  0  0  0
 44 45  1  0  0  0  0
 44 42  2  0  0  0  0
 45 39  2  0  0  0  0
 46 48  1  0  0  0  0
 47 46  1  0  0  0  0
M  END
>  <minimizedAffinity>
-6.9298954

>  <minimizedRMSD>
2.58874989

$$$$
