
 OpenBabel03252504003D

 39 43  0  0  0  0  0  0  0  0999 V2000
   46.9010   35.0260   42.6690 C   0  0  0  0  0  0  0  0  0  0  0  0
   45.9290   36.0290   42.5700 C   0  0  0  0  0  0  0  0  0  0  0  0
   44.8870   36.0170   43.4950 C   0  0  0  0  0  0  0  0  0  0  0  0
   44.8750   35.0410   44.4320 N   0  0  0  0  0  0  0  0  0  0  0  0
   45.8280   34.0920   44.4960 C   0  0  0  0  0  0  0  0  0  0  0  0
   46.8470   34.0750   43.6180 N   0  0  0  0  0  0  0  0  0  0  0  0
   45.9640   36.8010   41.8060 H   0  0  0  0  0  0  0  0  0  0  0  0
   44.1240   36.7880   43.4350 H   0  0  0  0  0  0  0  0  0  0  0  0
   46.0760   31.7370   45.1160 C   0  0  0  0  0  0  0  0  0  0  0  0
   45.7960   33.0390   45.5230 C   0  0  0  0  0  0  0  0  0  0  0  0
   45.5040   33.2920   46.8420 C   0  0  0  0  0  0  0  0  0  0  0  0
   45.4920   32.2530   47.7490 C   0  0  0  0  0  0  0  0  0  0  0  0
   45.2520   32.1790   49.0590 N   0  0  0  0  0  0  0  0  0  0  0  0
   45.3600   30.9270   49.5110 C   0  0  0  0  0  0  0  0  0  0  0  0
   45.6870   30.1230   48.4560 C   0  0  0  0  0  0  0  0  0  0  0  0
   45.7700   30.9540   47.3530 C   0  0  0  0  0  0  0  0  0  0  0  0
   46.0650   30.6970   46.0200 C   0  0  0  0  0  0  0  0  0  0  0  0
   46.3100   31.5160   44.0750 H   0  0  0  0  0  0  0  0  0  0  0  0
   45.2860   34.3070   47.1520 H   0  0  0  0  0  0  0  0  0  0  0  0
   45.0110   33.0100   49.6430 H   0  0  0  0  0  0  0  0  0  0  0  0
   45.2100   30.6150   50.5480 H   0  0  0  0  0  0  0  0  0  0  0  0
   45.8500   29.0740   48.4590 H   0  0  0  0  0  0  0  0  0  0  0  0
   46.2870   29.7020   45.6690 H   0  0  0  0  0  0  0  0  0  0  0  0
   47.9500   35.0960   41.6820 C   0  0  0  0  0  0  0  0  0  0  0  0
   48.8940   35.9550   41.6840 O   0  0  0  0  0  0  0  0  0  0  0  0
   47.5060   32.2600   41.5450 H   0  0  0  0  0  0  0  0  0  0  0  0
   47.7400   32.8040   40.7070 N   0  0  0  0  0  0  0  0  0  0  0  0
   47.9820   34.1260   40.5660 C   0  0  0  0  0  0  0  0  0  0  0  0
   48.2470   34.3810   39.2710 N   0  0  0  0  0  0  0  0  0  0  0  0
   48.1810   33.2470   38.5650 C   0  0  0  0  0  0  0  0  0  0  0  0
   48.3350   32.8230   37.2610 C   0  0  0  0  0  0  0  0  0  0  0  0
   48.2000   31.5630   36.8420 N   0  0  0  0  0  0  0  0  0  0  0  0
   47.8850   30.6090   37.7570 C   0  0  0  0  0  0  0  0  0  0  0  0
   47.7420   29.5540   37.5760 H   0  0  0  0  0  0  0  0  0  0  0  0
   47.7280   30.9910   39.0380 N   0  0  0  0  0  0  0  0  0  0  0  0
   47.8610   32.2510   39.4720 C   0  0  0  0  0  0  0  0  0  0  0  0
   48.6650   33.8130   36.2950 N   0  0  0  0  0  0  0  0  0  0  0  0
   47.8280   34.4340   36.0840 H   0  0  0  0  0  0  0  0  0  0  0  0
   49.3480   34.2690   35.6510 H   0  0  0  0  0  0  0  0  0  0  0  0
  1  6  1  0  0  0  0
  2  1  2  0  0  0  0
  2  3  1  0  0  0  0
  3  4  2  0  0  0  0
  4  5  1  0  0  0  0
  5 10  1  0  0  0  0
  6  5  2  0  0  0  0
  7  2  1  0  0  0  0
  8  3  1  0  0  0  0
  9 10  2  0  0  0  0
  9 17  1  0  0  0  0
 10 11  1  0  0  0  0
 11 19  1  0  0  0  0
 11 12  2  0  0  0  0
 12 13  1  0  0  0  0
 13 14  1  0  0  0  0
 13 20  1  0  0  0  0
 14 21  1  0  0  0  0
 15 22  1  0  0  0  0
 15 14  2  0  0  0  0
 16 12  1  0  0  0  0
 16 15  1  0  0  0  0
 17 16  2  0  0  0  0
 18  9  1  0  0  0  0
 23 17  1  0  0  0  0
 24 25  2  0  0  0  0
 24  1  1  0  0  0  0
 27 26  1  0  0  0  0
 28 27  1  0  0  0  0
 28 24  1  0  0  0  0
 29 28  2  0  0  0  0
 30 29  1  0  0  0  0
 30 36  1  0  0  0  0
 31 30  2  0  0  0  0
 32 31  1  0  0  0  0
 32 33  2  0  0  0  0
 33 35  1  0  0  0  0
 34 33  1  0  0  0  0
 35 36  2  0  0  0  0
 36 27  1  0  0  0  0
 37 31  1  0  0  0  0
 38 37  1  0  0  0  0
 39 37  1  0  0  0  0
M  END
>  <minimizedAffinity>
-6.60589361

>  <minimizedRMSD>
0.370540857

$$$$
