
 OpenBabel03242520193D

 40 43  0  0  0  0  0  0  0  0999 V2000
   40.3230   35.7350   39.7910 C   0  0  0  0  0  0  0  0  0  0  0  0
   40.5890   36.1690   40.7550 H   0  0  0  0  0  0  0  0  0  0  0  0
   39.5840   36.4610   39.3410 H   0  0  0  0  0  0  0  0  0  0  0  0
   39.7050   33.8280   41.1820 C   0  0  0  0  0  0  0  0  0  0  0  0
   40.0640   34.3710   42.2640 O   0  0  0  0  0  0  0  0  0  0  0  0
   39.7480   34.4120   39.8920 N   0  0  0  0  0  0  0  0  0  0  0  0
   39.3900   33.9330   39.0420 H   0  0  0  0  0  0  0  0  0  0  0  0
   37.1370   32.6030   40.6740 H   0  0  0  0  0  0  0  0  0  0  0  0
   37.9250   31.9970   40.9840 N   0  0  0  0  0  0  0  0  0  0  0  0
   39.1850   32.4440   41.2570 C   0  0  0  0  0  0  0  0  0  0  0  0
   39.8840   31.3310   41.6220 N   0  0  0  0  0  0  0  0  0  0  0  0
   39.1180   30.2430   41.5830 C   0  0  0  0  0  0  0  0  0  0  0  0
   39.4450   28.9230   41.8780 C   0  0  0  0  0  0  0  0  0  0  0  0
   38.4230   28.0360   41.7390 N   0  0  0  0  0  0  0  0  0  0  0  0
   37.2030   28.4300   41.3430 C   0  0  0  0  0  0  0  0  0  0  0  0
   36.4310   27.6730   41.2510 H   0  0  0  0  0  0  0  0  0  0  0  0
   36.9220   29.7210   41.0650 N   0  0  0  0  0  0  0  0  0  0  0  0
   37.8710   30.6670   41.1770 C   0  0  0  0  0  0  0  0  0  0  0  0
   40.7670   28.5960   42.2900 N   0  0  0  0  0  0  0  0  0  0  0  0
   41.3250   28.7560   41.4190 H   0  0  0  0  0  0  0  0  0  0  0  0
   41.1790   28.2700   43.2060 H   0  0  0  0  0  0  0  0  0  0  0  0
   41.5530   35.7710   38.9100 C   0  0  0  0  0  0  0  0  0  0  0  0
   41.8820   36.8140   38.7250 H   0  0  0  0  0  0  0  0  0  0  0  0
   41.3460   35.3320   37.9070 H   0  0  0  0  0  0  0  0  0  0  0  0
   44.1730   34.5780   41.3640 C   0  0  0  0  0  0  0  0  0  0  0  0
   43.1250   35.3360   40.7950 C   0  0  0  0  0  0  0  0  0  0  0  0
   42.6590   35.0050   39.5340 C   0  0  0  0  0  0  0  0  0  0  0  0
   43.2630   33.9390   38.9060 N   0  0  0  0  0  0  0  0  0  0  0  0
   44.2690   33.2430   39.4950 C   0  0  0  0  0  0  0  0  0  0  0  0
   44.7180   33.5570   40.7080 N   0  0  0  0  0  0  0  0  0  0  0  0
   42.7190   36.1500   41.3650 H   0  0  0  0  0  0  0  0  0  0  0  0
   44.7190   32.4060   38.9630 H   0  0  0  0  0  0  0  0  0  0  0  0
   44.6700   34.9480   42.7120 C   0  0  0  0  0  0  0  0  0  0  0  0
   46.1860   35.3560   42.6850 C   0  0  0  0  0  0  0  0  0  0  0  0
   45.0920   36.2460   43.0890 C   0  0  0  0  0  0  0  0  0  0  0  0
   44.4830   34.1570   43.4980 H   0  0  0  0  0  0  0  0  0  0  0  0
   46.8470   34.8530   43.4010 H   0  0  0  0  0  0  0  0  0  0  0  0
   46.6260   35.5590   41.6950 H   0  0  0  0  0  0  0  0  0  0  0  0
   45.0610   36.5400   44.1690 H   0  0  0  0  0  0  0  0  0  0  0  0
   44.8540   37.1500   42.4550 H   0  0  0  0  0  0  0  0  0  0  0  0
  1  6  1  0  0  0  0
  1  2  1  0  0  0  0
  3  1  1  0  0  0  0
  4 10  1  0  0  0  0
  4  5  2  0  0  0  0
  6  4  1  0  0  0  0
  7  6  1  0  0  0  0
  8  9  1  0  0  0  0
  9 18  1  0  0  0  0
  9 10  1  0  0  0  0
 10 11  2  0  0  0  0
 12 11  1  0  0  0  0
 12 13  1  0  0  0  0
 13 19  1  0  0  0  0
 14 13  2  0  0  0  0
 15 14  1  0  0  0  0
 16 15  1  0  0  0  0
 17 18  1  0  0  0  0
 17 15  2  0  0  0  0
 18 12  2  0  0  0  0
 19 21  1  0  0  0  0
 20 19  1  0  0  0  0
 22 27  1  0  0  0  0
 22  1  1  0  0  0  0
 23 22  1  0  0  0  0
 24 22  1  0  0  0  0
 25 33  1  0  0  0  0
 26 25  1  0  0  0  0
 26 31  1  0  0  0  0
 27 26  2  0  0  0  0
 28 29  2  0  0  0  0
 28 27  1  0  0  0  0
 29 30  1  0  0  0  0
 30 25  2  0  0  0  0
 32 29  1  0  0  0  0
 33 35  1  0  0  0  0
 33 36  1  0  0  0  0
 34 33  1  0  0  0  0
 34 35  1  0  0  0  0
 34 37  1  0  0  0  0
 35 39  1  0  0  0  0
 38 34  1  0  0  0  0
 40 35  1  0  0  0  0
M  END
>  <minimizedAffinity>
-5.62119627

>  <minimizedRMSD>
1.78903413

$$$$
