
 OpenBabel03252500273D

 48 51  0  0  1  0  0  0  0  0999 V2000
   47.2680   32.8580   46.9210 O   0  0  0  0  0  0  0  0  0  0  0  0
   45.8300   32.6040   46.6380 P   0  0  1  0  0  0  0  0  0  0  0  0
   45.6980   31.6040   45.2780 O   0  0  0  0  0  0  0  0  0  0  0  0
   46.2810   31.9760   44.5850 H   0  0  0  0  0  0  0  0  0  0  0  0
   45.2030   31.8370   47.9580 O   0  0  0  0  0  0  0  0  0  0  0  0
   47.1400   30.4420   48.0240 C   0  0  2  0  0  0  0  0  0  0  0  0
   45.6620   30.5460   48.0220 C   0  0  2  0  0  0  0  0  0  0  0  0
   45.1970   29.7180   46.9300 C   0  0  0  0  0  0  0  0  0  0  0  0
   46.1840   28.7670   46.6360 O   0  0  0  0  0  0  0  0  0  0  0  0
   47.1520   28.9310   47.5660 C   0  0  0  0  0  0  0  0  0  0  0  0
   47.6920   30.8030   47.1390 H   0  0  0  0  0  0  0  0  0  0  0  0
   45.3910   30.2310   49.0710 H   0  0  0  0  0  0  0  0  0  0  0  0
   44.4670   28.9970   47.4490 H   0  0  0  0  0  0  0  0  0  0  0  0
   44.5400   30.0230   46.1450 H   0  0  0  0  0  0  0  0  0  0  0  0
   46.9090   28.3860   48.5240 H   0  0  0  0  0  0  0  0  0  0  0  0
   48.1590   28.6180   47.3010 H   0  0  0  0  0  0  0  0  0  0  0  0
   47.7610   30.5090   49.2130 O   0  0  0  0  0  0  0  0  0  0  0  0
   48.9340   31.0240   49.4380 C   0  0  0  0  0  0  0  0  0  0  0  0
   49.1510   32.0590   49.5360 H   0  0  0  0  0  0  0  0  0  0  0  0
   49.5470   30.7500   48.4140 H   0  0  0  0  0  0  0  0  0  0  0  0
   49.7000   30.1100   50.3810 C   0  0  0  0  0  0  0  0  0  0  0  0
   49.3200   30.1810   51.4170 H   0  0  0  0  0  0  0  0  0  0  0  0
   49.6090   29.0880   49.9590 H   0  0  0  0  0  0  0  0  0  0  0  0
   50.7660   30.4560   50.3360 H   0  0  0  0  0  0  0  0  0  0  0  0
   45.1290   34.1370   46.3680 O   0  0  0  0  0  0  0  0  0  0  0  0
   46.2230   34.9010   43.0380 C   0  0  0  0  0  0  0  0  0  0  0  0
   45.3420   35.9230   42.6100 C   0  0  0  0  0  0  0  0  0  0  0  0
   44.3570   36.3240   43.5380 C   0  0  0  0  0  0  0  0  0  0  0  0
   44.3110   35.7290   44.7470 N   0  0  0  0  0  0  0  0  0  0  0  0
   45.1700   34.7630   45.1090 C   0  0  0  0  0  0  0  0  0  0  0  0
   46.1190   34.3540   44.2550 N   0  0  0  0  0  0  0  0  0  0  0  0
   45.3910   36.3890   41.6410 H   0  0  0  0  0  0  0  0  0  0  0  0
   43.6520   37.0960   43.2860 H   0  0  0  0  0  0  0  0  0  0  0  0
   47.1870   34.4840   42.1700 O   0  0  0  0  0  0  0  0  0  0  0  0
   49.9810   34.0480   41.8150 H   0  0  0  0  0  0  0  0  0  0  0  0
   49.3950   33.2840   42.2120 N   0  0  0  0  0  0  0  0  0  0  0  0
   48.0750   33.4690   42.3880 C   0  0  0  0  0  0  0  0  0  0  0  0
   47.5920   32.3200   42.9130 N   0  0  0  0  0  0  0  0  0  0  0  0
   48.6280   31.4640   43.0430 C   0  0  0  0  0  0  0  0  0  0  0  0
   48.7520   30.1590   43.5130 C   0  0  0  0  0  0  0  0  0  0  0  0
   49.9280   29.5070   43.5410 N   0  0  0  0  0  0  0  0  0  0  0  0
   51.0440   30.1390   43.0940 C   0  0  0  0  0  0  0  0  0  0  0  0
   52.0430   29.7190   43.0670 H   0  0  0  0  0  0  0  0  0  0  0  0
   50.9640   31.4180   42.6260 N   0  0  0  0  0  0  0  0  0  0  0  0
   49.7920   32.0600   42.6020 C   0  0  0  0  0  0  0  0  0  0  0  0
   47.5880   29.4760   43.9890 N   0  0  0  0  0  0  0  0  0  0  0  0
   46.9210   29.4630   44.7900 H   0  0  0  0  0  0  0  0  0  0  0  0
   47.3550   28.7500   43.2600 H   0  0  0  0  0  0  0  0  0  0  0  0
  2  1  2  1  0  0  0
  2  5  1  0  0  0  0
  3  2  1  0  0  0  0
  4  3  1  0  0  0  0
  5  7  1  0  0  0  0
  6 11  1  6  0  0  0
  6 17  1  0  0  0  0
  7  6  1  0  0  0  0
  7 12  1  1  0  0  0
  8 13  1  0  0  0  0
  8  7  1  0  0  0  0
  9  8  1  0  0  0  0
  9 10  1  0  0  0  0
 10  6  1  0  0  0  0
 10 15  1  0  0  0  0
 14  8  1  0  0  0  0
 16 10  1  0  0  0  0
 17 18  1  0  0  0  0
 18 19  1  0  0  0  0
 18 21  1  0  0  0  0
 20 18  1  0  0  0  0
 21 22  1  0  0  0  0
 23 21  1  0  0  0  0
 24 21  1  0  0  0  0
 25  2  1  0  0  0  0
 26 31  1  0  0  0  0
 27 26  2  0  0  0  0
 27 28  1  0  0  0  0
 28 29  2  0  0  0  0
 29 30  1  0  0  0  0
 30 25  1  0  0  0  0
 31 30  2  0  0  0  0
 32 27  1  0  0  0  0
 33 28  1  0  0  0  0
 34 37  1  0  0  0  0
 34 26  1  0  0  0  0
 35 36  1  0  0  0  0
 36 37  1  0  0  0  0
 36 45  1  0  0  0  0
 37 38  2  0  0  0  0
 38 39  1  0  0  0  0
 39 40  1  0  0  0  0
 40 41  2  0  0  0  0
 40 46  1  0  0  0  0
 42 41  1  0  0  0  0
 43 42  1  0  0  0  0
 44 42  2  0  0  0  0
 45 44  1  0  0  0  0
 45 39  2  0  0  0  0
 46 47  1  0  0  0  0
 48 46  1  0  0  0  0
M  END
>  <minimizedAffinity>
-4.99777889

>  <minimizedRMSD>
6.27930212

$$$$
