
 OpenBabel03242520193D

 40 43  0  0  0  0  0  0  0  0999 V2000
   40.1150   35.6350   39.9850 C   0  0  0  0  0  0  0  0  0  0  0  0
   40.4520   35.9530   40.9720 H   0  0  0  0  0  0  0  0  0  0  0  0
   39.3720   36.4240   39.6650 H   0  0  0  0  0  0  0  0  0  0  0  0
   39.5290   33.5980   41.1950 C   0  0  0  0  0  0  0  0  0  0  0  0
   39.9730   34.0070   42.3030 O   0  0  0  0  0  0  0  0  0  0  0  0
   39.5070   34.3230   39.9770 N   0  0  0  0  0  0  0  0  0  0  0  0
   39.0800   33.9520   39.1050 H   0  0  0  0  0  0  0  0  0  0  0  0
   37.3920   32.3310   39.7190 H   0  0  0  0  0  0  0  0  0  0  0  0
   37.9410   31.7560   40.3910 N   0  0  0  0  0  0  0  0  0  0  0  0
   38.9730   32.2270   41.1500 C   0  0  0  0  0  0  0  0  0  0  0  0
   39.3980   31.1520   41.8750 N   0  0  0  0  0  0  0  0  0  0  0  0
   38.6820   30.0660   41.5970 C   0  0  0  0  0  0  0  0  0  0  0  0
   38.7950   28.7790   42.1140 C   0  0  0  0  0  0  0  0  0  0  0  0
   37.9000   27.8820   41.6150 N   0  0  0  0  0  0  0  0  0  0  0  0
   36.9900   28.2380   40.6950 C   0  0  0  0  0  0  0  0  0  0  0  0
   36.3060   27.4760   40.3390 H   0  0  0  0  0  0  0  0  0  0  0  0
   36.9120   29.4980   40.2160 N   0  0  0  0  0  0  0  0  0  0  0  0
   37.7540   30.4500   40.6510 C   0  0  0  0  0  0  0  0  0  0  0  0
   39.7900   28.4910   43.0870 N   0  0  0  0  0  0  0  0  0  0  0  0
   40.6770   28.5690   42.5390 H   0  0  0  0  0  0  0  0  0  0  0  0
   39.7490   28.2510   44.1140 H   0  0  0  0  0  0  0  0  0  0  0  0
   41.2890   35.7400   39.0370 C   0  0  0  0  0  0  0  0  0  0  0  0
   41.5580   36.8000   38.8490 H   0  0  0  0  0  0  0  0  0  0  0  0
   41.0460   35.3040   38.0410 H   0  0  0  0  0  0  0  0  0  0  0  0
   44.0620   34.6020   41.3450 C   0  0  0  0  0  0  0  0  0  0  0  0
   42.9470   35.3160   40.8480 C   0  0  0  0  0  0  0  0  0  0  0  0
   42.4640   35.0200   39.5860 C   0  0  0  0  0  0  0  0  0  0  0  0
   43.1160   34.0310   38.8840 N   0  0  0  0  0  0  0  0  0  0  0  0
   44.1840   33.3750   39.4040 C   0  0  0  0  0  0  0  0  0  0  0  0
   44.6510   33.6560   40.6190 N   0  0  0  0  0  0  0  0  0  0  0  0
   42.5080   36.0700   41.4730 H   0  0  0  0  0  0  0  0  0  0  0  0
   44.6710   32.6000   38.8150 H   0  0  0  0  0  0  0  0  0  0  0  0
   44.5780   34.9350   42.6950 C   0  0  0  0  0  0  0  0  0  0  0  0
   46.1030   35.3050   42.6640 C   0  0  0  0  0  0  0  0  0  0  0  0
   45.0350   36.2150   43.0930 C   0  0  0  0  0  0  0  0  0  0  0  0
   44.3760   34.1350   43.4690 H   0  0  0  0  0  0  0  0  0  0  0  0
   46.7560   34.7720   43.3660 H   0  0  0  0  0  0  0  0  0  0  0  0
   46.5410   35.5150   41.6760 H   0  0  0  0  0  0  0  0  0  0  0  0
   45.0190   36.4890   44.1780 H   0  0  0  0  0  0  0  0  0  0  0  0
   44.8160   37.1360   42.4780 H   0  0  0  0  0  0  0  0  0  0  0  0
  1  2  1  0  0  0  0
  3  1  1  0  0  0  0
  4  5  2  0  0  0  0
  6  1  1  0  0  0  0
  6  4  1  0  0  0  0
  7  6  1  0  0  0  0
  8  9  1  0  0  0  0
  9 18  1  0  0  0  0
  9 10  1  0  0  0  0
 10  4  1  0  0  0  0
 10 11  2  0  0  0  0
 12 11  1  0  0  0  0
 12 13  1  0  0  0  0
 13 19  1  0  0  0  0
 14 13  2  0  0  0  0
 15 14  1  0  0  0  0
 16 15  1  0  0  0  0
 17 18  1  0  0  0  0
 17 15  2  0  0  0  0
 18 12  2  0  0  0  0
 19 21  1  0  0  0  0
 20 19  1  0  0  0  0
 22 27  1  0  0  0  0
 22  1  1  0  0  0  0
 23 22  1  0  0  0  0
 24 22  1  0  0  0  0
 25 33  1  0  0  0  0
 26 25  1  0  0  0  0
 26 31  1  0  0  0  0
 27 26  2  0  0  0  0
 28 29  2  0  0  0  0
 28 27  1  0  0  0  0
 29 30  1  0  0  0  0
 30 25  2  0  0  0  0
 32 29  1  0  0  0  0
 33 35  1  0  0  0  0
 33 36  1  0  0  0  0
 34 33  1  0  0  0  0
 34 35  1  0  0  0  0
 34 37  1  0  0  0  0
 35 39  1  0  0  0  0
 38 34  1  0  0  0  0
 40 35  1  0  0  0  0
M  END
>  <minimizedAffinity>
-5.56897783

>  <minimizedRMSD>
1.45016587

$$$$
