
 OpenBabel03242520193D

 40 43  0  0  0  0  0  0  0  0999 V2000
   39.9270   35.7710   40.2840 C   0  0  0  0  0  0  0  0  0  0  0  0
   40.2710   35.8170   41.3180 H   0  0  0  0  0  0  0  0  0  0  0  0
   39.2420   36.6620   40.1670 H   0  0  0  0  0  0  0  0  0  0  0  0
   39.3110   33.4940   40.9110 C   0  0  0  0  0  0  0  0  0  0  0  0
   39.8770   33.5430   42.0390 O   0  0  0  0  0  0  0  0  0  0  0  0
   39.2320   34.5440   39.9630 N   0  0  0  0  0  0  0  0  0  0  0  0
   38.7070   34.4610   39.0700 H   0  0  0  0  0  0  0  0  0  0  0  0
   37.3400   31.7820   42.1540 H   0  0  0  0  0  0  0  0  0  0  0  0
   37.7270   31.5040   41.2280 N   0  0  0  0  0  0  0  0  0  0  0  0
   38.6610   32.2190   40.5320 C   0  0  0  0  0  0  0  0  0  0  0  0
   38.8780   31.5030   39.3930 N   0  0  0  0  0  0  0  0  0  0  0  0
   38.1310   30.4010   39.3620 C   0  0  0  0  0  0  0  0  0  0  0  0
   38.0560   29.4140   38.3840 C   0  0  0  0  0  0  0  0  0  0  0  0
   37.1830   28.4060   38.6570 N   0  0  0  0  0  0  0  0  0  0  0  0
   36.4620   28.3900   39.7890 C   0  0  0  0  0  0  0  0  0  0  0  0
   35.7840   27.5580   39.9460 H   0  0  0  0  0  0  0  0  0  0  0  0
   36.5620   29.3670   40.7140 N   0  0  0  0  0  0  0  0  0  0  0  0
   37.3990   30.4030   40.5300 C   0  0  0  0  0  0  0  0  0  0  0  0
   38.8580   29.5120   37.2140 N   0  0  0  0  0  0  0  0  0  0  0  0
   38.4360   30.3280   36.7140 H   0  0  0  0  0  0  0  0  0  0  0  0
   39.6820   28.9590   36.8540 H   0  0  0  0  0  0  0  0  0  0  0  0
   41.1180   36.0200   39.3860 C   0  0  0  0  0  0  0  0  0  0  0  0
   41.3870   37.0970   39.3680 H   0  0  0  0  0  0  0  0  0  0  0  0
   40.8940   35.7430   38.3300 H   0  0  0  0  0  0  0  0  0  0  0  0
   43.9550   34.6610   41.4860 C   0  0  0  0  0  0  0  0  0  0  0  0
   42.8510   35.4450   41.0820 C   0  0  0  0  0  0  0  0  0  0  0  0
   42.2840   35.2240   39.8390 C   0  0  0  0  0  0  0  0  0  0  0  0
   42.8470   34.2350   39.0630 N   0  0  0  0  0  0  0  0  0  0  0  0
   43.9090   33.5100   39.4960 C   0  0  0  0  0  0  0  0  0  0  0  0
   44.4560   33.7190   40.6920 N   0  0  0  0  0  0  0  0  0  0  0  0
   42.4840   36.1940   41.7590 H   0  0  0  0  0  0  0  0  0  0  0  0
   44.3240   32.7370   38.8520 H   0  0  0  0  0  0  0  0  0  0  0  0
   44.5600   34.9140   42.8160 C   0  0  0  0  0  0  0  0  0  0  0  0
   46.0690   35.3340   42.7020 C   0  0  0  0  0  0  0  0  0  0  0  0
   45.0120   36.1770   43.2710 C   0  0  0  0  0  0  0  0  0  0  0  0
   44.4380   34.0560   43.5420 H   0  0  0  0  0  0  0  0  0  0  0  0
   46.7860   34.7730   43.3150 H   0  0  0  0  0  0  0  0  0  0  0  0
   46.4270   35.6260   41.7030 H   0  0  0  0  0  0  0  0  0  0  0  0
   45.0700   36.3740   44.3720 H   0  0  0  0  0  0  0  0  0  0  0  0
   44.7240   37.1320   42.7420 H   0  0  0  0  0  0  0  0  0  0  0  0
  1  2  1  0  0  0  0
  3  1  1  0  0  0  0
  4  5  2  0  0  0  0
  6  1  1  0  0  0  0
  6  4  1  0  0  0  0
  7  6  1  0  0  0  0
  9  8  1  0  0  0  0
 10  4  1  0  0  0  0
 10  9  1  0  0  0  0
 11 10  2  0  0  0  0
 12 11  1  0  0  0  0
 12 18  1  0  0  0  0
 13 14  1  0  0  0  0
 13 12  2  0  0  0  0
 14 15  2  0  0  0  0
 15 16  1  0  0  0  0
 15 17  1  0  0  0  0
 18 17  2  0  0  0  0
 18  9  1  0  0  0  0
 19 13  1  0  0  0  0
 20 19  1  0  0  0  0
 21 19  1  0  0  0  0
 22 27  1  0  0  0  0
 22  1  1  0  0  0  0
 23 22  1  0  0  0  0
 24 22  1  0  0  0  0
 25 33  1  0  0  0  0
 26 25  1  0  0  0  0
 26 31  1  0  0  0  0
 27 26  2  0  0  0  0
 28 29  2  0  0  0  0
 28 27  1  0  0  0  0
 29 30  1  0  0  0  0
 30 25  2  0  0  0  0
 32 29  1  0  0  0  0
 33 35  1  0  0  0  0
 33 36  1  0  0  0  0
 34 33  1  0  0  0  0
 34 35  1  0  0  0  0
 34 37  1  0  0  0  0
 35 39  1  0  0  0  0
 38 34  1  0  0  0  0
 40 35  1  0  0  0  0
M  END
>  <minimizedAffinity>
-5.40695238

>  <minimizedRMSD>
0.767976165

$$$$
