
 OpenBabel03242520193D

 40 43  0  0  0  0  0  0  0  0999 V2000
   39.8890   35.8290   40.1420 C   0  0  0  0  0  0  0  0  0  0  0  0
   40.0400   35.9870   41.2100 H   0  0  0  0  0  0  0  0  0  0  0  0
   39.2120   36.6730   39.8170 H   0  0  0  0  0  0  0  0  0  0  0  0
   39.3180   33.5630   40.8460 C   0  0  0  0  0  0  0  0  0  0  0  0
   39.7430   33.7130   42.0250 O   0  0  0  0  0  0  0  0  0  0  0  0
   39.3000   34.5470   39.8260 N   0  0  0  0  0  0  0  0  0  0  0  0
   38.8890   34.3800   38.8860 H   0  0  0  0  0  0  0  0  0  0  0  0
   38.9800   32.1330   38.3580 H   0  0  0  0  0  0  0  0  0  0  0  0
   38.6790   31.6720   39.2410 N   0  0  0  0  0  0  0  0  0  0  0  0
   38.7810   32.2320   40.4820 C   0  0  0  0  0  0  0  0  0  0  0  0
   38.2780   31.2960   41.3360 N   0  0  0  0  0  0  0  0  0  0  0  0
   37.8800   30.2070   40.6820 C   0  0  0  0  0  0  0  0  0  0  0  0
   37.3160   29.0370   41.1790 C   0  0  0  0  0  0  0  0  0  0  0  0
   37.0170   28.1010   40.2370 N   0  0  0  0  0  0  0  0  0  0  0  0
   37.2580   28.3160   38.9340 C   0  0  0  0  0  0  0  0  0  0  0  0
   36.9970   27.5300   38.2350 H   0  0  0  0  0  0  0  0  0  0  0  0
   37.8080   29.4660   38.4890 N   0  0  0  0  0  0  0  0  0  0  0  0
   38.1360   30.4460   39.3480 C   0  0  0  0  0  0  0  0  0  0  0  0
   37.0960   28.8940   42.5770 N   0  0  0  0  0  0  0  0  0  0  0  0
   38.0680   28.8310   42.9580 H   0  0  0  0  0  0  0  0  0  0  0  0
   36.2240   28.8530   43.1710 H   0  0  0  0  0  0  0  0  0  0  0  0
   41.2160   36.0490   39.4470 C   0  0  0  0  0  0  0  0  0  0  0  0
   41.5550   37.0990   39.5570 H   0  0  0  0  0  0  0  0  0  0  0  0
   41.1340   35.8650   38.3520 H   0  0  0  0  0  0  0  0  0  0  0  0
   43.8840   34.5470   41.6680 C   0  0  0  0  0  0  0  0  0  0  0  0
   42.9160   35.4470   41.1670 C   0  0  0  0  0  0  0  0  0  0  0  0
   42.2450   35.1340   39.9970 C   0  0  0  0  0  0  0  0  0  0  0  0
   42.5750   33.9450   39.3880 N   0  0  0  0  0  0  0  0  0  0  0  0
   43.5150   33.1140   39.9080 C   0  0  0  0  0  0  0  0  0  0  0  0
   44.1600   33.4110   41.0340 N   0  0  0  0  0  0  0  0  0  0  0  0
   42.7300   36.3510   41.7160 H   0  0  0  0  0  0  0  0  0  0  0  0
   43.7450   32.1830   39.3950 H   0  0  0  0  0  0  0  0  0  0  0  0
   44.6030   34.8970   42.9180 C   0  0  0  0  0  0  0  0  0  0  0  0
   46.0940   35.3060   42.6400 C   0  0  0  0  0  0  0  0  0  0  0  0
   45.0870   36.1900   43.2360 C   0  0  0  0  0  0  0  0  0  0  0  0
   44.5510   34.0950   43.7130 H   0  0  0  0  0  0  0  0  0  0  0  0
   46.8650   34.7920   43.2260 H   0  0  0  0  0  0  0  0  0  0  0  0
   46.3600   35.5230   41.5930 H   0  0  0  0  0  0  0  0  0  0  0  0
   45.2400   36.4670   44.3100 H   0  0  0  0  0  0  0  0  0  0  0  0
   44.7470   37.1030   42.6660 H   0  0  0  0  0  0  0  0  0  0  0  0
  1  2  1  0  0  0  0
  3  1  1  0  0  0  0
  4  5  2  0  0  0  0
  6  1  1  0  0  0  0
  6  4  1  0  0  0  0
  7  6  1  0  0  0  0
  8  9  1  0  0  0  0
  9 18  1  0  0  0  0
  9 10  1  0  0  0  0
 10  4  1  0  0  0  0
 10 11  2  0  0  0  0
 12 13  1  0  0  0  0
 12 11  1  0  0  0  0
 13 19  1  0  0  0  0
 14 13  2  0  0  0  0
 15 14  1  0  0  0  0
 16 15  1  0  0  0  0
 17 15  2  0  0  0  0
 17 18  1  0  0  0  0
 18 12  2  0  0  0  0
 19 20  1  0  0  0  0
 19 21  1  0  0  0  0
 22 23  1  0  0  0  0
 22 27  1  0  0  0  0
 22  1  1  0  0  0  0
 24 22  1  0  0  0  0
 25 33  1  0  0  0  0
 26 25  1  0  0  0  0
 26 31  1  0  0  0  0
 27 26  2  0  0  0  0
 28 29  2  0  0  0  0
 28 27  1  0  0  0  0
 29 30  1  0  0  0  0
 30 25  2  0  0  0  0
 32 29  1  0  0  0  0
 33 35  1  0  0  0  0
 33 36  1  0  0  0  0
 34 33  1  0  0  0  0
 34 37  1  0  0  0  0
 34 35  1  0  0  0  0
 35 39  1  0  0  0  0
 38 34  1  0  0  0  0
 40 35  1  0  0  0  0
M  END
>  <minimizedAffinity>
-5.50047302

>  <minimizedRMSD>
1.03822732

$$$$
