
 OpenBabel03242519413D

 34 36  0  0  0  0  0  0  0  0999 V2000
   48.0210   32.9000   41.6230 O   0  0  0  0  0  0  0  0  0  0  0  0
   47.1700   34.1450   41.2550 P   0  0  2  0  0  0  0  0  0  0  0  0
   45.5770   33.9200   41.8570 O   0  0  0  0  0  0  0  0  0  0  0  0
   44.3960   35.9120   44.6690 C   0  0  0  0  0  0  0  0  0  0  0  0
   44.6720   35.5070   43.3400 C   0  0  0  0  0  0  0  0  0  0  0  0
   45.3210   34.2800   43.1640 C   0  0  0  0  0  0  0  0  0  0  0  0
   45.6430   33.5580   44.2530 N   0  0  0  0  0  0  0  0  0  0  0  0
   45.3640   33.9720   45.5090 C   0  0  0  0  0  0  0  0  0  0  0  0
   44.7450   35.1410   45.7250 N   0  0  0  0  0  0  0  0  0  0  0  0
   43.8920   36.8650   44.7960 H   0  0  0  0  0  0  0  0  0  0  0  0
   44.3640   36.1750   42.5430 H   0  0  0  0  0  0  0  0  0  0  0  0
   45.6740   33.3010   46.3140 H   0  0  0  0  0  0  0  0  0  0  0  0
   47.0960   34.2820   39.6060 O   0  0  0  0  0  0  0  0  0  0  0  0
   47.0800   33.3240   38.6450 C   0  0  0  0  0  0  0  0  0  0  0  0
   48.2010   32.5410   38.5190 O   0  0  0  0  0  0  0  0  0  0  0  0
   44.5560   31.9360   38.5810 H   0  0  0  0  0  0  0  0  0  0  0  0
   45.0860   32.0400   37.6570 N   0  0  0  0  0  0  0  0  0  0  0  0
   46.2840   32.6830   37.5690 C   0  0  0  0  0  0  0  0  0  0  0  0
   46.5380   32.5620   36.2880 N   0  0  0  0  0  0  0  0  0  0  0  0
   45.5480   31.8920   35.6820 C   0  0  0  0  0  0  0  0  0  0  0  0
   45.6000   31.6440   34.3340 C   0  0  0  0  0  0  0  0  0  0  0  0
   44.5120   30.9520   33.8900 N   0  0  0  0  0  0  0  0  0  0  0  0
   43.5100   30.5640   34.6960 C   0  0  0  0  0  0  0  0  0  0  0  0
   42.6570   30.0130   34.3110 H   0  0  0  0  0  0  0  0  0  0  0  0
   43.5660   30.8670   36.0300 N   0  0  0  0  0  0  0  0  0  0  0  0
   44.5680   31.5300   36.5610 C   0  0  0  0  0  0  0  0  0  0  0  0
   46.6070   32.0090   33.4000 N   0  0  0  0  0  0  0  0  0  0  0  0
   46.3190   32.8460   32.8570 H   0  0  0  0  0  0  0  0  0  0  0  0
   47.5100   31.4640   33.3140 H   0  0  0  0  0  0  0  0  0  0  0  0
   47.8490   35.4430   42.0300 O   0  0  0  0  0  0  0  0  0  0  0  0
   49.0830   35.7930   41.4920 C   0  0  0  0  0  0  0  0  0  0  0  0
   49.4520   37.0860   41.8210 F   0  0  0  0  0  0  0  0  0  0  0  0
   50.0290   34.8770   41.8280 F   0  0  0  0  0  0  0  0  0  0  0  0
   48.9170   35.7750   40.1100 F   0  0  0  0  0  0  0  0  0  0  0  0
  2  1  2  1  0  0  0
  2  3  1  0  0  0  0
  2 30  1  0  0  0  0
  3  6  1  0  0  0  0
  4 10  1  0  0  0  0
  4  9  1  0  0  0  0
  5  4  2  0  0  0  0
  6  5  1  0  0  0  0
  6  7  2  0  0  0  0
  7  8  1  0  0  0  0
  8  9  2  0  0  0  0
  8 12  1  0  0  0  0
 11  5  1  0  0  0  0
 13  2  1  0  0  0  0
 14 13  1  0  0  0  0
 15 14  2  0  0  0  0
 17 16  1  0  0  0  0
 18 17  1  0  0  0  0
 18 14  1  0  0  0  0
 19 18  2  0  0  0  0
 20 19  1  0  0  0  0
 20 26  1  0  0  0  0
 21 20  2  0  0  0  0
 22 21  1  0  0  0  0
 22 23  2  0  0  0  0
 23 25  1  0  0  0  0
 24 23  1  0  0  0  0
 25 26  2  0  0  0  0
 26 17  1  0  0  0  0
 27 21  1  0  0  0  0
 28 27  1  0  0  0  0
 29 27  1  0  0  0  0
 31 32  1  0  0  0  0
 31 33  1  0  0  0  0
 31 30  1  0  0  0  0
 34 31  1  0  0  0  0
M  END
>  <minimizedAffinity>
-5.97027779

>  <minimizedRMSD>
2.49393058

$$$$
