
 OpenBabel03252501043D

 36 39  0  0  1  0  0  0  0  0999 V2000
   34.5680   29.3020   39.7430 O   0  0  0  0  0  0  0  0  0  0  0  0
   35.8350   29.5360   40.5350 P   0  0  2  0  0  0  0  0  0  0  0  0
   35.6190   30.9910   41.3700 O   0  0  0  0  0  0  0  0  0  0  0  0
   34.9390   31.5820   40.9490 H   0  0  0  0  0  0  0  0  0  0  0  0
   37.2170   29.4630   39.6560 O   0  0  0  0  0  0  0  0  0  0  0  0
   37.4510   30.7400   37.6260 C   0  0  1  0  0  0  0  0  0  0  0  0
   38.3660   29.5900   37.4180 C   0  0  0  0  0  0  0  0  0  0  0  0
   37.1440   29.4730   38.3170 C   0  0  1  0  0  0  0  0  0  0  0  0
   36.8180   31.0450   36.7450 H   0  0  0  0  0  0  0  0  0  0  0  0
   38.3860   29.0520   36.4420 H   0  0  0  0  0  0  0  0  0  0  0  0
   39.2970   29.4380   37.9840 H   0  0  0  0  0  0  0  0  0  0  0  0
   36.4170   28.7540   37.8850 H   0  0  0  0  0  0  0  0  0  0  0  0
   39.8330   33.0500   39.4110 C   0  0  0  0  0  0  0  0  0  0  0  0
   39.3820   31.9880   38.6120 C   0  0  0  0  0  0  0  0  0  0  0  0
   37.9960   31.8510   38.4550 C   0  0  0  0  0  0  0  0  0  0  0  0
   37.1470   32.7260   39.0640 N   0  0  0  0  0  0  0  0  0  0  0  0
   37.6140   33.7410   39.8290 C   0  0  0  0  0  0  0  0  0  0  0  0
   38.9570   33.9020   40.0010 N   0  0  0  0  0  0  0  0  0  0  0  0
   40.8620   33.2700   39.6130 H   0  0  0  0  0  0  0  0  0  0  0  0
   40.1020   31.3490   38.1680 H   0  0  0  0  0  0  0  0  0  0  0  0
   36.9500   34.4510   40.3240 H   0  0  0  0  0  0  0  0  0  0  0  0
   35.8610   28.3120   41.7060 O   0  0  0  0  0  0  0  0  0  0  0  0
   38.2620   29.4160   42.7710 H   0  0  0  0  0  0  0  0  0  0  0  0
   38.2060   28.3950   42.6780 N   0  0  0  0  0  0  0  0  0  0  0  0
   37.0830   27.8480   42.1770 C   0  0  0  0  0  0  0  0  0  0  0  0
   37.2520   26.4950   42.1530 N   0  0  0  0  0  0  0  0  0  0  0  0
   38.4750   26.2160   42.6380 C   0  0  0  0  0  0  0  0  0  0  0  0
   39.1850   25.0460   42.8490 C   0  0  0  0  0  0  0  0  0  0  0  0
   40.4190   25.1280   43.3630 N   0  0  0  0  0  0  0  0  0  0  0  0
   40.9890   26.3040   43.6790 C   0  0  0  0  0  0  0  0  0  0  0  0
   42.0010   26.2610   44.0920 H   0  0  0  0  0  0  0  0  0  0  0  0
   40.3330   27.4830   43.4900 N   0  0  0  0  0  0  0  0  0  0  0  0
   39.0790   27.4180   42.9700 C   0  0  0  0  0  0  0  0  0  0  0  0
   38.5010   23.8550   42.4860 N   0  0  0  0  0  0  0  0  0  0  0  0
   37.8310   23.5290   43.2440 H   0  0  0  0  0  0  0  0  0  0  0  0
   38.5330   23.2530   41.6270 H   0  0  0  0  0  0  0  0  0  0  0  0
  2  1  2  6  0  0  0
  2  3  1  0  0  0  0
  2 22  1  0  0  0  0
  4  3  1  0  0  0  0
  5  2  1  0  0  0  0
  6  9  1  6  0  0  0
  6  8  1  0  0  0  0
  6 15  1  0  0  0  0
  7  6  1  0  0  0  0
  7 11  1  0  0  0  0
  7  8  1  0  0  0  0
  8 12  1  6  0  0  0
  8  5  1  0  0  0  0
 10  7  1  0  0  0  0
 13 19  1  0  0  0  0
 13 18  1  0  0  0  0
 14 13  2  0  0  0  0
 15 14  1  0  0  0  0
 15 16  2  0  0  0  0
 16 17  1  0  0  0  0
 17 18  2  0  0  0  0
 17 21  1  0  0  0  0
 20 14  1  0  0  0  0
 22 25  1  0  0  0  0
 24 23  1  0  0  0  0
 24 33  1  0  0  0  0
 25 24  1  0  0  0  0
 26 25  2  0  0  0  0
 26 27  1  0  0  0  0
 27 28  2  0  0  0  0
 27 33  1  0  0  0  0
 28 29  1  0  0  0  0
 29 30  2  0  0  0  0
 30 31  1  0  0  0  0
 32 30  1  0  0  0  0
 33 32  2  0  0  0  0
 34 28  1  0  0  0  0
 34 35  1  0  0  0  0
 36 34  1  0  0  0  0
M  END
>  <minimizedAffinity>
-6.21916103

$$$$

 OpenBabel03252501043D

 36 39  0  0  1  0  0  0  0  0999 V2000
   34.9330   29.3610   40.0890 O   0  0  0  0  0  0  0  0  0  0  0  0
   36.4060   29.6990   40.0770 P   0  0  2  0  0  0  0  0  0  0  0  0
   36.9300   29.5120   38.4800 O   0  0  0  0  0  0  0  0  0  0  0  0
   36.3490   28.9040   37.9510 H   0  0  0  0  0  0  0  0  0  0  0  0
   37.3060   28.8860   41.1800 O   0  0  0  0  0  0  0  0  0  0  0  0
   37.5870   28.3340   43.5100 C   0  0  1  0  0  0  0  0  0  0  0  0
   38.6270   29.3660   43.2710 C   0  0  0  0  0  0  0  0  0  0  0  0
   37.3490   29.3290   42.4460 C   0  0  1  0  0  0  0  0  0  0  0  0
   37.0060   28.4180   44.4710 H   0  0  0  0  0  0  0  0  0  0  0  0
   38.7860   30.1890   44.0050 H   0  0  0  0  0  0  0  0  0  0  0  0
   39.5160   29.2050   42.6420 H   0  0  0  0  0  0  0  0  0  0  0  0
   36.7380   30.2340   42.6430 H   0  0  0  0  0  0  0  0  0  0  0  0
   39.5180   25.1640   42.8630 C   0  0  0  0  0  0  0  0  0  0  0  0
   39.2420   26.4700   43.2960 C   0  0  0  0  0  0  0  0  0  0  0  0
   37.9440   26.9530   43.0810 C   0  0  0  0  0  0  0  0  0  0  0  0
   37.0120   26.1660   42.4740 N   0  0  0  0  0  0  0  0  0  0  0  0
   37.3100   24.9090   42.0670 C   0  0  0  0  0  0  0  0  0  0  0  0
   38.5630   24.4100   42.2630 N   0  0  0  0  0  0  0  0  0  0  0  0
   40.4650   24.6720   42.9650 H   0  0  0  0  0  0  0  0  0  0  0  0
   40.0180   27.0220   43.7620 H   0  0  0  0  0  0  0  0  0  0  0  0
   36.5770   24.2650   41.5800 H   0  0  0  0  0  0  0  0  0  0  0  0
   36.4870   31.3580   40.4160 O   0  0  0  0  0  0  0  0  0  0  0  0
   38.2190   32.9880   41.9820 H   0  0  0  0  0  0  0  0  0  0  0  0
   38.4930   32.7950   41.0120 N   0  0  0  0  0  0  0  0  0  0  0  0
   37.6920   32.0280   40.2510 C   0  0  0  0  0  0  0  0  0  0  0  0
   38.2640   31.9200   39.0180 N   0  0  0  0  0  0  0  0  0  0  0  0
   39.4140   32.6190   39.0260 C   0  0  0  0  0  0  0  0  0  0  0  0
   40.3980   32.8680   38.0850 C   0  0  0  0  0  0  0  0  0  0  0  0
   41.4410   33.6310   38.4340 N   0  0  0  0  0  0  0  0  0  0  0  0
   41.5650   34.1610   39.6640 C   0  0  0  0  0  0  0  0  0  0  0  0
   42.4550   34.7690   39.8470 H   0  0  0  0  0  0  0  0  0  0  0  0
   40.6240   33.9460   40.6260 N   0  0  0  0  0  0  0  0  0  0  0  0
   39.5580   33.1740   40.2880 C   0  0  0  0  0  0  0  0  0  0  0  0
   40.1800   32.2670   36.8160 N   0  0  0  0  0  0  0  0  0  0  0  0
   40.4870   31.2490   36.7960 H   0  0  0  0  0  0  0  0  0  0  0  0
   39.7820   32.6320   35.9170 H   0  0  0  0  0  0  0  0  0  0  0  0
  2  1  2  1  0  0  0
  2 22  1  0  0  0  0
  2  5  1  0  0  0  0
  3  2  1  0  0  0  0
  4  3  1  0  0  0  0
  5  8  1  0  0  0  0
  6  9  1  1  0  0  0
  7  6  1  0  0  0  0
  7 10  1  0  0  0  0
  8 12  1  1  0  0  0
  8  7  1  0  0  0  0
  8  6  1  0  0  0  0
 11  7  1  0  0  0  0
 13 19  1  0  0  0  0
 13 14  1  0  0  0  0
 14 20  1  0  0  0  0
 15 14  2  0  0  0  0
 15  6  1  0  0  0  0
 16 15  1  0  0  0  0
 17 18  1  0  0  0  0
 17 16  2  0  0  0  0
 18 13  2  0  0  0  0
 21 17  1  0  0  0  0
 24 23  1  0  0  0  0
 25 22  1  0  0  0  0
 25 24  1  0  0  0  0
 26 27  1  0  0  0  0
 26 25  2  0  0  0  0
 27 33  1  0  0  0  0
 28 29  1  0  0  0  0
 28 27  2  0  0  0  0
 29 30  2  0  0  0  0
 30 31  1  0  0  0  0
 30 32  1  0  0  0  0
 33 32  2  0  0  0  0
 33 24  1  0  0  0  0
 34 28  1  0  0  0  0
 35 34  1  0  0  0  0
 36 34  1  0  0  0  0
M  END
>  <minimizedAffinity>
-6.00873137

$$$$

 OpenBabel03252501043D

 36 39  0  0  1  0  0  0  0  0999 V2000
   34.3490   28.9270   39.5780 O   0  0  0  0  0  0  0  0  0  0  0  0
   35.7960   29.0810   39.9900 P   0  0  2  0  0  0  0  0  0  0  0  0
   36.6670   29.4050   38.5770 O   0  0  0  0  0  0  0  0  0  0  0  0
   36.2040   29.0890   37.7560 H   0  0  0  0  0  0  0  0  0  0  0  0
   36.3930   27.8400   40.8790 O   0  0  0  0  0  0  0  0  0  0  0  0
   36.8610   26.7580   42.9810 C   0  0  1  0  0  0  0  0  0  0  0  0
   37.6000   28.0410   43.0820 C   0  0  0  0  0  0  0  0  0  0  0  0
   36.3530   27.9140   42.2180 C   0  0  1  0  0  0  0  0  0  0  0  0
   36.3010   26.4260   43.9010 H   0  0  0  0  0  0  0  0  0  0  0  0
   37.5640   28.6430   44.0180 H   0  0  0  0  0  0  0  0  0  0  0  0
   38.4850   28.2860   42.4750 H   0  0  0  0  0  0  0  0  0  0  0  0
   35.5390   28.5480   42.6250 H   0  0  0  0  0  0  0  0  0  0  0  0
   37.5410   23.5450   41.1340 C   0  0  0  0  0  0  0  0  0  0  0  0
   36.8400   24.5250   41.8530 C   0  0  0  0  0  0  0  0  0  0  0  0
   37.5450   25.6820   42.2100 C   0  0  0  0  0  0  0  0  0  0  0  0
   38.8540   25.8220   41.8600 N   0  0  0  0  0  0  0  0  0  0  0  0
   39.5040   24.8580   41.1640 C   0  0  0  0  0  0  0  0  0  0  0  0
   38.8450   23.7210   40.8020 N   0  0  0  0  0  0  0  0  0  0  0  0
   37.1250   22.6160   40.7990 H   0  0  0  0  0  0  0  0  0  0  0  0
   35.8210   24.3460   42.0880 H   0  0  0  0  0  0  0  0  0  0  0  0
   40.5510   24.9530   40.8760 H   0  0  0  0  0  0  0  0  0  0  0  0
   35.8470   30.4980   40.9190 O   0  0  0  0  0  0  0  0  0  0  0  0
   36.2270   33.2330   40.2200 H   0  0  0  0  0  0  0  0  0  0  0  0
   37.0610   32.6730   40.4260 N   0  0  0  0  0  0  0  0  0  0  0  0
   36.9100   31.3780   40.7590 C   0  0  0  0  0  0  0  0  0  0  0  0
   38.1500   30.8550   40.9810 N   0  0  0  0  0  0  0  0  0  0  0  0
   39.0570   31.8290   40.7860 C   0  0  0  0  0  0  0  0  0  0  0  0
   40.4380   31.8910   40.8640 C   0  0  0  0  0  0  0  0  0  0  0  0
   41.0450   33.0540   40.5970 N   0  0  0  0  0  0  0  0  0  0  0  0
   40.3600   34.1610   40.2570 C   0  0  0  0  0  0  0  0  0  0  0  0
   40.9510   35.0590   40.0590 H   0  0  0  0  0  0  0  0  0  0  0  0
   39.0000   34.1530   40.1660 N   0  0  0  0  0  0  0  0  0  0  0  0
   38.3680   32.9790   40.4340 C   0  0  0  0  0  0  0  0  0  0  0  0
   41.0730   30.6730   41.2300 N   0  0  0  0  0  0  0  0  0  0  0  0
   41.0690   30.5190   42.2810 H   0  0  0  0  0  0  0  0  0  0  0  0
   41.5330   29.9170   40.6680 H   0  0  0  0  0  0  0  0  0  0  0  0
  2  1  2  6  0  0  0
  2  5  1  0  0  0  0
  2 22  1  0  0  0  0
  3  2  1  0  0  0  0
  4  3  1  0  0  0  0
  5  8  1  0  0  0  0
  6  7  1  0  0  0  0
  6  9  1  1  0  0  0
  7 10  1  0  0  0  0
  8 12  1  1  0  0  0
  8  6  1  0  0  0  0
  8  7  1  0  0  0  0
 11  7  1  0  0  0  0
 13 14  1  0  0  0  0
 14 20  1  0  0  0  0
 14 15  2  0  0  0  0
 15  6  1  0  0  0  0
 16 15  1  0  0  0  0
 17 16  2  0  0  0  0
 18 13  2  0  0  0  0
 18 17  1  0  0  0  0
 19 13  1  0  0  0  0
 21 17  1  0  0  0  0
 23 24  1  0  0  0  0
 24 33  1  0  0  0  0
 24 25  1  0  0  0  0
 25 22  1  0  0  0  0
 25 26  2  0  0  0  0
 27 28  1  0  0  0  0
 27 26  1  0  0  0  0
 28 34  1  0  0  0  0
 29 28  2  0  0  0  0
 30 29  1  0  0  0  0
 31 30  1  0  0  0  0
 32 30  2  0  0  0  0
 32 33  1  0  0  0  0
 33 27  2  0  0  0  0
 34 35  1  0  0  0  0
 36 34  1  0  0  0  0
M  END
>  <minimizedAffinity>
-5.98275709

$$$$

 OpenBabel03252501043D

 36 39  0  0  1  0  0  0  0  0999 V2000
   36.5750   29.3850   36.4230 O   0  0  0  0  0  0  0  0  0  0  0  0
   37.6380   29.6990   37.4510 P   0  0  2  0  0  0  0  0  0  0  0  0
   39.0920   29.0840   36.8430 O   0  0  0  0  0  0  0  0  0  0  0  0
   38.9560   28.3590   36.1770 H   0  0  0  0  0  0  0  0  0  0  0  0
   37.2860   29.2100   38.9750 O   0  0  0  0  0  0  0  0  0  0  0  0
   35.8270   29.0910   40.8900 C   0  0  1  0  0  0  0  0  0  0  0  0
   36.0280   30.5490   40.7000 C   0  0  0  0  0  0  0  0  0  0  0  0
   36.1220   29.5800   39.5300 C   0  0  1  0  0  0  0  0  0  0  0  0
   34.7800   28.7540   41.1310 H   0  0  0  0  0  0  0  0  0  0  0  0
   35.1670   31.2520   40.7660 H   0  0  0  0  0  0  0  0  0  0  0  0
   36.9860   31.0630   40.8730 H   0  0  0  0  0  0  0  0  0  0  0  0
   35.3020   29.7710   38.8070 H   0  0  0  0  0  0  0  0  0  0  0  0
   38.0730   26.3750   42.2250 C   0  0  0  0  0  0  0  0  0  0  0  0
   37.0240   26.9860   41.5200 C   0  0  0  0  0  0  0  0  0  0  0  0
   36.9230   28.3810   41.6090 C   0  0  0  0  0  0  0  0  0  0  0  0
   37.8170   29.0870   42.3550 N   0  0  0  0  0  0  0  0  0  0  0  0
   38.8190   28.4680   43.0240 C   0  0  0  0  0  0  0  0  0  0  0  0
   38.9450   27.1120   42.9580 N   0  0  0  0  0  0  0  0  0  0  0  0
   38.2660   25.3210   42.2440 H   0  0  0  0  0  0  0  0  0  0  0  0
   36.3680   26.3710   40.9580 H   0  0  0  0  0  0  0  0  0  0  0  0
   39.5440   29.0170   43.6260 H   0  0  0  0  0  0  0  0  0  0  0  0
   37.7900   31.3870   37.4360 O   0  0  0  0  0  0  0  0  0  0  0  0
   40.0720   31.9560   35.8300 H   0  0  0  0  0  0  0  0  0  0  0  0
   40.1090   32.2170   36.8220 N   0  0  0  0  0  0  0  0  0  0  0  0
   39.0440   31.9590   37.6030 C   0  0  0  0  0  0  0  0  0  0  0  0
   39.3340   32.3920   38.8630 N   0  0  0  0  0  0  0  0  0  0  0  0
   40.5740   32.9140   38.8520 C   0  0  0  0  0  0  0  0  0  0  0  0
   41.3850   33.4930   39.8130 C   0  0  0  0  0  0  0  0  0  0  0  0
   42.6020   33.9190   39.4540 N   0  0  0  0  0  0  0  0  0  0  0  0
   43.0620   33.8040   38.1950 C   0  0  0  0  0  0  0  0  0  0  0  0
   44.0700   34.1830   38.0060 H   0  0  0  0  0  0  0  0  0  0  0  0
   42.3040   33.2410   37.2130 N   0  0  0  0  0  0  0  0  0  0  0  0
   41.0640   32.8030   37.5600 C   0  0  0  0  0  0  0  0  0  0  0  0
   40.8140   33.5720   41.1120 N   0  0  0  0  0  0  0  0  0  0  0  0
   40.1710   34.4120   41.2170 H   0  0  0  0  0  0  0  0  0  0  0  0
   40.9070   32.9690   41.9650 H   0  0  0  0  0  0  0  0  0  0  0  0
  2  1  2  6  0  0  0
  2  5  1  0  0  0  0
  3  2  1  0  0  0  0
  4  3  1  0  0  0  0
  5  8  1  0  0  0  0
  6  9  1  1  0  0  0
  6 15  1  0  0  0  0
  7 10  1  0  0  0  0
  7 11  1  0  0  0  0
  7  6  1  0  0  0  0
  8 12  1  6  0  0  0
  8  7  1  0  0  0  0
  8  6  1  0  0  0  0
 13 19  1  0  0  0  0
 13 18  1  0  0  0  0
 14 15  1  0  0  0  0
 14 13  2  0  0  0  0
 15 16  2  0  0  0  0
 16 17  1  0  0  0  0
 17 21  1  0  0  0  0
 18 17  2  0  0  0  0
 20 14  1  0  0  0  0
 22  2  1  0  0  0  0
 22 25  1  0  0  0  0
 23 24  1  0  0  0  0
 24 33  1  0  0  0  0
 24 25  1  0  0  0  0
 25 26  2  0  0  0  0
 27 26  1  0  0  0  0
 27 28  1  0  0  0  0
 28 34  1  0  0  0  0
 29 28  2  0  0  0  0
 30 29  1  0  0  0  0
 31 30  1  0  0  0  0
 32 33  1  0  0  0  0
 32 30  2  0  0  0  0
 33 27  2  0  0  0  0
 34 35  1  0  0  0  0
 34 36  1  0  0  0  0
M  END
>  <minimizedAffinity>
-5.86939621

$$$$

 OpenBabel03252501043D

 36 39  0  0  1  0  0  0  0  0999 V2000
   38.3540   31.2030   41.7070 O   0  0  0  0  0  0  0  0  0  0  0  0
   37.2940   30.3620   41.0310 P   0  0  2  0  0  0  0  0  0  0  0  0
   35.8130   31.1170   41.3380 O   0  0  0  0  0  0  0  0  0  0  0  0
   35.8340   31.6990   42.1440 H   0  0  0  0  0  0  0  0  0  0  0  0
   37.3310   28.7700   41.4190 O   0  0  0  0  0  0  0  0  0  0  0  0
   37.0140   26.9440   42.9600 C   0  0  1  0  0  0  0  0  0  0  0  0
   37.9490   27.8440   43.6790 C   0  0  0  0  0  0  0  0  0  0  0  0
   36.9660   28.3860   42.6510 C   0  0  1  0  0  0  0  0  0  0  0  0
   36.1820   26.4920   43.5700 H   0  0  0  0  0  0  0  0  0  0  0  0
   37.7990   28.0710   44.7590 H   0  0  0  0  0  0  0  0  0  0  0  0
   38.9910   28.0180   43.3690 H   0  0  0  0  0  0  0  0  0  0  0  0
   36.2230   29.0470   43.1430 H   0  0  0  0  0  0  0  0  0  0  0  0
   37.6370   24.0600   40.6170 C   0  0  0  0  0  0  0  0  0  0  0  0
   36.9960   24.8610   41.5750 C   0  0  0  0  0  0  0  0  0  0  0  0
   37.6370   26.0520   41.9420 C   0  0  0  0  0  0  0  0  0  0  0  0
   38.8300   26.3910   41.3780 N   0  0  0  0  0  0  0  0  0  0  0  0
   39.4230   25.5960   40.4560 C   0  0  0  0  0  0  0  0  0  0  0  0
   38.8250   24.4310   40.0770 N   0  0  0  0  0  0  0  0  0  0  0  0
   37.2590   23.1270   40.2460 H   0  0  0  0  0  0  0  0  0  0  0  0
   36.0680   24.5330   41.9680 H   0  0  0  0  0  0  0  0  0  0  0  0
   40.3770   25.8510   39.9940 H   0  0  0  0  0  0  0  0  0  0  0  0
   37.5830   30.5310   39.3700 O   0  0  0  0  0  0  0  0  0  0  0  0
   38.6900   33.1390   39.6580 H   0  0  0  0  0  0  0  0  0  0  0  0
   39.2120   32.4590   39.0950 N   0  0  0  0  0  0  0  0  0  0  0  0
   38.7110   31.2200   38.9420 C   0  0  0  0  0  0  0  0  0  0  0  0
   39.5750   30.5110   38.1610 N   0  0  0  0  0  0  0  0  0  0  0  0
   40.6040   31.3160   37.8370 C   0  0  0  0  0  0  0  0  0  0  0  0
   41.7540   31.1550   37.0840 C   0  0  0  0  0  0  0  0  0  0  0  0
   42.5910   32.1930   36.9600 N   0  0  0  0  0  0  0  0  0  0  0  0
   42.3510   33.3830   37.5410 C   0  0  0  0  0  0  0  0  0  0  0  0
   43.0970   34.1650   37.3780 H   0  0  0  0  0  0  0  0  0  0  0  0
   41.2330   33.5930   38.2920 N   0  0  0  0  0  0  0  0  0  0  0  0
   40.3730   32.5490   38.4280 C   0  0  0  0  0  0  0  0  0  0  0  0
   41.9210   29.8660   36.5110 N   0  0  0  0  0  0  0  0  0  0  0  0
   42.3330   29.1700   37.2010 H   0  0  0  0  0  0  0  0  0  0  0  0
   41.7170   29.4830   35.5560 H   0  0  0  0  0  0  0  0  0  0  0  0
  2  3  1  0  0  0  0
  2  5  1  0  0  0  0
  2  1  2  1  0  0  0
  3  4  1  0  0  0  0
  5  8  1  0  0  0  0
  6  9  1  1  0  0  0
  6  7  1  0  0  0  0
  7 10  1  0  0  0  0
  8  6  1  0  0  0  0
  8 12  1  1  0  0  0
  8  7  1  0  0  0  0
 11  7  1  0  0  0  0
 13 14  1  0  0  0  0
 14 15  2  0  0  0  0
 14 20  1  0  0  0  0
 15  6  1  0  0  0  0
 16 15  1  0  0  0  0
 17 16  2  0  0  0  0
 18 17  1  0  0  0  0
 18 13  2  0  0  0  0
 19 13  1  0  0  0  0
 21 17  1  0  0  0  0
 22  2  1  0  0  0  0
 24 23  1  0  0  0  0
 25 24  1  0  0  0  0
 25 22  1  0  0  0  0
 26 25  2  0  0  0  0
 27 26  1  0  0  0  0
 27 33  1  0  0  0  0
 28 27  2  0  0  0  0
 29 28  1  0  0  0  0
 29 30  2  0  0  0  0
 30 32  1  0  0  0  0
 31 30  1  0  0  0  0
 32 33  2  0  0  0  0
 33 24  1  0  0  0  0
 34 28  1  0  0  0  0
 34 35  1  0  0  0  0
 36 34  1  0  0  0  0
M  END
>  <minimizedAffinity>
-5.71654844

$$$$

 OpenBabel03252501043D

 36 39  0  0  1  0  0  0  0  0999 V2000
   39.0270   29.0230   41.8320 O   0  0  0  0  0  0  0  0  0  0  0  0
   37.5430   29.3090   41.8760 P   0  0  2  0  0  0  0  0  0  0  0  0
   37.1120   29.3640   43.5100 O   0  0  0  0  0  0  0  0  0  0  0  0
   37.7450   28.8680   44.0940 H   0  0  0  0  0  0  0  0  0  0  0  0
   36.6220   28.3010   40.9690 O   0  0  0  0  0  0  0  0  0  0  0  0
   37.3670   27.0910   39.0220 C   0  0  1  0  0  0  0  0  0  0  0  0
   35.9510   27.4100   38.7100 C   0  0  0  0  0  0  0  0  0  0  0  0
   36.7730   28.2950   39.6370 C   0  0  1  0  0  0  0  0  0  0  0  0
   38.1080   27.2190   38.1840 H   0  0  0  0  0  0  0  0  0  0  0  0
   35.6650   27.7850   37.7010 H   0  0  0  0  0  0  0  0  0  0  0  0
   35.0930   26.9660   39.2360 H   0  0  0  0  0  0  0  0  0  0  0  0
   36.9210   29.2950   39.1800 H   0  0  0  0  0  0  0  0  0  0  0  0
   36.8150   23.8760   40.9090 C   0  0  0  0  0  0  0  0  0  0  0  0
   36.5580   24.9610   40.0560 C   0  0  0  0  0  0  0  0  0  0  0  0
   37.5780   25.9110   39.9070 C   0  0  0  0  0  0  0  0  0  0  0  0
   38.7560   25.7620   40.5740 N   0  0  0  0  0  0  0  0  0  0  0  0
   38.9740   24.7030   41.3900 C   0  0  0  0  0  0  0  0  0  0  0  0
   38.0020   23.7620   41.5560 N   0  0  0  0  0  0  0  0  0  0  0  0
   36.1260   23.0810   41.1120 H   0  0  0  0  0  0  0  0  0  0  0  0
   35.6180   25.0090   39.5690 H   0  0  0  0  0  0  0  0  0  0  0  0
   39.9100   24.5670   41.9320 H   0  0  0  0  0  0  0  0  0  0  0  0
   37.3760   30.8890   41.2840 O   0  0  0  0  0  0  0  0  0  0  0  0
   39.5140   32.3050   42.5230 H   0  0  0  0  0  0  0  0  0  0  0  0
   39.5080   32.2520   41.4990 N   0  0  0  0  0  0  0  0  0  0  0  0
   38.5080   31.5890   40.8880 C   0  0  0  0  0  0  0  0  0  0  0  0
   38.7190   31.6610   39.5420 N   0  0  0  0  0  0  0  0  0  0  0  0
   39.8460   32.3660   39.3310 C   0  0  0  0  0  0  0  0  0  0  0  0
   40.5420   32.7560   38.2000 C   0  0  0  0  0  0  0  0  0  0  0  0
   41.6620   33.4740   38.3510 N   0  0  0  0  0  0  0  0  0  0  0  0
   42.1310   33.8280   39.5610 C   0  0  0  0  0  0  0  0  0  0  0  0
   43.0530   34.4150   39.5740 H   0  0  0  0  0  0  0  0  0  0  0  0
   41.4830   33.4700   40.7050 N   0  0  0  0  0  0  0  0  0  0  0  0
   40.3440   32.7400   40.5690 C   0  0  0  0  0  0  0  0  0  0  0  0
   39.9700   32.3350   36.9690 N   0  0  0  0  0  0  0  0  0  0  0  0
   40.2320   31.3340   36.7260 H   0  0  0  0  0  0  0  0  0  0  0  0
   39.3520   32.8180   36.2730 H   0  0  0  0  0  0  0  0  0  0  0  0
  2  1  2  6  0  0  0
  2  3  1  0  0  0  0
  3  4  1  0  0  0  0
  5  2  1  0  0  0  0
  6  9  1  6  0  0  0
  6  8  1  0  0  0  0
  6 15  1  0  0  0  0
  7  6  1  0  0  0  0
  7 11  1  0  0  0  0
  7  8  1  0  0  0  0
  8 12  1  6  0  0  0
  8  5  1  0  0  0  0
 10  7  1  0  0  0  0
 13 19  1  0  0  0  0
 13 18  1  0  0  0  0
 14 13  2  0  0  0  0
 15 14  1  0  0  0  0
 15 16  2  0  0  0  0
 16 17  1  0  0  0  0
 17 18  2  0  0  0  0
 17 21  1  0  0  0  0
 20 14  1  0  0  0  0
 22  2  1  0  0  0  0
 24 23  1  0  0  0  0
 25 22  1  0  0  0  0
 25 24  1  0  0  0  0
 26 25  2  0  0  0  0
 27 26  1  0  0  0  0
 27 33  1  0  0  0  0
 28 29  1  0  0  0  0
 28 27  2  0  0  0  0
 29 30  2  0  0  0  0
 30 31  1  0  0  0  0
 30 32  1  0  0  0  0
 33 32  2  0  0  0  0
 33 24  1  0  0  0  0
 34 28  1  0  0  0  0
 35 34  1  0  0  0  0
 36 34  1  0  0  0  0
M  END
>  <minimizedAffinity>
-5.64120054

$$$$

 OpenBabel03252501043D

 36 39  0  0  1  0  0  0  0  0999 V2000
   38.6950   29.4570   37.4310 O   0  0  0  0  0  0  0  0  0  0  0  0
   37.6350   30.5350   37.4120 P   0  0  2  0  0  0  0  0  0  0  0  0
   37.1780   30.7320   35.7950 O   0  0  0  0  0  0  0  0  0  0  0  0
   37.8750   30.4260   35.1560 H   0  0  0  0  0  0  0  0  0  0  0  0
   38.0590   31.9280   38.1660 O   0  0  0  0  0  0  0  0  0  0  0  0
   37.6010   32.7830   40.3720 C   0  0  1  0  0  0  0  0  0  0  0  0
   37.3470   33.9500   39.4910 C   0  0  0  0  0  0  0  0  0  0  0  0
   37.1780   32.5250   38.9830 C   0  0  1  0  0  0  0  0  0  0  0  0
   36.8630   32.6120   41.2050 H   0  0  0  0  0  0  0  0  0  0  0  0
   36.4500   34.5910   39.6450 H   0  0  0  0  0  0  0  0  0  0  0  0
   38.1360   34.4820   38.9370 H   0  0  0  0  0  0  0  0  0  0  0  0
   36.1130   32.3280   38.7420 H   0  0  0  0  0  0  0  0  0  0  0  0
   40.7530   31.1790   41.6720 C   0  0  0  0  0  0  0  0  0  0  0  0
   39.3920   31.3560   41.3810 C   0  0  0  0  0  0  0  0  0  0  0  0
   39.0320   32.5290   40.7050 C   0  0  0  0  0  0  0  0  0  0  0  0
   39.9830   33.4410   40.3570 N   0  0  0  0  0  0  0  0  0  0  0  0
   41.2900   33.2400   40.6520 C   0  0  0  0  0  0  0  0  0  0  0  0
   41.6730   32.1090   41.3090 N   0  0  0  0  0  0  0  0  0  0  0  0
   41.1650   30.3310   42.1820 H   0  0  0  0  0  0  0  0  0  0  0  0
   38.7090   30.6030   41.6810 H   0  0  0  0  0  0  0  0  0  0  0  0
   42.0650   33.9580   40.3820 H   0  0  0  0  0  0  0  0  0  0  0  0
   36.2990   29.8620   38.2080 O   0  0  0  0  0  0  0  0  0  0  0  0
   36.5610   27.0260   38.2130 H   0  0  0  0  0  0  0  0  0  0  0  0
   36.6210   27.5130   39.1150 N   0  0  0  0  0  0  0  0  0  0  0  0
   36.5000   28.8530   39.1400 C   0  0  0  0  0  0  0  0  0  0  0  0
   36.6140   29.2590   40.4370 N   0  0  0  0  0  0  0  0  0  0  0  0
   36.8040   28.1690   41.2030 C   0  0  0  0  0  0  0  0  0  0  0  0
   36.9810   27.9630   42.5600 C   0  0  0  0  0  0  0  0  0  0  0  0
   37.1480   26.7110   43.0030 N   0  0  0  0  0  0  0  0  0  0  0  0
   37.1500   25.6500   42.1760 C   0  0  0  0  0  0  0  0  0  0  0  0
   37.2940   24.6700   42.6390 H   0  0  0  0  0  0  0  0  0  0  0  0
   36.9790   25.7990   40.8320 N   0  0  0  0  0  0  0  0  0  0  0  0
   36.8090   27.0650   40.3660 C   0  0  0  0  0  0  0  0  0  0  0  0
   36.9650   29.1430   43.3530 N   0  0  0  0  0  0  0  0  0  0  0  0
   37.9060   29.6380   43.3540 H   0  0  0  0  0  0  0  0  0  0  0  0
   36.2150   29.6040   43.9220 H   0  0  0  0  0  0  0  0  0  0  0  0
  2  1  2  1  0  0  0
  2  5  1  0  0  0  0
  2 22  1  0  0  0  0
  3  2  1  0  0  0  0
  4  3  1  0  0  0  0
  5  8  1  0  0  0  0
  6 15  1  0  0  0  0
  6  9  1  1  0  0  0
  7 10  1  0  0  0  0
  7  6  1  0  0  0  0
  8 12  1  6  0  0  0
  8  7  1  0  0  0  0
  8  6  1  0  0  0  0
 11  7  1  0  0  0  0
 13 19  1  0  0  0  0
 14 13  1  0  0  0  0
 14 20  1  0  0  0  0
 15 14  2  0  0  0  0
 16 17  2  0  0  0  0
 16 15  1  0  0  0  0
 17 18  1  0  0  0  0
 18 13  2  0  0  0  0
 21 17  1  0  0  0  0
 22 25  1  0  0  0  0
 23 24  1  0  0  0  0
 24 25  1  0  0  0  0
 24 33  1  0  0  0  0
 25 26  2  0  0  0  0
 26 27  1  0  0  0  0
 27 28  1  0  0  0  0
 28 29  2  0  0  0  0
 28 34  1  0  0  0  0
 30 31  1  0  0  0  0
 30 29  1  0  0  0  0
 32 30  2  0  0  0  0
 33 32  1  0  0  0  0
 33 27  2  0  0  0  0
 34 35  1  0  0  0  0
 34 36  1  0  0  0  0
M  END
>  <minimizedAffinity>
-5.54037094

$$$$

 OpenBabel03252501043D

 36 39  0  0  1  0  0  0  0  0999 V2000
   36.0950   27.7030   39.3750 O   0  0  0  0  0  0  0  0  0  0  0  0
   35.9960   28.8070   40.4040 P   0  0  2  0  0  0  0  0  0  0  0  0
   34.3900   29.3350   40.3900 O   0  0  0  0  0  0  0  0  0  0  0  0
   33.9230   29.1330   39.5360 H   0  0  0  0  0  0  0  0  0  0  0  0
   37.1010   30.0060   40.2330 O   0  0  0  0  0  0  0  0  0  0  0  0
   37.6730   32.3340   40.4840 C   0  0  1  0  0  0  0  0  0  0  0  0
   37.1200   32.2610   39.1090 C   0  0  0  0  0  0  0  0  0  0  0  0
   36.6840   31.2800   40.1880 C   0  0  1  0  0  0  0  0  0  0  0  0
   37.3560   33.2160   41.1080 H   0  0  0  0  0  0  0  0  0  0  0  0
   36.4060   33.0340   38.7440 H   0  0  0  0  0  0  0  0  0  0  0  0
   37.6190   31.7440   38.2740 H   0  0  0  0  0  0  0  0  0  0  0  0
   35.6110   31.4270   40.4280 H   0  0  0  0  0  0  0  0  0  0  0  0
   41.2460   31.4310   39.6940 C   0  0  0  0  0  0  0  0  0  0  0  0
   39.9190   31.8450   39.4960 C   0  0  0  0  0  0  0  0  0  0  0  0
   39.0950   31.9100   40.6270 C   0  0  0  0  0  0  0  0  0  0  0  0
   39.5870   31.5790   41.8540 N   0  0  0  0  0  0  0  0  0  0  0  0
   40.8730   31.1840   42.0130 C   0  0  0  0  0  0  0  0  0  0  0  0
   41.7000   31.1110   40.9320 N   0  0  0  0  0  0  0  0  0  0  0  0
   41.9810   31.3380   38.9200 H   0  0  0  0  0  0  0  0  0  0  0  0
   39.6080   32.0880   38.5110 H   0  0  0  0  0  0  0  0  0  0  0  0
   41.2840   30.9160   42.9870 H   0  0  0  0  0  0  0  0  0  0  0  0
   36.2370   28.0460   41.8990 O   0  0  0  0  0  0  0  0  0  0  0  0
   38.5980   29.5080   42.5300 H   0  0  0  0  0  0  0  0  0  0  0  0
   38.6330   28.4860   42.6140 N   0  0  0  0  0  0  0  0  0  0  0  0
   37.5310   27.7710   42.3220 C   0  0  0  0  0  0  0  0  0  0  0  0
   37.8260   26.4530   42.5070 N   0  0  0  0  0  0  0  0  0  0  0  0
   39.1060   26.3620   42.9120 C   0  0  0  0  0  0  0  0  0  0  0  0
   39.9390   25.3080   43.2460 C   0  0  0  0  0  0  0  0  0  0  0  0
   41.1960   25.5770   43.6190 N   0  0  0  0  0  0  0  0  0  0  0  0
   41.6750   26.8330   43.6790 C   0  0  0  0  0  0  0  0  0  0  0  0
   42.7160   26.9450   43.9950 H   0  0  0  0  0  0  0  0  0  0  0  0
   40.8960   27.9050   43.3600 N   0  0  0  0  0  0  0  0  0  0  0  0
   39.6160   27.6490   42.9800 C   0  0  0  0  0  0  0  0  0  0  0  0
   39.3450   24.0210   43.1530 N   0  0  0  0  0  0  0  0  0  0  0  0
   38.7730   23.7790   44.0160 H   0  0  0  0  0  0  0  0  0  0  0  0
   39.3660   23.2830   42.4080 H   0  0  0  0  0  0  0  0  0  0  0  0
  2  1  2  6  0  0  0
  2 22  1  0  0  0  0
  3  2  1  0  0  0  0
  4  3  1  0  0  0  0
  5  2  1  0  0  0  0
  6 15  1  0  0  0  0
  6  9  1  1  0  0  0
  7  8  1  0  0  0  0
  7  6  1  0  0  0  0
  8  5  1  0  0  0  0
  8 12  1  1  0  0  0
  8  6  1  0  0  0  0
 10  7  1  0  0  0  0
 11  7  1  0  0  0  0
 13 18  1  0  0  0  0
 14 13  2  0  0  0  0
 14 15  1  0  0  0  0
 15 16  2  0  0  0  0
 16 17  1  0  0  0  0
 17 21  1  0  0  0  0
 18 17  2  0  0  0  0
 19 13  1  0  0  0  0
 20 14  1  0  0  0  0
 22 25  1  0  0  0  0
 23 24  1  0  0  0  0
 24 33  1  0  0  0  0
 25 26  2  0  0  0  0
 25 24  1  0  0  0  0
 26 27  1  0  0  0  0
 27 33  2  0  0  0  0
 27 28  1  0  0  0  0
 28 29  2  0  0  0  0
 29 30  1  0  0  0  0
 30 31  1  0  0  0  0
 32 30  2  0  0  0  0
 33 32  1  0  0  0  0
 34 28  1  0  0  0  0
 34 35  1  0  0  0  0
 36 34  1  0  0  0  0
M  END
>  <minimizedAffinity>
-5.49742126

$$$$

 OpenBabel03252501043D

 36 39  0  0  1  0  0  0  0  0999 V2000
   35.2520   28.6660   39.2210 O   0  0  0  0  0  0  0  0  0  0  0  0
   36.6300   28.0450   39.2300 P   0  0  2  0  0  0  0  0  0  0  0  0
   36.4460   26.4560   38.6820 O   0  0  0  0  0  0  0  0  0  0  0  0
   35.5230   26.1090   38.8050 H   0  0  0  0  0  0  0  0  0  0  0  0
   37.4340   28.1780   40.6530 O   0  0  0  0  0  0  0  0  0  0  0  0
   36.7360   27.5100   42.8610 C   0  0  1  0  0  0  0  0  0  0  0  0
   37.4250   28.8040   43.0940 C   0  0  0  0  0  0  0  0  0  0  0  0
   36.7520   28.4960   41.7640 C   0  0  1  0  0  0  0  0  0  0  0  0
   35.7770   27.3420   43.4270 H   0  0  0  0  0  0  0  0  0  0  0  0
   36.9820   29.5670   43.7730 H   0  0  0  0  0  0  0  0  0  0  0  0
   38.5090   28.9510   42.9700 H   0  0  0  0  0  0  0  0  0  0  0  0
   35.8920   29.1780   41.6020 H   0  0  0  0  0  0  0  0  0  0  0  0
   38.0310   24.0720   42.0220 C   0  0  0  0  0  0  0  0  0  0  0  0
   37.1450   25.1570   42.1160 C   0  0  0  0  0  0  0  0  0  0  0  0
   37.6280   26.3240   42.7220 C   0  0  0  0  0  0  0  0  0  0  0  0
   38.9060   26.3750   43.1910 N   0  0  0  0  0  0  0  0  0  0  0  0
   39.7380   25.3110   43.0840 C   0  0  0  0  0  0  0  0  0  0  0  0
   39.2980   24.1610   42.4990 N   0  0  0  0  0  0  0  0  0  0  0  0
   37.7930   23.1240   41.5830 H   0  0  0  0  0  0  0  0  0  0  0  0
   36.1650   25.0440   41.7270 H   0  0  0  0  0  0  0  0  0  0  0  0
   40.7630   25.3330   43.4530 H   0  0  0  0  0  0  0  0  0  0  0  0
   37.4980   28.8690   38.0290 O   0  0  0  0  0  0  0  0  0  0  0  0
   40.2680   29.5300   38.0580 H   0  0  0  0  0  0  0  0  0  0  0  0
   39.6050   30.2400   38.3880 N   0  0  0  0  0  0  0  0  0  0  0  0
   38.2900   29.9520   38.3850 C   0  0  0  0  0  0  0  0  0  0  0  0
   37.6230   31.0410   38.8640 N   0  0  0  0  0  0  0  0  0  0  0  0
   38.5280   31.9920   39.1590 C   0  0  0  0  0  0  0  0  0  0  0  0
   38.4460   33.2770   39.6650 C   0  0  0  0  0  0  0  0  0  0  0  0
   39.5780   33.9710   39.8420 N   0  0  0  0  0  0  0  0  0  0  0  0
   40.7870   33.4630   39.5440 C   0  0  0  0  0  0  0  0  0  0  0  0
   41.6480   34.1110   39.7250 H   0  0  0  0  0  0  0  0  0  0  0  0
   40.9210   32.2020   39.0430 N   0  0  0  0  0  0  0  0  0  0  0  0
   39.7820   31.4840   38.8570 C   0  0  0  0  0  0  0  0  0  0  0  0
   37.1290   33.7280   39.9490 N   0  0  0  0  0  0  0  0  0  0  0  0
   36.6330   34.0900   39.0820 H   0  0  0  0  0  0  0  0  0  0  0  0
   36.5690   33.7670   40.8350 H   0  0  0  0  0  0  0  0  0  0  0  0
  2  1  2  1  0  0  0
  2  5  1  0  0  0  0
  3  4  1  0  0  0  0
  3  2  1  0  0  0  0
  5  8  1  0  0  0  0
  6  7  1  0  0  0  0
  6  9  1  1  0  0  0
  7 10  1  0  0  0  0
  8 12  1  6  0  0  0
  8  6  1  0  0  0  0
  8  7  1  0  0  0  0
 11  7  1  0  0  0  0
 13 14  2  0  0  0  0
 13 18  1  0  0  0  0
 14 15  1  0  0  0  0
 15  6  1  0  0  0  0
 15 16  2  0  0  0  0
 17 16  1  0  0  0  0
 17 21  1  0  0  0  0
 18 17  2  0  0  0  0
 19 13  1  0  0  0  0
 20 14  1  0  0  0  0
 22 25  1  0  0  0  0
 22  2  1  0  0  0  0
 23 24  1  0  0  0  0
 24 33  1  0  0  0  0
 25 24  1  0  0  0  0
 25 26  2  0  0  0  0
 26 27  1  0  0  0  0
 27 28  1  0  0  0  0
 28 29  2  0  0  0  0
 28 34  1  0  0  0  0
 30 31  1  0  0  0  0
 30 29  1  0  0  0  0
 32 30  2  0  0  0  0
 33 32  1  0  0  0  0
 33 27  2  0  0  0  0
 34 36  1  0  0  0  0
 35 34  1  0  0  0  0
M  END
>  <minimizedAffinity>
-5.49133635

$$$$
