
 OpenBabel03252500273D

 48 51  0  0  1  0  0  0  0  0999 V2000
   47.3100   33.0380   47.4130 O   0  0  0  0  0  0  0  0  0  0  0  0
   46.1200   32.4350   46.7550 P   0  0  1  0  0  0  0  0  0  0  0  0
   46.6280   31.2120   45.6990 O   0  0  0  0  0  0  0  0  0  0  0  0
   47.3600   31.5780   45.1610 H   0  0  0  0  0  0  0  0  0  0  0  0
   45.1810   31.7870   47.9480 O   0  0  0  0  0  0  0  0  0  0  0  0
   46.9880   30.2350   48.1280 C   0  0  2  0  0  0  0  0  0  0  0  0
   45.5260   30.4770   48.1680 C   0  0  2  0  0  0  0  0  0  0  0  0
   44.9350   29.5620   47.2160 C   0  0  0  0  0  0  0  0  0  0  0  0
   45.8180   28.4910   47.0160 O   0  0  0  0  0  0  0  0  0  0  0  0
   46.8420   28.6820   47.8780 C   0  0  0  0  0  0  0  0  0  0  0  0
   47.5240   30.4230   47.1820 H   0  0  0  0  0  0  0  0  0  0  0  0
   45.2810   30.3290   49.2600 H   0  0  0  0  0  0  0  0  0  0  0  0
   44.1720   28.9870   47.8550 H   0  0  0  0  0  0  0  0  0  0  0  0
   44.2700   29.8220   46.4230 H   0  0  0  0  0  0  0  0  0  0  0  0
   46.6010   28.2940   48.9100 H   0  0  0  0  0  0  0  0  0  0  0  0
   47.8030   28.2440   47.6200 H   0  0  0  0  0  0  0  0  0  0  0  0
   47.6710   30.3980   49.2730 O   0  0  0  0  0  0  0  0  0  0  0  0
   48.8590   30.9160   49.3910 C   0  0  0  0  0  0  0  0  0  0  0  0
   49.0880   31.9530   49.3860 H   0  0  0  0  0  0  0  0  0  0  0  0
   49.4140   30.5460   48.3630 H   0  0  0  0  0  0  0  0  0  0  0  0
   49.6660   30.0780   50.3680 C   0  0  0  0  0  0  0  0  0  0  0  0
   49.3420   30.2430   51.4120 H   0  0  0  0  0  0  0  0  0  0  0  0
   49.5450   29.0240   50.0430 H   0  0  0  0  0  0  0  0  0  0  0  0
   50.7310   30.4060   50.2380 H   0  0  0  0  0  0  0  0  0  0  0  0
   45.3490   33.7100   45.9240 O   0  0  0  0  0  0  0  0  0  0  0  0
   45.7940   36.0210   43.2160 C   0  0  0  0  0  0  0  0  0  0  0  0
   46.9140   35.5180   42.5120 C   0  0  0  0  0  0  0  0  0  0  0  0
   47.4980   34.3410   43.0300 C   0  0  0  0  0  0  0  0  0  0  0  0
   46.9700   33.7770   44.1360 N   0  0  0  0  0  0  0  0  0  0  0  0
   45.9050   34.2920   44.7700 C   0  0  0  0  0  0  0  0  0  0  0  0
   45.3230   35.4080   44.3090 N   0  0  0  0  0  0  0  0  0  0  0  0
   47.3240   35.9780   41.6300 H   0  0  0  0  0  0  0  0  0  0  0  0
   48.3510   33.8980   42.5500 H   0  0  0  0  0  0  0  0  0  0  0  0
   45.2030   37.1560   42.7490 O   0  0  0  0  0  0  0  0  0  0  0  0
   45.3610   39.9250   42.0930 H   0  0  0  0  0  0  0  0  0  0  0  0
   45.1980   39.6470   43.0820 N   0  0  0  0  0  0  0  0  0  0  0  0
   45.1200   38.3460   43.4130 C   0  0  0  0  0  0  0  0  0  0  0  0
   44.9050   38.3000   44.7480 N   0  0  0  0  0  0  0  0  0  0  0  0
   44.8580   39.5740   45.1970 C   0  0  0  0  0  0  0  0  0  0  0  0
   44.6680   40.1510   46.4500 C   0  0  0  0  0  0  0  0  0  0  0  0
   44.6620   41.4820   46.6420 N   0  0  0  0  0  0  0  0  0  0  0  0
   44.8480   42.3020   45.5760 C   0  0  0  0  0  0  0  0  0  0  0  0
   44.8650   43.3860   45.6050 H   0  0  0  0  0  0  0  0  0  0  0  0
   45.0380   41.7760   44.3320 N   0  0  0  0  0  0  0  0  0  0  0  0
   45.0420   40.4520   44.1490 C   0  0  0  0  0  0  0  0  0  0  0  0
   44.4690   39.3020   47.5860 N   0  0  0  0  0  0  0  0  0  0  0  0
   43.7610   38.6720   48.0170 H   0  0  0  0  0  0  0  0  0  0  0  0
   45.3570   39.3600   48.1540 H   0  0  0  0  0  0  0  0  0  0  0  0
  2  1  2  1  0  0  0
  2  5  1  0  0  0  0
  3  2  1  0  0  0  0
  4  3  1  0  0  0  0
  5  7  1  0  0  0  0
  6 11  1  6  0  0  0
  6  7  1  0  0  0  0
  6 17  1  0  0  0  0
  7 12  1  1  0  0  0
  8 13  1  0  0  0  0
  8  7  1  0  0  0  0
  9  8  1  0  0  0  0
  9 10  1  0  0  0  0
 10  6  1  0  0  0  0
 10 15  1  0  0  0  0
 14  8  1  0  0  0  0
 16 10  1  0  0  0  0
 17 18  1  0  0  0  0
 18 21  1  0  0  0  0
 19 18  1  0  0  0  0
 20 18  1  0  0  0  0
 21 22  1  0  0  0  0
 23 21  1  0  0  0  0
 24 21  1  0  0  0  0
 25  2  1  0  0  0  0
 26 31  1  0  0  0  0
 27 28  1  0  0  0  0
 27 26  2  0  0  0  0
 28 29  2  0  0  0  0
 29 30  1  0  0  0  0
 30 25  1  0  0  0  0
 31 30  2  0  0  0  0
 32 27  1  0  0  0  0
 33 28  1  0  0  0  0
 34 26  1  0  0  0  0
 34 37  1  0  0  0  0
 35 36  1  0  0  0  0
 36 37  1  0  0  0  0
 36 45  1  0  0  0  0
 37 38  2  0  0  0  0
 38 39  1  0  0  0  0
 39 40  1  0  0  0  0
 40 41  2  0  0  0  0
 40 46  1  0  0  0  0
 42 43  1  0  0  0  0
 42 41  1  0  0  0  0
 44 42  2  0  0  0  0
 45 44  1  0  0  0  0
 45 39  2  0  0  0  0
 46 47  1  0  0  0  0
 46 48  1  0  0  0  0
M  END
>  <minimizedAffinity>
-1.96696699

>  <minimizedRMSD>
1.2565273

$$$$
