
 OpenBabel03252502563D

 42 45  0  0  0  0  0  0  0  0999 V2000
   45.5960   29.9540   44.6950 Br  0  0  0  0  0  0  0  0  0  0  0  0
   45.6640   30.5510   46.5370 C   0  0  0  0  0  0  0  0  0  0  0  0
   46.3480   31.7060   46.7480 C   0  0  0  0  0  0  0  0  0  0  0  0
   46.3810   32.1130   48.0890 C   0  0  0  0  0  0  0  0  0  0  0  0
   45.7780   31.4150   49.1060 C   0  0  0  0  0  0  0  0  0  0  0  0
   45.1070   30.2580   48.8050 C   0  0  0  0  0  0  0  0  0  0  0  0
   45.0390   29.8050   47.5040 C   0  0  0  0  0  0  0  0  0  0  0  0
   46.8950   33.0140   48.3730 H   0  0  0  0  0  0  0  0  0  0  0  0
   45.8290   31.7650   50.1260 H   0  0  0  0  0  0  0  0  0  0  0  0
   44.6140   29.6660   49.5610 H   0  0  0  0  0  0  0  0  0  0  0  0
   47.0320   32.5420   45.7590 C   0  0  0  0  0  0  0  0  0  0  0  0
   47.9940   32.8770   46.1620 H   0  0  0  0  0  0  0  0  0  0  0  0
   47.2910   31.8620   44.9010 H   0  0  0  0  0  0  0  0  0  0  0  0
   44.5450   35.2970   45.4380 C   0  0  0  0  0  0  0  0  0  0  0  0
   44.7480   35.7220   44.1260 C   0  0  0  0  0  0  0  0  0  0  0  0
   45.7270   35.0650   43.3710 C   0  0  0  0  0  0  0  0  0  0  0  0
   46.4210   34.0620   43.9420 N   0  0  0  0  0  0  0  0  0  0  0  0
   46.2120   33.6560   45.2280 C   0  0  0  0  0  0  0  0  0  0  0  0
   45.2630   34.3010   45.9440 N   0  0  0  0  0  0  0  0  0  0  0  0
   43.7830   35.8140   46.0130 H   0  0  0  0  0  0  0  0  0  0  0  0
   44.1910   36.5280   43.6660 H   0  0  0  0  0  0  0  0  0  0  0  0
   45.9610   35.3120   42.3590 H   0  0  0  0  0  0  0  0  0  0  0  0
   44.3560   28.6280   47.2110 O   0  0  0  0  0  0  0  0  0  0  0  0
   43.8870   26.0740   47.1850 O   0  0  0  0  0  0  0  0  0  0  0  0
   44.7480   27.1210   47.8650 P   0  0  2  0  0  0  0  0  0  0  0  0
   44.4210   27.1790   49.5130 O   0  0  0  0  0  0  0  0  0  0  0  0
   45.2280   27.4650   49.9920 H   0  0  0  0  0  0  0  0  0  0  0  0
   46.3700   26.7270   47.5780 O   0  0  0  0  0  0  0  0  0  0  0  0
   48.9770   25.6350   47.3090 H   0  0  0  0  0  0  0  0  0  0  0  0
   48.3320   25.2880   48.0490 N   0  0  0  0  0  0  0  0  0  0  0  0
   47.0830   25.7620   48.2320 C   0  0  0  0  0  0  0  0  0  0  0  0
   46.5320   25.0970   49.2660 N   0  0  0  0  0  0  0  0  0  0  0  0
   47.4680   24.2190   49.7010 C   0  0  0  0  0  0  0  0  0  0  0  0
   47.3570   23.3070   50.7580 C   0  0  0  0  0  0  0  0  0  0  0  0
   48.4320   22.5330   51.0010 N   0  0  0  0  0  0  0  0  0  0  0  0
   49.5450   22.6550   50.2430 C   0  0  0  0  0  0  0  0  0  0  0  0
   50.3300   21.9770   50.5420 H   0  0  0  0  0  0  0  0  0  0  0  0
   49.6550   23.5390   49.2170 N   0  0  0  0  0  0  0  0  0  0  0  0
   48.6150   24.3240   48.9430 C   0  0  0  0  0  0  0  0  0  0  0  0
   46.1430   23.2380   51.5130 N   0  0  0  0  0  0  0  0  0  0  0  0
   45.4290   22.4690   51.5440 H   0  0  0  0  0  0  0  0  0  0  0  0
   45.8690   24.0310   52.1440 H   0  0  0  0  0  0  0  0  0  0  0  0
  1  2  1  0  0  0  0
  2  3  2  0  0  0  0
  2  7  1  0  0  0  0
  3  4  1  0  0  0  0
  4  8  1  0  0  0  0
  4  5  2  0  0  0  0
  5  9  1  0  0  0  0
  6  5  1  0  0  0  0
  6 10  1  0  0  0  0
  7  6  2  0  0  0  0
 11 12  1  0  0  0  0
 11  3  1  0  0  0  0
 13 11  1  0  0  0  0
 14 19  1  0  0  0  0
 14 20  1  0  0  0  0
 15 14  2  0  0  0  0
 16 17  2  0  0  0  0
 16 15  1  0  0  0  0
 17 18  1  0  0  0  0
 18 11  1  0  0  0  0
 18 19  2  0  0  0  0
 21 15  1  0  0  0  0
 22 16  1  0  0  0  0
 23  7  1  0  0  0  0
 23 25  1  0  0  0  0
 25 24  2  6  0  0  0
 25 26  1  0  0  0  0
 26 27  1  0  0  0  0
 28 25  1  0  0  0  0
 28 31  1  0  0  0  0
 29 30  1  0  0  0  0
 30 31  1  0  0  0  0
 30 39  1  0  0  0  0
 31 32  2  0  0  0  0
 32 33  1  0  0  0  0
 33 34  1  0  0  0  0
 34 35  2  0  0  0  0
 34 40  1  0  0  0  0
 36 37  1  0  0  0  0
 36 35  1  0  0  0  0
 38 36  2  0  0  0  0
 39 38  1  0  0  0  0
 39 33  2  0  0  0  0
 40 41  1  0  0  0  0
 40 42  1  0  0  0  0
M  END
>  <minimizedAffinity>
-6.11146498

>  <minimizedRMSD>
0.445406377

$$$$
