
 OpenBabel03252506243D

 50 55  0  0  0  0  0  0  0  0999 V2000
   45.4940   27.8790   47.9980 C   0  0  0  0  0  0  0  0  0  0  0  0
   45.1810   29.2210   47.9150 C   0  0  0  0  0  0  0  0  0  0  0  0
   44.3050   29.5870   46.8890 C   0  0  0  0  0  0  0  0  0  0  0  0
   43.7840   28.6610   46.0130 C   0  0  0  0  0  0  0  0  0  0  0  0
   42.9410   28.7160   44.9570 N   0  0  0  0  0  0  0  0  0  0  0  0
   42.7520   27.5000   44.4330 C   0  0  0  0  0  0  0  0  0  0  0  0
   43.4880   26.5810   45.1510 C   0  0  0  0  0  0  0  0  0  0  0  0
   44.1060   27.3350   46.1120 C   0  0  0  0  0  0  0  0  0  0  0  0
   44.9730   26.9680   47.1240 C   0  0  0  0  0  0  0  0  0  0  0  0
   46.1810   27.6600   48.8170 H   0  0  0  0  0  0  0  0  0  0  0  0
   43.9680   30.5970   46.6980 H   0  0  0  0  0  0  0  0  0  0  0  0
   42.4880   29.5810   44.5850 H   0  0  0  0  0  0  0  0  0  0  0  0
   42.1190   27.2530   43.5740 H   0  0  0  0  0  0  0  0  0  0  0  0
   43.5130   25.5220   44.9370 H   0  0  0  0  0  0  0  0  0  0  0  0
   45.3470   25.6050   47.2790 N   0  0  0  0  0  0  0  0  0  0  0  0
   44.8420   24.8430   48.2560 C   0  0  0  0  0  0  0  0  0  0  0  0
   44.1330   25.0040   49.0660 H   0  0  0  0  0  0  0  0  0  0  0  0
   45.3580   23.6010   48.1790 N   0  0  0  0  0  0  0  0  0  0  0  0
   46.2070   23.5690   47.1370 C   0  0  0  0  0  0  0  0  0  0  0  0
   47.0340   22.6120   46.5420 C   0  0  0  0  0  0  0  0  0  0  0  0
   47.7800   22.9340   45.4640 N   0  0  0  0  0  0  0  0  0  0  0  0
   47.7450   24.1870   44.9360 C   0  0  0  0  0  0  0  0  0  0  0  0
   48.3800   24.3350   44.0790 H   0  0  0  0  0  0  0  0  0  0  0  0
   46.9480   25.1450   45.4940 N   0  0  0  0  0  0  0  0  0  0  0  0
   46.1980   24.8470   46.5650 C   0  0  0  0  0  0  0  0  0  0  0  0
   46.9830   21.3560   47.1780 N   0  0  0  0  0  0  0  0  0  0  0  0
   47.6770   21.4540   47.9760 H   0  0  0  0  0  0  0  0  0  0  0  0
   46.2720   20.8700   46.5740 H   0  0  0  0  0  0  0  0  0  0  0  0
   45.6160   30.3460   48.7290 C   0  0  0  0  0  0  0  0  0  0  0  0
   44.8440   31.1370   48.7820 H   0  0  0  0  0  0  0  0  0  0  0  0
   45.6860   29.9640   49.7880 H   0  0  0  0  0  0  0  0  0  0  0  0
   46.9320   30.9440   48.4140 C   0  0  0  0  0  0  0  0  0  0  0  0
   47.7660   30.2550   48.5010 H   0  0  0  0  0  0  0  0  0  0  0  0
   47.1030   31.7790   49.1330 H   0  0  0  0  0  0  0  0  0  0  0  0
   46.4240   32.9760   45.5150 C   0  0  0  0  0  0  0  0  0  0  0  0
   47.2270   31.9270   44.9980 C   0  0  0  0  0  0  0  0  0  0  0  0
   47.5090   31.0570   46.0000 C   0  0  0  0  0  0  0  0  0  0  0  0
   46.9050   31.5500   47.0890 N   0  0  0  0  0  0  0  0  0  0  0  0
   46.2620   32.6880   46.8010 N   0  0  0  0  0  0  0  0  0  0  0  0
   47.5540   31.8500   43.9640 H   0  0  0  0  0  0  0  0  0  0  0  0
   48.0870   30.1430   45.9990 H   0  0  0  0  0  0  0  0  0  0  0  0
   44.4980   35.9060   44.5220 C   0  0  0  0  0  0  0  0  0  0  0  0
   44.9870   36.1980   43.2590 C   0  0  0  0  0  0  0  0  0  0  0  0
   45.9990   35.3710   42.7400 C   0  0  0  0  0  0  0  0  0  0  0  0
   46.4240   34.3480   43.5110 N   0  0  0  0  0  0  0  0  0  0  0  0
   45.9320   34.0850   44.7350 C   0  0  0  0  0  0  0  0  0  0  0  0
   44.9630   34.8710   45.2400 N   0  0  0  0  0  0  0  0  0  0  0  0
   43.7280   36.5740   44.8600 H   0  0  0  0  0  0  0  0  0  0  0  0
   44.6930   36.9860   42.6090 H   0  0  0  0  0  0  0  0  0  0  0  0
   46.4500   35.5050   41.7740 H   0  0  0  0  0  0  0  0  0  0  0  0
  1 10  1  0  0  0  0
  2  1  1  0  0  0  0
  2 29  1  0  0  0  0
  3  2  2  0  0  0  0
  4  8  2  0  0  0  0
  4  3  1  0  0  0  0
  5  4  1  0  0  0  0
  6  5  1  0  0  0  0
  6  7  2  0  0  0  0
  7  8  1  0  0  0  0
  8  9  1  0  0  0  0
  9 15  1  0  0  0  0
  9  1  2  0  0  0  0
 11  3  1  0  0  0  0
 12  5  1  0  0  0  0
 13  6  1  0  0  0  0
 14  7  1  0  0  0  0
 15 16  1  0  0  0  0
 16 17  1  0  0  0  0
 18 16  2  0  0  0  0
 19 18  1  0  0  0  0
 20 19  2  0  0  0  0
 20 26  1  0  0  0  0
 21 20  1  0  0  0  0
 22 21  2  0  0  0  0
 22 24  1  0  0  0  0
 23 22  1  0  0  0  0
 24 25  2  0  0  0  0
 25 19  1  0  0  0  0
 25 15  1  0  0  0  0
 26 27  1  0  0  0  0
 28 26  1  0  0  0  0
 29 30  1  0  0  0  0
 29 31  1  0  0  0  0
 32 33  1  0  0  0  0
 32 29  1  0  0  0  0
 32 34  1  0  0  0  0
 35 39  2  0  0  0  0
 36 35  1  0  0  0  0
 36 37  2  0  0  0  0
 37 38  1  0  0  0  0
 38 32  1  0  0  0  0
 39 38  1  0  0  0  0
 40 36  1  0  0  0  0
 41 37  1  0  0  0  0
 42 48  1  0  0  0  0
 42 47  1  0  0  0  0
 43 42  2  0  0  0  0
 44 43  1  0  0  0  0
 44 45  2  0  0  0  0
 45 46  1  0  0  0  0
 46 47  2  0  0  0  0
 46 35  1  0  0  0  0
 49 43  1  0  0  0  0
 50 44  1  0  0  0  0
M  END
>  <minimizedAffinity>
-5.60420609

>  <minimizedRMSD>
1.30399442

$$$$
