
 OpenBabel03242520193D

 40 43  0  0  0  0  0  0  0  0999 V2000
   40.1150   35.6360   39.9850 C   0  0  0  0  0  0  0  0  0  0  0  0
   40.4510   35.9540   40.9720 H   0  0  0  0  0  0  0  0  0  0  0  0
   39.3720   36.4240   39.6650 H   0  0  0  0  0  0  0  0  0  0  0  0
   39.5290   33.5990   41.1950 C   0  0  0  0  0  0  0  0  0  0  0  0
   39.9740   34.0080   42.3030 O   0  0  0  0  0  0  0  0  0  0  0  0
   39.5070   34.3240   39.9770 N   0  0  0  0  0  0  0  0  0  0  0  0
   39.0800   33.9520   39.1050 H   0  0  0  0  0  0  0  0  0  0  0  0
   37.3920   32.3310   39.7180 H   0  0  0  0  0  0  0  0  0  0  0  0
   37.9410   31.7570   40.3910 N   0  0  0  0  0  0  0  0  0  0  0  0
   38.9730   32.2270   41.1500 C   0  0  0  0  0  0  0  0  0  0  0  0
   39.3990   31.1530   41.8750 N   0  0  0  0  0  0  0  0  0  0  0  0
   38.6820   30.0660   41.5960 C   0  0  0  0  0  0  0  0  0  0  0  0
   38.7950   28.7800   42.1150 C   0  0  0  0  0  0  0  0  0  0  0  0
   37.9000   27.8840   41.6150 N   0  0  0  0  0  0  0  0  0  0  0  0
   36.9910   28.2390   40.6960 C   0  0  0  0  0  0  0  0  0  0  0  0
   36.3060   27.4760   40.3390 H   0  0  0  0  0  0  0  0  0  0  0  0
   36.9120   29.4980   40.2150 N   0  0  0  0  0  0  0  0  0  0  0  0
   37.7550   30.4500   40.6510 C   0  0  0  0  0  0  0  0  0  0  0  0
   39.7900   28.4920   43.0880 N   0  0  0  0  0  0  0  0  0  0  0  0
   40.6770   28.5700   42.5390 H   0  0  0  0  0  0  0  0  0  0  0  0
   39.7500   28.2510   44.1140 H   0  0  0  0  0  0  0  0  0  0  0  0
   41.2900   35.7410   39.0370 C   0  0  0  0  0  0  0  0  0  0  0  0
   41.5580   36.8000   38.8490 H   0  0  0  0  0  0  0  0  0  0  0  0
   41.0460   35.3040   38.0410 H   0  0  0  0  0  0  0  0  0  0  0  0
   44.0620   34.6030   41.3460 C   0  0  0  0  0  0  0  0  0  0  0  0
   42.9470   35.3160   40.8490 C   0  0  0  0  0  0  0  0  0  0  0  0
   42.4630   35.0200   39.5860 C   0  0  0  0  0  0  0  0  0  0  0  0
   43.1150   34.0310   38.8850 N   0  0  0  0  0  0  0  0  0  0  0  0
   44.1840   33.3750   39.4060 C   0  0  0  0  0  0  0  0  0  0  0  0
   44.6510   33.6560   40.6200 N   0  0  0  0  0  0  0  0  0  0  0  0
   42.5080   36.0710   41.4740 H   0  0  0  0  0  0  0  0  0  0  0  0
   44.6700   32.5990   38.8180 H   0  0  0  0  0  0  0  0  0  0  0  0
   44.5770   34.9360   42.6960 C   0  0  0  0  0  0  0  0  0  0  0  0
   46.1030   35.3050   42.6650 C   0  0  0  0  0  0  0  0  0  0  0  0
   45.0350   36.2160   43.0930 C   0  0  0  0  0  0  0  0  0  0  0  0
   44.3750   34.1360   43.4700 H   0  0  0  0  0  0  0  0  0  0  0  0
   46.7550   34.7720   43.3680 H   0  0  0  0  0  0  0  0  0  0  0  0
   46.5410   35.5140   41.6770 H   0  0  0  0  0  0  0  0  0  0  0  0
   45.0200   36.4910   44.1780 H   0  0  0  0  0  0  0  0  0  0  0  0
   44.8170   37.1370   42.4770 H   0  0  0  0  0  0  0  0  0  0  0  0
  1  2  1  0  0  0  0
  3  1  1  0  0  0  0
  4  5  2  0  0  0  0
  6  1  1  0  0  0  0
  6  4  1  0  0  0  0
  7  6  1  0  0  0  0
  8  9  1  0  0  0  0
  9 18  1  0  0  0  0
  9 10  1  0  0  0  0
 10  4  1  0  0  0  0
 10 11  2  0  0  0  0
 12 11  1  0  0  0  0
 12 13  1  0  0  0  0
 13 19  1  0  0  0  0
 14 13  2  0  0  0  0
 15 14  1  0  0  0  0
 16 15  1  0  0  0  0
 17 18  1  0  0  0  0
 17 15  2  0  0  0  0
 18 12  2  0  0  0  0
 19 21  1  0  0  0  0
 20 19  1  0  0  0  0
 22 27  1  0  0  0  0
 22  1  1  0  0  0  0
 23 22  1  0  0  0  0
 24 22  1  0  0  0  0
 25 33  1  0  0  0  0
 26 25  1  0  0  0  0
 26 31  1  0  0  0  0
 27 26  2  0  0  0  0
 28 29  2  0  0  0  0
 28 27  1  0  0  0  0
 29 30  1  0  0  0  0
 30 25  2  0  0  0  0
 32 29  1  0  0  0  0
 33 35  1  0  0  0  0
 33 36  1  0  0  0  0
 34 33  1  0  0  0  0
 34 35  1  0  0  0  0
 34 37  1  0  0  0  0
 35 39  1  0  0  0  0
 38 34  1  0  0  0  0
 40 35  1  0  0  0  0
M  END
>  <minimizedAffinity>
-5.56902742

>  <minimizedRMSD>
1.46941543

$$$$
