
 OpenBabel03252509323D

 32 34  0  0  0  0  0  0  0  0999 V2000
   34.6850   29.3300   39.7210 O   0  0  0  0  0  0  0  0  0  0  0  0
   35.8950   29.5290   40.5940 P   0  0  2  0  0  0  0  0  0  0  0  0
   35.7310   30.8200   41.6590 O   0  0  0  0  0  0  0  0  0  0  0  0
   34.9470   31.3890   41.4900 H   0  0  0  0  0  0  0  0  0  0  0  0
   37.2390   29.8470   39.6000 O   0  0  0  0  0  0  0  0  0  0  0  0
   36.9570   31.0350   38.9380 C   0  0  0  0  0  0  0  0  0  0  0  0
   35.9300   31.3660   39.2630 H   0  0  0  0  0  0  0  0  0  0  0  0
   36.8750   30.9310   37.8390 H   0  0  0  0  0  0  0  0  0  0  0  0
   38.6180   34.1610   40.1190 C   0  0  0  0  0  0  0  0  0  0  0  0
   37.6180   33.1960   39.8790 C   0  0  0  0  0  0  0  0  0  0  0  0
   37.9760   32.0520   39.2000 C   0  0  0  0  0  0  0  0  0  0  0  0
   39.2730   31.8960   38.7870 N   0  0  0  0  0  0  0  0  0  0  0  0
   40.2080   32.8450   39.0360 C   0  0  0  0  0  0  0  0  0  0  0  0
   39.8850   33.9680   39.6950 N   0  0  0  0  0  0  0  0  0  0  0  0
   38.4170   35.0830   40.6440 H   0  0  0  0  0  0  0  0  0  0  0  0
   36.6130   33.4030   40.2430 H   0  0  0  0  0  0  0  0  0  0  0  0
   41.2340   32.7100   38.7030 H   0  0  0  0  0  0  0  0  0  0  0  0
   36.1930   28.0880   41.4030 O   0  0  0  0  0  0  0  0  0  0  0  0
   38.5170   29.5310   42.1260 H   0  0  0  0  0  0  0  0  0  0  0  0
   38.4820   28.4950   42.2550 N   0  0  0  0  0  0  0  0  0  0  0  0
   37.4230   27.7320   41.9400 C   0  0  0  0  0  0  0  0  0  0  0  0
   37.7490   26.4510   42.2440 N   0  0  0  0  0  0  0  0  0  0  0  0
   38.9990   26.4240   42.7450 C   0  0  0  0  0  0  0  0  0  0  0  0
   39.8720   25.4750   43.2210 C   0  0  0  0  0  0  0  0  0  0  0  0
   41.1090   25.7540   43.6730 N   0  0  0  0  0  0  0  0  0  0  0  0
   41.5500   27.0340   43.6720 C   0  0  0  0  0  0  0  0  0  0  0  0
   42.5060   27.4210   43.9990 H   0  0  0  0  0  0  0  0  0  0  0  0
   40.7080   27.9610   43.2110 N   0  0  0  0  0  0  0  0  0  0  0  0
   39.4670   27.7180   42.7530 C   0  0  0  0  0  0  0  0  0  0  0  0
   39.4510   24.1160   43.2400 N   0  0  0  0  0  0  0  0  0  0  0  0
   38.7330   23.9000   43.9760 H   0  0  0  0  0  0  0  0  0  0  0  0
   39.5090   23.1400   42.8480 H   0  0  0  0  0  0  0  0  0  0  0  0
  2  1  2  6  0  0  0
  2 18  1  0  0  0  0
  2  3  1  0  0  0  0
  4  3  1  0  0  0  0
  5  2  1  0  0  0  0
  6 11  1  0  0  0  0
  6  7  1  0  0  0  0
  6  5  1  0  0  0  0
  8  6  1  0  0  0  0
  9 15  1  0  0  0  0
 10  9  1  0  0  0  0
 10 16  1  0  0  0  0
 11 10  2  0  0  0  0
 12 13  2  0  0  0  0
 12 11  1  0  0  0  0
 13 14  1  0  0  0  0
 14  9  2  0  0  0  0
 17 13  1  0  0  0  0
 18 21  1  0  0  0  0
 19 20  1  0  0  0  0
 20 29  1  0  0  0  0
 21 22  2  0  0  0  0
 21 20  1  0  0  0  0
 22 23  1  0  0  0  0
 23 29  2  0  0  0  0
 23 24  1  0  0  0  0
 24 30  1  0  0  0  0
 24 25  2  0  0  0  0
 26 25  1  0  0  0  0
 26 27  1  0  0  0  0
 28 26  2  0  0  0  0
 29 28  1  0  0  0  0
 30 31  1  0  0  0  0
 32 30  1  0  0  0  0
M  END
>  <minimizedAffinity>
-5.64230967

$$$$

 OpenBabel03252509323D

 32 34  0  0  0  0  0  0  0  0999 V2000
   38.0570   30.1940   42.1140 O   0  0  0  0  0  0  0  0  0  0  0  0
   36.9220   29.8880   41.1750 P   0  0  2  0  0  0  0  0  0  0  0  0
   35.6160   30.9310   41.3630 O   0  0  0  0  0  0  0  0  0  0  0  0
   35.6690   31.5110   42.1540 H   0  0  0  0  0  0  0  0  0  0  0  0
   36.3700   28.3090   41.4810 O   0  0  0  0  0  0  0  0  0  0  0  0
   36.8070   27.9880   42.7600 C   0  0  0  0  0  0  0  0  0  0  0  0
   35.8930   27.8810   43.4100 H   0  0  0  0  0  0  0  0  0  0  0  0
   37.3970   28.7870   43.2490 H   0  0  0  0  0  0  0  0  0  0  0  0
   39.6660   25.6550   43.3100 C   0  0  0  0  0  0  0  0  0  0  0  0
   38.8890   26.8320   43.3220 C   0  0  0  0  0  0  0  0  0  0  0  0
   37.6330   26.7800   42.7600 C   0  0  0  0  0  0  0  0  0  0  0  0
   37.1890   25.6030   42.2160 N   0  0  0  0  0  0  0  0  0  0  0  0
   37.9640   24.4910   42.2240 C   0  0  0  0  0  0  0  0  0  0  0  0
   39.1920   24.5150   42.7640 N   0  0  0  0  0  0  0  0  0  0  0  0
   40.6600   25.6140   43.7310 H   0  0  0  0  0  0  0  0  0  0  0  0
   39.3210   27.7220   43.7750 H   0  0  0  0  0  0  0  0  0  0  0  0
   37.6020   23.5630   41.7890 H   0  0  0  0  0  0  0  0  0  0  0  0
   37.5240   29.9200   39.6070 O   0  0  0  0  0  0  0  0  0  0  0  0
   38.3490   32.5480   40.2540 H   0  0  0  0  0  0  0  0  0  0  0  0
   38.8820   31.9890   39.5510 N   0  0  0  0  0  0  0  0  0  0  0  0
   38.5630   30.7380   39.1840 C   0  0  0  0  0  0  0  0  0  0  0  0
   39.4760   30.3470   38.2610 N   0  0  0  0  0  0  0  0  0  0  0  0
   40.3540   31.3490   38.0600 C   0  0  0  0  0  0  0  0  0  0  0  0
   41.4650   31.5730   37.2840 C   0  0  0  0  0  0  0  0  0  0  0  0
   42.1680   32.7220   37.2930 N   0  0  0  0  0  0  0  0  0  0  0  0
   41.7830   33.7360   38.1040 C   0  0  0  0  0  0  0  0  0  0  0  0
   42.2340   34.7110   38.2290 H   0  0  0  0  0  0  0  0  0  0  0  0
   40.7040   33.5250   38.8610 N   0  0  0  0  0  0  0  0  0  0  0  0
   39.9800   32.3920   38.8760 C   0  0  0  0  0  0  0  0  0  0  0  0
   41.9060   30.5350   36.4160 N   0  0  0  0  0  0  0  0  0  0  0  0
   42.3510   29.7220   36.9110 H   0  0  0  0  0  0  0  0  0  0  0  0
   42.0150   30.1480   35.4420 H   0  0  0  0  0  0  0  0  0  0  0  0
  2  3  1  0  0  0  0
  2  5  1  0  0  0  0
  2  1  2  1  0  0  0
  3  4  1  0  0  0  0
  5  6  1  0  0  0  0
  6  8  1  0  0  0  0
  6  7  1  0  0  0  0
  9 10  1  0  0  0  0
  9 15  1  0  0  0  0
 10 16  1  0  0  0  0
 11  6  1  0  0  0  0
 11 10  2  0  0  0  0
 12 13  2  0  0  0  0
 12 11  1  0  0  0  0
 13 14  1  0  0  0  0
 14  9  2  0  0  0  0
 17 13  1  0  0  0  0
 18  2  1  0  0  0  0
 20 19  1  0  0  0  0
 21 20  1  0  0  0  0
 21 18  1  0  0  0  0
 22 21  2  0  0  0  0
 23 22  1  0  0  0  0
 23 29  1  0  0  0  0
 24 25  1  0  0  0  0
 24 23  2  0  0  0  0
 25 26  2  0  0  0  0
 26 27  1  0  0  0  0
 26 28  1  0  0  0  0
 28 29  2  0  0  0  0
 29 20  1  0  0  0  0
 30 31  1  0  0  0  0
 30 24  1  0  0  0  0
 32 30  1  0  0  0  0
M  END
>  <minimizedAffinity>
-5.56706429

$$$$

 OpenBabel03252509323D

 32 34  0  0  0  0  0  0  0  0999 V2000
   39.4410   29.2880   42.7260 O   0  0  0  0  0  0  0  0  0  0  0  0
   37.9840   29.3490   42.3540 P   0  0  2  0  0  0  0  0  0  0  0  0
   36.9610   29.1820   43.6790 O   0  0  0  0  0  0  0  0  0  0  0  0
   37.4120   28.9090   44.5090 H   0  0  0  0  0  0  0  0  0  0  0  0
   37.6420   28.0790   41.2750 O   0  0  0  0  0  0  0  0  0  0  0  0
   37.3160   26.9810   42.0600 C   0  0  0  0  0  0  0  0  0  0  0  0
   36.3150   27.1910   42.5330 H   0  0  0  0  0  0  0  0  0  0  0  0
   37.9960   26.8240   42.9210 H   0  0  0  0  0  0  0  0  0  0  0  0
   36.9670   24.5860   39.2210 C   0  0  0  0  0  0  0  0  0  0  0  0
   36.9610   25.7930   39.9510 C   0  0  0  0  0  0  0  0  0  0  0  0
   37.3140   25.7430   41.2810 C   0  0  0  0  0  0  0  0  0  0  0  0
   37.6530   24.5390   41.8410 N   0  0  0  0  0  0  0  0  0  0  0  0
   37.6480   23.3990   41.1080 C   0  0  0  0  0  0  0  0  0  0  0  0
   37.3070   23.4200   39.8100 N   0  0  0  0  0  0  0  0  0  0  0  0
   36.7030   24.5410   38.1750 H   0  0  0  0  0  0  0  0  0  0  0  0
   36.6780   26.7030   39.4260 H   0  0  0  0  0  0  0  0  0  0  0  0
   37.9180   22.4490   41.5620 H   0  0  0  0  0  0  0  0  0  0  0  0
   37.7160   30.7930   41.5400 O   0  0  0  0  0  0  0  0  0  0  0  0
   39.7130   32.5450   42.5130 H   0  0  0  0  0  0  0  0  0  0  0  0
   39.6300   32.3630   41.4870 N   0  0  0  0  0  0  0  0  0  0  0  0
   38.7140   31.5480   40.9390 C   0  0  0  0  0  0  0  0  0  0  0  0
   38.9150   31.5680   39.5980 N   0  0  0  0  0  0  0  0  0  0  0  0
   39.9470   32.3870   39.3200 C   0  0  0  0  0  0  0  0  0  0  0  0
   40.6170   32.8160   38.2010 C   0  0  0  0  0  0  0  0  0  0  0  0
   41.6550   33.6750   38.2310 N   0  0  0  0  0  0  0  0  0  0  0  0
   42.0880   34.1610   39.4180 C   0  0  0  0  0  0  0  0  0  0  0  0
   42.8990   34.8500   39.6120 H   0  0  0  0  0  0  0  0  0  0  0  0
   41.4410   33.7480   40.5100 N   0  0  0  0  0  0  0  0  0  0  0  0
   40.4030   32.8930   40.5160 C   0  0  0  0  0  0  0  0  0  0  0  0
   40.1970   32.3310   36.9300 N   0  0  0  0  0  0  0  0  0  0  0  0
   40.4410   31.3240   36.7540 H   0  0  0  0  0  0  0  0  0  0  0  0
   39.7230   32.4970   36.0040 H   0  0  0  0  0  0  0  0  0  0  0  0
  2  1  2  1  0  0  0
  2  3  1  0  0  0  0
  3  4  1  0  0  0  0
  5  6  1  0  0  0  0
  5  2  1  0  0  0  0
  6  7  1  0  0  0  0
  6  8  1  0  0  0  0
  9 14  2  0  0  0  0
  9 10  1  0  0  0  0
 10 11  2  0  0  0  0
 11 12  1  0  0  0  0
 11  6  1  0  0  0  0
 13 17  1  0  0  0  0
 13 12  2  0  0  0  0
 14 13  1  0  0  0  0
 15  9  1  0  0  0  0
 16 10  1  0  0  0  0
 18  2  1  0  0  0  0
 20 19  1  0  0  0  0
 21 20  1  0  0  0  0
 21 18  1  0  0  0  0
 22 21  2  0  0  0  0
 23 22  1  0  0  0  0
 23 29  1  0  0  0  0
 24 25  1  0  0  0  0
 24 23  2  0  0  0  0
 25 26  2  0  0  0  0
 26 27  1  0  0  0  0
 26 28  1  0  0  0  0
 28 29  2  0  0  0  0
 29 20  1  0  0  0  0
 30 24  1  0  0  0  0
 31 30  1  0  0  0  0
 32 30  1  0  0  0  0
M  END
>  <minimizedAffinity>
-5.43299055

$$$$

 OpenBabel03252509323D

 32 34  0  0  0  0  0  0  0  0999 V2000
   36.9640   29.9810   39.4870 O   0  0  0  0  0  0  0  0  0  0  0  0
   37.0200   30.8150   40.7380 P   0  0  2  0  0  0  0  0  0  0  0  0
   35.5090   31.0440   41.4420 O   0  0  0  0  0  0  0  0  0  0  0  0
   34.7530   30.7500   40.8870 H   0  0  0  0  0  0  0  0  0  0  0  0
   37.6440   32.3480   40.3450 O   0  0  0  0  0  0  0  0  0  0  0  0
   38.9770   32.3340   40.7320 C   0  0  0  0  0  0  0  0  0  0  0  0
   39.1970   31.3080   41.1420 H   0  0  0  0  0  0  0  0  0  0  0  0
   39.2110   33.0190   41.5700 H   0  0  0  0  0  0  0  0  0  0  0  0
   40.7400   32.2620   37.4450 C   0  0  0  0  0  0  0  0  0  0  0  0
   39.8770   31.8970   38.4990 C   0  0  0  0  0  0  0  0  0  0  0  0
   39.8640   32.6910   39.6240 C   0  0  0  0  0  0  0  0  0  0  0  0
   40.6780   33.7920   39.6780 N   0  0  0  0  0  0  0  0  0  0  0  0
   41.4940   34.1130   38.6450 C   0  0  0  0  0  0  0  0  0  0  0  0
   41.5270   33.3550   37.5370 N   0  0  0  0  0  0  0  0  0  0  0  0
   40.8090   31.6920   36.5300 H   0  0  0  0  0  0  0  0  0  0  0  0
   39.2650   31.0060   38.3700 H   0  0  0  0  0  0  0  0  0  0  0  0
   42.1360   34.9880   38.6990 H   0  0  0  0  0  0  0  0  0  0  0  0
   38.0970   30.0870   41.8000 O   0  0  0  0  0  0  0  0  0  0  0  0
   36.4710   27.8680   41.1370 H   0  0  0  0  0  0  0  0  0  0  0  0
   37.3850   27.7220   41.6230 N   0  0  0  0  0  0  0  0  0  0  0  0
   38.2180   28.7150   41.9740 C   0  0  0  0  0  0  0  0  0  0  0  0
   39.2900   28.1420   42.5760 N   0  0  0  0  0  0  0  0  0  0  0  0
   39.1210   26.8060   42.5960 C   0  0  0  0  0  0  0  0  0  0  0  0
   39.8160   25.7100   43.0450 C   0  0  0  0  0  0  0  0  0  0  0  0
   39.3800   24.4410   42.9210 N   0  0  0  0  0  0  0  0  0  0  0  0
   38.1890   24.1980   42.3240 C   0  0  0  0  0  0  0  0  0  0  0  0
   37.7010   23.2490   42.1470 H   0  0  0  0  0  0  0  0  0  0  0  0
   37.5080   25.2580   41.8850 N   0  0  0  0  0  0  0  0  0  0  0  0
   37.9140   26.5360   41.9920 C   0  0  0  0  0  0  0  0  0  0  0  0
   41.0730   25.9180   43.6800 N   0  0  0  0  0  0  0  0  0  0  0  0
   41.8420   26.2030   43.0240 H   0  0  0  0  0  0  0  0  0  0  0  0
   41.6600   25.9280   44.5540 H   0  0  0  0  0  0  0  0  0  0  0  0
  2  1  2  6  0  0  0
  2  3  1  0  0  0  0
  2 18  1  0  0  0  0
  4  3  1  0  0  0  0
  5  6  1  0  0  0  0
  5  2  1  0  0  0  0
  6  7  1  0  0  0  0
  6  8  1  0  0  0  0
  9 14  2  0  0  0  0
  9 10  1  0  0  0  0
 10 11  2  0  0  0  0
 11 12  1  0  0  0  0
 11  6  1  0  0  0  0
 13 17  1  0  0  0  0
 13 12  2  0  0  0  0
 14 13  1  0  0  0  0
 15  9  1  0  0  0  0
 16 10  1  0  0  0  0
 18 21  1  0  0  0  0
 19 20  1  0  0  0  0
 20 21  1  0  0  0  0
 20 29  1  0  0  0  0
 21 22  2  0  0  0  0
 22 23  1  0  0  0  0
 23 24  1  0  0  0  0
 24 30  1  0  0  0  0
 25 24  2  0  0  0  0
 26 25  1  0  0  0  0
 27 26  1  0  0  0  0
 28 29  1  0  0  0  0
 28 26  2  0  0  0  0
 29 23  2  0  0  0  0
 30 32  1  0  0  0  0
 31 30  1  0  0  0  0
M  END
>  <minimizedAffinity>
-5.29404879

$$$$

 OpenBabel03252509323D

 32 34  0  0  0  0  0  0  0  0999 V2000
   39.4470   29.2150   42.5570 O   0  0  0  0  0  0  0  0  0  0  0  0
   37.9740   29.3500   42.2830 P   0  0  2  0  0  0  0  0  0  0  0  0
   37.0380   29.2840   43.6800 O   0  0  0  0  0  0  0  0  0  0  0  0
   37.5300   29.0120   44.4860 H   0  0  0  0  0  0  0  0  0  0  0  0
   37.4870   28.0680   41.2750 O   0  0  0  0  0  0  0  0  0  0  0  0
   36.1870   28.3590   40.8810 C   0  0  0  0  0  0  0  0  0  0  0  0
   35.9340   29.3800   41.2850 H   0  0  0  0  0  0  0  0  0  0  0  0
   35.4210   27.6930   41.3260 H   0  0  0  0  0  0  0  0  0  0  0  0
   35.9530   29.3410   37.2900 C   0  0  0  0  0  0  0  0  0  0  0  0
   36.1030   29.4410   38.6880 C   0  0  0  0  0  0  0  0  0  0  0  0
   36.0340   28.2810   39.4290 C   0  0  0  0  0  0  0  0  0  0  0  0
   35.8240   27.0880   38.7880 N   0  0  0  0  0  0  0  0  0  0  0  0
   35.6850   27.0300   37.4410 C   0  0  0  0  0  0  0  0  0  0  0  0
   35.7470   28.1450   36.6970 N   0  0  0  0  0  0  0  0  0  0  0  0
   35.9950   30.2020   36.6400 H   0  0  0  0  0  0  0  0  0  0  0  0
   36.2670   30.4300   39.1130 H   0  0  0  0  0  0  0  0  0  0  0  0
   35.5190   26.0780   36.9440 H   0  0  0  0  0  0  0  0  0  0  0  0
   37.7310   30.7800   41.4380 O   0  0  0  0  0  0  0  0  0  0  0  0
   39.7440   32.4540   42.5120 H   0  0  0  0  0  0  0  0  0  0  0  0
   39.6710   32.3180   41.4790 N   0  0  0  0  0  0  0  0  0  0  0  0
   38.7490   31.5440   40.8840 C   0  0  0  0  0  0  0  0  0  0  0  0
   38.9690   31.6170   39.5470 N   0  0  0  0  0  0  0  0  0  0  0  0
   40.0190   32.4300   39.3190 C   0  0  0  0  0  0  0  0  0  0  0  0
   40.7120   32.8950   38.2280 C   0  0  0  0  0  0  0  0  0  0  0  0
   41.7630   33.7330   38.3090 N   0  0  0  0  0  0  0  0  0  0  0  0
   42.1870   34.1610   39.5220 C   0  0  0  0  0  0  0  0  0  0  0  0
   43.0070   34.8260   39.7570 H   0  0  0  0  0  0  0  0  0  0  0  0
   41.5190   33.7120   40.5860 N   0  0  0  0  0  0  0  0  0  0  0  0
   40.4670   32.8760   40.5410 C   0  0  0  0  0  0  0  0  0  0  0  0
   40.3010   32.4730   36.9330 N   0  0  0  0  0  0  0  0  0  0  0  0
   40.5300   31.4710   36.7160 H   0  0  0  0  0  0  0  0  0  0  0  0
   39.8430   32.6870   36.0090 H   0  0  0  0  0  0  0  0  0  0  0  0
  2  1  2  1  0  0  0
  2  3  1  0  0  0  0
  3  4  1  0  0  0  0
  5  2  1  0  0  0  0
  6  5  1  0  0  0  0
  6  7  1  0  0  0  0
  6  8  1  0  0  0  0
  9 10  1  0  0  0  0
 10 16  1  0  0  0  0
 10 11  2  0  0  0  0
 11  6  1  0  0  0  0
 12 11  1  0  0  0  0
 13 12  2  0  0  0  0
 14  9  2  0  0  0  0
 14 13  1  0  0  0  0
 15  9  1  0  0  0  0
 17 13  1  0  0  0  0
 18  2  1  0  0  0  0
 20 19  1  0  0  0  0
 21 18  1  0  0  0  0
 21 20  1  0  0  0  0
 22 21  2  0  0  0  0
 23 22  1  0  0  0  0
 23 29  1  0  0  0  0
 24 25  1  0  0  0  0
 24 23  2  0  0  0  0
 25 26  2  0  0  0  0
 26 27  1  0  0  0  0
 26 28  1  0  0  0  0
 29 28  2  0  0  0  0
 29 20  1  0  0  0  0
 30 24  1  0  0  0  0
 31 30  1  0  0  0  0
 32 30  1  0  0  0  0
M  END
>  <minimizedAffinity>
-5.23833084

$$$$

 OpenBabel03252509323D

 32 34  0  0  0  0  0  0  0  0999 V2000
   35.9340   29.6300   36.9320 O   0  0  0  0  0  0  0  0  0  0  0  0
   37.3460   29.7210   37.4430 P   0  0  2  0  0  0  0  0  0  0  0  0
   38.4900   29.2670   36.2960 O   0  0  0  0  0  0  0  0  0  0  0  0
   38.1130   28.8490   35.4890 H   0  0  0  0  0  0  0  0  0  0  0  0
   37.5120   28.6790   38.7780 O   0  0  0  0  0  0  0  0  0  0  0  0
   36.6810   29.1850   39.7680 C   0  0  0  0  0  0  0  0  0  0  0  0
   35.6550   28.7480   39.6020 H   0  0  0  0  0  0  0  0  0  0  0  0
   36.5230   30.2800   39.7100 H   0  0  0  0  0  0  0  0  0  0  0  0
   37.1500   27.6090   43.1170 C   0  0  0  0  0  0  0  0  0  0  0  0
   36.6340   27.8690   41.8300 C   0  0  0  0  0  0  0  0  0  0  0  0
   37.1980   28.8960   41.1060 C   0  0  0  0  0  0  0  0  0  0  0  0
   38.2250   29.6180   41.6530 N   0  0  0  0  0  0  0  0  0  0  0  0
   38.6960   29.3390   42.8930 C   0  0  0  0  0  0  0  0  0  0  0  0
   38.1640   28.3450   43.6210 N   0  0  0  0  0  0  0  0  0  0  0  0
   36.7630   26.8220   43.7470 H   0  0  0  0  0  0  0  0  0  0  0  0
   35.8170   27.2440   41.4740 H   0  0  0  0  0  0  0  0  0  0  0  0
   39.5110   29.9190   43.3180 H   0  0  0  0  0  0  0  0  0  0  0  0
   37.6010   31.2890   37.9880 O   0  0  0  0  0  0  0  0  0  0  0  0
   39.6160   31.9440   36.1130 H   0  0  0  0  0  0  0  0  0  0  0  0
   39.7490   32.1660   37.1250 N   0  0  0  0  0  0  0  0  0  0  0  0
   38.8470   31.8920   38.0820 C   0  0  0  0  0  0  0  0  0  0  0  0
   39.3690   32.3230   39.2570 N   0  0  0  0  0  0  0  0  0  0  0  0
   40.5830   32.8600   39.0280 C   0  0  0  0  0  0  0  0  0  0  0  0
   41.5790   33.4470   39.7700 C   0  0  0  0  0  0  0  0  0  0  0  0
   42.7310   33.9080   39.2460 N   0  0  0  0  0  0  0  0  0  0  0  0
   42.9520   33.8020   37.9150 C   0  0  0  0  0  0  0  0  0  0  0  0
   43.8140   34.1190   37.3440 H   0  0  0  0  0  0  0  0  0  0  0  0
   41.9880   33.2330   37.1880 N   0  0  0  0  0  0  0  0  0  0  0  0
   40.8270   32.7630   37.6780 C   0  0  0  0  0  0  0  0  0  0  0  0
   41.3910   33.5800   41.1740 N   0  0  0  0  0  0  0  0  0  0  0  0
   40.6870   34.3110   41.4450 H   0  0  0  0  0  0  0  0  0  0  0  0
   41.6290   33.2820   42.1560 H   0  0  0  0  0  0  0  0  0  0  0  0
  2  1  2  6  0  0  0
  2 18  1  0  0  0  0
  2  5  1  0  0  0  0
  3  2  1  0  0  0  0
  4  3  1  0  0  0  0
  5  6  1  0  0  0  0
  6 11  1  0  0  0  0
  7  6  1  0  0  0  0
  8  6  1  0  0  0  0
  9 14  1  0  0  0  0
  9 15  1  0  0  0  0
 10  9  2  0  0  0  0
 11 12  2  0  0  0  0
 11 10  1  0  0  0  0
 12 13  1  0  0  0  0
 13 17  1  0  0  0  0
 13 14  2  0  0  0  0
 16 10  1  0  0  0  0
 18 21  1  0  0  0  0
 19 20  1  0  0  0  0
 20 29  1  0  0  0  0
 20 21  1  0  0  0  0
 21 22  2  0  0  0  0
 23 22  1  0  0  0  0
 23 24  1  0  0  0  0
 24 30  1  0  0  0  0
 25 24  2  0  0  0  0
 26 25  1  0  0  0  0
 27 26  1  0  0  0  0
 28 29  1  0  0  0  0
 28 26  2  0  0  0  0
 29 23  2  0  0  0  0
 30 31  1  0  0  0  0
 30 32  1  0  0  0  0
M  END
>  <minimizedAffinity>
-5.13841963

$$$$

 OpenBabel03252509323D

 32 34  0  0  0  0  0  0  0  0999 V2000
   37.3740   33.1660   40.0050 O   0  0  0  0  0  0  0  0  0  0  0  0
   37.3320   31.6930   40.3070 P   0  0  2  0  0  0  0  0  0  0  0  0
   35.8180   31.1710   40.8230 O   0  0  0  0  0  0  0  0  0  0  0  0
   35.1830   31.8960   41.0190 H   0  0  0  0  0  0  0  0  0  0  0  0
   38.4440   31.3580   41.5500 O   0  0  0  0  0  0  0  0  0  0  0  0
   39.0340   30.1440   41.2250 C   0  0  0  0  0  0  0  0  0  0  0  0
   40.1030   30.1840   41.5820 H   0  0  0  0  0  0  0  0  0  0  0  0
   39.1180   29.9600   40.1360 H   0  0  0  0  0  0  0  0  0  0  0  0
   37.3380   27.9040   43.6790 C   0  0  0  0  0  0  0  0  0  0  0  0
   38.0490   29.0020   43.1510 C   0  0  0  0  0  0  0  0  0  0  0  0
   38.2990   29.0170   41.7970 C   0  0  0  0  0  0  0  0  0  0  0  0
   37.8540   27.9780   41.0210 N   0  0  0  0  0  0  0  0  0  0  0  0
   37.1730   26.9390   41.5640 C   0  0  0  0  0  0  0  0  0  0  0  0
   36.9170   26.9000   42.8800 N   0  0  0  0  0  0  0  0  0  0  0  0
   37.1020   27.8190   44.7290 H   0  0  0  0  0  0  0  0  0  0  0  0
   38.3640   29.7830   43.8410 H   0  0  0  0  0  0  0  0  0  0  0  0
   36.8260   26.1210   40.9390 H   0  0  0  0  0  0  0  0  0  0  0  0
   37.8410   30.8670   38.9360 O   0  0  0  0  0  0  0  0  0  0  0  0
   35.3090   29.6250   39.1710 H   0  0  0  0  0  0  0  0  0  0  0  0
   35.7880   29.6680   38.2430 N   0  0  0  0  0  0  0  0  0  0  0  0
   36.9880   30.2370   38.0410 C   0  0  0  0  0  0  0  0  0  0  0  0
   37.2770   30.0990   36.7220 N   0  0  0  0  0  0  0  0  0  0  0  0
   36.2640   29.4510   36.1160 C   0  0  0  0  0  0  0  0  0  0  0  0
   35.9620   29.0210   34.8470 C   0  0  0  0  0  0  0  0  0  0  0  0
   34.8260   28.3710   34.5250 N   0  0  0  0  0  0  0  0  0  0  0  0
   33.9090   28.1110   35.4860 C   0  0  0  0  0  0  0  0  0  0  0  0
   32.9560   27.6050   35.3940 H   0  0  0  0  0  0  0  0  0  0  0  0
   34.1960   28.5260   36.7220 N   0  0  0  0  0  0  0  0  0  0  0  0
   35.3180   29.1760   37.0770 C   0  0  0  0  0  0  0  0  0  0  0  0
   36.8970   29.2720   33.8040 N   0  0  0  0  0  0  0  0  0  0  0  0
   36.9480   30.2790   33.5080 H   0  0  0  0  0  0  0  0  0  0  0  0
   37.6240   28.9180   33.1290 H   0  0  0  0  0  0  0  0  0  0  0  0
  2  1  2  6  0  0  0
  2  3  1  0  0  0  0
  2  5  1  0  0  0  0
  3  4  1  0  0  0  0
  6  5  1  0  0  0  0
  6  7  1  0  0  0  0
  6 11  1  0  0  0  0
  8  6  1  0  0  0  0
  9 15  1  0  0  0  0
 10  9  1  0  0  0  0
 10 16  1  0  0  0  0
 11 10  2  0  0  0  0
 12 13  2  0  0  0  0
 12 11  1  0  0  0  0
 13 14  1  0  0  0  0
 14  9  2  0  0  0  0
 17 13  1  0  0  0  0
 18  2  1  0  0  0  0
 20 19  1  0  0  0  0
 21 20  1  0  0  0  0
 21 18  1  0  0  0  0
 22 21  2  0  0  0  0
 23 22  1  0  0  0  0
 23 29  1  0  0  0  0
 24 23  2  0  0  0  0
 25 24  1  0  0  0  0
 25 26  2  0  0  0  0
 26 28  1  0  0  0  0
 27 26  1  0  0  0  0
 28 29  2  0  0  0  0
 29 20  1  0  0  0  0
 30 24  1  0  0  0  0
 31 30  1  0  0  0  0
 32 30  1  0  0  0  0
M  END
>  <minimizedAffinity>
-5.11267328

$$$$

 OpenBabel03252509323D

 32 34  0  0  0  0  0  0  0  0999 V2000
   34.6800   29.0460   39.7680 O   0  0  0  0  0  0  0  0  0  0  0  0
   35.8260   29.4390   40.6600 P   0  0  2  0  0  0  0  0  0  0  0  0
   35.5880   30.9210   41.4200 O   0  0  0  0  0  0  0  0  0  0  0  0
   34.8180   31.4310   41.0830 H   0  0  0  0  0  0  0  0  0  0  0  0
   37.2360   29.5640   39.7150 O   0  0  0  0  0  0  0  0  0  0  0  0
   37.1150   28.6100   38.7130 C   0  0  0  0  0  0  0  0  0  0  0  0
   37.3140   29.1260   37.7310 H   0  0  0  0  0  0  0  0  0  0  0  0
   36.0930   28.1980   38.6020 H   0  0  0  0  0  0  0  0  0  0  0  0
   38.4040   25.1240   39.0360 C   0  0  0  0  0  0  0  0  0  0  0  0
   37.5180   26.1990   38.8160 C   0  0  0  0  0  0  0  0  0  0  0  0
   38.0140   27.4780   38.9370 C   0  0  0  0  0  0  0  0  0  0  0  0
   39.3330   27.6580   39.2630 N   0  0  0  0  0  0  0  0  0  0  0  0
   40.1560   26.6000   39.4670 C   0  0  0  0  0  0  0  0  0  0  0  0
   39.6970   25.3440   39.3560 N   0  0  0  0  0  0  0  0  0  0  0  0
   38.0930   24.0930   38.9600 H   0  0  0  0  0  0  0  0  0  0  0  0
   36.4870   25.9630   38.5600 H   0  0  0  0  0  0  0  0  0  0  0  0
   41.2000   26.7550   39.7260 H   0  0  0  0  0  0  0  0  0  0  0  0
   36.0680   28.2030   41.7700 O   0  0  0  0  0  0  0  0  0  0  0  0
   38.4680   29.5430   42.4400 H   0  0  0  0  0  0  0  0  0  0  0  0
   38.4110   28.5020   42.5140 N   0  0  0  0  0  0  0  0  0  0  0  0
   37.3140   27.7860   42.2170 C   0  0  0  0  0  0  0  0  0  0  0  0
   37.6200   26.4820   42.4330 N   0  0  0  0  0  0  0  0  0  0  0  0
   38.8940   26.3940   42.8610 C   0  0  0  0  0  0  0  0  0  0  0  0
   39.7630   25.3990   43.2360 C   0  0  0  0  0  0  0  0  0  0  0  0
   41.0310   25.6200   43.6340 N   0  0  0  0  0  0  0  0  0  0  0  0
   41.5080   26.8860   43.6780 C   0  0  0  0  0  0  0  0  0  0  0  0
   42.4910   27.2300   43.9710 H   0  0  0  0  0  0  0  0  0  0  0  0
   40.6690   27.8590   43.3150 N   0  0  0  0  0  0  0  0  0  0  0  0
   39.3990   27.6730   42.9140 C   0  0  0  0  0  0  0  0  0  0  0  0
   39.3050   24.0520   43.2050 N   0  0  0  0  0  0  0  0  0  0  0  0
   38.6210   23.8140   43.9670 H   0  0  0  0  0  0  0  0  0  0  0  0
   39.3140   23.0970   42.7580 H   0  0  0  0  0  0  0  0  0  0  0  0
  2  1  2  6  0  0  0
  2  3  1  0  0  0  0
  2 18  1  0  0  0  0
  4  3  1  0  0  0  0
  5  2  1  0  0  0  0
  6 11  1  0  0  0  0
  6  5  1  0  0  0  0
  7  6  1  0  0  0  0
  8  6  1  0  0  0  0
  9 14  1  0  0  0  0
 10 11  1  0  0  0  0
 10  9  2  0  0  0  0
 11 12  2  0  0  0  0
 12 13  1  0  0  0  0
 13 17  1  0  0  0  0
 14 13  2  0  0  0  0
 15  9  1  0  0  0  0
 16 10  1  0  0  0  0
 18 21  1  0  0  0  0
 19 20  1  0  0  0  0
 20 29  1  0  0  0  0
 21 22  2  0  0  0  0
 21 20  1  0  0  0  0
 22 23  1  0  0  0  0
 23 29  2  0  0  0  0
 23 24  1  0  0  0  0
 24 25  2  0  0  0  0
 25 26  1  0  0  0  0
 26 27  1  0  0  0  0
 28 26  2  0  0  0  0
 29 28  1  0  0  0  0
 30 24  1  0  0  0  0
 30 31  1  0  0  0  0
 32 30  1  0  0  0  0
M  END
>  <minimizedAffinity>
-4.87507629

$$$$

 OpenBabel03252509323D

 32 34  0  0  0  0  0  0  0  0999 V2000
   38.5670   26.8070   43.6800 O   0  0  0  0  0  0  0  0  0  0  0  0
   38.3490   27.9100   42.6800 P   0  0  2  0  0  0  0  0  0  0  0  0
   36.8190   28.6000   42.7870 O   0  0  0  0  0  0  0  0  0  0  0  0
   36.1930   28.1140   43.3690 H   0  0  0  0  0  0  0  0  0  0  0  0
   38.5160   27.2670   41.1130 O   0  0  0  0  0  0  0  0  0  0  0  0
   37.3260   27.5420   40.4530 C   0  0  0  0  0  0  0  0  0  0  0  0
   36.5570   27.7930   41.2380 H   0  0  0  0  0  0  0  0  0  0  0  0
   36.8950   26.6720   39.9190 H   0  0  0  0  0  0  0  0  0  0  0  0
   36.5750   30.4000   38.1760 C   0  0  0  0  0  0  0  0  0  0  0  0
   36.3930   29.3730   39.1250 C   0  0  0  0  0  0  0  0  0  0  0  0
   37.4880   28.6130   39.4710 C   0  0  0  0  0  0  0  0  0  0  0  0
   38.7000   28.8790   38.8880 N   0  0  0  0  0  0  0  0  0  0  0  0
   38.8380   29.8760   37.9800 C   0  0  0  0  0  0  0  0  0  0  0  0
   37.7860   30.6300   37.6250 N   0  0  0  0  0  0  0  0  0  0  0  0
   35.7670   31.0390   37.8530 H   0  0  0  0  0  0  0  0  0  0  0  0
   35.3950   29.2320   39.5370 H   0  0  0  0  0  0  0  0  0  0  0  0
   39.8030   30.0770   37.5240 H   0  0  0  0  0  0  0  0  0  0  0  0
   39.5630   29.0510   42.8920 O   0  0  0  0  0  0  0  0  0  0  0  0
   41.7110   30.6910   42.0530 H   0  0  0  0  0  0  0  0  0  0  0  0
   40.7260   30.9590   41.8270 N   0  0  0  0  0  0  0  0  0  0  0  0
   39.6490   30.2420   42.1840 C   0  0  0  0  0  0  0  0  0  0  0  0
   38.5590   30.9010   41.7180 N   0  0  0  0  0  0  0  0  0  0  0  0
   38.9600   32.0150   41.0760 C   0  0  0  0  0  0  0  0  0  0  0  0
   38.3690   33.0610   40.4110 C   0  0  0  0  0  0  0  0  0  0  0  0
   39.0530   34.0760   39.8490 N   0  0  0  0  0  0  0  0  0  0  0  0
   40.4050   34.0960   39.9260 C   0  0  0  0  0  0  0  0  0  0  0  0
   41.0950   34.8310   39.5320 H   0  0  0  0  0  0  0  0  0  0  0  0
   40.9860   33.0830   40.5720 N   0  0  0  0  0  0  0  0  0  0  0  0
   40.3340   32.0560   41.1430 C   0  0  0  0  0  0  0  0  0  0  0  0
   36.9490   33.0810   40.3050 N   0  0  0  0  0  0  0  0  0  0  0  0
   36.5590   32.3690   39.6390 H   0  0  0  0  0  0  0  0  0  0  0  0
   36.0220   33.4920   40.5880 H   0  0  0  0  0  0  0  0  0  0  0  0
  2  3  1  0  0  0  0
  2 18  1  0  0  0  0
  2  1  2  1  0  0  0
  3  4  1  0  0  0  0
  5  2  1  0  0  0  0
  6  5  1  0  0  0  0
  6  7  1  0  0  0  0
  8  6  1  0  0  0  0
  9 10  1  0  0  0  0
 10 11  2  0  0  0  0
 10 16  1  0  0  0  0
 11  6  1  0  0  0  0
 12 11  1  0  0  0  0
 13 12  2  0  0  0  0
 14 13  1  0  0  0  0
 14  9  2  0  0  0  0
 15  9  1  0  0  0  0
 17 13  1  0  0  0  0
 20 19  1  0  0  0  0
 20 21  1  0  0  0  0
 21 18  1  0  0  0  0
 22 21  2  0  0  0  0
 23 29  1  0  0  0  0
 23 22  1  0  0  0  0
 24 23  2  0  0  0  0
 25 26  2  0  0  0  0
 25 24  1  0  0  0  0
 26 28  1  0  0  0  0
 27 26  1  0  0  0  0
 28 29  2  0  0  0  0
 29 20  1  0  0  0  0
 30 24  1  0  0  0  0
 30 32  1  0  0  0  0
 31 30  1  0  0  0  0
M  END
>  <minimizedAffinity>
-4.87489986

$$$$
