
 OpenBabel03242520193D

 40 43  0  0  0  0  0  0  0  0999 V2000
   40.6550   35.7270   39.3030 C   0  0  0  0  0  0  0  0  0  0  0  0
   40.6550   36.3710   40.1830 H   0  0  0  0  0  0  0  0  0  0  0  0
   40.0730   36.3030   38.5240 H   0  0  0  0  0  0  0  0  0  0  0  0
   39.8760   34.0410   40.8850 C   0  0  0  0  0  0  0  0  0  0  0  0
   40.1260   34.7380   41.9080 O   0  0  0  0  0  0  0  0  0  0  0  0
   40.0590   34.4310   39.5350 N   0  0  0  0  0  0  0  0  0  0  0  0
   39.7870   33.8310   38.7310 H   0  0  0  0  0  0  0  0  0  0  0  0
   37.2350   32.8700   40.7810 H   0  0  0  0  0  0  0  0  0  0  0  0
   38.0420   32.2580   41.0220 N   0  0  0  0  0  0  0  0  0  0  0  0
   39.3380   32.6800   41.1070 C   0  0  0  0  0  0  0  0  0  0  0  0
   40.0520   31.5680   41.4430 N   0  0  0  0  0  0  0  0  0  0  0  0
   39.2620   30.5030   41.5670 C   0  0  0  0  0  0  0  0  0  0  0  0
   39.5930   29.1920   41.8930 C   0  0  0  0  0  0  0  0  0  0  0  0
   38.5410   28.3310   41.9380 N   0  0  0  0  0  0  0  0  0  0  0  0
   37.2890   28.7400   41.6800 C   0  0  0  0  0  0  0  0  0  0  0  0
   36.4940   28.0030   41.7320 H   0  0  0  0  0  0  0  0  0  0  0  0
   37.0050   30.0220   41.3650 N   0  0  0  0  0  0  0  0  0  0  0  0
   37.9820   30.9430   41.2990 C   0  0  0  0  0  0  0  0  0  0  0  0
   40.9480   28.8470   42.1510 N   0  0  0  0  0  0  0  0  0  0  0  0
   41.3920   28.9410   41.2090 H   0  0  0  0  0  0  0  0  0  0  0  0
   41.4680   28.5580   43.0240 H   0  0  0  0  0  0  0  0  0  0  0  0
   42.0780   35.6340   38.7960 C   0  0  0  0  0  0  0  0  0  0  0  0
   42.5530   36.6350   38.7520 H   0  0  0  0  0  0  0  0  0  0  0  0
   42.1110   35.2330   37.7570 H   0  0  0  0  0  0  0  0  0  0  0  0
   44.1860   34.3300   41.6530 C   0  0  0  0  0  0  0  0  0  0  0  0
   43.4360   35.2120   40.8420 C   0  0  0  0  0  0  0  0  0  0  0  0
   42.8800   34.7400   39.6660 C   0  0  0  0  0  0  0  0  0  0  0  0
   43.1010   33.4170   39.3580 N   0  0  0  0  0  0  0  0  0  0  0  0
   43.8300   32.6090   40.1700 C   0  0  0  0  0  0  0  0  0  0  0  0
   44.3660   33.0590   41.3020 N   0  0  0  0  0  0  0  0  0  0  0  0
   43.3210   36.2290   41.1680 H   0  0  0  0  0  0  0  0  0  0  0  0
   43.9810   31.5690   39.8890 H   0  0  0  0  0  0  0  0  0  0  0  0
   44.7860   34.8490   42.9060 C   0  0  0  0  0  0  0  0  0  0  0  0
   46.2820   35.2810   42.7040 C   0  0  0  0  0  0  0  0  0  0  0  0
   45.2020   36.1880   43.1080 C   0  0  0  0  0  0  0  0  0  0  0  0
   44.6890   34.1430   43.7840 H   0  0  0  0  0  0  0  0  0  0  0  0
   47.0150   34.8680   43.4080 H   0  0  0  0  0  0  0  0  0  0  0  0
   46.6300   35.3870   41.6640 H   0  0  0  0  0  0  0  0  0  0  0  0
   45.2560   36.5940   44.1500 H   0  0  0  0  0  0  0  0  0  0  0  0
   44.8860   37.0160   42.4080 H   0  0  0  0  0  0  0  0  0  0  0  0
  1  6  1  0  0  0  0
  1  2  1  0  0  0  0
  3  1  1  0  0  0  0
  4 10  1  0  0  0  0
  4  5  2  0  0  0  0
  6  4  1  0  0  0  0
  7  6  1  0  0  0  0
  8  9  1  0  0  0  0
  9 10  1  0  0  0  0
  9 18  1  0  0  0  0
 10 11  2  0  0  0  0
 11 12  1  0  0  0  0
 12 13  1  0  0  0  0
 13 14  2  0  0  0  0
 13 19  1  0  0  0  0
 15 16  1  0  0  0  0
 15 14  1  0  0  0  0
 17 15  2  0  0  0  0
 18 17  1  0  0  0  0
 18 12  2  0  0  0  0
 19 21  1  0  0  0  0
 20 19  1  0  0  0  0
 22  1  1  0  0  0  0
 22 27  1  0  0  0  0
 23 22  1  0  0  0  0
 24 22  1  0  0  0  0
 25 33  1  0  0  0  0
 26 31  1  0  0  0  0
 26 25  2  0  0  0  0
 27 26  1  0  0  0  0
 28 27  2  0  0  0  0
 28 29  1  0  0  0  0
 29 30  2  0  0  0  0
 30 25  1  0  0  0  0
 32 29  1  0  0  0  0
 33 35  1  0  0  0  0
 33 36  1  0  0  0  0
 34 33  1  0  0  0  0
 34 35  1  0  0  0  0
 34 37  1  0  0  0  0
 35 39  1  0  0  0  0
 38 34  1  0  0  0  0
 40 35  1  0  0  0  0
M  END
>  <minimizedAffinity>
-5.64517498

>  <minimizedRMSD>
2.10890269

$$$$
