
 OpenBabel03242521433D

 43 46  0  0  1  0  0  0  0  0999 V2000
   45.1200   35.2580   43.3790 C   0  0  0  0  0  0  0  0  0  0  0  0
   46.2500   34.5150   43.0000 C   0  0  0  0  0  0  0  0  0  0  0  0
   46.8620   33.6800   43.9450 C   0  0  0  0  0  0  0  0  0  0  0  0
   46.3290   33.6370   45.1630 N   0  0  0  0  0  0  0  0  0  0  0  0
   45.2400   34.3590   45.5130 C   0  0  0  0  0  0  0  0  0  0  0  0
   44.6330   35.1700   44.6220 N   0  0  0  0  0  0  0  0  0  0  0  0
   46.5900   34.6310   41.9880 H   0  0  0  0  0  0  0  0  0  0  0  0
   44.8720   34.2700   46.5090 H   0  0  0  0  0  0  0  0  0  0  0  0
   49.0060   33.7150   42.6850 C   0  0  2  0  0  0  0  0  0  0  0  0
   48.0310   32.9350   43.4940 C   0  0  2  0  0  0  0  0  0  0  0  0
   47.7250   31.8710   42.5930 O   0  0  0  0  0  0  0  0  0  0  0  0
   48.9850   31.4170   42.2450 C   0  0  0  0  0  0  0  0  0  0  0  0
   49.9610   32.5570   42.3220 C   0  0  1  0  0  0  0  0  0  0  0  0
   48.5980   34.0130   41.6810 H   0  0  0  0  0  0  0  0  0  0  0  0
   48.5810   32.4330   44.3320 H   0  0  0  0  0  0  0  0  0  0  0  0
   48.9550   31.0620   41.1930 H   0  0  0  0  0  0  0  0  0  0  0  0
   49.2970   30.6250   42.9310 H   0  0  0  0  0  0  0  0  0  0  0  0
   50.7070   32.4400   43.1340 H   0  0  0  0  0  0  0  0  0  0  0  0
   49.6090   34.7410   43.3470 O   0  0  0  0  0  0  0  0  0  0  0  0
   49.7800   35.5490   42.8090 H   0  0  0  0  0  0  0  0  0  0  0  0
   50.5750   32.8510   41.1090 O   0  0  0  0  0  0  0  0  0  0  0  0
   50.7350   33.8160   41.0900 H   0  0  0  0  0  0  0  0  0  0  0  0
   44.4810   36.1570   42.3540 C   0  0  0  0  0  0  0  0  0  0  0  0
   44.0200   37.0160   42.8600 H   0  0  0  0  0  0  0  0  0  0  0  0
   45.2350   36.4250   41.5950 H   0  0  0  0  0  0  0  0  0  0  0  0
   43.6340   34.5060   40.5700 C   0  0  0  0  0  0  0  0  0  0  0  0
   44.7920   34.4550   40.0780 O   0  0  0  0  0  0  0  0  0  0  0  0
   43.4640   35.3540   41.6840 N   0  0  0  0  0  0  0  0  0  0  0  0
   42.4820   35.4110   42.0780 H   0  0  0  0  0  0  0  0  0  0  0  0
   43.2360   32.8460   38.2380 H   0  0  0  0  0  0  0  0  0  0  0  0
   42.4740   32.9980   38.9140 N   0  0  0  0  0  0  0  0  0  0  0  0
   42.5120   33.7410   40.0380 C   0  0  0  0  0  0  0  0  0  0  0  0
   41.2940   33.6500   40.6030 N   0  0  0  0  0  0  0  0  0  0  0  0
   40.4850   32.8680   39.8630 C   0  0  0  0  0  0  0  0  0  0  0  0
   39.1670   32.5140   40.0790 C   0  0  0  0  0  0  0  0  0  0  0  0
   38.6390   31.7000   39.1290 N   0  0  0  0  0  0  0  0  0  0  0  0
   39.3310   31.2680   38.0620 C   0  0  0  0  0  0  0  0  0  0  0  0
   38.8720   30.6140   37.3180 H   0  0  0  0  0  0  0  0  0  0  0  0
   40.6270   31.6310   37.8730 N   0  0  0  0  0  0  0  0  0  0  0  0
   41.2330   32.4480   38.7830 C   0  0  0  0  0  0  0  0  0  0  0  0
   38.4240   32.9680   41.2110 N   0  0  0  0  0  0  0  0  0  0  0  0
   38.8190   33.8160   41.6990 H   0  0  0  0  0  0  0  0  0  0  0  0
   37.5670   32.4030   41.4250 H   0  0  0  0  0  0  0  0  0  0  0  0
  1  6  1  0  0  0  0
  2  1  2  0  0  0  0
  2  3  1  0  0  0  0
  3  4  2  0  0  0  0
  4  5  1  0  0  0  0
  5  8  1  0  0  0  0
  6  5  2  0  0  0  0
  7  2  1  0  0  0  0
  9 14  1  6  0  0  0
  9 19  1  0  0  0  0
  9 10  1  0  0  0  0
 10  3  1  0  0  0  0
 10 15  1  1  0  0  0
 11 10  1  0  0  0  0
 12 13  1  0  0  0  0
 12 11  1  0  0  0  0
 12 17  1  0  0  0  0
 13  9  1  0  0  0  0
 13 18  1  1  0  0  0
 16 12  1  0  0  0  0
 20 19  1  0  0  0  0
 21 13  1  0  0  0  0
 22 21  1  0  0  0  0
 23 24  1  0  0  0  0
 23  1  1  0  0  0  0
 25 23  1  0  0  0  0
 26 28  1  0  0  0  0
 27 26  2  0  0  0  0
 28 29  1  0  0  0  0
 28 23  1  0  0  0  0
 30 31  1  0  0  0  0
 31 32  1  0  0  0  0
 32 26  1  0  0  0  0
 32 33  2  0  0  0  0
 34 35  1  0  0  0  0
 34 33  1  0  0  0  0
 35 41  1  0  0  0  0
 36 35  2  0  0  0  0
 37 36  1  0  0  0  0
 38 37  1  0  0  0  0
 39 37  2  0  0  0  0
 39 40  1  0  0  0  0
 40 31  1  0  0  0  0
 40 34  2  0  0  0  0
 41 43  1  0  0  0  0
 41 42  1  0  0  0  0
M  END
>  <minimizedAffinity>
-6.3024416

>  <minimizedRMSD>
8.32307434

$$$$
