
 OpenBabel03252503453D

 49 53  0  0  1  0  0  0  0  0999 V2000
   46.4120   35.1060   42.3560 C   0  0  0  0  0  0  0  0  0  0  0  0
   47.3270   34.8030   41.8090 H   0  0  0  0  0  0  0  0  0  0  0  0
   46.5580   36.1910   42.5690 H   0  0  0  0  0  0  0  0  0  0  0  0
   45.2500   34.8740   41.4860 C   0  0  0  0  0  0  0  0  0  0  0  0
   44.0710   35.5790   41.5360 C   0  0  0  0  0  0  0  0  0  0  0  0
   43.0100   35.3200   40.7040 C   0  0  0  0  0  0  0  0  0  0  0  0
   43.1260   34.3130   39.7810 C   0  0  0  0  0  0  0  0  0  0  0  0
   44.3130   33.5840   39.7130 C   0  0  0  0  0  0  0  0  0  0  0  0
   45.3850   33.8590   40.5650 C   0  0  0  0  0  0  0  0  0  0  0  0
   44.0480   36.3580   42.2860 H   0  0  0  0  0  0  0  0  0  0  0  0
   42.1240   35.9340   40.8230 H   0  0  0  0  0  0  0  0  0  0  0  0
   42.2610   34.1580   39.1580 H   0  0  0  0  0  0  0  0  0  0  0  0
   44.2420   32.8260   38.9310 H   0  0  0  0  0  0  0  0  0  0  0  0
   46.4450   32.9730   40.2450 N   0  0  0  0  0  0  0  0  0  0  0  0
   46.7510   31.8030   40.8360 C   0  0  0  0  0  0  0  0  0  0  0  0
   46.2550   31.3140   41.6620 H   0  0  0  0  0  0  0  0  0  0  0  0
   47.8190   31.2640   40.2550 N   0  0  0  0  0  0  0  0  0  0  0  0
   48.2320   32.0800   39.2670 C   0  0  0  0  0  0  0  0  0  0  0  0
   49.2370   32.0710   38.3480 C   0  0  0  0  0  0  0  0  0  0  0  0
   49.4110   33.0670   37.4460 N   0  0  0  0  0  0  0  0  0  0  0  0
   48.5520   34.1240   37.4480 C   0  0  0  0  0  0  0  0  0  0  0  0
   48.6290   34.9570   36.7570 H   0  0  0  0  0  0  0  0  0  0  0  0
   47.5580   34.1500   38.3430 N   0  0  0  0  0  0  0  0  0  0  0  0
   47.3620   33.1770   39.2510 C   0  0  0  0  0  0  0  0  0  0  0  0
   50.1040   30.9430   38.3920 N   0  0  0  0  0  0  0  0  0  0  0  0
   50.6290   30.2800   37.7910 H   0  0  0  0  0  0  0  0  0  0  0  0
   50.3910   30.5380   39.3020 H   0  0  0  0  0  0  0  0  0  0  0  0
   45.3090   34.5960   44.5150 C   0  0  0  0  0  0  0  0  0  0  0  0
   46.2960   34.3210   43.5730 C   0  0  0  0  0  0  0  0  0  0  0  0
   47.1610   33.2640   43.8520 C   0  0  0  0  0  0  0  0  0  0  0  0
   47.0410   32.5380   44.9890 N   0  0  0  0  0  0  0  0  0  0  0  0
   46.0680   32.8370   45.8790 C   0  0  0  0  0  0  0  0  0  0  0  0
   45.2000   33.8630   45.6510 N   0  0  0  0  0  0  0  0  0  0  0  0
   44.6230   35.3930   44.3530 H   0  0  0  0  0  0  0  0  0  0  0  0
   47.9630   32.9580   43.2380 H   0  0  0  0  0  0  0  0  0  0  0  0
   47.3810   31.7060   47.6620 C   0  0  2  0  0  0  0  0  0  0  0  0
   45.9690   32.0240   47.0920 C   0  0  1  0  0  0  0  0  0  0  0  0
   45.4360   32.6360   48.1740 O   0  0  0  0  0  0  0  0  0  0  0  0
   45.7300   31.8870   49.2750 C   0  0  0  0  0  0  0  0  0  0  0  0
   46.9140   31.0010   48.9430 C   0  0  2  0  0  0  0  0  0  0  0  0
   47.9290   31.0240   46.9920 H   0  0  0  0  0  0  0  0  0  0  0  0
   45.4540   31.0460   46.9150 H   0  0  0  0  0  0  0  0  0  0  0  0
   45.9950   32.5680   50.1100 H   0  0  0  0  0  0  0  0  0  0  0  0
   44.8270   31.2690   49.5290 H   0  0  0  0  0  0  0  0  0  0  0  0
   46.5430   29.9880   48.7220 H   0  0  0  0  0  0  0  0  0  0  0  0
   48.0030   32.8410   48.0330 O   0  0  0  0  0  0  0  0  0  0  0  0
   48.9930   32.6560   48.0560 H   0  0  0  0  0  0  0  0  0  0  0  0
   47.8700   30.9530   49.9110 O   0  0  0  0  0  0  0  0  0  0  0  0
   48.6920   31.4680   49.6960 H   0  0  0  0  0  0  0  0  0  0  0  0
  1  3  1  0  0  0  0
  1 29  1  0  0  0  0
  2  1  1  0  0  0  0
  4  5  1  0  0  0  0
  4  1  1  0  0  0  0
  5 10  1  0  0  0  0
  6 11  1  0  0  0  0
  6  5  2  0  0  0  0
  7  6  1  0  0  0  0
  8  7  2  0  0  0  0
  8  9  1  0  0  0  0
  9  4  2  0  0  0  0
 12  7  1  0  0  0  0
 13  8  1  0  0  0  0
 14  9  1  0  0  0  0
 14 15  1  0  0  0  0
 15 16  1  0  0  0  0
 17 15  2  0  0  0  0
 18 17  1  0  0  0  0
 19 25  1  0  0  0  0
 19 18  2  0  0  0  0
 20 21  2  0  0  0  0
 20 19  1  0  0  0  0
 21 23  1  0  0  0  0
 22 21  1  0  0  0  0
 23 24  2  0  0  0  0
 24 18  1  0  0  0  0
 24 14  1  0  0  0  0
 25 27  1  0  0  0  0
 26 25  1  0  0  0  0
 28 33  1  0  0  0  0
 29 30  1  0  0  0  0
 29 28  2  0  0  0  0
 30 31  2  0  0  0  0
 31 32  1  0  0  0  0
 32 37  1  0  0  0  0
 33 32  2  0  0  0  0
 34 28  1  0  0  0  0
 35 30  1  0  0  0  0
 36 41  1  6  0  0  0
 36 46  1  0  0  0  0
 36 40  1  0  0  0  0
 37 42  1  6  0  0  0
 37 36  1  0  0  0  0
 37 38  1  0  0  0  0
 38 39  1  0  0  0  0
 39 44  1  0  0  0  0
 39 43  1  0  0  0  0
 40 45  1  6  0  0  0
 40 39  1  0  0  0  0
 40 48  1  0  0  0  0
 46 47  1  0  0  0  0
 49 48  1  0  0  0  0
M  END
>  <minimizedAffinity>
-7.15140247

>  <minimizedRMSD>
0.671655059

$$$$
