
 OpenBabel03252500273D

 48 51  0  0  1  0  0  0  0  0999 V2000
   47.1140   33.0930   46.7350 O   0  0  0  0  0  0  0  0  0  0  0  0
   45.6670   32.7700   46.6190 P   0  0  1  0  0  0  0  0  0  0  0  0
   45.4590   31.5570   45.4570 O   0  0  0  0  0  0  0  0  0  0  0  0
   45.9730   31.8200   44.6660 H   0  0  0  0  0  0  0  0  0  0  0  0
   45.1720   32.2190   48.0940 O   0  0  0  0  0  0  0  0  0  0  0  0
   47.0340   30.7250   48.1300 C   0  0  2  0  0  0  0  0  0  0  0  0
   45.5720   30.9210   48.2780 C   0  0  2  0  0  0  0  0  0  0  0  0
   44.9430   29.9920   47.3640 C   0  0  0  0  0  0  0  0  0  0  0  0
   45.8410   28.9520   47.0910 O   0  0  0  0  0  0  0  0  0  0  0  0
   46.9190   29.1700   47.8780 C   0  0  0  0  0  0  0  0  0  0  0  0
   47.4940   30.9360   47.1490 H   0  0  0  0  0  0  0  0  0  0  0  0
   45.4130   30.7580   49.3830 H   0  0  0  0  0  0  0  0  0  0  0  0
   44.2460   29.3900   48.0510 H   0  0  0  0  0  0  0  0  0  0  0  0
   44.2130   30.2360   46.6230 H   0  0  0  0  0  0  0  0  0  0  0  0
   46.7660   28.7680   48.9210 H   0  0  0  0  0  0  0  0  0  0  0  0
   47.8720   28.7640   47.5470 H   0  0  0  0  0  0  0  0  0  0  0  0
   47.7940   30.9030   49.2230 O   0  0  0  0  0  0  0  0  0  0  0  0
   49.0170   31.3450   49.2440 C   0  0  0  0  0  0  0  0  0  0  0  0
   49.3150   32.3550   49.1030 H   0  0  0  0  0  0  0  0  0  0  0  0
   49.5100   30.8130   48.2570 H   0  0  0  0  0  0  0  0  0  0  0  0
   49.7990   30.5790   50.2980 C   0  0  0  0  0  0  0  0  0  0  0  0
   49.5230   30.8950   51.3210 H   0  0  0  0  0  0  0  0  0  0  0  0
   49.5970   29.5050   50.1110 H   0  0  0  0  0  0  0  0  0  0  0  0
   50.8790   30.8120   50.1010 H   0  0  0  0  0  0  0  0  0  0  0  0
   44.8980   34.2240   46.1620 O   0  0  0  0  0  0  0  0  0  0  0  0
   45.2100   36.5960   43.4900 C   0  0  0  0  0  0  0  0  0  0  0  0
   45.1180   35.8100   42.3170 C   0  0  0  0  0  0  0  0  0  0  0  0
   44.9440   34.4230   42.5090 C   0  0  0  0  0  0  0  0  0  0  0  0
   44.8750   33.9370   43.7650 N   0  0  0  0  0  0  0  0  0  0  0  0
   44.9680   34.7230   44.8490 C   0  0  0  0  0  0  0  0  0  0  0  0
   45.1340   36.0450   44.7080 N   0  0  0  0  0  0  0  0  0  0  0  0
   45.1730   36.2130   41.3200 H   0  0  0  0  0  0  0  0  0  0  0  0
   44.8640   33.7610   41.6660 H   0  0  0  0  0  0  0  0  0  0  0  0
   45.3810   37.9400   43.3470 O   0  0  0  0  0  0  0  0  0  0  0  0
   45.1680   37.9930   46.1890 H   0  0  0  0  0  0  0  0  0  0  0  0
   45.0760   38.8830   45.6570 N   0  0  0  0  0  0  0  0  0  0  0  0
   45.1740   38.8810   44.3150 C   0  0  0  0  0  0  0  0  0  0  0  0
   45.0150   40.1630   43.9160 N   0  0  0  0  0  0  0  0  0  0  0  0
   44.8250   40.9140   45.0230 C   0  0  0  0  0  0  0  0  0  0  0  0
   44.6110   42.2720   45.2440 C   0  0  0  0  0  0  0  0  0  0  0  0
   44.4460   42.7890   46.4740 N   0  0  0  0  0  0  0  0  0  0  0  0
   44.4900   41.9590   47.5500 C   0  0  0  0  0  0  0  0  0  0  0  0
   44.3710   42.2570   48.5850 H   0  0  0  0  0  0  0  0  0  0  0  0
   44.6980   40.6230   47.3730 N   0  0  0  0  0  0  0  0  0  0  0  0
   44.8600   40.1170   46.1470 C   0  0  0  0  0  0  0  0  0  0  0  0
   44.5620   43.1630   44.1240 N   0  0  0  0  0  0  0  0  0  0  0  0
   45.1760   43.6060   43.4080 H   0  0  0  0  0  0  0  0  0  0  0  0
   43.5510   43.4450   44.0160 H   0  0  0  0  0  0  0  0  0  0  0  0
  2  1  2  1  0  0  0
  2  5  1  0  0  0  0
  3  2  1  0  0  0  0
  4  3  1  0  0  0  0
  5  7  1  0  0  0  0
  6 11  1  6  0  0  0
  6  7  1  0  0  0  0
  6 17  1  0  0  0  0
  7 12  1  1  0  0  0
  8 13  1  0  0  0  0
  8  7  1  0  0  0  0
  9  8  1  0  0  0  0
  9 10  1  0  0  0  0
 10  6  1  0  0  0  0
 10 15  1  0  0  0  0
 14  8  1  0  0  0  0
 16 10  1  0  0  0  0
 17 18  1  0  0  0  0
 18 21  1  0  0  0  0
 19 18  1  0  0  0  0
 20 18  1  0  0  0  0
 21 22  1  0  0  0  0
 23 21  1  0  0  0  0
 24 21  1  0  0  0  0
 25  2  1  0  0  0  0
 26 31  1  0  0  0  0
 27 28  1  0  0  0  0
 27 26  2  0  0  0  0
 28 29  2  0  0  0  0
 29 30  1  0  0  0  0
 30 25  1  0  0  0  0
 31 30  2  0  0  0  0
 32 27  1  0  0  0  0
 33 28  1  0  0  0  0
 34 26  1  0  0  0  0
 34 37  1  0  0  0  0
 36 45  1  0  0  0  0
 36 35  1  0  0  0  0
 37 36  1  0  0  0  0
 38 37  2  0  0  0  0
 38 39  1  0  0  0  0
 39 40  2  0  0  0  0
 39 45  1  0  0  0  0
 40 41  1  0  0  0  0
 41 42  2  0  0  0  0
 42 43  1  0  0  0  0
 44 42  1  0  0  0  0
 45 44  2  0  0  0  0
 46 40  1  0  0  0  0
 47 46  1  0  0  0  0
 48 46  1  0  0  0  0
M  END
>  <minimizedAffinity>
-4.22399902

>  <minimizedRMSD>
0.444370031

$$$$
