
 OpenBabel03252502563D

 42 45  0  0  0  0  0  0  0  0999 V2000
   45.6150   29.9780   44.7170 Br  0  0  0  0  0  0  0  0  0  0  0  0
   45.6680   30.5890   46.5550 C   0  0  0  0  0  0  0  0  0  0  0  0
   46.3480   31.7460   46.7630 C   0  0  0  0  0  0  0  0  0  0  0  0
   46.3700   32.1640   48.1000 C   0  0  0  0  0  0  0  0  0  0  0  0
   45.7610   31.4720   49.1180 C   0  0  0  0  0  0  0  0  0  0  0  0
   45.0950   30.3110   48.8210 C   0  0  0  0  0  0  0  0  0  0  0  0
   45.0380   29.8480   47.5220 C   0  0  0  0  0  0  0  0  0  0  0  0
   46.8800   33.0680   48.3810 H   0  0  0  0  0  0  0  0  0  0  0  0
   45.8030   31.8300   50.1360 H   0  0  0  0  0  0  0  0  0  0  0  0
   44.5980   29.7240   49.5770 H   0  0  0  0  0  0  0  0  0  0  0  0
   47.0380   32.5770   45.7720 C   0  0  0  0  0  0  0  0  0  0  0  0
   47.9930   32.9220   46.1820 H   0  0  0  0  0  0  0  0  0  0  0  0
   47.3120   31.8890   44.9240 H   0  0  0  0  0  0  0  0  0  0  0  0
   44.5410   35.3150   45.3950 C   0  0  0  0  0  0  0  0  0  0  0  0
   44.7510   35.7220   44.0790 C   0  0  0  0  0  0  0  0  0  0  0  0
   45.7380   35.0580   43.3400 C   0  0  0  0  0  0  0  0  0  0  0  0
   46.4330   34.0680   43.9290 N   0  0  0  0  0  0  0  0  0  0  0  0
   46.2170   33.6790   45.2190 C   0  0  0  0  0  0  0  0  0  0  0  0
   45.2600   34.3300   45.9200 N   0  0  0  0  0  0  0  0  0  0  0  0
   43.7730   35.8370   45.9570 H   0  0  0  0  0  0  0  0  0  0  0  0
   44.1930   36.5190   43.6030 H   0  0  0  0  0  0  0  0  0  0  0  0
   45.9770   35.2920   42.3260 H   0  0  0  0  0  0  0  0  0  0  0  0
   44.3590   28.6680   47.2340 O   0  0  0  0  0  0  0  0  0  0  0  0
   44.2130   26.1120   46.8020 O   0  0  0  0  0  0  0  0  0  0  0  0
   44.8990   27.1330   47.6880 P   0  0  2  0  0  0  0  0  0  0  0  0
   44.4780   26.9000   49.2990 O   0  0  0  0  0  0  0  0  0  0  0  0
   45.2170   27.2000   49.8720 H   0  0  0  0  0  0  0  0  0  0  0  0
   46.5700   26.9750   47.4650 O   0  0  0  0  0  0  0  0  0  0  0  0
   49.2160   27.2870   48.4500 H   0  0  0  0  0  0  0  0  0  0  0  0
   48.6660   26.4280   48.6670 N   0  0  0  0  0  0  0  0  0  0  0  0
   47.4090   26.2170   48.2310 C   0  0  0  0  0  0  0  0  0  0  0  0
   47.0040   25.0160   48.6920 N   0  0  0  0  0  0  0  0  0  0  0  0
   48.0370   24.5120   49.4090 C   0  0  0  0  0  0  0  0  0  0  0  0
   48.0900   23.2860   50.0820 C   0  0  0  0  0  0  0  0  0  0  0  0
   49.2360   23.0030   50.7300 N   0  0  0  0  0  0  0  0  0  0  0  0
   50.2650   23.8820   50.7120 C   0  0  0  0  0  0  0  0  0  0  0  0
   51.1220   23.5340   51.2700 H   0  0  0  0  0  0  0  0  0  0  0  0
   50.2150   25.0720   50.0600 N   0  0  0  0  0  0  0  0  0  0  0  0
   49.1000   25.3910   49.4050 C   0  0  0  0  0  0  0  0  0  0  0  0
   46.9590   22.4100   50.0550 N   0  0  0  0  0  0  0  0  0  0  0  0
   46.8570   21.4800   49.5760 H   0  0  0  0  0  0  0  0  0  0  0  0
   46.0780   22.6700   50.5600 H   0  0  0  0  0  0  0  0  0  0  0  0
  1  2  1  0  0  0  0
  2  3  2  0  0  0  0
  2  7  1  0  0  0  0
  3  4  1  0  0  0  0
  4  8  1  0  0  0  0
  4  5  2  0  0  0  0
  5  9  1  0  0  0  0
  6  5  1  0  0  0  0
  6 10  1  0  0  0  0
  7  6  2  0  0  0  0
 11 12  1  0  0  0  0
 11  3  1  0  0  0  0
 13 11  1  0  0  0  0
 14 19  1  0  0  0  0
 14 20  1  0  0  0  0
 15 14  2  0  0  0  0
 16 17  2  0  0  0  0
 16 15  1  0  0  0  0
 17 18  1  0  0  0  0
 18 11  1  0  0  0  0
 18 19  2  0  0  0  0
 21 15  1  0  0  0  0
 22 16  1  0  0  0  0
 23  7  1  0  0  0  0
 23 25  1  0  0  0  0
 25 24  2  6  0  0  0
 25 26  1  0  0  0  0
 26 27  1  0  0  0  0
 28 25  1  0  0  0  0
 28 31  1  0  0  0  0
 29 30  1  0  0  0  0
 30 39  1  0  0  0  0
 31 30  1  0  0  0  0
 31 32  2  0  0  0  0
 32 33  1  0  0  0  0
 33 34  1  0  0  0  0
 34 35  2  0  0  0  0
 36 35  1  0  0  0  0
 36 37  1  0  0  0  0
 38 36  2  0  0  0  0
 39 33  2  0  0  0  0
 39 38  1  0  0  0  0
 40 34  1  0  0  0  0
 40 42  1  0  0  0  0
 41 40  1  0  0  0  0
M  END
>  <minimizedAffinity>
-6.17351007

>  <minimizedRMSD>
1.09090114

$$$$
