
 OpenBabel03252500253D

 42 45  0  0  1  0  0  0  0  0999 V2000
   47.6310   30.1160   48.0920 C   0  0  2  0  0  0  0  0  0  0  0  0
   46.1770   29.9700   47.8580 C   0  0  2  0  0  0  0  0  0  0  0  0
   46.1060   29.1110   46.6510 C   0  0  0  0  0  0  0  0  0  0  0  0
   47.2250   28.2950   46.6510 O   0  0  0  0  0  0  0  0  0  0  0  0
   48.0780   28.7180   47.6180 C   0  0  0  0  0  0  0  0  0  0  0  0
   48.2830   30.7530   47.5790 H   0  0  0  0  0  0  0  0  0  0  0  0
   45.7670   29.5200   48.8020 H   0  0  0  0  0  0  0  0  0  0  0  0
   45.2650   28.3830   46.8730 H   0  0  0  0  0  0  0  0  0  0  0  0
   45.8160   29.5660   45.7250 H   0  0  0  0  0  0  0  0  0  0  0  0
   47.9450   28.0450   48.5070 H   0  0  0  0  0  0  0  0  0  0  0  0
   49.1280   28.6790   47.3350 H   0  0  0  0  0  0  0  0  0  0  0  0
   45.5050   31.1590   47.6950 O   0  0  0  0  0  0  0  0  0  0  0  0
   47.4480   32.8480   47.6090 O   0  0  0  0  0  0  0  0  0  0  0  0
   46.4000   32.1950   46.7490 P   0  0  1  0  0  0  0  0  0  0  0  0
   47.1720   31.3040   45.5340 O   0  0  0  0  0  0  0  0  0  0  0  0
   46.7450   31.4010   44.6640 H   0  0  0  0  0  0  0  0  0  0  0  0
   45.4400   33.4360   46.0640 O   0  0  0  0  0  0  0  0  0  0  0  0
   45.2230   35.7030   43.3250 C   0  0  0  0  0  0  0  0  0  0  0  0
   46.3540   35.3950   42.5210 C   0  0  0  0  0  0  0  0  0  0  0  0
   47.1850   34.3640   42.9850 C   0  0  0  0  0  0  0  0  0  0  0  0
   46.8670   33.7430   44.1400 N   0  0  0  0  0  0  0  0  0  0  0  0
   45.7760   34.0730   44.8710 C   0  0  0  0  0  0  0  0  0  0  0  0
   44.9710   35.0470   44.4540 N   0  0  0  0  0  0  0  0  0  0  0  0
   46.6000   35.8890   41.6110 H   0  0  0  0  0  0  0  0  0  0  0  0
   48.0630   34.0620   42.4440 H   0  0  0  0  0  0  0  0  0  0  0  0
   44.3990   36.7180   42.8760 O   0  0  0  0  0  0  0  0  0  0  0  0
   44.7860   37.6480   42.7700 H   0  0  0  0  0  0  0  0  0  0  0  0
   47.9370   30.3320   49.4270 O   0  0  0  0  0  0  0  0  0  0  0  0
   49.2530   29.1640   51.5370 H   0  0  0  0  0  0  0  0  0  0  0  0
   49.5940   30.0200   51.0430 N   0  0  0  0  0  0  0  0  0  0  0  0
   49.0990   30.7370   50.0010 C   0  0  0  0  0  0  0  0  0  0  0  0
   49.9500   31.7590   49.7710 N   0  0  0  0  0  0  0  0  0  0  0  0
   50.9720   31.7310   50.6190 C   0  0  0  0  0  0  0  0  0  0  0  0
   52.0710   32.5510   50.7670 C   0  0  0  0  0  0  0  0  0  0  0  0
   52.9600   32.2560   51.7490 N   0  0  0  0  0  0  0  0  0  0  0  0
   52.7470   31.1750   52.5470 C   0  0  0  0  0  0  0  0  0  0  0  0
   53.4790   30.9730   53.3180 H   0  0  0  0  0  0  0  0  0  0  0  0
   51.6690   30.3890   52.3820 N   0  0  0  0  0  0  0  0  0  0  0  0
   50.7450   30.6310   51.4220 C   0  0  0  0  0  0  0  0  0  0  0  0
   52.2460   33.6720   49.9020 N   0  0  0  0  0  0  0  0  0  0  0  0
   52.6120   33.8080   48.9140 H   0  0  0  0  0  0  0  0  0  0  0  0
   51.9450   34.5980   50.3250 H   0  0  0  0  0  0  0  0  0  0  0  0
  1  6  1  6  0  0  0
  1 28  1  0  0  0  0
  2  1  1  0  0  0  0
  2  7  1  1  0  0  0
  3  8  1  0  0  0  0
  3  2  1  0  0  0  0
  4  3  1  0  0  0  0
  4  5  1  0  0  0  0
  5  1  1  0  0  0  0
  5 10  1  0  0  0  0
  9  3  1  0  0  0  0
 11  5  1  0  0  0  0
 12  2  1  0  0  0  0
 14 13  2  1  0  0  0
 14 12  1  0  0  0  0
 15 14  1  0  0  0  0
 16 15  1  0  0  0  0
 17 14  1  0  0  0  0
 18 23  1  0  0  0  0
 19 20  1  0  0  0  0
 19 18  2  0  0  0  0
 20 21  2  0  0  0  0
 21 22  1  0  0  0  0
 22 17  1  0  0  0  0
 23 22  2  0  0  0  0
 24 19  1  0  0  0  0
 25 20  1  0  0  0  0
 26 18  1  0  0  0  0
 27 26  1  0  0  0  0
 28 31  1  0  0  0  0
 30 39  1  0  0  0  0
 30 29  1  0  0  0  0
 31 30  1  0  0  0  0
 32 31  2  0  0  0  0
 32 33  1  0  0  0  0
 33 34  2  0  0  0  0
 33 39  1  0  0  0  0
 34 35  1  0  0  0  0
 35 36  2  0  0  0  0
 36 37  1  0  0  0  0
 38 36  1  0  0  0  0
 39 38  2  0  0  0  0
 40 42  1  0  0  0  0
 40 34  1  0  0  0  0
 41 40  1  0  0  0  0
M  END
>  <minimizedAffinity>
-6.15477753

>  <minimizedRMSD>
0.988664627

$$$$
