
 OpenBabel03252506383D

 49 53  0  0  1  0  0  0  0  0999 V2000
   45.4070   30.6610   43.5080 O   0  0  0  0  0  0  0  0  0  0  0  0
   44.8820   30.0310   44.4410 C   0  0  0  0  0  0  0  0  0  0  0  0
   45.1230   29.6980   45.8680 C   0  0  1  0  0  0  0  0  0  0  0  0
   44.6320   28.2730   45.9400 C   0  0  0  0  0  0  0  0  0  0  0  0
   43.2540   28.4970   45.3180 C   0  0  0  0  0  0  0  0  0  0  0  0
   43.6310   29.3540   44.2030 N   0  0  0  0  0  0  0  0  0  0  0  0
   44.2580   30.2440   46.3360 H   0  0  0  0  0  0  0  0  0  0  0  0
   45.2820   27.6710   45.2830 H   0  0  0  0  0  0  0  0  0  0  0  0
   44.5740   27.8700   46.9620 H   0  0  0  0  0  0  0  0  0  0  0  0
   42.6560   29.0820   46.0170 H   0  0  0  0  0  0  0  0  0  0  0  0
   42.7980   27.5490   44.9880 H   0  0  0  0  0  0  0  0  0  0  0  0
   44.2720   28.7130   41.6050 H   0  0  0  0  0  0  0  0  0  0  0  0
   43.3090   29.0660   41.8460 N   0  0  0  0  0  0  0  0  0  0  0  0
   42.7730   29.4400   43.0420 C   0  0  0  0  0  0  0  0  0  0  0  0
   41.5000   29.8250   42.8700 N   0  0  0  0  0  0  0  0  0  0  0  0
   41.2220   29.6940   41.5400 C   0  0  0  0  0  0  0  0  0  0  0  0
   40.1290   29.9200   40.7580 C   0  0  0  0  0  0  0  0  0  0  0  0
   40.1750   29.6860   39.4440 N   0  0  0  0  0  0  0  0  0  0  0  0
   41.2820   29.2220   38.8160 C   0  0  0  0  0  0  0  0  0  0  0  0
   41.3620   29.0190   37.7560 H   0  0  0  0  0  0  0  0  0  0  0  0
   42.3820   28.9860   39.5540 N   0  0  0  0  0  0  0  0  0  0  0  0
   42.3580   29.2140   40.8790 C   0  0  0  0  0  0  0  0  0  0  0  0
   38.9510   30.4080   41.3830 N   0  0  0  0  0  0  0  0  0  0  0  0
   38.6680   30.0130   42.3110 H   0  0  0  0  0  0  0  0  0  0  0  0
   38.2240   31.1290   41.1290 H   0  0  0  0  0  0  0  0  0  0  0  0
   46.7240   29.9840   46.4960 S   0  0  0  0  0  0  0  0  0  0  0  0
   44.5360   35.4680   45.1830 C   0  0  0  0  0  0  0  0  0  0  0  0
   45.1940   35.4900   43.9350 C   0  0  0  0  0  0  0  0  0  0  0  0
   46.1260   34.5450   43.6570 C   0  0  0  0  0  0  0  0  0  0  0  0
   46.3650   33.6220   44.6200 N   0  0  0  0  0  0  0  0  0  0  0  0
   45.7440   33.6030   45.7910 C   0  0  0  0  0  0  0  0  0  0  0  0
   44.8240   34.5200   46.0890 N   0  0  0  0  0  0  0  0  0  0  0  0
   46.0870   32.5730   46.7350 N   0  0  0  0  0  0  0  0  0  0  0  0
   45.3540   32.2910   47.9150 C   0  0  0  0  0  0  0  0  0  0  0  0
   46.4380   31.9430   48.9200 C   0  0  0  0  0  0  0  0  0  0  0  0
   47.7170   31.8660   48.1460 C   0  0  0  0  0  0  0  0  0  0  0  0
   47.2170   31.6770   46.7140 C   0  0  1  0  0  0  0  0  0  0  0  0
   43.7990   36.2290   45.3800 H   0  0  0  0  0  0  0  0  0  0  0  0
   46.6300   34.5480   42.7240 H   0  0  0  0  0  0  0  0  0  0  0  0
   44.5750   31.6090   48.0100 H   0  0  0  0  0  0  0  0  0  0  0  0
   44.9550   33.2850   48.2900 H   0  0  0  0  0  0  0  0  0  0  0  0
   46.5180   32.6430   49.7580 H   0  0  0  0  0  0  0  0  0  0  0  0
   46.2270   30.9400   49.3900 H   0  0  0  0  0  0  0  0  0  0  0  0
   48.2970   31.0020   48.4880 H   0  0  0  0  0  0  0  0  0  0  0  0
   48.2560   32.8340   48.2630 H   0  0  0  0  0  0  0  0  0  0  0  0
   48.0330   32.0110   46.0450 H   0  0  0  0  0  0  0  0  0  0  0  0
   44.8240   36.5400   43.0220 N   0  0  0  0  0  0  0  0  0  0  0  0
   45.5630   36.8100   42.3110 H   0  0  0  0  0  0  0  0  0  0  0  0
   43.8960   36.9710   43.0910 H   0  0  0  0  0  0  0  0  0  0  0  0
  1  2  2  0  0  0  0
  2  3  1  0  0  0  0
  3  4  1  0  0  0  0
  3  7  1  1  0  0  0
  3 26  1  0  0  0  0
  4  9  1  0  0  0  0
  5  4  1  0  0  0  0
  5 10  1  0  0  0  0
  6  2  1  0  0  0  0
  6  5  1  0  0  0  0
  8  4  1  0  0  0  0
 11  5  1  0  0  0  0
 12 13  1  0  0  0  0
 13 14  1  0  0  0  0
 14  6  1  0  0  0  0
 15 14  2  0  0  0  0
 16 15  1  0  0  0  0
 17 23  1  0  0  0  0
 17 16  2  0  0  0  0
 18 17  1  0  0  0  0
 19 18  2  0  0  0  0
 19 21  1  0  0  0  0
 20 19  1  0  0  0  0
 21 22  2  0  0  0  0
 22 16  1  0  0  0  0
 22 13  1  0  0  0  0
 23 24  1  0  0  0  0
 25 23  1  0  0  0  0
 26 37  1  0  0  0  0
 27 38  1  0  0  0  0
 27 32  1  0  0  0  0
 28 27  2  0  0  0  0
 29 28  1  0  0  0  0
 29 30  2  0  0  0  0
 30 31  1  0  0  0  0
 31 32  2  0  0  0  0
 31 33  1  0  0  0  0
 33 34  1  0  0  0  0
 34 40  1  0  0  0  0
 34 41  1  0  0  0  0
 34 35  1  0  0  0  0
 35 43  1  0  0  0  0
 35 42  1  0  0  0  0
 36 45  1  0  0  0  0
 36 44  1  0  0  0  0
 36 35  1  0  0  0  0
 37 46  1  6  0  0  0
 37 33  1  0  0  0  0
 37 36  1  0  0  0  0
 39 29  1  0  0  0  0
 47 49  1  0  0  0  0
 47 28  1  0  0  0  0
 48 47  1  0  0  0  0
M  END
>  <minimizedAffinity>
-5.90266275

>  <minimizedRMSD>
0.384323806

$$$$
