
 OpenBabel03252500253D

 42 45  0  0  1  0  0  0  0  0999 V2000
   47.9260   29.7560   47.7170 C   0  0  2  0  0  0  0  0  0  0  0  0
   46.4570   29.6920   47.5440 C   0  0  2  0  0  0  0  0  0  0  0  0
   46.2940   29.1230   46.1830 C   0  0  0  0  0  0  0  0  0  0  0  0
   47.3870   28.3080   45.9370 O   0  0  0  0  0  0  0  0  0  0  0  0
   48.3040   28.4900   46.9210 C   0  0  0  0  0  0  0  0  0  0  0  0
   48.5690   30.4790   47.3190 H   0  0  0  0  0  0  0  0  0  0  0  0
   46.0850   29.0520   48.3880 H   0  0  0  0  0  0  0  0  0  0  0  0
   45.4450   28.3790   46.2890 H   0  0  0  0  0  0  0  0  0  0  0  0
   45.9700   29.7780   45.3990 H   0  0  0  0  0  0  0  0  0  0  0  0
   48.1980   27.6390   47.6460 H   0  0  0  0  0  0  0  0  0  0  0  0
   49.3340   28.4960   46.5740 H   0  0  0  0  0  0  0  0  0  0  0  0
   45.8150   30.9000   47.6870 O   0  0  0  0  0  0  0  0  0  0  0  0
   47.5600   32.7940   47.7410 O   0  0  0  0  0  0  0  0  0  0  0  0
   46.6110   32.0760   46.8190 P   0  0  1  0  0  0  0  0  0  0  0  0
   47.5050   31.3400   45.5840 O   0  0  0  0  0  0  0  0  0  0  0  0
   47.0890   31.4350   44.7080 H   0  0  0  0  0  0  0  0  0  0  0  0
   45.5350   33.2390   46.1700 O   0  0  0  0  0  0  0  0  0  0  0  0
   45.0400   35.4660   43.4350 C   0  0  0  0  0  0  0  0  0  0  0  0
   46.2010   35.3030   42.6310 C   0  0  0  0  0  0  0  0  0  0  0  0
   47.1540   34.3820   43.0940 C   0  0  0  0  0  0  0  0  0  0  0  0
   46.9140   33.7240   44.2470 N   0  0  0  0  0  0  0  0  0  0  0  0
   45.7910   33.9140   44.9780 C   0  0  0  0  0  0  0  0  0  0  0  0
   44.8710   34.7820   44.5620 N   0  0  0  0  0  0  0  0  0  0  0  0
   46.3850   35.8250   41.7220 H   0  0  0  0  0  0  0  0  0  0  0  0
   48.0620   34.1920   42.5530 H   0  0  0  0  0  0  0  0  0  0  0  0
   44.0980   36.3720   42.9870 O   0  0  0  0  0  0  0  0  0  0  0  0
   44.3660   37.3440   42.8830 H   0  0  0  0  0  0  0  0  0  0  0  0
   48.3100   29.6660   49.0460 O   0  0  0  0  0  0  0  0  0  0  0  0
   49.3940   32.0910   48.3440 H   0  0  0  0  0  0  0  0  0  0  0  0
   49.6350   31.5810   49.2240 N   0  0  0  0  0  0  0  0  0  0  0  0
   49.2190   30.3960   49.7420 C   0  0  0  0  0  0  0  0  0  0  0  0
   49.8600   30.2200   50.9170 N   0  0  0  0  0  0  0  0  0  0  0  0
   50.6710   31.2390   51.1760 C   0  0  0  0  0  0  0  0  0  0  0  0
   51.5140   31.4990   52.2370 C   0  0  0  0  0  0  0  0  0  0  0  0
   52.2300   32.6530   52.2140 N   0  0  0  0  0  0  0  0  0  0  0  0
   52.0980   33.5070   51.1650 C   0  0  0  0  0  0  0  0  0  0  0  0
   52.6840   34.4150   51.1850 H   0  0  0  0  0  0  0  0  0  0  0  0
   51.2680   33.2310   50.1420 N   0  0  0  0  0  0  0  0  0  0  0  0
   50.5270   32.0980   50.1060 C   0  0  0  0  0  0  0  0  0  0  0  0
   51.6160   30.5670   53.3120 N   0  0  0  0  0  0  0  0  0  0  0  0
   51.0340   30.3510   54.1750 H   0  0  0  0  0  0  0  0  0  0  0  0
   52.4640   29.9320   53.2590 H   0  0  0  0  0  0  0  0  0  0  0  0
  1  6  1  6  0  0  0
  1 28  1  0  0  0  0
  2 12  1  0  0  0  0
  2  1  1  0  0  0  0
  2  7  1  1  0  0  0
  3  8  1  0  0  0  0
  3  2  1  0  0  0  0
  4  3  1  0  0  0  0
  4  5  1  0  0  0  0
  5 10  1  0  0  0  0
  5  1  1  0  0  0  0
  9  3  1  0  0  0  0
 11  5  1  0  0  0  0
 14 12  1  0  0  0  0
 14 13  2  1  0  0  0
 15 14  1  0  0  0  0
 16 15  1  0  0  0  0
 17 14  1  0  0  0  0
 18 23  1  0  0  0  0
 19 20  1  0  0  0  0
 19 18  2  0  0  0  0
 20 21  2  0  0  0  0
 21 22  1  0  0  0  0
 22 17  1  0  0  0  0
 23 22  2  0  0  0  0
 24 19  1  0  0  0  0
 25 20  1  0  0  0  0
 26 18  1  0  0  0  0
 27 26  1  0  0  0  0
 28 31  1  0  0  0  0
 29 30  1  0  0  0  0
 30 31  1  0  0  0  0
 30 39  1  0  0  0  0
 31 32  2  0  0  0  0
 32 33  1  0  0  0  0
 33 34  1  0  0  0  0
 34 40  1  0  0  0  0
 35 34  2  0  0  0  0
 36 37  1  0  0  0  0
 36 35  1  0  0  0  0
 38 36  2  0  0  0  0
 39 38  1  0  0  0  0
 39 33  2  0  0  0  0
 40 41  1  0  0  0  0
 42 40  1  0  0  0  0
M  END
>  <minimizedAffinity>
-6.05113316

>  <minimizedRMSD>
1.20030487

$$$$
