
 OpenBabel03252506383D

 49 53  0  0  1  0  0  0  0  0999 V2000
   45.2640   30.6210   43.5720 O   0  0  0  0  0  0  0  0  0  0  0  0
   44.7890   29.9950   44.5350 C   0  0  0  0  0  0  0  0  0  0  0  0
   45.1070   29.6710   45.9480 C   0  0  1  0  0  0  0  0  0  0  0  0
   44.6220   28.2460   46.0550 C   0  0  0  0  0  0  0  0  0  0  0  0
   43.2120   28.4650   45.5070 C   0  0  0  0  0  0  0  0  0  0  0  0
   43.5280   29.3170   44.3670 N   0  0  0  0  0  0  0  0  0  0  0  0
   44.2680   30.2200   46.4590 H   0  0  0  0  0  0  0  0  0  0  0  0
   45.2360   27.6400   45.3680 H   0  0  0  0  0  0  0  0  0  0  0  0
   44.6190   27.8490   47.0810 H   0  0  0  0  0  0  0  0  0  0  0  0
   42.6520   29.0540   46.2330 H   0  0  0  0  0  0  0  0  0  0  0  0
   42.7400   27.5160   45.2060 H   0  0  0  0  0  0  0  0  0  0  0  0
   42.2470   27.2290   43.1130 H   0  0  0  0  0  0  0  0  0  0  0  0
   42.0930   28.2210   42.7920 N   0  0  0  0  0  0  0  0  0  0  0  0
   42.6100   29.3950   43.2530 C   0  0  0  0  0  0  0  0  0  0  0  0
   42.1260   30.4180   42.5340 N   0  0  0  0  0  0  0  0  0  0  0  0
   41.2880   29.8860   41.5990 C   0  0  0  0  0  0  0  0  0  0  0  0
   40.5140   30.3940   40.6000 C   0  0  0  0  0  0  0  0  0  0  0  0
   39.7810   29.5840   39.8310 N   0  0  0  0  0  0  0  0  0  0  0  0
   39.7590   28.2380   39.9870 C   0  0  0  0  0  0  0  0  0  0  0  0
   39.1820   27.5470   39.3880 H   0  0  0  0  0  0  0  0  0  0  0  0
   40.5110   27.6980   40.9630 N   0  0  0  0  0  0  0  0  0  0  0  0
   41.2560   28.4960   41.7500 C   0  0  0  0  0  0  0  0  0  0  0  0
   40.5110   31.8010   40.4060 N   0  0  0  0  0  0  0  0  0  0  0  0
   40.4940   32.4280   41.2440 H   0  0  0  0  0  0  0  0  0  0  0  0
   40.5240   32.4310   39.5590 H   0  0  0  0  0  0  0  0  0  0  0  0
   46.7390   29.9620   46.4890 S   0  0  0  0  0  0  0  0  0  0  0  0
   44.5390   35.4430   45.1880 C   0  0  0  0  0  0  0  0  0  0  0  0
   45.1970   35.4690   43.9390 C   0  0  0  0  0  0  0  0  0  0  0  0
   46.1300   34.5270   43.6600 C   0  0  0  0  0  0  0  0  0  0  0  0
   46.3710   33.6030   44.6200 N   0  0  0  0  0  0  0  0  0  0  0  0
   45.7510   33.5800   45.7920 C   0  0  0  0  0  0  0  0  0  0  0  0
   44.8300   34.4940   46.0920 N   0  0  0  0  0  0  0  0  0  0  0  0
   46.0960   32.5480   46.7330 N   0  0  0  0  0  0  0  0  0  0  0  0
   45.3640   32.2630   47.9120 C   0  0  0  0  0  0  0  0  0  0  0  0
   46.4490   31.9150   48.9170 C   0  0  0  0  0  0  0  0  0  0  0  0
   47.7280   31.8420   48.1420 C   0  0  0  0  0  0  0  0  0  0  0  0
   47.2290   31.6550   46.7110 C   0  0  1  0  0  0  0  0  0  0  0  0
   43.8000   36.2030   45.3870 H   0  0  0  0  0  0  0  0  0  0  0  0
   46.6350   34.5330   42.7260 H   0  0  0  0  0  0  0  0  0  0  0  0
   44.5860   31.5790   48.0060 H   0  0  0  0  0  0  0  0  0  0  0  0
   44.9630   33.2550   48.2900 H   0  0  0  0  0  0  0  0  0  0  0  0
   46.5280   32.6130   49.7560 H   0  0  0  0  0  0  0  0  0  0  0  0
   46.2400   30.9110   49.3850 H   0  0  0  0  0  0  0  0  0  0  0  0
   48.3100   30.9790   48.4830 H   0  0  0  0  0  0  0  0  0  0  0  0
   48.2650   32.8110   48.2620 H   0  0  0  0  0  0  0  0  0  0  0  0
   48.0430   31.9930   46.0410 H   0  0  0  0  0  0  0  0  0  0  0  0
   44.8250   36.5200   43.0290 N   0  0  0  0  0  0  0  0  0  0  0  0
   45.5630   36.7940   42.3180 H   0  0  0  0  0  0  0  0  0  0  0  0
   43.8950   36.9490   43.1000 H   0  0  0  0  0  0  0  0  0  0  0  0
  1  2  2  0  0  0  0
  2  3  1  0  0  0  0
  3  4  1  0  0  0  0
  3  7  1  1  0  0  0
  3 26  1  0  0  0  0
  4  9  1  0  0  0  0
  5  4  1  0  0  0  0
  5 10  1  0  0  0  0
  6  2  1  0  0  0  0
  6  5  1  0  0  0  0
  8  4  1  0  0  0  0
 11  5  1  0  0  0  0
 13 12  1  0  0  0  0
 13 14  1  0  0  0  0
 14  6  1  0  0  0  0
 15 14  2  0  0  0  0
 16 22  1  0  0  0  0
 16 15  1  0  0  0  0
 17 16  2  0  0  0  0
 18 19  2  0  0  0  0
 18 17  1  0  0  0  0
 19 21  1  0  0  0  0
 20 19  1  0  0  0  0
 21 22  2  0  0  0  0
 22 13  1  0  0  0  0
 23 17  1  0  0  0  0
 23 24  1  0  0  0  0
 25 23  1  0  0  0  0
 26 37  1  0  0  0  0
 27 38  1  0  0  0  0
 27 32  1  0  0  0  0
 28 27  2  0  0  0  0
 29 28  1  0  0  0  0
 29 30  2  0  0  0  0
 30 31  1  0  0  0  0
 31 32  2  0  0  0  0
 31 33  1  0  0  0  0
 33 34  1  0  0  0  0
 34 40  1  0  0  0  0
 34 41  1  0  0  0  0
 34 35  1  0  0  0  0
 35 43  1  0  0  0  0
 35 42  1  0  0  0  0
 36 45  1  0  0  0  0
 36 44  1  0  0  0  0
 36 35  1  0  0  0  0
 37 46  1  6  0  0  0
 37 33  1  0  0  0  0
 37 36  1  0  0  0  0
 39 29  1  0  0  0  0
 47 49  1  0  0  0  0
 47 28  1  0  0  0  0
 48 47  1  0  0  0  0
M  END
>  <minimizedAffinity>
-5.99282646

>  <minimizedRMSD>
0.582882762

$$$$
