
 OpenBabel03252500253D

 42 45  0  0  1  0  0  0  0  0999 V2000
   46.9760   30.1300   48.1080 C   0  0  2  0  0  0  0  0  0  0  0  0
   45.5280   30.4100   48.2290 C   0  0  2  0  0  0  0  0  0  0  0  0
   44.9200   29.5480   47.1860 C   0  0  0  0  0  0  0  0  0  0  0  0
   45.7350   28.4380   47.0350 O   0  0  0  0  0  0  0  0  0  0  0  0
   46.8870   28.6390   47.7240 C   0  0  0  0  0  0  0  0  0  0  0  0
   47.6260   30.5160   47.3850 H   0  0  0  0  0  0  0  0  0  0  0  0
   45.2620   30.1550   49.2900 H   0  0  0  0  0  0  0  0  0  0  0  0
   43.9960   29.1150   47.6820 H   0  0  0  0  0  0  0  0  0  0  0  0
   44.5430   30.0180   46.3000 H   0  0  0  0  0  0  0  0  0  0  0  0
   46.8020   28.0850   48.6970 H   0  0  0  0  0  0  0  0  0  0  0  0
   47.7780   28.2750   47.2170 H   0  0  0  0  0  0  0  0  0  0  0  0
   45.1900   31.7350   48.0750 O   0  0  0  0  0  0  0  0  0  0  0  0
   47.3920   32.8810   47.3860 O   0  0  0  0  0  0  0  0  0  0  0  0
   46.0730   32.4080   46.8360 P   0  0  1  0  0  0  0  0  0  0  0  0
   46.3670   31.2250   45.6610 O   0  0  0  0  0  0  0  0  0  0  0  0
   45.8010   31.3230   44.8750 H   0  0  0  0  0  0  0  0  0  0  0  0
   45.2840   33.7600   46.1410 O   0  0  0  0  0  0  0  0  0  0  0  0
   45.2310   35.8830   43.2810 C   0  0  0  0  0  0  0  0  0  0  0  0
   46.2810   35.3920   42.4570 C   0  0  0  0  0  0  0  0  0  0  0  0
   46.9980   34.2920   42.9520 C   0  0  0  0  0  0  0  0  0  0  0  0
   46.6550   33.7800   44.1520 N   0  0  0  0  0  0  0  0  0  0  0  0
   45.6460   34.2830   44.9000 C   0  0  0  0  0  0  0  0  0  0  0  0
   44.9490   35.3260   44.4550 N   0  0  0  0  0  0  0  0  0  0  0  0
   46.5470   35.8010   41.5100 H   0  0  0  0  0  0  0  0  0  0  0  0
   47.8080   33.8540   42.3980 H   0  0  0  0  0  0  0  0  0  0  0  0
   44.5210   36.9660   42.8020 O   0  0  0  0  0  0  0  0  0  0  0  0
   45.0140   37.8340   42.6270 H   0  0  0  0  0  0  0  0  0  0  0  0
   47.6570   30.3180   49.3010 O   0  0  0  0  0  0  0  0  0  0  0  0
   49.7910   28.6100   49.5740 H   0  0  0  0  0  0  0  0  0  0  0  0
   49.8720   29.6510   49.6280 N   0  0  0  0  0  0  0  0  0  0  0  0
   48.9550   30.6480   49.5210 C   0  0  0  0  0  0  0  0  0  0  0  0
   49.6100   31.8190   49.6710 N   0  0  0  0  0  0  0  0  0  0  0  0
   50.9080   31.6170   49.8700 C   0  0  0  0  0  0  0  0  0  0  0  0
   51.9560   32.4920   50.0710 C   0  0  0  0  0  0  0  0  0  0  0  0
   53.1970   31.9700   50.2470 N   0  0  0  0  0  0  0  0  0  0  0  0
   53.3700   30.6220   50.2220 C   0  0  0  0  0  0  0  0  0  0  0  0
   54.3740   30.2450   50.3670 H   0  0  0  0  0  0  0  0  0  0  0  0
   52.3320   29.7890   50.0250 N   0  0  0  0  0  0  0  0  0  0  0  0
   51.0700   30.2480   49.8420 C   0  0  0  0  0  0  0  0  0  0  0  0
   51.7190   33.8990   50.0880 N   0  0  0  0  0  0  0  0  0  0  0  0
   51.5880   34.6470   49.3460 H   0  0  0  0  0  0  0  0  0  0  0  0
   51.6540   34.3160   51.0620 H   0  0  0  0  0  0  0  0  0  0  0  0
  1  6  1  6  0  0  0
  1  2  1  0  0  0  0
  1 28  1  0  0  0  0
  2  7  1  1  0  0  0
  3  8  1  0  0  0  0
  3  2  1  0  0  0  0
  4  3  1  0  0  0  0
  4  5  1  0  0  0  0
  5  1  1  0  0  0  0
  5 10  1  0  0  0  0
  9  3  1  0  0  0  0
 11  5  1  0  0  0  0
 12  2  1  0  0  0  0
 14 13  2  1  0  0  0
 14 12  1  0  0  0  0
 15 14  1  0  0  0  0
 16 15  1  0  0  0  0
 17 14  1  0  0  0  0
 18 23  1  0  0  0  0
 19 20  1  0  0  0  0
 19 18  2  0  0  0  0
 20 21  2  0  0  0  0
 21 22  1  0  0  0  0
 22 17  1  0  0  0  0
 23 22  2  0  0  0  0
 24 19  1  0  0  0  0
 25 20  1  0  0  0  0
 26 18  1  0  0  0  0
 27 26  1  0  0  0  0
 28 31  1  0  0  0  0
 29 30  1  0  0  0  0
 30 39  1  0  0  0  0
 31 30  1  0  0  0  0
 31 32  2  0  0  0  0
 32 33  1  0  0  0  0
 33 34  1  0  0  0  0
 34 40  1  0  0  0  0
 34 35  2  0  0  0  0
 36 35  1  0  0  0  0
 36 37  1  0  0  0  0
 38 36  2  0  0  0  0
 39 33  2  0  0  0  0
 39 38  1  0  0  0  0
 40 42  1  0  0  0  0
 41 40  1  0  0  0  0
M  END
>  <minimizedAffinity>
-5.85718298

>  <minimizedRMSD>
0.537904382

$$$$
