
 OpenBabel03252508073D

 49 53  0  0  0  0  0  0  0  0999 V2000
   45.1610   35.9750   43.0520 C   0  0  0  0  0  0  0  0  0  0  0  0
   45.4320   34.6160   43.0360 C   0  0  0  0  0  0  0  0  0  0  0  0
   45.2590   33.8660   44.1730 C   0  0  0  0  0  0  0  0  0  0  0  0
   44.8090   34.5330   45.2970 N   0  0  0  0  0  0  0  0  0  0  0  0
   44.5500   35.8360   45.3070 C   0  0  0  0  0  0  0  0  0  0  0  0
   44.7310   36.5470   44.1730 N   0  0  0  0  0  0  0  0  0  0  0  0
   45.2930   36.5950   42.1560 H   0  0  0  0  0  0  0  0  0  0  0  0
   44.1990   36.3410   46.1920 H   0  0  0  0  0  0  0  0  0  0  0  0
   45.4890   32.4780   44.3200 C   0  0  0  0  0  0  0  0  0  0  0  0
   45.0300   31.5090   43.4240 C   0  0  0  0  0  0  0  0  0  0  0  0
   45.1940   30.1590   43.5970 C   0  0  0  0  0  0  0  0  0  0  0  0
   45.8450   29.6930   44.7120 C   0  0  0  0  0  0  0  0  0  0  0  0
   46.3220   30.6600   45.6360 C   0  0  0  0  0  0  0  0  0  0  0  0
   46.9710   30.2080   46.7560 C   0  0  0  0  0  0  0  0  0  0  0  0
   47.4590   31.0920   47.6960 C   0  0  0  0  0  0  0  0  0  0  0  0
   47.2860   32.4720   47.4960 C   0  0  0  0  0  0  0  0  0  0  0  0
   46.6130   32.8900   46.3330 C   0  0  0  0  0  0  0  0  0  0  0  0
   46.1390   31.9880   45.4220 C   0  0  0  0  0  0  0  0  0  0  0  0
   44.5100   31.8350   42.5310 H   0  0  0  0  0  0  0  0  0  0  0  0
   44.8220   29.4420   42.8760 H   0  0  0  0  0  0  0  0  0  0  0  0
   46.0180   28.6460   44.9290 H   0  0  0  0  0  0  0  0  0  0  0  0
   47.1070   29.1440   46.9130 H   0  0  0  0  0  0  0  0  0  0  0  0
   47.9650   30.6760   48.5670 H   0  0  0  0  0  0  0  0  0  0  0  0
   47.6990   33.0870   48.2770 H   0  0  0  0  0  0  0  0  0  0  0  0
   46.6030   33.9590   46.3500 H   0  0  0  0  0  0  0  0  0  0  0  0
   45.8680   34.0790   41.8550 O   0  0  0  0  0  0  0  0  0  0  0  0
   47.8930   32.4580   41.4920 O   0  0  0  0  0  0  0  0  0  0  0  0
   47.4950   33.8900   41.4260 P   0  0  1  0  0  0  0  0  0  0  0  0
   47.7580   34.4060   39.8360 O   0  0  0  0  0  0  0  0  0  0  0  0
   49.8800   32.5760   39.7460 H   0  0  0  0  0  0  0  0  0  0  0  0
   49.3300   32.8010   38.8750 N   0  0  0  0  0  0  0  0  0  0  0  0
   48.3140   33.6560   38.8390 C   0  0  0  0  0  0  0  0  0  0  0  0
   47.8720   33.6720   37.5510 N   0  0  0  0  0  0  0  0  0  0  0  0
   48.6390   32.8200   36.8330 C   0  0  0  0  0  0  0  0  0  0  0  0
   48.6810   32.4150   35.5120 C   0  0  0  0  0  0  0  0  0  0  0  0
   49.5840   31.5350   35.1090 N   0  0  0  0  0  0  0  0  0  0  0  0
   50.4800   31.0090   35.9580 C   0  0  0  0  0  0  0  0  0  0  0  0
   51.2660   30.2740   35.7210 H   0  0  0  0  0  0  0  0  0  0  0  0
   50.4790   31.3680   37.2420 N   0  0  0  0  0  0  0  0  0  0  0  0
   49.5790   32.2530   37.6720 C   0  0  0  0  0  0  0  0  0  0  0  0
   47.7500   32.9520   34.5980 N   0  0  0  0  0  0  0  0  0  0  0  0
   46.9840   32.6310   33.9350 H   0  0  0  0  0  0  0  0  0  0  0  0
   47.7760   33.9920   34.4950 H   0  0  0  0  0  0  0  0  0  0  0  0
   48.4240   34.8300   42.4600 O   0  0  0  0  0  0  0  0  0  0  0  0
   49.6630   35.3860   42.1870 C   0  0  0  0  0  0  0  0  0  0  0  0
   49.4100   36.4380   41.5710 O   0  0  0  0  0  0  0  0  0  0  0  0
   50.7250   34.5580   42.7050 N   0  0  0  0  0  0  0  0  0  0  0  0
   51.4400   34.0500   42.1300 H   0  0  0  0  0  0  0  0  0  0  0  0
   50.8000   34.4440   43.7330 H   0  0  0  0  0  0  0  0  0  0  0  0
  1  6  1  0  0  0  0
  2  1  2  0  0  0  0
  2  3  1  0  0  0  0
  3  9  1  0  0  0  0
  3  4  2  0  0  0  0
  4  5  1  0  0  0  0
  5  8  1  0  0  0  0
  6  5  2  0  0  0  0
  7  1  1  0  0  0  0
  9 18  1  0  0  0  0
 10 11  1  0  0  0  0
 10  9  2  0  0  0  0
 11 12  2  0  0  0  0
 12 21  1  0  0  0  0
 12 13  1  0  0  0  0
 13 14  1  0  0  0  0
 14 22  1  0  0  0  0
 14 15  2  0  0  0  0
 15 23  1  0  0  0  0
 16 15  1  0  0  0  0
 16 24  1  0  0  0  0
 17 25  1  0  0  0  0
 17 16  2  0  0  0  0
 18 13  2  0  0  0  0
 18 17  1  0  0  0  0
 19 10  1  0  0  0  0
 20 11  1  0  0  0  0
 26  2  1  0  0  0  0
 28 27  2  1  0  0  0
 28 26  1  0  0  0  0
 28 44  1  0  0  0  0
 29 28  1  0  0  0  0
 31 30  1  0  0  0  0
 32 31  1  0  0  0  0
 32 29  1  0  0  0  0
 33 32  2  0  0  0  0
 34 33  1  0  0  0  0
 34 40  1  0  0  0  0
 35 34  2  0  0  0  0
 36 35  1  0  0  0  0
 36 37  2  0  0  0  0
 37 39  1  0  0  0  0
 38 37  1  0  0  0  0
 39 40  2  0  0  0  0
 40 31  1  0  0  0  0
 41 35  1  0  0  0  0
 42 41  1  0  0  0  0
 43 41  1  0  0  0  0
 45 44  1  0  0  0  0
 45 47  1  0  0  0  0
 46 45  2  0  0  0  0
 47 49  1  0  0  0  0
 48 47  1  0  0  0  0
M  END
>  <minimizedAffinity>
-7.02958298

>  <minimizedRMSD>
0.886848152

$$$$
