
 OpenBabel03252500253D

 42 45  0  0  1  0  0  0  0  0999 V2000
   47.2370   29.8410   47.8560 C   0  0  2  0  0  0  0  0  0  0  0  0
   45.7820   30.0730   47.9990 C   0  0  2  0  0  0  0  0  0  0  0  0
   45.2030   29.3670   46.8300 C   0  0  0  0  0  0  0  0  0  0  0  0
   46.0410   28.3070   46.5240 O   0  0  0  0  0  0  0  0  0  0  0  0
   47.1820   28.4240   47.2500 C   0  0  0  0  0  0  0  0  0  0  0  0
   47.8870   30.3430   47.2080 H   0  0  0  0  0  0  0  0  0  0  0  0
   45.5120   29.6550   49.0050 H   0  0  0  0  0  0  0  0  0  0  0  0
   44.2830   28.8470   47.2430 H   0  0  0  0  0  0  0  0  0  0  0  0
   44.8250   29.9580   46.0200 H   0  0  0  0  0  0  0  0  0  0  0  0
   47.0990   27.7270   48.1270 H   0  0  0  0  0  0  0  0  0  0  0  0
   48.0850   28.1570   46.7060 H   0  0  0  0  0  0  0  0  0  0  0  0
   45.4200   31.3990   48.0420 O   0  0  0  0  0  0  0  0  0  0  0  0
   47.5080   32.8610   47.6680 O   0  0  0  0  0  0  0  0  0  0  0  0
   46.3220   32.2730   46.9510 P   0  0  1  0  0  0  0  0  0  0  0  0
   46.8830   31.2320   45.7390 O   0  0  0  0  0  0  0  0  0  0  0  0
   46.3870   31.3210   44.9050 H   0  0  0  0  0  0  0  0  0  0  0  0
   45.4340   33.5670   46.2660 O   0  0  0  0  0  0  0  0  0  0  0  0
   45.2140   35.6960   43.4200 C   0  0  0  0  0  0  0  0  0  0  0  0
   46.2870   35.2820   42.5840 C   0  0  0  0  0  0  0  0  0  0  0  0
   47.0800   34.2300   43.0670 C   0  0  0  0  0  0  0  0  0  0  0  0
   46.7830   33.6890   44.2660 N   0  0  0  0  0  0  0  0  0  0  0  0
   45.7480   34.1190   45.0260 C   0  0  0  0  0  0  0  0  0  0  0  0
   44.9790   35.1160   44.5930 N   0  0  0  0  0  0  0  0  0  0  0  0
   46.5160   35.7120   41.6380 H   0  0  0  0  0  0  0  0  0  0  0  0
   47.9130   33.8500   42.5040 H   0  0  0  0  0  0  0  0  0  0  0  0
   44.4280   36.7320   42.9530 O   0  0  0  0  0  0  0  0  0  0  0  0
   44.8600   37.6320   42.7800 H   0  0  0  0  0  0  0  0  0  0  0  0
   47.9020   29.8580   49.0720 O   0  0  0  0  0  0  0  0  0  0  0  0
   48.6290   30.9780   51.4740 H   0  0  0  0  0  0  0  0  0  0  0  0
   49.2690   30.9060   50.6500 N   0  0  0  0  0  0  0  0  0  0  0  0
   49.1040   30.3980   49.4010 C   0  0  0  0  0  0  0  0  0  0  0  0
   50.2670   30.5660   48.7380 N   0  0  0  0  0  0  0  0  0  0  0  0
   51.1730   31.1610   49.5050 C   0  0  0  0  0  0  0  0  0  0  0  0
   52.4800   31.5330   49.2680 C   0  0  0  0  0  0  0  0  0  0  0  0
   53.1640   32.1350   50.2760 N   0  0  0  0  0  0  0  0  0  0  0  0
   52.5520   32.3510   51.4700 C   0  0  0  0  0  0  0  0  0  0  0  0
   53.1310   32.8340   52.2470 H   0  0  0  0  0  0  0  0  0  0  0  0
   51.2760   31.9780   51.6760 N   0  0  0  0  0  0  0  0  0  0  0  0
   50.5410   31.3740   50.7130 C   0  0  0  0  0  0  0  0  0  0  0  0
   53.0750   31.2820   47.9960 N   0  0  0  0  0  0  0  0  0  0  0  0
   53.5110   30.4370   47.5250 H   0  0  0  0  0  0  0  0  0  0  0  0
   53.0950   32.1260   47.3520 H   0  0  0  0  0  0  0  0  0  0  0  0
  1  6  1  6  0  0  0
  1  2  1  0  0  0  0
  1 28  1  0  0  0  0
  2 12  1  0  0  0  0
  2  7  1  1  0  0  0
  3  8  1  0  0  0  0
  3  2  1  0  0  0  0
  4  3  1  0  0  0  0
  4  5  1  0  0  0  0
  5  1  1  0  0  0  0
  5 10  1  0  0  0  0
  9  3  1  0  0  0  0
 11  5  1  0  0  0  0
 14 13  2  1  0  0  0
 14 12  1  0  0  0  0
 15 14  1  0  0  0  0
 16 15  1  0  0  0  0
 17 14  1  0  0  0  0
 18 23  1  0  0  0  0
 19 20  1  0  0  0  0
 19 18  2  0  0  0  0
 20 21  2  0  0  0  0
 21 22  1  0  0  0  0
 22 17  1  0  0  0  0
 23 22  2  0  0  0  0
 24 19  1  0  0  0  0
 25 20  1  0  0  0  0
 26 18  1  0  0  0  0
 27 26  1  0  0  0  0
 28 31  1  0  0  0  0
 30 39  1  0  0  0  0
 30 29  1  0  0  0  0
 31 30  1  0  0  0  0
 32 31  2  0  0  0  0
 32 33  1  0  0  0  0
 33 39  1  0  0  0  0
 34 33  2  0  0  0  0
 34 35  1  0  0  0  0
 35 36  2  0  0  0  0
 36 38  1  0  0  0  0
 36 37  1  0  0  0  0
 39 38  2  0  0  0  0
 40 34  1  0  0  0  0
 41 40  1  0  0  0  0
 42 40  1  0  0  0  0
M  END
>  <minimizedAffinity>
-5.72350836

>  <minimizedRMSD>
0.398844928

$$$$
