
 OpenBabel03252506383D

 49 53  0  0  1  0  0  0  0  0999 V2000
   45.5120   30.6470   43.4590 O   0  0  0  0  0  0  0  0  0  0  0  0
   44.9340   30.0420   44.3770 C   0  0  0  0  0  0  0  0  0  0  0  0
   45.0990   29.7370   45.8210 C   0  0  1  0  0  0  0  0  0  0  0  0
   44.5880   28.3200   45.8980 C   0  0  0  0  0  0  0  0  0  0  0  0
   43.2450   28.5470   45.2040 C   0  0  0  0  0  0  0  0  0  0  0  0
   43.6880   29.3760   44.0910 N   0  0  0  0  0  0  0  0  0  0  0  0
   44.2200   30.3030   46.2340 H   0  0  0  0  0  0  0  0  0  0  0  0
   45.2620   27.6960   45.2860 H   0  0  0  0  0  0  0  0  0  0  0  0
   44.4740   27.9400   46.9240 H   0  0  0  0  0  0  0  0  0  0  0  0
   42.6210   29.1530   45.8600 H   0  0  0  0  0  0  0  0  0  0  0  0
   42.7940   27.5980   44.8710 H   0  0  0  0  0  0  0  0  0  0  0  0
   40.9560   29.1180   43.8840 H   0  0  0  0  0  0  0  0  0  0  0  0
   41.5430   29.2900   43.0260 N   0  0  0  0  0  0  0  0  0  0  0  0
   42.8900   29.4470   42.8870 C   0  0  0  0  0  0  0  0  0  0  0  0
   43.1930   29.6440   41.5960 N   0  0  0  0  0  0  0  0  0  0  0  0
   42.0200   29.6110   40.9020 C   0  0  0  0  0  0  0  0  0  0  0  0
   41.6720   29.7430   39.5910 C   0  0  0  0  0  0  0  0  0  0  0  0
   40.3930   29.6580   39.2160 N   0  0  0  0  0  0  0  0  0  0  0  0
   39.3810   29.4410   40.0910 C   0  0  0  0  0  0  0  0  0  0  0  0
   38.3330   29.3650   39.8310 H   0  0  0  0  0  0  0  0  0  0  0  0
   39.6830   29.3050   41.3940 N   0  0  0  0  0  0  0  0  0  0  0  0
   40.9660   29.3870   41.7950 C   0  0  0  0  0  0  0  0  0  0  0  0
   42.7070   29.9720   38.6460 N   0  0  0  0  0  0  0  0  0  0  0  0
   43.4820   30.6300   38.8920 H   0  0  0  0  0  0  0  0  0  0  0  0
   42.9130   29.6160   37.6730 H   0  0  0  0  0  0  0  0  0  0  0  0
   46.6720   30.0170   46.5220 S   0  0  0  0  0  0  0  0  0  0  0  0
   44.5220   35.5050   45.1600 C   0  0  0  0  0  0  0  0  0  0  0  0
   45.1780   35.5090   43.9100 C   0  0  0  0  0  0  0  0  0  0  0  0
   46.1020   34.5550   43.6400 C   0  0  0  0  0  0  0  0  0  0  0  0
   46.3360   33.6390   44.6110 N   0  0  0  0  0  0  0  0  0  0  0  0
   45.7170   33.6370   45.7840 C   0  0  0  0  0  0  0  0  0  0  0  0
   44.8060   34.5640   46.0750 N   0  0  0  0  0  0  0  0  0  0  0  0
   46.0540   32.6130   46.7370 N   0  0  0  0  0  0  0  0  0  0  0  0
   45.3220   32.3490   47.9210 C   0  0  0  0  0  0  0  0  0  0  0  0
   46.4050   32.0020   48.9280 C   0  0  0  0  0  0  0  0  0  0  0  0
   47.6820   31.9070   48.1510 C   0  0  0  0  0  0  0  0  0  0  0  0
   47.1780   31.7080   46.7230 C   0  0  1  0  0  0  0  0  0  0  0  0
   43.7910   36.2740   45.3520 H   0  0  0  0  0  0  0  0  0  0  0  0
   46.6040   34.5450   42.7050 H   0  0  0  0  0  0  0  0  0  0  0  0
   44.5380   31.6740   48.0240 H   0  0  0  0  0  0  0  0  0  0  0  0
   44.9320   33.3500   48.2880 H   0  0  0  0  0  0  0  0  0  0  0  0
   46.4930   32.7090   49.7580 H   0  0  0  0  0  0  0  0  0  0  0  0
   46.1880   31.0060   49.4080 H   0  0  0  0  0  0  0  0  0  0  0  0
   48.2570   31.0430   48.5010 H   0  0  0  0  0  0  0  0  0  0  0  0
   48.2290   32.8730   48.2580 H   0  0  0  0  0  0  0  0  0  0  0  0
   47.9940   32.0300   46.0480 H   0  0  0  0  0  0  0  0  0  0  0  0
   44.8140   36.5530   42.9880 N   0  0  0  0  0  0  0  0  0  0  0  0
   45.5540   36.8110   42.2730 H   0  0  0  0  0  0  0  0  0  0  0  0
   43.8890   36.9920   43.0550 H   0  0  0  0  0  0  0  0  0  0  0  0
  1  2  2  0  0  0  0
  2  3  1  0  0  0  0
  3  4  1  0  0  0  0
  3  7  1  1  0  0  0
  3 26  1  0  0  0  0
  4  9  1  0  0  0  0
  5 10  1  0  0  0  0
  5  4  1  0  0  0  0
  6  2  1  0  0  0  0
  6  5  1  0  0  0  0
  8  4  1  0  0  0  0
 11  5  1  0  0  0  0
 13 12  1  0  0  0  0
 14 13  1  0  0  0  0
 14  6  1  0  0  0  0
 15 14  2  0  0  0  0
 16 15  1  0  0  0  0
 16 22  1  0  0  0  0
 17 16  2  0  0  0  0
 18 17  1  0  0  0  0
 18 19  2  0  0  0  0
 19 21  1  0  0  0  0
 20 19  1  0  0  0  0
 21 22  2  0  0  0  0
 22 13  1  0  0  0  0
 23 24  1  0  0  0  0
 23 17  1  0  0  0  0
 25 23  1  0  0  0  0
 26 37  1  0  0  0  0
 27 38  1  0  0  0  0
 27 32  1  0  0  0  0
 28 27  2  0  0  0  0
 29 28  1  0  0  0  0
 29 30  2  0  0  0  0
 30 31  1  0  0  0  0
 31 32  2  0  0  0  0
 31 33  1  0  0  0  0
 33 34  1  0  0  0  0
 34 40  1  0  0  0  0
 34 41  1  0  0  0  0
 34 35  1  0  0  0  0
 35 43  1  0  0  0  0
 35 42  1  0  0  0  0
 36 45  1  0  0  0  0
 36 44  1  0  0  0  0
 36 35  1  0  0  0  0
 37 46  1  6  0  0  0
 37 33  1  0  0  0  0
 37 36  1  0  0  0  0
 39 29  1  0  0  0  0
 47 49  1  0  0  0  0
 47 28  1  0  0  0  0
 48 47  1  0  0  0  0
M  END
>  <minimizedAffinity>
-5.89399195

>  <minimizedRMSD>
0.217190102

$$$$
