
 OpenBabel03252506383D

 49 53  0  0  1  0  0  0  0  0999 V2000
   45.1890   30.6970   43.6610 O   0  0  0  0  0  0  0  0  0  0  0  0
   44.7800   30.0190   44.6180 C   0  0  0  0  0  0  0  0  0  0  0  0
   45.1740   29.6470   46.0000 C   0  0  1  0  0  0  0  0  0  0  0  0
   44.7370   28.2050   46.0690 C   0  0  0  0  0  0  0  0  0  0  0  0
   43.2970   28.4020   45.5970 C   0  0  0  0  0  0  0  0  0  0  0  0
   43.5330   29.3090   44.4810 N   0  0  0  0  0  0  0  0  0  0  0  0
   44.3460   30.1480   46.5720 H   0  0  0  0  0  0  0  0  0  0  0  0
   45.3350   27.6470   45.3290 H   0  0  0  0  0  0  0  0  0  0  0  0
   44.7950   27.7670   47.0770 H   0  0  0  0  0  0  0  0  0  0  0  0
   42.7550   28.9430   46.3730 H   0  0  0  0  0  0  0  0  0  0  0  0
   42.8390   27.4520   45.2800 H   0  0  0  0  0  0  0  0  0  0  0  0
   42.9790   31.5060   42.9200 H   0  0  0  0  0  0  0  0  0  0  0  0
   42.4570   30.6020   42.7750 N   0  0  0  0  0  0  0  0  0  0  0  0
   42.5600   29.4040   43.4160 C   0  0  0  0  0  0  0  0  0  0  0  0
   41.6890   28.5310   42.8900 N   0  0  0  0  0  0  0  0  0  0  0  0
   41.0210   29.1850   41.8970 C   0  0  0  0  0  0  0  0  0  0  0  0
   40.0380   28.8500   41.0130 C   0  0  0  0  0  0  0  0  0  0  0  0
   39.5820   29.7460   40.1350 N   0  0  0  0  0  0  0  0  0  0  0  0
   40.0510   31.0160   40.0630 C   0  0  0  0  0  0  0  0  0  0  0  0
   39.7110   31.7710   39.3690 H   0  0  0  0  0  0  0  0  0  0  0  0
   41.0220   31.3850   40.9180 N   0  0  0  0  0  0  0  0  0  0  0  0
   41.4970   30.4990   41.8120 C   0  0  0  0  0  0  0  0  0  0  0  0
   39.5220   27.5280   41.0600 N   0  0  0  0  0  0  0  0  0  0  0  0
   40.1840   26.7300   41.1980 H   0  0  0  0  0  0  0  0  0  0  0  0
   38.5560   27.1080   40.9830 H   0  0  0  0  0  0  0  0  0  0  0  0
   46.8220   29.9660   46.4750 S   0  0  0  0  0  0  0  0  0  0  0  0
   44.5410   35.4200   45.1960 C   0  0  0  0  0  0  0  0  0  0  0  0
   45.2110   35.4680   43.9550 C   0  0  0  0  0  0  0  0  0  0  0  0
   46.1640   34.5440   43.6780 C   0  0  0  0  0  0  0  0  0  0  0  0
   46.4110   33.6160   44.6330 N   0  0  0  0  0  0  0  0  0  0  0  0
   45.7790   33.5730   45.7970 C   0  0  0  0  0  0  0  0  0  0  0  0
   44.8390   34.4690   46.0960 N   0  0  0  0  0  0  0  0  0  0  0  0
   46.1320   32.5390   46.7340 N   0  0  0  0  0  0  0  0  0  0  0  0
   45.3930   32.2310   47.9030 C   0  0  0  0  0  0  0  0  0  0  0  0
   46.4730   31.8930   48.9160 C   0  0  0  0  0  0  0  0  0  0  0  0
   47.7610   31.8490   48.1540 C   0  0  0  0  0  0  0  0  0  0  0  0
   47.2800   31.6660   46.7160 C   0  0  1  0  0  0  0  0  0  0  0  0
   43.7870   36.1660   45.3940 H   0  0  0  0  0  0  0  0  0  0  0  0
   46.6780   34.5670   42.7490 H   0  0  0  0  0  0  0  0  0  0  0  0
   44.6260   31.5330   47.9830 H   0  0  0  0  0  0  0  0  0  0  0  0
   44.9710   33.2140   48.2850 H   0  0  0  0  0  0  0  0  0  0  0  0
   46.5320   32.5860   49.7620 H   0  0  0  0  0  0  0  0  0  0  0  0
   46.2770   30.8820   49.3740 H   0  0  0  0  0  0  0  0  0  0  0  0
   48.3550   30.9930   48.4930 H   0  0  0  0  0  0  0  0  0  0  0  0
   48.2810   32.8260   48.2870 H   0  0  0  0  0  0  0  0  0  0  0  0
   48.0950   32.0230   46.0580 H   0  0  0  0  0  0  0  0  0  0  0  0
   44.8310   36.5200   43.0500 N   0  0  0  0  0  0  0  0  0  0  0  0
   45.5710   36.8120   42.3490 H   0  0  0  0  0  0  0  0  0  0  0  0
   43.8930   36.9330   43.1140 H   0  0  0  0  0  0  0  0  0  0  0  0
  1  2  2  0  0  0  0
  2  3  1  0  0  0  0
  3  4  1  0  0  0  0
  3 26  1  0  0  0  0
  3  7  1  1  0  0  0
  4  9  1  0  0  0  0
  5  4  1  0  0  0  0
  5 10  1  0  0  0  0
  6  2  1  0  0  0  0
  6  5  1  0  0  0  0
  8  4  1  0  0  0  0
 11  5  1  0  0  0  0
 13 12  1  0  0  0  0
 13 14  1  0  0  0  0
 14  6  1  0  0  0  0
 15 14  2  0  0  0  0
 16 15  1  0  0  0  0
 17 23  1  0  0  0  0
 17 16  2  0  0  0  0
 18 17  1  0  0  0  0
 19 18  2  0  0  0  0
 19 21  1  0  0  0  0
 20 19  1  0  0  0  0
 21 22  2  0  0  0  0
 22 16  1  0  0  0  0
 22 13  1  0  0  0  0
 23 24  1  0  0  0  0
 25 23  1  0  0  0  0
 26 37  1  0  0  0  0
 27 38  1  0  0  0  0
 27 32  1  0  0  0  0
 28 27  2  0  0  0  0
 29 28  1  0  0  0  0
 29 30  2  0  0  0  0
 30 31  1  0  0  0  0
 31 32  2  0  0  0  0
 31 33  1  0  0  0  0
 33 34  1  0  0  0  0
 34 40  1  0  0  0  0
 34 41  1  0  0  0  0
 34 35  1  0  0  0  0
 35 43  1  0  0  0  0
 35 42  1  0  0  0  0
 36 45  1  0  0  0  0
 36 44  1  0  0  0  0
 36 35  1  0  0  0  0
 37 46  1  6  0  0  0
 37 33  1  0  0  0  0
 37 36  1  0  0  0  0
 39 29  1  0  0  0  0
 47 49  1  0  0  0  0
 47 28  1  0  0  0  0
 48 47  1  0  0  0  0
M  END
>  <minimizedAffinity>
-6.1771307

>  <minimizedRMSD>
0.767797589

$$$$
