
 OpenBabel03252506383D

 49 53  0  0  1  0  0  0  0  0999 V2000
   45.5340   30.5520   43.4730 O   0  0  0  0  0  0  0  0  0  0  0  0
   44.9480   29.9870   44.4110 C   0  0  0  0  0  0  0  0  0  0  0  0
   45.1080   29.7330   45.8660 C   0  0  1  0  0  0  0  0  0  0  0  0
   44.5830   28.3250   45.9930 C   0  0  0  0  0  0  0  0  0  0  0  0
   43.2430   28.5390   45.2890 C   0  0  0  0  0  0  0  0  0  0  0  0
   43.6960   29.3230   44.1470 N   0  0  0  0  0  0  0  0  0  0  0  0
   44.2340   30.3230   46.2560 H   0  0  0  0  0  0  0  0  0  0  0  0
   45.2510   27.6730   45.4060 H   0  0  0  0  0  0  0  0  0  0  0  0
   44.4630   27.9840   47.0320 H   0  0  0  0  0  0  0  0  0  0  0  0
   42.6240   29.1760   45.9210 H   0  0  0  0  0  0  0  0  0  0  0  0
   42.7830   27.5840   44.9890 H   0  0  0  0  0  0  0  0  0  0  0  0
   44.5860   29.0710   41.5560 H   0  0  0  0  0  0  0  0  0  0  0  0
   43.5610   29.2110   41.7570 N   0  0  0  0  0  0  0  0  0  0  0  0
   42.9010   29.3590   42.9400 C   0  0  0  0  0  0  0  0  0  0  0  0
   41.5880   29.5120   42.7120 N   0  0  0  0  0  0  0  0  0  0  0  0
   41.4110   29.4610   41.3600 C   0  0  0  0  0  0  0  0  0  0  0  0
   40.3380   29.5510   40.5240 C   0  0  0  0  0  0  0  0  0  0  0  0
   40.4990   29.4600   39.2010 N   0  0  0  0  0  0  0  0  0  0  0  0
   41.7070   29.2750   38.6160 C   0  0  0  0  0  0  0  0  0  0  0  0
   41.8810   29.1960   37.5510 H   0  0  0  0  0  0  0  0  0  0  0  0
   42.7910   29.1810   39.4070 N   0  0  0  0  0  0  0  0  0  0  0  0
   42.6530   29.2710   40.7420 C   0  0  0  0  0  0  0  0  0  0  0  0
   39.0560   29.7440   41.1030 N   0  0  0  0  0  0  0  0  0  0  0  0
   38.8070   29.2150   41.9720 H   0  0  0  0  0  0  0  0  0  0  0  0
   38.2170   30.3370   40.8610 H   0  0  0  0  0  0  0  0  0  0  0  0
   46.6820   30.0240   46.5590 S   0  0  0  0  0  0  0  0  0  0  0  0
   44.5200   35.4940   45.1490 C   0  0  0  0  0  0  0  0  0  0  0  0
   45.1810   35.4920   43.9010 C   0  0  0  0  0  0  0  0  0  0  0  0
   46.1080   34.5380   43.6420 C   0  0  0  0  0  0  0  0  0  0  0  0
   46.3420   33.6300   44.6210 N   0  0  0  0  0  0  0  0  0  0  0  0
   45.7190   33.6340   45.7910 C   0  0  0  0  0  0  0  0  0  0  0  0
   44.8030   34.5610   46.0720 N   0  0  0  0  0  0  0  0  0  0  0  0
   46.0550   32.6190   46.7530 N   0  0  0  0  0  0  0  0  0  0  0  0
   45.3190   32.3610   47.9360 C   0  0  0  0  0  0  0  0  0  0  0  0
   46.4000   32.0250   48.9490 C   0  0  0  0  0  0  0  0  0  0  0  0
   47.6800   31.9290   48.1780 C   0  0  0  0  0  0  0  0  0  0  0  0
   47.1820   31.7180   46.7490 C   0  0  1  0  0  0  0  0  0  0  0  0
   43.7860   36.2620   45.3320 H   0  0  0  0  0  0  0  0  0  0  0  0
   46.6140   34.5230   42.7090 H   0  0  0  0  0  0  0  0  0  0  0  0
   44.5370   31.6840   48.0410 H   0  0  0  0  0  0  0  0  0  0  0  0
   44.9250   33.3630   48.2940 H   0  0  0  0  0  0  0  0  0  0  0  0
   46.4820   32.7390   49.7750 H   0  0  0  0  0  0  0  0  0  0  0  0
   46.1840   31.0320   49.4360 H   0  0  0  0  0  0  0  0  0  0  0  0
   48.2560   31.0690   48.5360 H   0  0  0  0  0  0  0  0  0  0  0  0
   48.2240   32.8970   48.2800 H   0  0  0  0  0  0  0  0  0  0  0  0
   48.0000   32.0370   46.0750 H   0  0  0  0  0  0  0  0  0  0  0  0
   44.8170   36.5270   42.9710 N   0  0  0  0  0  0  0  0  0  0  0  0
   45.5580   36.7820   42.2560 H   0  0  0  0  0  0  0  0  0  0  0  0
   43.8900   36.9640   43.0310 H   0  0  0  0  0  0  0  0  0  0  0  0
  1  2  2  0  0  0  0
  2  3  1  0  0  0  0
  3  4  1  0  0  0  0
  3  7  1  1  0  0  0
  3 26  1  0  0  0  0
  4  9  1  0  0  0  0
  5 10  1  0  0  0  0
  5  4  1  0  0  0  0
  6  2  1  0  0  0  0
  6  5  1  0  0  0  0
  8  4  1  0  0  0  0
 11  5  1  0  0  0  0
 12 13  1  0  0  0  0
 13 14  1  0  0  0  0
 14  6  1  0  0  0  0
 15 14  2  0  0  0  0
 16 15  1  0  0  0  0
 17 23  1  0  0  0  0
 17 16  2  0  0  0  0
 18 17  1  0  0  0  0
 19 18  2  0  0  0  0
 19 21  1  0  0  0  0
 20 19  1  0  0  0  0
 21 22  2  0  0  0  0
 22 16  1  0  0  0  0
 22 13  1  0  0  0  0
 23 24  1  0  0  0  0
 25 23  1  0  0  0  0
 26 37  1  0  0  0  0
 27 38  1  0  0  0  0
 27 32  1  0  0  0  0
 28 27  2  0  0  0  0
 29 28  1  0  0  0  0
 29 30  2  0  0  0  0
 30 31  1  0  0  0  0
 31 32  2  0  0  0  0
 31 33  1  0  0  0  0
 33 34  1  0  0  0  0
 34 40  1  0  0  0  0
 34 41  1  0  0  0  0
 34 35  1  0  0  0  0
 35 43  1  0  0  0  0
 35 42  1  0  0  0  0
 36 45  1  0  0  0  0
 36 44  1  0  0  0  0
 36 35  1  0  0  0  0
 37 46  1  6  0  0  0
 37 33  1  0  0  0  0
 37 36  1  0  0  0  0
 39 29  1  0  0  0  0
 47 49  1  0  0  0  0
 47 28  1  0  0  0  0
 48 47  1  0  0  0  0
M  END
>  <minimizedAffinity>
-5.83422661

>  <minimizedRMSD>
0.164581373

$$$$
