
 OpenBabel03252506383D

 49 53  0  0  1  0  0  0  0  0999 V2000
   45.4510   30.6320   43.4410 O   0  0  0  0  0  0  0  0  0  0  0  0
   44.8920   30.0310   44.3730 C   0  0  0  0  0  0  0  0  0  0  0  0
   45.0900   29.7280   45.8130 C   0  0  1  0  0  0  0  0  0  0  0  0
   44.5760   28.3130   45.9050 C   0  0  0  0  0  0  0  0  0  0  0  0
   43.2180   28.5420   45.2410 C   0  0  0  0  0  0  0  0  0  0  0  0
   43.6380   29.3680   44.1170 N   0  0  0  0  0  0  0  0  0  0  0  0
   44.2210   30.2980   46.2460 H   0  0  0  0  0  0  0  0  0  0  0  0
   45.2340   27.6860   45.2800 H   0  0  0  0  0  0  0  0  0  0  0  0
   44.4850   27.9350   46.9340 H   0  0  0  0  0  0  0  0  0  0  0  0
   42.6110   29.1520   45.9100 H   0  0  0  0  0  0  0  0  0  0  0  0
   42.7570   27.5940   44.9210 H   0  0  0  0  0  0  0  0  0  0  0  0
   44.3560   30.3290   41.6410 H   0  0  0  0  0  0  0  0  0  0  0  0
   43.3840   29.9580   41.8080 N   0  0  0  0  0  0  0  0  0  0  0  0
   42.8130   29.4390   42.9320 C   0  0  0  0  0  0  0  0  0  0  0  0
   41.5430   29.0900   42.6770 N   0  0  0  0  0  0  0  0  0  0  0  0
   41.3030   29.3930   41.3680 C   0  0  0  0  0  0  0  0  0  0  0  0
   40.2320   29.2790   40.5340 C   0  0  0  0  0  0  0  0  0  0  0  0
   40.3160   29.6780   39.2630 N   0  0  0  0  0  0  0  0  0  0  0  0
   41.4430   30.2090   38.7290 C   0  0  0  0  0  0  0  0  0  0  0  0
   41.5550   30.5450   37.7070 H   0  0  0  0  0  0  0  0  0  0  0  0
   42.5240   30.3380   39.5200 N   0  0  0  0  0  0  0  0  0  0  0  0
   42.4600   29.9420   40.8060 C   0  0  0  0  0  0  0  0  0  0  0  0
   39.0340   28.7270   41.0580 N   0  0  0  0  0  0  0  0  0  0  0  0
   39.0930   27.9010   41.6990 H   0  0  0  0  0  0  0  0  0  0  0  0
   38.0080   28.9550   40.9590 H   0  0  0  0  0  0  0  0  0  0  0  0
   46.6780   30.0060   46.4780 S   0  0  0  0  0  0  0  0  0  0  0  0
   44.5220   35.5000   45.1550 C   0  0  0  0  0  0  0  0  0  0  0  0
   45.1800   35.5150   43.9060 C   0  0  0  0  0  0  0  0  0  0  0  0
   46.1050   34.5640   43.6300 C   0  0  0  0  0  0  0  0  0  0  0  0
   46.3390   33.6410   44.5940 N   0  0  0  0  0  0  0  0  0  0  0  0
   45.7190   33.6290   45.7660 C   0  0  0  0  0  0  0  0  0  0  0  0
   44.8060   34.5530   46.0630 N   0  0  0  0  0  0  0  0  0  0  0  0
   46.0570   32.5990   46.7120 N   0  0  0  0  0  0  0  0  0  0  0  0
   45.3230   32.3240   47.8930 C   0  0  0  0  0  0  0  0  0  0  0  0
   46.4060   31.9720   48.8980 C   0  0  0  0  0  0  0  0  0  0  0  0
   47.6840   31.8850   48.1230 C   0  0  0  0  0  0  0  0  0  0  0  0
   47.1820   31.6960   46.6920 C   0  0  1  0  0  0  0  0  0  0  0  0
   43.7900   36.2670   45.3510 H   0  0  0  0  0  0  0  0  0  0  0  0
   46.6090   34.5620   42.6960 H   0  0  0  0  0  0  0  0  0  0  0  0
   44.5400   31.6470   47.9900 H   0  0  0  0  0  0  0  0  0  0  0  0
   44.9310   33.3220   48.2670 H   0  0  0  0  0  0  0  0  0  0  0  0
   46.4910   32.6730   49.7340 H   0  0  0  0  0  0  0  0  0  0  0  0
   46.1900   30.9710   49.3710 H   0  0  0  0  0  0  0  0  0  0  0  0
   48.2590   31.0190   48.4660 H   0  0  0  0  0  0  0  0  0  0  0  0
   48.2290   32.8500   48.2380 H   0  0  0  0  0  0  0  0  0  0  0  0
   47.9990   32.0240   46.0210 H   0  0  0  0  0  0  0  0  0  0  0  0
   44.8150   36.5650   42.9920 N   0  0  0  0  0  0  0  0  0  0  0  0
   45.5550   36.8290   42.2790 H   0  0  0  0  0  0  0  0  0  0  0  0
   43.8900   37.0020   43.0610 H   0  0  0  0  0  0  0  0  0  0  0  0
  1  2  2  0  0  0  0
  2  3  1  0  0  0  0
  3  4  1  0  0  0  0
  3  7  1  1  0  0  0
  3 26  1  0  0  0  0
  4  9  1  0  0  0  0
  5  4  1  0  0  0  0
  5 10  1  0  0  0  0
  6  2  1  0  0  0  0
  6  5  1  0  0  0  0
  8  4  1  0  0  0  0
 11  5  1  0  0  0  0
 12 13  1  0  0  0  0
 13 14  1  0  0  0  0
 14  6  1  0  0  0  0
 15 14  2  0  0  0  0
 16 15  1  0  0  0  0
 17 23  1  0  0  0  0
 17 16  2  0  0  0  0
 18 17  1  0  0  0  0
 19 18  2  0  0  0  0
 19 21  1  0  0  0  0
 20 19  1  0  0  0  0
 21 22  2  0  0  0  0
 22 16  1  0  0  0  0
 22 13  1  0  0  0  0
 23 24  1  0  0  0  0
 25 23  1  0  0  0  0
 26 37  1  0  0  0  0
 27 38  1  0  0  0  0
 27 32  1  0  0  0  0
 28 27  2  0  0  0  0
 29 28  1  0  0  0  0
 29 30  2  0  0  0  0
 30 31  1  0  0  0  0
 31 32  2  0  0  0  0
 31 33  1  0  0  0  0
 33 34  1  0  0  0  0
 34 40  1  0  0  0  0
 34 41  1  0  0  0  0
 34 35  1  0  0  0  0
 35 43  1  0  0  0  0
 35 42  1  0  0  0  0
 36 45  1  0  0  0  0
 36 44  1  0  0  0  0
 36 35  1  0  0  0  0
 37 46  1  6  0  0  0
 37 33  1  0  0  0  0
 37 36  1  0  0  0  0
 39 29  1  0  0  0  0
 47 49  1  0  0  0  0
 47 28  1  0  0  0  0
 48 47  1  0  0  0  0
M  END
>  <minimizedAffinity>
-5.84063816

>  <minimizedRMSD>
0.285418957

$$$$
