
 OpenBabel03252508083D

 49 53  0  0  0  0  0  0  0  0999 V2000
   45.2650   36.0040   42.8840 C   0  0  0  0  0  0  0  0  0  0  0  0
   45.4990   34.6380   42.8890 C   0  0  0  0  0  0  0  0  0  0  0  0
   45.2760   33.9060   44.0280 C   0  0  0  0  0  0  0  0  0  0  0  0
   44.8160   34.5970   45.1330 N   0  0  0  0  0  0  0  0  0  0  0  0
   44.5920   35.9060   45.1230 C   0  0  0  0  0  0  0  0  0  0  0  0
   44.8220   36.6000   43.9870 N   0  0  0  0  0  0  0  0  0  0  0  0
   45.4370   36.6110   41.9850 H   0  0  0  0  0  0  0  0  0  0  0  0
   44.2320   36.4300   45.9940 H   0  0  0  0  0  0  0  0  0  0  0  0
   45.4650   32.5140   44.1950 C   0  0  0  0  0  0  0  0  0  0  0  0
   44.9900   31.5470   43.3050 C   0  0  0  0  0  0  0  0  0  0  0  0
   45.1130   30.1950   43.4970 C   0  0  0  0  0  0  0  0  0  0  0  0
   45.7370   29.7250   44.6250 C   0  0  0  0  0  0  0  0  0  0  0  0
   46.2290   30.6900   45.5440 C   0  0  0  0  0  0  0  0  0  0  0  0
   46.8510   30.2330   46.6770 C   0  0  0  0  0  0  0  0  0  0  0  0
   47.3510   31.1150   47.6140 C   0  0  0  0  0  0  0  0  0  0  0  0
   47.2210   32.4960   47.3940 C   0  0  0  0  0  0  0  0  0  0  0  0
   46.5750   32.9190   46.2180 C   0  0  0  0  0  0  0  0  0  0  0  0
   46.0860   32.0190   45.3120 C   0  0  0  0  0  0  0  0  0  0  0  0
   44.4900   31.8760   42.4020 H   0  0  0  0  0  0  0  0  0  0  0  0
   44.7300   29.4800   42.7800 H   0  0  0  0  0  0  0  0  0  0  0  0
   45.8770   28.6760   44.8580 H   0  0  0  0  0  0  0  0  0  0  0  0
   46.9540   29.1680   46.8490 H   0  0  0  0  0  0  0  0  0  0  0  0
   47.8340   30.6960   48.4960 H   0  0  0  0  0  0  0  0  0  0  0  0
   47.6410   33.1090   48.1730 H   0  0  0  0  0  0  0  0  0  0  0  0
   46.5950   33.9880   46.2220 H   0  0  0  0  0  0  0  0  0  0  0  0
   45.9510   34.0770   41.7250 O   0  0  0  0  0  0  0  0  0  0  0  0
   47.8790   32.3540   41.3070 O   0  0  0  0  0  0  0  0  0  0  0  0
   47.5820   33.8110   41.3540 P   0  0  1  0  0  0  0  0  0  0  0  0
   47.9610   34.4460   39.8320 O   0  0  0  0  0  0  0  0  0  0  0  0
   45.5060   33.7740   38.6590 H   0  0  0  0  0  0  0  0  0  0  0  0
   46.4100   33.6040   38.1430 N   0  0  0  0  0  0  0  0  0  0  0  0
   47.6110   33.8960   38.6320 C   0  0  0  0  0  0  0  0  0  0  0  0
   48.5110   33.5320   37.6800 N   0  0  0  0  0  0  0  0  0  0  0  0
   47.8280   33.0260   36.6270 C   0  0  0  0  0  0  0  0  0  0  0  0
   48.1740   32.5050   35.3950 C   0  0  0  0  0  0  0  0  0  0  0  0
   47.2370   32.0790   34.5610 N   0  0  0  0  0  0  0  0  0  0  0  0
   45.9360   32.1360   34.8770 C   0  0  0  0  0  0  0  0  0  0  0  0
   45.0870   31.8090   34.2570 H   0  0  0  0  0  0  0  0  0  0  0  0
   45.5540   32.6310   36.0550 N   0  0  0  0  0  0  0  0  0  0  0  0
   46.4780   33.0660   36.9120 C   0  0  0  0  0  0  0  0  0  0  0  0
   49.5370   32.4320   35.0340 N   0  0  0  0  0  0  0  0  0  0  0  0
   50.1990   32.7850   34.2830 H   0  0  0  0  0  0  0  0  0  0  0  0
   50.1350   31.8630   35.6740 H   0  0  0  0  0  0  0  0  0  0  0  0
   48.5180   34.5870   42.5120 O   0  0  0  0  0  0  0  0  0  0  0  0
   49.7180   35.2450   42.3020 C   0  0  0  0  0  0  0  0  0  0  0  0
   49.3960   36.3460   41.8180 O   0  0  0  0  0  0  0  0  0  0  0  0
   50.8330   34.4270   42.7130 N   0  0  0  0  0  0  0  0  0  0  0  0
   51.5710   34.0360   42.0770 H   0  0  0  0  0  0  0  0  0  0  0  0
   50.9270   34.1960   43.7190 H   0  0  0  0  0  0  0  0  0  0  0  0
  1  2  2  0  0  0  0
  1  6  1  0  0  0  0
  2  3  1  0  0  0  0
  3  9  1  0  0  0  0
  3  4  2  0  0  0  0
  5  4  1  0  0  0  0
  5  8  1  0  0  0  0
  6  5  2  0  0  0  0
  7  1  1  0  0  0  0
  9 18  1  0  0  0  0
 10 11  1  0  0  0  0
 10  9  2  0  0  0  0
 11 12  2  0  0  0  0
 12 21  1  0  0  0  0
 12 13  1  0  0  0  0
 13 14  1  0  0  0  0
 14 22  1  0  0  0  0
 14 15  2  0  0  0  0
 15 23  1  0  0  0  0
 16 15  1  0  0  0  0
 16 24  1  0  0  0  0
 17 25  1  0  0  0  0
 17 16  2  0  0  0  0
 18 13  2  0  0  0  0
 18 17  1  0  0  0  0
 19 10  1  0  0  0  0
 20 11  1  0  0  0  0
 26  2  1  0  0  0  0
 28 27  2  1  0  0  0
 28 26  1  0  0  0  0
 28 44  1  0  0  0  0
 29 28  1  0  0  0  0
 31 32  1  0  0  0  0
 31 30  1  0  0  0  0
 32 29  1  0  0  0  0
 33 32  2  0  0  0  0
 34 40  1  0  0  0  0
 34 33  1  0  0  0  0
 35 34  2  0  0  0  0
 36 37  2  0  0  0  0
 36 35  1  0  0  0  0
 37 39  1  0  0  0  0
 38 37  1  0  0  0  0
 39 40  2  0  0  0  0
 40 31  1  0  0  0  0
 41 35  1  0  0  0  0
 41 43  1  0  0  0  0
 42 41  1  0  0  0  0
 45 44  1  0  0  0  0
 45 47  1  0  0  0  0
 46 45  2  0  0  0  0
 47 49  1  0  0  0  0
 48 47  1  0  0  0  0
M  END
>  <minimizedAffinity>
-7.16592121

>  <minimizedRMSD>
2.12164116

$$$$
