
 OpenBabel03242518253D

 50 55  0  0  1  0  0  0  0  0999 V2000
   47.9190   30.5110   42.4520 C   0  0  0  0  0  0  0  0  0  0  0  0
   46.7180   31.0520   42.1600 C   0  0  0  0  0  0  0  0  0  0  0  0
   45.9130   31.4840   43.2100 C   0  0  0  0  0  0  0  0  0  0  0  0
   46.3390   31.3570   44.5140 C   0  0  0  0  0  0  0  0  0  0  0  0
   47.5890   30.7910   44.7900 C   0  0  0  0  0  0  0  0  0  0  0  0
   48.3960   30.3590   43.7410 C   0  0  0  0  0  0  0  0  0  0  0  0
   47.7480   30.7920   46.1730 O   0  0  0  0  0  0  0  0  0  0  0  0
   46.4560   30.9950   46.7490 C   0  0  1  0  0  0  0  0  0  0  0  0
   45.7670   31.6900   45.7440 O   0  0  0  0  0  0  0  0  0  0  0  0
   48.5890   30.1570   41.6770 H   0  0  0  0  0  0  0  0  0  0  0  0
   44.9320   31.9310   43.0560 H   0  0  0  0  0  0  0  0  0  0  0  0
   49.3570   29.9240   43.9480 H   0  0  0  0  0  0  0  0  0  0  0  0
   46.4840   31.4800   47.7290 H   0  0  0  0  0  0  0  0  0  0  0  0
   45.8320   29.6660   46.8180 N   0  0  0  0  0  0  0  0  0  0  0  0
   44.5380   29.3140   46.5650 C   0  0  0  0  0  0  0  0  0  0  0  0
   43.7830   30.0520   46.2640 H   0  0  0  0  0  0  0  0  0  0  0  0
   44.3990   27.9880   46.7500 N   0  0  0  0  0  0  0  0  0  0  0  0
   45.5860   27.4670   47.1200 C   0  0  0  0  0  0  0  0  0  0  0  0
   45.8780   26.1500   47.4070 C   0  0  0  0  0  0  0  0  0  0  0  0
   47.1600   25.9050   47.7540 N   0  0  0  0  0  0  0  0  0  0  0  0
   48.0590   26.9160   47.8030 C   0  0  0  0  0  0  0  0  0  0  0  0
   49.0710   26.6490   48.0900 H   0  0  0  0  0  0  0  0  0  0  0  0
   47.7400   28.2090   47.5140 N   0  0  0  0  0  0  0  0  0  0  0  0
   46.4770   28.5190   47.1610 C   0  0  0  0  0  0  0  0  0  0  0  0
   44.8570   25.1420   47.3280 N   0  0  0  0  0  0  0  0  0  0  0  0
   44.1750   25.2920   48.1040 H   0  0  0  0  0  0  0  0  0  0  0  0
   44.8900   24.4110   46.5620 H   0  0  0  0  0  0  0  0  0  0  0  0
   44.8550   32.1390   39.1550 C   0  0  0  0  0  0  0  0  0  0  0  0
   45.4270   31.3720   38.1570 C   0  0  0  0  0  0  0  0  0  0  0  0
   46.4460   30.4920   38.5300 C   0  0  0  0  0  0  0  0  0  0  0  0
   46.8330   30.4220   39.8260 N   0  0  0  0  0  0  0  0  0  0  0  0
   46.2460   31.1920   40.7810 C   0  0  0  0  0  0  0  0  0  0  0  0
   45.2700   32.0360   40.4360 N   0  0  0  0  0  0  0  0  0  0  0  0
   44.0570   32.8670   39.0390 H   0  0  0  0  0  0  0  0  0  0  0  0
   46.8850   29.8980   37.7370 H   0  0  0  0  0  0  0  0  0  0  0  0
   44.9320   31.5420   36.8500 N   0  0  0  0  0  0  0  0  0  0  0  0
   45.8290   32.0240   35.8470 C   0  0  0  0  0  0  0  0  0  0  0  0
   45.2030   32.2430   34.5210 C   0  0  0  0  0  0  0  0  0  0  0  0
   44.3840   31.1520   34.0980 N   0  0  0  0  0  0  0  0  0  0  0  0
   43.6190   30.4950   35.0810 C   0  0  0  0  0  0  0  0  0  0  0  0
   43.5980   31.2850   36.3870 C   0  0  0  0  0  0  0  0  0  0  0  0
   46.6200   31.2290   35.7150 H   0  0  0  0  0  0  0  0  0  0  0  0
   46.3360   32.9180   36.2210 H   0  0  0  0  0  0  0  0  0  0  0  0
   44.6100   33.1630   34.5220 H   0  0  0  0  0  0  0  0  0  0  0  0
   46.0300   32.3270   33.7600 H   0  0  0  0  0  0  0  0  0  0  0  0
   43.7310   31.4990   33.3390 H   0  0  0  0  0  0  0  0  0  0  0  0
   42.5420   30.3580   34.8160 H   0  0  0  0  0  0  0  0  0  0  0  0
   44.0030   29.4790   35.3480 H   0  0  0  0  0  0  0  0  0  0  0  0
   43.0730   30.6760   37.1510 H   0  0  0  0  0  0  0  0  0  0  0  0
   43.0320   32.2260   36.2980 H   0  0  0  0  0  0  0  0  0  0  0  0
  1  6  1  0  0  0  0
  2  1  2  0  0  0  0
  2  3  1  0  0  0  0
  3  4  2  0  0  0  0
  4  5  1  0  0  0  0
  4  9  1  0  0  0  0
  5  7  1  0  0  0  0
  6 12  1  0  0  0  0
  6  5  2  0  0  0  0
  7  8  1  0  0  0  0
  8 14  1  0  0  0  0
  8 13  1  1  0  0  0
  9  8  1  0  0  0  0
 10  1  1  0  0  0  0
 11  3  1  0  0  0  0
 14 24  1  0  0  0  0
 15 17  2  0  0  0  0
 15 14  1  0  0  0  0
 16 15  1  0  0  0  0
 17 18  1  0  0  0  0
 18 24  2  0  0  0  0
 18 19  1  0  0  0  0
 19 20  2  0  0  0  0
 20 21  1  0  0  0  0
 21 22  1  0  0  0  0
 23 21  2  0  0  0  0
 24 23  1  0  0  0  0
 25 19  1  0  0  0  0
 25 26  1  0  0  0  0
 27 25  1  0  0  0  0
 28 33  1  0  0  0  0
 29 30  1  0  0  0  0
 29 28  2  0  0  0  0
 30 31  2  0  0  0  0
 31 32  1  0  0  0  0
 32  2  1  0  0  0  0
 33 32  2  0  0  0  0
 34 28  1  0  0  0  0
 35 30  1  0  0  0  0
 36 29  1  0  0  0  0
 37 43  1  0  0  0  0
 37 36  1  0  0  0  0
 38 44  1  0  0  0  0
 38 37  1  0  0  0  0
 39 38  1  0  0  0  0
 39 40  1  0  0  0  0
 40 48  1  0  0  0  0
 40 41  1  0  0  0  0
 41 36  1  0  0  0  0
 41 49  1  0  0  0  0
 42 37  1  0  0  0  0
 45 38  1  0  0  0  0
 46 39  1  0  0  0  0
 47 40  1  0  0  0  0
 50 41  1  0  0  0  0
M  END
>  <minimizedAffinity>
-4.1825757

>  <minimizedRMSD>
4.52000809

$$$$
