
 OpenBabel03242518243D

 50 55  0  0  1  0  0  0  0  0999 V2000
   45.5450   29.4180   41.5770 C   0  0  0  0  0  0  0  0  0  0  0  0
   45.5410   30.7530   41.7650 C   0  0  0  0  0  0  0  0  0  0  0  0
   46.4780   31.3030   42.6360 C   0  0  0  0  0  0  0  0  0  0  0  0
   47.3840   30.4940   43.2870 C   0  0  0  0  0  0  0  0  0  0  0  0
   47.3670   29.1110   43.0750 C   0  0  0  0  0  0  0  0  0  0  0  0
   46.4300   28.5590   42.2030 C   0  0  0  0  0  0  0  0  0  0  0  0
   48.3810   28.5590   43.8540 O   0  0  0  0  0  0  0  0  0  0  0  0
   48.7540   29.5410   44.8210 C   0  0  1  0  0  0  0  0  0  0  0  0
   48.4140   30.7500   44.1950 O   0  0  0  0  0  0  0  0  0  0  0  0
   44.8410   28.9330   40.9110 H   0  0  0  0  0  0  0  0  0  0  0  0
   46.5390   32.3700   42.8410 H   0  0  0  0  0  0  0  0  0  0  0  0
   46.4140   27.4980   42.0370 H   0  0  0  0  0  0  0  0  0  0  0  0
   49.7920   29.4550   45.1570 H   0  0  0  0  0  0  0  0  0  0  0  0
   47.8090   29.3890   45.9370 N   0  0  0  0  0  0  0  0  0  0  0  0
   47.1810   28.2610   46.3800 C   0  0  0  0  0  0  0  0  0  0  0  0
   47.3390   27.2850   45.9050 H   0  0  0  0  0  0  0  0  0  0  0  0
   46.3990   28.5770   47.4290 N   0  0  0  0  0  0  0  0  0  0  0  0
   46.5060   29.8970   47.6790 C   0  0  0  0  0  0  0  0  0  0  0  0
   45.8740   30.6250   48.6640 C   0  0  0  0  0  0  0  0  0  0  0  0
   46.1650   31.9430   48.6880 N   0  0  0  0  0  0  0  0  0  0  0  0
   47.0270   32.4670   47.7830 C   0  0  0  0  0  0  0  0  0  0  0  0
   47.2160   33.5330   47.8590 H   0  0  0  0  0  0  0  0  0  0  0  0
   47.6370   31.7230   46.8200 N   0  0  0  0  0  0  0  0  0  0  0  0
   47.3880   30.4000   46.7440 C   0  0  0  0  0  0  0  0  0  0  0  0
   44.9730   29.9820   49.5820 N   0  0  0  0  0  0  0  0  0  0  0  0
   44.1140   29.6960   49.0650 H   0  0  0  0  0  0  0  0  0  0  0  0
   45.2420   29.8710   50.6000 H   0  0  0  0  0  0  0  0  0  0  0  0
   43.3560   33.6130   40.9110 C   0  0  0  0  0  0  0  0  0  0  0  0
   42.7660   33.1950   39.7330 C   0  0  0  0  0  0  0  0  0  0  0  0
   43.1280   31.9360   39.2470 C   0  0  0  0  0  0  0  0  0  0  0  0
   44.0250   31.1840   39.9290 N   0  0  0  0  0  0  0  0  0  0  0  0
   44.5840   31.6290   41.0870 C   0  0  0  0  0  0  0  0  0  0  0  0
   44.2450   32.8300   41.5610 N   0  0  0  0  0  0  0  0  0  0  0  0
   43.1880   34.5560   41.4240 H   0  0  0  0  0  0  0  0  0  0  0  0
   42.6580   31.6220   38.3220 H   0  0  0  0  0  0  0  0  0  0  0  0
   41.8500   34.0730   39.1240 N   0  0  0  0  0  0  0  0  0  0  0  0
   42.3670   35.1360   38.3210 C   0  0  0  0  0  0  0  0  0  0  0  0
   41.3330   36.0540   37.7820 C   0  0  0  0  0  0  0  0  0  0  0  0
   40.2210   35.3700   37.2030 N   0  0  0  0  0  0  0  0  0  0  0  0
   39.7820   34.1910   37.8350 C   0  0  0  0  0  0  0  0  0  0  0  0
   40.4180   34.0320   39.2140 C   0  0  0  0  0  0  0  0  0  0  0  0
   42.8760   34.6530   37.4370 H   0  0  0  0  0  0  0  0  0  0  0  0
   43.1400   35.6660   38.8830 H   0  0  0  0  0  0  0  0  0  0  0  0
   40.9760   36.7320   38.5630 H   0  0  0  0  0  0  0  0  0  0  0  0
   41.8030   36.6490   36.9490 H   0  0  0  0  0  0  0  0  0  0  0  0
   39.4060   36.0460   37.1470 H   0  0  0  0  0  0  0  0  0  0  0  0
   38.6810   34.1490   38.0250 H   0  0  0  0  0  0  0  0  0  0  0  0
   40.0350   33.2570   37.2760 H   0  0  0  0  0  0  0  0  0  0  0  0
   40.1200   33.0430   39.6190 H   0  0  0  0  0  0  0  0  0  0  0  0
   40.0530   34.7840   39.9320 H   0  0  0  0  0  0  0  0  0  0  0  0
  1  2  2  0  0  0  0
  1  6  1  0  0  0  0
  2  3  1  0  0  0  0
  3 11  1  0  0  0  0
  3  4  2  0  0  0  0
  4  9  1  0  0  0  0
  5  4  1  0  0  0  0
  5  7  1  0  0  0  0
  6  5  2  0  0  0  0
  7  8  1  0  0  0  0
  8 13  1  1  0  0  0
  8 14  1  0  0  0  0
  9  8  1  0  0  0  0
 10  1  1  0  0  0  0
 12  6  1  0  0  0  0
 14 15  1  0  0  0  0
 14 24  1  0  0  0  0
 15 17  2  0  0  0  0
 16 15  1  0  0  0  0
 17 18  1  0  0  0  0
 18 19  1  0  0  0  0
 19 20  2  0  0  0  0
 19 25  1  0  0  0  0
 21 22  1  0  0  0  0
 21 20  1  0  0  0  0
 23 21  2  0  0  0  0
 24 23  1  0  0  0  0
 24 18  2  0  0  0  0
 25 27  1  0  0  0  0
 26 25  1  0  0  0  0
 28 34  1  0  0  0  0
 28 33  1  0  0  0  0
 29 28  2  0  0  0  0
 30 29  1  0  0  0  0
 30 31  2  0  0  0  0
 31 32  1  0  0  0  0
 32 33  2  0  0  0  0
 32  2  1  0  0  0  0
 35 30  1  0  0  0  0
 36 41  1  0  0  0  0
 36 29  1  0  0  0  0
 37 43  1  0  0  0  0
 37 36  1  0  0  0  0
 38 37  1  0  0  0  0
 38 44  1  0  0  0  0
 39 38  1  0  0  0  0
 39 40  1  0  0  0  0
 40 47  1  0  0  0  0
 40 41  1  0  0  0  0
 41 49  1  0  0  0  0
 41 50  1  0  0  0  0
 42 37  1  0  0  0  0
 45 38  1  0  0  0  0
 46 39  1  0  0  0  0
 48 40  1  0  0  0  0
M  END
>  <minimizedAffinity>
-4.727777

>  <minimizedRMSD>
3.22342801

$$$$
