
 OpenBabel03242523453D

 24 26  0  0  0  0  0  0  0  0999 V2000
   47.8800   33.7670   42.6570 N   0  0  0  0  0  0  0  0  0  0  0  0
   49.2340   33.7350   42.7400 C   0  0  0  0  0  0  0  0  0  0  0  0
   49.7570   33.9630   43.6550 H   0  0  0  0  0  0  0  0  0  0  0  0
   49.7130   33.3870   41.5270 N   0  0  0  0  0  0  0  0  0  0  0  0
   48.7000   33.1940   40.6680 C   0  0  0  0  0  0  0  0  0  0  0  0
   48.5760   32.8430   39.3580 C   0  0  0  0  0  0  0  0  0  0  0  0
   47.3680   32.7250   38.7450 N   0  0  0  0  0  0  0  0  0  0  0  0
   46.2570   32.9570   39.4410 C   0  0  0  0  0  0  0  0  0  0  0  0
   45.2200   32.9200   39.1490 H   0  0  0  0  0  0  0  0  0  0  0  0
   46.3500   33.3020   40.7220 N   0  0  0  0  0  0  0  0  0  0  0  0
   47.5350   33.4340   41.3810 C   0  0  0  0  0  0  0  0  0  0  0  0
   45.0000   35.4550   44.1900 C   0  0  0  0  0  0  0  0  0  0  0  0
   46.0130   35.1230   43.2760 C   0  0  0  0  0  0  0  0  0  0  0  0
   46.8700   34.0670   43.6140 C   0  0  0  0  0  0  0  0  0  0  0  0
   46.6830   33.4250   44.7940 N   0  0  0  0  0  0  0  0  0  0  0  0
   45.7040   33.7730   45.6390 C   0  0  0  0  0  0  0  0  0  0  0  0
   44.8710   34.7790   45.3390 N   0  0  0  0  0  0  0  0  0  0  0  0
   46.1170   35.6660   42.3520 H   0  0  0  0  0  0  0  0  0  0  0  0
   45.5620   33.2590   46.5750 H   0  0  0  0  0  0  0  0  0  0  0  0
   44.1580   36.4850   43.8670 O   0  0  0  0  0  0  0  0  0  0  0  0
   43.5150   36.2980   43.0820 H   0  0  0  0  0  0  0  0  0  0  0  0
   49.7410   32.5860   38.5790 N   0  0  0  0  0  0  0  0  0  0  0  0
   50.3330   31.7650   38.4060 H   0  0  0  0  0  0  0  0  0  0  0  0
   49.9100   33.5230   38.1530 H   0  0  0  0  0  0  0  0  0  0  0  0
  1  2  1  0  0  0  0
  1 14  1  0  0  0  0
  2  3  1  0  0  0  0
  4  2  2  0  0  0  0
  5 11  1  0  0  0  0
  5  4  1  0  0  0  0
  6  5  2  0  0  0  0
  7  6  1  0  0  0  0
  7  8  2  0  0  0  0
  8 10  1  0  0  0  0
  9  8  1  0  0  0  0
 10 11  2  0  0  0  0
 11  1  1  0  0  0  0
 12 17  1  0  0  0  0
 13 14  1  0  0  0  0
 13 12  2  0  0  0  0
 14 15  2  0  0  0  0
 15 16  1  0  0  0  0
 16 19  1  0  0  0  0
 17 16  2  0  0  0  0
 18 13  1  0  0  0  0
 20 12  1  0  0  0  0
 21 20  1  0  0  0  0
 22  6  1  0  0  0  0
 23 22  1  0  0  0  0
 24 22  1  0  0  0  0
M  END
>  <minimizedAffinity>
-4.89322805

>  <minimizedRMSD>
0.649982989

$$$$
