
 OpenBabel03252502343D

 45 48  0  0  1  0  0  0  0  0999 V2000
   46.1610   31.0010   44.2240 C   0  0  2  0  0  0  0  0  0  0  0  0
   45.3290   30.3950   43.0820 C   0  0  0  0  0  0  0  0  0  0  0  0
   45.4170   28.8770   43.3280 C   0  0  0  0  0  0  0  0  0  0  0  0
   44.4900   28.6820   44.5240 C   0  0  0  0  0  0  0  0  0  0  0  0
   45.0310   29.3660   45.7180 C   0  0  0  0  0  0  0  0  0  0  0  0
   45.4810   30.7810   45.5230 C   0  0  1  0  0  0  0  0  0  0  0  0
   47.1340   30.4410   44.2230 H   0  0  0  0  0  0  0  0  0  0  0  0
   45.7830   30.6620   42.1200 H   0  0  0  0  0  0  0  0  0  0  0  0
   44.2990   30.7550   43.2380 H   0  0  0  0  0  0  0  0  0  0  0  0
   44.9920   28.3830   42.4530 H   0  0  0  0  0  0  0  0  0  0  0  0
   46.4540   28.6000   43.5710 H   0  0  0  0  0  0  0  0  0  0  0  0
   43.5240   29.1380   44.2180 H   0  0  0  0  0  0  0  0  0  0  0  0
   44.4270   27.6100   44.7120 H   0  0  0  0  0  0  0  0  0  0  0  0
   44.2030   29.4080   46.4810 H   0  0  0  0  0  0  0  0  0  0  0  0
   45.8140   28.7420   46.1950 H   0  0  0  0  0  0  0  0  0  0  0  0
   44.5610   31.4360   45.5530 H   0  0  0  0  0  0  0  0  0  0  0  0
   46.2800   31.1510   46.6400 N   0  0  0  0  0  0  0  0  0  0  0  0
   45.9700   32.1540   47.4990 C   0  0  0  0  0  0  0  0  0  0  0  0
   45.1110   32.8420   47.5230 H   0  0  0  0  0  0  0  0  0  0  0  0
   46.9110   32.2700   48.4560 N   0  0  0  0  0  0  0  0  0  0  0  0
   47.8500   31.3400   48.2300 C   0  0  0  0  0  0  0  0  0  0  0  0
   49.0410   30.9080   48.7880 C   0  0  0  0  0  0  0  0  0  0  0  0
   49.7690   29.8960   48.2850 N   0  0  0  0  0  0  0  0  0  0  0  0
   49.3400   29.2540   47.1840 C   0  0  0  0  0  0  0  0  0  0  0  0
   49.9020   28.4350   46.7530 H   0  0  0  0  0  0  0  0  0  0  0  0
   48.1830   29.6410   46.6060 N   0  0  0  0  0  0  0  0  0  0  0  0
   47.4440   30.6540   47.1010 C   0  0  0  0  0  0  0  0  0  0  0  0
   49.4920   31.5900   49.9520 N   0  0  0  0  0  0  0  0  0  0  0  0
   49.2790   31.8210   50.9310 H   0  0  0  0  0  0  0  0  0  0  0  0
   50.4120   32.0350   49.7080 H   0  0  0  0  0  0  0  0  0  0  0  0
   47.7160   34.1520   42.9120 C   0  0  0  0  0  0  0  0  0  0  0  0
   47.5800   32.7800   43.2000 C   0  0  0  0  0  0  0  0  0  0  0  0
   46.4070   32.3800   43.8700 C   0  0  0  0  0  0  0  0  0  0  0  0
   45.4870   33.3460   44.1930 N   0  0  0  0  0  0  0  0  0  0  0  0
   45.6600   34.6300   43.9000 C   0  0  0  0  0  0  0  0  0  0  0  0
   46.7710   35.0380   43.2610 N   0  0  0  0  0  0  0  0  0  0  0  0
   48.3120   32.0280   42.9400 H   0  0  0  0  0  0  0  0  0  0  0  0
   48.9620   34.5640   42.2030 C   0  0  0  0  0  0  0  0  0  0  0  0
   49.5610   33.4970   41.5720 F   0  0  0  0  0  0  0  0  0  0  0  0
   48.6460   35.5870   41.3080 F   0  0  0  0  0  0  0  0  0  0  0  0
   49.8490   35.1430   43.1290 F   0  0  0  0  0  0  0  0  0  0  0  0
   44.6290   35.6450   44.2750 C   0  0  0  0  0  0  0  0  0  0  0  0
   43.4920   35.5050   43.5410 F   0  0  0  0  0  0  0  0  0  0  0  0
   45.1710   36.9420   44.1330 F   0  0  0  0  0  0  0  0  0  0  0  0
   44.3320   35.5780   45.6160 F   0  0  0  0  0  0  0  0  0  0  0  0
  1  7  1  1  0  0  0
  1  6  1  0  0  0  0
  2  9  1  0  0  0  0
  2  3  1  0  0  0  0
  2  1  1  0  0  0  0
  3 11  1  0  0  0  0
  3  4  1  0  0  0  0
  4 13  1  0  0  0  0
  4  5  1  0  0  0  0
  5 15  1  0  0  0  0
  5 14  1  0  0  0  0
  6 16  1  1  0  0  0
  6  5  1  0  0  0  0
  6 17  1  0  0  0  0
  8  2  1  0  0  0  0
 10  3  1  0  0  0  0
 12  4  1  0  0  0  0
 17 27  1  0  0  0  0
 17 18  1  0  0  0  0
 18 19  1  0  0  0  0
 18 20  2  0  0  0  0
 21 20  1  0  0  0  0
 21 22  1  0  0  0  0
 22 28  1  0  0  0  0
 23 22  2  0  0  0  0
 24 23  1  0  0  0  0
 25 24  1  0  0  0  0
 26 27  1  0  0  0  0
 26 24  2  0  0  0  0
 27 21  2  0  0  0  0
 28 29  1  0  0  0  0
 30 28  1  0  0  0  0
 31 32  2  0  0  0  0
 31 36  1  0  0  0  0
 32 33  1  0  0  0  0
 33 34  2  0  0  0  0
 33  1  1  0  0  0  0
 35 34  1  0  0  0  0
 35 42  1  0  0  0  0
 36 35  2  0  0  0  0
 37 32  1  0  0  0  0
 38 31  1  0  0  0  0
 38 41  1  0  0  0  0
 39 38  1  0  0  0  0
 40 38  1  0  0  0  0
 42 45  1  0  0  0  0
 43 42  1  0  0  0  0
 44 42  1  0  0  0  0
M  END
>  <minimizedAffinity>
-6.53509855

>  <minimizedRMSD>
2.50244904

$$$$
