
 OpenBabel03242510193D

 41 45  0  0  1  0  0  0  0  0999 V2000
   49.7310   31.1510   41.9940 C   0  0  2  0  0  0  0  0  0  0  0  0
   50.5480   32.4850   41.9830 C   0  0  0  0  0  0  0  0  0  0  0  0
   49.3120   32.2430   41.1310 C   0  0  1  0  0  0  0  0  0  0  0  0
   50.3920   30.3390   41.5880 H   0  0  0  0  0  0  0  0  0  0  0  0
   50.4990   33.0470   42.9140 H   0  0  0  0  0  0  0  0  0  0  0  0
   51.5320   32.4710   41.5140 H   0  0  0  0  0  0  0  0  0  0  0  0
   48.6010   33.0220   41.3120 H   0  0  0  0  0  0  0  0  0  0  0  0
   49.6350   32.1200   39.6950 N   0  0  0  0  0  0  0  0  0  0  0  0
   50.7470   31.5390   39.1870 C   0  0  0  0  0  0  0  0  0  0  0  0
   51.5280   31.0960   39.7920 H   0  0  0  0  0  0  0  0  0  0  0  0
   50.7120   31.6070   37.8340 N   0  0  0  0  0  0  0  0  0  0  0  0
   49.5900   32.2250   37.4950 C   0  0  0  0  0  0  0  0  0  0  0  0
   48.9560   32.6100   36.3350 C   0  0  0  0  0  0  0  0  0  0  0  0
   47.7570   33.2560   36.3450 N   0  0  0  0  0  0  0  0  0  0  0  0
   47.1470   33.5420   37.5140 C   0  0  0  0  0  0  0  0  0  0  0  0
   46.1990   34.0550   37.4590 H   0  0  0  0  0  0  0  0  0  0  0  0
   47.7270   33.1870   38.6780 N   0  0  0  0  0  0  0  0  0  0  0  0
   48.8930   32.5590   38.6600 C   0  0  0  0  0  0  0  0  0  0  0  0
   49.5520   32.3340   35.0980 N   0  0  0  0  0  0  0  0  0  0  0  0
   50.0120   33.2610   34.8830 H   0  0  0  0  0  0  0  0  0  0  0  0
   49.6790   31.5770   34.3820 H   0  0  0  0  0  0  0  0  0  0  0  0
   47.7930   31.4230   43.5660 N   0  0  0  0  0  0  0  0  0  0  0  0
   49.0060   30.8170   43.2880 C   0  0  0  0  0  0  0  0  0  0  0  0
   49.6720   29.9750   43.9470 O   0  0  0  0  0  0  0  0  0  0  0  0
   47.7420   32.4670   43.3780 H   0  0  0  0  0  0  0  0  0  0  0  0
   45.3580   31.4410   44.0120 C   0  0  1  0  0  0  0  0  0  0  0  0
   45.5650   30.4430   43.0260 C   0  0  0  0  0  0  0  0  0  0  0  0
   46.6600   30.7170   44.0730 C   0  0  1  0  0  0  0  0  0  0  0  0
   44.6890   31.2770   44.8880 H   0  0  0  0  0  0  0  0  0  0  0  0
   45.0570   29.4470   43.1410 H   0  0  0  0  0  0  0  0  0  0  0  0
   45.8590   30.5990   41.9710 H   0  0  0  0  0  0  0  0  0  0  0  0
   46.8710   29.8200   44.6720 H   0  0  0  0  0  0  0  0  0  0  0  0
   45.5210   33.2900   42.1970 C   0  0  0  0  0  0  0  0  0  0  0  0
   45.4110   32.9040   43.5610 C   0  0  0  0  0  0  0  0  0  0  0  0
   45.3690   33.9010   44.5080 C   0  0  0  0  0  0  0  0  0  0  0  0
   45.4370   35.1920   44.1080 N   0  0  0  0  0  0  0  0  0  0  0  0
   45.5420   35.5520   42.8090 C   0  0  0  0  0  0  0  0  0  0  0  0
   45.5850   34.5620   41.8230 N   0  0  0  0  0  0  0  0  0  0  0  0
   45.5490   32.5230   41.4670 H   0  0  0  0  0  0  0  0  0  0  0  0
   45.2860   33.6520   45.5540 H   0  0  0  0  0  0  0  0  0  0  0  0
   45.5830   36.6170   42.6660 H   0  0  0  0  0  0  0  0  0  0  0  0
  1  4  1  6  0  0  0
  1 23  1  0  0  0  0
  2  1  1  0  0  0  0
  2  5  1  0  0  0  0
  3  7  1  1  0  0  0
  3  2  1  0  0  0  0
  3  1  1  0  0  0  0
  6  2  1  0  0  0  0
  8  3  1  0  0  0  0
  9  8  1  0  0  0  0
  9 10  1  0  0  0  0
 11  9  2  0  0  0  0
 12 11  1  0  0  0  0
 12 18  1  0  0  0  0
 13 14  1  0  0  0  0
 13 12  2  0  0  0  0
 14 15  2  0  0  0  0
 15 17  1  0  0  0  0
 16 15  1  0  0  0  0
 18 17  2  0  0  0  0
 18  8  1  0  0  0  0
 19 13  1  0  0  0  0
 20 19  1  0  0  0  0
 21 19  1  0  0  0  0
 22 28  1  0  0  0  0
 23 22  1  0  0  0  0
 23 24  2  0  0  0  0
 25 22  1  0  0  0  0
 26 28  1  0  0  0  0
 26 29  1  1  0  0  0
 27 30  1  0  0  0  0
 27 26  1  0  0  0  0
 27 28  1  0  0  0  0
 28 32  1  1  0  0  0
 31 27  1  0  0  0  0
 33 34  1  0  0  0  0
 34 26  1  0  0  0  0
 34 35  2  0  0  0  0
 35 40  1  0  0  0  0
 36 35  1  0  0  0  0
 37 36  2  0  0  0  0
 38 33  2  0  0  0  0
 38 37  1  0  0  0  0
 39 33  1  0  0  0  0
 41 37  1  0  0  0  0
M  END
>  <minimizedAffinity>
-4.41030312

>  <minimizedRMSD>
3.56890488

$$$$
