
 OpenBabel03252501363D

 40 43  0  0  0  0  0  0  0  0999 V2000
   42.9960   35.0840   39.6330 Cl  0  0  0  0  0  0  0  0  0  0  0  0
   43.0390   33.7190   40.7240 C   0  0  0  0  0  0  0  0  0  0  0  0
   44.2060   33.3150   41.3610 C   0  0  0  0  0  0  0  0  0  0  0  0
   44.1730   32.2360   42.2050 C   0  0  0  0  0  0  0  0  0  0  0  0
   43.0330   31.5050   42.4720 C   0  0  0  0  0  0  0  0  0  0  0  0
   41.8550   31.8870   41.8490 C   0  0  0  0  0  0  0  0  0  0  0  0
   40.3520   31.0260   42.1220 Cl  0  0  0  0  0  0  0  0  0  0  0  0
   41.9030   32.9690   41.0070 C   0  0  0  0  0  0  0  0  0  0  0  0
   45.1180   31.9640   42.6780 H   0  0  0  0  0  0  0  0  0  0  0  0
   43.0120   30.6580   43.1360 H   0  0  0  0  0  0  0  0  0  0  0  0
   40.7070   33.4130   40.3300 N   0  0  0  0  0  0  0  0  0  0  0  0
   39.8510   34.4450   40.5390 C   0  0  0  0  0  0  0  0  0  0  0  0
   40.0190   35.1300   41.3560 H   0  0  0  0  0  0  0  0  0  0  0  0
   38.8930   34.3890   39.5970 N   0  0  0  0  0  0  0  0  0  0  0  0
   39.1300   33.3320   38.7930 C   0  0  0  0  0  0  0  0  0  0  0  0
   38.5010   32.7950   37.6890 C   0  0  0  0  0  0  0  0  0  0  0  0
   38.9870   31.6890   37.0670 N   0  0  0  0  0  0  0  0  0  0  0  0
   40.0940   31.1000   37.5200 C   0  0  0  0  0  0  0  0  0  0  0  0
   40.6200   30.2290   37.1620 H   0  0  0  0  0  0  0  0  0  0  0  0
   40.7210   31.5970   38.5830 N   0  0  0  0  0  0  0  0  0  0  0  0
   40.2910   32.7040   39.2570 C   0  0  0  0  0  0  0  0  0  0  0  0
   37.3160   33.4030   37.1830 N   0  0  0  0  0  0  0  0  0  0  0  0
   37.4250   33.5970   36.1440 H   0  0  0  0  0  0  0  0  0  0  0  0
   36.5190   33.5850   37.8340 H   0  0  0  0  0  0  0  0  0  0  0  0
   45.3450   34.0530   41.0870 O   0  0  0  0  0  0  0  0  0  0  0  0
   46.2170   33.5920   40.0920 C   0  0  0  0  0  0  0  0  0  0  0  0
   46.0820   32.5120   39.4160 O   0  0  0  0  0  0  0  0  0  0  0  0
   47.3930   34.3230   39.7250 N   0  0  0  0  0  0  0  0  0  0  0  0
   47.6260   35.2060   40.1920 H   0  0  0  0  0  0  0  0  0  0  0  0
   48.0770   33.6010   38.6730 C   0  0  0  0  0  0  0  0  0  0  0  0
   49.1410   32.7460   38.9010 C   0  0  0  0  0  0  0  0  0  0  0  0
   49.6810   32.1350   37.7740 C   0  0  0  0  0  0  0  0  0  0  0  0
   49.1430   32.4130   36.5810 N   0  0  0  0  0  0  0  0  0  0  0  0
   48.1070   33.2520   36.4050 C   0  0  0  0  0  0  0  0  0  0  0  0
   47.5520   33.8690   37.4810 N   0  0  0  0  0  0  0  0  0  0  0  0
   50.5090   31.4710   37.9580 H   0  0  0  0  0  0  0  0  0  0  0  0
   47.7370   33.4160   35.4010 H   0  0  0  0  0  0  0  0  0  0  0  0
   49.5820   32.5700   40.2330 N   0  0  0  0  0  0  0  0  0  0  0  0
   48.8830   32.5930   41.0000 H   0  0  0  0  0  0  0  0  0  0  0  0
   50.5850   32.4120   40.5380 H   0  0  0  0  0  0  0  0  0  0  0  0
  1  2  1  0  0  0  0
  2  8  2  0  0  0  0
  2  3  1  0  0  0  0
  3  4  2  0  0  0  0
  4  5  1  0  0  0  0
  4  9  1  0  0  0  0
  5 10  1  0  0  0  0
  6  7  1  0  0  0  0
  6  5  2  0  0  0  0
  8  6  1  0  0  0  0
 11 12  1  0  0  0  0
 11  8  1  0  0  0  0
 12 13  1  0  0  0  0
 14 12  2  0  0  0  0
 15 21  1  0  0  0  0
 15 14  1  0  0  0  0
 16 15  2  0  0  0  0
 17 18  2  0  0  0  0
 17 16  1  0  0  0  0
 18 20  1  0  0  0  0
 19 18  1  0  0  0  0
 20 21  2  0  0  0  0
 21 11  1  0  0  0  0
 22 16  1  0  0  0  0
 22 24  1  0  0  0  0
 23 22  1  0  0  0  0
 25  3  1  0  0  0  0
 26 25  1  0  0  0  0
 27 26  2  0  0  0  0
 28 26  1  0  0  0  0
 28 29  1  0  0  0  0
 30 31  1  0  0  0  0
 30 28  1  0  0  0  0
 31 38  1  0  0  0  0
 32 36  1  0  0  0  0
 32 31  2  0  0  0  0
 33 32  1  0  0  0  0
 34 33  2  0  0  0  0
 34 35  1  0  0  0  0
 35 30  2  0  0  0  0
 37 34  1  0  0  0  0
 38 40  1  0  0  0  0
 38 39  1  0  0  0  0
M  END
>  <minimizedAffinity>
-5.33324337

>  <minimizedRMSD>
5.0703187

$$$$
