
 OpenBabel03252501363D

 40 43  0  0  0  0  0  0  0  0999 V2000
   42.6050   31.4010   38.7380 Cl  0  0  0  0  0  0  0  0  0  0  0  0
   41.6960   32.8730   38.9890 C   0  0  0  0  0  0  0  0  0  0  0  0
   42.3100   34.0800   39.2990 C   0  0  0  0  0  0  0  0  0  0  0  0
   41.5400   35.1990   39.4840 C   0  0  0  0  0  0  0  0  0  0  0  0
   40.1630   35.2090   39.3800 C   0  0  0  0  0  0  0  0  0  0  0  0
   39.5260   34.0170   39.0720 C   0  0  0  0  0  0  0  0  0  0  0  0
   37.7820   33.9230   38.9180 Cl  0  0  0  0  0  0  0  0  0  0  0  0
   40.3090   32.9050   38.8900 C   0  0  0  0  0  0  0  0  0  0  0  0
   42.0750   36.1190   39.7240 H   0  0  0  0  0  0  0  0  0  0  0  0
   39.5630   36.0900   39.5260 H   0  0  0  0  0  0  0  0  0  0  0  0
   39.7010   31.6360   38.5670 N   0  0  0  0  0  0  0  0  0  0  0  0
   39.3940   31.0240   37.3950 C   0  0  0  0  0  0  0  0  0  0  0  0
   39.6130   31.5130   36.4580 H   0  0  0  0  0  0  0  0  0  0  0  0
   38.8310   29.8370   37.6810 N   0  0  0  0  0  0  0  0  0  0  0  0
   38.7780   29.6870   39.0190 C   0  0  0  0  0  0  0  0  0  0  0  0
   38.3200   28.6980   39.8660 C   0  0  0  0  0  0  0  0  0  0  0  0
   38.4010   28.8290   41.2140 N   0  0  0  0  0  0  0  0  0  0  0  0
   38.9310   29.9290   41.7480 C   0  0  0  0  0  0  0  0  0  0  0  0
   39.0780   30.2070   42.7790 H   0  0  0  0  0  0  0  0  0  0  0  0
   39.3820   30.8990   40.9550 N   0  0  0  0  0  0  0  0  0  0  0  0
   39.3330   30.8360   39.5930 C   0  0  0  0  0  0  0  0  0  0  0  0
   37.7470   27.5110   39.3220 N   0  0  0  0  0  0  0  0  0  0  0  0
   38.2260   26.6580   39.7370 H   0  0  0  0  0  0  0  0  0  0  0  0
   36.9740   27.5920   38.6260 H   0  0  0  0  0  0  0  0  0  0  0  0
   43.6900   34.0610   39.4010 O   0  0  0  0  0  0  0  0  0  0  0  0
   44.2650   33.9650   40.6750 C   0  0  0  0  0  0  0  0  0  0  0  0
   44.1380   32.9800   41.4840 O   0  0  0  0  0  0  0  0  0  0  0  0
   45.0840   35.0100   41.2120 N   0  0  0  0  0  0  0  0  0  0  0  0
   45.2650   35.8620   40.6700 H   0  0  0  0  0  0  0  0  0  0  0  0
   45.5320   34.6160   42.5310 C   0  0  0  0  0  0  0  0  0  0  0  0
   44.8120   34.8610   43.6870 C   0  0  0  0  0  0  0  0  0  0  0  0
   45.3920   34.4140   44.8690 C   0  0  0  0  0  0  0  0  0  0  0  0
   46.5760   33.7960   44.8020 N   0  0  0  0  0  0  0  0  0  0  0  0
   47.2430   33.5790   43.6550 C   0  0  0  0  0  0  0  0  0  0  0  0
   46.7100   34.0010   42.4780 N   0  0  0  0  0  0  0  0  0  0  0  0
   44.8260   34.6070   45.7660 H   0  0  0  0  0  0  0  0  0  0  0  0
   48.1970   33.0700   43.6970 H   0  0  0  0  0  0  0  0  0  0  0  0
   43.5720   35.5300   43.5700 N   0  0  0  0  0  0  0  0  0  0  0  0
   42.9850   35.3590   42.7320 H   0  0  0  0  0  0  0  0  0  0  0  0
   43.1680   36.2120   44.2750 H   0  0  0  0  0  0  0  0  0  0  0  0
  1  2  1  0  0  0  0
  2  3  1  0  0  0  0
  3 25  1  0  0  0  0
  3  4  2  0  0  0  0
  4  9  1  0  0  0  0
  5  4  1  0  0  0  0
  5 10  1  0  0  0  0
  6  5  2  0  0  0  0
  7  6  1  0  0  0  0
  8  2  2  0  0  0  0
  8  6  1  0  0  0  0
 11  8  1  0  0  0  0
 11 21  1  0  0  0  0
 12 14  2  0  0  0  0
 12 11  1  0  0  0  0
 13 12  1  0  0  0  0
 14 15  1  0  0  0  0
 15 21  2  0  0  0  0
 15 16  1  0  0  0  0
 16 17  2  0  0  0  0
 17 18  1  0  0  0  0
 18 19  1  0  0  0  0
 20 18  2  0  0  0  0
 21 20  1  0  0  0  0
 22 23  1  0  0  0  0
 22 16  1  0  0  0  0
 24 22  1  0  0  0  0
 25 26  1  0  0  0  0
 26 28  1  0  0  0  0
 26 27  2  0  0  0  0
 28 30  1  0  0  0  0
 29 28  1  0  0  0  0
 30 31  1  0  0  0  0
 31 32  2  0  0  0  0
 32 36  1  0  0  0  0
 33 32  1  0  0  0  0
 34 37  1  0  0  0  0
 34 33  2  0  0  0  0
 35 30  2  0  0  0  0
 35 34  1  0  0  0  0
 38 31  1  0  0  0  0
 38 40  1  0  0  0  0
 39 38  1  0  0  0  0
M  END
>  <minimizedAffinity>
-5.70825863

>  <minimizedRMSD>
2.27267957

$$$$
