
 OpenBabel03242523453D

 24 26  0  0  0  0  0  0  0  0999 V2000
   47.7720   33.9380   42.8390 N   0  0  0  0  0  0  0  0  0  0  0  0
   48.9760   34.5330   42.6380 C   0  0  0  0  0  0  0  0  0  0  0  0
   49.3960   35.2290   43.3460 H   0  0  0  0  0  0  0  0  0  0  0  0
   49.4630   34.0870   41.4610 N   0  0  0  0  0  0  0  0  0  0  0  0
   48.6040   33.2210   40.9030 C   0  0  0  0  0  0  0  0  0  0  0  0
   48.5600   32.4780   39.7610 C   0  0  0  0  0  0  0  0  0  0  0  0
   47.5140   31.6630   39.4610 N   0  0  0  0  0  0  0  0  0  0  0  0
   46.4890   31.5780   40.3050 C   0  0  0  0  0  0  0  0  0  0  0  0
   45.5800   31.0020   40.2570 H   0  0  0  0  0  0  0  0  0  0  0  0
   46.5080   32.2930   41.4270 N   0  0  0  0  0  0  0  0  0  0  0  0
   47.5310   33.1230   41.7730 C   0  0  0  0  0  0  0  0  0  0  0  0
   44.8060   35.0530   44.6960 C   0  0  0  0  0  0  0  0  0  0  0  0
   45.7670   34.9260   43.6800 C   0  0  0  0  0  0  0  0  0  0  0  0
   46.8240   34.0320   43.8960 C   0  0  0  0  0  0  0  0  0  0  0  0
   46.8680   33.3410   45.0620 N   0  0  0  0  0  0  0  0  0  0  0  0
   45.9310   33.4900   46.0070 C   0  0  0  0  0  0  0  0  0  0  0  0
   44.9090   34.3390   45.8240 N   0  0  0  0  0  0  0  0  0  0  0  0
   45.6840   35.4990   42.7720 H   0  0  0  0  0  0  0  0  0  0  0  0
   45.9730   32.9380   46.9300 H   0  0  0  0  0  0  0  0  0  0  0  0
   43.7690   35.9230   44.4920 O   0  0  0  0  0  0  0  0  0  0  0  0
   43.0960   35.6430   43.7630 H   0  0  0  0  0  0  0  0  0  0  0  0
   49.6380   32.5420   38.8310 N   0  0  0  0  0  0  0  0  0  0  0  0
   50.5360   32.0560   38.7250 H   0  0  0  0  0  0  0  0  0  0  0  0
   49.2990   33.2830   38.1790 H   0  0  0  0  0  0  0  0  0  0  0  0
  1 14  1  0  0  0  0
  2  1  1  0  0  0  0
  2  3  1  0  0  0  0
  4  2  2  0  0  0  0
  5  4  1  0  0  0  0
  5 11  1  0  0  0  0
  6  5  2  0  0  0  0
  7  6  1  0  0  0  0
  7  8  2  0  0  0  0
  8 10  1  0  0  0  0
  9  8  1  0  0  0  0
 10 11  2  0  0  0  0
 11  1  1  0  0  0  0
 12 17  1  0  0  0  0
 13 14  1  0  0  0  0
 13 12  2  0  0  0  0
 14 15  2  0  0  0  0
 15 16  1  0  0  0  0
 16 19  1  0  0  0  0
 17 16  2  0  0  0  0
 18 13  1  0  0  0  0
 20 12  1  0  0  0  0
 21 20  1  0  0  0  0
 22  6  1  0  0  0  0
 23 22  1  0  0  0  0
 24 22  1  0  0  0  0
M  END
>  <minimizedAffinity>
-4.81599283

>  <minimizedRMSD>
1.00577521

$$$$
