
 OpenBabel03252501363D

 40 43  0  0  0  0  0  0  0  0999 V2000
   43.2110   32.3530   39.4690 Cl  0  0  0  0  0  0  0  0  0  0  0  0
   42.1000   33.6100   39.9620 C   0  0  0  0  0  0  0  0  0  0  0  0
   42.5290   34.7810   40.5740 C   0  0  0  0  0  0  0  0  0  0  0  0
   41.6070   35.7280   40.9370 C   0  0  0  0  0  0  0  0  0  0  0  0
   40.2480   35.5940   40.7310 C   0  0  0  0  0  0  0  0  0  0  0  0
   39.7940   34.4350   40.1220 C   0  0  0  0  0  0  0  0  0  0  0  0
   38.0880   34.1690   39.8140 Cl  0  0  0  0  0  0  0  0  0  0  0  0
   40.7280   33.4960   39.7640 C   0  0  0  0  0  0  0  0  0  0  0  0
   42.0000   36.6270   41.4130 H   0  0  0  0  0  0  0  0  0  0  0  0
   39.5280   36.3410   41.0180 H   0  0  0  0  0  0  0  0  0  0  0  0
   40.3130   32.2690   39.1260 N   0  0  0  0  0  0  0  0  0  0  0  0
   40.2270   31.8790   37.8280 C   0  0  0  0  0  0  0  0  0  0  0  0
   40.5050   32.5620   37.0400 H   0  0  0  0  0  0  0  0  0  0  0  0
   39.7730   30.6140   37.8030 N   0  0  0  0  0  0  0  0  0  0  0  0
   39.5710   30.1950   39.0680 C   0  0  0  0  0  0  0  0  0  0  0  0
   39.1250   29.0210   39.6410 C   0  0  0  0  0  0  0  0  0  0  0  0
   39.0200   28.8860   40.9870 N   0  0  0  0  0  0  0  0  0  0  0  0
   39.3510   29.8990   41.7880 C   0  0  0  0  0  0  0  0  0  0  0  0
   39.3350   29.9770   42.8630 H   0  0  0  0  0  0  0  0  0  0  0  0
   39.7840   31.0440   41.2640 N   0  0  0  0  0  0  0  0  0  0  0  0
   39.9140   31.2500   39.9210 C   0  0  0  0  0  0  0  0  0  0  0  0
   38.7640   27.9210   38.8100 N   0  0  0  0  0  0  0  0  0  0  0  0
   39.2810   27.0480   39.1220 H   0  0  0  0  0  0  0  0  0  0  0  0
   38.0790   28.0710   38.0350 H   0  0  0  0  0  0  0  0  0  0  0  0
   43.8930   34.9060   40.7780 O   0  0  0  0  0  0  0  0  0  0  0  0
   44.4390   34.4120   41.9700 C   0  0  0  0  0  0  0  0  0  0  0  0
   44.1830   33.2740   42.4970 O   0  0  0  0  0  0  0  0  0  0  0  0
   45.3750   35.1740   42.7400 N   0  0  0  0  0  0  0  0  0  0  0  0
   45.6650   36.1100   42.4330 H   0  0  0  0  0  0  0  0  0  0  0  0
   45.7580   34.4000   43.9010 C   0  0  0  0  0  0  0  0  0  0  0  0
   45.1770   34.5530   45.1470 C   0  0  0  0  0  0  0  0  0  0  0  0
   45.6680   33.7250   46.1520 C   0  0  0  0  0  0  0  0  0  0  0  0
   46.6440   32.8640   45.8450 N   0  0  0  0  0  0  0  0  0  0  0  0
   47.1810   32.7480   44.6180 C   0  0  0  0  0  0  0  0  0  0  0  0
   46.7290   33.5390   43.6100 N   0  0  0  0  0  0  0  0  0  0  0  0
   45.2100   33.8500   47.1200 H   0  0  0  0  0  0  0  0  0  0  0  0
   47.9680   32.0220   44.4630 H   0  0  0  0  0  0  0  0  0  0  0  0
   44.1530   35.5180   45.2910 N   0  0  0  0  0  0  0  0  0  0  0  0
   43.5070   35.6870   44.4970 H   0  0  0  0  0  0  0  0  0  0  0  0
   43.9730   36.1050   46.1560 H   0  0  0  0  0  0  0  0  0  0  0  0
  1  2  1  0  0  0  0
  2  3  1  0  0  0  0
  3 25  1  0  0  0  0
  3  4  2  0  0  0  0
  4  9  1  0  0  0  0
  5  4  1  0  0  0  0
  5 10  1  0  0  0  0
  6  5  2  0  0  0  0
  7  6  1  0  0  0  0
  8  2  2  0  0  0  0
  8  6  1  0  0  0  0
 11  8  1  0  0  0  0
 11 21  1  0  0  0  0
 12 11  1  0  0  0  0
 13 12  1  0  0  0  0
 14 12  2  0  0  0  0
 14 15  1  0  0  0  0
 15 16  2  0  0  0  0
 15 21  1  0  0  0  0
 16 17  1  0  0  0  0
 17 18  2  0  0  0  0
 18 19  1  0  0  0  0
 20 18  1  0  0  0  0
 21 20  2  0  0  0  0
 22 23  1  0  0  0  0
 22 16  1  0  0  0  0
 24 22  1  0  0  0  0
 25 26  1  0  0  0  0
 26 27  2  0  0  0  0
 26 28  1  0  0  0  0
 28 30  1  0  0  0  0
 29 28  1  0  0  0  0
 30 31  1  0  0  0  0
 31 38  1  0  0  0  0
 31 32  2  0  0  0  0
 32 36  1  0  0  0  0
 33 32  1  0  0  0  0
 34 33  2  0  0  0  0
 35 30  2  0  0  0  0
 35 34  1  0  0  0  0
 37 34  1  0  0  0  0
 38 40  1  0  0  0  0
 39 38  1  0  0  0  0
M  END
>  <minimizedAffinity>
-6.43913651

>  <minimizedRMSD>
1.61960208

$$$$
