
 OpenBabel03242523463D

 24 26  0  0  0  0  0  0  0  0999 V2000
   45.6750   33.0480   46.1760 N   0  0  0  0  0  0  0  0  0  0  0  0
   45.2130   33.4430   47.3900 C   0  0  0  0  0  0  0  0  0  0  0  0
   44.9930   34.4750   47.6110 H   0  0  0  0  0  0  0  0  0  0  0  0
   45.1080   32.3440   48.1690 N   0  0  0  0  0  0  0  0  0  0  0  0
   45.4910   31.2550   47.4850 C   0  0  0  0  0  0  0  0  0  0  0  0
   45.5950   29.9210   47.7390 C   0  0  0  0  0  0  0  0  0  0  0  0
   46.0320   29.0320   46.8080 N   0  0  0  0  0  0  0  0  0  0  0  0
   46.3750   29.4690   45.5990 C   0  0  0  0  0  0  0  0  0  0  0  0
   46.7390   28.9390   44.7340 H   0  0  0  0  0  0  0  0  0  0  0  0
   46.2830   30.7670   45.3240 N   0  0  0  0  0  0  0  0  0  0  0  0
   45.8520   31.6970   46.2210 C   0  0  0  0  0  0  0  0  0  0  0  0
   45.2870   35.4850   43.4560 C   0  0  0  0  0  0  0  0  0  0  0  0
   45.0370   34.7480   44.6240 C   0  0  0  0  0  0  0  0  0  0  0  0
   45.9720   33.7680   44.9850 C   0  0  0  0  0  0  0  0  0  0  0  0
   47.0600   33.5810   44.1990 N   0  0  0  0  0  0  0  0  0  0  0  0
   47.2630   34.3060   43.0910 C   0  0  0  0  0  0  0  0  0  0  0  0
   46.3840   35.2490   42.7240 N   0  0  0  0  0  0  0  0  0  0  0  0
   44.1560   34.9370   45.2140 H   0  0  0  0  0  0  0  0  0  0  0  0
   48.1300   34.1510   42.4710 H   0  0  0  0  0  0  0  0  0  0  0  0
   44.3800   36.4440   43.0960 O   0  0  0  0  0  0  0  0  0  0  0  0
   44.3390   37.2670   43.7170 H   0  0  0  0  0  0  0  0  0  0  0  0
   45.2360   29.4140   49.0220 N   0  0  0  0  0  0  0  0  0  0  0  0
   44.3650   29.1000   49.4620 H   0  0  0  0  0  0  0  0  0  0  0  0
   46.1610   29.4220   49.5060 H   0  0  0  0  0  0  0  0  0  0  0  0
  1 11  1  0  0  0  0
  1  2  1  0  0  0  0
  2  3  1  0  0  0  0
  2  4  2  0  0  0  0
  5  6  1  0  0  0  0
  5  4  1  0  0  0  0
  6 22  1  0  0  0  0
  7  6  2  0  0  0  0
  8  7  1  0  0  0  0
  9  8  1  0  0  0  0
 10  8  2  0  0  0  0
 10 11  1  0  0  0  0
 11  5  2  0  0  0  0
 12 13  1  0  0  0  0
 13 14  2  0  0  0  0
 13 18  1  0  0  0  0
 14  1  1  0  0  0  0
 15 14  1  0  0  0  0
 16 15  2  0  0  0  0
 17 16  1  0  0  0  0
 17 12  2  0  0  0  0
 19 16  1  0  0  0  0
 20 12  1  0  0  0  0
 20 21  1  0  0  0  0
 22 23  1  0  0  0  0
 22 24  1  0  0  0  0
M  END
>  <minimizedAffinity>
-4.97404671

>  <minimizedRMSD>
6.18618631

$$$$
