
 OpenBabel03252501363D

 40 43  0  0  0  0  0  0  0  0999 V2000
   43.3330   32.5580   39.4770 Cl  0  0  0  0  0  0  0  0  0  0  0  0
   42.1780   33.7650   39.9910 C   0  0  0  0  0  0  0  0  0  0  0  0
   42.5630   34.9240   40.6540 C   0  0  0  0  0  0  0  0  0  0  0  0
   41.6080   35.8320   41.0310 C   0  0  0  0  0  0  0  0  0  0  0  0
   40.2580   35.6700   40.7920 C   0  0  0  0  0  0  0  0  0  0  0  0
   39.8480   34.5210   40.1320 C   0  0  0  0  0  0  0  0  0  0  0  0
   38.1570   34.2210   39.7800 Cl  0  0  0  0  0  0  0  0  0  0  0  0
   40.8150   33.6220   39.7610 C   0  0  0  0  0  0  0  0  0  0  0  0
   41.9670   36.7240   41.5480 H   0  0  0  0  0  0  0  0  0  0  0  0
   39.5120   36.3860   41.0900 H   0  0  0  0  0  0  0  0  0  0  0  0
   40.4470   32.4080   39.0710 N   0  0  0  0  0  0  0  0  0  0  0  0
   40.3820   32.0690   37.7580 C   0  0  0  0  0  0  0  0  0  0  0  0
   40.6420   32.7920   37.0000 H   0  0  0  0  0  0  0  0  0  0  0  0
   39.9730   30.7900   37.6780 N   0  0  0  0  0  0  0  0  0  0  0  0
   39.7770   30.3140   38.9230 C   0  0  0  0  0  0  0  0  0  0  0  0
   39.3680   29.1030   39.4430 C   0  0  0  0  0  0  0  0  0  0  0  0
   39.2600   28.9100   40.7840 N   0  0  0  0  0  0  0  0  0  0  0  0
   39.5500   29.9010   41.6270 C   0  0  0  0  0  0  0  0  0  0  0  0
   39.5240   29.9330   42.7040 H   0  0  0  0  0  0  0  0  0  0  0  0
   39.9470   31.0790   41.1530 N   0  0  0  0  0  0  0  0  0  0  0  0
   40.0780   31.3450   39.8200 C   0  0  0  0  0  0  0  0  0  0  0  0
   39.0510   28.0260   38.5670 N   0  0  0  0  0  0  0  0  0  0  0  0
   39.5960   27.1590   38.8470 H   0  0  0  0  0  0  0  0  0  0  0  0
   38.3660   28.1840   37.7940 H   0  0  0  0  0  0  0  0  0  0  0  0
   43.9180   35.0790   40.8900 O   0  0  0  0  0  0  0  0  0  0  0  0
   44.4580   34.5400   42.0660 C   0  0  0  0  0  0  0  0  0  0  0  0
   44.1040   33.4400   42.6180 O   0  0  0  0  0  0  0  0  0  0  0  0
   45.5010   35.2030   42.7870 N   0  0  0  0  0  0  0  0  0  0  0  0
   45.8770   36.0990   42.4570 H   0  0  0  0  0  0  0  0  0  0  0  0
   45.8480   34.4020   43.9420 C   0  0  0  0  0  0  0  0  0  0  0  0
   45.2180   34.5190   45.1690 C   0  0  0  0  0  0  0  0  0  0  0  0
   45.6780   33.6690   46.1700 C   0  0  0  0  0  0  0  0  0  0  0  0
   46.6730   32.8240   45.8790 N   0  0  0  0  0  0  0  0  0  0  0  0
   47.2570   32.7440   44.6700 C   0  0  0  0  0  0  0  0  0  0  0  0
   46.8360   33.5560   43.6660 N   0  0  0  0  0  0  0  0  0  0  0  0
   45.1840   33.7650   47.1230 H   0  0  0  0  0  0  0  0  0  0  0  0
   48.0550   32.0280   44.5260 H   0  0  0  0  0  0  0  0  0  0  0  0
   44.1820   35.4710   45.2980 N   0  0  0  0  0  0  0  0  0  0  0  0
   43.5640   35.6560   44.4850 H   0  0  0  0  0  0  0  0  0  0  0  0
   43.9640   36.0350   46.1700 H   0  0  0  0  0  0  0  0  0  0  0  0
  1  2  1  0  0  0  0
  2  3  1  0  0  0  0
  3 25  1  0  0  0  0
  3  4  2  0  0  0  0
  4  9  1  0  0  0  0
  5  4  1  0  0  0  0
  5 10  1  0  0  0  0
  6  5  2  0  0  0  0
  7  6  1  0  0  0  0
  8  2  2  0  0  0  0
  8  6  1  0  0  0  0
 11  8  1  0  0  0  0
 11 21  1  0  0  0  0
 12 11  1  0  0  0  0
 13 12  1  0  0  0  0
 14 12  2  0  0  0  0
 14 15  1  0  0  0  0
 15 16  2  0  0  0  0
 15 21  1  0  0  0  0
 16 17  1  0  0  0  0
 17 18  2  0  0  0  0
 18 19  1  0  0  0  0
 20 18  1  0  0  0  0
 21 20  2  0  0  0  0
 22 23  1  0  0  0  0
 22 16  1  0  0  0  0
 24 22  1  0  0  0  0
 25 26  1  0  0  0  0
 26 27  2  0  0  0  0
 26 28  1  0  0  0  0
 28 30  1  0  0  0  0
 29 28  1  0  0  0  0
 30 31  1  0  0  0  0
 31 38  1  0  0  0  0
 31 32  2  0  0  0  0
 32 36  1  0  0  0  0
 33 32  1  0  0  0  0
 34 33  2  0  0  0  0
 35 30  2  0  0  0  0
 35 34  1  0  0  0  0
 37 34  1  0  0  0  0
 38 40  1  0  0  0  0
 39 38  1  0  0  0  0
M  END
>  <minimizedAffinity>
-6.42442417

>  <minimizedRMSD>
2.85610127

$$$$
