
 OpenBabel03242523353D

 42 46  0  0  0  0  0  0  0  0999 V2000
   36.3250   30.7230   40.3930 C   0  0  0  0  0  0  0  0  0  0  0  0
   37.2410   31.2740   39.4730 C   0  0  0  0  0  0  0  0  0  0  0  0
   38.6090   31.2430   39.7630 C   0  0  0  0  0  0  0  0  0  0  0  0
   39.0350   30.6740   40.9420 N   0  0  0  0  0  0  0  0  0  0  0  0
   38.1120   30.1570   41.7950 C   0  0  0  0  0  0  0  0  0  0  0  0
   36.7890   30.1860   41.5190 N   0  0  0  0  0  0  0  0  0  0  0  0
   35.2660   30.7430   40.1780 H   0  0  0  0  0  0  0  0  0  0  0  0
   36.9190   31.7200   38.5510 H   0  0  0  0  0  0  0  0  0  0  0  0
   39.5920   31.7780   38.8850 N   0  0  0  0  0  0  0  0  0  0  0  0
   40.0270   31.1690   37.7450 C   0  0  0  0  0  0  0  0  0  0  0  0
   39.6780   30.1970   37.3650 H   0  0  0  0  0  0  0  0  0  0  0  0
   40.9640   31.9730   37.1710 N   0  0  0  0  0  0  0  0  0  0  0  0
   41.1110   33.0780   37.9480 C   0  0  0  0  0  0  0  0  0  0  0  0
   41.9210   34.2100   37.8390 C   0  0  0  0  0  0  0  0  0  0  0  0
   41.8530   35.1530   38.7710 N   0  0  0  0  0  0  0  0  0  0  0  0
   41.0120   35.0350   39.8230 C   0  0  0  0  0  0  0  0  0  0  0  0
   40.9370   35.8040   40.6070 H   0  0  0  0  0  0  0  0  0  0  0  0
   40.2260   33.9340   39.9270 N   0  0  0  0  0  0  0  0  0  0  0  0
   40.2500   32.9450   39.0160 C   0  0  0  0  0  0  0  0  0  0  0  0
   42.7950   34.3000   36.7170 N   0  0  0  0  0  0  0  0  0  0  0  0
   42.6310   35.2410   36.2510 H   0  0  0  0  0  0  0  0  0  0  0  0
   43.5150   33.6760   36.2860 H   0  0  0  0  0  0  0  0  0  0  0  0
   38.6530   29.5590   43.0440 C   0  0  0  0  0  0  0  0  0  0  0  0
   39.6560   29.2230   42.7950 H   0  0  0  0  0  0  0  0  0  0  0  0
   38.7070   30.3730   43.8020 H   0  0  0  0  0  0  0  0  0  0  0  0
   37.5000   28.2890   43.5760 S   0  0  0  0  0  0  0  0  0  0  0  0
   37.8350   26.7390   42.7620 C   0  0  0  0  0  0  0  0  0  0  0  0
   39.0480   26.1350   43.0100 C   0  0  0  0  0  0  0  0  0  0  0  0
   39.3050   24.9510   42.3860 C   0  0  0  0  0  0  0  0  0  0  0  0
   38.3860   24.3440   41.5180 C   0  0  0  0  0  0  0  0  0  0  0  0
   38.7060   23.1690   40.9330 N   0  0  0  0  0  0  0  0  0  0  0  0
   37.8380   22.5650   40.0930 C   0  0  0  0  0  0  0  0  0  0  0  0
   36.6230   23.1650   39.8430 C   0  0  0  0  0  0  0  0  0  0  0  0
   36.3120   24.3580   40.4440 C   0  0  0  0  0  0  0  0  0  0  0  0
   37.1920   25.0040   41.3160 C   0  0  0  0  0  0  0  0  0  0  0  0
   36.8960   26.1960   41.9250 C   0  0  0  0  0  0  0  0  0  0  0  0
   39.8350   26.5000   43.6550 H   0  0  0  0  0  0  0  0  0  0  0  0
   40.2470   24.4150   42.5360 H   0  0  0  0  0  0  0  0  0  0  0  0
   38.0530   21.6220   39.6030 H   0  0  0  0  0  0  0  0  0  0  0  0
   35.8570   22.7590   39.1830 H   0  0  0  0  0  0  0  0  0  0  0  0
   35.3640   24.8480   40.2620 H   0  0  0  0  0  0  0  0  0  0  0  0
   35.9470   26.6790   41.7370 H   0  0  0  0  0  0  0  0  0  0  0  0
  1  6  1  0  0  0  0
  2  3  1  0  0  0  0
  2  1  2  0  0  0  0
  3  4  2  0  0  0  0
  4  5  1  0  0  0  0
  5 23  1  0  0  0  0
  6  5  2  0  0  0  0
  7  1  1  0  0  0  0
  8  2  1  0  0  0  0
  9 19  1  0  0  0  0
  9  3  1  0  0  0  0
 10  9  1  0  0  0  0
 11 10  1  0  0  0  0
 12 10  2  0  0  0  0
 12 13  1  0  0  0  0
 13 19  1  0  0  0  0
 14 13  2  0  0  0  0
 14 15  1  0  0  0  0
 15 16  2  0  0  0  0
 16 18  1  0  0  0  0
 16 17  1  0  0  0  0
 19 18  2  0  0  0  0
 20 14  1  0  0  0  0
 21 20  1  0  0  0  0
 22 20  1  0  0  0  0
 23 26  1  0  0  0  0
 23 25  1  0  0  0  0
 24 23  1  0  0  0  0
 27 28  1  0  0  0  0
 27 26  1  0  0  0  0
 28 37  1  0  0  0  0
 29 38  1  0  0  0  0
 29 28  2  0  0  0  0
 30 29  1  0  0  0  0
 31 30  2  0  0  0  0
 32 31  1  0  0  0  0
 33 32  2  0  0  0  0
 33 34  1  0  0  0  0
 34 35  2  0  0  0  0
 35 30  1  0  0  0  0
 35 36  1  0  0  0  0
 36 27  2  0  0  0  0
 39 32  1  0  0  0  0
 40 33  1  0  0  0  0
 41 34  1  0  0  0  0
 42 36  1  0  0  0  0
M  END
>  <minimizedAffinity>
-7.46525621

$$$$

 OpenBabel03242523353D

 42 46  0  0  0  0  0  0  0  0999 V2000
   36.4280   30.8060   40.8480 C   0  0  0  0  0  0  0  0  0  0  0  0
   37.2510   31.7960   40.2740 C   0  0  0  0  0  0  0  0  0  0  0  0
   38.6040   31.8540   40.6250 C   0  0  0  0  0  0  0  0  0  0  0  0
   39.1060   30.9430   41.5270 N   0  0  0  0  0  0  0  0  0  0  0  0
   38.2700   30.0080   42.0510 C   0  0  0  0  0  0  0  0  0  0  0  0
   36.9630   29.9490   41.7150 N   0  0  0  0  0  0  0  0  0  0  0  0
   35.3820   30.7540   40.5830 H   0  0  0  0  0  0  0  0  0  0  0  0
   36.8700   32.5130   39.5700 H   0  0  0  0  0  0  0  0  0  0  0  0
   39.4960   32.8240   40.0880 N   0  0  0  0  0  0  0  0  0  0  0  0
   39.6280   34.0980   40.5550 C   0  0  0  0  0  0  0  0  0  0  0  0
   39.0670   34.5340   41.3950 H   0  0  0  0  0  0  0  0  0  0  0  0
   40.5690   34.7270   39.7980 N   0  0  0  0  0  0  0  0  0  0  0  0
   41.0220   33.8490   38.8650 C   0  0  0  0  0  0  0  0  0  0  0  0
   41.9720   33.9560   37.8480 C   0  0  0  0  0  0  0  0  0  0  0  0
   42.2150   32.9090   37.0690 N   0  0  0  0  0  0  0  0  0  0  0  0
   41.5580   31.7410   37.2460 C   0  0  0  0  0  0  0  0  0  0  0  0
   41.7430   30.8590   36.6130 H   0  0  0  0  0  0  0  0  0  0  0  0
   40.6360   31.6390   38.2340 N   0  0  0  0  0  0  0  0  0  0  0  0
   40.3450   32.6640   39.0560 C   0  0  0  0  0  0  0  0  0  0  0  0
   42.6450   35.2030   37.6910 N   0  0  0  0  0  0  0  0  0  0  0  0
   43.6900   35.0100   37.6800 H   0  0  0  0  0  0  0  0  0  0  0  0
   42.3450   36.2000   37.5920 H   0  0  0  0  0  0  0  0  0  0  0  0
   38.8890   29.0590   43.0140 C   0  0  0  0  0  0  0  0  0  0  0  0
   39.7660   28.6640   42.5090 H   0  0  0  0  0  0  0  0  0  0  0  0
   39.2040   29.6510   43.9040 H   0  0  0  0  0  0  0  0  0  0  0  0
   37.6310   27.8630   43.4760 S   0  0  0  0  0  0  0  0  0  0  0  0
   37.8610   26.3250   42.6050 C   0  0  0  0  0  0  0  0  0  0  0  0
   39.0370   25.6400   42.8160 C   0  0  0  0  0  0  0  0  0  0  0  0
   39.2140   24.4650   42.1490 C   0  0  0  0  0  0  0  0  0  0  0  0
   38.2500   23.9460   41.2730 C   0  0  0  0  0  0  0  0  0  0  0  0
   38.4900   22.7740   40.6440 N   0  0  0  0  0  0  0  0  0  0  0  0
   37.5770   22.2540   39.7960 C   0  0  0  0  0  0  0  0  0  0  0  0
   36.3990   22.9360   39.5820 C   0  0  0  0  0  0  0  0  0  0  0  0
   36.1680   24.1240   40.2280 C   0  0  0  0  0  0  0  0  0  0  0  0
   37.0960   24.6850   41.1090 C   0  0  0  0  0  0  0  0  0  0  0  0
   36.8810   25.8710   41.7630 C   0  0  0  0  0  0  0  0  0  0  0  0
   39.8530   25.9340   43.4630 H   0  0  0  0  0  0  0  0  0  0  0  0
   40.1230   23.8680   42.2670 H   0  0  0  0  0  0  0  0  0  0  0  0
   37.7280   21.3180   39.2710 H   0  0  0  0  0  0  0  0  0  0  0  0
   35.6010   22.6010   38.9190 H   0  0  0  0  0  0  0  0  0  0  0  0
   35.2500   24.6780   40.0750 H   0  0  0  0  0  0  0  0  0  0  0  0
   35.9610   26.4160   41.6040 H   0  0  0  0  0  0  0  0  0  0  0  0
  1  6  1  0  0  0  0
  2  3  1  0  0  0  0
  2  1  2  0  0  0  0
  3  4  2  0  0  0  0
  4  5  1  0  0  0  0
  5 23  1  0  0  0  0
  6  5  2  0  0  0  0
  7  1  1  0  0  0  0
  8  2  1  0  0  0  0
  9 10  1  0  0  0  0
  9  3  1  0  0  0  0
 10 11  1  0  0  0  0
 12 10  2  0  0  0  0
 13 19  1  0  0  0  0
 13 12  1  0  0  0  0
 14 13  2  0  0  0  0
 15 16  2  0  0  0  0
 15 14  1  0  0  0  0
 16 18  1  0  0  0  0
 17 16  1  0  0  0  0
 18 19  2  0  0  0  0
 19  9  1  0  0  0  0
 20 14  1  0  0  0  0
 21 20  1  0  0  0  0
 22 20  1  0  0  0  0
 23 26  1  0  0  0  0
 23 25  1  0  0  0  0
 24 23  1  0  0  0  0
 27 28  1  0  0  0  0
 27 26  1  0  0  0  0
 28 37  1  0  0  0  0
 29 38  1  0  0  0  0
 29 28  2  0  0  0  0
 30 29  1  0  0  0  0
 31 30  2  0  0  0  0
 32 31  1  0  0  0  0
 33 32  2  0  0  0  0
 33 34  1  0  0  0  0
 34 35  2  0  0  0  0
 35 30  1  0  0  0  0
 35 36  1  0  0  0  0
 36 27  2  0  0  0  0
 39 32  1  0  0  0  0
 40 33  1  0  0  0  0
 41 34  1  0  0  0  0
 42 36  1  0  0  0  0
M  END
>  <minimizedAffinity>
-7.36974955

$$$$

 OpenBabel03242523353D

 42 46  0  0  0  0  0  0  0  0999 V2000
   36.9440   30.3300   36.1880 C   0  0  0  0  0  0  0  0  0  0  0  0
   37.5960   31.3750   36.8750 C   0  0  0  0  0  0  0  0  0  0  0  0
   37.5220   31.4310   38.2700 C   0  0  0  0  0  0  0  0  0  0  0  0
   36.8140   30.4630   38.9470 N   0  0  0  0  0  0  0  0  0  0  0  0
   36.2050   29.4770   38.2380 C   0  0  0  0  0  0  0  0  0  0  0  0
   36.2730   29.4190   36.8890 N   0  0  0  0  0  0  0  0  0  0  0  0
   36.9960   30.2780   35.1090 H   0  0  0  0  0  0  0  0  0  0  0  0
   38.1500   32.1350   36.3570 H   0  0  0  0  0  0  0  0  0  0  0  0
   38.1520   32.4540   39.0320 N   0  0  0  0  0  0  0  0  0  0  0  0
   37.4910   33.4500   39.6880 C   0  0  0  0  0  0  0  0  0  0  0  0
   36.4000   33.5880   39.7110 H   0  0  0  0  0  0  0  0  0  0  0  0
   38.4180   34.2350   40.3020 N   0  0  0  0  0  0  0  0  0  0  0  0
   39.6510   33.7310   40.0320 C   0  0  0  0  0  0  0  0  0  0  0  0
   40.9380   34.1280   40.3990 C   0  0  0  0  0  0  0  0  0  0  0  0
   41.9830   33.4280   39.9760 N   0  0  0  0  0  0  0  0  0  0  0  0
   41.8210   32.3350   39.1970 C   0  0  0  0  0  0  0  0  0  0  0  0
   42.6730   31.7380   38.8350 H   0  0  0  0  0  0  0  0  0  0  0  0
   40.5700   31.9500   38.8420 N   0  0  0  0  0  0  0  0  0  0  0  0
   39.4720   32.6180   39.2370 C   0  0  0  0  0  0  0  0  0  0  0  0
   41.0700   35.2860   41.2210 N   0  0  0  0  0  0  0  0  0  0  0  0
   41.6760   35.0260   42.0530 H   0  0  0  0  0  0  0  0  0  0  0  0
   40.7170   36.2690   41.1780 H   0  0  0  0  0  0  0  0  0  0  0  0
   35.4630   28.4700   39.0420 C   0  0  0  0  0  0  0  0  0  0  0  0
   34.4950   28.3680   38.5600 H   0  0  0  0  0  0  0  0  0  0  0  0
   36.0240   27.5100   38.9650 H   0  0  0  0  0  0  0  0  0  0  0  0
   35.4480   29.0440   40.7440 S   0  0  0  0  0  0  0  0  0  0  0  0
   36.8000   28.3410   41.6680 C   0  0  0  0  0  0  0  0  0  0  0  0
   37.5490   29.1900   42.4520 C   0  0  0  0  0  0  0  0  0  0  0  0
   38.5850   28.6530   43.1580 C   0  0  0  0  0  0  0  0  0  0  0  0
   38.9000   27.2880   43.1060 C   0  0  0  0  0  0  0  0  0  0  0  0
   39.9410   26.8220   43.8320 N   0  0  0  0  0  0  0  0  0  0  0  0
   40.2640   25.5110   43.7990 C   0  0  0  0  0  0  0  0  0  0  0  0
   39.5180   24.6580   43.0160 C   0  0  0  0  0  0  0  0  0  0  0  0
   38.4650   25.1450   42.2840 C   0  0  0  0  0  0  0  0  0  0  0  0
   38.1090   26.4960   42.3000 C   0  0  0  0  0  0  0  0  0  0  0  0
   37.0590   26.9990   41.5760 C   0  0  0  0  0  0  0  0  0  0  0  0
   37.4070   30.2550   42.5760 H   0  0  0  0  0  0  0  0  0  0  0  0
   39.2210   29.2670   43.8010 H   0  0  0  0  0  0  0  0  0  0  0  0
   41.0900   25.0960   44.3650 H   0  0  0  0  0  0  0  0  0  0  0  0
   39.6980   23.5880   42.9210 H   0  0  0  0  0  0  0  0  0  0  0  0
   37.8640   24.4940   41.6610 H   0  0  0  0  0  0  0  0  0  0  0  0
   36.4650   26.3410   40.9560 H   0  0  0  0  0  0  0  0  0  0  0  0
  1  2  2  0  0  0  0
  1  6  1  0  0  0  0
  2  3  1  0  0  0  0
  3  4  2  0  0  0  0
  3  9  1  0  0  0  0
  5  4  1  0  0  0  0
  5 23  1  0  0  0  0
  6  5  2  0  0  0  0
  7  1  1  0  0  0  0
  8  2  1  0  0  0  0
  9 19  1  0  0  0  0
  9 10  1  0  0  0  0
 10 11  1  0  0  0  0
 10 12  2  0  0  0  0
 13 12  1  0  0  0  0
 13 14  1  0  0  0  0
 14 20  1  0  0  0  0
 15 14  2  0  0  0  0
 16 15  1  0  0  0  0
 17 16  1  0  0  0  0
 18 16  2  0  0  0  0
 18 19  1  0  0  0  0
 19 13  2  0  0  0  0
 20 21  1  0  0  0  0
 22 20  1  0  0  0  0
 23 26  1  0  0  0  0
 24 23  1  0  0  0  0
 25 23  1  0  0  0  0
 26 27  1  0  0  0  0
 27 28  1  0  0  0  0
 28 37  1  0  0  0  0
 28 29  2  0  0  0  0
 29 38  1  0  0  0  0
 30 29  1  0  0  0  0
 30 31  1  0  0  0  0
 32 31  2  0  0  0  0
 32 39  1  0  0  0  0
 33 32  1  0  0  0  0
 34 35  1  0  0  0  0
 34 33  2  0  0  0  0
 35 30  2  0  0  0  0
 36 27  2  0  0  0  0
 36 35  1  0  0  0  0
 40 33  1  0  0  0  0
 41 34  1  0  0  0  0
 42 36  1  0  0  0  0
M  END
>  <minimizedAffinity>
-6.94708681

$$$$

 OpenBabel03242523353D

 42 46  0  0  0  0  0  0  0  0999 V2000
   37.3580   30.9200   37.3060 C   0  0  0  0  0  0  0  0  0  0  0  0
   38.5550   31.6640   37.3660 C   0  0  0  0  0  0  0  0  0  0  0  0
   38.9850   32.1760   38.5950 C   0  0  0  0  0  0  0  0  0  0  0  0
   38.2300   31.9430   39.7230 N   0  0  0  0  0  0  0  0  0  0  0  0
   37.0860   31.2200   39.6110 C   0  0  0  0  0  0  0  0  0  0  0  0
   36.6660   30.7250   38.4260 N   0  0  0  0  0  0  0  0  0  0  0  0
   37.0180   30.5210   36.3610 H   0  0  0  0  0  0  0  0  0  0  0  0
   39.1510   31.8510   36.4930 H   0  0  0  0  0  0  0  0  0  0  0  0
   40.1800   32.9350   38.7350 N   0  0  0  0  0  0  0  0  0  0  0  0
   40.2990   34.0610   39.4930 C   0  0  0  0  0  0  0  0  0  0  0  0
   39.4940   34.5220   40.0860 H   0  0  0  0  0  0  0  0  0  0  0  0
   41.5790   34.5090   39.3830 N   0  0  0  0  0  0  0  0  0  0  0  0
   42.2570   33.6650   38.5610 C   0  0  0  0  0  0  0  0  0  0  0  0
   43.5770   33.6430   38.1070 C   0  0  0  0  0  0  0  0  0  0  0  0
   43.9700   32.6730   37.2900 N   0  0  0  0  0  0  0  0  0  0  0  0
   43.1130   31.7070   36.8920 C   0  0  0  0  0  0  0  0  0  0  0  0
   43.4160   30.8930   36.2150 H   0  0  0  0  0  0  0  0  0  0  0  0
   41.8310   31.7300   37.3340 N   0  0  0  0  0  0  0  0  0  0  0  0
   41.3720   32.6850   38.1620 C   0  0  0  0  0  0  0  0  0  0  0  0
   44.4520   34.6780   38.5490 N   0  0  0  0  0  0  0  0  0  0  0  0
   45.3250   34.2190   38.9440 H   0  0  0  0  0  0  0  0  0  0  0  0
   44.4150   35.7230   38.5630 H   0  0  0  0  0  0  0  0  0  0  0  0
   36.3300   31.0110   40.8750 C   0  0  0  0  0  0  0  0  0  0  0  0
   37.0150   31.2890   41.6720 H   0  0  0  0  0  0  0  0  0  0  0  0
   35.4650   31.7130   40.8620 H   0  0  0  0  0  0  0  0  0  0  0  0
   35.7510   29.3110   40.8810 S   0  0  0  0  0  0  0  0  0  0  0  0
   36.9260   28.2390   41.6850 C   0  0  0  0  0  0  0  0  0  0  0  0
   37.6820   28.7690   42.7070 C   0  0  0  0  0  0  0  0  0  0  0  0
   38.5820   27.9500   43.3210 C   0  0  0  0  0  0  0  0  0  0  0  0
   38.7540   26.6100   42.9480 C   0  0  0  0  0  0  0  0  0  0  0  0
   39.6640   25.8530   43.6000 N   0  0  0  0  0  0  0  0  0  0  0  0
   39.8470   24.5590   43.2590 C   0  0  0  0  0  0  0  0  0  0  0  0
   39.0930   24.0240   42.2380 C   0  0  0  0  0  0  0  0  0  0  0  0
   38.1730   24.8040   41.5850 C   0  0  0  0  0  0  0  0  0  0  0  0
   37.9630   26.1440   41.9170 C   0  0  0  0  0  0  0  0  0  0  0  0
   37.0470   26.9370   41.2750 C   0  0  0  0  0  0  0  0  0  0  0  0
   37.6430   29.7820   43.0850 H   0  0  0  0  0  0  0  0  0  0  0  0
   39.2160   28.3040   44.1390 H   0  0  0  0  0  0  0  0  0  0  0  0
   40.5660   23.9170   43.7550 H   0  0  0  0  0  0  0  0  0  0  0  0
   39.1660   22.9940   41.8890 H   0  0  0  0  0  0  0  0  0  0  0  0
   37.5690   24.4040   40.7790 H   0  0  0  0  0  0  0  0  0  0  0  0
   36.4490   26.5300   40.4720 H   0  0  0  0  0  0  0  0  0  0  0  0
  1  2  2  0  0  0  0
  1  6  1  0  0  0  0
  2  3  1  0  0  0  0
  3  9  1  0  0  0  0
  3  4  2  0  0  0  0
  5  4  1  0  0  0  0
  5 23  1  0  0  0  0
  6  5  2  0  0  0  0
  7  1  1  0  0  0  0
  8  2  1  0  0  0  0
  9 10  1  0  0  0  0
 10 11  1  0  0  0  0
 12 10  2  0  0  0  0
 13 12  1  0  0  0  0
 14 20  1  0  0  0  0
 14 13  2  0  0  0  0
 15 14  1  0  0  0  0
 16 15  2  0  0  0  0
 16 18  1  0  0  0  0
 17 16  1  0  0  0  0
 18 19  2  0  0  0  0
 19 13  1  0  0  0  0
 19  9  1  0  0  0  0
 20 22  1  0  0  0  0
 20 21  1  0  0  0  0
 23 26  1  0  0  0  0
 23 24  1  0  0  0  0
 25 23  1  0  0  0  0
 26 27  1  0  0  0  0
 27 28  1  0  0  0  0
 28 37  1  0  0  0  0
 28 29  2  0  0  0  0
 29 38  1  0  0  0  0
 30 29  1  0  0  0  0
 30 31  1  0  0  0  0
 32 31  2  0  0  0  0
 32 39  1  0  0  0  0
 33 32  1  0  0  0  0
 34 35  1  0  0  0  0
 34 33  2  0  0  0  0
 35 30  2  0  0  0  0
 36 27  2  0  0  0  0
 36 35  1  0  0  0  0
 40 33  1  0  0  0  0
 41 34  1  0  0  0  0
 42 36  1  0  0  0  0
M  END
>  <minimizedAffinity>
-6.85503721

$$$$

 OpenBabel03242523353D

 42 46  0  0  0  0  0  0  0  0999 V2000
   35.2400   25.7130   37.4920 C   0  0  0  0  0  0  0  0  0  0  0  0
   35.2960   27.0600   37.9040 C   0  0  0  0  0  0  0  0  0  0  0  0
   36.0420   27.4020   39.0370 C   0  0  0  0  0  0  0  0  0  0  0  0
   36.7070   26.4150   39.7290 N   0  0  0  0  0  0  0  0  0  0  0  0
   36.6210   25.1320   39.2890 C   0  0  0  0  0  0  0  0  0  0  0  0
   35.9010   24.7970   38.1960 N   0  0  0  0  0  0  0  0  0  0  0  0
   34.6660   25.4400   36.6180 H   0  0  0  0  0  0  0  0  0  0  0  0
   34.7800   27.8380   37.3720 H   0  0  0  0  0  0  0  0  0  0  0  0
   36.1450   28.7390   39.5140 N   0  0  0  0  0  0  0  0  0  0  0  0
   35.6930   29.1660   40.7270 C   0  0  0  0  0  0  0  0  0  0  0  0
   35.1950   28.5390   41.4820 H   0  0  0  0  0  0  0  0  0  0  0  0
   35.9650   30.4950   40.8320 N   0  0  0  0  0  0  0  0  0  0  0  0
   36.5850   30.8950   39.6910 C   0  0  0  0  0  0  0  0  0  0  0  0
   37.0780   32.1300   39.2640 C   0  0  0  0  0  0  0  0  0  0  0  0
   37.6480   32.2270   38.0700 N   0  0  0  0  0  0  0  0  0  0  0  0
   37.7600   31.1510   37.2600 C   0  0  0  0  0  0  0  0  0  0  0  0
   38.2290   31.2070   36.2660 H   0  0  0  0  0  0  0  0  0  0  0  0
   37.2800   29.9520   37.6760 N   0  0  0  0  0  0  0  0  0  0  0  0
   36.6910   29.7890   38.8750 C   0  0  0  0  0  0  0  0  0  0  0  0
   36.9420   33.2430   40.1450 N   0  0  0  0  0  0  0  0  0  0  0  0
   37.8990   33.6930   40.2490 H   0  0  0  0  0  0  0  0  0  0  0  0
   36.1520   33.6780   40.6730 H   0  0  0  0  0  0  0  0  0  0  0  0
   37.3710   24.1260   40.0880 C   0  0  0  0  0  0  0  0  0  0  0  0
   37.0060   23.1590   39.7540 H   0  0  0  0  0  0  0  0  0  0  0  0
   38.4480   24.2330   39.8250 H   0  0  0  0  0  0  0  0  0  0  0  0
   37.1130   24.5160   41.8230 S   0  0  0  0  0  0  0  0  0  0  0  0
   38.5040   25.4080   42.4900 C   0  0  0  0  0  0  0  0  0  0  0  0
   38.2730   26.6660   43.0010 C   0  0  0  0  0  0  0  0  0  0  0  0
   39.3370   27.3490   43.5100 C   0  0  0  0  0  0  0  0  0  0  0  0
   40.6330   26.8150   43.5280 C   0  0  0  0  0  0  0  0  0  0  0  0
   41.6430   27.5470   44.0480 N   0  0  0  0  0  0  0  0  0  0  0  0
   42.9000   27.0540   44.0770 C   0  0  0  0  0  0  0  0  0  0  0  0
   43.1370   25.7960   43.5670 C   0  0  0  0  0  0  0  0  0  0  0  0
   42.1020   25.0640   43.0420 C   0  0  0  0  0  0  0  0  0  0  0  0
   40.7930   25.5500   43.0000 C   0  0  0  0  0  0  0  0  0  0  0  0
   39.7480   24.8320   42.4790 C   0  0  0  0  0  0  0  0  0  0  0  0
   37.3250   27.1850   43.0450 H   0  0  0  0  0  0  0  0  0  0  0  0
   39.2270   28.3530   43.9310 H   0  0  0  0  0  0  0  0  0  0  0  0
   43.7390   27.6070   44.4850 H   0  0  0  0  0  0  0  0  0  0  0  0
   44.1120   25.3110   43.5440 H   0  0  0  0  0  0  0  0  0  0  0  0
   42.2640   24.0740   42.6360 H   0  0  0  0  0  0  0  0  0  0  0  0
   39.9190   23.8440   42.0760 H   0  0  0  0  0  0  0  0  0  0  0  0
  1  2  2  0  0  0  0
  1  6  1  0  0  0  0
  2  3  1  0  0  0  0
  3  9  1  0  0  0  0
  3  4  2  0  0  0  0
  5  4  1  0  0  0  0
  5 23  1  0  0  0  0
  6  5  2  0  0  0  0
  7  1  1  0  0  0  0
  8  2  1  0  0  0  0
  9 10  1  0  0  0  0
 10 12  2  0  0  0  0
 10 11  1  0  0  0  0
 13 12  1  0  0  0  0
 14 13  1  0  0  0  0
 14 20  1  0  0  0  0
 15 14  2  0  0  0  0
 16 18  2  0  0  0  0
 16 15  1  0  0  0  0
 17 16  1  0  0  0  0
 18 19  1  0  0  0  0
 19  9  1  0  0  0  0
 19 13  2  0  0  0  0
 20 21  1  0  0  0  0
 20 22  1  0  0  0  0
 23 26  1  0  0  0  0
 24 23  1  0  0  0  0
 25 23  1  0  0  0  0
 26 27  1  0  0  0  0
 27 28  1  0  0  0  0
 28 37  1  0  0  0  0
 28 29  2  0  0  0  0
 29 30  1  0  0  0  0
 29 38  1  0  0  0  0
 30 31  1  0  0  0  0
 31 32  2  0  0  0  0
 32 39  1  0  0  0  0
 33 32  1  0  0  0  0
 34 33  2  0  0  0  0
 35 34  1  0  0  0  0
 35 30  2  0  0  0  0
 36 27  2  0  0  0  0
 36 35  1  0  0  0  0
 40 33  1  0  0  0  0
 41 34  1  0  0  0  0
 42 36  1  0  0  0  0
M  END
>  <minimizedAffinity>
-6.45523214

$$$$

 OpenBabel03242523353D

 42 46  0  0  0  0  0  0  0  0999 V2000
   36.3120   31.0370   40.8640 C   0  0  0  0  0  0  0  0  0  0  0  0
   36.4790   29.6690   41.1600 C   0  0  0  0  0  0  0  0  0  0  0  0
   37.7670   29.1630   41.3660 C   0  0  0  0  0  0  0  0  0  0  0  0
   38.8470   30.0120   41.2750 N   0  0  0  0  0  0  0  0  0  0  0  0
   38.6320   31.3220   40.9870 C   0  0  0  0  0  0  0  0  0  0  0  0
   37.3890   31.8150   40.7870 N   0  0  0  0  0  0  0  0  0  0  0  0
   35.3210   31.4370   40.7030 H   0  0  0  0  0  0  0  0  0  0  0  0
   35.6440   28.9980   41.2330 H   0  0  0  0  0  0  0  0  0  0  0  0
   38.0150   27.7950   41.6680 N   0  0  0  0  0  0  0  0  0  0  0  0
   37.2780   26.7500   41.1950 C   0  0  0  0  0  0  0  0  0  0  0  0
   36.4070   26.8320   40.5280 H   0  0  0  0  0  0  0  0  0  0  0  0
   37.8090   25.6010   41.6950 N   0  0  0  0  0  0  0  0  0  0  0  0
   38.8740   25.9270   42.4750 C   0  0  0  0  0  0  0  0  0  0  0  0
   39.7710   25.1600   43.2200 C   0  0  0  0  0  0  0  0  0  0  0  0
   40.7360   25.7640   43.9020 N   0  0  0  0  0  0  0  0  0  0  0  0
   40.8630   27.1090   43.8870 C   0  0  0  0  0  0  0  0  0  0  0  0
   41.6560   27.6320   44.4450 H   0  0  0  0  0  0  0  0  0  0  0  0
   39.9910   27.8530   43.1630 N   0  0  0  0  0  0  0  0  0  0  0  0
   38.9920   27.3000   42.4510 C   0  0  0  0  0  0  0  0  0  0  0  0
   39.6050   23.7430   43.2120 N   0  0  0  0  0  0  0  0  0  0  0  0
   40.5400   23.3080   42.9570 H   0  0  0  0  0  0  0  0  0  0  0  0
   38.8090   23.0900   43.3930 H   0  0  0  0  0  0  0  0  0  0  0  0
   39.8490   32.1730   40.9100 C   0  0  0  0  0  0  0  0  0  0  0  0
   39.7730   32.8660   41.7430 H   0  0  0  0  0  0  0  0  0  0  0  0
   40.7280   31.5040   41.0570 H   0  0  0  0  0  0  0  0  0  0  0  0
   39.8920   32.9040   39.2700 S   0  0  0  0  0  0  0  0  0  0  0  0
   41.4370   32.5540   38.4550 C   0  0  0  0  0  0  0  0  0  0  0  0
   42.5280   33.3240   38.7930 C   0  0  0  0  0  0  0  0  0  0  0  0
   43.7100   33.0580   38.1680 C   0  0  0  0  0  0  0  0  0  0  0  0
   43.8420   32.0420   37.2120 C   0  0  0  0  0  0  0  0  0  0  0  0
   45.0440   31.8310   36.6310 N   0  0  0  0  0  0  0  0  0  0  0  0
   45.1960   30.8580   35.7070 C   0  0  0  0  0  0  0  0  0  0  0  0
   44.1080   30.0850   35.3660 C   0  0  0  0  0  0  0  0  0  0  0  0
   42.8930   30.3100   35.9630 C   0  0  0  0  0  0  0  0  0  0  0  0
   42.7090   31.3100   36.9210 C   0  0  0  0  0  0  0  0  0  0  0  0
   41.5020   31.5470   37.5280 C   0  0  0  0  0  0  0  0  0  0  0  0
   42.5550   34.1320   39.5110 H   0  0  0  0  0  0  0  0  0  0  0  0
   44.6170   33.6290   38.3870 H   0  0  0  0  0  0  0  0  0  0  0  0
   46.1410   30.6550   35.2180 H   0  0  0  0  0  0  0  0  0  0  0  0
   44.1270   29.2780   34.6340 H   0  0  0  0  0  0  0  0  0  0  0  0
   42.0240   29.7150   35.7100 H   0  0  0  0  0  0  0  0  0  0  0  0
   40.6400   30.9480   37.2690 H   0  0  0  0  0  0  0  0  0  0  0  0
  1  2  1  0  0  0  0
  2  8  1  0  0  0  0
  2  3  2  0  0  0  0
  3  9  1  0  0  0  0
  4  3  1  0  0  0  0
  5  4  2  0  0  0  0
  6  1  2  0  0  0  0
  6  5  1  0  0  0  0
  7  1  1  0  0  0  0
  9 19  1  0  0  0  0
 10  9  1  0  0  0  0
 10 12  2  0  0  0  0
 11 10  1  0  0  0  0
 12 13  1  0  0  0  0
 13 14  1  0  0  0  0
 14 15  2  0  0  0  0
 16 15  1  0  0  0  0
 16 17  1  0  0  0  0
 18 16  2  0  0  0  0
 19 13  2  0  0  0  0
 19 18  1  0  0  0  0
 20 14  1  0  0  0  0
 20 22  1  0  0  0  0
 21 20  1  0  0  0  0
 23  5  1  0  0  0  0
 23 25  1  0  0  0  0
 23 24  1  0  0  0  0
 26 23  1  0  0  0  0
 27 28  1  0  0  0  0
 27 26  1  0  0  0  0
 28 37  1  0  0  0  0
 29 38  1  0  0  0  0
 29 28  2  0  0  0  0
 30 29  1  0  0  0  0
 31 30  2  0  0  0  0
 32 31  1  0  0  0  0
 33 32  2  0  0  0  0
 33 34  1  0  0  0  0
 34 35  2  0  0  0  0
 35 30  1  0  0  0  0
 35 36  1  0  0  0  0
 36 27  2  0  0  0  0
 39 32  1  0  0  0  0
 40 33  1  0  0  0  0
 41 34  1  0  0  0  0
 42 36  1  0  0  0  0
M  END
>  <minimizedAffinity>
-6.42200994

$$$$

 OpenBabel03242523353D

 42 46  0  0  0  0  0  0  0  0999 V2000
   36.0560   29.6840   38.0790 C   0  0  0  0  0  0  0  0  0  0  0  0
   37.1600   30.5320   37.8530 C   0  0  0  0  0  0  0  0  0  0  0  0
   38.0470   30.7990   38.9010 C   0  0  0  0  0  0  0  0  0  0  0  0
   37.8250   30.2280   40.1340 N   0  0  0  0  0  0  0  0  0  0  0  0
   36.7470   29.4180   40.2990 C   0  0  0  0  0  0  0  0  0  0  0  0
   35.8870   29.1580   39.2900 N   0  0  0  0  0  0  0  0  0  0  0  0
   35.3650   29.4720   37.2760 H   0  0  0  0  0  0  0  0  0  0  0  0
   37.3420   30.9830   36.8960 H   0  0  0  0  0  0  0  0  0  0  0  0
   39.1820   31.6450   38.7500 N   0  0  0  0  0  0  0  0  0  0  0  0
   40.2720   31.3490   37.9870 C   0  0  0  0  0  0  0  0  0  0  0  0
   40.4120   30.4290   37.3990 H   0  0  0  0  0  0  0  0  0  0  0  0
   41.1480   32.3860   38.0860 N   0  0  0  0  0  0  0  0  0  0  0  0
   40.6060   33.3250   38.9060 C   0  0  0  0  0  0  0  0  0  0  0  0
   41.0580   34.5680   39.3500 C   0  0  0  0  0  0  0  0  0  0  0  0
   40.2980   35.2860   40.1670 N   0  0  0  0  0  0  0  0  0  0  0  0
   39.0920   34.8320   40.5760 C   0  0  0  0  0  0  0  0  0  0  0  0
   38.4430   35.4100   41.2520 H   0  0  0  0  0  0  0  0  0  0  0  0
   38.6530   33.6240   40.1430 N   0  0  0  0  0  0  0  0  0  0  0  0
   39.3780   32.8500   39.3150 C   0  0  0  0  0  0  0  0  0  0  0  0
   42.3360   35.0140   38.8990 N   0  0  0  0  0  0  0  0  0  0  0  0
   42.2160   35.9910   38.4990 H   0  0  0  0  0  0  0  0  0  0  0  0
   43.2990   34.6070   38.8810 H   0  0  0  0  0  0  0  0  0  0  0  0
   36.5800   28.8380   41.6580 C   0  0  0  0  0  0  0  0  0  0  0  0
   37.0510   29.5450   42.3360 H   0  0  0  0  0  0  0  0  0  0  0  0
   35.4860   28.7920   41.8640 H   0  0  0  0  0  0  0  0  0  0  0  0
   37.2770   27.1830   41.6270 S   0  0  0  0  0  0  0  0  0  0  0  0
   38.8370   27.1300   42.4860 C   0  0  0  0  0  0  0  0  0  0  0  0
   39.1420   25.9860   43.1900 C   0  0  0  0  0  0  0  0  0  0  0  0
   40.3350   25.9460   43.8480 C   0  0  0  0  0  0  0  0  0  0  0  0
   41.2410   27.0160   43.8270 C   0  0  0  0  0  0  0  0  0  0  0  0
   42.4070   26.9100   44.5020 N   0  0  0  0  0  0  0  0  0  0  0  0
   43.2950   27.9260   44.4960 C   0  0  0  0  0  0  0  0  0  0  0  0
   42.9950   29.0730   43.7930 C   0  0  0  0  0  0  0  0  0  0  0  0
   41.8070   29.1670   43.1130 C   0  0  0  0  0  0  0  0  0  0  0  0
   40.8710   28.1310   43.1020 C   0  0  0  0  0  0  0  0  0  0  0  0
   39.6800   28.2090   42.4270 C   0  0  0  0  0  0  0  0  0  0  0  0
   38.5320   25.0980   43.2830 H   0  0  0  0  0  0  0  0  0  0  0  0
   40.6430   25.0710   44.4270 H   0  0  0  0  0  0  0  0  0  0  0  0
   44.2420   27.8830   45.0230 H   0  0  0  0  0  0  0  0  0  0  0  0
   43.6430   29.9460   43.7270 H   0  0  0  0  0  0  0  0  0  0  0  0
   41.5500   30.0580   42.5530 H   0  0  0  0  0  0  0  0  0  0  0  0
   39.4320   29.1020   41.8710 H   0  0  0  0  0  0  0  0  0  0  0  0
  1  6  1  0  0  0  0
  2  1  2  0  0  0  0
  2  3  1  0  0  0  0
  3  4  2  0  0  0  0
  4  5  1  0  0  0  0
  5 23  1  0  0  0  0
  6  5  2  0  0  0  0
  7  1  1  0  0  0  0
  8  2  1  0  0  0  0
  9  3  1  0  0  0  0
  9 19  1  0  0  0  0
 10 12  2  0  0  0  0
 10  9  1  0  0  0  0
 11 10  1  0  0  0  0
 12 13  1  0  0  0  0
 13 19  2  0  0  0  0
 13 14  1  0  0  0  0
 14 15  2  0  0  0  0
 15 16  1  0  0  0  0
 16 17  1  0  0  0  0
 18 16  2  0  0  0  0
 19 18  1  0  0  0  0
 20 14  1  0  0  0  0
 21 20  1  0  0  0  0
 22 20  1  0  0  0  0
 23 25  1  0  0  0  0
 23 24  1  0  0  0  0
 26 23  1  0  0  0  0
 26 27  1  0  0  0  0
 27 28  1  0  0  0  0
 28 37  1  0  0  0  0
 28 29  2  0  0  0  0
 29 38  1  0  0  0  0
 30 29  1  0  0  0  0
 30 31  1  0  0  0  0
 32 31  2  0  0  0  0
 32 39  1  0  0  0  0
 33 32  1  0  0  0  0
 34 33  2  0  0  0  0
 35 34  1  0  0  0  0
 35 30  2  0  0  0  0
 36 27  2  0  0  0  0
 36 35  1  0  0  0  0
 40 33  1  0  0  0  0
 41 34  1  0  0  0  0
 42 36  1  0  0  0  0
M  END
>  <minimizedAffinity>
-6.36174202

$$$$

 OpenBabel03242523353D

 42 46  0  0  0  0  0  0  0  0999 V2000
   36.8070   23.9010   41.0560 C   0  0  0  0  0  0  0  0  0  0  0  0
   36.8790   24.4330   39.7530 C   0  0  0  0  0  0  0  0  0  0  0  0
   37.4880   25.6770   39.5510 C   0  0  0  0  0  0  0  0  0  0  0  0
   38.0040   26.3570   40.6320 N   0  0  0  0  0  0  0  0  0  0  0  0
   37.9090   25.7990   41.8670 C   0  0  0  0  0  0  0  0  0  0  0  0
   37.3210   24.5980   42.0660 N   0  0  0  0  0  0  0  0  0  0  0  0
   36.3380   22.9410   41.2210 H   0  0  0  0  0  0  0  0  0  0  0  0
   36.4800   23.9110   38.9030 H   0  0  0  0  0  0  0  0  0  0  0  0
   37.5990   26.2790   38.2670 N   0  0  0  0  0  0  0  0  0  0  0  0
   38.3990   25.8200   37.2630 C   0  0  0  0  0  0  0  0  0  0  0  0
   39.0540   24.9370   37.3180 H   0  0  0  0  0  0  0  0  0  0  0  0
   38.2440   26.6460   36.1920 N   0  0  0  0  0  0  0  0  0  0  0  0
   37.3500   27.6140   36.5260 C   0  0  0  0  0  0  0  0  0  0  0  0
   36.8270   28.7020   35.8250 C   0  0  0  0  0  0  0  0  0  0  0  0
   35.9490   29.5000   36.4190 N   0  0  0  0  0  0  0  0  0  0  0  0
   35.5530   29.2760   37.6920 C   0  0  0  0  0  0  0  0  0  0  0  0
   34.8250   29.9240   38.2060 H   0  0  0  0  0  0  0  0  0  0  0  0
   36.0620   28.2190   38.3720 N   0  0  0  0  0  0  0  0  0  0  0  0
   36.9550   27.3750   37.8250 C   0  0  0  0  0  0  0  0  0  0  0  0
   37.2680   28.9070   34.4850 N   0  0  0  0  0  0  0  0  0  0  0  0
   36.4070   29.0000   33.8700 H   0  0  0  0  0  0  0  0  0  0  0  0
   38.1990   28.9790   34.0140 H   0  0  0  0  0  0  0  0  0  0  0  0
   38.4930   26.5940   42.9790 C   0  0  0  0  0  0  0  0  0  0  0  0
   38.6350   25.8920   43.7960 H   0  0  0  0  0  0  0  0  0  0  0  0
   39.4830   26.9700   42.6310 H   0  0  0  0  0  0  0  0  0  0  0  0
   37.3840   27.9710   43.2980 S   0  0  0  0  0  0  0  0  0  0  0  0
   37.9520   29.4510   42.4840 C   0  0  0  0  0  0  0  0  0  0  0  0
   39.1960   29.9340   42.8280 C   0  0  0  0  0  0  0  0  0  0  0  0
   39.6300   31.0670   42.2070 C   0  0  0  0  0  0  0  0  0  0  0  0
   38.8600   31.7390   41.2470 C   0  0  0  0  0  0  0  0  0  0  0  0
   39.3520   32.8570   40.6700 N   0  0  0  0  0  0  0  0  0  0  0  0
   38.6290   33.5220   39.7420 C   0  0  0  0  0  0  0  0  0  0  0  0
   37.3850   33.0430   39.3950 C   0  0  0  0  0  0  0  0  0  0  0  0
   36.8980   31.9060   39.9890 C   0  0  0  0  0  0  0  0  0  0  0  0
   37.6240   31.2000   40.9510 C   0  0  0  0  0  0  0  0  0  0  0  0
   37.1530   30.0620   41.5540 C   0  0  0  0  0  0  0  0  0  0  0  0
   39.8810   29.5080   43.5480 H   0  0  0  0  0  0  0  0  0  0  0  0
   40.6060   31.5060   42.4300 H   0  0  0  0  0  0  0  0  0  0  0  0
   38.9850   34.4220   39.2540 H   0  0  0  0  0  0  0  0  0  0  0  0
   36.7260   33.5060   38.6600 H   0  0  0  0  0  0  0  0  0  0  0  0
   35.9230   31.5120   39.7330 H   0  0  0  0  0  0  0  0  0  0  0  0
   36.1780   29.6760   41.2920 H   0  0  0  0  0  0  0  0  0  0  0  0
  1  7  1  0  0  0  0
  1  6  1  0  0  0  0
  2  1  2  0  0  0  0
  3  2  1  0  0  0  0
  3  4  2  0  0  0  0
  4  5  1  0  0  0  0
  5  6  2  0  0  0  0
  5 23  1  0  0  0  0
  8  2  1  0  0  0  0
  9  3  1  0  0  0  0
 10 11  1  0  0  0  0
 10  9  1  0  0  0  0
 12 13  1  0  0  0  0
 12 10  2  0  0  0  0
 13 19  1  0  0  0  0
 14 15  1  0  0  0  0
 14 13  2  0  0  0  0
 15 16  2  0  0  0  0
 16 17  1  0  0  0  0
 16 18  1  0  0  0  0
 19  9  1  0  0  0  0
 19 18  2  0  0  0  0
 20 14  1  0  0  0  0
 21 20  1  0  0  0  0
 22 20  1  0  0  0  0
 23 26  1  0  0  0  0
 23 24  1  0  0  0  0
 25 23  1  0  0  0  0
 27 28  1  0  0  0  0
 27 26  1  0  0  0  0
 28 37  1  0  0  0  0
 29 38  1  0  0  0  0
 29 28  2  0  0  0  0
 30 29  1  0  0  0  0
 31 30  2  0  0  0  0
 32 31  1  0  0  0  0
 33 32  2  0  0  0  0
 33 34  1  0  0  0  0
 34 35  2  0  0  0  0
 35 30  1  0  0  0  0
 35 36  1  0  0  0  0
 36 27  2  0  0  0  0
 39 32  1  0  0  0  0
 40 33  1  0  0  0  0
 41 34  1  0  0  0  0
 42 36  1  0  0  0  0
M  END
>  <minimizedAffinity>
-6.31212664

$$$$

 OpenBabel03242523353D

 42 46  0  0  0  0  0  0  0  0999 V2000
   36.8060   29.0760   35.4430 C   0  0  0  0  0  0  0  0  0  0  0  0
   36.7880   30.1030   36.4090 C   0  0  0  0  0  0  0  0  0  0  0  0
   37.7350   30.0940   37.4390 C   0  0  0  0  0  0  0  0  0  0  0  0
   38.6670   29.0810   37.4890 N   0  0  0  0  0  0  0  0  0  0  0  0
   38.6400   28.1150   36.5330 C   0  0  0  0  0  0  0  0  0  0  0  0
   37.7270   28.1200   35.5370 N   0  0  0  0  0  0  0  0  0  0  0  0
   36.0780   29.0740   34.6440 H   0  0  0  0  0  0  0  0  0  0  0  0
   36.0660   30.8970   36.3800 H   0  0  0  0  0  0  0  0  0  0  0  0
   37.7810   31.0940   38.4490 N   0  0  0  0  0  0  0  0  0  0  0  0
   36.7870   31.3300   39.3520 C   0  0  0  0  0  0  0  0  0  0  0  0
   35.8330   30.7840   39.4120 H   0  0  0  0  0  0  0  0  0  0  0  0
   37.1830   32.3550   40.1550 N   0  0  0  0  0  0  0  0  0  0  0  0
   38.4190   32.7560   39.7560 C   0  0  0  0  0  0  0  0  0  0  0  0
   39.2860   33.7490   40.2160 C   0  0  0  0  0  0  0  0  0  0  0  0
   40.4590   33.9190   39.6180 N   0  0  0  0  0  0  0  0  0  0  0  0
   40.8270   33.1460   38.5710 C   0  0  0  0  0  0  0  0  0  0  0  0
   41.7950   33.2680   38.0600 H   0  0  0  0  0  0  0  0  0  0  0  0
   39.9830   32.1820   38.1260 N   0  0  0  0  0  0  0  0  0  0  0  0
   38.7820   31.9610   38.6890 C   0  0  0  0  0  0  0  0  0  0  0  0
   38.8640   34.5440   41.3210 N   0  0  0  0  0  0  0  0  0  0  0  0
   39.6360   34.5220   42.0510 H   0  0  0  0  0  0  0  0  0  0  0  0
   38.0120   35.1060   41.5470 H   0  0  0  0  0  0  0  0  0  0  0  0
   39.6800   27.0600   36.6560 C   0  0  0  0  0  0  0  0  0  0  0  0
   39.9590   26.8060   35.6370 H   0  0  0  0  0  0  0  0  0  0  0  0
   40.5510   27.5150   37.1810 H   0  0  0  0  0  0  0  0  0  0  0  0
   38.9850   25.7300   37.6440 S   0  0  0  0  0  0  0  0  0  0  0  0
   38.9590   26.1650   39.3720 C   0  0  0  0  0  0  0  0  0  0  0  0
   40.1310   26.0350   40.0830 C   0  0  0  0  0  0  0  0  0  0  0  0
   40.1110   26.3660   41.4050 C   0  0  0  0  0  0  0  0  0  0  0  0
   38.9520   26.8250   42.0460 C   0  0  0  0  0  0  0  0  0  0  0  0
   39.0020   27.1360   43.3600 N   0  0  0  0  0  0  0  0  0  0  0  0
   37.9000   27.5810   44.0000 C   0  0  0  0  0  0  0  0  0  0  0  0
   36.7240   27.7120   43.2940 C   0  0  0  0  0  0  0  0  0  0  0  0
   36.6870   27.3930   41.9600 C   0  0  0  0  0  0  0  0  0  0  0  0
   37.8130   26.9300   41.2740 C   0  0  0  0  0  0  0  0  0  0  0  0
   37.7940   26.6080   39.9420 C   0  0  0  0  0  0  0  0  0  0  0  0
   41.0860   25.6940   39.7040 H   0  0  0  0  0  0  0  0  0  0  0  0
   41.0050   26.2870   42.0310 H   0  0  0  0  0  0  0  0  0  0  0  0
   37.8960   27.8410   45.0520 H   0  0  0  0  0  0  0  0  0  0  0  0
   35.7830   28.0610   43.7170 H   0  0  0  0  0  0  0  0  0  0  0  0
   35.7750   27.4880   41.3840 H   0  0  0  0  0  0  0  0  0  0  0  0
   36.8780   26.7060   39.3750 H   0  0  0  0  0  0  0  0  0  0  0  0
  1  6  2  0  0  0  0
  1  2  1  0  0  0  0
  2  3  2  0  0  0  0
  3  4  1  0  0  0  0
  3  9  1  0  0  0  0
  5 23  1  0  0  0  0
  5  4  2  0  0  0  0
  6  5  1  0  0  0  0
  7  1  1  0  0  0  0
  8  2  1  0  0  0  0
  9 19  1  0  0  0  0
  9 10  1  0  0  0  0
 10 11  1  0  0  0  0
 10 12  2  0  0  0  0
 13 12  1  0  0  0  0
 13 14  1  0  0  0  0
 14 20  1  0  0  0  0
 15 14  2  0  0  0  0
 16 15  1  0  0  0  0
 17 16  1  0  0  0  0
 18 16  2  0  0  0  0
 18 19  1  0  0  0  0
 19 13  2  0  0  0  0
 20 22  1  0  0  0  0
 20 21  1  0  0  0  0
 23 25  1  0  0  0  0
 23 26  1  0  0  0  0
 24 23  1  0  0  0  0
 26 27  1  0  0  0  0
 27 36  2  0  0  0  0
 27 28  1  0  0  0  0
 28 29  2  0  0  0  0
 29 38  1  0  0  0  0
 29 30  1  0  0  0  0
 30 31  1  0  0  0  0
 31 32  2  0  0  0  0
 32 39  1  0  0  0  0
 33 40  1  0  0  0  0
 33 32  1  0  0  0  0
 34 33  2  0  0  0  0
 35 34  1  0  0  0  0
 35 30  2  0  0  0  0
 36 35  1  0  0  0  0
 37 28  1  0  0  0  0
 41 34  1  0  0  0  0
 42 36  1  0  0  0  0
M  END
>  <minimizedAffinity>
-6.26155615

$$$$
