
 OpenBabel03252509033D

 53 56  0  0  1  0  0  0  0  0999 V2000
   46.8710   34.4150   43.2480 N   0  0  0  0  0  0  0  0  0  0  0  0
   46.5730   34.8410   41.9300 C   0  0  0  0  0  0  0  0  0  0  0  0
   45.1590   34.5510   41.4900 C   0  0  0  0  0  0  0  0  0  0  0  0
   44.1300   34.6530   42.6020 C   0  0  0  0  0  0  0  0  0  0  0  0
   44.7690   35.1340   43.8940 C   0  0  0  0  0  0  0  0  0  0  0  0
   45.8990   34.0540   44.1480 C   0  0  2  0  0  0  0  0  0  0  0  0
   46.7210   35.9600   41.9230 H   0  0  0  0  0  0  0  0  0  0  0  0
   47.2350   34.4570   41.1430 H   0  0  0  0  0  0  0  0  0  0  0  0
   44.8810   35.3400   40.7390 H   0  0  0  0  0  0  0  0  0  0  0  0
   45.0960   33.5960   40.9350 H   0  0  0  0  0  0  0  0  0  0  0  0
   43.7660   33.6180   42.7850 H   0  0  0  0  0  0  0  0  0  0  0  0
   43.2580   35.2700   42.3140 H   0  0  0  0  0  0  0  0  0  0  0  0
   45.2490   36.1020   43.7430 H   0  0  0  0  0  0  0  0  0  0  0  0
   44.0360   35.0700   44.6980 H   0  0  0  0  0  0  0  0  0  0  0  0
   45.4170   33.0630   44.0280 H   0  0  0  0  0  0  0  0  0  0  0  0
   48.2000   33.8770   43.4110 C   0  0  0  0  0  0  0  0  0  0  0  0
   48.4860   34.0630   44.4820 H   0  0  0  0  0  0  0  0  0  0  0  0
   48.8830   34.4930   42.7900 H   0  0  0  0  0  0  0  0  0  0  0  0
   48.1600   32.4350   43.0590 C   0  0  0  0  0  0  0  0  0  0  0  0
   48.3820   31.8140   43.9390 H   0  0  0  0  0  0  0  0  0  0  0  0
   47.1560   32.1340   42.6430 H   0  0  0  0  0  0  0  0  0  0  0  0
   51.3900   31.9710   41.2080 C   0  0  0  0  0  0  0  0  0  0  0  0
   50.4570   32.2310   42.2310 C   0  0  0  0  0  0  0  0  0  0  0  0
   49.1220   32.1560   41.9680 C   0  0  0  0  0  0  0  0  0  0  0  0
   48.7590   31.8350   40.7280 N   0  0  0  0  0  0  0  0  0  0  0  0
   49.6310   31.5840   39.7430 C   0  0  0  0  0  0  0  0  0  0  0  0
   50.9550   31.6490   39.9680 N   0  0  0  0  0  0  0  0  0  0  0  0
   52.4460   32.0320   41.4260 H   0  0  0  0  0  0  0  0  0  0  0  0
   50.8840   32.4840   43.2010 H   0  0  0  0  0  0  0  0  0  0  0  0
   49.1310   31.3430   38.8170 H   0  0  0  0  0  0  0  0  0  0  0  0
   46.2290   34.3370   45.4610 O   0  0  0  0  0  0  0  0  0  0  0  0
   45.6260   31.7580   45.7070 O   0  0  0  0  0  0  0  0  0  0  0  0
   46.0610   33.0030   46.4740 P   0  0  2  0  0  0  0  0  0  0  0  0
   44.7320   33.3580   47.4910 O   0  0  0  0  0  0  0  0  0  0  0  0
   45.0470   33.8830   48.2730 H   0  0  0  0  0  0  0  0  0  0  0  0
   47.3900   32.7330   47.4320 O   0  0  0  0  0  0  0  0  0  0  0  0
   47.0400   31.9060   48.4870 C   0  0  0  0  0  0  0  0  0  0  0  0
   46.0160   31.5280   48.4380 H   0  0  0  0  0  0  0  0  0  0  0  0
   47.1460   32.4850   49.4330 H   0  0  0  0  0  0  0  0  0  0  0  0
   48.0290   30.8390   48.5490 N   0  0  0  0  0  0  0  0  0  0  0  0
   47.8330   29.6980   47.8360 C   0  0  0  0  0  0  0  0  0  0  0  0
   46.9920   29.4400   47.1810 H   0  0  0  0  0  0  0  0  0  0  0  0
   48.8720   28.8510   48.0440 N   0  0  0  0  0  0  0  0  0  0  0  0
   49.7330   29.4690   48.8980 C   0  0  0  0  0  0  0  0  0  0  0  0
   50.9480   29.1760   49.5000 C   0  0  0  0  0  0  0  0  0  0  0  0
   51.5110   30.0830   50.3180 N   0  0  0  0  0  0  0  0  0  0  0  0
   50.9530   31.2630   50.5820 C   0  0  0  0  0  0  0  0  0  0  0  0
   51.5220   31.8750   51.2520 H   0  0  0  0  0  0  0  0  0  0  0  0
   49.7800   31.5930   50.0260 N   0  0  0  0  0  0  0  0  0  0  0  0
   49.1890   30.7160   49.2060 C   0  0  0  0  0  0  0  0  0  0  0  0
   51.5190   27.9140   49.2020 N   0  0  0  0  0  0  0  0  0  0  0  0
   52.0940   27.5590   48.3900 H   0  0  0  0  0  0  0  0  0  0  0  0
   51.5830   26.9660   49.6170 H   0  0  0  0  0  0  0  0  0  0  0  0
  1 16  1  0  0  0  0
  1  6  1  0  0  0  0
  2  1  1  0  0  0  0
  3  2  1  0  0  0  0
  3  4  1  0  0  0  0
  4 11  1  0  0  0  0
  4  5  1  0  0  0  0
  5  6  1  0  0  0  0
  5 14  1  0  0  0  0
  6 15  1  6  0  0  0
  6 31  1  0  0  0  0
  7  2  1  0  0  0  0
  8  2  1  0  0  0  0
  9  3  1  0  0  0  0
 10  3  1  0  0  0  0
 12  4  1  0  0  0  0
 13  5  1  0  0  0  0
 16 17  1  0  0  0  0
 18 16  1  0  0  0  0
 19 16  1  0  0  0  0
 19 20  1  0  0  0  0
 21 19  1  0  0  0  0
 22 28  1  0  0  0  0
 22 23  1  0  0  0  0
 23 29  1  0  0  0  0
 24 23  2  0  0  0  0
 24 19  1  0  0  0  0
 25 24  1  0  0  0  0
 26 27  1  0  0  0  0
 26 25  2  0  0  0  0
 27 22  2  0  0  0  0
 30 26  1  0  0  0  0
 31 33  1  0  0  0  0
 33 32  2  6  0  0  0
 33 36  1  0  0  0  0
 33 34  1  0  0  0  0
 34 35  1  0  0  0  0
 36 37  1  0  0  0  0
 37 40  1  0  0  0  0
 37 39  1  0  0  0  0
 38 37  1  0  0  0  0
 40 50  1  0  0  0  0
 41 43  2  0  0  0  0
 41 40  1  0  0  0  0
 42 41  1  0  0  0  0
 43 44  1  0  0  0  0
 44 50  2  0  0  0  0
 44 45  1  0  0  0  0
 45 46  2  0  0  0  0
 46 47  1  0  0  0  0
 47 48  1  0  0  0  0
 49 47  2  0  0  0  0
 50 49  1  0  0  0  0
 51 45  1  0  0  0  0
 51 53  1  0  0  0  0
 52 51  1  0  0  0  0
M  END
>  <minimizedAffinity>
-5.37623262

>  <minimizedRMSD>
2.98126912

$$$$
