
 OpenBabel03252506583D

 43 48  0  0  0  0  0  0  0  0999 V2000
   37.3910   26.6810   39.9040 C   0  0  0  0  0  0  0  0  0  0  0  0
   37.1120   25.6200   40.7360 C   0  0  0  0  0  0  0  0  0  0  0  0
   37.0200   25.7520   42.1110 C   0  0  0  0  0  0  0  0  0  0  0  0
   37.2140   26.9940   42.7020 C   0  0  0  0  0  0  0  0  0  0  0  0
   37.2030   27.4870   43.9740 N   0  0  0  0  0  0  0  0  0  0  0  0
   37.4670   28.8150   43.9240 C   0  0  0  0  0  0  0  0  0  0  0  0
   37.6410   29.1290   42.6180 N   0  0  0  0  0  0  0  0  0  0  0  0
   37.4910   28.0340   41.8530 C   0  0  0  0  0  0  0  0  0  0  0  0
   37.5870   27.9380   40.4920 C   0  0  0  0  0  0  0  0  0  0  0  0
   37.4640   26.5910   38.8300 H   0  0  0  0  0  0  0  0  0  0  0  0
   36.7980   24.9080   42.7740 H   0  0  0  0  0  0  0  0  0  0  0  0
   37.0180   26.9050   44.7980 H   0  0  0  0  0  0  0  0  0  0  0  0
   37.5270   29.4830   44.7680 H   0  0  0  0  0  0  0  0  0  0  0  0
   35.6400   22.7980   38.8910 C   0  0  0  0  0  0  0  0  0  0  0  0
   36.5510   21.7660   39.1320 C   0  0  0  0  0  0  0  0  0  0  0  0
   37.6740   22.0500   39.9330 C   0  0  0  0  0  0  0  0  0  0  0  0
   37.8070   23.3170   40.4280 N   0  0  0  0  0  0  0  0  0  0  0  0
   36.8990   24.2910   40.1710 C   0  0  0  0  0  0  0  0  0  0  0  0
   35.8300   24.0300   39.4110 N   0  0  0  0  0  0  0  0  0  0  0  0
   34.7860   22.5830   38.2810 H   0  0  0  0  0  0  0  0  0  0  0  0
   36.4570   20.7620   38.7460 H   0  0  0  0  0  0  0  0  0  0  0  0
   38.4360   21.3130   40.1750 H   0  0  0  0  0  0  0  0  0  0  0  0
   37.8870   29.1090   39.6660 C   0  0  0  0  0  0  0  0  0  0  0  0
   36.9670   29.8040   38.9170 C   0  0  0  0  0  0  0  0  0  0  0  0
   37.7120   30.8230   38.3130 C   0  0  0  0  0  0  0  0  0  0  0  0
   39.0190   30.6870   38.7250 C   0  0  0  0  0  0  0  0  0  0  0  0
   39.0730   29.6430   39.5370 O   0  0  0  0  0  0  0  0  0  0  0  0
   35.8880   29.6040   38.8160 H   0  0  0  0  0  0  0  0  0  0  0  0
   37.3200   31.5790   37.6430 H   0  0  0  0  0  0  0  0  0  0  0  0
   40.0520   31.5660   38.2970 N   0  0  0  0  0  0  0  0  0  0  0  0
   40.9460   31.2410   37.3200 C   0  0  0  0  0  0  0  0  0  0  0  0
   41.0350   30.3350   36.7350 H   0  0  0  0  0  0  0  0  0  0  0  0
   41.7960   32.2980   37.1550 N   0  0  0  0  0  0  0  0  0  0  0  0
   41.4170   33.2450   38.0200 C   0  0  0  0  0  0  0  0  0  0  0  0
   41.8350   34.4970   38.3480 C   0  0  0  0  0  0  0  0  0  0  0  0
   41.2490   35.2540   39.2910 N   0  0  0  0  0  0  0  0  0  0  0  0
   40.1850   34.8070   39.9880 C   0  0  0  0  0  0  0  0  0  0  0  0
   39.6130   35.2830   40.7630 H   0  0  0  0  0  0  0  0  0  0  0  0
   39.7590   33.5890   39.6870 N   0  0  0  0  0  0  0  0  0  0  0  0
   40.3300   32.8250   38.7520 C   0  0  0  0  0  0  0  0  0  0  0  0
   42.9280   35.1000   37.7140 N   0  0  0  0  0  0  0  0  0  0  0  0
   42.5300   35.4620   36.8110 H   0  0  0  0  0  0  0  0  0  0  0  0
   43.7700   35.5310   37.2950 H   0  0  0  0  0  0  0  0  0  0  0  0
  1  9  2  0  0  0  0
  1  2  1  0  0  0  0
  2  3  2  0  0  0  0
  3  4  1  0  0  0  0
  3 11  1  0  0  0  0
  4  5  1  0  0  0  0
  5 12  1  0  0  0  0
  6  5  1  0  0  0  0
  6 13  1  0  0  0  0
  7  6  2  0  0  0  0
  8  7  1  0  0  0  0
  8  4  2  0  0  0  0
  9  8  1  0  0  0  0
 10  1  1  0  0  0  0
 14 15  2  0  0  0  0
 14 19  1  0  0  0  0
 15 16  1  0  0  0  0
 16 22  1  0  0  0  0
 16 17  2  0  0  0  0
 18 17  1  0  0  0  0
 18  2  1  0  0  0  0
 19 18  2  0  0  0  0
 20 14  1  0  0  0  0
 21 15  1  0  0  0  0
 23  9  1  0  0  0  0
 24 23  2  0  0  0  0
 25 26  2  0  0  0  0
 25 24  1  0  0  0  0
 26 27  1  0  0  0  0
 27 23  1  0  0  0  0
 28 24  1  0  0  0  0
 29 25  1  0  0  0  0
 30 26  1  0  0  0  0
 30 40  1  0  0  0  0
 31 30  1  0  0  0  0
 32 31  1  0  0  0  0
 33 31  2  0  0  0  0
 33 34  1  0  0  0  0
 34 35  2  0  0  0  0
 34 40  1  0  0  0  0
 35 36  1  0  0  0  0
 36 37  2  0  0  0  0
 37 38  1  0  0  0  0
 39 37  1  0  0  0  0
 40 39  2  0  0  0  0
 41 35  1  0  0  0  0
 42 41  1  0  0  0  0
 43 41  1  0  0  0  0
M  END
>  <minimizedAffinity>
-7.20156956

$$$$

 OpenBabel03252506583D

 43 48  0  0  0  0  0  0  0  0999 V2000
   37.0650   25.7600   40.6950 C   0  0  0  0  0  0  0  0  0  0  0  0
   37.5030   24.4850   40.9760 C   0  0  0  0  0  0  0  0  0  0  0  0
   38.4580   24.2180   41.9420 C   0  0  0  0  0  0  0  0  0  0  0  0
   39.0170   25.2610   42.6700 C   0  0  0  0  0  0  0  0  0  0  0  0
   39.9470   25.3750   43.6600 N   0  0  0  0  0  0  0  0  0  0  0  0
   40.0780   26.6860   43.9790 C   0  0  0  0  0  0  0  0  0  0  0  0
   39.2250   27.3690   43.1790 N   0  0  0  0  0  0  0  0  0  0  0  0
   38.5660   26.5200   42.3710 C   0  0  0  0  0  0  0  0  0  0  0  0
   37.6230   26.8180   41.4260 C   0  0  0  0  0  0  0  0  0  0  0  0
   36.3200   25.9810   39.9450 H   0  0  0  0  0  0  0  0  0  0  0  0
   38.8060   23.2040   42.1660 H   0  0  0  0  0  0  0  0  0  0  0  0
   40.4390   24.5700   44.0640 H   0  0  0  0  0  0  0  0  0  0  0  0
   40.7380   27.0950   44.7270 H   0  0  0  0  0  0  0  0  0  0  0  0
   37.1550   21.1960   39.3650 C   0  0  0  0  0  0  0  0  0  0  0  0
   35.8580   21.2430   38.8500 C   0  0  0  0  0  0  0  0  0  0  0  0
   35.1050   22.4140   39.0610 C   0  0  0  0  0  0  0  0  0  0  0  0
   35.6880   23.4360   39.7570 N   0  0  0  0  0  0  0  0  0  0  0  0
   36.9510   23.3510   40.2420 C   0  0  0  0  0  0  0  0  0  0  0  0
   37.6730   22.2420   40.0460 N   0  0  0  0  0  0  0  0  0  0  0  0
   37.7290   20.3050   39.2050 H   0  0  0  0  0  0  0  0  0  0  0  0
   35.3880   20.4430   38.2980 H   0  0  0  0  0  0  0  0  0  0  0  0
   34.0880   22.5440   38.6980 H   0  0  0  0  0  0  0  0  0  0  0  0
   37.2050   28.1990   41.1780 C   0  0  0  0  0  0  0  0  0  0  0  0
   35.9120   28.6590   41.2640 C   0  0  0  0  0  0  0  0  0  0  0  0
   36.0080   30.0190   40.9460 C   0  0  0  0  0  0  0  0  0  0  0  0
   37.3320   30.2970   40.6890 C   0  0  0  0  0  0  0  0  0  0  0  0
   38.0110   29.1710   40.8420 O   0  0  0  0  0  0  0  0  0  0  0  0
   35.0070   28.0880   41.5250 H   0  0  0  0  0  0  0  0  0  0  0  0
   35.1810   30.7190   40.9120 H   0  0  0  0  0  0  0  0  0  0  0  0
   37.7860   31.5960   40.3320 N   0  0  0  0  0  0  0  0  0  0  0  0
   36.9870   32.5240   39.7320 C   0  0  0  0  0  0  0  0  0  0  0  0
   35.9470   32.4570   39.4380 H   0  0  0  0  0  0  0  0  0  0  0  0
   37.7280   33.6530   39.5270 N   0  0  0  0  0  0  0  0  0  0  0  0
   38.9550   33.4080   39.9980 C   0  0  0  0  0  0  0  0  0  0  0  0
   40.1240   34.0960   40.0930 C   0  0  0  0  0  0  0  0  0  0  0  0
   41.2460   33.5870   40.6330 N   0  0  0  0  0  0  0  0  0  0  0  0
   41.2810   32.3320   41.1240 C   0  0  0  0  0  0  0  0  0  0  0  0
   42.0870   31.7880   41.5790 H   0  0  0  0  0  0  0  0  0  0  0  0
   40.1540   31.6410   41.0420 N   0  0  0  0  0  0  0  0  0  0  0  0
   39.0310   32.1320   40.5100 C   0  0  0  0  0  0  0  0  0  0  0  0
   40.2480   35.4100   39.6280 N   0  0  0  0  0  0  0  0  0  0  0  0
   39.8330   35.9940   40.3990 H   0  0  0  0  0  0  0  0  0  0  0  0
   40.3660   36.3590   39.2320 H   0  0  0  0  0  0  0  0  0  0  0  0
  1  2  2  0  0  0  0
  1  9  1  0  0  0  0
  2  3  1  0  0  0  0
  3 11  1  0  0  0  0
  3  4  2  0  0  0  0
  4  5  1  0  0  0  0
  5  6  1  0  0  0  0
  5 12  1  0  0  0  0
  6 13  1  0  0  0  0
  7  6  2  0  0  0  0
  8  4  1  0  0  0  0
  8  7  1  0  0  0  0
  9  8  2  0  0  0  0
 10  1  1  0  0  0  0
 14 19  1  0  0  0  0
 15 16  1  0  0  0  0
 15 14  2  0  0  0  0
 16 17  2  0  0  0  0
 17 18  1  0  0  0  0
 18  2  1  0  0  0  0
 19 18  2  0  0  0  0
 20 14  1  0  0  0  0
 21 15  1  0  0  0  0
 22 16  1  0  0  0  0
 23 24  2  0  0  0  0
 23  9  1  0  0  0  0
 24 28  1  0  0  0  0
 25 24  1  0  0  0  0
 26 27  1  0  0  0  0
 26 25  2  0  0  0  0
 27 23  1  0  0  0  0
 29 25  1  0  0  0  0
 30 40  1  0  0  0  0
 30 26  1  0  0  0  0
 31 30  1  0  0  0  0
 32 31  1  0  0  0  0
 33 31  2  0  0  0  0
 33 34  1  0  0  0  0
 34 35  2  0  0  0  0
 34 40  1  0  0  0  0
 35 36  1  0  0  0  0
 36 37  2  0  0  0  0
 37 38  1  0  0  0  0
 39 37  1  0  0  0  0
 40 39  2  0  0  0  0
 41 35  1  0  0  0  0
 41 42  1  0  0  0  0
 43 41  1  0  0  0  0
M  END
>  <minimizedAffinity>
-7.11142254

$$$$

 OpenBabel03252506583D

 43 48  0  0  0  0  0  0  0  0999 V2000
   36.9740   27.3410   40.1060 C   0  0  0  0  0  0  0  0  0  0  0  0
   36.9580   25.9880   40.3580 C   0  0  0  0  0  0  0  0  0  0  0  0
   37.6830   25.4110   41.3880 C   0  0  0  0  0  0  0  0  0  0  0  0
   38.4670   26.2070   42.2130 C   0  0  0  0  0  0  0  0  0  0  0  0
   39.2850   25.9990   43.2850 N   0  0  0  0  0  0  0  0  0  0  0  0
   39.7900   27.1930   43.6790 C   0  0  0  0  0  0  0  0  0  0  0  0
   39.2770   28.1280   42.8450 N   0  0  0  0  0  0  0  0  0  0  0  0
   38.4660   27.5500   41.9410 C   0  0  0  0  0  0  0  0  0  0  0  0
   37.7620   28.1510   40.9350 C   0  0  0  0  0  0  0  0  0  0  0  0
   36.4120   27.8030   39.3070 H   0  0  0  0  0  0  0  0  0  0  0  0
   37.6710   24.3340   41.5890 H   0  0  0  0  0  0  0  0  0  0  0  0
   39.4570   25.0710   43.6870 H   0  0  0  0  0  0  0  0  0  0  0  0
   40.4690   27.3550   44.5010 H   0  0  0  0  0  0  0  0  0  0  0  0
   35.0120   24.6570   37.5340 C   0  0  0  0  0  0  0  0  0  0  0  0
   34.6350   23.3910   37.9920 C   0  0  0  0  0  0  0  0  0  0  0  0
   35.0560   23.0020   39.2780 C   0  0  0  0  0  0  0  0  0  0  0  0
   35.8080   23.8830   40.0030 N   0  0  0  0  0  0  0  0  0  0  0  0
   36.1530   25.1030   39.5230 C   0  0  0  0  0  0  0  0  0  0  0  0
   35.7570   25.4810   38.3020 N   0  0  0  0  0  0  0  0  0  0  0  0
   34.6920   24.9540   36.5560 H   0  0  0  0  0  0  0  0  0  0  0  0
   34.0420   22.6880   37.4280 H   0  0  0  0  0  0  0  0  0  0  0  0
   34.8120   22.0380   39.7190 H   0  0  0  0  0  0  0  0  0  0  0  0
   37.8250   29.5990   40.7220 C   0  0  0  0  0  0  0  0  0  0  0  0
   36.7780   30.4700   40.9100 C   0  0  0  0  0  0  0  0  0  0  0  0
   37.3110   31.7240   40.5870 C   0  0  0  0  0  0  0  0  0  0  0  0
   38.6280   31.5400   40.2280 C   0  0  0  0  0  0  0  0  0  0  0  0
   38.8880   30.2460   40.3250 O   0  0  0  0  0  0  0  0  0  0  0  0
   35.7540   30.2350   41.2400 H   0  0  0  0  0  0  0  0  0  0  0  0
   36.7730   32.6640   40.6180 H   0  0  0  0  0  0  0  0  0  0  0  0
   39.4720   32.6150   39.8380 N   0  0  0  0  0  0  0  0  0  0  0  0
   39.4230   33.8470   40.4200 C   0  0  0  0  0  0  0  0  0  0  0  0
   38.7900   34.2120   41.2190 H   0  0  0  0  0  0  0  0  0  0  0  0
   40.3570   34.6390   39.8150 N   0  0  0  0  0  0  0  0  0  0  0  0
   40.9590   33.8940   38.8830 C   0  0  0  0  0  0  0  0  0  0  0  0
   41.9450   34.0800   37.9640 C   0  0  0  0  0  0  0  0  0  0  0  0
   42.3680   33.1220   37.1220 N   0  0  0  0  0  0  0  0  0  0  0  0
   41.8280   31.8870   37.1360 C   0  0  0  0  0  0  0  0  0  0  0  0
   42.0520   31.0250   36.5360 H   0  0  0  0  0  0  0  0  0  0  0  0
   40.8650   31.6810   38.0220 N   0  0  0  0  0  0  0  0  0  0  0  0
   40.4340   32.6220   38.8670 C   0  0  0  0  0  0  0  0  0  0  0  0
   42.6030   35.3080   37.8270 N   0  0  0  0  0  0  0  0  0  0  0  0
   43.3160   35.3030   38.6000 H   0  0  0  0  0  0  0  0  0  0  0  0
   43.0540   36.2280   37.6760 H   0  0  0  0  0  0  0  0  0  0  0  0
  1  2  2  0  0  0  0
  1  9  1  0  0  0  0
  2  3  1  0  0  0  0
  3 11  1  0  0  0  0
  3  4  2  0  0  0  0
  4  5  1  0  0  0  0
  5  6  1  0  0  0  0
  5 12  1  0  0  0  0
  6 13  1  0  0  0  0
  7  6  2  0  0  0  0
  8  4  1  0  0  0  0
  8  7  1  0  0  0  0
  9  8  2  0  0  0  0
 10  1  1  0  0  0  0
 14 15  2  0  0  0  0
 14 19  1  0  0  0  0
 15 16  1  0  0  0  0
 16 22  1  0  0  0  0
 16 17  2  0  0  0  0
 18 17  1  0  0  0  0
 18  2  1  0  0  0  0
 19 18  2  0  0  0  0
 20 14  1  0  0  0  0
 21 15  1  0  0  0  0
 23 24  2  0  0  0  0
 23  9  1  0  0  0  0
 24 28  1  0  0  0  0
 25 29  1  0  0  0  0
 25 24  1  0  0  0  0
 26 27  1  0  0  0  0
 26 25  2  0  0  0  0
 27 23  1  0  0  0  0
 30 26  1  0  0  0  0
 30 31  1  0  0  0  0
 31 32  1  0  0  0  0
 33 31  2  0  0  0  0
 34 33  1  0  0  0  0
 35 34  2  0  0  0  0
 36 37  2  0  0  0  0
 36 35  1  0  0  0  0
 37 39  1  0  0  0  0
 38 37  1  0  0  0  0
 39 40  2  0  0  0  0
 40 34  1  0  0  0  0
 40 30  1  0  0  0  0
 41 35  1  0  0  0  0
 41 42  1  0  0  0  0
 43 41  1  0  0  0  0
M  END
>  <minimizedAffinity>
-7.04589891

$$$$

 OpenBabel03252506583D

 43 48  0  0  0  0  0  0  0  0999 V2000
   36.4520   30.5330   38.5900 C   0  0  0  0  0  0  0  0  0  0  0  0
   35.5940   29.4570   38.6470 C   0  0  0  0  0  0  0  0  0  0  0  0
   35.4840   28.6470   39.7640 C   0  0  0  0  0  0  0  0  0  0  0  0
   36.2610   28.9050   40.8860 C   0  0  0  0  0  0  0  0  0  0  0  0
   36.4170   28.3440   42.1200 N   0  0  0  0  0  0  0  0  0  0  0  0
   37.3470   29.0560   42.8010 C   0  0  0  0  0  0  0  0  0  0  0  0
   37.7570   30.0510   41.9800 N   0  0  0  0  0  0  0  0  0  0  0  0
   37.1080   29.9790   40.8040 C   0  0  0  0  0  0  0  0  0  0  0  0
   37.2390   30.8000   39.7190 C   0  0  0  0  0  0  0  0  0  0  0  0
   36.5460   31.1730   37.7250 H   0  0  0  0  0  0  0  0  0  0  0  0
   34.8010   27.7910   39.8100 H   0  0  0  0  0  0  0  0  0  0  0  0
   35.8930   27.5190   42.4310 H   0  0  0  0  0  0  0  0  0  0  0  0
   37.6880   28.8580   43.8060 H   0  0  0  0  0  0  0  0  0  0  0  0
   32.6940   28.5180   36.5870 C   0  0  0  0  0  0  0  0  0  0  0  0
   33.2170   28.5480   35.2910 C   0  0  0  0  0  0  0  0  0  0  0  0
   34.5730   28.8920   35.1340 C   0  0  0  0  0  0  0  0  0  0  0  0
   35.2990   29.1780   36.2570 N   0  0  0  0  0  0  0  0  0  0  0  0
   34.7540   29.1390   37.4970 C   0  0  0  0  0  0  0  0  0  0  0  0
   33.4660   28.8120   37.6560 N   0  0  0  0  0  0  0  0  0  0  0  0
   31.6620   28.2570   36.7070 H   0  0  0  0  0  0  0  0  0  0  0  0
   32.6540   28.3240   34.3980 H   0  0  0  0  0  0  0  0  0  0  0  0
   35.0680   28.9410   34.1670 H   0  0  0  0  0  0  0  0  0  0  0  0
   38.1740   31.9280   39.7260 C   0  0  0  0  0  0  0  0  0  0  0  0
   37.8750   33.1970   40.1620 C   0  0  0  0  0  0  0  0  0  0  0  0
   39.0640   33.9130   39.9790 C   0  0  0  0  0  0  0  0  0  0  0  0
   39.9970   33.0480   39.4510 C   0  0  0  0  0  0  0  0  0  0  0  0
   39.4140   31.8680   39.3180 O   0  0  0  0  0  0  0  0  0  0  0  0
   36.9190   33.5660   40.5640 H   0  0  0  0  0  0  0  0  0  0  0  0
   39.2130   34.9600   40.2150 H   0  0  0  0  0  0  0  0  0  0  0  0
   41.3250   33.4520   39.1390 N   0  0  0  0  0  0  0  0  0  0  0  0
   41.7550   33.6720   37.8640 C   0  0  0  0  0  0  0  0  0  0  0  0
   41.2180   33.5920   36.9280 H   0  0  0  0  0  0  0  0  0  0  0  0
   43.0690   34.0430   37.9190 N   0  0  0  0  0  0  0  0  0  0  0  0
   43.4230   34.0460   39.2080 C   0  0  0  0  0  0  0  0  0  0  0  0
   44.5540   34.3140   39.9130 C   0  0  0  0  0  0  0  0  0  0  0  0
   44.6330   34.2340   41.2520 N   0  0  0  0  0  0  0  0  0  0  0  0
   43.5690   33.8730   41.9970 C   0  0  0  0  0  0  0  0  0  0  0  0
   43.4730   33.7630   43.0610 H   0  0  0  0  0  0  0  0  0  0  0  0
   42.4550   33.6050   41.3330 N   0  0  0  0  0  0  0  0  0  0  0  0
   42.3600   33.6810   40.0020 C   0  0  0  0  0  0  0  0  0  0  0  0
   45.7430   34.7010   39.2820 N   0  0  0  0  0  0  0  0  0  0  0  0
   45.6090   35.7270   39.0940 H   0  0  0  0  0  0  0  0  0  0  0  0
   46.6420   34.9290   38.8220 H   0  0  0  0  0  0  0  0  0  0  0  0
  1  2  2  0  0  0  0
  1  9  1  0  0  0  0
  2  3  1  0  0  0  0
  3 11  1  0  0  0  0
  3  4  2  0  0  0  0
  4  5  1  0  0  0  0
  5 12  1  0  0  0  0
  5  6  1  0  0  0  0
  6 13  1  0  0  0  0
  7  6  2  0  0  0  0
  8  4  1  0  0  0  0
  8  7  1  0  0  0  0
  9 23  1  0  0  0  0
  9  8  2  0  0  0  0
 10  1  1  0  0  0  0
 14 20  1  0  0  0  0
 14 19  1  0  0  0  0
 15 14  2  0  0  0  0
 16 15  1  0  0  0  0
 16 17  2  0  0  0  0
 17 18  1  0  0  0  0
 18 19  2  0  0  0  0
 18  2  1  0  0  0  0
 21 15  1  0  0  0  0
 22 16  1  0  0  0  0
 23 24  2  0  0  0  0
 24 28  1  0  0  0  0
 25 24  1  0  0  0  0
 25 29  1  0  0  0  0
 26 25  2  0  0  0  0
 27 26  1  0  0  0  0
 27 23  1  0  0  0  0
 30 26  1  0  0  0  0
 30 40  1  0  0  0  0
 31 33  2  0  0  0  0
 31 30  1  0  0  0  0
 32 31  1  0  0  0  0
 33 34  1  0  0  0  0
 34 35  2  0  0  0  0
 34 40  1  0  0  0  0
 35 36  1  0  0  0  0
 36 37  2  0  0  0  0
 37 38  1  0  0  0  0
 39 37  1  0  0  0  0
 40 39  2  0  0  0  0
 41 35  1  0  0  0  0
 42 41  1  0  0  0  0
 43 41  1  0  0  0  0
M  END
>  <minimizedAffinity>
-6.96544218

$$$$

 OpenBabel03252506583D

 43 48  0  0  0  0  0  0  0  0999 V2000
   36.6970   26.1640   40.1430 C   0  0  0  0  0  0  0  0  0  0  0  0
   36.5760   24.8300   39.8210 C   0  0  0  0  0  0  0  0  0  0  0  0
   37.3060   23.8390   40.4550 C   0  0  0  0  0  0  0  0  0  0  0  0
   38.2050   24.1760   41.4590 C   0  0  0  0  0  0  0  0  0  0  0  0
   39.0630   23.4970   42.2740 N   0  0  0  0  0  0  0  0  0  0  0  0
   39.6940   24.3910   43.0740 C   0  0  0  0  0  0  0  0  0  0  0  0
   39.2180   25.6150   42.7440 N   0  0  0  0  0  0  0  0  0  0  0  0
   38.3070   25.5090   41.7600 C   0  0  0  0  0  0  0  0  0  0  0  0
   37.6010   26.5120   41.1550 C   0  0  0  0  0  0  0  0  0  0  0  0
   36.1320   26.9460   39.6560 H   0  0  0  0  0  0  0  0  0  0  0  0
   37.2100   22.7780   40.2000 H   0  0  0  0  0  0  0  0  0  0  0  0
   39.1750   22.4780   42.2460 H   0  0  0  0  0  0  0  0  0  0  0  0
   40.4320   24.1600   43.8250 H   0  0  0  0  0  0  0  0  0  0  0  0
   34.5260   24.8270   36.7660 C   0  0  0  0  0  0  0  0  0  0  0  0
   33.8860   23.5860   36.8290 C   0  0  0  0  0  0  0  0  0  0  0  0
   34.1660   22.7530   37.9290 C   0  0  0  0  0  0  0  0  0  0  0  0
   35.0460   23.2060   38.8720 N   0  0  0  0  0  0  0  0  0  0  0  0
   35.6470   24.4180   38.7740 C   0  0  0  0  0  0  0  0  0  0  0  0
   35.3870   25.2150   37.7320 N   0  0  0  0  0  0  0  0  0  0  0  0
   34.3140   25.4610   35.9290 H   0  0  0  0  0  0  0  0  0  0  0  0
   33.1890   23.2180   36.0910 H   0  0  0  0  0  0  0  0  0  0  0  0
   33.7170   21.7720   38.0640 H   0  0  0  0  0  0  0  0  0  0  0  0
   37.7800   27.9120   41.5470 C   0  0  0  0  0  0  0  0  0  0  0  0
   37.8030   28.3720   42.8430 C   0  0  0  0  0  0  0  0  0  0  0  0
   37.9960   29.7520   42.7150 C   0  0  0  0  0  0  0  0  0  0  0  0
   38.0760   30.0420   41.3710 C   0  0  0  0  0  0  0  0  0  0  0  0
   37.9410   28.9020   40.7110 O   0  0  0  0  0  0  0  0  0  0  0  0
   37.6950   27.7870   43.7700 H   0  0  0  0  0  0  0  0  0  0  0  0
   38.0680   30.4580   43.5340 H   0  0  0  0  0  0  0  0  0  0  0  0
   38.2720   31.3630   40.8830 N   0  0  0  0  0  0  0  0  0  0  0  0
   37.2640   32.1190   40.3620 C   0  0  0  0  0  0  0  0  0  0  0  0
   36.2160   31.8830   40.2310 H   0  0  0  0  0  0  0  0  0  0  0  0
   37.7880   33.3250   39.9900 N   0  0  0  0  0  0  0  0  0  0  0  0
   39.0920   33.2940   40.2850 C   0  0  0  0  0  0  0  0  0  0  0  0
   40.1440   34.1480   40.1680 C   0  0  0  0  0  0  0  0  0  0  0  0
   41.3940   33.8470   40.5590 N   0  0  0  0  0  0  0  0  0  0  0  0
   41.6890   32.6490   41.1030 C   0  0  0  0  0  0  0  0  0  0  0  0
   42.6250   32.2610   41.4600 H   0  0  0  0  0  0  0  0  0  0  0  0
   40.6810   31.7990   41.2270 N   0  0  0  0  0  0  0  0  0  0  0  0
   39.4330   32.0830   40.8440 C   0  0  0  0  0  0  0  0  0  0  0  0
   39.9990   35.4280   39.6220 N   0  0  0  0  0  0  0  0  0  0  0  0
   39.6120   36.0010   40.4150 H   0  0  0  0  0  0  0  0  0  0  0  0
   39.9140   36.3530   39.1640 H   0  0  0  0  0  0  0  0  0  0  0  0
  1  9  1  0  0  0  0
  2  1  2  0  0  0  0
  2  3  1  0  0  0  0
  3  4  2  0  0  0  0
  4  8  1  0  0  0  0
  4  5  1  0  0  0  0
  5  6  1  0  0  0  0
  6 13  1  0  0  0  0
  7  6  2  0  0  0  0
  8  7  1  0  0  0  0
  9 23  1  0  0  0  0
  9  8  2  0  0  0  0
 10  1  1  0  0  0  0
 11  3  1  0  0  0  0
 12  5  1  0  0  0  0
 14 15  2  0  0  0  0
 14 19  1  0  0  0  0
 15 16  1  0  0  0  0
 16 22  1  0  0  0  0
 16 17  2  0  0  0  0
 18 17  1  0  0  0  0
 18  2  1  0  0  0  0
 19 18  2  0  0  0  0
 20 14  1  0  0  0  0
 21 15  1  0  0  0  0
 23 24  2  0  0  0  0
 24 28  1  0  0  0  0
 25 24  1  0  0  0  0
 25 29  1  0  0  0  0
 26 25  2  0  0  0  0
 27 26  1  0  0  0  0
 27 23  1  0  0  0  0
 30 26  1  0  0  0  0
 31 30  1  0  0  0  0
 32 31  1  0  0  0  0
 33 34  1  0  0  0  0
 33 31  2  0  0  0  0
 34 40  1  0  0  0  0
 35 34  2  0  0  0  0
 35 36  1  0  0  0  0
 36 37  2  0  0  0  0
 37 39  1  0  0  0  0
 37 38  1  0  0  0  0
 40 30  1  0  0  0  0
 40 39  2  0  0  0  0
 41 35  1  0  0  0  0
 41 42  1  0  0  0  0
 43 41  1  0  0  0  0
M  END
>  <minimizedAffinity>
-6.79858828

$$$$

 OpenBabel03252506583D

 43 48  0  0  0  0  0  0  0  0999 V2000
   41.3710   32.4620   41.1190 C   0  0  0  0  0  0  0  0  0  0  0  0
   41.7630   33.6780   40.6040 C   0  0  0  0  0  0  0  0  0  0  0  0
   40.8710   34.5730   40.0390 C   0  0  0  0  0  0  0  0  0  0  0  0
   39.5190   34.2570   39.9740 C   0  0  0  0  0  0  0  0  0  0  0  0
   38.3920   34.8650   39.5060 N   0  0  0  0  0  0  0  0  0  0  0  0
   37.3370   34.0450   39.7280 C   0  0  0  0  0  0  0  0  0  0  0  0
   37.8240   32.9350   40.3310 N   0  0  0  0  0  0  0  0  0  0  0  0
   39.1550   33.0420   40.4920 C   0  0  0  0  0  0  0  0  0  0  0  0
   40.0090   32.1360   41.0580 C   0  0  0  0  0  0  0  0  0  0  0  0
   42.0570   31.7560   41.5640 H   0  0  0  0  0  0  0  0  0  0  0  0
   41.1810   35.5400   39.6290 H   0  0  0  0  0  0  0  0  0  0  0  0
   38.3970   35.7920   39.0670 H   0  0  0  0  0  0  0  0  0  0  0  0
   36.3090   34.2480   39.4690 H   0  0  0  0  0  0  0  0  0  0  0  0
   44.9670   35.1090   41.7070 C   0  0  0  0  0  0  0  0  0  0  0  0
   45.8320   34.7620   40.6660 C   0  0  0  0  0  0  0  0  0  0  0  0
   45.3040   34.0330   39.5840 C   0  0  0  0  0  0  0  0  0  0  0  0
   43.9760   33.7070   39.6150 N   0  0  0  0  0  0  0  0  0  0  0  0
   43.1700   34.0630   40.6450 C   0  0  0  0  0  0  0  0  0  0  0  0
   43.6640   34.7560   41.6770 N   0  0  0  0  0  0  0  0  0  0  0  0
   45.3690   35.6640   42.5320 H   0  0  0  0  0  0  0  0  0  0  0  0
   46.8810   35.0130   40.6310 H   0  0  0  0  0  0  0  0  0  0  0  0
   45.8980   33.7180   38.7290 H   0  0  0  0  0  0  0  0  0  0  0  0
   39.5240   30.8590   41.5870 C   0  0  0  0  0  0  0  0  0  0  0  0
   39.2100   30.6190   42.9040 C   0  0  0  0  0  0  0  0  0  0  0  0
   38.7990   29.2810   42.9210 C   0  0  0  0  0  0  0  0  0  0  0  0
   38.8880   28.7980   41.6340 C   0  0  0  0  0  0  0  0  0  0  0  0
   39.3280   29.7850   40.8700 O   0  0  0  0  0  0  0  0  0  0  0  0
   39.2680   31.3200   43.7510 H   0  0  0  0  0  0  0  0  0  0  0  0
   38.4710   28.7330   43.7970 H   0  0  0  0  0  0  0  0  0  0  0  0
   38.5430   27.4620   41.2930 N   0  0  0  0  0  0  0  0  0  0  0  0
   37.6910   27.1510   40.2750 C   0  0  0  0  0  0  0  0  0  0  0  0
   37.1610   27.8010   39.5920 H   0  0  0  0  0  0  0  0  0  0  0  0
   37.5780   25.7900   40.2180 N   0  0  0  0  0  0  0  0  0  0  0  0
   38.3510   25.2910   41.1870 C   0  0  0  0  0  0  0  0  0  0  0  0
   38.6690   24.0510   41.6470 C   0  0  0  0  0  0  0  0  0  0  0  0
   39.5050   23.8300   42.6760 N   0  0  0  0  0  0  0  0  0  0  0  0
   40.0940   24.8500   43.3320 C   0  0  0  0  0  0  0  0  0  0  0  0
   40.7750   24.8390   44.1620 H   0  0  0  0  0  0  0  0  0  0  0  0
   39.8000   26.0680   42.9030 N   0  0  0  0  0  0  0  0  0  0  0  0
   38.9720   26.3050   41.8820 C   0  0  0  0  0  0  0  0  0  0  0  0
   38.1380   22.8910   41.0700 N   0  0  0  0  0  0  0  0  0  0  0  0
   38.7340   22.7350   40.2170 H   0  0  0  0  0  0  0  0  0  0  0  0
   37.7040   22.0310   40.6910 H   0  0  0  0  0  0  0  0  0  0  0  0
  1 10  1  0  0  0  0
  2 18  1  0  0  0  0
  2  1  2  0  0  0  0
  3  2  1  0  0  0  0
  4  3  2  0  0  0  0
  4  8  1  0  0  0  0
  5  6  1  0  0  0  0
  5  4  1  0  0  0  0
  6  7  2  0  0  0  0
  7  8  1  0  0  0  0
  8  9  2  0  0  0  0
  9  1  1  0  0  0  0
  9 23  1  0  0  0  0
 11  3  1  0  0  0  0
 12  5  1  0  0  0  0
 13  6  1  0  0  0  0
 14 20  1  0  0  0  0
 15 14  2  0  0  0  0
 16 17  2  0  0  0  0
 16 15  1  0  0  0  0
 17 18  1  0  0  0  0
 18 19  2  0  0  0  0
 19 14  1  0  0  0  0
 21 15  1  0  0  0  0
 22 16  1  0  0  0  0
 23 24  2  0  0  0  0
 24 25  1  0  0  0  0
 24 28  1  0  0  0  0
 25 29  1  0  0  0  0
 26 25  2  0  0  0  0
 27 23  1  0  0  0  0
 27 26  1  0  0  0  0
 30 26  1  0  0  0  0
 30 40  1  0  0  0  0
 31 30  1  0  0  0  0
 32 31  1  0  0  0  0
 33 31  2  0  0  0  0
 33 34  1  0  0  0  0
 34 35  2  0  0  0  0
 34 40  1  0  0  0  0
 35 36  1  0  0  0  0
 36 37  2  0  0  0  0
 37 38  1  0  0  0  0
 39 37  1  0  0  0  0
 40 39  2  0  0  0  0
 41 35  1  0  0  0  0
 42 41  1  0  0  0  0
 43 41  1  0  0  0  0
M  END
>  <minimizedAffinity>
-6.74140358

$$$$

 OpenBabel03252506583D

 43 48  0  0  0  0  0  0  0  0999 V2000
   36.9680   26.1830   40.3760 C   0  0  0  0  0  0  0  0  0  0  0  0
   36.7890   24.8200   40.3040 C   0  0  0  0  0  0  0  0  0  0  0  0
   37.4910   23.9300   41.0990 C   0  0  0  0  0  0  0  0  0  0  0  0
   38.4220   24.4040   42.0140 C   0  0  0  0  0  0  0  0  0  0  0  0
   39.2680   23.8490   42.9280 N   0  0  0  0  0  0  0  0  0  0  0  0
   39.9490   24.8450   43.5450 C   0  0  0  0  0  0  0  0  0  0  0  0
   39.5160   26.0080   43.0040 N   0  0  0  0  0  0  0  0  0  0  0  0
   38.5830   25.7640   42.0670 C   0  0  0  0  0  0  0  0  0  0  0  0
   37.9060   26.6700   41.2980 C   0  0  0  0  0  0  0  0  0  0  0  0
   36.4260   26.8880   39.7620 H   0  0  0  0  0  0  0  0  0  0  0  0
   37.3480   22.8450   41.0420 H   0  0  0  0  0  0  0  0  0  0  0  0
   39.3390   22.8380   43.0850 H   0  0  0  0  0  0  0  0  0  0  0  0
   40.6920   24.7220   44.3170 H   0  0  0  0  0  0  0  0  0  0  0  0
   34.6190   24.3930   37.3640 C   0  0  0  0  0  0  0  0  0  0  0  0
   33.9980   23.1670   37.6170 C   0  0  0  0  0  0  0  0  0  0  0  0
   34.3320   22.4910   38.8060 C   0  0  0  0  0  0  0  0  0  0  0  0
   35.2440   23.0720   39.6430 N   0  0  0  0  0  0  0  0  0  0  0  0
   35.8240   24.2640   39.3600 C   0  0  0  0  0  0  0  0  0  0  0  0
   35.5130   24.9130   38.2330 N   0  0  0  0  0  0  0  0  0  0  0  0
   34.3650   24.9090   36.4590 H   0  0  0  0  0  0  0  0  0  0  0  0
   33.2770   22.6990   36.9650 H   0  0  0  0  0  0  0  0  0  0  0  0
   33.9010   21.5330   39.0890 H   0  0  0  0  0  0  0  0  0  0  0  0
   38.1470   28.1090   41.4260 C   0  0  0  0  0  0  0  0  0  0  0  0
   37.3260   28.9910   42.0890 C   0  0  0  0  0  0  0  0  0  0  0  0
   37.9620   30.2290   41.9430 C   0  0  0  0  0  0  0  0  0  0  0  0
   39.1110   30.0280   41.2110 C   0  0  0  0  0  0  0  0  0  0  0  0
   39.1780   28.7370   40.9250 O   0  0  0  0  0  0  0  0  0  0  0  0
   36.3840   28.7720   42.6160 H   0  0  0  0  0  0  0  0  0  0  0  0
   37.6040   31.1720   42.3400 H   0  0  0  0  0  0  0  0  0  0  0  0
   40.0010   31.0850   40.8770 N   0  0  0  0  0  0  0  0  0  0  0  0
   41.3500   30.9150   40.7720 C   0  0  0  0  0  0  0  0  0  0  0  0
   41.9500   30.0250   40.9090 H   0  0  0  0  0  0  0  0  0  0  0  0
   41.9030   32.1200   40.4400 N   0  0  0  0  0  0  0  0  0  0  0  0
   40.9020   33.0000   40.3480 C   0  0  0  0  0  0  0  0  0  0  0  0
   40.7830   34.3240   40.0610 C   0  0  0  0  0  0  0  0  0  0  0  0
   39.6100   34.9790   40.0380 N   0  0  0  0  0  0  0  0  0  0  0  0
   38.4490   34.3470   40.3050 C   0  0  0  0  0  0  0  0  0  0  0  0
   37.4440   34.7240   40.3270 H   0  0  0  0  0  0  0  0  0  0  0  0
   38.5380   33.0560   40.5880 N   0  0  0  0  0  0  0  0  0  0  0  0
   39.6960   32.3910   40.6140 C   0  0  0  0  0  0  0  0  0  0  0  0
   41.8980   35.1180   39.7640 N   0  0  0  0  0  0  0  0  0  0  0  0
   42.0960   34.9090   38.7520 H   0  0  0  0  0  0  0  0  0  0  0  0
   42.7200   35.7250   39.6020 H   0  0  0  0  0  0  0  0  0  0  0  0
  1  9  1  0  0  0  0
  2  1  2  0  0  0  0
  2  3  1  0  0  0  0
  3  4  2  0  0  0  0
  4  8  1  0  0  0  0
  4  5  1  0  0  0  0
  5 12  1  0  0  0  0
  5  6  1  0  0  0  0
  6 13  1  0  0  0  0
  7  6  2  0  0  0  0
  8  7  1  0  0  0  0
  9 23  1  0  0  0  0
  9  8  2  0  0  0  0
 10  1  1  0  0  0  0
 11  3  1  0  0  0  0
 14 15  2  0  0  0  0
 14 19  1  0  0  0  0
 15 16  1  0  0  0  0
 16 22  1  0  0  0  0
 16 17  2  0  0  0  0
 18 17  1  0  0  0  0
 18  2  1  0  0  0  0
 19 18  2  0  0  0  0
 20 14  1  0  0  0  0
 21 15  1  0  0  0  0
 23 24  2  0  0  0  0
 24 28  1  0  0  0  0
 25 24  1  0  0  0  0
 25 29  1  0  0  0  0
 26 25  2  0  0  0  0
 27 26  1  0  0  0  0
 27 23  1  0  0  0  0
 30 26  1  0  0  0  0
 31 30  1  0  0  0  0
 31 32  1  0  0  0  0
 33 31  2  0  0  0  0
 34 33  1  0  0  0  0
 34 40  1  0  0  0  0
 35 34  2  0  0  0  0
 36 35  1  0  0  0  0
 36 37  2  0  0  0  0
 37 38  1  0  0  0  0
 37 39  1  0  0  0  0
 39 40  2  0  0  0  0
 40 30  1  0  0  0  0
 41 35  1  0  0  0  0
 42 41  1  0  0  0  0
 43 41  1  0  0  0  0
M  END
>  <minimizedAffinity>
-6.7220459

$$$$

 OpenBabel03252506583D

 43 48  0  0  0  0  0  0  0  0999 V2000
   41.2720   32.1800   38.2680 C   0  0  0  0  0  0  0  0  0  0  0  0
   42.2820   33.1150   38.2860 C   0  0  0  0  0  0  0  0  0  0  0  0
   42.1450   34.3540   38.8900 C   0  0  0  0  0  0  0  0  0  0  0  0
   40.9490   34.6930   39.5100 C   0  0  0  0  0  0  0  0  0  0  0  0
   40.4660   35.7780   40.1800 N   0  0  0  0  0  0  0  0  0  0  0  0
   39.1930   35.5160   40.5640 C   0  0  0  0  0  0  0  0  0  0  0  0
   38.9020   34.2690   40.1240 N   0  0  0  0  0  0  0  0  0  0  0  0
   39.9590   33.7460   39.4780 C   0  0  0  0  0  0  0  0  0  0  0  0
   40.0620   32.5150   38.8920 C   0  0  0  0  0  0  0  0  0  0  0  0
   41.3670   31.2110   37.8010 H   0  0  0  0  0  0  0  0  0  0  0  0
   42.9490   35.0980   38.9050 H   0  0  0  0  0  0  0  0  0  0  0  0
   41.0180   36.6280   40.3410 H   0  0  0  0  0  0  0  0  0  0  0  0
   38.5460   36.1810   41.1130 H   0  0  0  0  0  0  0  0  0  0  0  0
   45.7670   33.3830   37.1370 C   0  0  0  0  0  0  0  0  0  0  0  0
   45.9490   32.1900   36.4320 C   0  0  0  0  0  0  0  0  0  0  0  0
   44.8650   31.2960   36.3560 C   0  0  0  0  0  0  0  0  0  0  0  0
   43.6970   31.6460   36.9760 N   0  0  0  0  0  0  0  0  0  0  0  0
   43.5610   32.8140   37.6500 C   0  0  0  0  0  0  0  0  0  0  0  0
   44.5860   33.6690   37.7280 N   0  0  0  0  0  0  0  0  0  0  0  0
   46.5920   34.0640   37.1960 H   0  0  0  0  0  0  0  0  0  0  0  0
   46.8660   31.9040   35.9390 H   0  0  0  0  0  0  0  0  0  0  0  0
   44.9110   30.3450   35.8300 H   0  0  0  0  0  0  0  0  0  0  0  0
   38.9450   31.5680   38.9090 C   0  0  0  0  0  0  0  0  0  0  0  0
   37.6990   31.8070   38.3790 C   0  0  0  0  0  0  0  0  0  0  0  0
   36.9850   30.6300   38.6320 C   0  0  0  0  0  0  0  0  0  0  0  0
   37.8270   29.7610   39.2900 C   0  0  0  0  0  0  0  0  0  0  0  0
   38.9930   30.3710   39.4320 O   0  0  0  0  0  0  0  0  0  0  0  0
   37.3440   32.7170   37.8720 H   0  0  0  0  0  0  0  0  0  0  0  0
   35.9540   30.4460   38.3550 H   0  0  0  0  0  0  0  0  0  0  0  0
   37.4200   28.4620   39.7000 N   0  0  0  0  0  0  0  0  0  0  0  0
   36.5260   27.7080   38.9990 C   0  0  0  0  0  0  0  0  0  0  0  0
   36.0030   27.9310   38.0780 H   0  0  0  0  0  0  0  0  0  0  0  0
   36.3570   26.5260   39.6620 N   0  0  0  0  0  0  0  0  0  0  0  0
   37.1380   26.5690   40.7460 C   0  0  0  0  0  0  0  0  0  0  0  0
   37.4190   25.7380   41.7850 C   0  0  0  0  0  0  0  0  0  0  0  0
   38.2750   26.0460   42.7740 N   0  0  0  0  0  0  0  0  0  0  0  0
   38.9230   27.2280   42.7980 C   0  0  0  0  0  0  0  0  0  0  0  0
   39.6280   27.6190   43.5080 H   0  0  0  0  0  0  0  0  0  0  0  0
   38.6660   28.0560   41.7960 N   0  0  0  0  0  0  0  0  0  0  0  0
   37.8190   27.7640   40.8050 C   0  0  0  0  0  0  0  0  0  0  0  0
   36.8250   24.4760   41.9030 N   0  0  0  0  0  0  0  0  0  0  0  0
   37.3890   23.8680   41.2550 H   0  0  0  0  0  0  0  0  0  0  0  0
   36.3460   23.5670   42.0310 H   0  0  0  0  0  0  0  0  0  0  0  0
  1  2  2  0  0  0  0
  1  9  1  0  0  0  0
  2  3  1  0  0  0  0
  3 11  1  0  0  0  0
  3  4  2  0  0  0  0
  4  5  1  0  0  0  0
  5 12  1  0  0  0  0
  5  6  1  0  0  0  0
  6 13  1  0  0  0  0
  7  6  2  0  0  0  0
  8  4  1  0  0  0  0
  8  7  1  0  0  0  0
  9 23  1  0  0  0  0
  9  8  2  0  0  0  0
 10  1  1  0  0  0  0
 14 20  1  0  0  0  0
 14 19  1  0  0  0  0
 15 14  2  0  0  0  0
 16 15  1  0  0  0  0
 16 17  2  0  0  0  0
 17 18  1  0  0  0  0
 18 19  2  0  0  0  0
 18  2  1  0  0  0  0
 21 15  1  0  0  0  0
 22 16  1  0  0  0  0
 23 27  1  0  0  0  0
 24 25  1  0  0  0  0
 24 23  2  0  0  0  0
 25 26  2  0  0  0  0
 26 27  1  0  0  0  0
 26 30  1  0  0  0  0
 28 24  1  0  0  0  0
 29 25  1  0  0  0  0
 30 40  1  0  0  0  0
 31 33  2  0  0  0  0
 31 30  1  0  0  0  0
 32 31  1  0  0  0  0
 33 34  1  0  0  0  0
 34 40  2  0  0  0  0
 34 35  1  0  0  0  0
 35 41  1  0  0  0  0
 35 36  2  0  0  0  0
 36 37  1  0  0  0  0
 37 38  1  0  0  0  0
 39 37  2  0  0  0  0
 40 39  1  0  0  0  0
 41 43  1  0  0  0  0
 42 41  1  0  0  0  0
M  END
>  <minimizedAffinity>
-6.7092576

$$$$

 OpenBabel03252506583D

 43 48  0  0  0  0  0  0  0  0999 V2000
   41.0610   31.7070   41.3460 C   0  0  0  0  0  0  0  0  0  0  0  0
   41.3740   32.8840   40.7030 C   0  0  0  0  0  0  0  0  0  0  0  0
   40.4690   33.5650   39.9070 C   0  0  0  0  0  0  0  0  0  0  0  0
   39.1860   33.0620   39.7310 C   0  0  0  0  0  0  0  0  0  0  0  0
   38.0700   33.4430   39.0460 N   0  0  0  0  0  0  0  0  0  0  0  0
   37.0980   32.5240   39.2620 C   0  0  0  0  0  0  0  0  0  0  0  0
   37.6250   31.5830   40.0800 N   0  0  0  0  0  0  0  0  0  0  0  0
   38.8990   31.8900   40.3800 C   0  0  0  0  0  0  0  0  0  0  0  0
   39.7690   31.1930   41.1740 C   0  0  0  0  0  0  0  0  0  0  0  0
   41.7580   31.1670   41.9710 H   0  0  0  0  0  0  0  0  0  0  0  0
   40.7170   34.5020   39.3960 H   0  0  0  0  0  0  0  0  0  0  0  0
   38.0260   34.2940   38.4750 H   0  0  0  0  0  0  0  0  0  0  0  0
   36.0990   32.5480   38.8550 H   0  0  0  0  0  0  0  0  0  0  0  0
   44.9540   33.5870   40.2260 C   0  0  0  0  0  0  0  0  0  0  0  0
   45.2000   34.5820   41.1770 C   0  0  0  0  0  0  0  0  0  0  0  0
   44.1250   35.0060   41.9810 C   0  0  0  0  0  0  0  0  0  0  0  0
   42.9050   34.4220   41.7860 N   0  0  0  0  0  0  0  0  0  0  0  0
   42.7070   33.4590   40.8520 C   0  0  0  0  0  0  0  0  0  0  0  0
   43.7220   33.0500   40.0830 N   0  0  0  0  0  0  0  0  0  0  0  0
   45.7710   33.2640   39.6130 H   0  0  0  0  0  0  0  0  0  0  0  0
   46.1580   35.0500   41.3400 H   0  0  0  0  0  0  0  0  0  0  0  0
   44.2190   35.7730   42.7480 H   0  0  0  0  0  0  0  0  0  0  0  0
   39.3690   29.9460   41.8280 C   0  0  0  0  0  0  0  0  0  0  0  0
   38.7440   29.8600   43.0500 C   0  0  0  0  0  0  0  0  0  0  0  0
   38.5660   28.4870   43.2510 C   0  0  0  0  0  0  0  0  0  0  0  0
   39.0870   27.8320   42.1570 C   0  0  0  0  0  0  0  0  0  0  0  0
   39.5560   28.7520   41.3300 O   0  0  0  0  0  0  0  0  0  0  0  0
   38.4500   30.6850   43.7180 H   0  0  0  0  0  0  0  0  0  0  0  0
   38.1010   28.0310   44.1180 H   0  0  0  0  0  0  0  0  0  0  0  0
   39.0710   26.4150   42.0340 N   0  0  0  0  0  0  0  0  0  0  0  0
   39.8930   25.5980   42.7530 C   0  0  0  0  0  0  0  0  0  0  0  0
   40.6460   25.8460   43.4890 H   0  0  0  0  0  0  0  0  0  0  0  0
   39.6230   24.3070   42.3970 N   0  0  0  0  0  0  0  0  0  0  0  0
   38.6530   24.3480   41.4780 C   0  0  0  0  0  0  0  0  0  0  0  0
   37.9580   23.4370   40.7450 C   0  0  0  0  0  0  0  0  0  0  0  0
   37.0010   23.7670   39.8610 N   0  0  0  0  0  0  0  0  0  0  0  0
   36.6650   25.0540   39.6390 C   0  0  0  0  0  0  0  0  0  0  0  0
   35.9330   25.4750   38.9750 H   0  0  0  0  0  0  0  0  0  0  0  0
   37.3290   25.9600   40.3410 N   0  0  0  0  0  0  0  0  0  0  0  0
   38.2810   25.6490   41.2240 C   0  0  0  0  0  0  0  0  0  0  0  0
   38.1930   22.0620   40.8620 N   0  0  0  0  0  0  0  0  0  0  0  0
   37.6600   21.7840   41.7250 H   0  0  0  0  0  0  0  0  0  0  0  0
   38.4000   21.0480   40.8960 H   0  0  0  0  0  0  0  0  0  0  0  0
  1 10  1  0  0  0  0
  2 18  1  0  0  0  0
  2  1  2  0  0  0  0
  3  2  1  0  0  0  0
  4  3  2  0  0  0  0
  4  8  1  0  0  0  0
  5  6  1  0  0  0  0
  5  4  1  0  0  0  0
  6  7  2  0  0  0  0
  7  8  1  0  0  0  0
  8  9  2  0  0  0  0
  9  1  1  0  0  0  0
  9 23  1  0  0  0  0
 11  3  1  0  0  0  0
 12  5  1  0  0  0  0
 13  6  1  0  0  0  0
 14 15  1  0  0  0  0
 15 21  1  0  0  0  0
 15 16  2  0  0  0  0
 16 22  1  0  0  0  0
 17 16  1  0  0  0  0
 18 17  2  0  0  0  0
 19 14  2  0  0  0  0
 19 18  1  0  0  0  0
 20 14  1  0  0  0  0
 23 24  2  0  0  0  0
 24 25  1  0  0  0  0
 24 28  1  0  0  0  0
 25 29  1  0  0  0  0
 26 25  2  0  0  0  0
 27 23  1  0  0  0  0
 27 26  1  0  0  0  0
 30 26  1  0  0  0  0
 30 31  1  0  0  0  0
 31 32  1  0  0  0  0
 33 31  2  0  0  0  0
 34 33  1  0  0  0  0
 35 41  1  0  0  0  0
 35 34  2  0  0  0  0
 36 35  1  0  0  0  0
 37 36  2  0  0  0  0
 37 39  1  0  0  0  0
 38 37  1  0  0  0  0
 39 40  2  0  0  0  0
 40 34  1  0  0  0  0
 40 30  1  0  0  0  0
 41 43  1  0  0  0  0
 41 42  1  0  0  0  0
M  END
>  <minimizedAffinity>
-6.620996

$$$$
