
 OpenBabel03242515273D

 36 39  0  0  0  0  0  0  0  0999 V2000
   38.4560   29.5200   42.4340 C   0  0  0  0  0  0  0  0  0  0  0  0
   39.1490   28.3180   42.5640 C   0  0  0  0  0  0  0  0  0  0  0  0
   40.3050   28.1990   41.8250 C   0  0  0  0  0  0  0  0  0  0  0  0
   40.6960   29.2190   41.0370 N   0  0  0  0  0  0  0  0  0  0  0  0
   39.9900   30.3650   40.9440 C   0  0  0  0  0  0  0  0  0  0  0  0
   38.8430   30.5450   41.6470 N   0  0  0  0  0  0  0  0  0  0  0  0
   37.5250   29.7000   42.9860 H   0  0  0  0  0  0  0  0  0  0  0  0
   40.8390   27.2610   41.9300 H   0  0  0  0  0  0  0  0  0  0  0  0
   40.4080   31.4390   40.1120 N   0  0  0  0  0  0  0  0  0  0  0  0
   40.1040   32.7390   40.2510 C   0  0  0  0  0  0  0  0  0  0  0  0
   39.4820   33.1540   41.0400 H   0  0  0  0  0  0  0  0  0  0  0  0
   40.6850   33.4710   39.2630 N   0  0  0  0  0  0  0  0  0  0  0  0
   41.3670   32.6410   38.4820 C   0  0  0  0  0  0  0  0  0  0  0  0
   42.1370   32.7940   37.3560 C   0  0  0  0  0  0  0  0  0  0  0  0
   42.6960   31.6980   36.8090 N   0  0  0  0  0  0  0  0  0  0  0  0
   42.5240   30.4650   37.3290 C   0  0  0  0  0  0  0  0  0  0  0  0
   42.9980   29.5960   36.8520 H   0  0  0  0  0  0  0  0  0  0  0  0
   41.7720   30.2830   38.4360 N   0  0  0  0  0  0  0  0  0  0  0  0
   41.1900   31.3670   39.0190 C   0  0  0  0  0  0  0  0  0  0  0  0
   38.5670   27.3230   43.4690 C   0  0  0  0  0  0  0  0  0  0  0  0
   39.1850   27.1720   44.3510 H   0  0  0  0  0  0  0  0  0  0  0  0
   37.5950   27.7350   43.8640 H   0  0  0  0  0  0  0  0  0  0  0  0
   38.2950   26.1130   42.7160 N   0  0  0  0  0  0  0  0  0  0  0  0
   37.2320   26.0560   41.9060 C   0  0  0  0  0  0  0  0  0  0  0  0
   37.0180   24.8730   41.2090 C   0  0  0  0  0  0  0  0  0  0  0  0
   37.8710   23.7940   41.3440 C   0  0  0  0  0  0  0  0  0  0  0  0
   37.6380   22.7510   40.6960 O   0  0  0  0  0  0  0  0  0  0  0  0
   38.9270   23.8970   42.1710 N   0  0  0  0  0  0  0  0  0  0  0  0
   39.1480   25.0470   42.8590 C   0  0  0  0  0  0  0  0  0  0  0  0
   40.1590   25.0830   43.6210 O   0  0  0  0  0  0  0  0  0  0  0  0
   36.5610   26.8850   41.7900 H   0  0  0  0  0  0  0  0  0  0  0  0
   36.1710   24.7750   40.5390 H   0  0  0  0  0  0  0  0  0  0  0  0
   39.5910   23.0990   42.2960 H   0  0  0  0  0  0  0  0  0  0  0  0
   42.3390   34.0600   36.7850 N   0  0  0  0  0  0  0  0  0  0  0  0
   42.3380   34.1610   35.7380 H   0  0  0  0  0  0  0  0  0  0  0  0
   42.4980   34.9530   37.3200 H   0  0  0  0  0  0  0  0  0  0  0  0
  1  2  1  0  0  0  0
  1  7  1  0  0  0  0
  2 20  1  0  0  0  0
  3  8  1  0  0  0  0
  3  2  2  0  0  0  0
  4  3  1  0  0  0  0
  5  4  2  0  0  0  0
  5  6  1  0  0  0  0
  6  1  2  0  0  0  0
  9 10  1  0  0  0  0
  9  5  1  0  0  0  0
 10 11  1  0  0  0  0
 12 10  2  0  0  0  0
 13 19  1  0  0  0  0
 13 12  1  0  0  0  0
 14 13  2  0  0  0  0
 15 16  2  0  0  0  0
 15 14  1  0  0  0  0
 16 18  1  0  0  0  0
 17 16  1  0  0  0  0
 18 19  2  0  0  0  0
 19  9  1  0  0  0  0
 20 22  1  0  0  0  0
 20 21  1  0  0  0  0
 23 29  1  0  0  0  0
 23 20  1  0  0  0  0
 24 23  1  0  0  0  0
 25 26  1  0  0  0  0
 25 24  2  0  0  0  0
 26 28  1  0  0  0  0
 27 26  2  0  0  0  0
 28 33  1  0  0  0  0
 28 29  1  0  0  0  0
 29 30  2  0  0  0  0
 31 24  1  0  0  0  0
 32 25  1  0  0  0  0
 34 36  1  0  0  0  0
 34 14  1  0  0  0  0
 35 34  1  0  0  0  0
M  END
>  <minimizedAffinity>
-6.53716183

$$$$

 OpenBabel03242515273D

 36 39  0  0  0  0  0  0  0  0999 V2000
   40.4770   27.9720   41.5520 C   0  0  0  0  0  0  0  0  0  0  0  0
   39.4380   28.4050   42.3740 C   0  0  0  0  0  0  0  0  0  0  0  0
   38.9820   29.6860   42.1530 C   0  0  0  0  0  0  0  0  0  0  0  0
   39.5450   30.4320   41.1840 N   0  0  0  0  0  0  0  0  0  0  0  0
   40.5500   29.9680   40.4140 C   0  0  0  0  0  0  0  0  0  0  0  0
   41.0440   28.7150   40.5790 N   0  0  0  0  0  0  0  0  0  0  0  0
   40.9010   26.9660   41.6580 H   0  0  0  0  0  0  0  0  0  0  0  0
   38.1740   30.0170   42.7960 H   0  0  0  0  0  0  0  0  0  0  0  0
   41.1410   30.7600   39.3910 N   0  0  0  0  0  0  0  0  0  0  0  0
   41.7820   30.3250   38.2950 C   0  0  0  0  0  0  0  0  0  0  0  0
   41.9390   29.2800   38.0370 H   0  0  0  0  0  0  0  0  0  0  0  0
   42.2120   31.3760   37.5480 N   0  0  0  0  0  0  0  0  0  0  0  0
   41.8480   32.4960   38.1620 C   0  0  0  0  0  0  0  0  0  0  0  0
   41.9980   33.8340   37.8930 C   0  0  0  0  0  0  0  0  0  0  0  0
   41.4850   34.7230   38.7640 N   0  0  0  0  0  0  0  0  0  0  0  0
   40.8350   34.3440   39.8840 C   0  0  0  0  0  0  0  0  0  0  0  0
   40.4310   35.1020   40.5690 H   0  0  0  0  0  0  0  0  0  0  0  0
   40.6720   33.0340   40.1750 N   0  0  0  0  0  0  0  0  0  0  0  0
   41.1760   32.1040   39.3180 C   0  0  0  0  0  0  0  0  0  0  0  0
   38.9540   27.4500   43.3740 C   0  0  0  0  0  0  0  0  0  0  0  0
   39.6890   27.2810   44.1560 H   0  0  0  0  0  0  0  0  0  0  0  0
   38.0710   27.9120   43.9000 H   0  0  0  0  0  0  0  0  0  0  0  0
   38.5180   26.2450   42.6930 N   0  0  0  0  0  0  0  0  0  0  0  0
   37.4280   26.2740   41.9180 C   0  0  0  0  0  0  0  0  0  0  0  0
   37.0560   25.0910   41.2890 C   0  0  0  0  0  0  0  0  0  0  0  0
   37.7830   23.9280   41.4560 C   0  0  0  0  0  0  0  0  0  0  0  0
   37.4090   22.8900   40.8700 O   0  0  0  0  0  0  0  0  0  0  0  0
   38.8720   23.9470   42.2460 N   0  0  0  0  0  0  0  0  0  0  0  0
   39.2480   25.0950   42.8660 C   0  0  0  0  0  0  0  0  0  0  0  0
   40.2820   25.0500   43.5960 O   0  0  0  0  0  0  0  0  0  0  0  0
   36.8540   27.1690   41.7780 H   0  0  0  0  0  0  0  0  0  0  0  0
   36.1800   25.0610   40.6500 H   0  0  0  0  0  0  0  0  0  0  0  0
   39.4440   23.0840   42.3930 H   0  0  0  0  0  0  0  0  0  0  0  0
   42.6680   34.2680   36.7390 N   0  0  0  0  0  0  0  0  0  0  0  0
   43.3100   35.0990   36.7960 H   0  0  0  0  0  0  0  0  0  0  0  0
   42.5900   33.8280   35.7850 H   0  0  0  0  0  0  0  0  0  0  0  0
  1  7  1  0  0  0  0
  1  2  1  0  0  0  0
  2 20  1  0  0  0  0
  3  2  2  0  0  0  0
  3  8  1  0  0  0  0
  4  3  1  0  0  0  0
  5  6  1  0  0  0  0
  5  4  2  0  0  0  0
  6  1  2  0  0  0  0
  9  5  1  0  0  0  0
 10  9  1  0  0  0  0
 11 10  1  0  0  0  0
 12 13  1  0  0  0  0
 12 10  2  0  0  0  0
 13 19  1  0  0  0  0
 14 13  2  0  0  0  0
 14 15  1  0  0  0  0
 15 16  2  0  0  0  0
 16 18  1  0  0  0  0
 16 17  1  0  0  0  0
 19  9  1  0  0  0  0
 19 18  2  0  0  0  0
 20 22  1  0  0  0  0
 20 21  1  0  0  0  0
 23 29  1  0  0  0  0
 23 20  1  0  0  0  0
 24 23  1  0  0  0  0
 25 26  1  0  0  0  0
 25 24  2  0  0  0  0
 26 28  1  0  0  0  0
 27 26  2  0  0  0  0
 28 33  1  0  0  0  0
 28 29  1  0  0  0  0
 29 30  2  0  0  0  0
 31 24  1  0  0  0  0
 32 25  1  0  0  0  0
 34 35  1  0  0  0  0
 34 14  1  0  0  0  0
 36 34  1  0  0  0  0
M  END
>  <minimizedAffinity>
-6.41154385

$$$$

 OpenBabel03242515273D

 36 39  0  0  0  0  0  0  0  0999 V2000
   38.2600   31.2560   39.0430 C   0  0  0  0  0  0  0  0  0  0  0  0
   37.7810   31.5550   40.3170 C   0  0  0  0  0  0  0  0  0  0  0  0
   38.5710   32.3820   41.0860 C   0  0  0  0  0  0  0  0  0  0  0  0
   39.7300   32.8460   40.5820 N   0  0  0  0  0  0  0  0  0  0  0  0
   40.1520   32.5280   39.3410 C   0  0  0  0  0  0  0  0  0  0  0  0
   39.4200   31.7190   38.5340 N   0  0  0  0  0  0  0  0  0  0  0  0
   37.6960   30.6050   38.3640 H   0  0  0  0  0  0  0  0  0  0  0  0
   38.1930   32.6100   42.0760 H   0  0  0  0  0  0  0  0  0  0  0  0
   41.3770   33.0220   38.8140 N   0  0  0  0  0  0  0  0  0  0  0  0
   41.6980   33.1810   37.5210 C   0  0  0  0  0  0  0  0  0  0  0  0
   41.0480   32.9460   36.6820 H   0  0  0  0  0  0  0  0  0  0  0  0
   42.9590   33.6770   37.4030 N   0  0  0  0  0  0  0  0  0  0  0  0
   43.4540   33.8410   38.6240 C   0  0  0  0  0  0  0  0  0  0  0  0
   44.6480   34.2970   39.1260 C   0  0  0  0  0  0  0  0  0  0  0  0
   44.8110   34.3280   40.4620 N   0  0  0  0  0  0  0  0  0  0  0  0
   43.8460   33.9280   41.3150 C   0  0  0  0  0  0  0  0  0  0  0  0
   44.0190   33.9690   42.4000 H   0  0  0  0  0  0  0  0  0  0  0  0
   42.6610   33.4750   40.8510 N   0  0  0  0  0  0  0  0  0  0  0  0
   42.4570   33.4290   39.5060 C   0  0  0  0  0  0  0  0  0  0  0  0
   36.4970   30.9550   40.6900 C   0  0  0  0  0  0  0  0  0  0  0  0
   35.9380   31.5930   41.3690 H   0  0  0  0  0  0  0  0  0  0  0  0
   35.8600   30.8890   39.7630 H   0  0  0  0  0  0  0  0  0  0  0  0
   36.7390   29.6150   41.1920 N   0  0  0  0  0  0  0  0  0  0  0  0
   37.3440   29.4430   42.3730 C   0  0  0  0  0  0  0  0  0  0  0  0
   37.5510   28.1380   42.8050 C   0  0  0  0  0  0  0  0  0  0  0  0
   37.1470   27.0570   42.0460 C   0  0  0  0  0  0  0  0  0  0  0  0
   37.3560   25.9030   42.4760 O   0  0  0  0  0  0  0  0  0  0  0  0
   36.5440   27.2780   40.8640 N   0  0  0  0  0  0  0  0  0  0  0  0
   36.3350   28.5470   40.4280 C   0  0  0  0  0  0  0  0  0  0  0  0
   35.7620   28.6910   39.3090 O   0  0  0  0  0  0  0  0  0  0  0  0
   37.6620   30.2730   42.9740 H   0  0  0  0  0  0  0  0  0  0  0  0
   38.0360   27.9450   43.7550 H   0  0  0  0  0  0  0  0  0  0  0  0
   36.2270   26.4820   40.2650 H   0  0  0  0  0  0  0  0  0  0  0  0
   45.6760   34.7210   38.2700 N   0  0  0  0  0  0  0  0  0  0  0  0
   46.6730   34.4760   38.4980 H   0  0  0  0  0  0  0  0  0  0  0  0
   45.5450   35.2820   37.3880 H   0  0  0  0  0  0  0  0  0  0  0  0
  1  2  1  0  0  0  0
  2 20  1  0  0  0  0
  2  3  2  0  0  0  0
  3  8  1  0  0  0  0
  4  3  1  0  0  0  0
  5  4  2  0  0  0  0
  6  1  2  0  0  0  0
  6  5  1  0  0  0  0
  7  1  1  0  0  0  0
  9  5  1  0  0  0  0
  9 19  1  0  0  0  0
 10  9  1  0  0  0  0
 11 10  1  0  0  0  0
 12 10  2  0  0  0  0
 12 13  1  0  0  0  0
 13 14  2  0  0  0  0
 13 19  1  0  0  0  0
 14 15  1  0  0  0  0
 15 16  2  0  0  0  0
 16 17  1  0  0  0  0
 18 16  1  0  0  0  0
 19 18  2  0  0  0  0
 20 23  1  0  0  0  0
 20 21  1  0  0  0  0
 22 20  1  0  0  0  0
 23 24  1  0  0  0  0
 24 25  2  0  0  0  0
 24 31  1  0  0  0  0
 25 32  1  0  0  0  0
 26 27  2  0  0  0  0
 26 25  1  0  0  0  0
 28 26  1  0  0  0  0
 29 28  1  0  0  0  0
 29 23  1  0  0  0  0
 30 29  2  0  0  0  0
 33 28  1  0  0  0  0
 34 35  1  0  0  0  0
 34 14  1  0  0  0  0
 36 34  1  0  0  0  0
M  END
>  <minimizedAffinity>
-6.04675055

$$$$

 OpenBabel03242515273D

 36 39  0  0  0  0  0  0  0  0999 V2000
   37.7450   29.7800   38.8650 C   0  0  0  0  0  0  0  0  0  0  0  0
   37.1680   30.0000   40.1140 C   0  0  0  0  0  0  0  0  0  0  0  0
   37.7440   30.9840   40.8860 C   0  0  0  0  0  0  0  0  0  0  0  0
   38.8050   31.6640   40.4100 N   0  0  0  0  0  0  0  0  0  0  0  0
   39.3290   31.4150   39.1930 C   0  0  0  0  0  0  0  0  0  0  0  0
   38.8070   30.4590   38.3820 N   0  0  0  0  0  0  0  0  0  0  0  0
   37.3510   29.0160   38.1840 H   0  0  0  0  0  0  0  0  0  0  0  0
   37.2900   31.1490   41.8560 H   0  0  0  0  0  0  0  0  0  0  0  0
   40.4490   32.1370   38.6940 N   0  0  0  0  0  0  0  0  0  0  0  0
   40.7810   32.3320   37.4090 C   0  0  0  0  0  0  0  0  0  0  0  0
   40.2240   31.9550   36.5550 H   0  0  0  0  0  0  0  0  0  0  0  0
   41.9190   33.0720   37.3210 N   0  0  0  0  0  0  0  0  0  0  0  0
   42.3240   33.3550   38.5530 C   0  0  0  0  0  0  0  0  0  0  0  0
   43.3810   34.0530   39.0830 C   0  0  0  0  0  0  0  0  0  0  0  0
   43.4830   34.1420   40.4220 N   0  0  0  0  0  0  0  0  0  0  0  0
   42.5870   33.5710   41.2530 C   0  0  0  0  0  0  0  0  0  0  0  0
   42.7060   33.6670   42.3410 H   0  0  0  0  0  0  0  0  0  0  0  0
   41.5360   32.8780   40.7610 N   0  0  0  0  0  0  0  0  0  0  0  0
   41.3980   32.7660   39.4120 C   0  0  0  0  0  0  0  0  0  0  0  0
   36.0180   29.1590   40.4580 C   0  0  0  0  0  0  0  0  0  0  0  0
   35.3210   29.6800   41.1090 H   0  0  0  0  0  0  0  0  0  0  0  0
   35.4370   28.9570   39.5140 H   0  0  0  0  0  0  0  0  0  0  0  0
   36.5060   27.9010   40.9900 N   0  0  0  0  0  0  0  0  0  0  0  0
   36.9590   27.8380   42.2480 C   0  0  0  0  0  0  0  0  0  0  0  0
   37.4150   26.6080   42.7060 C   0  0  0  0  0  0  0  0  0  0  0  0
   37.4010   25.4880   41.8950 C   0  0  0  0  0  0  0  0  0  0  0  0
   37.8210   24.4040   42.3520 O   0  0  0  0  0  0  0  0  0  0  0  0
   36.9370   25.5990   40.6380 N   0  0  0  0  0  0  0  0  0  0  0  0
   36.4880   26.7950   40.1760 C   0  0  0  0  0  0  0  0  0  0  0  0
   36.0630   26.8360   38.9850 O   0  0  0  0  0  0  0  0  0  0  0  0
   36.9770   28.6990   42.8890 H   0  0  0  0  0  0  0  0  0  0  0  0
   37.7920   26.5040   43.7170 H   0  0  0  0  0  0  0  0  0  0  0  0
   36.9120   24.7720   39.9990 H   0  0  0  0  0  0  0  0  0  0  0  0
   44.3340   34.6600   38.2510 N   0  0  0  0  0  0  0  0  0  0  0  0
   45.3510   34.6260   38.5190 H   0  0  0  0  0  0  0  0  0  0  0  0
   44.1270   35.1660   37.3510 H   0  0  0  0  0  0  0  0  0  0  0  0
  1  2  1  0  0  0  0
  2 20  1  0  0  0  0
  2  3  2  0  0  0  0
  3  8  1  0  0  0  0
  4  3  1  0  0  0  0
  5  4  2  0  0  0  0
  6  1  2  0  0  0  0
  6  5  1  0  0  0  0
  7  1  1  0  0  0  0
  9  5  1  0  0  0  0
  9 19  1  0  0  0  0
 10  9  1  0  0  0  0
 11 10  1  0  0  0  0
 12 10  2  0  0  0  0
 12 13  1  0  0  0  0
 13 14  2  0  0  0  0
 13 19  1  0  0  0  0
 14 15  1  0  0  0  0
 15 16  2  0  0  0  0
 16 17  1  0  0  0  0
 18 16  1  0  0  0  0
 19 18  2  0  0  0  0
 20 23  1  0  0  0  0
 20 21  1  0  0  0  0
 22 20  1  0  0  0  0
 23 24  1  0  0  0  0
 24 25  2  0  0  0  0
 24 31  1  0  0  0  0
 25 32  1  0  0  0  0
 26 27  2  0  0  0  0
 26 25  1  0  0  0  0
 28 26  1  0  0  0  0
 29 28  1  0  0  0  0
 29 23  1  0  0  0  0
 30 29  2  0  0  0  0
 33 28  1  0  0  0  0
 34 35  1  0  0  0  0
 34 14  1  0  0  0  0
 36 34  1  0  0  0  0
M  END
>  <minimizedAffinity>
-6.01709795

$$$$

 OpenBabel03242515273D

 36 39  0  0  0  0  0  0  0  0999 V2000
   36.9350   29.5880   41.9320 C   0  0  0  0  0  0  0  0  0  0  0  0
   36.8350   30.2160   40.6930 C   0  0  0  0  0  0  0  0  0  0  0  0
   36.8980   29.3950   39.5880 C   0  0  0  0  0  0  0  0  0  0  0  0
   37.0470   28.0680   39.7570 N   0  0  0  0  0  0  0  0  0  0  0  0
   37.1390   27.5060   40.9790 C   0  0  0  0  0  0  0  0  0  0  0  0
   37.0840   28.2580   42.1070 N   0  0  0  0  0  0  0  0  0  0  0  0
   36.8950   30.1640   42.8650 H   0  0  0  0  0  0  0  0  0  0  0  0
   36.8210   29.8900   38.6270 H   0  0  0  0  0  0  0  0  0  0  0  0
   37.2960   26.1020   41.1520 N   0  0  0  0  0  0  0  0  0  0  0  0
   36.9520   25.3740   42.2250 C   0  0  0  0  0  0  0  0  0  0  0  0
   36.4970   25.7690   43.1290 H   0  0  0  0  0  0  0  0  0  0  0  0
   37.2560   24.0630   42.0250 N   0  0  0  0  0  0  0  0  0  0  0  0
   37.7970   23.9440   40.8180 C   0  0  0  0  0  0  0  0  0  0  0  0
   38.2870   22.8940   40.0830 C   0  0  0  0  0  0  0  0  0  0  0  0
   38.7770   23.1460   38.8540 N   0  0  0  0  0  0  0  0  0  0  0  0
   38.7990   24.3880   38.3280 C   0  0  0  0  0  0  0  0  0  0  0  0
   39.2070   24.5510   37.3200 H   0  0  0  0  0  0  0  0  0  0  0  0
   38.3230   25.4410   39.0270 N   0  0  0  0  0  0  0  0  0  0  0  0
   37.8200   25.2270   40.2740 C   0  0  0  0  0  0  0  0  0  0  0  0
   36.6770   31.6730   40.7090 C   0  0  0  0  0  0  0  0  0  0  0  0
   35.9220   32.0030   40.0010 H   0  0  0  0  0  0  0  0  0  0  0  0
   36.2770   31.9690   41.7190 H   0  0  0  0  0  0  0  0  0  0  0  0
   37.9800   32.2830   40.5210 N   0  0  0  0  0  0  0  0  0  0  0  0
   39.0690   31.7070   41.0440 C   0  0  0  0  0  0  0  0  0  0  0  0
   40.2910   32.3350   40.8330 C   0  0  0  0  0  0  0  0  0  0  0  0
   40.3820   33.5090   40.1100 C   0  0  0  0  0  0  0  0  0  0  0  0
   41.5030   34.0360   39.9480 O   0  0  0  0  0  0  0  0  0  0  0  0
   39.2600   34.0520   39.6050 N   0  0  0  0  0  0  0  0  0  0  0  0
   38.0590   33.4500   39.8020 C   0  0  0  0  0  0  0  0  0  0  0  0
   37.0400   34.0090   39.3000 O   0  0  0  0  0  0  0  0  0  0  0  0
   39.0140   30.7960   41.6070 H   0  0  0  0  0  0  0  0  0  0  0  0
   41.2040   31.9090   41.2360 H   0  0  0  0  0  0  0  0  0  0  0  0
   39.2940   34.9400   39.0530 H   0  0  0  0  0  0  0  0  0  0  0  0
   38.2820   21.5880   40.5960 N   0  0  0  0  0  0  0  0  0  0  0  0
   39.1070   20.9600   40.4210 H   0  0  0  0  0  0  0  0  0  0  0  0
   37.5040   21.1560   41.1600 H   0  0  0  0  0  0  0  0  0  0  0  0
  1  6  1  0  0  0  0
  1  7  1  0  0  0  0
  2 20  1  0  0  0  0
  2  1  2  0  0  0  0
  3  4  2  0  0  0  0
  3  2  1  0  0  0  0
  4  5  1  0  0  0  0
  5  9  1  0  0  0  0
  5  6  2  0  0  0  0
  8  3  1  0  0  0  0
  9 10  1  0  0  0  0
 10 11  1  0  0  0  0
 12 10  2  0  0  0  0
 13 12  1  0  0  0  0
 14 34  1  0  0  0  0
 14 13  2  0  0  0  0
 15 14  1  0  0  0  0
 16 15  2  0  0  0  0
 16 18  1  0  0  0  0
 17 16  1  0  0  0  0
 18 19  2  0  0  0  0
 19 13  1  0  0  0  0
 19  9  1  0  0  0  0
 20 22  1  0  0  0  0
 21 20  1  0  0  0  0
 23 20  1  0  0  0  0
 23 24  1  0  0  0  0
 24 31  1  0  0  0  0
 25 24  2  0  0  0  0
 25 32  1  0  0  0  0
 26 25  1  0  0  0  0
 27 26  2  0  0  0  0
 28 29  1  0  0  0  0
 28 26  1  0  0  0  0
 29 23  1  0  0  0  0
 30 29  2  0  0  0  0
 33 28  1  0  0  0  0
 34 36  1  0  0  0  0
 35 34  1  0  0  0  0
M  END
>  <minimizedAffinity>
-5.96449137

$$$$

 OpenBabel03242515273D

 36 39  0  0  0  0  0  0  0  0999 V2000
   38.2650   28.5760   38.7910 C   0  0  0  0  0  0  0  0  0  0  0  0
   37.1440   29.2850   39.2180 C   0  0  0  0  0  0  0  0  0  0  0  0
   37.2390   30.6590   39.1690 C   0  0  0  0  0  0  0  0  0  0  0  0
   38.3740   31.2290   38.7240 N   0  0  0  0  0  0  0  0  0  0  0  0
   39.4340   30.4990   38.3210 C   0  0  0  0  0  0  0  0  0  0  0  0
   39.4060   29.1430   38.3440 N   0  0  0  0  0  0  0  0  0  0  0  0
   38.2780   27.4790   38.7970 H   0  0  0  0  0  0  0  0  0  0  0  0
   36.3630   31.2040   39.5020 H   0  0  0  0  0  0  0  0  0  0  0  0
   40.6310   31.1080   37.8510 N   0  0  0  0  0  0  0  0  0  0  0  0
   41.5430   30.5720   37.0250 C   0  0  0  0  0  0  0  0  0  0  0  0
   41.4860   29.5760   36.5930 H   0  0  0  0  0  0  0  0  0  0  0  0
   42.5550   31.4530   36.8010 N   0  0  0  0  0  0  0  0  0  0  0  0
   42.2960   32.5620   37.4840 C   0  0  0  0  0  0  0  0  0  0  0  0
   42.9370   33.7650   37.6450 C   0  0  0  0  0  0  0  0  0  0  0  0
   42.3690   34.6920   38.4390 N   0  0  0  0  0  0  0  0  0  0  0  0
   41.1990   34.4770   39.0750 C   0  0  0  0  0  0  0  0  0  0  0  0
   40.7690   35.2600   39.7150 H   0  0  0  0  0  0  0  0  0  0  0  0
   40.5450   33.3030   38.9360 N   0  0  0  0  0  0  0  0  0  0  0  0
   41.0880   32.3400   38.1420 C   0  0  0  0  0  0  0  0  0  0  0  0
   36.0000   28.4890   39.6690 C   0  0  0  0  0  0  0  0  0  0  0  0
   35.2910   29.0880   40.2340 H   0  0  0  0  0  0  0  0  0  0  0  0
   35.4310   28.1480   38.7590 H   0  0  0  0  0  0  0  0  0  0  0  0
   36.4960   27.3240   40.3780 N   0  0  0  0  0  0  0  0  0  0  0  0
   36.5990   26.1500   39.7450 C   0  0  0  0  0  0  0  0  0  0  0  0
   37.0800   25.0680   40.4720 C   0  0  0  0  0  0  0  0  0  0  0  0
   37.4400   25.1960   41.8000 C   0  0  0  0  0  0  0  0  0  0  0  0
   37.8670   24.1940   42.4120 O   0  0  0  0  0  0  0  0  0  0  0  0
   37.3180   26.3970   42.3960 N   0  0  0  0  0  0  0  0  0  0  0  0
   36.8500   27.4630   41.6980 C   0  0  0  0  0  0  0  0  0  0  0  0
   36.7600   28.5660   42.3130 O   0  0  0  0  0  0  0  0  0  0  0  0
   36.3230   26.0350   38.7150 H   0  0  0  0  0  0  0  0  0  0  0  0
   37.1820   24.0950   40.0050 H   0  0  0  0  0  0  0  0  0  0  0  0
   37.5820   26.5270   43.3990 H   0  0  0  0  0  0  0  0  0  0  0  0
   44.1550   34.0260   36.9990 N   0  0  0  0  0  0  0  0  0  0  0  0
   44.9120   34.5460   37.5130 H   0  0  0  0  0  0  0  0  0  0  0  0
   44.3980   33.7420   36.0150 H   0  0  0  0  0  0  0  0  0  0  0  0
  1  7  1  0  0  0  0
  1  2  1  0  0  0  0
  2 20  1  0  0  0  0
  3  2  2  0  0  0  0
  3  8  1  0  0  0  0
  4  3  1  0  0  0  0
  5  6  1  0  0  0  0
  5  4  2  0  0  0  0
  6  1  2  0  0  0  0
  9 19  1  0  0  0  0
  9  5  1  0  0  0  0
 10  9  1  0  0  0  0
 11 10  1  0  0  0  0
 12 10  2  0  0  0  0
 12 13  1  0  0  0  0
 13 14  2  0  0  0  0
 13 19  1  0  0  0  0
 14 15  1  0  0  0  0
 15 16  2  0  0  0  0
 16 17  1  0  0  0  0
 18 16  1  0  0  0  0
 19 18  2  0  0  0  0
 20 21  1  0  0  0  0
 20 23  1  0  0  0  0
 22 20  1  0  0  0  0
 23 29  1  0  0  0  0
 24 23  1  0  0  0  0
 24 25  2  0  0  0  0
 25 26  1  0  0  0  0
 26 28  1  0  0  0  0
 26 27  2  0  0  0  0
 28 33  1  0  0  0  0
 29 30  2  0  0  0  0
 29 28  1  0  0  0  0
 31 24  1  0  0  0  0
 32 25  1  0  0  0  0
 34 35  1  0  0  0  0
 34 14  1  0  0  0  0
 36 34  1  0  0  0  0
M  END
>  <minimizedAffinity>
-5.88393354

$$$$

 OpenBabel03242515273D

 36 39  0  0  0  0  0  0  0  0999 V2000
   40.0310   32.0980   41.4330 C   0  0  0  0  0  0  0  0  0  0  0  0
   39.4430   32.7010   40.3230 C   0  0  0  0  0  0  0  0  0  0  0  0
   38.4660   31.9730   39.6820 C   0  0  0  0  0  0  0  0  0  0  0  0
   38.1370   30.7520   40.1450 N   0  0  0  0  0  0  0  0  0  0  0  0
   38.7360   30.2100   41.2250 C   0  0  0  0  0  0  0  0  0  0  0  0
   39.7050   30.8750   41.9020 N   0  0  0  0  0  0  0  0  0  0  0  0
   40.8180   32.6060   42.0040 H   0  0  0  0  0  0  0  0  0  0  0  0
   38.0130   32.4480   38.8190 H   0  0  0  0  0  0  0  0  0  0  0  0
   38.3850   28.9200   41.7100 N   0  0  0  0  0  0  0  0  0  0  0  0
   38.5310   28.4560   42.9610 C   0  0  0  0  0  0  0  0  0  0  0  0
   38.9500   29.0190   43.7920 H   0  0  0  0  0  0  0  0  0  0  0  0
   38.0830   27.1750   43.0480 N   0  0  0  0  0  0  0  0  0  0  0  0
   37.6440   26.8090   41.8490 C   0  0  0  0  0  0  0  0  0  0  0  0
   37.0920   25.6630   41.3350 C   0  0  0  0  0  0  0  0  0  0  0  0
   36.7540   25.6430   40.0320 N   0  0  0  0  0  0  0  0  0  0  0  0
   36.9400   26.7070   39.2230 C   0  0  0  0  0  0  0  0  0  0  0  0
   36.6500   26.6500   38.1640 H   0  0  0  0  0  0  0  0  0  0  0  0
   37.4810   27.8490   39.7000 N   0  0  0  0  0  0  0  0  0  0  0  0
   37.8360   27.9080   41.0130 C   0  0  0  0  0  0  0  0  0  0  0  0
   39.9330   34.0360   39.9690 C   0  0  0  0  0  0  0  0  0  0  0  0
   39.1880   34.6050   39.4210 H   0  0  0  0  0  0  0  0  0  0  0  0
   40.0950   34.6130   40.9230 H   0  0  0  0  0  0  0  0  0  0  0  0
   41.2030   33.8970   39.2820 N   0  0  0  0  0  0  0  0  0  0  0  0
   41.2380   33.4170   38.0330 C   0  0  0  0  0  0  0  0  0  0  0  0
   42.4810   33.3050   37.4220 C   0  0  0  0  0  0  0  0  0  0  0  0
   43.6400   33.6750   38.0760 C   0  0  0  0  0  0  0  0  0  0  0  0
   44.7340   33.5550   37.4860 O   0  0  0  0  0  0  0  0  0  0  0  0
   43.5570   34.1510   39.3320 N   0  0  0  0  0  0  0  0  0  0  0  0
   42.3490   34.2670   39.9420 C   0  0  0  0  0  0  0  0  0  0  0  0
   42.3360   34.7230   41.1230 O   0  0  0  0  0  0  0  0  0  0  0  0
   40.3460   33.1260   37.5120 H   0  0  0  0  0  0  0  0  0  0  0  0
   42.5630   32.9220   36.4110 H   0  0  0  0  0  0  0  0  0  0  0  0
   44.4150   34.4400   39.8550 H   0  0  0  0  0  0  0  0  0  0  0  0
   36.8830   24.5360   42.1440 N   0  0  0  0  0  0  0  0  0  0  0  0
   37.0750   23.5770   41.7560 H   0  0  0  0  0  0  0  0  0  0  0  0
   36.5410   24.5530   43.1400 H   0  0  0  0  0  0  0  0  0  0  0  0
  1  6  1  0  0  0  0
  1  7  1  0  0  0  0
  2  1  2  0  0  0  0
  3  4  2  0  0  0  0
  3  2  1  0  0  0  0
  4  5  1  0  0  0  0
  5  9  1  0  0  0  0
  5  6  2  0  0  0  0
  8  3  1  0  0  0  0
  9 10  1  0  0  0  0
 10 12  2  0  0  0  0
 10 11  1  0  0  0  0
 13 12  1  0  0  0  0
 14 13  1  0  0  0  0
 14 34  1  0  0  0  0
 15 14  2  0  0  0  0
 16 18  2  0  0  0  0
 16 15  1  0  0  0  0
 17 16  1  0  0  0  0
 18 19  1  0  0  0  0
 19  9  1  0  0  0  0
 19 13  2  0  0  0  0
 20  2  1  0  0  0  0
 20 22  1  0  0  0  0
 21 20  1  0  0  0  0
 23 29  1  0  0  0  0
 23 20  1  0  0  0  0
 24 23  1  0  0  0  0
 25 24  2  0  0  0  0
 25 26  1  0  0  0  0
 26 28  1  0  0  0  0
 27 26  2  0  0  0  0
 28 33  1  0  0  0  0
 28 29  1  0  0  0  0
 29 30  2  0  0  0  0
 31 24  1  0  0  0  0
 32 25  1  0  0  0  0
 34 36  1  0  0  0  0
 35 34  1  0  0  0  0
M  END
>  <minimizedAffinity>
-5.74346685

$$$$

 OpenBabel03242515273D

 36 39  0  0  0  0  0  0  0  0999 V2000
   38.6190   32.6120   40.1420 C   0  0  0  0  0  0  0  0  0  0  0  0
   39.9430   32.8640   40.4970 C   0  0  0  0  0  0  0  0  0  0  0  0
   40.6510   31.7950   41.0010 C   0  0  0  0  0  0  0  0  0  0  0  0
   40.0470   30.5970   41.1200 N   0  0  0  0  0  0  0  0  0  0  0  0
   38.7620   30.4030   40.7620 C   0  0  0  0  0  0  0  0  0  0  0  0
   38.0090   31.4130   40.2590 N   0  0  0  0  0  0  0  0  0  0  0  0
   37.9810   33.4050   39.7330 H   0  0  0  0  0  0  0  0  0  0  0  0
   41.6800   31.9980   41.2750 H   0  0  0  0  0  0  0  0  0  0  0  0
   38.1290   29.1350   40.8900 N   0  0  0  0  0  0  0  0  0  0  0  0
   37.0780   28.6790   40.1920 C   0  0  0  0  0  0  0  0  0  0  0  0
   36.5560   29.2320   39.4150 H   0  0  0  0  0  0  0  0  0  0  0  0
   36.7520   27.4200   40.5930 N   0  0  0  0  0  0  0  0  0  0  0  0
   37.5960   27.0620   41.5540 C   0  0  0  0  0  0  0  0  0  0  0  0
   37.7580   25.9360   42.3220 C   0  0  0  0  0  0  0  0  0  0  0  0
   38.7510   25.9170   43.2300 N   0  0  0  0  0  0  0  0  0  0  0  0
   39.5850   26.9630   43.4070 C   0  0  0  0  0  0  0  0  0  0  0  0
   40.3840   26.9080   44.1600 H   0  0  0  0  0  0  0  0  0  0  0  0
   39.4510   28.0840   42.6660 N   0  0  0  0  0  0  0  0  0  0  0  0
   38.4580   28.1410   41.7370 C   0  0  0  0  0  0  0  0  0  0  0  0
   40.4240   34.2320   40.2950 C   0  0  0  0  0  0  0  0  0  0  0  0
   39.6820   34.8500   39.7950 H   0  0  0  0  0  0  0  0  0  0  0  0
   40.5630   34.7070   41.3070 H   0  0  0  0  0  0  0  0  0  0  0  0
   41.7080   34.1780   39.6210 N   0  0  0  0  0  0  0  0  0  0  0  0
   41.7630   33.9240   38.3080 C   0  0  0  0  0  0  0  0  0  0  0  0
   43.0180   33.8830   37.7140 C   0  0  0  0  0  0  0  0  0  0  0  0
   44.1700   34.0970   38.4480 C   0  0  0  0  0  0  0  0  0  0  0  0
   45.2750   34.0500   37.8690 O   0  0  0  0  0  0  0  0  0  0  0  0
   44.0650   34.3470   39.7660 N   0  0  0  0  0  0  0  0  0  0  0  0
   42.8450   34.3900   40.3600 C   0  0  0  0  0  0  0  0  0  0  0  0
   42.8130   34.6320   41.6030 O   0  0  0  0  0  0  0  0  0  0  0  0
   40.8780   33.7570   37.7250 H   0  0  0  0  0  0  0  0  0  0  0  0
   43.1170   33.6820   36.6530 H   0  0  0  0  0  0  0  0  0  0  0  0
   44.9170   34.5130   40.3490 H   0  0  0  0  0  0  0  0  0  0  0  0
   36.9100   24.8280   42.1670 N   0  0  0  0  0  0  0  0  0  0  0  0
   36.5850   24.3030   43.0190 H   0  0  0  0  0  0  0  0  0  0  0  0
   36.5520   24.4560   41.2490 H   0  0  0  0  0  0  0  0  0  0  0  0
  1  6  2  0  0  0  0
  1  2  1  0  0  0  0
  2  3  2  0  0  0  0
  3  4  1  0  0  0  0
  3  8  1  0  0  0  0
  5  9  1  0  0  0  0
  5  4  2  0  0  0  0
  6  5  1  0  0  0  0
  7  1  1  0  0  0  0
  9 19  1  0  0  0  0
 10 12  2  0  0  0  0
 10  9  1  0  0  0  0
 11 10  1  0  0  0  0
 12 13  1  0  0  0  0
 13 19  2  0  0  0  0
 13 14  1  0  0  0  0
 14 15  2  0  0  0  0
 15 16  1  0  0  0  0
 16 17  1  0  0  0  0
 18 16  2  0  0  0  0
 19 18  1  0  0  0  0
 20  2  1  0  0  0  0
 20 22  1  0  0  0  0
 21 20  1  0  0  0  0
 23 20  1  0  0  0  0
 23 29  1  0  0  0  0
 24 23  1  0  0  0  0
 25 24  2  0  0  0  0
 25 26  1  0  0  0  0
 26 28  1  0  0  0  0
 27 26  2  0  0  0  0
 28 33  1  0  0  0  0
 28 29  1  0  0  0  0
 29 30  2  0  0  0  0
 31 24  1  0  0  0  0
 32 25  1  0  0  0  0
 34 14  1  0  0  0  0
 34 35  1  0  0  0  0
 36 34  1  0  0  0  0
M  END
>  <minimizedAffinity>
-5.72117519

$$$$

 OpenBabel03242515273D

 36 39  0  0  0  0  0  0  0  0999 V2000
   38.0730   26.5550   42.8120 C   0  0  0  0  0  0  0  0  0  0  0  0
   37.3340   26.0020   41.7680 C   0  0  0  0  0  0  0  0  0  0  0  0
   37.0940   26.8250   40.6900 C   0  0  0  0  0  0  0  0  0  0  0  0
   37.5710   28.0840   40.6990 N   0  0  0  0  0  0  0  0  0  0  0  0
   38.2820   28.5750   41.7340 C   0  0  0  0  0  0  0  0  0  0  0  0
   38.5540   27.8160   42.8260 N   0  0  0  0  0  0  0  0  0  0  0  0
   38.3110   25.9710   43.7100 H   0  0  0  0  0  0  0  0  0  0  0  0
   36.5190   26.3880   39.8820 H   0  0  0  0  0  0  0  0  0  0  0  0
   38.7840   29.9060   41.7370 N   0  0  0  0  0  0  0  0  0  0  0  0
   39.8380   30.3740   42.4240 C   0  0  0  0  0  0  0  0  0  0  0  0
   40.4640   29.7820   43.0870 H   0  0  0  0  0  0  0  0  0  0  0  0
   40.0150   31.6990   42.1760 N   0  0  0  0  0  0  0  0  0  0  0  0
   39.0730   32.0900   41.3260 C   0  0  0  0  0  0  0  0  0  0  0  0
   38.7510   33.2820   40.7260 C   0  0  0  0  0  0  0  0  0  0  0  0
   37.6960   33.3150   39.8910 N   0  0  0  0  0  0  0  0  0  0  0  0
   36.9500   32.2220   39.6280 C   0  0  0  0  0  0  0  0  0  0  0  0
   36.0960   32.2910   38.9400 H   0  0  0  0  0  0  0  0  0  0  0  0
   37.2430   31.0340   40.2030 N   0  0  0  0  0  0  0  0  0  0  0  0
   38.3030   30.9610   41.0530 C   0  0  0  0  0  0  0  0  0  0  0  0
   36.9000   24.6130   41.9400 C   0  0  0  0  0  0  0  0  0  0  0  0
   37.2090   24.2110   42.9010 H   0  0  0  0  0  0  0  0  0  0  0  0
   35.7740   24.6000   41.9690 H   0  0  0  0  0  0  0  0  0  0  0  0
   37.3500   23.8410   40.7960 N   0  0  0  0  0  0  0  0  0  0  0  0
   38.6580   23.6590   40.5870 C   0  0  0  0  0  0  0  0  0  0  0  0
   39.0330   22.9120   39.4760 C   0  0  0  0  0  0  0  0  0  0  0  0
   38.0920   22.3750   38.6190 C   0  0  0  0  0  0  0  0  0  0  0  0
   38.4780   21.7110   37.6340 O   0  0  0  0  0  0  0  0  0  0  0  0
   36.7870   22.5850   38.8700 N   0  0  0  0  0  0  0  0  0  0  0  0
   36.4050   23.3130   39.9510 C   0  0  0  0  0  0  0  0  0  0  0  0
   35.1630   23.4750   40.1340 O   0  0  0  0  0  0  0  0  0  0  0  0
   39.4010   24.0700   41.2430 H   0  0  0  0  0  0  0  0  0  0  0  0
   40.0810   22.7350   39.2620 H   0  0  0  0  0  0  0  0  0  0  0  0
   36.0490   22.1920   38.2410 H   0  0  0  0  0  0  0  0  0  0  0  0
   39.5020   34.4410   40.9750 N   0  0  0  0  0  0  0  0  0  0  0  0
   39.0090   35.3630   41.0840 H   0  0  0  0  0  0  0  0  0  0  0  0
   40.5510   34.4820   41.0680 H   0  0  0  0  0  0  0  0  0  0  0  0
  1  6  1  0  0  0  0
  1  7  1  0  0  0  0
  2 20  1  0  0  0  0
  2  1  2  0  0  0  0
  3  4  2  0  0  0  0
  3  2  1  0  0  0  0
  4  5  1  0  0  0  0
  5  9  1  0  0  0  0
  5  6  2  0  0  0  0
  8  3  1  0  0  0  0
  9 10  1  0  0  0  0
 10 11  1  0  0  0  0
 12 10  2  0  0  0  0
 13 12  1  0  0  0  0
 14 34  1  0  0  0  0
 14 13  2  0  0  0  0
 15 14  1  0  0  0  0
 16 15  2  0  0  0  0
 16 18  1  0  0  0  0
 17 16  1  0  0  0  0
 18 19  2  0  0  0  0
 19 13  1  0  0  0  0
 19  9  1  0  0  0  0
 20 22  1  0  0  0  0
 20 21  1  0  0  0  0
 23 20  1  0  0  0  0
 24 23  1  0  0  0  0
 24 31  1  0  0  0  0
 25 24  2  0  0  0  0
 26 28  1  0  0  0  0
 26 25  1  0  0  0  0
 27 26  2  0  0  0  0
 28 29  1  0  0  0  0
 29 30  2  0  0  0  0
 29 23  1  0  0  0  0
 32 25  1  0  0  0  0
 33 28  1  0  0  0  0
 34 36  1  0  0  0  0
 34 35  1  0  0  0  0
M  END
>  <minimizedAffinity>
-5.68864298

$$$$
