
 OpenBabel03252509023D

 53 56  0  0  1  0  0  0  0  0999 V2000
   46.8010   34.3070   43.6210 N   0  0  0  0  0  0  0  0  0  0  0  0
   46.4350   35.1080   42.5100 C   0  0  0  0  0  0  0  0  0  0  0  0
   44.9490   35.1940   42.2700 C   0  0  0  0  0  0  0  0  0  0  0  0
   44.1130   35.1800   43.5370 C   0  0  0  0  0  0  0  0  0  0  0  0
   44.9980   35.1870   44.7730 C   0  0  0  0  0  0  0  0  0  0  0  0
   45.8950   33.8980   44.5680 C   0  0  2  0  0  0  0  0  0  0  0  0
   46.8160   36.1460   42.7360 H   0  0  0  0  0  0  0  0  0  0  0  0
   46.8960   34.8340   41.5510 H   0  0  0  0  0  0  0  0  0  0  0  0
   44.7520   36.1880   41.7820 H   0  0  0  0  0  0  0  0  0  0  0  0
   44.6150   34.4430   41.5280 H   0  0  0  0  0  0  0  0  0  0  0  0
   43.5640   34.2120   43.5370 H   0  0  0  0  0  0  0  0  0  0  0  0
   43.3630   35.9920   43.5580 H   0  0  0  0  0  0  0  0  0  0  0  0
   45.6500   36.0610   44.7690 H   0  0  0  0  0  0  0  0  0  0  0  0
   44.3750   35.0430   45.6560 H   0  0  0  0  0  0  0  0  0  0  0  0
   45.2030   33.0720   44.3080 H   0  0  0  0  0  0  0  0  0  0  0  0
   47.9940   33.5220   43.4190 C   0  0  0  0  0  0  0  0  0  0  0  0
   48.4250   33.3350   44.4410 H   0  0  0  0  0  0  0  0  0  0  0  0
   48.7230   34.1640   42.8810 H   0  0  0  0  0  0  0  0  0  0  0  0
   47.6130   32.2740   42.7100 C   0  0  0  0  0  0  0  0  0  0  0  0
   47.7640   31.3980   43.3560 H   0  0  0  0  0  0  0  0  0  0  0  0
   46.5360   32.2980   42.3720 H   0  0  0  0  0  0  0  0  0  0  0  0
   50.4760   31.6600   40.3670 C   0  0  0  0  0  0  0  0  0  0  0  0
   49.7100   31.7880   41.5410 C   0  0  0  0  0  0  0  0  0  0  0  0
   48.3980   32.1450   41.4600 C   0  0  0  0  0  0  0  0  0  0  0  0
   47.8950   32.3610   40.2470 N   0  0  0  0  0  0  0  0  0  0  0  0
   48.6080   32.2440   39.1180 C   0  0  0  0  0  0  0  0  0  0  0  0
   49.9050   31.8930   39.1620 N   0  0  0  0  0  0  0  0  0  0  0  0
   51.5160   31.3750   40.4410 H   0  0  0  0  0  0  0  0  0  0  0  0
   50.2400   31.5840   42.4710 H   0  0  0  0  0  0  0  0  0  0  0  0
   48.0130   32.4610   38.2440 H   0  0  0  0  0  0  0  0  0  0  0  0
   46.4410   33.7660   45.8320 O   0  0  0  0  0  0  0  0  0  0  0  0
   45.7150   31.2340   45.4550 O   0  0  0  0  0  0  0  0  0  0  0  0
   46.1570   32.2490   46.5050 P   0  0  2  0  0  0  0  0  0  0  0  0
   44.7880   32.4370   47.5130 O   0  0  0  0  0  0  0  0  0  0  0  0
   45.0790   32.7540   48.4080 H   0  0  0  0  0  0  0  0  0  0  0  0
   47.4160   31.6970   47.4370 O   0  0  0  0  0  0  0  0  0  0  0  0
   48.0280   30.6280   46.8030 C   0  0  0  0  0  0  0  0  0  0  0  0
   48.6860   30.9150   45.9800 H   0  0  0  0  0  0  0  0  0  0  0  0
   47.2330   29.9650   46.3920 H   0  0  0  0  0  0  0  0  0  0  0  0
   48.7170   29.8530   47.8270 N   0  0  0  0  0  0  0  0  0  0  0  0
   48.7380   28.4970   47.7430 C   0  0  0  0  0  0  0  0  0  0  0  0
   48.2890   27.8540   46.9760 H   0  0  0  0  0  0  0  0  0  0  0  0
   49.4290   27.9900   48.7940 N   0  0  0  0  0  0  0  0  0  0  0  0
   49.8480   29.0430   49.5500 C   0  0  0  0  0  0  0  0  0  0  0  0
   50.5740   29.2260   50.7170 C   0  0  0  0  0  0  0  0  0  0  0  0
   50.7880   30.4760   51.1640 N   0  0  0  0  0  0  0  0  0  0  0  0
   50.3330   31.5580   50.5370 C   0  0  0  0  0  0  0  0  0  0  0  0
   50.5860   32.4810   51.0180 H   0  0  0  0  0  0  0  0  0  0  0  0
   49.6260   31.4330   49.4060 N   0  0  0  0  0  0  0  0  0  0  0  0
   49.3910   30.2050   48.9280 C   0  0  0  0  0  0  0  0  0  0  0  0
   51.0460   28.0580   51.3640 N   0  0  0  0  0  0  0  0  0  0  0  0
   51.8870   27.4400   51.2070 H   0  0  0  0  0  0  0  0  0  0  0  0
   50.7780   27.4360   52.1480 H   0  0  0  0  0  0  0  0  0  0  0  0
  1  6  1  0  0  0  0
  2  7  1  0  0  0  0
  2  1  1  0  0  0  0
  3  2  1  0  0  0  0
  3  4  1  0  0  0  0
  4 11  1  0  0  0  0
  4 12  1  0  0  0  0
  4  5  1  0  0  0  0
  5 14  1  0  0  0  0
  6 15  1  6  0  0  0
  6  5  1  0  0  0  0
  6 31  1  0  0  0  0
  8  2  1  0  0  0  0
  9  3  1  0  0  0  0
 10  3  1  0  0  0  0
 13  5  1  0  0  0  0
 16  1  1  0  0  0  0
 16 17  1  0  0  0  0
 18 16  1  0  0  0  0
 19 20  1  0  0  0  0
 19 16  1  0  0  0  0
 21 19  1  0  0  0  0
 22 28  1  0  0  0  0
 22 23  1  0  0  0  0
 23 29  1  0  0  0  0
 24 23  2  0  0  0  0
 24 19  1  0  0  0  0
 25 24  1  0  0  0  0
 26 27  1  0  0  0  0
 26 25  2  0  0  0  0
 27 22  2  0  0  0  0
 30 26  1  0  0  0  0
 31 33  1  0  0  0  0
 33 32  2  6  0  0  0
 33 36  1  0  0  0  0
 33 34  1  0  0  0  0
 34 35  1  0  0  0  0
 37 36  1  0  0  0  0
 37 40  1  0  0  0  0
 38 37  1  0  0  0  0
 39 37  1  0  0  0  0
 40 50  1  0  0  0  0
 41 40  1  0  0  0  0
 41 43  2  0  0  0  0
 42 41  1  0  0  0  0
 43 44  1  0  0  0  0
 44 45  1  0  0  0  0
 45 46  2  0  0  0  0
 45 51  1  0  0  0  0
 47 48  1  0  0  0  0
 47 46  1  0  0  0  0
 49 47  2  0  0  0  0
 50 49  1  0  0  0  0
 50 44  2  0  0  0  0
 51 53  1  0  0  0  0
 52 51  1  0  0  0  0
M  END
>  <minimizedAffinity>
-5.21444559

>  <minimizedRMSD>
2.34518743

$$$$
