
 OpenBabel03252509033D

 53 56  0  0  1  0  0  0  0  0999 V2000
   47.0010   34.3950   43.2850 N   0  0  0  0  0  0  0  0  0  0  0  0
   46.6730   34.9200   42.0100 C   0  0  0  0  0  0  0  0  0  0  0  0
   45.2500   34.6650   41.5810 C   0  0  0  0  0  0  0  0  0  0  0  0
   44.2460   34.6800   42.7190 C   0  0  0  0  0  0  0  0  0  0  0  0
   44.9140   35.0600   44.0310 C   0  0  0  0  0  0  0  0  0  0  0  0
   46.0480   33.9640   44.1750 C   0  0  2  0  0  0  0  0  0  0  0  0
   46.8220   36.0370   42.0860 H   0  0  0  0  0  0  0  0  0  0  0  0
   47.3180   34.5980   41.1810 H   0  0  0  0  0  0  0  0  0  0  0  0
   44.9560   35.5080   40.8990 H   0  0  0  0  0  0  0  0  0  0  0  0
   45.1740   33.7540   40.9550 H   0  0  0  0  0  0  0  0  0  0  0  0
   43.8850   33.6330   42.8310 H   0  0  0  0  0  0  0  0  0  0  0  0
   43.3690   35.3160   42.5000 H   0  0  0  0  0  0  0  0  0  0  0  0
   45.3920   36.0370   43.9440 H   0  0  0  0  0  0  0  0  0  0  0  0
   44.1990   34.9330   44.8430 H   0  0  0  0  0  0  0  0  0  0  0  0
   45.5630   32.9850   43.9900 H   0  0  0  0  0  0  0  0  0  0  0  0
   48.3320   33.8460   43.3760 C   0  0  0  0  0  0  0  0  0  0  0  0
   48.6720   34.0170   44.4340 H   0  0  0  0  0  0  0  0  0  0  0  0
   48.9890   34.4660   42.7290 H   0  0  0  0  0  0  0  0  0  0  0  0
   48.2660   32.4090   43.0100 C   0  0  0  0  0  0  0  0  0  0  0  0
   48.4890   31.7750   43.8800 H   0  0  0  0  0  0  0  0  0  0  0  0
   47.2520   32.1280   42.6030 H   0  0  0  0  0  0  0  0  0  0  0  0
   51.4630   31.9380   41.1060 C   0  0  0  0  0  0  0  0  0  0  0  0
   50.5480   32.2000   42.1440 C   0  0  0  0  0  0  0  0  0  0  0  0
   49.2090   32.1280   41.9020 C   0  0  0  0  0  0  0  0  0  0  0  0
   48.8250   31.8060   40.6690 N   0  0  0  0  0  0  0  0  0  0  0  0
   49.6800   31.5520   39.6700 C   0  0  0  0  0  0  0  0  0  0  0  0
   51.0080   31.6150   39.8730 N   0  0  0  0  0  0  0  0  0  0  0  0
   52.5230   31.9970   41.3070 H   0  0  0  0  0  0  0  0  0  0  0  0
   50.9920   32.4530   43.1060 H   0  0  0  0  0  0  0  0  0  0  0  0
   49.1650   31.3110   38.7520 H   0  0  0  0  0  0  0  0  0  0  0  0
   46.4080   34.1450   45.4980 O   0  0  0  0  0  0  0  0  0  0  0  0
   45.5160   31.6420   45.6250 O   0  0  0  0  0  0  0  0  0  0  0  0
   46.1090   32.7850   46.4430 P   0  0  2  0  0  0  0  0  0  0  0  0
   44.8550   33.2310   47.5170 O   0  0  0  0  0  0  0  0  0  0  0  0
   45.2470   33.6720   48.3160 H   0  0  0  0  0  0  0  0  0  0  0  0
   47.4200   32.3100   47.3460 O   0  0  0  0  0  0  0  0  0  0  0  0
   47.5970   30.9420   47.2220 C   0  0  0  0  0  0  0  0  0  0  0  0
   47.8420   30.6130   46.2100 H   0  0  0  0  0  0  0  0  0  0  0  0
   46.6510   30.4390   47.5260 H   0  0  0  0  0  0  0  0  0  0  0  0
   48.6020   30.5440   48.1990 N   0  0  0  0  0  0  0  0  0  0  0  0
   48.4630   30.9200   49.4970 C   0  0  0  0  0  0  0  0  0  0  0  0
   47.6610   31.5140   49.9540 H   0  0  0  0  0  0  0  0  0  0  0  0
   49.5070   30.4420   50.2200 N   0  0  0  0  0  0  0  0  0  0  0  0
   50.3130   29.7570   49.3640 C   0  0  0  0  0  0  0  0  0  0  0  0
   51.5010   29.0450   49.4420 C   0  0  0  0  0  0  0  0  0  0  0  0
   52.0030   28.4870   48.3260 N   0  0  0  0  0  0  0  0  0  0  0  0
   51.4110   28.5840   47.1370 C   0  0  0  0  0  0  0  0  0  0  0  0
   51.9360   28.0860   46.3470 H   0  0  0  0  0  0  0  0  0  0  0  0
   50.2620   29.2600   47.0100 N   0  0  0  0  0  0  0  0  0  0  0  0
   49.7300   29.8300   48.0990 C   0  0  0  0  0  0  0  0  0  0  0  0
   52.1090   28.9570   50.7170 N   0  0  0  0  0  0  0  0  0  0  0  0
   51.9450   28.3320   51.5510 H   0  0  0  0  0  0  0  0  0  0  0  0
   52.8620   29.4210   51.2590 H   0  0  0  0  0  0  0  0  0  0  0  0
  1 16  1  0  0  0  0
  1  6  1  0  0  0  0
  2  7  1  0  0  0  0
  2  1  1  0  0  0  0
  3  2  1  0  0  0  0
  3  4  1  0  0  0  0
  4 11  1  0  0  0  0
  4  5  1  0  0  0  0
  5  6  1  0  0  0  0
  5 14  1  0  0  0  0
  6 15  1  6  0  0  0
  6 31  1  0  0  0  0
  8  2  1  0  0  0  0
  9  3  1  0  0  0  0
 10  3  1  0  0  0  0
 12  4  1  0  0  0  0
 13  5  1  0  0  0  0
 16 17  1  0  0  0  0
 18 16  1  0  0  0  0
 19 16  1  0  0  0  0
 19 20  1  0  0  0  0
 21 19  1  0  0  0  0
 22 28  1  0  0  0  0
 22 23  1  0  0  0  0
 23 29  1  0  0  0  0
 24 23  2  0  0  0  0
 24 19  1  0  0  0  0
 25 24  1  0  0  0  0
 26 27  1  0  0  0  0
 26 25  2  0  0  0  0
 27 22  2  0  0  0  0
 30 26  1  0  0  0  0
 31 33  1  0  0  0  0
 33 32  2  6  0  0  0
 33 36  1  0  0  0  0
 33 34  1  0  0  0  0
 34 35  1  0  0  0  0
 37 36  1  0  0  0  0
 37 39  1  0  0  0  0
 37 40  1  0  0  0  0
 38 37  1  0  0  0  0
 40 41  1  0  0  0  0
 41 42  1  0  0  0  0
 41 43  2  0  0  0  0
 44 45  1  0  0  0  0
 44 43  1  0  0  0  0
 45 51  1  0  0  0  0
 46 45  2  0  0  0  0
 47 46  1  0  0  0  0
 48 47  1  0  0  0  0
 49 47  2  0  0  0  0
 49 50  1  0  0  0  0
 50 40  1  0  0  0  0
 50 44  2  0  0  0  0
 51 53  1  0  0  0  0
 51 52  1  0  0  0  0
M  END
>  <minimizedAffinity>
-5.08873129

>  <minimizedRMSD>
3.06356335

$$$$
