
 OpenBabel03252509033D

 53 56  0  0  1  0  0  0  0  0999 V2000
   46.6900   34.3630   43.4650 N   0  0  0  0  0  0  0  0  0  0  0  0
   46.4280   34.9220   42.1890 C   0  0  0  0  0  0  0  0  0  0  0  0
   44.9700   34.9320   41.8040 C   0  0  0  0  0  0  0  0  0  0  0  0
   44.0210   35.1530   42.9680 C   0  0  0  0  0  0  0  0  0  0  0  0
   44.7880   35.4200   44.2520 C   0  0  0  0  0  0  0  0  0  0  0  0
   45.7000   34.1330   44.3890 C   0  0  2  0  0  0  0  0  0  0  0  0
   46.7860   35.9910   42.2380 H   0  0  0  0  0  0  0  0  0  0  0  0
   46.9750   34.4720   41.3500 H   0  0  0  0  0  0  0  0  0  0  0  0
   44.8190   35.8050   41.1120 H   0  0  0  0  0  0  0  0  0  0  0  0
   44.7060   34.0430   41.1980 H   0  0  0  0  0  0  0  0  0  0  0  0
   43.4740   34.1950   43.1100 H   0  0  0  0  0  0  0  0  0  0  0  0
   43.2730   35.9390   42.7580 H   0  0  0  0  0  0  0  0  0  0  0  0
   45.4380   36.2890   44.1330 H   0  0  0  0  0  0  0  0  0  0  0  0
   44.0860   35.4430   45.0860 H   0  0  0  0  0  0  0  0  0  0  0  0
   45.0350   33.2600   44.2370 H   0  0  0  0  0  0  0  0  0  0  0  0
   47.8960   33.5760   43.5320 C   0  0  0  0  0  0  0  0  0  0  0  0
   48.0820   33.3750   44.6230 H   0  0  0  0  0  0  0  0  0  0  0  0
   48.7310   34.2210   43.1830 H   0  0  0  0  0  0  0  0  0  0  0  0
   47.6860   32.3390   42.7380 C   0  0  0  0  0  0  0  0  0  0  0  0
   47.5380   31.4730   43.3990 H   0  0  0  0  0  0  0  0  0  0  0  0
   46.7970   32.4300   42.0500 H   0  0  0  0  0  0  0  0  0  0  0  0
   51.2060   32.1950   41.4500 C   0  0  0  0  0  0  0  0  0  0  0  0
   50.0940   32.3980   42.2900 C   0  0  0  0  0  0  0  0  0  0  0  0
   48.8400   32.1170   41.8360 C   0  0  0  0  0  0  0  0  0  0  0  0
   48.7270   31.6550   40.5930 N   0  0  0  0  0  0  0  0  0  0  0  0
   49.7730   31.4560   39.7800 C   0  0  0  0  0  0  0  0  0  0  0  0
   51.0240   31.7220   40.1950 N   0  0  0  0  0  0  0  0  0  0  0  0
   52.1960   32.4200   41.8190 H   0  0  0  0  0  0  0  0  0  0  0  0
   50.3220   32.7800   43.2850 H   0  0  0  0  0  0  0  0  0  0  0  0
   49.4650   31.0780   38.8160 H   0  0  0  0  0  0  0  0  0  0  0  0
   46.1270   34.2640   45.6980 O   0  0  0  0  0  0  0  0  0  0  0  0
   45.7330   31.6330   45.6360 O   0  0  0  0  0  0  0  0  0  0  0  0
   46.0750   32.8100   46.5450 P   0  0  2  0  0  0  0  0  0  0  0  0
   44.7330   32.9340   47.5980 O   0  0  0  0  0  0  0  0  0  0  0  0
   45.0130   33.3860   48.4370 H   0  0  0  0  0  0  0  0  0  0  0  0
   47.4310   32.5340   47.4630 O   0  0  0  0  0  0  0  0  0  0  0  0
   47.0960   31.7620   48.5640 C   0  0  0  0  0  0  0  0  0  0  0  0
   46.0580   31.4220   48.5720 H   0  0  0  0  0  0  0  0  0  0  0  0
   47.2640   32.3720   49.4820 H   0  0  0  0  0  0  0  0  0  0  0  0
   48.0470   30.6610   48.6270 N   0  0  0  0  0  0  0  0  0  0  0  0
   47.8660   29.5700   47.8370 C   0  0  0  0  0  0  0  0  0  0  0  0
   47.0640   29.3780   47.1130 H   0  0  0  0  0  0  0  0  0  0  0  0
   48.8640   28.6790   48.0610 N   0  0  0  0  0  0  0  0  0  0  0  0
   49.6830   29.2170   49.0050 C   0  0  0  0  0  0  0  0  0  0  0  0
   50.8440   28.8490   49.6680 C   0  0  0  0  0  0  0  0  0  0  0  0
   51.3760   29.6870   50.5740 N   0  0  0  0  0  0  0  0  0  0  0  0
   50.8360   30.8690   50.8710 C   0  0  0  0  0  0  0  0  0  0  0  0
   51.3780   31.4210   51.6130 H   0  0  0  0  0  0  0  0  0  0  0  0
   49.7150   31.2690   50.2590 N   0  0  0  0  0  0  0  0  0  0  0  0
   49.1550   30.4620   49.3500 C   0  0  0  0  0  0  0  0  0  0  0  0
   51.3970   27.5880   49.3330 N   0  0  0  0  0  0  0  0  0  0  0  0
   52.0140   27.2610   48.5410 H   0  0  0  0  0  0  0  0  0  0  0  0
   51.4050   26.6160   49.6930 H   0  0  0  0  0  0  0  0  0  0  0  0
  1 16  1  0  0  0  0
  1  6  1  0  0  0  0
  2  7  1  0  0  0  0
  2  1  1  0  0  0  0
  3  2  1  0  0  0  0
  3  4  1  0  0  0  0
  4 11  1  0  0  0  0
  4  5  1  0  0  0  0
  5  6  1  0  0  0  0
  5 14  1  0  0  0  0
  6 15  1  6  0  0  0
  6 31  1  0  0  0  0
  8  2  1  0  0  0  0
  9  3  1  0  0  0  0
 10  3  1  0  0  0  0
 12  4  1  0  0  0  0
 13  5  1  0  0  0  0
 16 17  1  0  0  0  0
 18 16  1  0  0  0  0
 19 20  1  0  0  0  0
 19 16  1  0  0  0  0
 21 19  1  0  0  0  0
 22 28  1  0  0  0  0
 22 23  1  0  0  0  0
 23 29  1  0  0  0  0
 24 23  2  0  0  0  0
 24 19  1  0  0  0  0
 25 24  1  0  0  0  0
 26 27  1  0  0  0  0
 26 25  2  0  0  0  0
 27 22  2  0  0  0  0
 30 26  1  0  0  0  0
 31 33  1  0  0  0  0
 33 32  2  6  0  0  0
 33 36  1  0  0  0  0
 33 34  1  0  0  0  0
 34 35  1  0  0  0  0
 36 37  1  0  0  0  0
 37 38  1  0  0  0  0
 37 40  1  0  0  0  0
 37 39  1  0  0  0  0
 40 50  1  0  0  0  0
 41 43  2  0  0  0  0
 41 40  1  0  0  0  0
 42 41  1  0  0  0  0
 43 44  1  0  0  0  0
 44 50  2  0  0  0  0
 44 45  1  0  0  0  0
 45 46  2  0  0  0  0
 46 47  1  0  0  0  0
 47 48  1  0  0  0  0
 49 47  2  0  0  0  0
 50 49  1  0  0  0  0
 51 45  1  0  0  0  0
 51 53  1  0  0  0  0
 52 51  1  0  0  0  0
M  END
>  <minimizedAffinity>
-5.47696304

>  <minimizedRMSD>
2.73114181

$$$$
