
 OpenBabel03252509033D

 53 56  0  0  1  0  0  0  0  0999 V2000
   46.7180   34.4540   43.7780 N   0  0  0  0  0  0  0  0  0  0  0  0
   46.2160   35.4330   42.8840 C   0  0  0  0  0  0  0  0  0  0  0  0
   44.7110   35.5250   42.8450 C   0  0  0  0  0  0  0  0  0  0  0  0
   44.0390   35.2620   44.1810 C   0  0  0  0  0  0  0  0  0  0  0  0
   45.0690   35.0690   45.2810 C   0  0  0  0  0  0  0  0  0  0  0  0
   45.9370   33.8600   44.7390 C   0  0  2  0  0  0  0  0  0  0  0  0
   46.6200   36.4230   43.2470 H   0  0  0  0  0  0  0  0  0  0  0  0
   46.5560   35.3470   41.8430 H   0  0  0  0  0  0  0  0  0  0  0  0
   44.4540   36.5840   42.5730 H   0  0  0  0  0  0  0  0  0  0  0  0
   44.2900   34.9110   42.0250 H   0  0  0  0  0  0  0  0  0  0  0  0
   43.4950   34.2970   44.0720 H   0  0  0  0  0  0  0  0  0  0  0  0
   43.2950   36.0390   44.4380 H   0  0  0  0  0  0  0  0  0  0  0  0
   45.7140   35.9460   45.3570 H   0  0  0  0  0  0  0  0  0  0  0  0
   44.5600   34.7530   46.1920 H   0  0  0  0  0  0  0  0  0  0  0  0
   45.2190   33.0780   44.4190 H   0  0  0  0  0  0  0  0  0  0  0  0
   47.8780   33.7480   43.2950 C   0  0  0  0  0  0  0  0  0  0  0  0
   48.4710   33.4560   44.2040 H   0  0  0  0  0  0  0  0  0  0  0  0
   48.4990   34.4790   42.7340 H   0  0  0  0  0  0  0  0  0  0  0  0
   47.4130   32.5820   42.5020 C   0  0  0  0  0  0  0  0  0  0  0  0
   47.7340   31.6400   42.9710 H   0  0  0  0  0  0  0  0  0  0  0  0
   46.2900   32.5720   42.3930 H   0  0  0  0  0  0  0  0  0  0  0  0
   49.3520   31.8410   39.3780 C   0  0  0  0  0  0  0  0  0  0  0  0
   48.8490   31.7690   40.6910 C   0  0  0  0  0  0  0  0  0  0  0  0
   47.9260   32.6770   41.1160 C   0  0  0  0  0  0  0  0  0  0  0  0
   47.5380   33.6090   40.2480 N   0  0  0  0  0  0  0  0  0  0  0  0
   48.0050   33.6930   38.9950 C   0  0  0  0  0  0  0  0  0  0  0  0
   48.9160   32.8130   38.5430 N   0  0  0  0  0  0  0  0  0  0  0  0
   50.0830   31.1160   39.0500 H   0  0  0  0  0  0  0  0  0  0  0  0
   49.2480   30.9590   41.3020 H   0  0  0  0  0  0  0  0  0  0  0  0
   47.5630   34.5180   38.4570 H   0  0  0  0  0  0  0  0  0  0  0  0
   46.6350   33.5160   45.8820 O   0  0  0  0  0  0  0  0  0  0  0  0
   45.7240   31.0730   45.3540 O   0  0  0  0  0  0  0  0  0  0  0  0
   46.2120   31.9950   46.4670 P   0  0  2  0  0  0  0  0  0  0  0  0
   44.8320   32.2420   47.4470 O   0  0  0  0  0  0  0  0  0  0  0  0
   45.1190   32.4900   48.3640 H   0  0  0  0  0  0  0  0  0  0  0  0
   47.3940   31.2980   47.4020 O   0  0  0  0  0  0  0  0  0  0  0  0
   47.7300   30.0610   46.8780 C   0  0  0  0  0  0  0  0  0  0  0  0
   48.1410   30.1010   45.8670 H   0  0  0  0  0  0  0  0  0  0  0  0
   46.8100   29.4330   46.8500 H   0  0  0  0  0  0  0  0  0  0  0  0
   48.6330   29.4190   47.8240 N   0  0  0  0  0  0  0  0  0  0  0  0
   49.5370   30.1700   48.5050 C   0  0  0  0  0  0  0  0  0  0  0  0
   49.7050   31.2530   48.4500 H   0  0  0  0  0  0  0  0  0  0  0  0
   50.2660   29.3690   49.3240 N   0  0  0  0  0  0  0  0  0  0  0  0
   49.8110   28.0980   49.1530 C   0  0  0  0  0  0  0  0  0  0  0  0
   50.1040   26.8410   49.6630 C   0  0  0  0  0  0  0  0  0  0  0  0
   49.4030   25.7780   49.2280 N   0  0  0  0  0  0  0  0  0  0  0  0
   48.4310   25.8740   48.3230 C   0  0  0  0  0  0  0  0  0  0  0  0
   47.9680   24.9380   48.0800 H   0  0  0  0  0  0  0  0  0  0  0  0
   48.1110   27.0650   47.8020 N   0  0  0  0  0  0  0  0  0  0  0  0
   48.7860   28.1460   48.2090 C   0  0  0  0  0  0  0  0  0  0  0  0
   51.1430   26.7690   50.6240 N   0  0  0  0  0  0  0  0  0  0  0  0
   51.1740   26.9470   51.6630 H   0  0  0  0  0  0  0  0  0  0  0  0
   52.1530   26.5390   50.6680 H   0  0  0  0  0  0  0  0  0  0  0  0
  1  6  1  0  0  0  0
  2  7  1  0  0  0  0
  2  1  1  0  0  0  0
  3  2  1  0  0  0  0
  3  4  1  0  0  0  0
  4 12  1  0  0  0  0
  4  5  1  0  0  0  0
  5 13  1  0  0  0  0
  5 14  1  0  0  0  0
  6 15  1  6  0  0  0
  6  5  1  0  0  0  0
  6 31  1  0  0  0  0
  8  2  1  0  0  0  0
  9  3  1  0  0  0  0
 10  3  1  0  0  0  0
 11  4  1  0  0  0  0
 16  1  1  0  0  0  0
 16 17  1  0  0  0  0
 18 16  1  0  0  0  0
 19 20  1  0  0  0  0
 19 16  1  0  0  0  0
 21 19  1  0  0  0  0
 22 23  1  0  0  0  0
 23 24  2  0  0  0  0
 23 29  1  0  0  0  0
 24 19  1  0  0  0  0
 25 24  1  0  0  0  0
 26 25  2  0  0  0  0
 27 26  1  0  0  0  0
 27 22  2  0  0  0  0
 28 22  1  0  0  0  0
 30 26  1  0  0  0  0
 31 33  1  0  0  0  0
 33 32  2  6  0  0  0
 33 36  1  0  0  0  0
 33 34  1  0  0  0  0
 34 35  1  0  0  0  0
 37 36  1  0  0  0  0
 37 40  1  0  0  0  0
 38 37  1  0  0  0  0
 39 37  1  0  0  0  0
 40 50  1  0  0  0  0
 40 41  1  0  0  0  0
 41 43  2  0  0  0  0
 42 41  1  0  0  0  0
 44 43  1  0  0  0  0
 44 45  1  0  0  0  0
 45 51  1  0  0  0  0
 46 45  2  0  0  0  0
 47 46  1  0  0  0  0
 48 47  1  0  0  0  0
 49 50  1  0  0  0  0
 49 47  2  0  0  0  0
 50 44  2  0  0  0  0
 51 53  1  0  0  0  0
 51 52  1  0  0  0  0
M  END
>  <minimizedAffinity>
-4.6914587

>  <minimizedRMSD>
1.81101811

$$$$
