
 OpenBabel03242519493D

 43 46  0  0  1  0  0  0  0  0999 V2000
   37.7450   29.2190   40.0640 C   0  0  2  0  0  0  0  0  0  0  0  0
   37.2950   30.5870   39.7360 C   0  0  1  0  0  0  0  0  0  0  0  0
   36.4540   30.9500   40.8850 O   0  0  0  0  0  0  0  0  0  0  0  0
   35.5980   29.8290   40.7910 C   0  0  0  0  0  0  0  0  0  0  0  0
   36.6330   28.7140   40.9770 C   0  0  2  0  0  0  0  0  0  0  0  0
   37.9040   28.5600   39.1950 H   0  0  0  0  0  0  0  0  0  0  0  0
   36.5600   30.5790   38.8930 H   0  0  0  0  0  0  0  0  0  0  0  0
   34.8330   29.9100   41.5130 H   0  0  0  0  0  0  0  0  0  0  0  0
   35.2180   29.7480   39.7270 H   0  0  0  0  0  0  0  0  0  0  0  0
   36.1500   27.7690   40.6480 H   0  0  0  0  0  0  0  0  0  0  0  0
   39.9390   32.4770   38.0760 C   0  0  0  0  0  0  0  0  0  0  0  0
   40.3630   33.3890   39.0450 C   0  0  0  0  0  0  0  0  0  0  0  0
   39.7310   33.3580   40.3120 C   0  0  0  0  0  0  0  0  0  0  0  0
   38.7350   32.4400   40.5330 N   0  0  0  0  0  0  0  0  0  0  0  0
   38.3560   31.5750   39.5660 C   0  0  0  0  0  0  0  0  0  0  0  0
   38.9490   31.5850   38.3390 N   0  0  0  0  0  0  0  0  0  0  0  0
   41.1440   34.0780   38.8090 H   0  0  0  0  0  0  0  0  0  0  0  0
   40.0400   34.0500   41.0730 H   0  0  0  0  0  0  0  0  0  0  0  0
   40.5260   32.4590   36.8050 O   0  0  0  0  0  0  0  0  0  0  0  0
   39.9750   32.7810   36.0240 H   0  0  0  0  0  0  0  0  0  0  0  0
   38.9520   29.2860   40.8400 O   0  0  0  0  0  0  0  0  0  0  0  0
   39.7110   28.9200   40.2890 H   0  0  0  0  0  0  0  0  0  0  0  0
   37.0250   28.6870   42.2750 O   0  0  0  0  0  0  0  0  0  0  0  0
   36.8060   27.5320   42.9720 C   0  0  0  0  0  0  0  0  0  0  0  0
   35.6580   27.3420   43.0010 H   0  0  0  0  0  0  0  0  0  0  0  0
   37.1710   27.5420   43.9590 H   0  0  0  0  0  0  0  0  0  0  0  0
   37.2020   26.2610   42.2420 C   0  0  0  0  0  0  0  0  0  0  0  0
   37.1120   26.4870   41.1670 H   0  0  0  0  0  0  0  0  0  0  0  0
   36.5070   25.4270   42.4110 H   0  0  0  0  0  0  0  0  0  0  0  0
   38.5490   25.8620   42.5530 N   0  0  0  0  0  0  0  0  0  0  0  0
   38.8040   24.5070   42.5800 C   0  0  0  0  0  0  0  0  0  0  0  0
   38.1620   23.6280   42.4140 H   0  0  0  0  0  0  0  0  0  0  0  0
   40.0930   24.2140   42.8670 N   0  0  0  0  0  0  0  0  0  0  0  0
   40.7310   25.3670   43.0390 C   0  0  0  0  0  0  0  0  0  0  0  0
   41.9980   25.8200   43.3410 C   0  0  0  0  0  0  0  0  0  0  0  0
   42.2620   27.1550   43.4340 N   0  0  0  0  0  0  0  0  0  0  0  0
   41.2820   28.0550   43.2310 C   0  0  0  0  0  0  0  0  0  0  0  0
   41.5440   29.1160   43.3170 H   0  0  0  0  0  0  0  0  0  0  0  0
   40.0460   27.6290   42.9370 N   0  0  0  0  0  0  0  0  0  0  0  0
   39.7700   26.3340   42.8420 C   0  0  0  0  0  0  0  0  0  0  0  0
   42.9830   24.7940   43.5420 N   0  0  0  0  0  0  0  0  0  0  0  0
   43.3450   24.4220   44.4520 H   0  0  0  0  0  0  0  0  0  0  0  0
   43.5180   24.2300   42.8600 H   0  0  0  0  0  0  0  0  0  0  0  0
  1  6  1  6  0  0  0
  1 21  1  0  0  0  0
  1  5  1  0  0  0  0
  2  7  1  6  0  0  0
  2  1  1  0  0  0  0
  2  3  1  0  0  0  0
  4  3  1  0  0  0  0
  4  5  1  0  0  0  0
  4  8  1  0  0  0  0
  5 10  1  6  0  0  0
  5 23  1  0  0  0  0
  9  4  1  0  0  0  0
 11 16  2  0  0  0  0
 11 12  1  0  0  0  0
 12 13  2  0  0  0  0
 13 14  1  0  0  0  0
 13 18  1  0  0  0  0
 15  2  1  0  0  0  0
 15 14  2  0  0  0  0
 16 15  1  0  0  0  0
 17 12  1  0  0  0  0
 19 11  1  0  0  0  0
 20 19  1  0  0  0  0
 22 21  1  0  0  0  0
 23 24  1  0  0  0  0
 24 25  1  0  0  0  0
 24 26  1  0  0  0  0
 27 29  1  0  0  0  0
 27 30  1  0  0  0  0
 27 24  1  0  0  0  0
 28 27  1  0  0  0  0
 30 31  1  0  0  0  0
 30 40  1  0  0  0  0
 31 33  2  0  0  0  0
 32 31  1  0  0  0  0
 33 34  1  0  0  0  0
 34 35  1  0  0  0  0
 35 36  2  0  0  0  0
 35 41  1  0  0  0  0
 37 38  1  0  0  0  0
 37 36  1  0  0  0  0
 39 37  2  0  0  0  0
 40 39  1  0  0  0  0
 40 34  2  0  0  0  0
 41 42  1  0  0  0  0
 43 41  1  0  0  0  0
M  END
>  <minimizedAffinity>
-6.06578779

$$$$

 OpenBabel03242519493D

 43 46  0  0  1  0  0  0  0  0999 V2000
   38.5950   31.2360   38.6490 C   0  0  2  0  0  0  0  0  0  0  0  0
   38.8110   32.5480   39.2940 C   0  0  1  0  0  0  0  0  0  0  0  0
   38.3520   32.3260   40.6720 O   0  0  0  0  0  0  0  0  0  0  0  0
   37.0650   31.8610   40.3170 C   0  0  0  0  0  0  0  0  0  0  0  0
   37.4670   30.6390   39.4840 C   0  0  2  0  0  0  0  0  0  0  0  0
   38.3420   31.2800   37.5770 H   0  0  0  0  0  0  0  0  0  0  0  0
   38.0830   33.3080   38.9170 H   0  0  0  0  0  0  0  0  0  0  0  0
   36.4990   31.6910   41.1910 H   0  0  0  0  0  0  0  0  0  0  0  0
   36.5940   32.6030   39.6020 H   0  0  0  0  0  0  0  0  0  0  0  0
   36.5680   30.3330   38.9070 H   0  0  0  0  0  0  0  0  0  0  0  0
   41.9680   33.8270   37.9820 C   0  0  0  0  0  0  0  0  0  0  0  0
   42.7700   33.9730   39.1150 C   0  0  0  0  0  0  0  0  0  0  0  0
   42.2220   33.6190   40.3720 C   0  0  0  0  0  0  0  0  0  0  0  0
   40.9330   33.1510   40.4240 N   0  0  0  0  0  0  0  0  0  0  0  0
   40.1910   33.0250   39.3020 C   0  0  0  0  0  0  0  0  0  0  0  0
   40.6960   33.3580   38.0810 N   0  0  0  0  0  0  0  0  0  0  0  0
   43.7670   34.3430   39.0080 H   0  0  0  0  0  0  0  0  0  0  0  0
   42.8210   33.7230   41.2580 H   0  0  0  0  0  0  0  0  0  0  0  0
   42.4550   34.1600   36.7130 O   0  0  0  0  0  0  0  0  0  0  0  0
   42.0770   34.9780   36.2610 H   0  0  0  0  0  0  0  0  0  0  0  0
   39.7580   30.4150   38.8330 O   0  0  0  0  0  0  0  0  0  0  0  0
   40.2010   30.2770   37.9390 H   0  0  0  0  0  0  0  0  0  0  0  0
   37.9210   29.6680   40.3150 O   0  0  0  0  0  0  0  0  0  0  0  0
   37.0230   29.1210   41.1880 C   0  0  0  0  0  0  0  0  0  0  0  0
   36.9200   27.9890   40.9350 H   0  0  0  0  0  0  0  0  0  0  0  0
   36.0660   29.5590   41.1620 H   0  0  0  0  0  0  0  0  0  0  0  0
   37.5290   28.9640   42.6100 C   0  0  0  0  0  0  0  0  0  0  0  0
   36.6740   28.5890   43.1970 H   0  0  0  0  0  0  0  0  0  0  0  0
   37.7970   29.9170   43.0850 H   0  0  0  0  0  0  0  0  0  0  0  0
   38.6270   28.0370   42.6890 N   0  0  0  0  0  0  0  0  0  0  0  0
   39.8820   28.5780   42.8700 C   0  0  0  0  0  0  0  0  0  0  0  0
   40.2370   29.6160   42.9640 H   0  0  0  0  0  0  0  0  0  0  0  0
   40.8580   27.6430   42.9460 N   0  0  0  0  0  0  0  0  0  0  0  0
   40.2770   26.4550   42.8180 C   0  0  0  0  0  0  0  0  0  0  0  0
   40.6290   25.1220   42.7960 C   0  0  0  0  0  0  0  0  0  0  0  0
   39.6860   24.1500   42.6300 N   0  0  0  0  0  0  0  0  0  0  0  0
   38.3900   24.4820   42.4860 C   0  0  0  0  0  0  0  0  0  0  0  0
   37.6700   23.6650   42.3570 H   0  0  0  0  0  0  0  0  0  0  0  0
   38.0340   25.7740   42.5060 N   0  0  0  0  0  0  0  0  0  0  0  0
   38.9370   26.7330   42.6660 C   0  0  0  0  0  0  0  0  0  0  0  0
   42.0320   24.8570   42.9570 N   0  0  0  0  0  0  0  0  0  0  0  0
   42.7310   24.6300   42.2100 H   0  0  0  0  0  0  0  0  0  0  0  0
   42.6210   24.8360   43.8060 H   0  0  0  0  0  0  0  0  0  0  0  0
  1  6  1  6  0  0  0
  1 21  1  0  0  0  0
  1  2  1  0  0  0  0
  1  5  1  0  0  0  0
  2  7  1  6  0  0  0
  2 15  1  0  0  0  0
  2  3  1  0  0  0  0
  4  3  1  0  0  0  0
  4  8  1  0  0  0  0
  5 10  1  6  0  0  0
  5 23  1  0  0  0  0
  5  4  1  0  0  0  0
  9  4  1  0  0  0  0
 11 16  2  0  0  0  0
 11 12  1  0  0  0  0
 12 13  2  0  0  0  0
 13 14  1  0  0  0  0
 13 18  1  0  0  0  0
 15 14  2  0  0  0  0
 16 15  1  0  0  0  0
 17 12  1  0  0  0  0
 19 11  1  0  0  0  0
 20 19  1  0  0  0  0
 22 21  1  0  0  0  0
 23 24  1  0  0  0  0
 24 27  1  0  0  0  0
 25 24  1  0  0  0  0
 26 24  1  0  0  0  0
 27 30  1  0  0  0  0
 27 29  1  0  0  0  0
 27 28  1  0  0  0  0
 30 31  1  0  0  0  0
 31 33  2  0  0  0  0
 31 32  1  0  0  0  0
 34 33  1  0  0  0  0
 35 34  1  0  0  0  0
 35 41  1  0  0  0  0
 36 35  2  0  0  0  0
 37 39  2  0  0  0  0
 37 36  1  0  0  0  0
 38 37  1  0  0  0  0
 39 40  1  0  0  0  0
 40 30  1  0  0  0  0
 40 34  2  0  0  0  0
 41 43  1  0  0  0  0
 42 41  1  0  0  0  0
M  END
>  <minimizedAffinity>
-5.97512245

$$$$

 OpenBabel03242519493D

 43 46  0  0  1  0  0  0  0  0999 V2000
   38.8670   27.6180   41.4050 C   0  0  2  0  0  0  0  0  0  0  0  0
   37.7640   26.7760   41.9120 C   0  0  1  0  0  0  0  0  0  0  0  0
   36.6430   27.7190   42.0240 O   0  0  0  0  0  0  0  0  0  0  0  0
   37.3230   28.6470   42.8440 C   0  0  0  0  0  0  0  0  0  0  0  0
   38.4780   29.0060   41.9010 C   0  0  2  0  0  0  0  0  0  0  0  0
   39.8730   27.3210   41.7420 H   0  0  0  0  0  0  0  0  0  0  0  0
   37.9380   26.4810   42.9770 H   0  0  0  0  0  0  0  0  0  0  0  0
   36.6620   29.4210   43.1220 H   0  0  0  0  0  0  0  0  0  0  0  0
   37.7780   28.0940   43.7220 H   0  0  0  0  0  0  0  0  0  0  0  0
   39.2490   29.5170   42.5180 H   0  0  0  0  0  0  0  0  0  0  0  0
   37.6130   23.3400   40.6900 C   0  0  0  0  0  0  0  0  0  0  0  0
   36.7650   23.4110   39.5830 C   0  0  0  0  0  0  0  0  0  0  0  0
   36.2280   24.6740   39.2340 C   0  0  0  0  0  0  0  0  0  0  0  0
   36.5610   25.7680   39.9940 N   0  0  0  0  0  0  0  0  0  0  0  0
   37.3850   25.6530   41.0580 C   0  0  0  0  0  0  0  0  0  0  0  0
   37.9160   24.4500   41.4130 N   0  0  0  0  0  0  0  0  0  0  0  0
   36.5460   22.5220   39.0320 H   0  0  0  0  0  0  0  0  0  0  0  0
   35.5730   24.7540   38.3860 H   0  0  0  0  0  0  0  0  0  0  0  0
   38.1740   22.1190   41.0830 O   0  0  0  0  0  0  0  0  0  0  0  0
   37.8440   21.6990   41.9380 H   0  0  0  0  0  0  0  0  0  0  0  0
   38.8300   27.6410   39.9690 O   0  0  0  0  0  0  0  0  0  0  0  0
   39.6390   27.1560   39.6180 H   0  0  0  0  0  0  0  0  0  0  0  0
   38.0010   29.7820   40.8960 O   0  0  0  0  0  0  0  0  0  0  0  0
   38.1230   31.1360   41.0380 C   0  0  0  0  0  0  0  0  0  0  0  0
   37.5550   31.4490   42.0050 H   0  0  0  0  0  0  0  0  0  0  0  0
   37.7450   31.6950   40.2300 H   0  0  0  0  0  0  0  0  0  0  0  0
   39.5030   31.6130   41.4520 C   0  0  0  0  0  0  0  0  0  0  0  0
   40.0550   30.7120   41.7660 H   0  0  0  0  0  0  0  0  0  0  0  0
   39.4920   32.2580   42.3420 H   0  0  0  0  0  0  0  0  0  0  0  0
   40.1930   32.2650   40.3700 N   0  0  0  0  0  0  0  0  0  0  0  0
   40.3740   33.6260   40.4800 C   0  0  0  0  0  0  0  0  0  0  0  0
   40.0810   34.3540   41.2530 H   0  0  0  0  0  0  0  0  0  0  0  0
   41.0390   34.1610   39.4310 N   0  0  0  0  0  0  0  0  0  0  0  0
   41.3200   33.1670   38.5940 C   0  0  0  0  0  0  0  0  0  0  0  0
   41.9440   32.9760   37.3790 C   0  0  0  0  0  0  0  0  0  0  0  0
   42.0260   31.7330   36.8210 N   0  0  0  0  0  0  0  0  0  0  0  0
   41.4940   30.6710   37.4540 C   0  0  0  0  0  0  0  0  0  0  0  0
   41.5850   29.6930   36.9650 H   0  0  0  0  0  0  0  0  0  0  0  0
   40.8840   30.8430   38.6350 N   0  0  0  0  0  0  0  0  0  0  0  0
   40.7950   32.0440   39.1930 C   0  0  0  0  0  0  0  0  0  0  0  0
   42.4830   34.1610   36.7740 N   0  0  0  0  0  0  0  0  0  0  0  0
   42.0660   34.7350   36.0030 H   0  0  0  0  0  0  0  0  0  0  0  0
   43.3590   34.6770   36.9650 H   0  0  0  0  0  0  0  0  0  0  0  0
  1  6  1  1  0  0  0
  1  5  1  0  0  0  0
  1  2  1  0  0  0  0
  2  3  1  0  0  0  0
  2  7  1  1  0  0  0
  3  4  1  0  0  0  0
  4  8  1  0  0  0  0
  4  9  1  0  0  0  0
  5 10  1  1  0  0  0
  5  4  1  0  0  0  0
 11 19  1  0  0  0  0
 11 16  1  0  0  0  0
 12 11  2  0  0  0  0
 13 12  1  0  0  0  0
 13 14  2  0  0  0  0
 14 15  1  0  0  0  0
 15 16  2  0  0  0  0
 15  2  1  0  0  0  0
 17 12  1  0  0  0  0
 18 13  1  0  0  0  0
 19 20  1  0  0  0  0
 21  1  1  0  0  0  0
 22 21  1  0  0  0  0
 23 24  1  0  0  0  0
 23  5  1  0  0  0  0
 24 27  1  0  0  0  0
 24 25  1  0  0  0  0
 26 24  1  0  0  0  0
 27 28  1  0  0  0  0
 27 29  1  0  0  0  0
 30 31  1  0  0  0  0
 30 27  1  0  0  0  0
 31 32  1  0  0  0  0
 33 31  2  0  0  0  0
 34 40  1  0  0  0  0
 34 33  1  0  0  0  0
 35 34  2  0  0  0  0
 36 35  1  0  0  0  0
 36 37  2  0  0  0  0
 37 39  1  0  0  0  0
 38 37  1  0  0  0  0
 39 40  2  0  0  0  0
 40 30  1  0  0  0  0
 41 43  1  0  0  0  0
 41 35  1  0  0  0  0
 42 41  1  0  0  0  0
M  END
>  <minimizedAffinity>
-5.76962042

$$$$

 OpenBabel03242519493D

 43 46  0  0  1  0  0  0  0  0999 V2000
   39.1370   27.8600   43.1830 C   0  0  2  0  0  0  0  0  0  0  0  0
   39.4430   26.4560   42.8430 C   0  0  1  0  0  0  0  0  0  0  0  0
   38.4390   26.1290   41.8210 O   0  0  0  0  0  0  0  0  0  0  0  0
   37.3200   26.4910   42.6050 C   0  0  0  0  0  0  0  0  0  0  0  0
   37.6550   27.9680   42.8440 C   0  0  2  0  0  0  0  0  0  0  0  0
   39.3480   28.1440   44.2260 H   0  0  0  0  0  0  0  0  0  0  0  0
   39.1660   25.7690   43.6810 H   0  0  0  0  0  0  0  0  0  0  0  0
   36.4340   26.2700   42.0760 H   0  0  0  0  0  0  0  0  0  0  0  0
   37.3950   25.9730   43.6100 H   0  0  0  0  0  0  0  0  0  0  0  0
   37.0070   28.3140   43.6770 H   0  0  0  0  0  0  0  0  0  0  0  0
   42.9060   25.3040   42.7750 C   0  0  0  0  0  0  0  0  0  0  0  0
   43.3500   25.6440   41.4950 C   0  0  0  0  0  0  0  0  0  0  0  0
   42.4420   26.2940   40.6240 C   0  0  0  0  0  0  0  0  0  0  0  0
   41.1720   26.5600   41.0700 N   0  0  0  0  0  0  0  0  0  0  0  0
   40.7830   26.2130   42.3170 C   0  0  0  0  0  0  0  0  0  0  0  0
   41.6380   25.5870   43.1740 N   0  0  0  0  0  0  0  0  0  0  0  0
   44.3520   25.4090   41.2090 H   0  0  0  0  0  0  0  0  0  0  0  0
   42.7620   26.5650   39.6350 H   0  0  0  0  0  0  0  0  0  0  0  0
   43.7580   24.6600   43.6800 O   0  0  0  0  0  0  0  0  0  0  0  0
   43.5700   23.6950   43.9020 H   0  0  0  0  0  0  0  0  0  0  0  0
   39.8540   28.7340   42.2960 O   0  0  0  0  0  0  0  0  0  0  0  0
   40.5520   29.2290   42.8250 H   0  0  0  0  0  0  0  0  0  0  0  0
   37.4530   28.6570   41.6930 O   0  0  0  0  0  0  0  0  0  0  0  0
   36.2040   29.1660   41.4780 C   0  0  0  0  0  0  0  0  0  0  0  0
   35.5990   29.0630   42.4670 H   0  0  0  0  0  0  0  0  0  0  0  0
   35.6670   28.6950   40.7050 H   0  0  0  0  0  0  0  0  0  0  0  0
   36.1420   30.6780   41.3610 C   0  0  0  0  0  0  0  0  0  0  0  0
   36.7710   31.0720   42.1760 H   0  0  0  0  0  0  0  0  0  0  0  0
   35.1420   31.0900   41.5570 H   0  0  0  0  0  0  0  0  0  0  0  0
   36.6320   31.1390   40.0890 N   0  0  0  0  0  0  0  0  0  0  0  0
   37.2720   32.3590   40.0760 C   0  0  0  0  0  0  0  0  0  0  0  0
   37.4890   33.0920   40.8680 H   0  0  0  0  0  0  0  0  0  0  0  0
   37.7130   32.7150   38.8480 N   0  0  0  0  0  0  0  0  0  0  0  0
   37.3790   31.7390   38.0100 C   0  0  0  0  0  0  0  0  0  0  0  0
   37.4950   31.4330   36.6700 C   0  0  0  0  0  0  0  0  0  0  0  0
   36.9890   30.2690   36.1710 N   0  0  0  0  0  0  0  0  0  0  0  0
   36.3650   29.3970   36.9850 C   0  0  0  0  0  0  0  0  0  0  0  0
   35.9760   28.4750   36.5370 H   0  0  0  0  0  0  0  0  0  0  0  0
   36.2450   29.6820   38.2890 N   0  0  0  0  0  0  0  0  0  0  0  0
   36.7310   30.8100   38.7930 C   0  0  0  0  0  0  0  0  0  0  0  0
   38.1740   32.4160   35.8740 N   0  0  0  0  0  0  0  0  0  0  0  0
   37.7480   33.1410   35.2490 H   0  0  0  0  0  0  0  0  0  0  0  0
   39.1840   32.6090   35.7560 H   0  0  0  0  0  0  0  0  0  0  0  0
  1  6  1  1  0  0  0
  2  1  1  0  0  0  0
  2  7  1  1  0  0  0
  3  4  1  0  0  0  0
  3  2  1  0  0  0  0
  4  5  1  0  0  0  0
  4  9  1  0  0  0  0
  5  1  1  0  0  0  0
  5 10  1  1  0  0  0
  8  4  1  0  0  0  0
 11 16  1  0  0  0  0
 11 19  1  0  0  0  0
 12 11  2  0  0  0  0
 13 14  2  0  0  0  0
 13 12  1  0  0  0  0
 14 15  1  0  0  0  0
 15  2  1  0  0  0  0
 15 16  2  0  0  0  0
 17 12  1  0  0  0  0
 18 13  1  0  0  0  0
 19 20  1  0  0  0  0
 21 22  1  0  0  0  0
 21  1  1  0  0  0  0
 23  5  1  0  0  0  0
 24 23  1  0  0  0  0
 24 25  1  0  0  0  0
 26 24  1  0  0  0  0
 27 24  1  0  0  0  0
 27 29  1  0  0  0  0
 27 28  1  0  0  0  0
 30 27  1  0  0  0  0
 31 30  1  0  0  0  0
 31 32  1  0  0  0  0
 33 31  2  0  0  0  0
 34 40  1  0  0  0  0
 34 33  1  0  0  0  0
 35 34  2  0  0  0  0
 36 35  1  0  0  0  0
 36 37  2  0  0  0  0
 37 39  1  0  0  0  0
 38 37  1  0  0  0  0
 39 40  2  0  0  0  0
 40 30  1  0  0  0  0
 41 35  1  0  0  0  0
 42 41  1  0  0  0  0
 43 41  1  0  0  0  0
M  END
>  <minimizedAffinity>
-5.73338175

$$$$

 OpenBabel03242519493D

 43 46  0  0  1  0  0  0  0  0999 V2000
   38.9820   26.8350   41.3320 C   0  0  2  0  0  0  0  0  0  0  0  0
   38.3510   25.7030   42.0410 C   0  0  1  0  0  0  0  0  0  0  0  0
   37.1340   26.2970   42.6110 O   0  0  0  0  0  0  0  0  0  0  0  0
   37.7960   27.3420   43.2940 C   0  0  0  0  0  0  0  0  0  0  0  0
   38.4500   28.0420   42.0970 C   0  0  2  0  0  0  0  0  0  0  0  0
   40.0830   26.8120   41.3040 H   0  0  0  0  0  0  0  0  0  0  0  0
   38.9330   25.4240   42.9550 H   0  0  0  0  0  0  0  0  0  0  0  0
   37.0950   27.8930   43.8580 H   0  0  0  0  0  0  0  0  0  0  0  0
   38.6360   26.9000   43.9120 H   0  0  0  0  0  0  0  0  0  0  0  0
   39.2300   28.7190   42.5070 H   0  0  0  0  0  0  0  0  0  0  0  0
   36.2480   23.4070   40.1360 C   0  0  0  0  0  0  0  0  0  0  0  0
   37.1480   22.4680   39.6270 C   0  0  0  0  0  0  0  0  0  0  0  0
   38.5190   22.6160   39.9470 C   0  0  0  0  0  0  0  0  0  0  0  0
   38.9050   23.6690   40.7380 N   0  0  0  0  0  0  0  0  0  0  0  0
   38.0010   24.5550   41.2090 C   0  0  0  0  0  0  0  0  0  0  0  0
   36.6750   24.4340   40.9160 N   0  0  0  0  0  0  0  0  0  0  0  0
   36.7830   21.6700   39.0180 H   0  0  0  0  0  0  0  0  0  0  0  0
   39.2300   21.9050   39.5670 H   0  0  0  0  0  0  0  0  0  0  0  0
   34.8810   23.3130   39.8540 O   0  0  0  0  0  0  0  0  0  0  0  0
   34.4750   24.0000   39.2380 H   0  0  0  0  0  0  0  0  0  0  0  0
   38.4700   26.9050   39.9920 O   0  0  0  0  0  0  0  0  0  0  0  0
   39.2110   26.6750   39.3510 H   0  0  0  0  0  0  0  0  0  0  0  0
   37.4930   28.6980   41.3930 O   0  0  0  0  0  0  0  0  0  0  0  0
   36.8930   29.7670   41.9970 C   0  0  0  0  0  0  0  0  0  0  0  0
   37.7290   30.4380   42.4520 H   0  0  0  0  0  0  0  0  0  0  0  0
   36.2140   29.5120   42.7600 H   0  0  0  0  0  0  0  0  0  0  0  0
   36.3070   30.7930   41.0450 C   0  0  0  0  0  0  0  0  0  0  0  0
   36.0600   31.6730   41.6610 H   0  0  0  0  0  0  0  0  0  0  0  0
   35.3500   30.4830   40.6050 H   0  0  0  0  0  0  0  0  0  0  0  0
   37.2390   31.1590   40.0110 N   0  0  0  0  0  0  0  0  0  0  0  0
   36.8660   30.8830   38.7140 C   0  0  0  0  0  0  0  0  0  0  0  0
   35.9670   30.4140   38.2830 H   0  0  0  0  0  0  0  0  0  0  0  0
   37.7880   31.2670   37.8020 N   0  0  0  0  0  0  0  0  0  0  0  0
   38.8010   31.8090   38.4690 C   0  0  0  0  0  0  0  0  0  0  0  0
   40.0280   32.3850   38.2110 C   0  0  0  0  0  0  0  0  0  0  0  0
   40.8160   32.8400   39.2270 N   0  0  0  0  0  0  0  0  0  0  0  0
   40.4050   32.7320   40.5040 C   0  0  0  0  0  0  0  0  0  0  0  0
   41.0740   33.1130   41.2850 H   0  0  0  0  0  0  0  0  0  0  0  0
   39.2150   32.1750   40.7690 N   0  0  0  0  0  0  0  0  0  0  0  0
   38.4340   31.7260   39.7940 C   0  0  0  0  0  0  0  0  0  0  0  0
   40.3880   32.4610   36.8230 N   0  0  0  0  0  0  0  0  0  0  0  0
   41.0340   31.8290   36.2930 H   0  0  0  0  0  0  0  0  0  0  0  0
   40.0970   33.1250   36.0860 H   0  0  0  0  0  0  0  0  0  0  0  0
  1  6  1  1  0  0  0
  1  2  1  0  0  0  0
  1  5  1  0  0  0  0
  2  3  1  0  0  0  0
  2  7  1  1  0  0  0
  3  4  1  0  0  0  0
  4  8  1  0  0  0  0
  4  9  1  0  0  0  0
  5 10  1  1  0  0  0
  5  4  1  0  0  0  0
 11 16  1  0  0  0  0
 12 13  1  0  0  0  0
 12 11  2  0  0  0  0
 13 14  2  0  0  0  0
 14 15  1  0  0  0  0
 15  2  1  0  0  0  0
 16 15  2  0  0  0  0
 17 12  1  0  0  0  0
 18 13  1  0  0  0  0
 19 11  1  0  0  0  0
 20 19  1  0  0  0  0
 21  1  1  0  0  0  0
 22 21  1  0  0  0  0
 23 24  1  0  0  0  0
 23  5  1  0  0  0  0
 24 25  1  0  0  0  0
 24 26  1  0  0  0  0
 27 28  1  0  0  0  0
 27 24  1  0  0  0  0
 29 27  1  0  0  0  0
 30 27  1  0  0  0  0
 31 30  1  0  0  0  0
 32 31  1  0  0  0  0
 33 34  1  0  0  0  0
 33 31  2  0  0  0  0
 34 40  1  0  0  0  0
 35 34  2  0  0  0  0
 35 36  1  0  0  0  0
 36 37  2  0  0  0  0
 37 39  1  0  0  0  0
 37 38  1  0  0  0  0
 40 30  1  0  0  0  0
 40 39  2  0  0  0  0
 41 35  1  0  0  0  0
 42 41  1  0  0  0  0
 43 41  1  0  0  0  0
M  END
>  <minimizedAffinity>
-5.58505869

$$$$

 OpenBabel03242519493D

 43 46  0  0  1  0  0  0  0  0999 V2000
   40.7940   30.5960   42.4060 C   0  0  2  0  0  0  0  0  0  0  0  0
   41.2540   30.4230   41.0130 C   0  0  1  0  0  0  0  0  0  0  0  0
   40.2680   29.4940   40.4440 O   0  0  0  0  0  0  0  0  0  0  0  0
   40.4380   28.4920   41.4260 C   0  0  0  0  0  0  0  0  0  0  0  0
   40.0400   29.2970   42.6690 C   0  0  2  0  0  0  0  0  0  0  0  0
   41.5940   30.7700   43.1430 H   0  0  0  0  0  0  0  0  0  0  0  0
   42.1990   29.8260   40.9720 H   0  0  0  0  0  0  0  0  0  0  0  0
   39.8480   27.6530   41.1790 H   0  0  0  0  0  0  0  0  0  0  0  0
   41.5420   28.2620   41.5260 H   0  0  0  0  0  0  0  0  0  0  0  0
   40.3920   28.7200   43.5510 H   0  0  0  0  0  0  0  0  0  0  0  0
   40.7890   32.6140   38.1310 C   0  0  0  0  0  0  0  0  0  0  0  0
   41.2940   33.8440   38.5570 C   0  0  0  0  0  0  0  0  0  0  0  0
   41.8180   33.9320   39.8700 C   0  0  0  0  0  0  0  0  0  0  0  0
   41.8070   32.8130   40.6640 N   0  0  0  0  0  0  0  0  0  0  0  0
   41.3070   31.6420   40.2110 C   0  0  0  0  0  0  0  0  0  0  0  0
   40.7980   31.5310   38.9520 N   0  0  0  0  0  0  0  0  0  0  0  0
   41.2750   34.6780   37.8890 H   0  0  0  0  0  0  0  0  0  0  0  0
   42.2130   34.8690   40.2190 H   0  0  0  0  0  0  0  0  0  0  0  0
   40.2590   32.4660   36.8440 O   0  0  0  0  0  0  0  0  0  0  0  0
   39.2630   32.3400   36.7540 H   0  0  0  0  0  0  0  0  0  0  0  0
   39.8450   31.6720   42.4660 O   0  0  0  0  0  0  0  0  0  0  0  0
   40.2530   32.4340   42.9820 H   0  0  0  0  0  0  0  0  0  0  0  0
   38.6970   29.4870   42.6600 O   0  0  0  0  0  0  0  0  0  0  0  0
   37.9060   28.3740   42.7090 C   0  0  0  0  0  0  0  0  0  0  0  0
   37.4310   28.3160   43.7710 H   0  0  0  0  0  0  0  0  0  0  0  0
   38.4120   27.4700   42.5180 H   0  0  0  0  0  0  0  0  0  0  0  0
   36.6150   28.4710   41.9170 C   0  0  0  0  0  0  0  0  0  0  0  0
   35.9490   29.1280   42.5010 H   0  0  0  0  0  0  0  0  0  0  0  0
   36.0740   27.5180   41.8450 H   0  0  0  0  0  0  0  0  0  0  0  0
   36.8300   29.0240   40.6060 N   0  0  0  0  0  0  0  0  0  0  0  0
   36.8660   28.1340   39.5550 C   0  0  0  0  0  0  0  0  0  0  0  0
   36.7670   27.0380   39.5070 H   0  0  0  0  0  0  0  0  0  0  0  0
   37.0600   28.7320   38.3580 N   0  0  0  0  0  0  0  0  0  0  0  0
   37.1590   30.0390   38.5800 C   0  0  0  0  0  0  0  0  0  0  0  0
   37.3540   31.2030   37.8680 C   0  0  0  0  0  0  0  0  0  0  0  0
   37.3990   32.4120   38.4990 N   0  0  0  0  0  0  0  0  0  0  0  0
   37.2530   32.4840   39.8350 C   0  0  0  0  0  0  0  0  0  0  0  0
   37.2960   33.4780   40.2960 H   0  0  0  0  0  0  0  0  0  0  0  0
   37.0620   31.3600   40.5400 N   0  0  0  0  0  0  0  0  0  0  0  0
   37.0160   30.1750   39.9430 C   0  0  0  0  0  0  0  0  0  0  0  0
   37.5000   31.0360   36.4490 N   0  0  0  0  0  0  0  0  0  0  0  0
   38.3880   31.0320   35.8920 H   0  0  0  0  0  0  0  0  0  0  0  0
   36.7920   30.8890   35.7110 H   0  0  0  0  0  0  0  0  0  0  0  0
  1 21  1  0  0  0  0
  1  5  1  0  0  0  0
  1  6  1  1  0  0  0
  2  7  1  1  0  0  0
  2  1  1  0  0  0  0
  3  2  1  0  0  0  0
  3  4  1  0  0  0  0
  4  9  1  0  0  0  0
  4  5  1  0  0  0  0
  5 10  1  1  0  0  0
  8  4  1  0  0  0  0
 11 12  2  0  0  0  0
 11 16  1  0  0  0  0
 12 13  1  0  0  0  0
 13 18  1  0  0  0  0
 13 14  2  0  0  0  0
 15 14  1  0  0  0  0
 15  2  1  0  0  0  0
 16 15  2  0  0  0  0
 17 12  1  0  0  0  0
 19 11  1  0  0  0  0
 20 19  1  0  0  0  0
 21 22  1  0  0  0  0
 23  5  1  0  0  0  0
 23 24  1  0  0  0  0
 24 25  1  0  0  0  0
 26 24  1  0  0  0  0
 27 28  1  0  0  0  0
 27 24  1  0  0  0  0
 29 27  1  0  0  0  0
 30 27  1  0  0  0  0
 31 30  1  0  0  0  0
 32 31  1  0  0  0  0
 33 34  1  0  0  0  0
 33 31  2  0  0  0  0
 34 40  1  0  0  0  0
 35 36  1  0  0  0  0
 35 34  2  0  0  0  0
 36 37  2  0  0  0  0
 37 38  1  0  0  0  0
 37 39  1  0  0  0  0
 40 39  2  0  0  0  0
 40 30  1  0  0  0  0
 41 35  1  0  0  0  0
 42 41  1  0  0  0  0
 43 41  1  0  0  0  0
M  END
>  <minimizedAffinity>
-5.50680399

$$$$

 OpenBabel03242519493D

 43 46  0  0  1  0  0  0  0  0999 V2000
   41.8840   30.4350   41.5160 C   0  0  2  0  0  0  0  0  0  0  0  0
   41.0250   30.5070   40.3160 C   0  0  1  0  0  0  0  0  0  0  0  0
   40.2260   29.2760   40.3980 O   0  0  0  0  0  0  0  0  0  0  0  0
   41.3300   28.3990   40.4860 C   0  0  0  0  0  0  0  0  0  0  0  0
   41.9670   28.9340   41.7740 C   0  0  2  0  0  0  0  0  0  0  0  0
   42.8790   30.8940   41.4050 H   0  0  0  0  0  0  0  0  0  0  0  0
   41.6210   30.3450   39.3830 H   0  0  0  0  0  0  0  0  0  0  0  0
   40.9860   27.4010   40.4900 H   0  0  0  0  0  0  0  0  0  0  0  0
   42.0500   28.6330   39.6440 H   0  0  0  0  0  0  0  0  0  0  0  0
   42.9980   28.5220   41.8170 H   0  0  0  0  0  0  0  0  0  0  0  0
   37.9260   32.4300   40.4600 C   0  0  0  0  0  0  0  0  0  0  0  0
   38.3260   33.7380   40.1760 C   0  0  0  0  0  0  0  0  0  0  0  0
   39.6990   33.9750   39.9200 C   0  0  0  0  0  0  0  0  0  0  0  0
   40.5730   32.9170   39.9620 N   0  0  0  0  0  0  0  0  0  0  0  0
   40.1430   31.6680   40.2420 C   0  0  0  0  0  0  0  0  0  0  0  0
   38.8270   31.4130   40.4910 N   0  0  0  0  0  0  0  0  0  0  0  0
   37.5960   34.5170   40.1580 H   0  0  0  0  0  0  0  0  0  0  0  0
   40.0310   34.9730   39.6980 H   0  0  0  0  0  0  0  0  0  0  0  0
   36.5840   32.1350   40.7210 O   0  0  0  0  0  0  0  0  0  0  0  0
   36.3280   31.8850   41.6640 H   0  0  0  0  0  0  0  0  0  0  0  0
   41.2010   31.0330   42.6290 O   0  0  0  0  0  0  0  0  0  0  0  0
   41.6830   31.8780   42.8870 H   0  0  0  0  0  0  0  0  0  0  0  0
   41.2020   28.5650   42.8310 O   0  0  0  0  0  0  0  0  0  0  0  0
   40.8400   27.2500   42.9130 C   0  0  0  0  0  0  0  0  0  0  0  0
   41.4880   26.7490   43.7400 H   0  0  0  0  0  0  0  0  0  0  0  0
   40.9580   26.7080   42.0190 H   0  0  0  0  0  0  0  0  0  0  0  0
   39.4820   26.9990   43.5440 C   0  0  0  0  0  0  0  0  0  0  0  0
   39.5470   27.3930   44.5710 H   0  0  0  0  0  0  0  0  0  0  0  0
   39.2490   25.9330   43.6670 H   0  0  0  0  0  0  0  0  0  0  0  0
   38.4270   27.6630   42.8250 N   0  0  0  0  0  0  0  0  0  0  0  0
   37.9980   28.8720   43.3290 C   0  0  0  0  0  0  0  0  0  0  0  0
   38.3020   29.4590   44.2100 H   0  0  0  0  0  0  0  0  0  0  0  0
   37.0140   29.4370   42.5930 N   0  0  0  0  0  0  0  0  0  0  0  0
   36.7620   28.6180   41.5770 C   0  0  0  0  0  0  0  0  0  0  0  0
   35.9260   28.5450   40.4820 C   0  0  0  0  0  0  0  0  0  0  0  0
   35.9750   27.4790   39.6330 N   0  0  0  0  0  0  0  0  0  0  0  0
   36.8450   26.4760   39.8540 C   0  0  0  0  0  0  0  0  0  0  0  0
   36.8470   25.6410   39.1430 H   0  0  0  0  0  0  0  0  0  0  0  0
   37.6630   26.5340   40.9140 N   0  0  0  0  0  0  0  0  0  0  0  0
   37.6300   27.5640   41.7510 C   0  0  0  0  0  0  0  0  0  0  0  0
   35.0300   29.6560   40.3210 N   0  0  0  0  0  0  0  0  0  0  0  0
   34.0150   29.7030   40.5760 H   0  0  0  0  0  0  0  0  0  0  0  0
   35.1910   30.6020   39.9380 H   0  0  0  0  0  0  0  0  0  0  0  0
  1  6  1  6  0  0  0
  1  5  1  0  0  0  0
  1 21  1  0  0  0  0
  2  7  1  6  0  0  0
  2  3  1  0  0  0  0
  2  1  1  0  0  0  0
  3  4  1  0  0  0  0
  4  8  1  0  0  0  0
  4  5  1  0  0  0  0
  5 10  1  1  0  0  0
  5 23  1  0  0  0  0
  9  4  1  0  0  0  0
 11 16  1  0  0  0  0
 11 19  1  0  0  0  0
 12 11  2  0  0  0  0
 13 14  2  0  0  0  0
 13 12  1  0  0  0  0
 14 15  1  0  0  0  0
 15  2  1  0  0  0  0
 15 16  2  0  0  0  0
 17 12  1  0  0  0  0
 18 13  1  0  0  0  0
 19 20  1  0  0  0  0
 21 22  1  0  0  0  0
 23 24  1  0  0  0  0
 24 27  1  0  0  0  0
 24 25  1  0  0  0  0
 26 24  1  0  0  0  0
 27 29  1  0  0  0  0
 27 28  1  0  0  0  0
 30 31  1  0  0  0  0
 30 27  1  0  0  0  0
 31 32  1  0  0  0  0
 33 31  2  0  0  0  0
 34 40  1  0  0  0  0
 34 33  1  0  0  0  0
 35 34  2  0  0  0  0
 36 37  2  0  0  0  0
 36 35  1  0  0  0  0
 37 39  1  0  0  0  0
 38 37  1  0  0  0  0
 39 40  2  0  0  0  0
 40 30  1  0  0  0  0
 41 35  1  0  0  0  0
 41 42  1  0  0  0  0
 43 41  1  0  0  0  0
M  END
>  <minimizedAffinity>
-5.40151072

$$$$

 OpenBabel03242519493D

 43 46  0  0  1  0  0  0  0  0999 V2000
   39.7730   27.4180   41.2510 C   0  0  2  0  0  0  0  0  0  0  0  0
   38.4290   27.3190   41.8570 C   0  0  1  0  0  0  0  0  0  0  0  0
   38.5870   28.0060   43.1460 O   0  0  0  0  0  0  0  0  0  0  0  0
   39.6760   27.2210   43.5890 C   0  0  0  0  0  0  0  0  0  0  0  0
   40.6780   27.5400   42.4720 C   0  0  2  0  0  0  0  0  0  0  0  0
   40.0560   26.5730   40.6050 H   0  0  0  0  0  0  0  0  0  0  0  0
   38.2050   26.2690   42.1700 H   0  0  0  0  0  0  0  0  0  0  0  0
   39.9360   27.5040   44.5720 H   0  0  0  0  0  0  0  0  0  0  0  0
   39.4050   26.1270   43.4820 H   0  0  0  0  0  0  0  0  0  0  0  0
   41.4830   26.7770   42.5370 H   0  0  0  0  0  0  0  0  0  0  0  0
   35.9520   29.8220   40.8960 C   0  0  0  0  0  0  0  0  0  0  0  0
   35.3360   29.2720   39.7700 C   0  0  0  0  0  0  0  0  0  0  0  0
   35.7730   28.0020   39.3230 C   0  0  0  0  0  0  0  0  0  0  0  0
   36.7780   27.3670   40.0090 N   0  0  0  0  0  0  0  0  0  0  0  0
   37.3470   27.9360   41.0950 C   0  0  0  0  0  0  0  0  0  0  0  0
   36.9440   29.1570   41.5460 N   0  0  0  0  0  0  0  0  0  0  0  0
   34.5580   29.8170   39.2800 H   0  0  0  0  0  0  0  0  0  0  0  0
   35.3140   27.5590   38.4580 H   0  0  0  0  0  0  0  0  0  0  0  0
   35.5620   31.0730   41.3850 O   0  0  0  0  0  0  0  0  0  0  0  0
   36.2030   31.8450   41.2780 H   0  0  0  0  0  0  0  0  0  0  0  0
   39.8730   28.6440   40.5090 O   0  0  0  0  0  0  0  0  0  0  0  0
   39.9400   28.4230   39.5290 H   0  0  0  0  0  0  0  0  0  0  0  0
   41.1320   28.8070   42.6350 O   0  0  0  0  0  0  0  0  0  0  0  0
   42.4830   29.0010   42.5800 C   0  0  0  0  0  0  0  0  0  0  0  0
   42.8690   28.5600   41.5730 H   0  0  0  0  0  0  0  0  0  0  0  0
   43.0210   28.5570   43.3690 H   0  0  0  0  0  0  0  0  0  0  0  0
   42.9140   30.4370   42.3470 C   0  0  0  0  0  0  0  0  0  0  0  0
   44.0160   30.4250   42.3250 H   0  0  0  0  0  0  0  0  0  0  0  0
   42.6590   31.1090   43.1770 H   0  0  0  0  0  0  0  0  0  0  0  0
   42.4010   30.9570   41.1070 N   0  0  0  0  0  0  0  0  0  0  0  0
   43.1310   30.6850   39.9700 C   0  0  0  0  0  0  0  0  0  0  0  0
   44.0720   30.1360   39.8060 H   0  0  0  0  0  0  0  0  0  0  0  0
   42.5780   31.1960   38.8470 N   0  0  0  0  0  0  0  0  0  0  0  0
   41.4620   31.8220   39.2070 C   0  0  0  0  0  0  0  0  0  0  0  0
   40.4380   32.5400   38.6250 C   0  0  0  0  0  0  0  0  0  0  0  0
   39.4210   33.0480   39.3790 N   0  0  0  0  0  0  0  0  0  0  0  0
   39.4030   32.8540   40.7100 C   0  0  0  0  0  0  0  0  0  0  0  0
   38.5650   33.2810   41.2730 H   0  0  0  0  0  0  0  0  0  0  0  0
   40.3920   32.1580   41.2890 N   0  0  0  0  0  0  0  0  0  0  0  0
   41.3900   31.6560   40.5720 C   0  0  0  0  0  0  0  0  0  0  0  0
   40.5350   32.7000   37.2010 N   0  0  0  0  0  0  0  0  0  0  0  0
   40.8720   33.5380   36.6710 H   0  0  0  0  0  0  0  0  0  0  0  0
   40.3040   32.0480   36.4320 H   0  0  0  0  0  0  0  0  0  0  0  0
  1  6  1  6  0  0  0
  1  2  1  0  0  0  0
  1  5  1  0  0  0  0
  2  7  1  1  0  0  0
  2  3  1  0  0  0  0
  3  4  1  0  0  0  0
  4  8  1  0  0  0  0
  5 10  1  6  0  0  0
  5 23  1  0  0  0  0
  5  4  1  0  0  0  0
  9  4  1  0  0  0  0
 11 19  1  0  0  0  0
 11 16  1  0  0  0  0
 12 11  2  0  0  0  0
 13 12  1  0  0  0  0
 13 14  2  0  0  0  0
 14 15  1  0  0  0  0
 15 16  2  0  0  0  0
 15  2  1  0  0  0  0
 17 12  1  0  0  0  0
 18 13  1  0  0  0  0
 20 19  1  0  0  0  0
 21  1  1  0  0  0  0
 22 21  1  0  0  0  0
 24 23  1  0  0  0  0
 24 26  1  0  0  0  0
 25 24  1  0  0  0  0
 27 24  1  0  0  0  0
 27 29  1  0  0  0  0
 28 27  1  0  0  0  0
 30 27  1  0  0  0  0
 31 30  1  0  0  0  0
 32 31  1  0  0  0  0
 33 34  1  0  0  0  0
 33 31  2  0  0  0  0
 34 40  1  0  0  0  0
 35 34  2  0  0  0  0
 35 36  1  0  0  0  0
 36 37  2  0  0  0  0
 37 38  1  0  0  0  0
 37 39  1  0  0  0  0
 40 30  1  0  0  0  0
 40 39  2  0  0  0  0
 41 35  1  0  0  0  0
 42 41  1  0  0  0  0
 43 41  1  0  0  0  0
M  END
>  <minimizedAffinity>
-5.40048742

$$$$

 OpenBabel03242519493D

 43 46  0  0  1  0  0  0  0  0999 V2000
   37.1670   27.5780   41.4160 C   0  0  2  0  0  0  0  0  0  0  0  0
   36.7030   28.9380   41.7590 C   0  0  1  0  0  0  0  0  0  0  0  0
   37.5750   29.3210   42.8770 O   0  0  0  0  0  0  0  0  0  0  0  0
   37.2770   28.1960   43.6780 C   0  0  0  0  0  0  0  0  0  0  0  0
   37.7580   27.0880   42.7340 C   0  0  2  0  0  0  0  0  0  0  0  0
   36.3880   26.9020   41.0320 H   0  0  0  0  0  0  0  0  0  0  0  0
   35.6930   28.9100   42.2390 H   0  0  0  0  0  0  0  0  0  0  0  0
   37.7640   28.2890   44.6100 H   0  0  0  0  0  0  0  0  0  0  0  0
   36.1520   28.0920   43.7580 H   0  0  0  0  0  0  0  0  0  0  0  0
   37.3310   26.1350   43.1140 H   0  0  0  0  0  0  0  0  0  0  0  0
   37.3240   32.1600   40.1610 C   0  0  0  0  0  0  0  0  0  0  0  0
   37.0780   31.9190   38.8080 C   0  0  0  0  0  0  0  0  0  0  0  0
   36.6800   30.6160   38.4230 C   0  0  0  0  0  0  0  0  0  0  0  0
   36.5550   29.6490   39.3890 N   0  0  0  0  0  0  0  0  0  0  0  0
   36.8040   29.9260   40.6880 C   0  0  0  0  0  0  0  0  0  0  0  0
   37.1870   31.1720   41.0840 N   0  0  0  0  0  0  0  0  0  0  0  0
   37.1930   32.7150   38.1040 H   0  0  0  0  0  0  0  0  0  0  0  0
   36.4850   30.4070   37.3870 H   0  0  0  0  0  0  0  0  0  0  0  0
   37.7190   33.4280   40.6010 O   0  0  0  0  0  0  0  0  0  0  0  0
   38.6670   33.5440   40.9230 H   0  0  0  0  0  0  0  0  0  0  0  0
   38.2380   27.6640   40.4630 O   0  0  0  0  0  0  0  0  0  0  0  0
   37.9200   27.2900   39.5850 H   0  0  0  0  0  0  0  0  0  0  0  0
   39.1140   27.0890   42.7070 O   0  0  0  0  0  0  0  0  0  0  0  0
   39.7610   26.3810   43.6800 C   0  0  0  0  0  0  0  0  0  0  0  0
   38.9570   25.9420   44.4000 H   0  0  0  0  0  0  0  0  0  0  0  0
   40.4480   26.9430   44.2450 H   0  0  0  0  0  0  0  0  0  0  0  0
   40.3580   25.0630   43.2200 C   0  0  0  0  0  0  0  0  0  0  0  0
   39.8650   24.2800   43.8190 H   0  0  0  0  0  0  0  0  0  0  0  0
   41.4260   24.9640   43.4560 H   0  0  0  0  0  0  0  0  0  0  0  0
   40.1310   24.8320   41.8180 N   0  0  0  0  0  0  0  0  0  0  0  0
   41.1130   25.2610   40.9510 C   0  0  0  0  0  0  0  0  0  0  0  0
   42.0740   25.7730   41.1130 H   0  0  0  0  0  0  0  0  0  0  0  0
   40.8300   24.9960   39.6550 N   0  0  0  0  0  0  0  0  0  0  0  0
   39.6520   24.3830   39.6250 C   0  0  0  0  0  0  0  0  0  0  0  0
   38.7800   23.8500   38.6980 C   0  0  0  0  0  0  0  0  0  0  0  0
   37.6040   23.2800   39.0890 N   0  0  0  0  0  0  0  0  0  0  0  0
   37.2770   23.2290   40.3940 C   0  0  0  0  0  0  0  0  0  0  0  0
   36.3220   22.7610   40.6580 H   0  0  0  0  0  0  0  0  0  0  0  0
   38.1150   23.7440   41.3050 N   0  0  0  0  0  0  0  0  0  0  0  0
   39.2640   24.3030   40.9430 C   0  0  0  0  0  0  0  0  0  0  0  0
   39.2060   23.9460   37.3300 N   0  0  0  0  0  0  0  0  0  0  0  0
   38.8990   24.6410   36.6100 H   0  0  0  0  0  0  0  0  0  0  0  0
   39.8800   23.3740   36.7920 H   0  0  0  0  0  0  0  0  0  0  0  0
  1  6  1  6  0  0  0
  1  2  1  0  0  0  0
  1  5  1  0  0  0  0
  2  7  1  1  0  0  0
  2  3  1  0  0  0  0
  3  4  1  0  0  0  0
  4  9  1  0  0  0  0
  4  8  1  0  0  0  0
  5 10  1  1  0  0  0
  5  4  1  0  0  0  0
 11 19  1  0  0  0  0
 11 16  1  0  0  0  0
 12 11  2  0  0  0  0
 13 12  1  0  0  0  0
 13 14  2  0  0  0  0
 14 15  1  0  0  0  0
 15 16  2  0  0  0  0
 15  2  1  0  0  0  0
 17 12  1  0  0  0  0
 18 13  1  0  0  0  0
 19 20  1  0  0  0  0
 21  1  1  0  0  0  0
 22 21  1  0  0  0  0
 23  5  1  0  0  0  0
 23 24  1  0  0  0  0
 24 26  1  0  0  0  0
 24 25  1  0  0  0  0
 27 29  1  0  0  0  0
 27 24  1  0  0  0  0
 27 28  1  0  0  0  0
 30 27  1  0  0  0  0
 31 32  1  0  0  0  0
 31 30  1  0  0  0  0
 33 31  2  0  0  0  0
 34 33  1  0  0  0  0
 34 40  1  0  0  0  0
 35 36  1  0  0  0  0
 35 34  2  0  0  0  0
 36 37  2  0  0  0  0
 37 38  1  0  0  0  0
 37 39  1  0  0  0  0
 40 39  2  0  0  0  0
 40 30  1  0  0  0  0
 41 35  1  0  0  0  0
 42 41  1  0  0  0  0
 43 41  1  0  0  0  0
M  END
>  <minimizedAffinity>
-5.38715982

$$$$
