
 OpenBabel03252507063D

 29 31  0  0  0  0  0  0  0  0999 V2000
   44.5950   35.7670   44.6970 C   0  0  0  0  0  0  0  0  0  0  0  0
   45.1910   35.9990   43.4330 C   0  0  0  0  0  0  0  0  0  0  0  0
   46.1530   35.0880   42.9870 C   0  0  0  0  0  0  0  0  0  0  0  0
   46.4640   34.0270   43.7930 N   0  0  0  0  0  0  0  0  0  0  0  0
   45.8770   33.8430   44.9820 C   0  0  0  0  0  0  0  0  0  0  0  0
   44.9500   34.6970   45.4390 N   0  0  0  0  0  0  0  0  0  0  0  0
   43.8450   36.4450   45.0830 H   0  0  0  0  0  0  0  0  0  0  0  0
   44.8740   36.8810   42.8610 H   0  0  0  0  0  0  0  0  0  0  0  0
   46.3850   32.6690   45.6060 N   0  0  0  0  0  0  0  0  0  0  0  0
   47.2360   31.8190   44.9670 C   0  0  0  0  0  0  0  0  0  0  0  0
   47.6300   31.9110   43.9450 H   0  0  0  0  0  0  0  0  0  0  0  0
   47.5770   30.7720   45.7730 N   0  0  0  0  0  0  0  0  0  0  0  0
   46.9230   30.9910   46.9150 C   0  0  0  0  0  0  0  0  0  0  0  0
   46.8170   30.3440   48.1220 C   0  0  0  0  0  0  0  0  0  0  0  0
   46.0710   30.7760   49.1520 N   0  0  0  0  0  0  0  0  0  0  0  0
   45.3690   31.9280   48.9960 C   0  0  0  0  0  0  0  0  0  0  0  0
   44.7640   32.2810   49.8250 H   0  0  0  0  0  0  0  0  0  0  0  0
   45.4400   32.5970   47.8320 N   0  0  0  0  0  0  0  0  0  0  0  0
   46.1820   32.1550   46.8290 C   0  0  0  0  0  0  0  0  0  0  0  0
   47.5130   29.1430   48.3620 N   0  0  0  0  0  0  0  0  0  0  0  0
   48.2950   28.6200   48.7730 H   0  0  0  0  0  0  0  0  0  0  0  0
   46.9820   28.3800   47.8900 H   0  0  0  0  0  0  0  0  0  0  0  0
   46.7270   35.3300   41.7500 O   0  0  0  0  0  0  0  0  0  0  0  0
   48.3220   33.4140   40.8610 O   0  0  0  0  0  0  0  0  0  0  0  0
   48.3380   34.8060   41.4680 P   0  0  0  0  0  0  0  0  0  0  0  0
   49.0840   35.9210   40.4550 O   0  0  0  0  0  0  0  0  0  0  0  0
   50.0310   36.0360   40.7790 H   0  0  0  0  0  0  0  0  0  0  0  0
   49.1090   34.7070   42.9690 O   0  0  0  0  0  0  0  0  0  0  0  0
   50.0630   34.4130   42.8610 H   0  0  0  0  0  0  0  0  0  0  0  0
  1  7  1  0  0  0  0
  1  6  1  0  0  0  0
  2  1  2  0  0  0  0
  3  2  1  0  0  0  0
  3  4  2  0  0  0  0
  4  5  1  0  0  0  0
  5  6  2  0  0  0  0
  5  9  1  0  0  0  0
  8  2  1  0  0  0  0
  9 19  1  0  0  0  0
 10  9  1  0  0  0  0
 10 12  2  0  0  0  0
 11 10  1  0  0  0  0
 12 13  1  0  0  0  0
 13 14  1  0  0  0  0
 14 20  1  0  0  0  0
 14 15  2  0  0  0  0
 16 15  1  0  0  0  0
 16 17  1  0  0  0  0
 18 16  2  0  0  0  0
 19 13  2  0  0  0  0
 19 18  1  0  0  0  0
 20 21  1  0  0  0  0
 22 20  1  0  0  0  0
 23  3  1  0  0  0  0
 24 25  2  0  0  0  0
 25 23  1  0  0  0  0
 25 28  1  0  0  0  0
 26 27  1  0  0  0  0
 26 25  1  0  0  0  0
 29 28  1  0  0  0  0
M  END
>  <minimizedAffinity>
-6.7505908

>  <minimizedRMSD>
0.620656431

$$$$
