
 OpenBabel03252509033D

 53 56  0  0  1  0  0  0  0  0999 V2000
   47.3240   33.9470   43.3890 N   0  0  0  0  0  0  0  0  0  0  0  0
   46.8260   35.1170   42.7630 C   0  0  0  0  0  0  0  0  0  0  0  0
   45.3280   35.2770   42.8490 C   0  0  0  0  0  0  0  0  0  0  0  0
   44.7220   34.7570   44.1400 C   0  0  0  0  0  0  0  0  0  0  0  0
   45.8020   34.2850   45.0990 C   0  0  0  0  0  0  0  0  0  0  0  0
   46.5690   33.1900   44.2500 C   0  0  2  0  0  0  0  0  0  0  0  0
   47.3040   35.9860   43.3020 H   0  0  0  0  0  0  0  0  0  0  0  0
   47.0990   35.2470   41.7070 H   0  0  0  0  0  0  0  0  0  0  0  0
   45.1150   36.3800   42.8300 H   0  0  0  0  0  0  0  0  0  0  0  0
   44.8270   34.8760   41.9470 H   0  0  0  0  0  0  0  0  0  0  0  0
   44.1210   33.8620   43.8630 H   0  0  0  0  0  0  0  0  0  0  0  0
   44.0390   35.4880   44.6100 H   0  0  0  0  0  0  0  0  0  0  0  0
   46.4980   35.0970   45.3170 H   0  0  0  0  0  0  0  0  0  0  0  0
   45.3310   33.7990   45.9540 H   0  0  0  0  0  0  0  0  0  0  0  0
   45.7920   32.5270   43.8190 H   0  0  0  0  0  0  0  0  0  0  0  0
   48.4140   33.3160   42.6860 C   0  0  0  0  0  0  0  0  0  0  0  0
   49.0660   32.8460   43.4710 H   0  0  0  0  0  0  0  0  0  0  0  0
   49.0150   34.1240   42.2170 H   0  0  0  0  0  0  0  0  0  0  0  0
   47.8410   32.3290   41.7350 C   0  0  0  0  0  0  0  0  0  0  0  0
   48.1870   31.3140   41.9750 H   0  0  0  0  0  0  0  0  0  0  0  0
   46.7130   32.3450   41.7470 H   0  0  0  0  0  0  0  0  0  0  0  0
   49.3890   32.1850   38.3220 C   0  0  0  0  0  0  0  0  0  0  0  0
   49.0240   31.8590   39.6420 C   0  0  0  0  0  0  0  0  0  0  0  0
   48.2100   32.6940   40.3480 C   0  0  0  0  0  0  0  0  0  0  0  0
   47.7910   33.8010   39.7390 N   0  0  0  0  0  0  0  0  0  0  0  0
   48.1270   34.1280   38.4840 C   0  0  0  0  0  0  0  0  0  0  0  0
   48.9290   33.3270   37.7590 N   0  0  0  0  0  0  0  0  0  0  0  0
   50.0340   31.5170   37.7700 H   0  0  0  0  0  0  0  0  0  0  0  0
   49.4340   30.9250   40.0240 H   0  0  0  0  0  0  0  0  0  0  0  0
   47.6830   35.0640   38.1810 H   0  0  0  0  0  0  0  0  0  0  0  0
   47.3120   32.5760   45.2410 O   0  0  0  0  0  0  0  0  0  0  0  0
   47.1740   30.1040   44.2680 O   0  0  0  0  0  0  0  0  0  0  0  0
   46.8680   30.9710   45.4850 P   0  0  2  0  0  0  0  0  0  0  0  0
   45.1600   30.9720   45.5840 O   0  0  0  0  0  0  0  0  0  0  0  0
   44.8840   31.1660   46.5180 H   0  0  0  0  0  0  0  0  0  0  0  0
   47.4680   30.3290   46.8940 O   0  0  0  0  0  0  0  0  0  0  0  0
   48.6860   29.7180   46.6430 C   0  0  0  0  0  0  0  0  0  0  0  0
   49.3880   30.3370   46.0790 H   0  0  0  0  0  0  0  0  0  0  0  0
   48.4970   28.7910   46.0550 H   0  0  0  0  0  0  0  0  0  0  0  0
   49.2270   29.2850   47.9250 N   0  0  0  0  0  0  0  0  0  0  0  0
   49.3250   27.9570   48.1990 C   0  0  0  0  0  0  0  0  0  0  0  0
   49.0440   27.1080   47.5640 H   0  0  0  0  0  0  0  0  0  0  0  0
   49.8510   27.7890   49.4380 N   0  0  0  0  0  0  0  0  0  0  0  0
   50.0850   29.0300   49.9490 C   0  0  0  0  0  0  0  0  0  0  0  0
   50.5930   29.5590   51.1270 C   0  0  0  0  0  0  0  0  0  0  0  0
   50.6690   30.8950   51.2640 N   0  0  0  0  0  0  0  0  0  0  0  0
   50.2760   31.7430   50.3150 C   0  0  0  0  0  0  0  0  0  0  0  0
   50.4000   32.7760   50.5740 H   0  0  0  0  0  0  0  0  0  0  0  0
   49.7790   31.2810   49.1610 N   0  0  0  0  0  0  0  0  0  0  0  0
   49.6870   29.9570   48.9860 C   0  0  0  0  0  0  0  0  0  0  0  0
   51.0030   28.6340   52.1180 N   0  0  0  0  0  0  0  0  0  0  0  0
   51.8870   28.0740   52.2560 H   0  0  0  0  0  0  0  0  0  0  0  0
   50.6360   28.2030   52.9870 H   0  0  0  0  0  0  0  0  0  0  0  0
  1  6  1  0  0  0  0
  2  3  1  0  0  0  0
  2  7  1  0  0  0  0
  2  1  1  0  0  0  0
  3  4  1  0  0  0  0
  4 12  1  0  0  0  0
  4  5  1  0  0  0  0
  5 13  1  0  0  0  0
  5 14  1  0  0  0  0
  6 15  1  6  0  0  0
  6  5  1  0  0  0  0
  6 31  1  0  0  0  0
  8  2  1  0  0  0  0
  9  3  1  0  0  0  0
 10  3  1  0  0  0  0
 11  4  1  0  0  0  0
 16  1  1  0  0  0  0
 16 17  1  0  0  0  0
 18 16  1  0  0  0  0
 19 21  1  0  0  0  0
 19 20  1  0  0  0  0
 19 16  1  0  0  0  0
 22 23  1  0  0  0  0
 23 29  1  0  0  0  0
 23 24  2  0  0  0  0
 24 19  1  0  0  0  0
 25 24  1  0  0  0  0
 26 25  2  0  0  0  0
 27 22  2  0  0  0  0
 27 26  1  0  0  0  0
 28 22  1  0  0  0  0
 30 26  1  0  0  0  0
 31 33  1  0  0  0  0
 33 32  2  6  0  0  0
 33 34  1  0  0  0  0
 33 36  1  0  0  0  0
 34 35  1  0  0  0  0
 37 36  1  0  0  0  0
 37 40  1  0  0  0  0
 38 37  1  0  0  0  0
 39 37  1  0  0  0  0
 40 41  1  0  0  0  0
 40 50  1  0  0  0  0
 41 43  2  0  0  0  0
 42 41  1  0  0  0  0
 43 44  1  0  0  0  0
 44 45  1  0  0  0  0
 45 46  2  0  0  0  0
 45 51  1  0  0  0  0
 47 48  1  0  0  0  0
 47 46  1  0  0  0  0
 49 47  2  0  0  0  0
 50 49  1  0  0  0  0
 50 44  2  0  0  0  0
 51 52  1  0  0  0  0
 51 53  1  0  0  0  0
M  END
>  <minimizedAffinity>
-5.0427928

>  <minimizedRMSD>
2.16660929

$$$$
