
 OpenBabel03252509033D

 53 56  0  0  1  0  0  0  0  0999 V2000
   47.0580   34.3330   43.2380 N   0  0  0  0  0  0  0  0  0  0  0  0
   46.7100   34.9250   41.9980 C   0  0  0  0  0  0  0  0  0  0  0  0
   45.2820   34.6850   41.5760 C   0  0  0  0  0  0  0  0  0  0  0  0
   44.2940   34.6320   42.7270 C   0  0  0  0  0  0  0  0  0  0  0  0
   44.9790   34.9450   44.0480 C   0  0  0  0  0  0  0  0  0  0  0  0
   46.1200   33.8500   44.1170 C   0  0  2  0  0  0  0  0  0  0  0  0
   46.8540   36.0370   42.1330 H   0  0  0  0  0  0  0  0  0  0  0  0
   47.3440   34.6530   41.1440 H   0  0  0  0  0  0  0  0  0  0  0  0
   44.9740   35.5620   40.9450 H   0  0  0  0  0  0  0  0  0  0  0  0
   45.2020   33.8090   40.9020 H   0  0  0  0  0  0  0  0  0  0  0  0
   43.9400   33.5790   42.7870 H   0  0  0  0  0  0  0  0  0  0  0  0
   43.4100   35.2740   42.5540 H   0  0  0  0  0  0  0  0  0  0  0  0
   45.4500   35.9280   44.0080 H   0  0  0  0  0  0  0  0  0  0  0  0
   44.2750   34.7700   44.8620 H   0  0  0  0  0  0  0  0  0  0  0  0
   45.6380   32.8790   43.8850 H   0  0  0  0  0  0  0  0  0  0  0  0
   48.3930   33.7890   43.2820 C   0  0  0  0  0  0  0  0  0  0  0  0
   48.7570   33.9290   44.3360 H   0  0  0  0  0  0  0  0  0  0  0  0
   49.0320   34.4320   42.6390 H   0  0  0  0  0  0  0  0  0  0  0  0
   48.3250   32.3640   42.8710 C   0  0  0  0  0  0  0  0  0  0  0  0
   48.5230   31.7030   43.7270 H   0  0  0  0  0  0  0  0  0  0  0  0
   47.3190   32.1030   42.4330 H   0  0  0  0  0  0  0  0  0  0  0  0
   51.5610   31.8800   41.0380 C   0  0  0  0  0  0  0  0  0  0  0  0
   50.6240   32.1210   42.0610 C   0  0  0  0  0  0  0  0  0  0  0  0
   49.2910   32.1070   41.7780 C   0  0  0  0  0  0  0  0  0  0  0  0
   48.9340   31.8620   40.5200 N   0  0  0  0  0  0  0  0  0  0  0  0
   49.8110   31.6310   39.5330 C   0  0  0  0  0  0  0  0  0  0  0  0
   51.1330   31.6370   39.7770 N   0  0  0  0  0  0  0  0  0  0  0  0
   52.6160   31.8920   41.2720 H   0  0  0  0  0  0  0  0  0  0  0  0
   51.0460   32.3080   43.0480 H   0  0  0  0  0  0  0  0  0  0  0  0
   49.3160   31.4550   38.5900 H   0  0  0  0  0  0  0  0  0  0  0  0
   46.4980   33.9610   45.4430 O   0  0  0  0  0  0  0  0  0  0  0  0
   45.7400   31.4110   45.4210 O   0  0  0  0  0  0  0  0  0  0  0  0
   46.2260   32.5480   46.3160 P   0  0  2  0  0  0  0  0  0  0  0  0
   44.8940   32.8810   47.3360 O   0  0  0  0  0  0  0  0  0  0  0  0
   45.2180   33.3070   48.1720 H   0  0  0  0  0  0  0  0  0  0  0  0
   47.5110   32.1060   47.2690 O   0  0  0  0  0  0  0  0  0  0  0  0
   47.7450   30.7470   47.1310 C   0  0  0  0  0  0  0  0  0  0  0  0
   48.0970   30.4530   46.1400 H   0  0  0  0  0  0  0  0  0  0  0  0
   46.7900   30.2070   47.3300 H   0  0  0  0  0  0  0  0  0  0  0  0
   48.6630   30.3550   48.1920 N   0  0  0  0  0  0  0  0  0  0  0  0
   48.4760   30.8270   49.4520 C   0  0  0  0  0  0  0  0  0  0  0  0
   47.6920   31.5010   49.8180 H   0  0  0  0  0  0  0  0  0  0  0  0
   49.4420   30.3350   50.2680 N   0  0  0  0  0  0  0  0  0  0  0  0
   50.2480   29.5420   49.5080 C   0  0  0  0  0  0  0  0  0  0  0  0
   51.3790   28.7640   49.7050 C   0  0  0  0  0  0  0  0  0  0  0  0
   51.9060   28.0990   48.6610 N   0  0  0  0  0  0  0  0  0  0  0  0
   51.3900   28.1520   47.4340 C   0  0  0  0  0  0  0  0  0  0  0  0
   51.9230   27.5670   46.7110 H   0  0  0  0  0  0  0  0  0  0  0  0
   50.2980   28.8890   47.1940 N   0  0  0  0  0  0  0  0  0  0  0  0
   49.7450   29.5650   48.2070 C   0  0  0  0  0  0  0  0  0  0  0  0
   51.9060   28.7270   51.0190 N   0  0  0  0  0  0  0  0  0  0  0  0
   51.6530   28.1720   51.8800 H   0  0  0  0  0  0  0  0  0  0  0  0
   52.6560   29.1780   51.5740 H   0  0  0  0  0  0  0  0  0  0  0  0
  1 16  1  0  0  0  0
  1  6  1  0  0  0  0
  2  7  1  0  0  0  0
  2  1  1  0  0  0  0
  3  2  1  0  0  0  0
  3  4  1  0  0  0  0
  4 11  1  0  0  0  0
  4  5  1  0  0  0  0
  5  6  1  0  0  0  0
  5 14  1  0  0  0  0
  6 15  1  6  0  0  0
  6 31  1  0  0  0  0
  8  2  1  0  0  0  0
  9  3  1  0  0  0  0
 10  3  1  0  0  0  0
 12  4  1  0  0  0  0
 13  5  1  0  0  0  0
 16 17  1  0  0  0  0
 18 16  1  0  0  0  0
 19 16  1  0  0  0  0
 19 20  1  0  0  0  0
 21 19  1  0  0  0  0
 22 28  1  0  0  0  0
 22 23  1  0  0  0  0
 23 29  1  0  0  0  0
 24 23  2  0  0  0  0
 24 19  1  0  0  0  0
 25 24  1  0  0  0  0
 26 27  1  0  0  0  0
 26 25  2  0  0  0  0
 27 22  2  0  0  0  0
 30 26  1  0  0  0  0
 31 33  1  0  0  0  0
 33 32  2  6  0  0  0
 33 36  1  0  0  0  0
 33 34  1  0  0  0  0
 34 35  1  0  0  0  0
 37 36  1  0  0  0  0
 37 39  1  0  0  0  0
 37 40  1  0  0  0  0
 38 37  1  0  0  0  0
 40 50  1  0  0  0  0
 40 41  1  0  0  0  0
 41 42  1  0  0  0  0
 41 43  2  0  0  0  0
 44 45  1  0  0  0  0
 44 43  1  0  0  0  0
 45 51  1  0  0  0  0
 46 45  2  0  0  0  0
 47 46  1  0  0  0  0
 48 47  1  0  0  0  0
 49 47  2  0  0  0  0
 49 50  1  0  0  0  0
 50 44  2  0  0  0  0
 51 53  1  0  0  0  0
 51 52  1  0  0  0  0
M  END
>  <minimizedAffinity>
-5.08288336

>  <minimizedRMSD>
3.05599403

$$$$
