
 OpenBabel03242515153D

 42 45  0  0  0  0  0  0  0  0999 V2000
   45.4350   30.5090   47.2430 C   0  0  0  0  0  0  0  0  0  0  0  0
   45.1570   29.9430   46.0390 C   0  0  0  0  0  0  0  0  0  0  0  0
   44.8220   28.6290   46.2810 C   0  0  0  0  0  0  0  0  0  0  0  0
   44.8970   28.4180   47.5900 N   0  0  0  0  0  0  0  0  0  0  0  0
   45.2680   29.5600   48.1560 N   0  0  0  0  0  0  0  0  0  0  0  0
   45.1920   30.4300   45.0660 H   0  0  0  0  0  0  0  0  0  0  0  0
   44.4630   27.6930   45.2710 N   0  0  0  0  0  0  0  0  0  0  0  0
   45.2610   26.7820   44.6750 C   0  0  0  0  0  0  0  0  0  0  0  0
   46.3120   26.6030   44.8580 H   0  0  0  0  0  0  0  0  0  0  0  0
   44.5840   26.0620   43.7650 N   0  0  0  0  0  0  0  0  0  0  0  0
   43.2940   26.5020   43.7510 C   0  0  0  0  0  0  0  0  0  0  0  0
   42.2050   26.1110   43.0130 C   0  0  0  0  0  0  0  0  0  0  0  0
   41.0530   26.7720   43.2530 N   0  0  0  0  0  0  0  0  0  0  0  0
   40.9680   27.7600   44.1630 C   0  0  0  0  0  0  0  0  0  0  0  0
   39.9810   28.2310   44.2780 H   0  0  0  0  0  0  0  0  0  0  0  0
   42.0500   28.1510   44.8970 N   0  0  0  0  0  0  0  0  0  0  0  0
   43.2430   27.5240   44.7010 C   0  0  0  0  0  0  0  0  0  0  0  0
   42.3830   25.0660   42.0820 N   0  0  0  0  0  0  0  0  0  0  0  0
   42.3710   25.2330   41.0450 H   0  0  0  0  0  0  0  0  0  0  0  0
   42.5450   24.0310   42.2600 H   0  0  0  0  0  0  0  0  0  0  0  0
   44.6270   27.1650   48.3130 C   0  0  0  0  0  0  0  0  0  0  0  0
   44.3320   27.4500   49.6500 F   0  0  0  0  0  0  0  0  0  0  0  0
   45.6950   26.3160   48.1850 F   0  0  0  0  0  0  0  0  0  0  0  0
   43.5090   26.5810   47.7770 F   0  0  0  0  0  0  0  0  0  0  0  0
   45.8440   31.8820   47.5590 C   0  0  0  0  0  0  0  0  0  0  0  0
   44.9060   32.5060   47.5620 H   0  0  0  0  0  0  0  0  0  0  0  0
   46.2650   31.9810   48.5800 H   0  0  0  0  0  0  0  0  0  0  0  0
   46.7470   32.4600   46.4970 C   0  0  0  0  0  0  0  0  0  0  0  0
   47.1030   31.6240   45.9090 H   0  0  0  0  0  0  0  0  0  0  0  0
   47.5870   32.9720   47.0420 H   0  0  0  0  0  0  0  0  0  0  0  0
   44.6340   35.2680   45.2590 C   0  0  0  0  0  0  0  0  0  0  0  0
   45.1160   35.3900   43.9320 C   0  0  0  0  0  0  0  0  0  0  0  0
   46.1180   34.5210   43.5410 C   0  0  0  0  0  0  0  0  0  0  0  0
   46.5430   33.6400   44.4570 N   0  0  0  0  0  0  0  0  0  0  0  0
   46.0920   33.5250   45.7020 C   0  0  0  0  0  0  0  0  0  0  0  0
   45.1360   34.3470   46.0920 N   0  0  0  0  0  0  0  0  0  0  0  0
   43.8470   35.9300   45.6120 H   0  0  0  0  0  0  0  0  0  0  0  0
   44.6520   36.1620   43.3340 H   0  0  0  0  0  0  0  0  0  0  0  0
   46.6170   34.6450   42.1720 C   0  0  0  0  0  0  0  0  0  0  0  0
   47.3960   33.5340   41.8520 F   0  0  0  0  0  0  0  0  0  0  0  0
   47.5210   35.7110   42.1880 F   0  0  0  0  0  0  0  0  0  0  0  0
   45.6230   34.8050   41.2550 F   0  0  0  0  0  0  0  0  0  0  0  0
  1 25  1  0  0  0  0
  1  5  2  0  0  0  0
  2  3  2  0  0  0  0
  2  1  1  0  0  0  0
  3  4  1  0  0  0  0
  4  5  1  0  0  0  0
  4 21  1  0  0  0  0
  6  2  1  0  0  0  0
  7  3  1  0  0  0  0
  8  9  1  0  0  0  0
  8  7  1  0  0  0  0
 10  8  2  0  0  0  0
 11 10  1  0  0  0  0
 11 17  1  0  0  0  0
 12 13  1  0  0  0  0
 12 11  2  0  0  0  0
 13 14  2  0  0  0  0
 14 15  1  0  0  0  0
 14 16  1  0  0  0  0
 17 16  2  0  0  0  0
 17  7  1  0  0  0  0
 18 20  1  0  0  0  0
 18 12  1  0  0  0  0
 19 18  1  0  0  0  0
 21 22  1  0  0  0  0
 23 21  1  0  0  0  0
 24 21  1  0  0  0  0
 25 26  1  0  0  0  0
 25 27  1  0  0  0  0
 28 30  1  0  0  0  0
 28 25  1  0  0  0  0
 29 28  1  0  0  0  0
 31 37  1  0  0  0  0
 31 36  1  0  0  0  0
 32 31  2  0  0  0  0
 33 32  1  0  0  0  0
 33 34  2  0  0  0  0
 34 35  1  0  0  0  0
 35 36  2  0  0  0  0
 35 28  1  0  0  0  0
 38 32  1  0  0  0  0
 39 41  1  0  0  0  0
 39 33  1  0  0  0  0
 40 39  1  0  0  0  0
 42 39  1  0  0  0  0
M  END
>  <minimizedAffinity>
-5.54880333

>  <minimizedRMSD>
1.37566686

$$$$
