
 OpenBabel03252502143D

 29 31  0  0  0  0  0  0  0  0999 V2000
   46.3990   35.2040   42.6600 C   0  0  0  0  0  0  0  0  0  0  0  0
   46.8460   34.0500   43.2990 C   0  0  0  0  0  0  0  0  0  0  0  0
   46.2300   33.6720   44.5000 C   0  0  0  0  0  0  0  0  0  0  0  0
   45.2350   34.4560   44.9640 N   0  0  0  0  0  0  0  0  0  0  0  0
   44.8170   35.5680   44.3330 C   0  0  0  0  0  0  0  0  0  0  0  0
   45.4060   35.9410   43.1720 N   0  0  0  0  0  0  0  0  0  0  0  0
   46.8100   35.5830   41.7250 H   0  0  0  0  0  0  0  0  0  0  0  0
   44.0190   36.1970   44.7050 H   0  0  0  0  0  0  0  0  0  0  0  0
   46.6980   32.5050   45.1290 N   0  0  0  0  0  0  0  0  0  0  0  0
   47.3980   31.4970   44.5310 C   0  0  0  0  0  0  0  0  0  0  0  0
   47.7110   31.4140   43.5000 H   0  0  0  0  0  0  0  0  0  0  0  0
   47.6450   30.5720   45.5010 N   0  0  0  0  0  0  0  0  0  0  0  0
   47.1170   30.9880   46.6670 C   0  0  0  0  0  0  0  0  0  0  0  0
   47.0490   30.5030   47.9370 C   0  0  0  0  0  0  0  0  0  0  0  0
   46.4420   31.1450   48.9320 N   0  0  0  0  0  0  0  0  0  0  0  0
   45.8600   32.3520   48.6660 C   0  0  0  0  0  0  0  0  0  0  0  0
   45.3910   32.7980   49.5400 H   0  0  0  0  0  0  0  0  0  0  0  0
   45.9030   32.8630   47.4360 N   0  0  0  0  0  0  0  0  0  0  0  0
   46.5090   32.2220   46.4390 C   0  0  0  0  0  0  0  0  0  0  0  0
   47.6590   29.2500   48.1910 N   0  0  0  0  0  0  0  0  0  0  0  0
   47.4990   28.2700   48.5120 H   0  0  0  0  0  0  0  0  0  0  0  0
   48.6870   29.2860   47.9830 H   0  0  0  0  0  0  0  0  0  0  0  0
   47.8820   33.3550   42.6870 O   0  0  0  0  0  0  0  0  0  0  0  0
   50.3840   33.1580   41.8600 O   0  0  0  0  0  0  0  0  0  0  0  0
   49.3100   34.1570   42.1770 P   0  0  0  0  0  0  0  0  0  0  0  0
   49.0100   35.0440   40.7580 O   0  0  0  0  0  0  0  0  0  0  0  0
   49.2590   35.9820   40.8190 H   0  0  0  0  0  0  0  0  0  0  0  0
   49.8700   35.1990   43.3760 O   0  0  0  0  0  0  0  0  0  0  0  0
   50.5080   34.7740   43.9830 H   0  0  0  0  0  0  0  0  0  0  0  0
  1  6  2  0  0  0  0
  1  2  1  0  0  0  0
  2  3  2  0  0  0  0
  3  4  1  0  0  0  0
  3  9  1  0  0  0  0
  5  8  1  0  0  0  0
  5  4  2  0  0  0  0
  6  5  1  0  0  0  0
  7  1  1  0  0  0  0
  9 19  1  0  0  0  0
 10  9  1  0  0  0  0
 10 12  2  0  0  0  0
 11 10  1  0  0  0  0
 12 13  1  0  0  0  0
 13 14  1  0  0  0  0
 14 20  1  0  0  0  0
 14 15  2  0  0  0  0
 16 15  1  0  0  0  0
 16 17  1  0  0  0  0
 18 16  2  0  0  0  0
 19 13  2  0  0  0  0
 19 18  1  0  0  0  0
 20 21  1  0  0  0  0
 22 20  1  0  0  0  0
 23  2  1  0  0  0  0
 24 25  2  0  0  0  0
 25 23  1  0  0  0  0
 25 28  1  0  0  0  0
 26 27  1  0  0  0  0
 26 25  1  0  0  0  0
 28 29  1  0  0  0  0
M  END
>  <minimizedAffinity>
-6.26433611

>  <minimizedRMSD>
0.633469999

$$$$
