
 OpenBabel03252509033D

 53 56  0  0  1  0  0  0  0  0999 V2000
   47.1460   34.1740   43.0820 N   0  0  0  0  0  0  0  0  0  0  0  0
   46.6380   35.2170   42.2680 C   0  0  0  0  0  0  0  0  0  0  0  0
   45.1440   35.4020   42.3580 C   0  0  0  0  0  0  0  0  0  0  0  0
   44.5660   35.1260   43.7340 C   0  0  0  0  0  0  0  0  0  0  0  0
   45.6670   34.8240   44.7370 C   0  0  0  0  0  0  0  0  0  0  0  0
   46.4090   33.5890   44.0810 C   0  0  2  0  0  0  0  0  0  0  0  0
   47.1330   36.1650   42.6320 H   0  0  0  0  0  0  0  0  0  0  0  0
   46.8870   35.1540   41.2000 H   0  0  0  0  0  0  0  0  0  0  0  0
   44.9340   36.4860   42.1470 H   0  0  0  0  0  0  0  0  0  0  0  0
   44.6200   34.8500   41.5530 H   0  0  0  0  0  0  0  0  0  0  0  0
   43.9550   34.2010   43.6350 H   0  0  0  0  0  0  0  0  0  0  0  0
   43.8970   35.9350   44.0800 H   0  0  0  0  0  0  0  0  0  0  0  0
   46.3700   35.6560   44.7910 H   0  0  0  0  0  0  0  0  0  0  0  0
   45.2140   34.5030   45.6750 H   0  0  0  0  0  0  0  0  0  0  0  0
   45.6190   32.8660   43.7930 H   0  0  0  0  0  0  0  0  0  0  0  0
   48.2170   33.4180   42.4780 C   0  0  0  0  0  0  0  0  0  0  0  0
   48.8400   33.0230   43.3260 H   0  0  0  0  0  0  0  0  0  0  0  0
   48.8570   34.1380   41.9240 H   0  0  0  0  0  0  0  0  0  0  0  0
   47.6140   32.3460   41.6460 C   0  0  0  0  0  0  0  0  0  0  0  0
   47.7520   31.3640   42.1200 H   0  0  0  0  0  0  0  0  0  0  0  0
   46.5130   32.5190   41.4760 H   0  0  0  0  0  0  0  0  0  0  0  0
   49.6670   31.3690   38.6630 C   0  0  0  0  0  0  0  0  0  0  0  0
   49.0840   31.3730   39.9450 C   0  0  0  0  0  0  0  0  0  0  0  0
   48.2140   32.3630   40.2920 C   0  0  0  0  0  0  0  0  0  0  0  0
   47.9520   33.2970   39.3800 N   0  0  0  0  0  0  0  0  0  0  0  0
   48.4960   33.3090   38.1560 C   0  0  0  0  0  0  0  0  0  0  0  0
   49.3590   32.3480   37.7810 N   0  0  0  0  0  0  0  0  0  0  0  0
   50.3560   30.5800   38.3960 H   0  0  0  0  0  0  0  0  0  0  0  0
   49.3810   30.5530   40.5970 H   0  0  0  0  0  0  0  0  0  0  0  0
   48.1530   34.1510   37.5730 H   0  0  0  0  0  0  0  0  0  0  0  0
   47.1730   33.1560   45.1490 O   0  0  0  0  0  0  0  0  0  0  0  0
   46.1580   30.7470   44.6510 O   0  0  0  0  0  0  0  0  0  0  0  0
   46.6570   31.6730   45.7570 P   0  0  2  0  0  0  0  0  0  0  0  0
   45.2610   32.0120   46.6850 O   0  0  0  0  0  0  0  0  0  0  0  0
   45.5320   32.2690   47.6050 H   0  0  0  0  0  0  0  0  0  0  0  0
   47.7730   30.9430   46.7460 O   0  0  0  0  0  0  0  0  0  0  0  0
   47.7520   29.5730   46.5370 C   0  0  0  0  0  0  0  0  0  0  0  0
   47.8960   29.2790   45.4950 H   0  0  0  0  0  0  0  0  0  0  0  0
   46.7630   29.1850   46.8700 H   0  0  0  0  0  0  0  0  0  0  0  0
   48.7430   28.9840   47.4270 N   0  0  0  0  0  0  0  0  0  0  0  0
   49.4880   29.7870   48.2300 C   0  0  0  0  0  0  0  0  0  0  0  0
   49.4590   30.8800   48.3170 H   0  0  0  0  0  0  0  0  0  0  0  0
   50.3380   29.0280   48.9670 N   0  0  0  0  0  0  0  0  0  0  0  0
   50.1220   27.7280   48.6210 C   0  0  0  0  0  0  0  0  0  0  0  0
   50.6300   26.4890   48.9780 C   0  0  0  0  0  0  0  0  0  0  0  0
   50.1380   25.3850   48.3870 N   0  0  0  0  0  0  0  0  0  0  0  0
   49.1760   25.4240   47.4660 C   0  0  0  0  0  0  0  0  0  0  0  0
   48.8930   24.4610   47.0900 H   0  0  0  0  0  0  0  0  0  0  0  0
   48.6540   26.5970   47.0880 N   0  0  0  0  0  0  0  0  0  0  0  0
   49.1180   27.7190   47.6530 C   0  0  0  0  0  0  0  0  0  0  0  0
   51.6520   26.4760   49.9590 N   0  0  0  0  0  0  0  0  0  0  0  0
   51.6350   26.5200   51.0140 H   0  0  0  0  0  0  0  0  0  0  0  0
   52.6860   26.4260   50.0130 H   0  0  0  0  0  0  0  0  0  0  0  0
  1  6  1  0  0  0  0
  2  3  1  0  0  0  0
  2  7  1  0  0  0  0
  2  1  1  0  0  0  0
  3  4  1  0  0  0  0
  4 12  1  0  0  0  0
  4  5  1  0  0  0  0
  5 13  1  0  0  0  0
  5 14  1  0  0  0  0
  6 15  1  6  0  0  0
  6  5  1  0  0  0  0
  6 31  1  0  0  0  0
  8  2  1  0  0  0  0
  9  3  1  0  0  0  0
 10  3  1  0  0  0  0
 11  4  1  0  0  0  0
 16  1  1  0  0  0  0
 16 17  1  0  0  0  0
 18 16  1  0  0  0  0
 19 20  1  0  0  0  0
 19 16  1  0  0  0  0
 21 19  1  0  0  0  0
 22 23  1  0  0  0  0
 23 24  2  0  0  0  0
 23 29  1  0  0  0  0
 24 19  1  0  0  0  0
 25 24  1  0  0  0  0
 26 25  2  0  0  0  0
 27 26  1  0  0  0  0
 27 22  2  0  0  0  0
 28 22  1  0  0  0  0
 30 26  1  0  0  0  0
 31 33  1  0  0  0  0
 33 32  2  6  0  0  0
 33 34  1  0  0  0  0
 33 36  1  0  0  0  0
 34 35  1  0  0  0  0
 37 36  1  0  0  0  0
 37 39  1  0  0  0  0
 37 40  1  0  0  0  0
 38 37  1  0  0  0  0
 40 50  1  0  0  0  0
 40 41  1  0  0  0  0
 41 42  1  0  0  0  0
 41 43  2  0  0  0  0
 44 43  1  0  0  0  0
 44 45  1  0  0  0  0
 45 51  1  0  0  0  0
 46 45  2  0  0  0  0
 47 46  1  0  0  0  0
 48 47  1  0  0  0  0
 49 47  2  0  0  0  0
 49 50  1  0  0  0  0
 50 44  2  0  0  0  0
 51 53  1  0  0  0  0
 51 52  1  0  0  0  0
M  END
>  <minimizedAffinity>
-3.99887657

>  <minimizedRMSD>
1.58461797

$$$$
