
 OpenBabel03252501493D

 50 54  0  0  1  0  0  0  0  0999 V2000
   49.2830   34.3460   41.5220 N   0  0  0  0  0  0  0  0  0  0  0  0
   50.3330   34.0300   42.4290 C   0  0  0  0  0  0  0  0  0  0  0  0
   50.9580   32.7230   42.0410 C   0  0  0  0  0  0  0  0  0  0  0  0
   49.9210   32.0950   41.1450 C   0  0  0  0  0  0  0  0  0  0  0  0
   48.8980   33.1410   40.8410 C   0  0  2  0  0  0  0  0  0  0  0  0
   49.9800   34.0690   43.4600 H   0  0  0  0  0  0  0  0  0  0  0  0
   51.1040   34.8420   42.3460 H   0  0  0  0  0  0  0  0  0  0  0  0
   51.0300   32.0990   42.9560 H   0  0  0  0  0  0  0  0  0  0  0  0
   51.9410   32.8380   41.5480 H   0  0  0  0  0  0  0  0  0  0  0  0
   49.5090   31.1580   41.5640 H   0  0  0  0  0  0  0  0  0  0  0  0
   50.4020   31.8140   40.1720 H   0  0  0  0  0  0  0  0  0  0  0  0
   47.9500   32.7840   41.3450 H   0  0  0  0  0  0  0  0  0  0  0  0
   48.5770   33.2940   39.4620 N   0  0  0  0  0  0  0  0  0  0  0  0
   48.3200   34.5070   38.9380 C   0  0  0  0  0  0  0  0  0  0  0  0
   48.3140   35.4740   39.4290 H   0  0  0  0  0  0  0  0  0  0  0  0
   48.0520   34.3450   37.6290 N   0  0  0  0  0  0  0  0  0  0  0  0
   48.1440   33.0330   37.3470 C   0  0  0  0  0  0  0  0  0  0  0  0
   47.9920   32.2460   36.2310 C   0  0  0  0  0  0  0  0  0  0  0  0
   48.1430   30.9160   36.2080 N   0  0  0  0  0  0  0  0  0  0  0  0
   48.4720   30.2930   37.3740 C   0  0  0  0  0  0  0  0  0  0  0  0
   48.6330   29.2330   37.5410 H   0  0  0  0  0  0  0  0  0  0  0  0
   48.6360   31.0210   38.5090 N   0  0  0  0  0  0  0  0  0  0  0  0
   48.4800   32.3390   38.5040 C   0  0  0  0  0  0  0  0  0  0  0  0
   47.6460   32.9290   35.0200 N   0  0  0  0  0  0  0  0  0  0  0  0
   48.5350   33.0900   34.4740 H   0  0  0  0  0  0  0  0  0  0  0  0
   46.8640   33.3290   34.4620 H   0  0  0  0  0  0  0  0  0  0  0  0
   48.1650   34.9290   42.2240 C   0  0  0  0  0  0  0  0  0  0  0  0
   48.0950   34.4970   43.2390 H   0  0  0  0  0  0  0  0  0  0  0  0
   48.2500   36.0430   42.2400 H   0  0  0  0  0  0  0  0  0  0  0  0
   45.7070   34.9640   42.1280 C   0  0  0  0  0  0  0  0  0  0  0  0
   46.8600   34.6680   41.5150 C   0  0  0  0  0  0  0  0  0  0  0  0
   44.1080   33.5700   40.6980 C   0  0  0  0  0  0  0  0  0  0  0  0
   44.4080   34.7200   41.4600 C   0  0  0  0  0  0  0  0  0  0  0  0
   43.4250   35.7150   41.6130 C   0  0  0  0  0  0  0  0  0  0  0  0
   42.2230   35.5110   41.0080 N   0  0  0  0  0  0  0  0  0  0  0  0
   41.9790   34.4060   40.2930 C   0  0  0  0  0  0  0  0  0  0  0  0
   42.9140   33.4660   40.1510 N   0  0  0  0  0  0  0  0  0  0  0  0
   44.9020   32.8470   40.6190 H   0  0  0  0  0  0  0  0  0  0  0  0
   43.6480   36.5970   42.1960 H   0  0  0  0  0  0  0  0  0  0  0  0
   39.7440   33.6020   41.7180 F   0  0  0  0  0  0  0  0  0  0  0  0
   39.5750   33.8420   40.4030 C   0  0  0  0  0  0  0  0  0  0  0  0
   40.6720   34.2440   39.6680 C   0  0  0  0  0  0  0  0  0  0  0  0
   40.5840   34.5130   38.2990 C   0  0  0  0  0  0  0  0  0  0  0  0
   39.3430   34.3610   37.6940 C   0  0  0  0  0  0  0  0  0  0  0  0
   38.2090   33.9500   38.4330 C   0  0  0  0  0  0  0  0  0  0  0  0
   38.3460   33.6960   39.7860 C   0  0  0  0  0  0  0  0  0  0  0  0
   41.4510   34.8260   37.7390 H   0  0  0  0  0  0  0  0  0  0  0  0
   39.2550   34.5640   36.6370 H   0  0  0  0  0  0  0  0  0  0  0  0
   37.2870   33.8590   37.8760 H   0  0  0  0  0  0  0  0  0  0  0  0
   37.4710   33.3810   40.3390 H   0  0  0  0  0  0  0  0  0  0  0  0
  1 27  1  0  0  0  0
  1  2  1  0  0  0  0
  2  6  1  0  0  0  0
  3  2  1  0  0  0  0
  3  8  1  0  0  0  0
  4 10  1  0  0  0  0
  4  3  1  0  0  0  0
  5  4  1  0  0  0  0
  5 12  1  1  0  0  0
  5  1  1  0  0  0  0
  7  2  1  0  0  0  0
  9  3  1  0  0  0  0
 11  4  1  0  0  0  0
 13  5  1  0  0  0  0
 14 15  1  0  0  0  0
 14 13  1  0  0  0  0
 16 14  2  0  0  0  0
 17 16  1  0  0  0  0
 17 23  1  0  0  0  0
 18 17  2  0  0  0  0
 19 18  1  0  0  0  0
 19 20  2  0  0  0  0
 20 21  1  0  0  0  0
 20 22  1  0  0  0  0
 23 22  2  0  0  0  0
 23 13  1  0  0  0  0
 24 18  1  0  0  0  0
 25 24  1  0  0  0  0
 26 24  1  0  0  0  0
 27 29  1  0  0  0  0
 27 28  1  0  0  0  0
 31 30  2  0  0  0  0
 31 27  1  0  0  0  0
 32 33  1  0  0  0  0
 33 34  2  0  0  0  0
 33 30  1  0  0  0  0
 34 39  1  0  0  0  0
 35 34  1  0  0  0  0
 36 35  2  0  0  0  0
 37 36  1  0  0  0  0
 37 32  2  0  0  0  0
 38 32  1  0  0  0  0
 41 40  1  0  0  0  0
 42 36  1  0  0  0  0
 42 41  2  0  0  0  0
 43 42  1  0  0  0  0
 44 43  2  0  0  0  0
 44 45  1  0  0  0  0
 45 46  2  0  0  0  0
 46 50  1  0  0  0  0
 46 41  1  0  0  0  0
 47 43  1  0  0  0  0
 48 44  1  0  0  0  0
 49 45  1  0  0  0  0
M  END
>  <minimizedAffinity>
-7.30679607

>  <minimizedRMSD>
0.0423335694

$$$$
