
 OpenBabel03252503433D

 39 42  0  0  1  0  0  0  0  0999 V2000
   44.9470   35.0600   45.0000 C   0  0  0  0  0  0  0  0  0  0  0  0
   45.2460   34.6130   43.6990 C   0  0  0  0  0  0  0  0  0  0  0  0
   45.7320   33.2990   43.5870 C   0  0  0  0  0  0  0  0  0  0  0  0
   45.8870   32.5460   44.6930 N   0  0  0  0  0  0  0  0  0  0  0  0
   45.5910   33.0080   45.9180 C   0  0  0  0  0  0  0  0  0  0  0  0
   45.1150   34.2740   46.0910 N   0  0  0  0  0  0  0  0  0  0  0  0
   44.5680   36.0420   45.2340 H   0  0  0  0  0  0  0  0  0  0  0  0
   45.9600   32.9620   42.5840 H   0  0  0  0  0  0  0  0  0  0  0  0
   47.2590   32.0390   47.4890 C   0  0  2  0  0  0  0  0  0  0  0  0
   45.7830   32.0980   47.0380 C   0  0  1  0  0  0  0  0  0  0  0  0
   45.1910   32.4770   48.2100 O   0  0  0  0  0  0  0  0  0  0  0  0
   45.7330   31.7170   49.2090 C   0  0  0  0  0  0  0  0  0  0  0  0
   47.0430   31.1450   48.7230 C   0  0  2  0  0  0  0  0  0  0  0  0
   47.8850   31.5620   46.7360 H   0  0  0  0  0  0  0  0  0  0  0  0
   45.5310   31.0330   46.8250 H   0  0  0  0  0  0  0  0  0  0  0  0
   46.0020   32.3980   50.0630 H   0  0  0  0  0  0  0  0  0  0  0  0
   45.0430   30.9710   49.6350 H   0  0  0  0  0  0  0  0  0  0  0  0
   46.9010   30.1030   48.4120 H   0  0  0  0  0  0  0  0  0  0  0  0
   47.6320   33.2590   47.9550 O   0  0  0  0  0  0  0  0  0  0  0  0
   48.4370   33.5540   47.4240 H   0  0  0  0  0  0  0  0  0  0  0  0
   48.0760   31.2280   49.6250 O   0  0  0  0  0  0  0  0  0  0  0  0
   48.7290   30.4870   49.4310 H   0  0  0  0  0  0  0  0  0  0  0  0
   45.0250   35.5460   42.6000 C   0  0  0  0  0  0  0  0  0  0  0  0
   45.9840   35.7460   42.0780 H   0  0  0  0  0  0  0  0  0  0  0  0
   44.7010   36.5190   42.9990 H   0  0  0  0  0  0  0  0  0  0  0  0
   43.9880   35.1230   41.6760 N   0  0  0  0  0  0  0  0  0  0  0  0
   42.6990   35.4890   41.8410 C   0  0  0  0  0  0  0  0  0  0  0  0
   42.2730   36.1090   42.6280 H   0  0  0  0  0  0  0  0  0  0  0  0
   41.9300   34.9690   40.8510 N   0  0  0  0  0  0  0  0  0  0  0  0
   42.7580   34.2510   40.0380 C   0  0  0  0  0  0  0  0  0  0  0  0
   42.6120   33.4910   38.8760 C   0  0  0  0  0  0  0  0  0  0  0  0
   43.6870   32.9070   38.3300 N   0  0  0  0  0  0  0  0  0  0  0  0
   44.9090   33.0400   38.8800 C   0  0  0  0  0  0  0  0  0  0  0  0
   45.6750   32.5150   38.3310 H   0  0  0  0  0  0  0  0  0  0  0  0
   45.1090   33.7600   39.9980 N   0  0  0  0  0  0  0  0  0  0  0  0
   44.0480   34.3580   40.5680 C   0  0  0  0  0  0  0  0  0  0  0  0
   41.2700   33.4370   38.4090 N   0  0  0  0  0  0  0  0  0  0  0  0
   40.4740   33.2130   39.0620 H   0  0  0  0  0  0  0  0  0  0  0  0
   41.0540   33.6210   37.4040 H   0  0  0  0  0  0  0  0  0  0  0  0
  1  7  1  0  0  0  0
  1  6  1  0  0  0  0
  2  1  2  0  0  0  0
  3  2  1  0  0  0  0
  3  4  2  0  0  0  0
  4  5  1  0  0  0  0
  5  6  2  0  0  0  0
  5 10  1  0  0  0  0
  8  3  1  0  0  0  0
  9 14  1  6  0  0  0
  9 19  1  0  0  0  0
  9 13  1  0  0  0  0
 10 15  1  6  0  0  0
 10  9  1  0  0  0  0
 10 11  1  0  0  0  0
 11 12  1  0  0  0  0
 12 17  1  0  0  0  0
 12 16  1  0  0  0  0
 13 18  1  6  0  0  0
 13 12  1  0  0  0  0
 13 21  1  0  0  0  0
 20 19  1  0  0  0  0
 22 21  1  0  0  0  0
 23 25  1  0  0  0  0
 23  2  1  0  0  0  0
 24 23  1  0  0  0  0
 26 27  1  0  0  0  0
 26 23  1  0  0  0  0
 27 28  1  0  0  0  0
 29 27  2  0  0  0  0
 30 36  1  0  0  0  0
 30 29  1  0  0  0  0
 31 30  2  0  0  0  0
 32 31  1  0  0  0  0
 32 33  2  0  0  0  0
 33 35  1  0  0  0  0
 34 33  1  0  0  0  0
 35 36  2  0  0  0  0
 36 26  1  0  0  0  0
 37 31  1  0  0  0  0
 37 38  1  0  0  0  0
 39 37  1  0  0  0  0
M  END
>  <minimizedAffinity>
-6.4533391

>  <minimizedRMSD>
1.86099088

$$$$
