
 OpenBabel03252504093D

 30 32  0  0  0  0  0  0  0  0999 V2000
   46.9470   33.9870   43.0810 C   0  0  0  0  0  0  0  0  0  0  0  0
   45.6170   33.7980   42.6980 C   0  0  0  0  0  0  0  0  0  0  0  0
   44.9240   32.7030   43.2210 C   0  0  0  0  0  0  0  0  0  0  0  0
   45.5730   31.8760   44.0760 N   0  0  0  0  0  0  0  0  0  0  0  0
   46.8650   32.0920   44.4250 C   0  0  0  0  0  0  0  0  0  0  0  0
   47.5590   33.1420   43.9340 N   0  0  0  0  0  0  0  0  0  0  0  0
   43.8940   32.5420   42.9340 H   0  0  0  0  0  0  0  0  0  0  0  0
   47.4060   31.1370   45.3300 N   0  0  0  0  0  0  0  0  0  0  0  0
   47.8730   29.9260   44.9090 C   0  0  0  0  0  0  0  0  0  0  0  0
   47.8930   29.5560   43.8950 H   0  0  0  0  0  0  0  0  0  0  0  0
   48.3310   29.2010   45.9410 N   0  0  0  0  0  0  0  0  0  0  0  0
   48.1640   29.9410   47.0520 C   0  0  0  0  0  0  0  0  0  0  0  0
   48.4460   29.7200   48.3890 C   0  0  0  0  0  0  0  0  0  0  0  0
   48.1440   30.6990   49.2830 N   0  0  0  0  0  0  0  0  0  0  0  0
   47.5790   31.8620   48.8530 C   0  0  0  0  0  0  0  0  0  0  0  0
   47.3880   32.5580   49.6570 H   0  0  0  0  0  0  0  0  0  0  0  0
   47.2890   32.1090   47.5410 N   0  0  0  0  0  0  0  0  0  0  0  0
   47.5910   31.1350   46.6640 C   0  0  0  0  0  0  0  0  0  0  0  0
   44.9860   34.7640   41.7500 C   0  0  0  0  0  0  0  0  0  0  0  0
   45.0930   36.0530   42.2590 F   0  0  0  0  0  0  0  0  0  0  0  0
   45.7150   34.7450   40.5740 F   0  0  0  0  0  0  0  0  0  0  0  0
   43.6760   34.5390   41.4980 F   0  0  0  0  0  0  0  0  0  0  0  0
   49.0330   28.4710   48.7190 N   0  0  0  0  0  0  0  0  0  0  0  0
   50.0780   28.6100   48.8510 H   0  0  0  0  0  0  0  0  0  0  0  0
   48.6230   27.5200   48.8400 H   0  0  0  0  0  0  0  0  0  0  0  0
   47.6050   35.0440   42.5710 O   0  0  0  0  0  0  0  0  0  0  0  0
   48.8430   35.0640   41.9110 C   0  0  0  0  0  0  0  0  0  0  0  0
   49.8180   35.2230   42.9110 F   0  0  0  0  0  0  0  0  0  0  0  0
   49.0050   33.9040   41.1930 F   0  0  0  0  0  0  0  0  0  0  0  0
   48.9500   36.1890   41.1160 F   0  0  0  0  0  0  0  0  0  0  0  0
  1  6  1  0  0  0  0
  2  1  2  0  0  0  0
  2  3  1  0  0  0  0
  3  4  2  0  0  0  0
  4  5  1  0  0  0  0
  5  8  1  0  0  0  0
  6  5  2  0  0  0  0
  7  3  1  0  0  0  0
  8 18  1  0  0  0  0
  9  8  1  0  0  0  0
  9 11  2  0  0  0  0
 10  9  1  0  0  0  0
 11 12  1  0  0  0  0
 12 13  1  0  0  0  0
 13 23  1  0  0  0  0
 13 14  2  0  0  0  0
 15 14  1  0  0  0  0
 15 16  1  0  0  0  0
 17 15  2  0  0  0  0
 18 12  2  0  0  0  0
 18 17  1  0  0  0  0
 19 20  1  0  0  0  0
 19  2  1  0  0  0  0
 21 19  1  0  0  0  0
 22 19  1  0  0  0  0
 23 25  1  0  0  0  0
 23 24  1  0  0  0  0
 26  1  1  0  0  0  0
 27 26  1  0  0  0  0
 27 28  1  0  0  0  0
 29 27  1  0  0  0  0
 30 27  1  0  0  0  0
M  END
>  <minimizedAffinity>
-6.02134323

>  <minimizedRMSD>
1.44099355

$$$$
