
 OpenBabel03252508563D

 29 31  0  0  0  0  0  0  0  0999 V2000
   47.7740   35.0850   41.8650 C   0  0  0  0  0  0  0  0  0  0  0  0
   48.1110   36.0950   41.6110 H   0  0  0  0  0  0  0  0  0  0  0  0
   48.1380   34.7120   42.8450 H   0  0  0  0  0  0  0  0  0  0  0  0
   48.2980   34.1030   40.9050 N   0  0  0  0  0  0  0  0  0  0  0  0
   47.9370   33.8730   39.6180 C   0  0  0  0  0  0  0  0  0  0  0  0
   47.1450   34.4530   39.1310 H   0  0  0  0  0  0  0  0  0  0  0  0
   48.6890   32.8730   39.1200 N   0  0  0  0  0  0  0  0  0  0  0  0
   49.5030   32.5000   40.1000 C   0  0  0  0  0  0  0  0  0  0  0  0
   50.4660   31.5220   40.1090 C   0  0  0  0  0  0  0  0  0  0  0  0
   51.1870   31.3190   41.2490 N   0  0  0  0  0  0  0  0  0  0  0  0
   50.9380   32.0850   42.3500 C   0  0  0  0  0  0  0  0  0  0  0  0
   51.5090   31.9320   43.2700 H   0  0  0  0  0  0  0  0  0  0  0  0
   49.9920   33.0460   42.3430 N   0  0  0  0  0  0  0  0  0  0  0  0
   49.2890   33.2480   41.2380 C   0  0  0  0  0  0  0  0  0  0  0  0
   50.7820   30.6840   39.0000 N   0  0  0  0  0  0  0  0  0  0  0  0
   51.7500   30.4310   38.7030 H   0  0  0  0  0  0  0  0  0  0  0  0
   50.0920   30.2210   38.3500 H   0  0  0  0  0  0  0  0  0  0  0  0
   46.2540   34.9550   41.8220 C   0  0  0  0  0  0  0  0  0  0  0  0
   46.0110   34.0030   41.3170 H   0  0  0  0  0  0  0  0  0  0  0  0
   45.8000   35.7940   41.2680 H   0  0  0  0  0  0  0  0  0  0  0  0
   44.4540   35.9640   44.9610 C   0  0  0  0  0  0  0  0  0  0  0  0
   44.9320   35.9960   43.6390 C   0  0  0  0  0  0  0  0  0  0  0  0
   45.7340   34.9490   43.2120 C   0  0  0  0  0  0  0  0  0  0  0  0
   46.0110   33.9570   44.0890 N   0  0  0  0  0  0  0  0  0  0  0  0
   45.5430   33.9410   45.3570 C   0  0  0  0  0  0  0  0  0  0  0  0
   44.7650   34.9430   45.7930 N   0  0  0  0  0  0  0  0  0  0  0  0
   43.8390   36.8210   45.2030 H   0  0  0  0  0  0  0  0  0  0  0  0
   44.7040   36.7960   42.9460 H   0  0  0  0  0  0  0  0  0  0  0  0
   45.8070   33.1140   46.0010 H   0  0  0  0  0  0  0  0  0  0  0  0
  1  3  1  0  0  0  0
  2  1  1  0  0  0  0
  4 14  1  0  0  0  0
  4  1  1  0  0  0  0
  5  4  1  0  0  0  0
  6  5  1  0  0  0  0
  7  5  2  0  0  0  0
  7  8  1  0  0  0  0
  8  9  2  0  0  0  0
  8 14  1  0  0  0  0
  9 10  1  0  0  0  0
 10 11  2  0  0  0  0
 11 12  1  0  0  0  0
 13 11  1  0  0  0  0
 14 13  2  0  0  0  0
 15  9  1  0  0  0  0
 16 15  1  0  0  0  0
 17 15  1  0  0  0  0
 18  1  1  0  0  0  0
 18 23  1  0  0  0  0
 19 18  1  0  0  0  0
 20 18  1  0  0  0  0
 21 27  1  0  0  0  0
 21 26  1  0  0  0  0
 22 21  2  0  0  0  0
 23 22  1  0  0  0  0
 23 24  2  0  0  0  0
 24 25  1  0  0  0  0
 25 26  2  0  0  0  0
 25 29  1  0  0  0  0
 28 22  1  0  0  0  0
M  END
>  <minimizedAffinity>
-4.50890017

>  <minimizedRMSD>
1.72715092

$$$$
