
 OpenBabel03252508573D

 29 31  0  0  0  0  0  0  0  0999 V2000
   38.9350   29.3450   42.6340 C   0  0  0  0  0  0  0  0  0  0  0  0
   39.5540   29.8810   43.3600 H   0  0  0  0  0  0  0  0  0  0  0  0
   39.5080   28.7670   41.8800 H   0  0  0  0  0  0  0  0  0  0  0  0
   38.1480   30.2860   41.8240 N   0  0  0  0  0  0  0  0  0  0  0  0
   36.8350   30.2470   41.4820 C   0  0  0  0  0  0  0  0  0  0  0  0
   36.1800   29.4330   41.8100 H   0  0  0  0  0  0  0  0  0  0  0  0
   36.5440   31.3220   40.7250 N   0  0  0  0  0  0  0  0  0  0  0  0
   37.6740   32.0090   40.6090 C   0  0  0  0  0  0  0  0  0  0  0  0
   37.9160   33.1830   39.9400 C   0  0  0  0  0  0  0  0  0  0  0  0
   39.1760   33.7050   39.9640 N   0  0  0  0  0  0  0  0  0  0  0  0
   40.1630   33.0570   40.6460 C   0  0  0  0  0  0  0  0  0  0  0  0
   41.1770   33.4650   40.6720 H   0  0  0  0  0  0  0  0  0  0  0  0
   39.9270   31.9050   41.3030 N   0  0  0  0  0  0  0  0  0  0  0  0
   38.7050   31.3910   41.2850 C   0  0  0  0  0  0  0  0  0  0  0  0
   36.9370   33.9150   39.2070 N   0  0  0  0  0  0  0  0  0  0  0  0
   36.8320   34.9520   39.2310 H   0  0  0  0  0  0  0  0  0  0  0  0
   36.2090   33.5110   38.5600 H   0  0  0  0  0  0  0  0  0  0  0  0
   37.9280   28.4150   43.3060 C   0  0  0  0  0  0  0  0  0  0  0  0
   36.9460   28.5780   42.8260 H   0  0  0  0  0  0  0  0  0  0  0  0
   37.8530   28.6270   44.3860 H   0  0  0  0  0  0  0  0  0  0  0  0
   39.9580   25.2590   43.4810 C   0  0  0  0  0  0  0  0  0  0  0  0
   39.5650   26.5950   43.6800 C   0  0  0  0  0  0  0  0  0  0  0  0
   38.3700   27.0120   43.1140 C   0  0  0  0  0  0  0  0  0  0  0  0
   37.6500   26.1120   42.4040 N   0  0  0  0  0  0  0  0  0  0  0  0
   38.0420   24.8320   42.2240 C   0  0  0  0  0  0  0  0  0  0  0  0
   39.1950   24.4050   42.7610 N   0  0  0  0  0  0  0  0  0  0  0  0
   40.9010   25.0270   43.9580 H   0  0  0  0  0  0  0  0  0  0  0  0
   40.1490   27.3060   44.2490 H   0  0  0  0  0  0  0  0  0  0  0  0
   37.4130   24.1690   41.6440 H   0  0  0  0  0  0  0  0  0  0  0  0
  1 18  1  0  0  0  0
  1  2  1  0  0  0  0
  3  1  1  0  0  0  0
  4  1  1  0  0  0  0
  5  6  1  0  0  0  0
  5  4  1  0  0  0  0
  7  5  2  0  0  0  0
  8  7  1  0  0  0  0
  8 14  1  0  0  0  0
  9 10  1  0  0  0  0
  9  8  2  0  0  0  0
 10 11  2  0  0  0  0
 11 12  1  0  0  0  0
 11 13  1  0  0  0  0
 14 13  2  0  0  0  0
 14  4  1  0  0  0  0
 15 16  1  0  0  0  0
 15  9  1  0  0  0  0
 17 15  1  0  0  0  0
 18 20  1  0  0  0  0
 19 18  1  0  0  0  0
 21 22  1  0  0  0  0
 21 27  1  0  0  0  0
 22 28  1  0  0  0  0
 23 18  1  0  0  0  0
 23 22  2  0  0  0  0
 24 23  1  0  0  0  0
 25 24  2  0  0  0  0
 25 26  1  0  0  0  0
 26 21  2  0  0  0  0
 29 25  1  0  0  0  0
M  END
>  <minimizedAffinity>
-5.4374423

$$$$

 OpenBabel03252508573D

 29 31  0  0  0  0  0  0  0  0999 V2000
   35.8310   30.4250   40.6830 C   0  0  0  0  0  0  0  0  0  0  0  0
   34.8680   30.9370   40.5950 H   0  0  0  0  0  0  0  0  0  0  0  0
   36.4460   30.7490   41.5480 H   0  0  0  0  0  0  0  0  0  0  0  0
   36.6850   30.7170   39.5220 N   0  0  0  0  0  0  0  0  0  0  0  0
   36.5310   30.3570   38.2230 C   0  0  0  0  0  0  0  0  0  0  0  0
   35.6760   29.7590   37.8890 H   0  0  0  0  0  0  0  0  0  0  0  0
   37.5600   30.8460   37.5050 N   0  0  0  0  0  0  0  0  0  0  0  0
   38.3320   31.5000   38.3640 C   0  0  0  0  0  0  0  0  0  0  0  0
   39.5030   32.1800   38.1420 C   0  0  0  0  0  0  0  0  0  0  0  0
   40.1260   32.7800   39.1970 N   0  0  0  0  0  0  0  0  0  0  0  0
   39.5770   32.6940   40.4420 C   0  0  0  0  0  0  0  0  0  0  0  0
   40.0660   33.1710   41.2960 H   0  0  0  0  0  0  0  0  0  0  0  0
   38.4280   32.0280   40.6620 N   0  0  0  0  0  0  0  0  0  0  0  0
   37.8160   31.4410   39.6420 C   0  0  0  0  0  0  0  0  0  0  0  0
   40.1350   32.3110   36.8710 N   0  0  0  0  0  0  0  0  0  0  0  0
   40.5590   33.1930   36.5080 H   0  0  0  0  0  0  0  0  0  0  0  0
   40.2540   31.5520   36.1500 H   0  0  0  0  0  0  0  0  0  0  0  0
   35.6780   28.9070   40.7290 C   0  0  0  0  0  0  0  0  0  0  0  0
   35.8520   28.5190   39.7100 H   0  0  0  0  0  0  0  0  0  0  0  0
   34.6670   28.6210   41.0680 H   0  0  0  0  0  0  0  0  0  0  0  0
   37.9470   26.5060   42.5180 C   0  0  0  0  0  0  0  0  0  0  0  0
   36.9910   27.0020   41.6140 C   0  0  0  0  0  0  0  0  0  0  0  0
   36.6820   28.3530   41.6710 C   0  0  0  0  0  0  0  0  0  0  0  0
   37.3170   29.1160   42.5910 N   0  0  0  0  0  0  0  0  0  0  0  0
   38.2340   28.6240   43.4520 C   0  0  0  0  0  0  0  0  0  0  0  0
   38.5490   27.3200   43.4170 N   0  0  0  0  0  0  0  0  0  0  0  0
   38.1220   25.4450   42.4000 H   0  0  0  0  0  0  0  0  0  0  0  0
   36.4900   26.3820   40.8830 H   0  0  0  0  0  0  0  0  0  0  0  0
   38.7000   29.2950   44.1600 H   0  0  0  0  0  0  0  0  0  0  0  0
  1 18  1  0  0  0  0
  1  3  1  0  0  0  0
  2  1  1  0  0  0  0
  4 14  1  0  0  0  0
  4  1  1  0  0  0  0
  5  4  1  0  0  0  0
  6  5  1  0  0  0  0
  7  5  2  0  0  0  0
  7  8  1  0  0  0  0
  8 14  1  0  0  0  0
  9  8  2  0  0  0  0
  9 10  1  0  0  0  0
 10 11  2  0  0  0  0
 11 13  1  0  0  0  0
 11 12  1  0  0  0  0
 14 13  2  0  0  0  0
 15  9  1  0  0  0  0
 16 15  1  0  0  0  0
 17 15  1  0  0  0  0
 18 20  1  0  0  0  0
 18 23  1  0  0  0  0
 19 18  1  0  0  0  0
 21 26  1  0  0  0  0
 22 23  1  0  0  0  0
 22 21  2  0  0  0  0
 23 24  2  0  0  0  0
 24 25  1  0  0  0  0
 25 29  1  0  0  0  0
 26 25  2  0  0  0  0
 27 21  1  0  0  0  0
 28 22  1  0  0  0  0
M  END
>  <minimizedAffinity>
-5.17073822

$$$$

 OpenBabel03252508573D

 29 31  0  0  0  0  0  0  0  0999 V2000
   36.1860   30.6490   40.9850 C   0  0  0  0  0  0  0  0  0  0  0  0
   35.3540   31.3540   41.0870 H   0  0  0  0  0  0  0  0  0  0  0  0
   36.9440   30.7150   41.7930 H   0  0  0  0  0  0  0  0  0  0  0  0
   36.9560   30.9260   39.7640 N   0  0  0  0  0  0  0  0  0  0  0  0
   36.6680   30.6220   38.4720 C   0  0  0  0  0  0  0  0  0  0  0  0
   35.7500   30.0920   38.1970 H   0  0  0  0  0  0  0  0  0  0  0  0
   37.6630   31.0690   37.6820 N   0  0  0  0  0  0  0  0  0  0  0  0
   38.5480   31.6410   38.4900 C   0  0  0  0  0  0  0  0  0  0  0  0
   39.7390   32.2510   38.1870 C   0  0  0  0  0  0  0  0  0  0  0  0
   40.4870   32.7720   39.2010 N   0  0  0  0  0  0  0  0  0  0  0  0
   40.0420   32.6790   40.4860 C   0  0  0  0  0  0  0  0  0  0  0  0
   40.6330   33.0940   41.3070 H   0  0  0  0  0  0  0  0  0  0  0  0
   38.8730   32.0810   40.7850 N   0  0  0  0  0  0  0  0  0  0  0  0
   38.1390   31.5710   39.8060 C   0  0  0  0  0  0  0  0  0  0  0  0
   40.2680   32.3850   36.8700 N   0  0  0  0  0  0  0  0  0  0  0  0
   40.7180   33.2500   36.4980 H   0  0  0  0  0  0  0  0  0  0  0  0
   40.2740   31.6450   36.1200 H   0  0  0  0  0  0  0  0  0  0  0  0
   35.7090   29.2040   40.8720 C   0  0  0  0  0  0  0  0  0  0  0  0
   35.7050   28.9330   39.8010 H   0  0  0  0  0  0  0  0  0  0  0  0
   34.6940   29.0880   41.2880 H   0  0  0  0  0  0  0  0  0  0  0  0
   38.1820   27.9880   43.4240 C   0  0  0  0  0  0  0  0  0  0  0  0
   37.3010   28.8380   42.7340 C   0  0  0  0  0  0  0  0  0  0  0  0
   36.6460   28.3310   41.6220 C   0  0  0  0  0  0  0  0  0  0  0  0
   36.8920   27.0490   41.2650 N   0  0  0  0  0  0  0  0  0  0  0  0
   37.7420   26.2450   41.9400 C   0  0  0  0  0  0  0  0  0  0  0  0
   38.3870   26.7130   43.0190 N   0  0  0  0  0  0  0  0  0  0  0  0
   38.6460   28.4700   44.2750 H   0  0  0  0  0  0  0  0  0  0  0  0
   37.1130   29.8620   43.0290 H   0  0  0  0  0  0  0  0  0  0  0  0
   37.8870   25.2310   41.5950 H   0  0  0  0  0  0  0  0  0  0  0  0
  1  2  1  0  0  0  0
  1  3  1  0  0  0  0
  4 14  1  0  0  0  0
  4  1  1  0  0  0  0
  5  4  1  0  0  0  0
  6  5  1  0  0  0  0
  7  5  2  0  0  0  0
  7  8  1  0  0  0  0
  8 14  1  0  0  0  0
  9  8  2  0  0  0  0
  9 10  1  0  0  0  0
 10 11  2  0  0  0  0
 11 13  1  0  0  0  0
 11 12  1  0  0  0  0
 14 13  2  0  0  0  0
 15  9  1  0  0  0  0
 16 15  1  0  0  0  0
 17 15  1  0  0  0  0
 18  1  1  0  0  0  0
 18 20  1  0  0  0  0
 18 23  1  0  0  0  0
 19 18  1  0  0  0  0
 21 27  1  0  0  0  0
 22 28  1  0  0  0  0
 22 21  2  0  0  0  0
 23 22  1  0  0  0  0
 24 23  2  0  0  0  0
 24 25  1  0  0  0  0
 25 26  2  0  0  0  0
 26 21  1  0  0  0  0
 29 25  1  0  0  0  0
M  END
>  <minimizedAffinity>
-5.10349417

$$$$

 OpenBabel03252508573D

 29 31  0  0  0  0  0  0  0  0999 V2000
   38.0010   27.8830   42.7280 C   0  0  0  0  0  0  0  0  0  0  0  0
   38.2340   28.1920   43.7530 H   0  0  0  0  0  0  0  0  0  0  0  0
   38.8870   27.5980   42.1230 H   0  0  0  0  0  0  0  0  0  0  0  0
   37.4070   28.9940   41.9710 N   0  0  0  0  0  0  0  0  0  0  0  0
   36.1760   29.0970   41.4080 C   0  0  0  0  0  0  0  0  0  0  0  0
   35.4450   28.2840   41.4730 H   0  0  0  0  0  0  0  0  0  0  0  0
   36.0630   30.2980   40.8100 N   0  0  0  0  0  0  0  0  0  0  0  0
   37.2190   30.9200   41.0100 C   0  0  0  0  0  0  0  0  0  0  0  0
   37.6180   32.1700   40.6060 C   0  0  0  0  0  0  0  0  0  0  0  0
   38.8710   32.5980   40.9350 N   0  0  0  0  0  0  0  0  0  0  0  0
   39.6960   31.7840   41.6540 C   0  0  0  0  0  0  0  0  0  0  0  0
   40.7020   32.1160   41.9240 H   0  0  0  0  0  0  0  0  0  0  0  0
   39.3050   30.5580   42.0510 N   0  0  0  0  0  0  0  0  0  0  0  0
   38.0890   30.1340   41.7360 C   0  0  0  0  0  0  0  0  0  0  0  0
   36.8130   33.0740   39.8540 N   0  0  0  0  0  0  0  0  0  0  0  0
   36.7420   34.0980   40.0390 H   0  0  0  0  0  0  0  0  0  0  0  0
   36.2000   32.8300   39.0320 H   0  0  0  0  0  0  0  0  0  0  0  0
   36.9860   26.7440   42.6830 C   0  0  0  0  0  0  0  0  0  0  0  0
   36.0960   27.1070   42.1400 H   0  0  0  0  0  0  0  0  0  0  0  0
   36.6980   26.4310   43.7010 H   0  0  0  0  0  0  0  0  0  0  0  0
   37.3860   23.4540   40.9150 C   0  0  0  0  0  0  0  0  0  0  0  0
   36.7840   24.5320   41.5880 C   0  0  0  0  0  0  0  0  0  0  0  0
   37.5920   25.5920   41.9710 C   0  0  0  0  0  0  0  0  0  0  0  0
   38.9110   25.5290   41.6760 N   0  0  0  0  0  0  0  0  0  0  0  0
   39.4740   24.4860   41.0280 C   0  0  0  0  0  0  0  0  0  0  0  0
   38.7120   23.4480   40.6480 N   0  0  0  0  0  0  0  0  0  0  0  0
   36.6790   22.6770   40.6570 H   0  0  0  0  0  0  0  0  0  0  0  0
   35.7280   24.5700   41.8190 H   0  0  0  0  0  0  0  0  0  0  0  0
   40.5360   24.5060   40.8270 H   0  0  0  0  0  0  0  0  0  0  0  0
  1  2  1  0  0  0  0
  3  1  1  0  0  0  0
  4  1  1  0  0  0  0
  5  6  1  0  0  0  0
  5  4  1  0  0  0  0
  7  8  1  0  0  0  0
  7  5  2  0  0  0  0
  8 14  1  0  0  0  0
  9 10  1  0  0  0  0
  9  8  2  0  0  0  0
 10 11  2  0  0  0  0
 11 12  1  0  0  0  0
 11 13  1  0  0  0  0
 14  4  1  0  0  0  0
 14 13  2  0  0  0  0
 15 16  1  0  0  0  0
 15  9  1  0  0  0  0
 17 15  1  0  0  0  0
 18  1  1  0  0  0  0
 18 20  1  0  0  0  0
 19 18  1  0  0  0  0
 21 22  1  0  0  0  0
 22 28  1  0  0  0  0
 22 23  2  0  0  0  0
 23 18  1  0  0  0  0
 24 23  1  0  0  0  0
 25 24  2  0  0  0  0
 26 21  2  0  0  0  0
 26 25  1  0  0  0  0
 27 21  1  0  0  0  0
 29 25  1  0  0  0  0
M  END
>  <minimizedAffinity>
-5.0705657

$$$$

 OpenBabel03252508573D

 29 31  0  0  0  0  0  0  0  0999 V2000
   37.6160   29.4240   42.0190 C   0  0  0  0  0  0  0  0  0  0  0  0
   38.1740   29.9800   42.7790 H   0  0  0  0  0  0  0  0  0  0  0  0
   36.5150   29.5570   42.0700 H   0  0  0  0  0  0  0  0  0  0  0  0
   37.7980   27.9760   42.1940 N   0  0  0  0  0  0  0  0  0  0  0  0
   36.9570   26.9550   41.8910 C   0  0  0  0  0  0  0  0  0  0  0  0
   35.9710   27.1340   41.4480 H   0  0  0  0  0  0  0  0  0  0  0  0
   37.5410   25.7880   42.2240 N   0  0  0  0  0  0  0  0  0  0  0  0
   38.7300   26.1000   42.7250 C   0  0  0  0  0  0  0  0  0  0  0  0
   39.7160   25.2770   43.2100 C   0  0  0  0  0  0  0  0  0  0  0  0
   40.8680   25.8370   43.6790 N   0  0  0  0  0  0  0  0  0  0  0  0
   41.0190   27.1920   43.6560 C   0  0  0  0  0  0  0  0  0  0  0  0
   41.9370   27.6520   44.0290 H   0  0  0  0  0  0  0  0  0  0  0  0
   40.0530   28.0010   43.1800 N   0  0  0  0  0  0  0  0  0  0  0  0
   38.9290   27.4650   42.7230 C   0  0  0  0  0  0  0  0  0  0  0  0
   39.6300   23.8560   43.2650 N   0  0  0  0  0  0  0  0  0  0  0  0
   40.4050   23.2050   43.0120 H   0  0  0  0  0  0  0  0  0  0  0  0
   38.7910   23.2910   43.5640 H   0  0  0  0  0  0  0  0  0  0  0  0
   38.0860   29.7460   40.6040 C   0  0  0  0  0  0  0  0  0  0  0  0
   37.3800   29.2750   39.8980 H   0  0  0  0  0  0  0  0  0  0  0  0
   39.1030   29.3570   40.4260 H   0  0  0  0  0  0  0  0  0  0  0  0
   37.1520   33.2030   39.4660 C   0  0  0  0  0  0  0  0  0  0  0  0
   37.1250   31.8050   39.6170 C   0  0  0  0  0  0  0  0  0  0  0  0
   38.0890   31.2190   40.4240 C   0  0  0  0  0  0  0  0  0  0  0  0
   38.9990   32.0240   41.0200 N   0  0  0  0  0  0  0  0  0  0  0  0
   39.0110   33.3660   40.8640 C   0  0  0  0  0  0  0  0  0  0  0  0
   38.0890   33.9560   40.0880 N   0  0  0  0  0  0  0  0  0  0  0  0
   36.3650   33.5680   38.8210 H   0  0  0  0  0  0  0  0  0  0  0  0
   36.3920   31.1720   39.1360 H   0  0  0  0  0  0  0  0  0  0  0  0
   39.7700   33.9450   41.3720 H   0  0  0  0  0  0  0  0  0  0  0  0
  1  3  1  0  0  0  0
  1  4  1  0  0  0  0
  1  2  1  0  0  0  0
  4 14  1  0  0  0  0
  5  4  1  0  0  0  0
  5  7  2  0  0  0  0
  6  5  1  0  0  0  0
  7  8  1  0  0  0  0
  8  9  1  0  0  0  0
  9 15  1  0  0  0  0
  9 10  2  0  0  0  0
 11 10  1  0  0  0  0
 11 12  1  0  0  0  0
 13 11  2  0  0  0  0
 14  8  2  0  0  0  0
 14 13  1  0  0  0  0
 15 17  1  0  0  0  0
 16 15  1  0  0  0  0
 18  1  1  0  0  0  0
 19 18  1  0  0  0  0
 20 18  1  0  0  0  0
 21 22  2  0  0  0  0
 21 26  1  0  0  0  0
 22 23  1  0  0  0  0
 23 18  1  0  0  0  0
 23 24  2  0  0  0  0
 25 24  1  0  0  0  0
 25 29  1  0  0  0  0
 26 25  2  0  0  0  0
 27 21  1  0  0  0  0
 28 22  1  0  0  0  0
M  END
>  <minimizedAffinity>
-4.9078722

$$$$

 OpenBabel03252508573D

 29 31  0  0  0  0  0  0  0  0999 V2000
   38.4090   27.2610   43.3410 C   0  0  0  0  0  0  0  0  0  0  0  0
   37.4240   26.7850   43.3410 H   0  0  0  0  0  0  0  0  0  0  0  0
   38.8350   27.4360   44.3510 H   0  0  0  0  0  0  0  0  0  0  0  0
   38.3380   28.6080   42.7570 N   0  0  0  0  0  0  0  0  0  0  0  0
   39.2010   29.6490   42.8740 C   0  0  0  0  0  0  0  0  0  0  0  0
   40.1160   29.5730   43.4710 H   0  0  0  0  0  0  0  0  0  0  0  0
   38.7310   30.6940   42.1650 N   0  0  0  0  0  0  0  0  0  0  0  0
   37.5900   30.2880   41.6220 C   0  0  0  0  0  0  0  0  0  0  0  0
   36.7200   30.9700   40.8100 C   0  0  0  0  0  0  0  0  0  0  0  0
   35.5960   30.3350   40.3690 N   0  0  0  0  0  0  0  0  0  0  0  0
   35.3600   29.0440   40.7400 C   0  0  0  0  0  0  0  0  0  0  0  0
   34.4640   28.5240   40.3930 H   0  0  0  0  0  0  0  0  0  0  0  0
   36.2140   28.3730   41.5370 N   0  0  0  0  0  0  0  0  0  0  0  0
   37.3080   28.9830   41.9700 C   0  0  0  0  0  0  0  0  0  0  0  0
   36.8980   32.3180   40.3810 N   0  0  0  0  0  0  0  0  0  0  0  0
   36.7200   32.6610   39.4120 H   0  0  0  0  0  0  0  0  0  0  0  0
   37.2260   33.1250   40.9750 H   0  0  0  0  0  0  0  0  0  0  0  0
   39.4260   26.4870   42.5060 C   0  0  0  0  0  0  0  0  0  0  0  0
   40.1990   26.0970   43.1910 H   0  0  0  0  0  0  0  0  0  0  0  0
   39.8960   27.1390   41.7500 H   0  0  0  0  0  0  0  0  0  0  0  0
   36.7520   24.0880   41.4070 C   0  0  0  0  0  0  0  0  0  0  0  0
   37.3840   25.1540   42.0700 C   0  0  0  0  0  0  0  0  0  0  0  0
   38.7310   25.3690   41.8210 C   0  0  0  0  0  0  0  0  0  0  0  0
   39.3600   24.5420   40.9540 N   0  0  0  0  0  0  0  0  0  0  0  0
   38.7380   23.5220   40.3240 C   0  0  0  0  0  0  0  0  0  0  0  0
   37.4350   23.2940   40.5500 N   0  0  0  0  0  0  0  0  0  0  0  0
   35.7050   23.9990   41.6640 H   0  0  0  0  0  0  0  0  0  0  0  0
   36.8710   25.8090   42.7620 H   0  0  0  0  0  0  0  0  0  0  0  0
   39.3060   22.9030   39.6440 H   0  0  0  0  0  0  0  0  0  0  0  0
  1  2  1  0  0  0  0
  1  3  1  0  0  0  0
  4  5  1  0  0  0  0
  4  1  1  0  0  0  0
  5  6  1  0  0  0  0
  7  5  2  0  0  0  0
  8 14  1  0  0  0  0
  8  7  1  0  0  0  0
  9  8  2  0  0  0  0
 10 11  2  0  0  0  0
 10  9  1  0  0  0  0
 11 13  1  0  0  0  0
 12 11  1  0  0  0  0
 13 14  2  0  0  0  0
 14  4  1  0  0  0  0
 15  9  1  0  0  0  0
 15 17  1  0  0  0  0
 16 15  1  0  0  0  0
 18 19  1  0  0  0  0
 18  1  1  0  0  0  0
 20 18  1  0  0  0  0
 21 27  1  0  0  0  0
 21 22  1  0  0  0  0
 22 28  1  0  0  0  0
 23 22  2  0  0  0  0
 23 18  1  0  0  0  0
 24 23  1  0  0  0  0
 25 26  1  0  0  0  0
 25 24  2  0  0  0  0
 26 21  2  0  0  0  0
 29 25  1  0  0  0  0
M  END
>  <minimizedAffinity>
-4.88063002

$$$$

 OpenBabel03252508573D

 29 31  0  0  0  0  0  0  0  0999 V2000
   37.4680   29.7610   42.0030 C   0  0  0  0  0  0  0  0  0  0  0  0
   36.9150   28.9240   41.5660 H   0  0  0  0  0  0  0  0  0  0  0  0
   36.8290   30.5440   42.4620 H   0  0  0  0  0  0  0  0  0  0  0  0
   38.2170   30.4890   40.9680 N   0  0  0  0  0  0  0  0  0  0  0  0
   39.3540   31.2230   41.0760 C   0  0  0  0  0  0  0  0  0  0  0  0
   39.8650   31.3520   42.0370 H   0  0  0  0  0  0  0  0  0  0  0  0
   39.6820   31.7090   39.8640 N   0  0  0  0  0  0  0  0  0  0  0  0
   38.7510   31.2720   39.0260 C   0  0  0  0  0  0  0  0  0  0  0  0
   38.6230   31.4840   37.6760 C   0  0  0  0  0  0  0  0  0  0  0  0
   37.5670   30.9240   37.0190 N   0  0  0  0  0  0  0  0  0  0  0  0
   36.6650   30.1710   37.7100 C   0  0  0  0  0  0  0  0  0  0  0  0
   35.8140   29.7170   37.1950 H   0  0  0  0  0  0  0  0  0  0  0  0
   36.7890   29.9610   39.0350 N   0  0  0  0  0  0  0  0  0  0  0  0
   37.8120   30.5020   39.6810 C   0  0  0  0  0  0  0  0  0  0  0  0
   39.5240   32.2590   36.8890 N   0  0  0  0  0  0  0  0  0  0  0  0
   39.8690   31.9870   35.9420 H   0  0  0  0  0  0  0  0  0  0  0  0
   39.9490   33.1860   37.1550 H   0  0  0  0  0  0  0  0  0  0  0  0
   38.4990   29.3010   43.0310 C   0  0  0  0  0  0  0  0  0  0  0  0
   38.1140   29.5600   44.0330 H   0  0  0  0  0  0  0  0  0  0  0  0
   39.4700   29.7970   42.8670 H   0  0  0  0  0  0  0  0  0  0  0  0
   39.7810   25.8070   43.5400 C   0  0  0  0  0  0  0  0  0  0  0  0
   39.6380   27.1990   43.6770 C   0  0  0  0  0  0  0  0  0  0  0  0
   38.6740   27.8330   42.9080 C   0  0  0  0  0  0  0  0  0  0  0  0
   37.9260   27.0770   42.0700 N   0  0  0  0  0  0  0  0  0  0  0  0
   38.0760   25.7400   41.9510 C   0  0  0  0  0  0  0  0  0  0  0  0
   39.0030   25.1050   42.6840 N   0  0  0  0  0  0  0  0  0  0  0  0
   40.5560   25.4030   44.1780 H   0  0  0  0  0  0  0  0  0  0  0  0
   40.2420   27.7930   44.3500 H   0  0  0  0  0  0  0  0  0  0  0  0
   37.4410   25.2020   41.2600 H   0  0  0  0  0  0  0  0  0  0  0  0
  1  3  1  0  0  0  0
  1 18  1  0  0  0  0
  2  1  1  0  0  0  0
  4  5  1  0  0  0  0
  4  1  1  0  0  0  0
  5  6  1  0  0  0  0
  7  5  2  0  0  0  0
  8 14  1  0  0  0  0
  8  7  1  0  0  0  0
  9  8  2  0  0  0  0
 10  9  1  0  0  0  0
 10 11  2  0  0  0  0
 11 13  1  0  0  0  0
 12 11  1  0  0  0  0
 13 14  2  0  0  0  0
 14  4  1  0  0  0  0
 15 17  1  0  0  0  0
 15  9  1  0  0  0  0
 16 15  1  0  0  0  0
 18 19  1  0  0  0  0
 20 18  1  0  0  0  0
 21 22  1  0  0  0  0
 21 27  1  0  0  0  0
 22 28  1  0  0  0  0
 23 18  1  0  0  0  0
 23 22  2  0  0  0  0
 24 23  1  0  0  0  0
 25 24  2  0  0  0  0
 25 26  1  0  0  0  0
 26 21  2  0  0  0  0
 29 25  1  0  0  0  0
M  END
>  <minimizedAffinity>
-4.8686285

$$$$

 OpenBabel03252508573D

 29 31  0  0  0  0  0  0  0  0999 V2000
   37.2780   29.1170   41.5390 C   0  0  0  0  0  0  0  0  0  0  0  0
   37.1120   29.9350   42.2470 H   0  0  0  0  0  0  0  0  0  0  0  0
   36.3500   28.6210   41.1850 H   0  0  0  0  0  0  0  0  0  0  0  0
   38.0350   28.0260   42.1700 N   0  0  0  0  0  0  0  0  0  0  0  0
   39.0190   28.0820   43.1030 C   0  0  0  0  0  0  0  0  0  0  0  0
   39.3730   29.0360   43.5080 H   0  0  0  0  0  0  0  0  0  0  0  0
   39.4260   26.8300   43.3910 N   0  0  0  0  0  0  0  0  0  0  0  0
   38.6920   26.0210   42.6370 C   0  0  0  0  0  0  0  0  0  0  0  0
   38.7120   24.6510   42.5530 C   0  0  0  0  0  0  0  0  0  0  0  0
   37.8520   24.0330   41.6940 N   0  0  0  0  0  0  0  0  0  0  0  0
   36.9940   24.7800   40.9420 C   0  0  0  0  0  0  0  0  0  0  0  0
   36.3000   24.2960   40.2500 H   0  0  0  0  0  0  0  0  0  0  0  0
   36.9730   26.1240   41.0240 N   0  0  0  0  0  0  0  0  0  0  0  0
   37.8060   26.7340   41.8560 C   0  0  0  0  0  0  0  0  0  0  0  0
   39.5780   23.8060   43.3050 N   0  0  0  0  0  0  0  0  0  0  0  0
   39.2870   22.9140   43.7620 H   0  0  0  0  0  0  0  0  0  0  0  0
   40.6030   23.9680   43.4920 H   0  0  0  0  0  0  0  0  0  0  0  0
   38.0950   29.5570   40.3270 C   0  0  0  0  0  0  0  0  0  0  0  0
   37.6230   29.1250   39.4270 H   0  0  0  0  0  0  0  0  0  0  0  0
   39.1380   29.2060   40.4030 H   0  0  0  0  0  0  0  0  0  0  0  0
   37.1880   33.0740   39.3670 C   0  0  0  0  0  0  0  0  0  0  0  0
   37.1770   31.6690   39.4140 C   0  0  0  0  0  0  0  0  0  0  0  0
   38.0820   31.0390   40.2540 C   0  0  0  0  0  0  0  0  0  0  0  0
   38.9240   31.8110   40.9810 N   0  0  0  0  0  0  0  0  0  0  0  0
   38.9220   33.1610   40.9240 C   0  0  0  0  0  0  0  0  0  0  0  0
   38.0550   33.7930   40.1180 N   0  0  0  0  0  0  0  0  0  0  0  0
   36.4490   33.4750   38.6860 H   0  0  0  0  0  0  0  0  0  0  0  0
   36.4990   31.0630   38.8290 H   0  0  0  0  0  0  0  0  0  0  0  0
   39.6250   33.7110   41.5340 H   0  0  0  0  0  0  0  0  0  0  0  0
  1  4  1  0  0  0  0
  1  2  1  0  0  0  0
  3  1  1  0  0  0  0
  4  5  1  0  0  0  0
  5  7  2  0  0  0  0
  5  6  1  0  0  0  0
  8  7  1  0  0  0  0
  9  8  1  0  0  0  0
  9 15  1  0  0  0  0
 10  9  2  0  0  0  0
 11 13  2  0  0  0  0
 11 10  1  0  0  0  0
 12 11  1  0  0  0  0
 13 14  1  0  0  0  0
 14  4  1  0  0  0  0
 14  8  2  0  0  0  0
 15 17  1  0  0  0  0
 15 16  1  0  0  0  0
 18 20  1  0  0  0  0
 18  1  1  0  0  0  0
 19 18  1  0  0  0  0
 21 22  2  0  0  0  0
 21 26  1  0  0  0  0
 22 23  1  0  0  0  0
 23 18  1  0  0  0  0
 23 24  2  0  0  0  0
 25 24  1  0  0  0  0
 25 29  1  0  0  0  0
 26 25  2  0  0  0  0
 27 21  1  0  0  0  0
 28 22  1  0  0  0  0
M  END
>  <minimizedAffinity>
-4.78174829

$$$$

 OpenBabel03252508573D

 29 31  0  0  0  0  0  0  0  0999 V2000
   38.3740   28.7610   42.4530 C   0  0  0  0  0  0  0  0  0  0  0  0
   37.6430   28.2210   43.0640 H   0  0  0  0  0  0  0  0  0  0  0  0
   39.1770   29.2610   43.0340 H   0  0  0  0  0  0  0  0  0  0  0  0
   37.7320   29.8660   41.7270 N   0  0  0  0  0  0  0  0  0  0  0  0
   36.4400   30.0100   41.3370 C   0  0  0  0  0  0  0  0  0  0  0  0
   35.6860   29.2430   41.5470 H   0  0  0  0  0  0  0  0  0  0  0  0
   36.3010   31.1870   40.6960 N   0  0  0  0  0  0  0  0  0  0  0  0
   37.5020   31.7520   40.6990 C   0  0  0  0  0  0  0  0  0  0  0  0
   37.8990   32.9570   40.1760 C   0  0  0  0  0  0  0  0  0  0  0  0
   39.2050   33.3300   40.3020 N   0  0  0  0  0  0  0  0  0  0  0  0
   40.0840   32.5070   40.9420 C   0  0  0  0  0  0  0  0  0  0  0  0
   41.1330   32.7950   41.0500 H   0  0  0  0  0  0  0  0  0  0  0  0
   39.6950   31.3240   41.4560 N   0  0  0  0  0  0  0  0  0  0  0  0
   38.4280   30.9540   41.3370 C   0  0  0  0  0  0  0  0  0  0  0  0
   37.0400   33.8680   39.4950 N   0  0  0  0  0  0  0  0  0  0  0  0
   37.0450   34.9030   39.6330 H   0  0  0  0  0  0  0  0  0  0  0  0
   36.3050   33.6210   38.7810 H   0  0  0  0  0  0  0  0  0  0  0  0
   39.0140   27.8680   41.3930 C   0  0  0  0  0  0  0  0  0  0  0  0
   40.0210   27.5890   41.7510 H   0  0  0  0  0  0  0  0  0  0  0  0
   39.0970   28.3970   40.4290 H   0  0  0  0  0  0  0  0  0  0  0  0
   37.0510   24.7510   42.1260 C   0  0  0  0  0  0  0  0  0  0  0  0
   37.8480   25.8910   42.3250 C   0  0  0  0  0  0  0  0  0  0  0  0
   38.1740   26.6580   41.2160 C   0  0  0  0  0  0  0  0  0  0  0  0
   37.7080   26.2650   40.0080 N   0  0  0  0  0  0  0  0  0  0  0  0
   36.9420   25.1660   39.8340 C   0  0  0  0  0  0  0  0  0  0  0  0
   36.6130   24.4080   40.8920 N   0  0  0  0  0  0  0  0  0  0  0  0
   36.8490   24.2180   43.0450 H   0  0  0  0  0  0  0  0  0  0  0  0
   38.2150   26.1950   43.2960 H   0  0  0  0  0  0  0  0  0  0  0  0
   36.6060   24.9150   38.8380 H   0  0  0  0  0  0  0  0  0  0  0  0
  1  3  1  0  0  0  0
  1  2  1  0  0  0  0
  4  1  1  0  0  0  0
  5  6  1  0  0  0  0
  5  4  1  0  0  0  0
  7  8  1  0  0  0  0
  7  5  2  0  0  0  0
  8 14  1  0  0  0  0
  9 10  1  0  0  0  0
  9  8  2  0  0  0  0
 10 11  2  0  0  0  0
 11 12  1  0  0  0  0
 11 13  1  0  0  0  0
 14 13  2  0  0  0  0
 14  4  1  0  0  0  0
 15 16  1  0  0  0  0
 15  9  1  0  0  0  0
 17 15  1  0  0  0  0
 18 19  1  0  0  0  0
 18  1  1  0  0  0  0
 20 18  1  0  0  0  0
 21 22  1  0  0  0  0
 21 27  1  0  0  0  0
 22 28  1  0  0  0  0
 23 18  1  0  0  0  0
 23 22  2  0  0  0  0
 24 23  1  0  0  0  0
 25 24  2  0  0  0  0
 25 26  1  0  0  0  0
 26 21  2  0  0  0  0
 29 25  1  0  0  0  0
M  END
>  <minimizedAffinity>
-4.76956081

$$$$
