
 OpenBabel03252508563D

 29 31  0  0  0  0  0  0  0  0999 V2000
   47.3770   34.9990   41.5520 C   0  0  0  0  0  0  0  0  0  0  0  0
   47.5280   35.9940   41.1220 H   0  0  0  0  0  0  0  0  0  0  0  0
   47.8770   34.8410   42.5300 H   0  0  0  0  0  0  0  0  0  0  0  0
   47.9670   33.9640   40.6910 N   0  0  0  0  0  0  0  0  0  0  0  0
   47.5290   33.4710   39.5050 C   0  0  0  0  0  0  0  0  0  0  0  0
   46.6080   33.8360   39.0370 H   0  0  0  0  0  0  0  0  0  0  0  0
   48.3890   32.5300   39.0720 N   0  0  0  0  0  0  0  0  0  0  0  0
   49.3440   32.4520   39.9900 C   0  0  0  0  0  0  0  0  0  0  0  0
   50.4560   31.6490   40.0280 C   0  0  0  0  0  0  0  0  0  0  0  0
   51.3050   31.7480   41.0900 N   0  0  0  0  0  0  0  0  0  0  0  0
   51.0360   32.6380   42.0880 C   0  0  0  0  0  0  0  0  0  0  0  0
   51.7090   32.7280   42.9450 H   0  0  0  0  0  0  0  0  0  0  0  0
   49.9450   33.4290   42.0530 N   0  0  0  0  0  0  0  0  0  0  0  0
   49.1150   33.3370   41.0240 C   0  0  0  0  0  0  0  0  0  0  0  0
   50.8020   30.6980   39.0240 N   0  0  0  0  0  0  0  0  0  0  0  0
   51.7650   30.5500   38.6530 H   0  0  0  0  0  0  0  0  0  0  0  0
   50.1420   30.0330   38.5370 H   0  0  0  0  0  0  0  0  0  0  0  0
   45.8990   34.6460   41.6920 C   0  0  0  0  0  0  0  0  0  0  0  0
   45.7660   33.6070   41.3440 H   0  0  0  0  0  0  0  0  0  0  0  0
   45.2720   35.3230   41.0870 H   0  0  0  0  0  0  0  0  0  0  0  0
   44.4430   35.9680   44.8920 C   0  0  0  0  0  0  0  0  0  0  0  0
   44.7970   35.8810   43.5350 C   0  0  0  0  0  0  0  0  0  0  0  0
   45.5110   34.7670   43.1190 C   0  0  0  0  0  0  0  0  0  0  0  0
   45.8250   33.8280   44.0410 N   0  0  0  0  0  0  0  0  0  0  0  0
   45.4760   33.9270   45.3430 C   0  0  0  0  0  0  0  0  0  0  0  0
   44.7860   34.9960   45.7690 N   0  0  0  0  0  0  0  0  0  0  0  0
   43.8900   36.8700   45.1220 H   0  0  0  0  0  0  0  0  0  0  0  0
   44.5400   36.6390   42.8060 H   0  0  0  0  0  0  0  0  0  0  0  0
   45.7630   33.1370   46.0220 H   0  0  0  0  0  0  0  0  0  0  0  0
  1 18  1  0  0  0  0
  1  3  1  0  0  0  0
  2  1  1  0  0  0  0
  4 14  1  0  0  0  0
  4  1  1  0  0  0  0
  5  4  1  0  0  0  0
  6  5  1  0  0  0  0
  7  5  2  0  0  0  0
  7  8  1  0  0  0  0
  8  9  2  0  0  0  0
  8 14  1  0  0  0  0
  9 10  1  0  0  0  0
 10 11  2  0  0  0  0
 11 12  1  0  0  0  0
 13 11  1  0  0  0  0
 14 13  2  0  0  0  0
 15  9  1  0  0  0  0
 16 15  1  0  0  0  0
 17 15  1  0  0  0  0
 18 23  1  0  0  0  0
 19 18  1  0  0  0  0
 20 18  1  0  0  0  0
 21 27  1  0  0  0  0
 21 26  1  0  0  0  0
 22 21  2  0  0  0  0
 23 22  1  0  0  0  0
 23 24  2  0  0  0  0
 24 25  1  0  0  0  0
 25 26  2  0  0  0  0
 25 29  1  0  0  0  0
 28 22  1  0  0  0  0
M  END
>  <minimizedAffinity>
-4.49138165

>  <minimizedRMSD>
1.90975678

$$$$
