
 OpenBabel03252504093D

 30 32  0  0  0  0  0  0  0  0999 V2000
   46.9360   34.0740   43.1900 C   0  0  0  0  0  0  0  0  0  0  0  0
   45.6630   33.7980   42.6840 C   0  0  0  0  0  0  0  0  0  0  0  0
   44.9470   32.7310   43.2340 C   0  0  0  0  0  0  0  0  0  0  0  0
   45.5190   32.0140   44.2320 N   0  0  0  0  0  0  0  0  0  0  0  0
   46.7570   32.3130   44.6970 C   0  0  0  0  0  0  0  0  0  0  0  0
   47.4710   33.3380   44.1840 N   0  0  0  0  0  0  0  0  0  0  0  0
   43.9610   32.5040   42.8520 H   0  0  0  0  0  0  0  0  0  0  0  0
   47.2190   31.4700   45.7450 N   0  0  0  0  0  0  0  0  0  0  0  0
   47.4240   31.9360   47.0110 C   0  0  0  0  0  0  0  0  0  0  0  0
   47.2720   32.9460   47.3620 H   0  0  0  0  0  0  0  0  0  0  0  0
   47.8580   30.9580   47.8210 N   0  0  0  0  0  0  0  0  0  0  0  0
   47.9390   29.8380   47.0800 C   0  0  0  0  0  0  0  0  0  0  0  0
   48.3190   28.5370   47.3690 C   0  0  0  0  0  0  0  0  0  0  0  0
   48.2870   27.6180   46.3680 N   0  0  0  0  0  0  0  0  0  0  0  0
   47.8880   27.9880   45.1190 C   0  0  0  0  0  0  0  0  0  0  0  0
   47.9060   27.1680   44.4130 H   0  0  0  0  0  0  0  0  0  0  0  0
   47.5070   29.2610   44.8040 N   0  0  0  0  0  0  0  0  0  0  0  0
   47.5410   30.1640   45.8010 C   0  0  0  0  0  0  0  0  0  0  0  0
   45.1170   34.6440   41.5820 C   0  0  0  0  0  0  0  0  0  0  0  0
   45.0950   35.9750   41.9840 F   0  0  0  0  0  0  0  0  0  0  0  0
   45.9920   34.5720   40.5130 F   0  0  0  0  0  0  0  0  0  0  0  0
   43.8620   34.3230   41.1890 F   0  0  0  0  0  0  0  0  0  0  0  0
   48.7160   28.2700   48.7050 N   0  0  0  0  0  0  0  0  0  0  0  0
   47.9080   27.8090   49.2170 H   0  0  0  0  0  0  0  0  0  0  0  0
   49.6100   28.4470   49.2130 H   0  0  0  0  0  0  0  0  0  0  0  0
   47.6170   35.1030   42.6530 O   0  0  0  0  0  0  0  0  0  0  0  0
   48.8510   35.0780   41.9860 C   0  0  0  0  0  0  0  0  0  0  0  0
   49.8360   35.2260   42.9770 F   0  0  0  0  0  0  0  0  0  0  0  0
   48.9760   33.9020   41.2870 F   0  0  0  0  0  0  0  0  0  0  0  0
   48.9840   36.1860   41.1710 F   0  0  0  0  0  0  0  0  0  0  0  0
  1  6  1  0  0  0  0
  2  1  2  0  0  0  0
  2  3  1  0  0  0  0
  3  4  2  0  0  0  0
  4  5  1  0  0  0  0
  5  8  1  0  0  0  0
  6  5  2  0  0  0  0
  7  3  1  0  0  0  0
  8 18  1  0  0  0  0
  8  9  1  0  0  0  0
  9 10  1  0  0  0  0
  9 11  2  0  0  0  0
 12 13  1  0  0  0  0
 12 11  1  0  0  0  0
 13 23  1  0  0  0  0
 14 13  2  0  0  0  0
 15 14  1  0  0  0  0
 16 15  1  0  0  0  0
 17 15  2  0  0  0  0
 17 18  1  0  0  0  0
 18 12  2  0  0  0  0
 19 20  1  0  0  0  0
 19  2  1  0  0  0  0
 21 19  1  0  0  0  0
 22 19  1  0  0  0  0
 23 25  1  0  0  0  0
 23 24  1  0  0  0  0
 26  1  1  0  0  0  0
 27 26  1  0  0  0  0
 27 28  1  0  0  0  0
 29 27  1  0  0  0  0
 30 27  1  0  0  0  0
M  END
>  <minimizedAffinity>
-5.48431826

>  <minimizedRMSD>
1.30745184

$$$$
