
 OpenBabel03252504093D

 30 32  0  0  0  0  0  0  0  0999 V2000
   47.0690   34.2790   43.0990 C   0  0  0  0  0  0  0  0  0  0  0  0
   45.7990   34.5920   43.5880 C   0  0  0  0  0  0  0  0  0  0  0  0
   45.2140   33.7300   44.5190 C   0  0  0  0  0  0  0  0  0  0  0  0
   45.9050   32.6300   44.9050 N   0  0  0  0  0  0  0  0  0  0  0  0
   47.1360   32.3590   44.4080 C   0  0  0  0  0  0  0  0  0  0  0  0
   47.7260   33.1750   43.5070 N   0  0  0  0  0  0  0  0  0  0  0  0
   44.2300   33.9590   44.9060 H   0  0  0  0  0  0  0  0  0  0  0  0
   47.7330   31.1690   44.9110 N   0  0  0  0  0  0  0  0  0  0  0  0
   47.6060   30.7940   46.2160 C   0  0  0  0  0  0  0  0  0  0  0  0
   47.0700   31.3180   46.9930 H   0  0  0  0  0  0  0  0  0  0  0  0
   48.2530   29.6410   46.4520 N   0  0  0  0  0  0  0  0  0  0  0  0
   48.8090   29.2560   45.2890 C   0  0  0  0  0  0  0  0  0  0  0  0
   49.5830   28.1650   44.9240 C   0  0  0  0  0  0  0  0  0  0  0  0
   49.9960   28.0690   43.6330 N   0  0  0  0  0  0  0  0  0  0  0  0
   49.6470   29.0330   42.7350 C   0  0  0  0  0  0  0  0  0  0  0  0
   50.0370   28.8430   41.7440 H   0  0  0  0  0  0  0  0  0  0  0  0
   48.8870   30.1190   43.0640 N   0  0  0  0  0  0  0  0  0  0  0  0
   48.4830   30.2050   44.3440 C   0  0  0  0  0  0  0  0  0  0  0  0
   45.1140   35.8270   43.1020 C   0  0  0  0  0  0  0  0  0  0  0  0
   46.0160   36.8850   43.0920 F   0  0  0  0  0  0  0  0  0  0  0  0
   44.7390   35.6190   41.7860 F   0  0  0  0  0  0  0  0  0  0  0  0
   44.0490   36.2150   43.8420 F   0  0  0  0  0  0  0  0  0  0  0  0
   49.8820   27.2260   45.9460 N   0  0  0  0  0  0  0  0  0  0  0  0
   49.2300   26.3930   45.8450 H   0  0  0  0  0  0  0  0  0  0  0  0
   50.5880   27.2340   46.7120 H   0  0  0  0  0  0  0  0  0  0  0  0
   47.6220   35.1150   42.2020 O   0  0  0  0  0  0  0  0  0  0  0  0
   48.9550   35.1680   41.7660 C   0  0  0  0  0  0  0  0  0  0  0  0
   49.7390   35.3450   42.9190 F   0  0  0  0  0  0  0  0  0  0  0  0
   49.2660   34.0160   41.0850 F   0  0  0  0  0  0  0  0  0  0  0  0
   49.1710   36.2990   41.0030 F   0  0  0  0  0  0  0  0  0  0  0  0
  1  6  2  0  0  0  0
  1  2  1  0  0  0  0
  2  3  2  0  0  0  0
  3  4  1  0  0  0  0
  3  7  1  0  0  0  0
  5  4  2  0  0  0  0
  5  8  1  0  0  0  0
  6  5  1  0  0  0  0
  8  9  1  0  0  0  0
  9 11  2  0  0  0  0
  9 10  1  0  0  0  0
 12 11  1  0  0  0  0
 13 12  1  0  0  0  0
 13 23  1  0  0  0  0
 14 13  2  0  0  0  0
 15 17  2  0  0  0  0
 15 14  1  0  0  0  0
 16 15  1  0  0  0  0
 17 18  1  0  0  0  0
 18  8  1  0  0  0  0
 18 12  2  0  0  0  0
 19  2  1  0  0  0  0
 19 22  1  0  0  0  0
 20 19  1  0  0  0  0
 21 19  1  0  0  0  0
 23 25  1  0  0  0  0
 24 23  1  0  0  0  0
 26  1  1  0  0  0  0
 27 26  1  0  0  0  0
 27 28  1  0  0  0  0
 29 27  1  0  0  0  0
 30 27  1  0  0  0  0
M  END
>  <minimizedAffinity>
-5.37031984

>  <minimizedRMSD>
0.657094955

$$$$
