
 OpenBabel03242523373D

 24 26  0  0  0  0  0  0  0  0999 V2000
   44.6740   35.7360   44.8880 C   0  0  0  0  0  0  0  0  0  0  0  0
   44.2210   35.6870   43.5400 C   0  0  0  0  0  0  0  0  0  0  0  0
   44.4680   34.5040   42.8320 C   0  0  0  0  0  0  0  0  0  0  0  0
   45.1090   33.4820   43.4380 N   0  0  0  0  0  0  0  0  0  0  0  0
   45.5250   33.5690   44.7270 C   0  0  0  0  0  0  0  0  0  0  0  0
   45.3110   34.6840   45.4500 N   0  0  0  0  0  0  0  0  0  0  0  0
   44.4480   36.6730   45.3620 H   0  0  0  0  0  0  0  0  0  0  0  0
   43.7160   36.4900   43.0620 H   0  0  0  0  0  0  0  0  0  0  0  0
   46.2040   32.5290   45.4210 N   0  0  0  0  0  0  0  0  0  0  0  0
   47.1410   31.7370   44.8420 C   0  0  0  0  0  0  0  0  0  0  0  0
   47.5210   31.7480   43.8150 H   0  0  0  0  0  0  0  0  0  0  0  0
   47.6120   30.8440   45.7330 N   0  0  0  0  0  0  0  0  0  0  0  0
   46.9830   31.0460   46.9080 C   0  0  0  0  0  0  0  0  0  0  0  0
   47.0310   30.4610   48.1770 C   0  0  0  0  0  0  0  0  0  0  0  0
   46.2090   30.9660   49.1380 N   0  0  0  0  0  0  0  0  0  0  0  0
   45.3770   31.9900   48.8870 C   0  0  0  0  0  0  0  0  0  0  0  0
   44.7450   32.3410   49.7170 H   0  0  0  0  0  0  0  0  0  0  0  0
   45.3130   32.5700   47.6710 N   0  0  0  0  0  0  0  0  0  0  0  0
   46.1090   32.1010   46.6940 C   0  0  0  0  0  0  0  0  0  0  0  0
   47.9110   29.3960   48.4010 N   0  0  0  0  0  0  0  0  0  0  0  0
   48.7410   29.2140   49.0290 H   0  0  0  0  0  0  0  0  0  0  0  0
   47.7190   28.5600   47.8120 H   0  0  0  0  0  0  0  0  0  0  0  0
   43.9300   34.3580   41.1280 S   0  0  0  0  0  0  0  0  0  0  0  0
   43.2890   33.1220   40.9810 H   0  0  0  0  0  0  0  0  0  0  0  0
  1  7  1  0  0  0  0
  1  6  1  0  0  0  0
  2  1  2  0  0  0  0
  3  4  2  0  0  0  0
  3  2  1  0  0  0  0
  4  5  1  0  0  0  0
  5  9  1  0  0  0  0
  5  6  2  0  0  0  0
  8  2  1  0  0  0  0
  9 19  1  0  0  0  0
 10  9  1  0  0  0  0
 10 12  2  0  0  0  0
 11 10  1  0  0  0  0
 12 13  1  0  0  0  0
 13 14  1  0  0  0  0
 14 20  1  0  0  0  0
 14 15  2  0  0  0  0
 16 15  1  0  0  0  0
 16 17  1  0  0  0  0
 18 16  2  0  0  0  0
 19 13  2  0  0  0  0
 19 18  1  0  0  0  0
 20 21  1  0  0  0  0
 22 20  1  0  0  0  0
 23  3  1  0  0  0  0
 24 23  1  0  0  0  0
M  END
>  <minimizedAffinity>
-5.29032135

>  <minimizedRMSD>
2.2678616

$$$$
