
 OpenBabel03252508563D

 29 31  0  0  0  0  0  0  0  0999 V2000
   48.7550   33.8950   42.7730 C   0  0  0  0  0  0  0  0  0  0  0  0
   48.4740   33.3170   43.6590 H   0  0  0  0  0  0  0  0  0  0  0  0
   49.0570   34.9410   42.9840 H   0  0  0  0  0  0  0  0  0  0  0  0
   47.6100   34.0420   41.8620 N   0  0  0  0  0  0  0  0  0  0  0  0
   47.5030   33.7220   40.5480 C   0  0  0  0  0  0  0  0  0  0  0  0
   48.3400   33.2830   39.9930 H   0  0  0  0  0  0  0  0  0  0  0  0
   46.2660   34.0320   40.1180 N   0  0  0  0  0  0  0  0  0  0  0  0
   45.6250   34.5360   41.1650 C   0  0  0  0  0  0  0  0  0  0  0  0
   44.3390   35.0050   41.2590 C   0  0  0  0  0  0  0  0  0  0  0  0
   43.8980   35.4820   42.4580 N   0  0  0  0  0  0  0  0  0  0  0  0
   44.7370   35.4840   43.5340 C   0  0  0  0  0  0  0  0  0  0  0  0
   44.3960   35.8630   44.5000 H   0  0  0  0  0  0  0  0  0  0  0  0
   46.0010   35.0250   43.4430 N   0  0  0  0  0  0  0  0  0  0  0  0
   46.4360   34.5600   42.2800 C   0  0  0  0  0  0  0  0  0  0  0  0
   43.4060   35.0350   40.1820 N   0  0  0  0  0  0  0  0  0  0  0  0
   42.4010   34.7680   40.2600 H   0  0  0  0  0  0  0  0  0  0  0  0
   43.6070   35.3230   39.1880 H   0  0  0  0  0  0  0  0  0  0  0  0
   49.8580   33.2170   41.9650 C   0  0  0  0  0  0  0  0  0  0  0  0
   50.7710   33.8320   42.0590 H   0  0  0  0  0  0  0  0  0  0  0  0
   49.5750   33.1320   40.9020 H   0  0  0  0  0  0  0  0  0  0  0  0
   49.2710   29.8600   43.5460 C   0  0  0  0  0  0  0  0  0  0  0  0
   49.0200   31.1430   43.0290 C   0  0  0  0  0  0  0  0  0  0  0  0
   50.0910   31.8600   42.5180 C   0  0  0  0  0  0  0  0  0  0  0  0
   51.3160   31.2840   42.5450 N   0  0  0  0  0  0  0  0  0  0  0  0
   51.5400   30.0490   43.0440 C   0  0  0  0  0  0  0  0  0  0  0  0
   50.5190   29.3370   43.5450 N   0  0  0  0  0  0  0  0  0  0  0  0
   48.3770   29.3800   43.9220 H   0  0  0  0  0  0  0  0  0  0  0  0
   48.0360   31.5940   43.0140 H   0  0  0  0  0  0  0  0  0  0  0  0
   52.5460   29.6550   43.0320 H   0  0  0  0  0  0  0  0  0  0  0  0
  1  3  1  0  0  0  0
  1  2  1  0  0  0  0
  4 14  1  0  0  0  0
  4  1  1  0  0  0  0
  5  4  1  0  0  0  0
  6  5  1  0  0  0  0
  7  5  2  0  0  0  0
  7  8  1  0  0  0  0
  8  9  2  0  0  0  0
  8 14  1  0  0  0  0
  9 10  1  0  0  0  0
 10 11  2  0  0  0  0
 11 12  1  0  0  0  0
 13 11  1  0  0  0  0
 14 13  2  0  0  0  0
 15 16  1  0  0  0  0
 15  9  1  0  0  0  0
 17 15  1  0  0  0  0
 18 19  1  0  0  0  0
 18 23  1  0  0  0  0
 18  1  1  0  0  0  0
 20 18  1  0  0  0  0
 21 27  1  0  0  0  0
 22 21  2  0  0  0  0
 23 24  2  0  0  0  0
 23 22  1  0  0  0  0
 24 25  1  0  0  0  0
 25 26  2  0  0  0  0
 26 21  1  0  0  0  0
 28 22  1  0  0  0  0
 29 25  1  0  0  0  0
M  END
>  <minimizedAffinity>
-3.80678105

>  <minimizedRMSD>
5.94190454

$$$$
