
 OpenBabel03252503443D

 39 42  0  0  1  0  0  0  0  0999 V2000
   38.0170   31.0850   40.4140 C   0  0  0  0  0  0  0  0  0  0  0  0
   38.3520   30.3830   41.5870 C   0  0  0  0  0  0  0  0  0  0  0  0
   39.6460   30.5940   42.0930 C   0  0  0  0  0  0  0  0  0  0  0  0
   40.4850   31.4340   41.4550 N   0  0  0  0  0  0  0  0  0  0  0  0
   40.1290   32.0860   40.3370 C   0  0  0  0  0  0  0  0  0  0  0  0
   38.8870   31.9220   39.7990 N   0  0  0  0  0  0  0  0  0  0  0  0
   37.0610   31.0190   39.9170 H   0  0  0  0  0  0  0  0  0  0  0  0
   39.8970   30.0520   42.9950 H   0  0  0  0  0  0  0  0  0  0  0  0
   41.3730   32.6490   38.2570 C   0  0  2  0  0  0  0  0  0  0  0  0
   41.1130   32.9790   39.7450 C   0  0  1  0  0  0  0  0  0  0  0  0
   40.7290   34.2860   39.6340 O   0  0  0  0  0  0  0  0  0  0  0  0
   41.6000   34.9000   38.7790 C   0  0  0  0  0  0  0  0  0  0  0  0
   42.2990   33.8420   37.9590 C   0  0  2  0  0  0  0  0  0  0  0  0
   41.8810   31.6920   38.1470 H   0  0  0  0  0  0  0  0  0  0  0  0
   42.1270   32.9310   40.2050 H   0  0  0  0  0  0  0  0  0  0  0  0
   41.0020   35.5040   38.0400 H   0  0  0  0  0  0  0  0  0  0  0  0
   42.2780   35.6190   39.2630 H   0  0  0  0  0  0  0  0  0  0  0  0
   43.2980   33.6540   38.3690 H   0  0  0  0  0  0  0  0  0  0  0  0
   40.2330   32.8570   37.5490 O   0  0  0  0  0  0  0  0  0  0  0  0
   40.0090   31.9950   37.0750 H   0  0  0  0  0  0  0  0  0  0  0  0
   42.3870   34.1200   36.6170 O   0  0  0  0  0  0  0  0  0  0  0  0
   43.1910   33.6410   36.2450 H   0  0  0  0  0  0  0  0  0  0  0  0
   37.3350   29.5100   42.1620 C   0  0  0  0  0  0  0  0  0  0  0  0
   36.3280   29.8300   41.8210 H   0  0  0  0  0  0  0  0  0  0  0  0
   37.3220   29.6260   43.2570 H   0  0  0  0  0  0  0  0  0  0  0  0
   37.5650   28.0990   41.9080 N   0  0  0  0  0  0  0  0  0  0  0  0
   36.9280   27.4460   40.9130 C   0  0  0  0  0  0  0  0  0  0  0  0
   36.2030   27.8440   40.2050 H   0  0  0  0  0  0  0  0  0  0  0  0
   37.3130   26.1440   40.8820 N   0  0  0  0  0  0  0  0  0  0  0  0
   38.2190   25.9710   41.8860 C   0  0  0  0  0  0  0  0  0  0  0  0
   38.9750   24.9080   42.3820 C   0  0  0  0  0  0  0  0  0  0  0  0
   39.7950   25.1110   43.4240 N   0  0  0  0  0  0  0  0  0  0  0  0
   39.9010   26.3220   44.0020 C   0  0  0  0  0  0  0  0  0  0  0  0
   40.5980   26.3330   44.8270 H   0  0  0  0  0  0  0  0  0  0  0  0
   39.1980   27.3820   43.5660 N   0  0  0  0  0  0  0  0  0  0  0  0
   38.3680   27.2080   42.5220 C   0  0  0  0  0  0  0  0  0  0  0  0
   38.7620   23.6920   41.6780 N   0  0  0  0  0  0  0  0  0  0  0  0
   37.7880   23.3470   41.4720 H   0  0  0  0  0  0  0  0  0  0  0  0
   39.5720   23.1210   41.3520 H   0  0  0  0  0  0  0  0  0  0  0  0
  1  2  1  0  0  0  0
  2  3  2  0  0  0  0
  2 23  1  0  0  0  0
  3  8  1  0  0  0  0
  4  3  1  0  0  0  0
  5  4  2  0  0  0  0
  6  5  1  0  0  0  0
  6  1  2  0  0  0  0
  7  1  1  0  0  0  0
  9 14  1  6  0  0  0
  9 10  1  0  0  0  0
 10 15  1  1  0  0  0
 10  5  1  0  0  0  0
 11 10  1  0  0  0  0
 12 17  1  0  0  0  0
 12 11  1  0  0  0  0
 13  9  1  0  0  0  0
 13 18  1  1  0  0  0
 13 12  1  0  0  0  0
 16 12  1  0  0  0  0
 19  9  1  0  0  0  0
 20 19  1  0  0  0  0
 21 13  1  0  0  0  0
 22 21  1  0  0  0  0
 23 25  1  0  0  0  0
 24 23  1  0  0  0  0
 26 23  1  0  0  0  0
 26 36  1  0  0  0  0
 27 26  1  0  0  0  0
 28 27  1  0  0  0  0
 29 27  2  0  0  0  0
 29 30  1  0  0  0  0
 30 31  2  0  0  0  0
 30 36  1  0  0  0  0
 31 32  1  0  0  0  0
 32 33  2  0  0  0  0
 33 34  1  0  0  0  0
 35 33  1  0  0  0  0
 36 35  2  0  0  0  0
 37 31  1  0  0  0  0
 38 37  1  0  0  0  0
 39 37  1  0  0  0  0
M  END
>  <minimizedAffinity>
-6.58978653

$$$$

 OpenBabel03252503443D

 39 42  0  0  1  0  0  0  0  0999 V2000
   39.2970   29.8030   39.8220 C   0  0  0  0  0  0  0  0  0  0  0  0
   38.4780   30.1250   40.9200 C   0  0  0  0  0  0  0  0  0  0  0  0
   38.6720   31.3920   41.4940 C   0  0  0  0  0  0  0  0  0  0  0  0
   39.6060   32.2200   40.9860 N   0  0  0  0  0  0  0  0  0  0  0  0
   40.3700   31.8780   39.9380 C   0  0  0  0  0  0  0  0  0  0  0  0
   40.2270   30.6610   39.3380 N   0  0  0  0  0  0  0  0  0  0  0  0
   39.2570   28.8680   39.2850 H   0  0  0  0  0  0  0  0  0  0  0  0
   38.0390   31.6330   42.3380 H   0  0  0  0  0  0  0  0  0  0  0  0
   41.6580   32.6790   37.9660 C   0  0  2  0  0  0  0  0  0  0  0  0
   41.3340   32.8610   39.4660 C   0  0  1  0  0  0  0  0  0  0  0  0
   40.8970   34.1560   39.4580 O   0  0  0  0  0  0  0  0  0  0  0  0
   41.7690   34.8800   38.6950 C   0  0  0  0  0  0  0  0  0  0  0  0
   42.5410   33.9300   37.8120 C   0  0  2  0  0  0  0  0  0  0  0  0
   42.2110   31.7570   37.7900 H   0  0  0  0  0  0  0  0  0  0  0  0
   42.3320   32.8120   39.9580 H   0  0  0  0  0  0  0  0  0  0  0  0
   41.1710   35.5240   37.9920 H   0  0  0  0  0  0  0  0  0  0  0  0
   42.3980   35.5790   39.2680 H   0  0  0  0  0  0  0  0  0  0  0  0
   43.5330   33.7450   38.2410 H   0  0  0  0  0  0  0  0  0  0  0  0
   40.5360   32.9030   37.2360 O   0  0  0  0  0  0  0  0  0  0  0  0
   40.3660   32.0800   36.6780 H   0  0  0  0  0  0  0  0  0  0  0  0
   42.6640   34.3330   36.5040 O   0  0  0  0  0  0  0  0  0  0  0  0
   43.5000   33.9220   36.1210 H   0  0  0  0  0  0  0  0  0  0  0  0
   37.5110   29.1220   41.3540 C   0  0  0  0  0  0  0  0  0  0  0  0
   36.8380   28.8580   40.5110 H   0  0  0  0  0  0  0  0  0  0  0  0
   36.8560   29.5480   42.1280 H   0  0  0  0  0  0  0  0  0  0  0  0
   38.1200   27.9430   41.9450 N   0  0  0  0  0  0  0  0  0  0  0  0
   38.8970   28.0230   43.0460 C   0  0  0  0  0  0  0  0  0  0  0  0
   39.1640   28.9110   43.6150 H   0  0  0  0  0  0  0  0  0  0  0  0
   39.3440   26.7900   43.3980 N   0  0  0  0  0  0  0  0  0  0  0  0
   38.8340   25.9060   42.4920 C   0  0  0  0  0  0  0  0  0  0  0  0
   38.9050   24.5280   42.2880 C   0  0  0  0  0  0  0  0  0  0  0  0
   38.2500   23.9800   41.2540 N   0  0  0  0  0  0  0  0  0  0  0  0
   37.5250   24.7360   40.4090 C   0  0  0  0  0  0  0  0  0  0  0  0
   37.0560   24.1570   39.6260 H   0  0  0  0  0  0  0  0  0  0  0  0
   37.4200   26.0680   40.5570 N   0  0  0  0  0  0  0  0  0  0  0  0
   38.0670   26.6450   41.5860 C   0  0  0  0  0  0  0  0  0  0  0  0
   39.7040   23.8580   43.2540 N   0  0  0  0  0  0  0  0  0  0  0  0
   40.6640   24.2130   43.5050 H   0  0  0  0  0  0  0  0  0  0  0  0
   39.3480   23.0020   43.7320 H   0  0  0  0  0  0  0  0  0  0  0  0
  1  2  1  0  0  0  0
  2 23  1  0  0  0  0
  2  3  2  0  0  0  0
  3  8  1  0  0  0  0
  4  3  1  0  0  0  0
  5  4  2  0  0  0  0
  6  1  2  0  0  0  0
  6  5  1  0  0  0  0
  7  1  1  0  0  0  0
  9 14  1  6  0  0  0
  9 10  1  0  0  0  0
 10  5  1  0  0  0  0
 10 15  1  1  0  0  0
 11 10  1  0  0  0  0
 12 17  1  0  0  0  0
 12 11  1  0  0  0  0
 13  9  1  0  0  0  0
 13 18  1  1  0  0  0
 13 12  1  0  0  0  0
 16 12  1  0  0  0  0
 19  9  1  0  0  0  0
 20 19  1  0  0  0  0
 21 13  1  0  0  0  0
 22 21  1  0  0  0  0
 23 26  1  0  0  0  0
 23 25  1  0  0  0  0
 24 23  1  0  0  0  0
 26 27  1  0  0  0  0
 27 29  2  0  0  0  0
 27 28  1  0  0  0  0
 30 29  1  0  0  0  0
 31 30  1  0  0  0  0
 31 37  1  0  0  0  0
 32 31  2  0  0  0  0
 33 35  2  0  0  0  0
 33 32  1  0  0  0  0
 34 33  1  0  0  0  0
 35 36  1  0  0  0  0
 36 26  1  0  0  0  0
 36 30  2  0  0  0  0
 37 38  1  0  0  0  0
 37 39  1  0  0  0  0
M  END
>  <minimizedAffinity>
-6.51800871

$$$$

 OpenBabel03252503443D

 39 42  0  0  1  0  0  0  0  0999 V2000
   39.4380   33.2030   40.3870 C   0  0  0  0  0  0  0  0  0  0  0  0
   38.6840   32.3520   39.5570 C   0  0  0  0  0  0  0  0  0  0  0  0
   39.3810   31.7180   38.5140 C   0  0  0  0  0  0  0  0  0  0  0  0
   40.7000   31.9430   38.3580 N   0  0  0  0  0  0  0  0  0  0  0  0
   41.3860   32.7620   39.1700 C   0  0  0  0  0  0  0  0  0  0  0  0
   40.7650   33.4060   40.1990 N   0  0  0  0  0  0  0  0  0  0  0  0
   39.0340   33.7520   41.2230 H   0  0  0  0  0  0  0  0  0  0  0  0
   38.7950   31.0660   37.8810 H   0  0  0  0  0  0  0  0  0  0  0  0
   43.1220   32.9910   37.4020 C   0  0  2  0  0  0  0  0  0  0  0  0
   42.8110   32.9150   38.9140 C   0  0  1  0  0  0  0  0  0  0  0  0
   43.3580   34.0970   39.3280 O   0  0  0  0  0  0  0  0  0  0  0  0
   44.5800   34.2170   38.7290 C   0  0  0  0  0  0  0  0  0  0  0  0
   44.6250   33.2930   37.5350 C   0  0  2  0  0  0  0  0  0  0  0  0
   42.9330   32.0370   36.9110 H   0  0  0  0  0  0  0  0  0  0  0  0
   43.4440   32.0710   39.2710 H   0  0  0  0  0  0  0  0  0  0  0  0
   44.6650   35.2560   38.3060 H   0  0  0  0  0  0  0  0  0  0  0  0
   45.4330   34.1100   39.4170 H   0  0  0  0  0  0  0  0  0  0  0  0
   45.1720   32.3780   37.7930 H   0  0  0  0  0  0  0  0  0  0  0  0
   42.5460   34.1050   36.8830 O   0  0  0  0  0  0  0  0  0  0  0  0
   41.9440   33.8130   36.1280 H   0  0  0  0  0  0  0  0  0  0  0  0
   45.1550   33.8510   36.3970 O   0  0  0  0  0  0  0  0  0  0  0  0
   45.5420   33.1130   35.8320 H   0  0  0  0  0  0  0  0  0  0  0  0
   37.2630   32.2100   39.8540 C   0  0  0  0  0  0  0  0  0  0  0  0
   36.6670   32.3770   38.9320 H   0  0  0  0  0  0  0  0  0  0  0  0
   36.9480   33.0000   40.5520 H   0  0  0  0  0  0  0  0  0  0  0  0
   36.9240   30.9490   40.4910 N   0  0  0  0  0  0  0  0  0  0  0  0
   35.8010   30.2720   40.1710 C   0  0  0  0  0  0  0  0  0  0  0  0
   35.0380   30.5450   39.4440 H   0  0  0  0  0  0  0  0  0  0  0  0
   35.7130   29.1320   40.9010 N   0  0  0  0  0  0  0  0  0  0  0  0
   36.8130   29.0870   41.7070 C   0  0  0  0  0  0  0  0  0  0  0  0
   37.3160   28.2110   42.6700 C   0  0  0  0  0  0  0  0  0  0  0  0
   38.4720   28.4990   43.2840 N   0  0  0  0  0  0  0  0  0  0  0  0
   39.1580   29.6190   42.9890 C   0  0  0  0  0  0  0  0  0  0  0  0
   40.0690   29.7160   43.5630 H   0  0  0  0  0  0  0  0  0  0  0  0
   38.7230   30.4990   42.0700 N   0  0  0  0  0  0  0  0  0  0  0  0
   37.5650   30.2350   41.4380 C   0  0  0  0  0  0  0  0  0  0  0  0
   36.4890   27.0740   42.8790 N   0  0  0  0  0  0  0  0  0  0  0  0
   35.4500   27.1770   43.0240 H   0  0  0  0  0  0  0  0  0  0  0  0
   36.9010   26.1160   42.8900 H   0  0  0  0  0  0  0  0  0  0  0  0
  1  7  1  0  0  0  0
  2 23  1  0  0  0  0
  2  1  2  0  0  0  0
  3  2  1  0  0  0  0
  4  3  2  0  0  0  0
  4  5  1  0  0  0  0
  5  6  2  0  0  0  0
  6  1  1  0  0  0  0
  8  3  1  0  0  0  0
  9 14  1  6  0  0  0
  9 13  1  0  0  0  0
  9 10  1  0  0  0  0
 10  5  1  0  0  0  0
 10 15  1  1  0  0  0
 10 11  1  0  0  0  0
 12 11  1  0  0  0  0
 12 17  1  0  0  0  0
 13 18  1  1  0  0  0
 13 12  1  0  0  0  0
 16 12  1  0  0  0  0
 19  9  1  0  0  0  0
 20 19  1  0  0  0  0
 21 13  1  0  0  0  0
 22 21  1  0  0  0  0
 23 26  1  0  0  0  0
 23 25  1  0  0  0  0
 24 23  1  0  0  0  0
 26 36  1  0  0  0  0
 27 26  1  0  0  0  0
 27 29  2  0  0  0  0
 28 27  1  0  0  0  0
 29 30  1  0  0  0  0
 30 31  1  0  0  0  0
 31 37  1  0  0  0  0
 31 32  2  0  0  0  0
 33 32  1  0  0  0  0
 33 34  1  0  0  0  0
 35 33  2  0  0  0  0
 36 30  2  0  0  0  0
 36 35  1  0  0  0  0
 37 39  1  0  0  0  0
 37 38  1  0  0  0  0
M  END
>  <minimizedAffinity>
-6.29023695

$$$$

 OpenBabel03252503443D

 39 42  0  0  1  0  0  0  0  0999 V2000
   37.6190   30.4480   40.6880 C   0  0  0  0  0  0  0  0  0  0  0  0
   37.3790   29.4290   39.7470 C   0  0  0  0  0  0  0  0  0  0  0  0
   38.2340   29.3940   38.6320 C   0  0  0  0  0  0  0  0  0  0  0  0
   39.2160   30.3090   38.5140 N   0  0  0  0  0  0  0  0  0  0  0  0
   39.4140   31.2670   39.4320 C   0  0  0  0  0  0  0  0  0  0  0  0
   38.6170   31.3510   40.5360 N   0  0  0  0  0  0  0  0  0  0  0  0
   37.0430   30.5920   41.5880 H   0  0  0  0  0  0  0  0  0  0  0  0
   38.0440   28.6090   37.9130 H   0  0  0  0  0  0  0  0  0  0  0  0
   41.0050   32.1600   37.7410 C   0  0  2  0  0  0  0  0  0  0  0  0
   40.5170   32.1900   39.2070 C   0  0  1  0  0  0  0  0  0  0  0  0
   40.2070   33.5160   39.3260 O   0  0  0  0  0  0  0  0  0  0  0  0
   41.2310   34.2290   38.7690 C   0  0  0  0  0  0  0  0  0  0  0  0
   42.0140   33.3170   37.8560 C   0  0  2  0  0  0  0  0  0  0  0  0
   41.4870   31.2120   37.5040 H   0  0  0  0  0  0  0  0  0  0  0  0
   41.4370   31.9720   39.7950 H   0  0  0  0  0  0  0  0  0  0  0  0
   40.7870   35.0160   38.0980 H   0  0  0  0  0  0  0  0  0  0  0  0
   41.8470   34.7790   39.4970 H   0  0  0  0  0  0  0  0  0  0  0  0
   42.9240   32.9740   38.3630 H   0  0  0  0  0  0  0  0  0  0  0  0
   40.0070   32.5940   36.9290 O   0  0  0  0  0  0  0  0  0  0  0  0
   39.8320   31.8690   36.2490 H   0  0  0  0  0  0  0  0  0  0  0  0
   42.3340   33.8620   36.6360 O   0  0  0  0  0  0  0  0  0  0  0  0
   43.1690   33.4130   36.2960 H   0  0  0  0  0  0  0  0  0  0  0  0
   36.2760   28.5120   40.0150 C   0  0  0  0  0  0  0  0  0  0  0  0
   35.4900   28.6330   39.2410 H   0  0  0  0  0  0  0  0  0  0  0  0
   35.7930   28.7800   40.9660 H   0  0  0  0  0  0  0  0  0  0  0  0
   36.6900   27.1260   40.1490 N   0  0  0  0  0  0  0  0  0  0  0  0
   36.3050   26.1830   39.2630 C   0  0  0  0  0  0  0  0  0  0  0  0
   35.6750   26.3070   38.3830 H   0  0  0  0  0  0  0  0  0  0  0  0
   36.8200   24.9750   39.6060 N   0  0  0  0  0  0  0  0  0  0  0  0
   37.5520   25.1610   40.7420 C   0  0  0  0  0  0  0  0  0  0  0  0
   38.3160   24.3540   41.5860 C   0  0  0  0  0  0  0  0  0  0  0  0
   38.9180   24.8980   42.6530 N   0  0  0  0  0  0  0  0  0  0  0  0
   38.7990   26.2110   42.9260 C   0  0  0  0  0  0  0  0  0  0  0  0
   39.3380   26.5050   43.8150 H   0  0  0  0  0  0  0  0  0  0  0  0
   38.0770   27.0370   42.1480 N   0  0  0  0  0  0  0  0  0  0  0  0
   37.4620   26.5170   41.0700 C   0  0  0  0  0  0  0  0  0  0  0  0
   38.3520   22.9930   41.1770 N   0  0  0  0  0  0  0  0  0  0  0  0
   37.4680   22.4770   40.9250 H   0  0  0  0  0  0  0  0  0  0  0  0
   39.2600   22.4830   41.1200 H   0  0  0  0  0  0  0  0  0  0  0  0
  1  7  1  0  0  0  0
  2 23  1  0  0  0  0
  2  1  2  0  0  0  0
  3  2  1  0  0  0  0
  4  3  2  0  0  0  0
  4  5  1  0  0  0  0
  5  6  2  0  0  0  0
  6  1  1  0  0  0  0
  8  3  1  0  0  0  0
  9 14  1  6  0  0  0
  9 13  1  0  0  0  0
  9 10  1  0  0  0  0
 10 11  1  0  0  0  0
 10  5  1  0  0  0  0
 10 15  1  1  0  0  0
 12 11  1  0  0  0  0
 12 17  1  0  0  0  0
 13 18  1  1  0  0  0
 13 12  1  0  0  0  0
 16 12  1  0  0  0  0
 19  9  1  0  0  0  0
 20 19  1  0  0  0  0
 21 13  1  0  0  0  0
 22 21  1  0  0  0  0
 23 26  1  0  0  0  0
 23 25  1  0  0  0  0
 24 23  1  0  0  0  0
 26 36  1  0  0  0  0
 27 29  2  0  0  0  0
 27 26  1  0  0  0  0
 28 27  1  0  0  0  0
 29 30  1  0  0  0  0
 30 36  2  0  0  0  0
 30 31  1  0  0  0  0
 31 32  2  0  0  0  0
 32 33  1  0  0  0  0
 33 34  1  0  0  0  0
 35 33  2  0  0  0  0
 36 35  1  0  0  0  0
 37 31  1  0  0  0  0
 38 37  1  0  0  0  0
 39 37  1  0  0  0  0
M  END
>  <minimizedAffinity>
-6.063622

$$$$

 OpenBabel03252503443D

 39 42  0  0  1  0  0  0  0  0999 V2000
   37.0840   29.6570   40.8720 C   0  0  0  0  0  0  0  0  0  0  0  0
   38.1550   30.5550   41.0330 C   0  0  0  0  0  0  0  0  0  0  0  0
   39.2850   30.0650   41.7100 C   0  0  0  0  0  0  0  0  0  0  0  0
   39.2950   28.7960   42.1620 N   0  0  0  0  0  0  0  0  0  0  0  0
   38.2530   27.9690   41.9910 C   0  0  0  0  0  0  0  0  0  0  0  0
   37.1290   28.3870   41.3420 N   0  0  0  0  0  0  0  0  0  0  0  0
   36.1580   29.8980   40.3740 H   0  0  0  0  0  0  0  0  0  0  0  0
   40.1050   30.7610   41.8290 H   0  0  0  0  0  0  0  0  0  0  0  0
   37.6820   25.5780   41.6020 C   0  0  2  0  0  0  0  0  0  0  0  0
   38.3840   26.6150   42.5080 C   0  0  1  0  0  0  0  0  0  0  0  0
   39.6530   26.1070   42.5100 O   0  0  0  0  0  0  0  0  0  0  0  0
   39.5560   24.7570   42.7000 C   0  0  0  0  0  0  0  0  0  0  0  0
   38.1520   24.3210   42.3550 C   0  0  2  0  0  0  0  0  0  0  0  0
   36.6000   25.6980   41.6280 H   0  0  0  0  0  0  0  0  0  0  0  0
   37.9190   26.4480   43.5070 H   0  0  0  0  0  0  0  0  0  0  0  0
   40.2200   24.2480   41.9470 H   0  0  0  0  0  0  0  0  0  0  0  0
   39.9090   24.4120   43.6840 H   0  0  0  0  0  0  0  0  0  0  0  0
   37.5670   24.1930   43.2740 H   0  0  0  0  0  0  0  0  0  0  0  0
   38.2960   25.5570   40.3910 O   0  0  0  0  0  0  0  0  0  0  0  0
   37.5940   25.7450   39.6910 H   0  0  0  0  0  0  0  0  0  0  0  0
   38.0750   23.1850   41.5870 O   0  0  0  0  0  0  0  0  0  0  0  0
   37.1910   22.7380   41.7680 H   0  0  0  0  0  0  0  0  0  0  0  0
   37.9950   31.8980   40.4860 C   0  0  0  0  0  0  0  0  0  0  0  0
   37.9660   32.6400   41.3120 H   0  0  0  0  0  0  0  0  0  0  0  0
   37.0190   31.9810   39.9850 H   0  0  0  0  0  0  0  0  0  0  0  0
   38.9930   32.2440   39.4880 N   0  0  0  0  0  0  0  0  0  0  0  0
   39.0390   31.6250   38.2890 C   0  0  0  0  0  0  0  0  0  0  0  0
   38.3890   30.8360   37.9160 H   0  0  0  0  0  0  0  0  0  0  0  0
   40.0550   32.1240   37.5410 N   0  0  0  0  0  0  0  0  0  0  0  0
   40.6680   33.0860   38.2880 C   0  0  0  0  0  0  0  0  0  0  0  0
   41.7450   33.9570   38.1150 C   0  0  0  0  0  0  0  0  0  0  0  0
   42.0770   34.8010   39.1030 N   0  0  0  0  0  0  0  0  0  0  0  0
   41.3910   34.8230   40.2610 C   0  0  0  0  0  0  0  0  0  0  0  0
   41.7730   35.5520   40.9600 H   0  0  0  0  0  0  0  0  0  0  0  0
   40.3450   34.0080   40.4840 N   0  0  0  0  0  0  0  0  0  0  0  0
   39.9890   33.1510   39.5090 C   0  0  0  0  0  0  0  0  0  0  0  0
   42.3750   33.8240   36.8480 N   0  0  0  0  0  0  0  0  0  0  0  0
   42.6420   32.8760   36.4710 H   0  0  0  0  0  0  0  0  0  0  0  0
   42.5820   34.6660   36.2700 H   0  0  0  0  0  0  0  0  0  0  0  0
  1  2  2  0  0  0  0
  1  6  1  0  0  0  0
  2  3  1  0  0  0  0
  3  8  1  0  0  0  0
  3  4  2  0  0  0  0
  5  4  1  0  0  0  0
  5 10  1  0  0  0  0
  6  5  2  0  0  0  0
  7  1  1  0  0  0  0
  9 14  1  6  0  0  0
  9 13  1  0  0  0  0
  9 10  1  0  0  0  0
 10 11  1  0  0  0  0
 10 15  1  1  0  0  0
 11 12  1  0  0  0  0
 12 17  1  0  0  0  0
 13 12  1  0  0  0  0
 13 18  1  1  0  0  0
 16 12  1  0  0  0  0
 19  9  1  0  0  0  0
 20 19  1  0  0  0  0
 21 22  1  0  0  0  0
 21 13  1  0  0  0  0
 23  2  1  0  0  0  0
 23 24  1  0  0  0  0
 25 23  1  0  0  0  0
 26 36  1  0  0  0  0
 26 23  1  0  0  0  0
 27 26  1  0  0  0  0
 28 27  1  0  0  0  0
 29 30  1  0  0  0  0
 29 27  2  0  0  0  0
 30 36  1  0  0  0  0
 31 30  2  0  0  0  0
 31 32  1  0  0  0  0
 32 33  2  0  0  0  0
 33 35  1  0  0  0  0
 33 34  1  0  0  0  0
 36 35  2  0  0  0  0
 37 31  1  0  0  0  0
 38 37  1  0  0  0  0
 39 37  1  0  0  0  0
M  END
>  <minimizedAffinity>
-5.99464083

$$$$

 OpenBabel03252503443D

 39 42  0  0  1  0  0  0  0  0999 V2000
   37.9030   29.7990   40.6190 C   0  0  0  0  0  0  0  0  0  0  0  0
   38.5130   31.0370   40.8910 C   0  0  0  0  0  0  0  0  0  0  0  0
   39.4320   31.0610   41.9530 C   0  0  0  0  0  0  0  0  0  0  0  0
   39.6830   29.9330   42.6460 N   0  0  0  0  0  0  0  0  0  0  0  0
   39.0810   28.7700   42.3570 C   0  0  0  0  0  0  0  0  0  0  0  0
   38.1800   28.6840   41.3380 N   0  0  0  0  0  0  0  0  0  0  0  0
   37.1800   29.6350   39.8350 H   0  0  0  0  0  0  0  0  0  0  0  0
   39.8970   32.0170   42.1570 H   0  0  0  0  0  0  0  0  0  0  0  0
   38.9830   26.2880   42.5150 C   0  0  2  0  0  0  0  0  0  0  0  0
   39.4440   27.6130   43.1630 C   0  0  1  0  0  0  0  0  0  0  0  0
   40.7850   27.3700   43.2710 O   0  0  0  0  0  0  0  0  0  0  0  0
   40.9350   26.1020   43.7570 C   0  0  0  0  0  0  0  0  0  0  0  0
   39.6510   25.3410   43.5280 C   0  0  2  0  0  0  0  0  0  0  0  0
   37.8970   26.2020   42.5210 H   0  0  0  0  0  0  0  0  0  0  0  0
   38.9820   27.5850   44.1770 H   0  0  0  0  0  0  0  0  0  0  0  0
   41.7100   25.5750   43.1340 H   0  0  0  0  0  0  0  0  0  0  0  0
   41.3100   26.0550   44.7920 H   0  0  0  0  0  0  0  0  0  0  0  0
   39.0670   25.3090   44.4550 H   0  0  0  0  0  0  0  0  0  0  0  0
   39.6340   26.1180   41.3360 O   0  0  0  0  0  0  0  0  0  0  0  0
   38.9360   26.0100   40.6160 H   0  0  0  0  0  0  0  0  0  0  0  0
   39.8160   24.0700   43.0330 O   0  0  0  0  0  0  0  0  0  0  0  0
   39.0260   23.5140   43.3140 H   0  0  0  0  0  0  0  0  0  0  0  0
   38.1380   32.1700   40.0510 C   0  0  0  0  0  0  0  0  0  0  0  0
   37.3760   32.7880   40.5720 H   0  0  0  0  0  0  0  0  0  0  0  0
   37.6440   31.8080   39.1370 H   0  0  0  0  0  0  0  0  0  0  0  0
   39.2680   32.9680   39.6100 N   0  0  0  0  0  0  0  0  0  0  0  0
   39.5080   34.1970   40.1170 C   0  0  0  0  0  0  0  0  0  0  0  0
   38.9380   34.7340   40.8720 H   0  0  0  0  0  0  0  0  0  0  0  0
   40.6160   34.7330   39.5450 N   0  0  0  0  0  0  0  0  0  0  0  0
   41.0890   33.8180   38.6510 C   0  0  0  0  0  0  0  0  0  0  0  0
   42.1620   33.7460   37.7620 C   0  0  0  0  0  0  0  0  0  0  0  0
   42.3250   32.6460   37.0120 N   0  0  0  0  0  0  0  0  0  0  0  0
   41.4700   31.6100   37.1000 C   0  0  0  0  0  0  0  0  0  0  0  0
   41.7280   30.7970   36.4360 H   0  0  0  0  0  0  0  0  0  0  0  0
   40.4200   31.6230   37.9390 N   0  0  0  0  0  0  0  0  0  0  0  0
   40.2320   32.7140   38.7040 C   0  0  0  0  0  0  0  0  0  0  0  0
   42.9790   34.9090   37.7750 N   0  0  0  0  0  0  0  0  0  0  0  0
   42.5550   35.8720   37.7160 H   0  0  0  0  0  0  0  0  0  0  0  0
   44.0160   34.8250   37.8440 H   0  0  0  0  0  0  0  0  0  0  0  0
  1  2  2  0  0  0  0
  1  6  1  0  0  0  0
  2  3  1  0  0  0  0
  3  8  1  0  0  0  0
  3  4  2  0  0  0  0
  5  4  1  0  0  0  0
  5 10  1  0  0  0  0
  6  5  2  0  0  0  0
  7  1  1  0  0  0  0
  9 14  1  6  0  0  0
  9 10  1  0  0  0  0
  9 13  1  0  0  0  0
 10 11  1  0  0  0  0
 10 15  1  1  0  0  0
 11 12  1  0  0  0  0
 12 17  1  0  0  0  0
 13 12  1  0  0  0  0
 13 18  1  1  0  0  0
 16 12  1  0  0  0  0
 19  9  1  0  0  0  0
 20 19  1  0  0  0  0
 21 22  1  0  0  0  0
 21 13  1  0  0  0  0
 23 24  1  0  0  0  0
 23  2  1  0  0  0  0
 25 23  1  0  0  0  0
 26 23  1  0  0  0  0
 26 27  1  0  0  0  0
 27 28  1  0  0  0  0
 29 27  2  0  0  0  0
 30 36  1  0  0  0  0
 30 29  1  0  0  0  0
 31 37  1  0  0  0  0
 31 30  2  0  0  0  0
 32 33  2  0  0  0  0
 32 31  1  0  0  0  0
 33 35  1  0  0  0  0
 34 33  1  0  0  0  0
 35 36  2  0  0  0  0
 36 26  1  0  0  0  0
 37 39  1  0  0  0  0
 38 37  1  0  0  0  0
M  END
>  <minimizedAffinity>
-5.95575857

$$$$

 OpenBabel03252503443D

 39 42  0  0  1  0  0  0  0  0999 V2000
   37.7230   31.4060   40.6460 C   0  0  0  0  0  0  0  0  0  0  0  0
   38.1030   30.4190   41.5750 C   0  0  0  0  0  0  0  0  0  0  0  0
   39.4760   30.3220   41.8570 C   0  0  0  0  0  0  0  0  0  0  0  0
   40.3440   31.1510   41.2460 N   0  0  0  0  0  0  0  0  0  0  0  0
   39.9450   32.0800   40.3640 C   0  0  0  0  0  0  0  0  0  0  0  0
   38.6260   32.2230   40.0500 N   0  0  0  0  0  0  0  0  0  0  0  0
   36.7070   31.5920   40.3360 H   0  0  0  0  0  0  0  0  0  0  0  0
   39.7600   29.5610   42.5720 H   0  0  0  0  0  0  0  0  0  0  0  0
   41.2120   32.6040   38.2880 C   0  0  2  0  0  0  0  0  0  0  0  0
   40.9720   32.9300   39.7800 C   0  0  1  0  0  0  0  0  0  0  0  0
   40.6530   34.2560   39.6850 O   0  0  0  0  0  0  0  0  0  0  0  0
   41.5530   34.8350   38.8350 C   0  0  0  0  0  0  0  0  0  0  0  0
   42.1970   33.7520   38.0020 C   0  0  2  0  0  0  0  0  0  0  0  0
   41.6720   31.6240   38.1660 H   0  0  0  0  0  0  0  0  0  0  0  0
   41.9830   32.8260   40.2370 H   0  0  0  0  0  0  0  0  0  0  0  0
   40.9850   35.4760   38.1040 H   0  0  0  0  0  0  0  0  0  0  0  0
   42.2670   35.5140   39.3260 H   0  0  0  0  0  0  0  0  0  0  0  0
   43.1860   33.5090   38.4080 H   0  0  0  0  0  0  0  0  0  0  0  0
   40.0830   32.8760   37.5840 O   0  0  0  0  0  0  0  0  0  0  0  0
   39.8160   32.0330   37.1010 H   0  0  0  0  0  0  0  0  0  0  0  0
   42.2980   34.0410   36.6620 O   0  0  0  0  0  0  0  0  0  0  0  0
   43.0750   33.5260   36.2840 H   0  0  0  0  0  0  0  0  0  0  0  0
   37.0440   29.5980   42.1530 C   0  0  0  0  0  0  0  0  0  0  0  0
   36.0530   29.9780   41.8280 H   0  0  0  0  0  0  0  0  0  0  0  0
   37.0510   29.7010   43.2480 H   0  0  0  0  0  0  0  0  0  0  0  0
   37.1920   28.1790   41.8800 N   0  0  0  0  0  0  0  0  0  0  0  0
   37.7420   27.3380   42.7810 C   0  0  0  0  0  0  0  0  0  0  0  0
   38.1270   27.5750   43.7710 H   0  0  0  0  0  0  0  0  0  0  0  0
   37.7670   26.0730   42.2900 N   0  0  0  0  0  0  0  0  0  0  0  0
   37.2180   26.1170   41.0430 C   0  0  0  0  0  0  0  0  0  0  0  0
   36.9520   25.1930   40.0310 C   0  0  0  0  0  0  0  0  0  0  0  0
   36.3790   25.6080   38.8920 N   0  0  0  0  0  0  0  0  0  0  0  0
   36.0550   26.9010   38.7060 C   0  0  0  0  0  0  0  0  0  0  0  0
   35.6020   27.0850   37.7430 H   0  0  0  0  0  0  0  0  0  0  0  0
   36.2870   27.8350   39.6450 N   0  0  0  0  0  0  0  0  0  0  0  0
   36.8610   27.4470   40.7990 C   0  0  0  0  0  0  0  0  0  0  0  0
   37.3470   23.8680   40.3640 N   0  0  0  0  0  0  0  0  0  0  0  0
   38.3030   23.6700   40.7610 H   0  0  0  0  0  0  0  0  0  0  0  0
   36.6910   23.0700   40.2190 H   0  0  0  0  0  0  0  0  0  0  0  0
  1  2  1  0  0  0  0
  2  3  2  0  0  0  0
  2 23  1  0  0  0  0
  3  8  1  0  0  0  0
  4  3  1  0  0  0  0
  5  4  2  0  0  0  0
  6  5  1  0  0  0  0
  6  1  2  0  0  0  0
  7  1  1  0  0  0  0
  9 14  1  6  0  0  0
  9 10  1  0  0  0  0
 10 15  1  1  0  0  0
 10  5  1  0  0  0  0
 11 10  1  0  0  0  0
 12 17  1  0  0  0  0
 12 11  1  0  0  0  0
 13  9  1  0  0  0  0
 13 18  1  1  0  0  0
 13 12  1  0  0  0  0
 16 12  1  0  0  0  0
 19  9  1  0  0  0  0
 20 19  1  0  0  0  0
 21 13  1  0  0  0  0
 22 21  1  0  0  0  0
 23 25  1  0  0  0  0
 24 23  1  0  0  0  0
 26 23  1  0  0  0  0
 26 27  1  0  0  0  0
 27 28  1  0  0  0  0
 29 27  2  0  0  0  0
 30 29  1  0  0  0  0
 31 37  1  0  0  0  0
 31 30  2  0  0  0  0
 32 31  1  0  0  0  0
 33 32  2  0  0  0  0
 33 35  1  0  0  0  0
 34 33  1  0  0  0  0
 35 36  2  0  0  0  0
 36 30  1  0  0  0  0
 36 26  1  0  0  0  0
 37 38  1  0  0  0  0
 39 37  1  0  0  0  0
M  END
>  <minimizedAffinity>
-5.9246664

$$$$

 OpenBabel03252503443D

 39 42  0  0  1  0  0  0  0  0999 V2000
   40.4020   29.7970   41.6250 C   0  0  0  0  0  0  0  0  0  0  0  0
   39.3130   30.6280   41.3050 C   0  0  0  0  0  0  0  0  0  0  0  0
   38.0940   29.9830   41.0320 C   0  0  0  0  0  0  0  0  0  0  0  0
   38.0220   28.6390   41.0880 N   0  0  0  0  0  0  0  0  0  0  0  0
   39.0840   27.8790   41.3970 C   0  0  0  0  0  0  0  0  0  0  0  0
   40.2930   28.4470   41.6720 N   0  0  0  0  0  0  0  0  0  0  0  0
   41.3930   30.1550   41.8560 H   0  0  0  0  0  0  0  0  0  0  0  0
   37.2610   30.6280   40.7860 H   0  0  0  0  0  0  0  0  0  0  0  0
   39.8600   25.7480   42.4210 C   0  0  2  0  0  0  0  0  0  0  0  0
   38.8830   26.4380   41.4430 C   0  0  1  0  0  0  0  0  0  0  0  0
   37.6900   26.0280   41.9700 O   0  0  0  0  0  0  0  0  0  0  0  0
   37.7990   24.6940   42.2450 C   0  0  0  0  0  0  0  0  0  0  0  0
   39.2630   24.3330   42.3160 C   0  0  2  0  0  0  0  0  0  0  0  0
   40.8850   25.7940   42.0560 H   0  0  0  0  0  0  0  0  0  0  0  0
   39.0600   25.9100   40.4780 H   0  0  0  0  0  0  0  0  0  0  0  0
   37.3960   24.5140   43.2800 H   0  0  0  0  0  0  0  0  0  0  0  0
   37.2040   24.0460   41.5820 H   0  0  0  0  0  0  0  0  0  0  0  0
   39.5760   23.8630   41.3760 H   0  0  0  0  0  0  0  0  0  0  0  0
   39.6080   26.1820   43.6830 O   0  0  0  0  0  0  0  0  0  0  0  0
   40.4660   26.5660   44.0490 H   0  0  0  0  0  0  0  0  0  0  0  0
   39.6070   23.5330   43.3780 O   0  0  0  0  0  0  0  0  0  0  0  0
   40.4270   23.0060   43.1280 H   0  0  0  0  0  0  0  0  0  0  0  0
   39.5470   32.0680   41.2860 C   0  0  0  0  0  0  0  0  0  0  0  0
   40.1070   32.3700   42.1960 H   0  0  0  0  0  0  0  0  0  0  0  0
   38.5870   32.6010   41.3430 H   0  0  0  0  0  0  0  0  0  0  0  0
   40.1980   32.5360   40.0750 N   0  0  0  0  0  0  0  0  0  0  0  0
   39.6090   32.4240   38.8650 C   0  0  0  0  0  0  0  0  0  0  0  0
   38.6350   32.0000   38.6310 H   0  0  0  0  0  0  0  0  0  0  0  0
   40.4160   32.9320   37.8990 N   0  0  0  0  0  0  0  0  0  0  0  0
   41.5480   33.3780   38.5170 C   0  0  0  0  0  0  0  0  0  0  0  0
   42.7360   33.9880   38.1130 C   0  0  0  0  0  0  0  0  0  0  0  0
   43.6630   34.2990   39.0310 N   0  0  0  0  0  0  0  0  0  0  0  0
   43.4690   34.0310   40.3360 C   0  0  0  0  0  0  0  0  0  0  0  0
   44.3000   34.3370   40.9550 H   0  0  0  0  0  0  0  0  0  0  0  0
   42.3440   33.4450   40.7820 N   0  0  0  0  0  0  0  0  0  0  0  0
   41.3960   33.1230   39.8830 C   0  0  0  0  0  0  0  0  0  0  0  0
   42.8040   34.2090   36.7110 N   0  0  0  0  0  0  0  0  0  0  0  0
   42.5700   33.4420   36.0280 H   0  0  0  0  0  0  0  0  0  0  0  0
   43.0890   35.1400   36.3360 H   0  0  0  0  0  0  0  0  0  0  0  0
  1  6  1  0  0  0  0
  1  7  1  0  0  0  0
  2  1  2  0  0  0  0
  3  4  2  0  0  0  0
  3  2  1  0  0  0  0
  4  5  1  0  0  0  0
  5 10  1  0  0  0  0
  5  6  2  0  0  0  0
  8  3  1  0  0  0  0
  9 14  1  6  0  0  0
  9 19  1  0  0  0  0
 10 15  1  6  0  0  0
 10 11  1  0  0  0  0
 10  9  1  0  0  0  0
 11 12  1  0  0  0  0
 12 13  1  0  0  0  0
 12 16  1  0  0  0  0
 13 18  1  6  0  0  0
 13  9  1  0  0  0  0
 13 21  1  0  0  0  0
 17 12  1  0  0  0  0
 19 20  1  0  0  0  0
 22 21  1  0  0  0  0
 23  2  1  0  0  0  0
 23 25  1  0  0  0  0
 23 24  1  0  0  0  0
 26 23  1  0  0  0  0
 27 26  1  0  0  0  0
 28 27  1  0  0  0  0
 29 30  1  0  0  0  0
 29 27  2  0  0  0  0
 30 36  1  0  0  0  0
 31 30  2  0  0  0  0
 31 32  1  0  0  0  0
 32 33  2  0  0  0  0
 33 35  1  0  0  0  0
 33 34  1  0  0  0  0
 36 26  1  0  0  0  0
 36 35  2  0  0  0  0
 37 31  1  0  0  0  0
 38 37  1  0  0  0  0
 39 37  1  0  0  0  0
M  END
>  <minimizedAffinity>
-5.76451921

$$$$

 OpenBabel03252503443D

 39 42  0  0  1  0  0  0  0  0999 V2000
   40.1040   31.7220   41.2570 C   0  0  0  0  0  0  0  0  0  0  0  0
   39.4120   32.5860   40.3880 C   0  0  0  0  0  0  0  0  0  0  0  0
   38.0390   32.3350   40.2200 C   0  0  0  0  0  0  0  0  0  0  0  0
   37.4620   31.3100   40.8770 N   0  0  0  0  0  0  0  0  0  0  0  0
   38.1550   30.5060   41.6970 C   0  0  0  0  0  0  0  0  0  0  0  0
   39.4900   30.7000   41.9010 N   0  0  0  0  0  0  0  0  0  0  0  0
   41.1570   31.7980   41.4790 H   0  0  0  0  0  0  0  0  0  0  0  0
   37.5140   33.0030   39.5510 H   0  0  0  0  0  0  0  0  0  0  0  0
   37.5340   28.0990   41.6100 C   0  0  2  0  0  0  0  0  0  0  0  0
   37.4210   29.4420   42.3650 C   0  0  1  0  0  0  0  0  0  0  0  0
   37.9100   29.0680   43.5870 O   0  0  0  0  0  0  0  0  0  0  0  0
   37.3330   27.8720   43.9110 C   0  0  0  0  0  0  0  0  0  0  0  0
   36.8000   27.2350   42.6510 C   0  0  2  0  0  0  0  0  0  0  0  0
   37.0080   28.1350   40.6560 H   0  0  0  0  0  0  0  0  0  0  0  0
   36.3220   29.6080   42.4430 H   0  0  0  0  0  0  0  0  0  0  0  0
   38.1420   27.1800   44.2780 H   0  0  0  0  0  0  0  0  0  0  0  0
   36.6030   27.9310   44.7340 H   0  0  0  0  0  0  0  0  0  0  0  0
   35.7180   27.3990   42.5800 H   0  0  0  0  0  0  0  0  0  0  0  0
   38.8300   27.6920   41.6120 O   0  0  0  0  0  0  0  0  0  0  0  0
   39.1100   27.5630   40.6520 H   0  0  0  0  0  0  0  0  0  0  0  0
   37.0810   25.8960   42.5200 O   0  0  0  0  0  0  0  0  0  0  0  0
   36.3710   25.4770   41.9440 H   0  0  0  0  0  0  0  0  0  0  0  0
   40.1760   33.6520   39.7500 C   0  0  0  0  0  0  0  0  0  0  0  0
   40.6260   34.3080   40.5250 H   0  0  0  0  0  0  0  0  0  0  0  0
   39.5000   34.3010   39.1750 H   0  0  0  0  0  0  0  0  0  0  0  0
   41.1730   33.1720   38.8090 N   0  0  0  0  0  0  0  0  0  0  0  0
   40.8300   32.4430   37.7250 C   0  0  0  0  0  0  0  0  0  0  0  0
   39.8350   32.1290   37.4160 H   0  0  0  0  0  0  0  0  0  0  0  0
   41.9350   32.1170   37.0080 N   0  0  0  0  0  0  0  0  0  0  0  0
   43.0070   32.6560   37.6570 C   0  0  0  0  0  0  0  0  0  0  0  0
   44.3870   32.6900   37.4560 C   0  0  0  0  0  0  0  0  0  0  0  0
   45.1660   33.3400   38.3340 N   0  0  0  0  0  0  0  0  0  0  0  0
   44.6390   33.9600   39.4070 C   0  0  0  0  0  0  0  0  0  0  0  0
   45.3870   34.4390   40.0220 H   0  0  0  0  0  0  0  0  0  0  0  0
   43.3170   33.9600   39.6510 N   0  0  0  0  0  0  0  0  0  0  0  0
   42.5120   33.3160   38.7870 C   0  0  0  0  0  0  0  0  0  0  0  0
   44.8010   31.9960   36.2870 N   0  0  0  0  0  0  0  0  0  0  0  0
   44.4540   31.0220   36.0820 H   0  0  0  0  0  0  0  0  0  0  0  0
   45.4570   32.4430   35.6110 H   0  0  0  0  0  0  0  0  0  0  0  0
  1  7  1  0  0  0  0
  1  6  1  0  0  0  0
  2  1  2  0  0  0  0
  3  2  1  0  0  0  0
  3  4  2  0  0  0  0
  4  5  1  0  0  0  0
  5  6  2  0  0  0  0
  5 10  1  0  0  0  0
  8  3  1  0  0  0  0
  9 14  1  6  0  0  0
  9 19  1  0  0  0  0
  9 10  1  0  0  0  0
  9 13  1  0  0  0  0
 10 15  1  1  0  0  0
 10 11  1  0  0  0  0
 11 12  1  0  0  0  0
 12 16  1  0  0  0  0
 12 17  1  0  0  0  0
 13 18  1  6  0  0  0
 13 12  1  0  0  0  0
 20 19  1  0  0  0  0
 21 13  1  0  0  0  0
 22 21  1  0  0  0  0
 23  2  1  0  0  0  0
 23 24  1  0  0  0  0
 25 23  1  0  0  0  0
 26 23  1  0  0  0  0
 27 26  1  0  0  0  0
 28 27  1  0  0  0  0
 29 30  1  0  0  0  0
 29 27  2  0  0  0  0
 30 36  1  0  0  0  0
 31 30  2  0  0  0  0
 31 32  1  0  0  0  0
 32 33  2  0  0  0  0
 33 35  1  0  0  0  0
 33 34  1  0  0  0  0
 36 26  1  0  0  0  0
 36 35  2  0  0  0  0
 37 31  1  0  0  0  0
 38 37  1  0  0  0  0
 39 37  1  0  0  0  0
M  END
>  <minimizedAffinity>
-5.70826817

$$$$
