
 OpenBabel03252502073D

 53 58  0  0  0  0  0  0  0  0999 V2000
   45.6960   33.8330   45.3360 C   0  0  0  0  0  0  0  0  0  0  0  0
   44.7730   34.7370   45.6940 N   0  0  0  0  0  0  0  0  0  0  0  0
   44.4430   35.8150   44.9940 C   0  0  0  0  0  0  0  0  0  0  0  0
   45.0540   36.0680   43.8220 N   0  0  0  0  0  0  0  0  0  0  0  0
   45.9980   35.2430   43.3470 C   0  0  0  0  0  0  0  0  0  0  0  0
   46.6280   35.4970   42.1460 C   0  0  0  0  0  0  0  0  0  0  0  0
   47.5860   34.6670   41.6540 C   0  0  0  0  0  0  0  0  0  0  0  0
   47.9150   33.5490   42.3980 C   0  0  0  0  0  0  0  0  0  0  0  0
   47.2500   33.3380   43.6050 C   0  0  0  0  0  0  0  0  0  0  0  0
   46.2950   34.1390   44.1230 C   0  0  0  0  0  0  0  0  0  0  0  0
   43.6860   36.5160   45.3320 H   0  0  0  0  0  0  0  0  0  0  0  0
   46.3460   36.3800   41.5900 H   0  0  0  0  0  0  0  0  0  0  0  0
   48.0590   34.8930   40.7150 H   0  0  0  0  0  0  0  0  0  0  0  0
   47.5640   32.0060   47.8360 C   0  0  0  0  0  0  0  0  0  0  0  0
   47.0640   30.6990   47.8190 C   0  0  0  0  0  0  0  0  0  0  0  0
   46.0450   30.4370   46.9350 C   0  0  0  0  0  0  0  0  0  0  0  0
   45.5890   31.4060   46.1480 N   0  0  0  0  0  0  0  0  0  0  0  0
   46.0460   32.6410   46.1440 C   0  0  0  0  0  0  0  0  0  0  0  0
   47.0480   32.9250   47.0100 N   0  0  0  0  0  0  0  0  0  0  0  0
   45.5020   29.1750   46.8840 N   0  0  0  0  0  0  0  0  0  0  0  0
   44.2910   28.8260   46.0880 C   0  0  0  0  0  0  0  0  0  0  0  0
   44.2320   27.3210   46.0750 C   0  0  0  0  0  0  0  0  0  0  0  0
   44.9230   26.9490   47.3430 C   0  0  0  0  0  0  0  0  0  0  0  0
   45.9590   28.0000   47.5530 C   0  0  0  0  0  0  0  0  0  0  0  0
   48.3720   32.2600   48.5250 H   0  0  0  0  0  0  0  0  0  0  0  0
   43.3990   29.2690   46.5630 H   0  0  0  0  0  0  0  0  0  0  0  0
   44.4720   29.2620   45.0760 H   0  0  0  0  0  0  0  0  0  0  0  0
   44.7520   26.8740   45.2170 H   0  0  0  0  0  0  0  0  0  0  0  0
   43.1760   26.9510   46.0920 H   0  0  0  0  0  0  0  0  0  0  0  0
   44.1500   26.9070   48.1380 H   0  0  0  0  0  0  0  0  0  0  0  0
   45.3750   25.9210   47.2970 H   0  0  0  0  0  0  0  0  0  0  0  0
   45.9810   28.0980   48.6810 H   0  0  0  0  0  0  0  0  0  0  0  0
   46.9120   27.6170   47.1800 H   0  0  0  0  0  0  0  0  0  0  0  0
   47.6440   29.7820   48.6550 N   0  0  0  0  0  0  0  0  0  0  0  0
   47.1660   29.9820   49.5820 H   0  0  0  0  0  0  0  0  0  0  0  0
   48.3830   29.0660   48.4070 H   0  0  0  0  0  0  0  0  0  0  0  0
   48.9170   32.7040   41.8570 N   0  0  0  0  0  0  0  0  0  0  0  0
   49.8660   31.9480   42.4670 C   0  0  0  0  0  0  0  0  0  0  0  0
   49.9700   31.9040   43.5340 H   0  0  0  0  0  0  0  0  0  0  0  0
   50.5750   31.3270   41.5010 N   0  0  0  0  0  0  0  0  0  0  0  0
   50.0990   31.6680   40.2770 C   0  0  0  0  0  0  0  0  0  0  0  0
   50.4860   31.3020   39.0210 C   0  0  0  0  0  0  0  0  0  0  0  0
   49.8140   31.8120   37.9770 N   0  0  0  0  0  0  0  0  0  0  0  0
   48.7830   32.6680   38.2230 C   0  0  0  0  0  0  0  0  0  0  0  0
   48.1920   33.1220   37.4110 H   0  0  0  0  0  0  0  0  0  0  0  0
   48.3800   33.0490   39.4390 N   0  0  0  0  0  0  0  0  0  0  0  0
   49.0370   32.5510   40.5080 C   0  0  0  0  0  0  0  0  0  0  0  0
   51.5450   30.4200   38.7560 N   0  0  0  0  0  0  0  0  0  0  0  0
   51.9880   29.6240   39.2430 H   0  0  0  0  0  0  0  0  0  0  0  0
   52.1400   30.4220   37.9110 H   0  0  0  0  0  0  0  0  0  0  0  0
   47.7190   32.1370   44.2340 N   0  0  0  0  0  0  0  0  0  0  0  0
   48.4540   31.9200   44.9380 H   0  0  0  0  0  0  0  0  0  0  0  0
   47.1140   31.4040   43.7990 H   0  0  0  0  0  0  0  0  0  0  0  0
  1  2  1  0  0  0  0
  1 18  1  0  0  0  0
  3 11  1  0  0  0  0
  3  2  2  0  0  0  0
  4  3  1  0  0  0  0
  5  4  2  0  0  0  0
  5 10  1  0  0  0  0
  6  5  1  0  0  0  0
  7  6  2  0  0  0  0
  7  8  1  0  0  0  0
  8  9  2  0  0  0  0
  9 10  1  0  0  0  0
  9 51  1  0  0  0  0
 10  1  2  0  0  0  0
 12  6  1  0  0  0  0
 13  7  1  0  0  0  0
 14 25  1  0  0  0  0
 15 14  1  0  0  0  0
 15 34  1  0  0  0  0
 16 15  2  0  0  0  0
 17 16  1  0  0  0  0
 18 17  2  0  0  0  0
 18 19  1  0  0  0  0
 19 14  2  0  0  0  0
 20 16  1  0  0  0  0
 20 24  1  0  0  0  0
 21 26  1  0  0  0  0
 21 20  1  0  0  0  0
 22 21  1  0  0  0  0
 22 29  1  0  0  0  0
 22 23  1  0  0  0  0
 23 24  1  0  0  0  0
 23 30  1  0  0  0  0
 24 32  1  0  0  0  0
 27 21  1  0  0  0  0
 28 22  1  0  0  0  0
 31 23  1  0  0  0  0
 33 24  1  0  0  0  0
 34 35  1  0  0  0  0
 36 34  1  0  0  0  0
 37  8  1  0  0  0  0
 37 38  1  0  0  0  0
 38 39  1  0  0  0  0
 40 38  2  0  0  0  0
 41 47  1  0  0  0  0
 41 40  1  0  0  0  0
 42 41  2  0  0  0  0
 43 44  2  0  0  0  0
 43 42  1  0  0  0  0
 44 46  1  0  0  0  0
 45 44  1  0  0  0  0
 46 47  2  0  0  0  0
 47 37  1  0  0  0  0
 48 42  1  0  0  0  0
 48 49  1  0  0  0  0
 50 48  1  0  0  0  0
 51 52  1  0  0  0  0
 53 51  1  0  0  0  0
M  END
>  <minimizedAffinity>
-7.45290422

>  <minimizedRMSD>
0.562785208

$$$$
