
 OpenBabel03252502453D

 36 39  0  0  1  0  0  0  0  0999 V2000
   36.5050   28.4680   41.0610 C   0  0  1  0  0  0  0  0  0  0  0  0
   35.2170   29.0030   40.5190 C   0  0  0  0  0  0  0  0  0  0  0  0
   36.3040   29.9130   40.9300 C   0  0  2  0  0  0  0  0  0  0  0  0
   37.1910   27.8930   40.3760 H   0  0  0  0  0  0  0  0  0  0  0  0
   34.2560   28.8870   41.0600 H   0  0  0  0  0  0  0  0  0  0  0  0
   35.0470   28.7450   39.4510 H   0  0  0  0  0  0  0  0  0  0  0  0
   36.3450   30.7030   41.6400 H   0  0  0  0  0  0  0  0  0  0  0  0
   37.0120   30.4580   39.7510 N   0  0  0  0  0  0  0  0  0  0  0  0
   36.5330   30.4610   38.4880 C   0  0  0  0  0  0  0  0  0  0  0  0
   35.5520   30.0500   38.2040 H   0  0  0  0  0  0  0  0  0  0  0  0
   37.4640   31.0370   37.7170 N   0  0  0  0  0  0  0  0  0  0  0  0
   38.5240   31.4010   38.4680 C   0  0  0  0  0  0  0  0  0  0  0  0
   39.7280   32.0160   38.1950 C   0  0  0  0  0  0  0  0  0  0  0  0
   40.6090   32.2520   39.1890 N   0  0  0  0  0  0  0  0  0  0  0  0
   40.3160   31.8860   40.4610 C   0  0  0  0  0  0  0  0  0  0  0  0
   41.0640   32.0980   41.2360 H   0  0  0  0  0  0  0  0  0  0  0  0
   39.1470   31.2840   40.7440 N   0  0  0  0  0  0  0  0  0  0  0  0
   38.2310   31.0300   39.7640 C   0  0  0  0  0  0  0  0  0  0  0  0
   39.9390   32.3620   36.8270 N   0  0  0  0  0  0  0  0  0  0  0  0
   39.8090   31.7300   35.9930 H   0  0  0  0  0  0  0  0  0  0  0  0
   40.2590   33.3470   36.5880 H   0  0  0  0  0  0  0  0  0  0  0  0
   36.4860   27.8980   42.4410 C   0  0  0  0  0  0  0  0  0  0  0  0
   36.2160   26.8350   42.4610 H   0  0  0  0  0  0  0  0  0  0  0  0
   35.7270   28.5340   42.9950 H   0  0  0  0  0  0  0  0  0  0  0  0
   37.8680   28.1450   43.0140 C   0  0  0  0  0  0  0  0  0  0  0  0
   37.7210   28.2260   44.1370 H   0  0  0  0  0  0  0  0  0  0  0  0
   38.4140   28.9620   42.5700 H   0  0  0  0  0  0  0  0  0  0  0  0
   40.4900   25.5430   43.6950 C   0  0  0  0  0  0  0  0  0  0  0  0
   39.8060   26.7920   43.7040 C   0  0  0  0  0  0  0  0  0  0  0  0
   38.5960   26.8460   43.0740 C   0  0  0  0  0  0  0  0  0  0  0  0
   38.0990   25.7260   42.4770 N   0  0  0  0  0  0  0  0  0  0  0  0
   38.7480   24.5750   42.4790 C   0  0  0  0  0  0  0  0  0  0  0  0
   39.9370   24.4770   43.0810 N   0  0  0  0  0  0  0  0  0  0  0  0
   41.4540   25.3920   44.1620 H   0  0  0  0  0  0  0  0  0  0  0  0
   40.3660   27.5350   44.2400 H   0  0  0  0  0  0  0  0  0  0  0  0
   38.2730   23.7420   41.9780 H   0  0  0  0  0  0  0  0  0  0  0  0
  1  4  1  6  0  0  0
  1 22  1  0  0  0  0
  2  3  1  0  0  0  0
  2  5  1  0  0  0  0
  2  1  1  0  0  0  0
  3  1  1  0  0  0  0
  3  7  1  1  0  0  0
  6  2  1  0  0  0  0
  8 18  1  0  0  0  0
  8  3  1  0  0  0  0
  9  8  1  0  0  0  0
 10  9  1  0  0  0  0
 11 12  1  0  0  0  0
 11  9  2  0  0  0  0
 12 18  1  0  0  0  0
 13 12  2  0  0  0  0
 13 14  1  0  0  0  0
 14 15  2  0  0  0  0
 15 17  1  0  0  0  0
 15 16  1  0  0  0  0
 18 17  2  0  0  0  0
 19 13  1  0  0  0  0
 20 19  1  0  0  0  0
 21 19  1  0  0  0  0
 22 23  1  0  0  0  0
 22 24  1  0  0  0  0
 22 25  1  0  0  0  0
 25 30  1  0  0  0  0
 25 26  1  0  0  0  0
 27 25  1  0  0  0  0
 28 29  1  0  0  0  0
 28 34  1  0  0  0  0
 29 35  1  0  0  0  0
 30 29  2  0  0  0  0
 31 32  2  0  0  0  0
 31 30  1  0  0  0  0
 32 33  1  0  0  0  0
 33 28  2  0  0  0  0
 36 32  1  0  0  0  0
M  END
>  <minimizedAffinity>
-5.83445883

$$$$

 OpenBabel03252502453D

 36 39  0  0  1  0  0  0  0  0999 V2000
   38.2230   28.6820   43.1290 C   0  0  1  0  0  0  0  0  0  0  0  0
   39.5360   29.3930   43.0250 C   0  0  0  0  0  0  0  0  0  0  0  0
   38.7560   29.0560   41.8180 C   0  0  2  0  0  0  0  0  0  0  0  0
   37.3460   29.2150   43.5960 H   0  0  0  0  0  0  0  0  0  0  0  0
   40.4910   28.9080   43.3110 H   0  0  0  0  0  0  0  0  0  0  0  0
   39.5190   30.4140   43.4620 H   0  0  0  0  0  0  0  0  0  0  0  0
   38.9880   28.4810   40.9540 H   0  0  0  0  0  0  0  0  0  0  0  0
   38.0790   30.2540   41.2750 N   0  0  0  0  0  0  0  0  0  0  0  0
   36.7410   30.4170   41.1790 C   0  0  0  0  0  0  0  0  0  0  0  0
   36.0080   29.6620   41.5000 H   0  0  0  0  0  0  0  0  0  0  0  0
   36.5320   31.6240   40.6390 N   0  0  0  0  0  0  0  0  0  0  0  0
   37.7110   32.2300   40.3920 C   0  0  0  0  0  0  0  0  0  0  0  0
   38.0710   33.4500   39.8560 C   0  0  0  0  0  0  0  0  0  0  0  0
   39.3720   33.7790   39.7340 N   0  0  0  0  0  0  0  0  0  0  0  0
   40.3360   32.9130   40.1350 C   0  0  0  0  0  0  0  0  0  0  0  0
   41.3820   33.2250   40.0150 H   0  0  0  0  0  0  0  0  0  0  0  0
   40.0020   31.7200   40.6580 N   0  0  0  0  0  0  0  0  0  0  0  0
   38.6950   31.3530   40.7980 C   0  0  0  0  0  0  0  0  0  0  0  0
   36.9840   34.2870   39.4660 N   0  0  0  0  0  0  0  0  0  0  0  0
   36.1590   34.0080   38.8700 H   0  0  0  0  0  0  0  0  0  0  0  0
   36.9710   35.3000   39.7900 H   0  0  0  0  0  0  0  0  0  0  0  0
   38.2520   27.2330   43.4910 C   0  0  0  0  0  0  0  0  0  0  0  0
   38.1870   27.0600   44.5720 H   0  0  0  0  0  0  0  0  0  0  0  0
   39.2350   26.8590   43.0650 H   0  0  0  0  0  0  0  0  0  0  0  0
   37.1000   26.5920   42.7410 C   0  0  0  0  0  0  0  0  0  0  0  0
   36.8910   27.2780   41.8610 H   0  0  0  0  0  0  0  0  0  0  0  0
   36.2360   26.3490   43.3410 H   0  0  0  0  0  0  0  0  0  0  0  0
   37.3890   23.3550   40.8570 C   0  0  0  0  0  0  0  0  0  0  0  0
   36.8220   24.4220   41.6120 C   0  0  0  0  0  0  0  0  0  0  0  0
   37.6360   25.4770   41.9100 C   0  0  0  0  0  0  0  0  0  0  0  0
   38.9300   25.4700   41.4830 N   0  0  0  0  0  0  0  0  0  0  0  0
   39.4390   24.4710   40.7820 C   0  0  0  0  0  0  0  0  0  0  0  0
   38.6800   23.4170   40.4700 N   0  0  0  0  0  0  0  0  0  0  0  0
   36.8340   22.4730   40.5690 H   0  0  0  0  0  0  0  0  0  0  0  0
   35.7890   24.2320   41.8320 H   0  0  0  0  0  0  0  0  0  0  0  0
   40.4770   24.5560   40.4880 H   0  0  0  0  0  0  0  0  0  0  0  0
  1 22  1  0  0  0  0
  1  4  1  1  0  0  0
  2  1  1  0  0  0  0
  2  5  1  0  0  0  0
  2  6  1  0  0  0  0
  3  7  1  6  0  0  0
  3  2  1  0  0  0  0
  3  1  1  0  0  0  0
  8  3  1  0  0  0  0
  9  8  1  0  0  0  0
  9 10  1  0  0  0  0
 11  9  2  0  0  0  0
 12 11  1  0  0  0  0
 12 18  1  0  0  0  0
 13 12  2  0  0  0  0
 14 13  1  0  0  0  0
 14 15  2  0  0  0  0
 15 17  1  0  0  0  0
 16 15  1  0  0  0  0
 17 18  2  0  0  0  0
 18  8  1  0  0  0  0
 19 21  1  0  0  0  0
 19 13  1  0  0  0  0
 20 19  1  0  0  0  0
 22 23  1  0  0  0  0
 24 22  1  0  0  0  0
 25 27  1  0  0  0  0
 25 22  1  0  0  0  0
 26 25  1  0  0  0  0
 28 29  1  0  0  0  0
 29 35  1  0  0  0  0
 29 30  2  0  0  0  0
 30 25  1  0  0  0  0
 31 30  1  0  0  0  0
 32 31  2  0  0  0  0
 33 32  1  0  0  0  0
 33 28  2  0  0  0  0
 34 28  1  0  0  0  0
 36 32  1  0  0  0  0
M  END
>  <minimizedAffinity>
-5.61658096

$$$$

 OpenBabel03252502453D

 36 39  0  0  1  0  0  0  0  0999 V2000
   36.7940   27.3230   42.4810 C   0  0  1  0  0  0  0  0  0  0  0  0
   37.3160   28.1330   43.6260 C   0  0  0  0  0  0  0  0  0  0  0  0
   37.8920   28.2700   42.2730 C   0  0  2  0  0  0  0  0  0  0  0  0
   35.7510   27.5200   42.1010 H   0  0  0  0  0  0  0  0  0  0  0  0
   37.8380   27.6680   44.4870 H   0  0  0  0  0  0  0  0  0  0  0  0
   36.5790   28.8640   44.0210 H   0  0  0  0  0  0  0  0  0  0  0  0
   38.8790   28.1430   41.9000 H   0  0  0  0  0  0  0  0  0  0  0  0
   37.4250   29.5140   41.6240 N   0  0  0  0  0  0  0  0  0  0  0  0
   36.1630   29.7450   41.1970 C   0  0  0  0  0  0  0  0  0  0  0  0
   35.3430   29.0180   41.2920 H   0  0  0  0  0  0  0  0  0  0  0  0
   36.1480   30.9750   40.6700 N   0  0  0  0  0  0  0  0  0  0  0  0
   37.3730   31.5300   40.7550 C   0  0  0  0  0  0  0  0  0  0  0  0
   37.9060   32.7460   40.3770 C   0  0  0  0  0  0  0  0  0  0  0  0
   39.2080   33.0150   40.6030 N   0  0  0  0  0  0  0  0  0  0  0  0
   40.0010   32.0920   41.2010 C   0  0  0  0  0  0  0  0  0  0  0  0
   41.0550   32.3560   41.3640 H   0  0  0  0  0  0  0  0  0  0  0  0
   39.4980   30.9020   41.5750 N   0  0  0  0  0  0  0  0  0  0  0  0
   38.1850   30.5950   41.3630 C   0  0  0  0  0  0  0  0  0  0  0  0
   36.9890   33.6450   39.7560 N   0  0  0  0  0  0  0  0  0  0  0  0
   36.3340   33.4230   38.9600 H   0  0  0  0  0  0  0  0  0  0  0  0
   36.9340   34.6480   40.1070 H   0  0  0  0  0  0  0  0  0  0  0  0
   37.1320   25.8690   42.4570 C   0  0  0  0  0  0  0  0  0  0  0  0
   36.2540   25.2230   42.5760 H   0  0  0  0  0  0  0  0  0  0  0  0
   37.8670   25.7390   43.3110 H   0  0  0  0  0  0  0  0  0  0  0  0
   37.8420   25.6260   41.1380 C   0  0  0  0  0  0  0  0  0  0  0  0
   38.4380   24.6720   41.2850 H   0  0  0  0  0  0  0  0  0  0  0  0
   38.4110   26.4610   40.7590 H   0  0  0  0  0  0  0  0  0  0  0  0
   35.6360   25.0930   38.1460 C   0  0  0  0  0  0  0  0  0  0  0  0
   36.6060   25.6760   39.0090 C   0  0  0  0  0  0  0  0  0  0  0  0
   36.8710   25.0260   40.1800 C   0  0  0  0  0  0  0  0  0  0  0  0
   36.2130   23.8680   40.4700 N   0  0  0  0  0  0  0  0  0  0  0  0
   35.3160   23.3410   39.6550 C   0  0  0  0  0  0  0  0  0  0  0  0
   35.0230   23.9440   38.5000 N   0  0  0  0  0  0  0  0  0  0  0  0
   35.3500   25.5260   37.1970 H   0  0  0  0  0  0  0  0  0  0  0  0
   37.0100   26.5750   38.5840 H   0  0  0  0  0  0  0  0  0  0  0  0
   34.8460   22.4190   39.9720 H   0  0  0  0  0  0  0  0  0  0  0  0
  1  4  1  6  0  0  0
  1  2  1  0  0  0  0
  2  6  1  0  0  0  0
  2  5  1  0  0  0  0
  3  7  1  6  0  0  0
  3  1  1  0  0  0  0
  3  2  1  0  0  0  0
  8  3  1  0  0  0  0
  9 10  1  0  0  0  0
  9  8  1  0  0  0  0
 11 12  1  0  0  0  0
 11  9  2  0  0  0  0
 12 18  1  0  0  0  0
 13 14  1  0  0  0  0
 13 12  2  0  0  0  0
 14 15  2  0  0  0  0
 15 16  1  0  0  0  0
 15 17  1  0  0  0  0
 18 17  2  0  0  0  0
 18  8  1  0  0  0  0
 19 21  1  0  0  0  0
 19 13  1  0  0  0  0
 20 19  1  0  0  0  0
 22  1  1  0  0  0  0
 22 23  1  0  0  0  0
 22 24  1  0  0  0  0
 25 26  1  0  0  0  0
 25 22  1  0  0  0  0
 27 25  1  0  0  0  0
 28 33  2  0  0  0  0
 28 29  1  0  0  0  0
 29 30  2  0  0  0  0
 30 31  1  0  0  0  0
 30 25  1  0  0  0  0
 32 36  1  0  0  0  0
 32 31  2  0  0  0  0
 33 32  1  0  0  0  0
 34 28  1  0  0  0  0
 35 29  1  0  0  0  0
M  END
>  <minimizedAffinity>
-5.57679892

$$$$

 OpenBabel03252502453D

 36 39  0  0  1  0  0  0  0  0999 V2000
   36.8820   31.2390   39.4710 C   0  0  1  0  0  0  0  0  0  0  0  0
   37.1670   32.4620   40.2840 C   0  0  0  0  0  0  0  0  0  0  0  0
   38.2040   31.4320   40.0700 C   0  0  2  0  0  0  0  0  0  0  0  0
   36.7030   31.3460   38.3630 H   0  0  0  0  0  0  0  0  0  0  0  0
   36.6650   32.6550   41.2540 H   0  0  0  0  0  0  0  0  0  0  0  0
   37.1490   33.4000   39.6900 H   0  0  0  0  0  0  0  0  0  0  0  0
   38.7720   30.8380   40.7450 H   0  0  0  0  0  0  0  0  0  0  0  0
   39.1970   31.8810   39.0700 N   0  0  0  0  0  0  0  0  0  0  0  0
   39.3150   31.3940   37.8160 C   0  0  0  0  0  0  0  0  0  0  0  0
   38.6740   30.5990   37.4050 H   0  0  0  0  0  0  0  0  0  0  0  0
   40.3230   32.0540   37.2330 N   0  0  0  0  0  0  0  0  0  0  0  0
   40.8450   32.9520   38.0920 C   0  0  0  0  0  0  0  0  0  0  0  0
   41.8710   33.8720   38.0150 C   0  0  0  0  0  0  0  0  0  0  0  0
   42.1630   34.6510   39.0750 N   0  0  0  0  0  0  0  0  0  0  0  0
   41.4520   34.5350   40.2240 C   0  0  0  0  0  0  0  0  0  0  0  0
   41.7270   35.1910   41.0610 H   0  0  0  0  0  0  0  0  0  0  0  0
   40.4490   33.6440   40.3160 N   0  0  0  0  0  0  0  0  0  0  0  0
   40.1250   32.8390   39.2630 C   0  0  0  0  0  0  0  0  0  0  0  0
   42.5570   33.9150   36.7650 N   0  0  0  0  0  0  0  0  0  0  0  0
   42.9450   33.0910   36.2330 H   0  0  0  0  0  0  0  0  0  0  0  0
   42.7090   34.8550   36.2930 H   0  0  0  0  0  0  0  0  0  0  0  0
   36.0010   30.1980   40.0800 C   0  0  0  0  0  0  0  0  0  0  0  0
   34.9330   30.4080   39.9450 H   0  0  0  0  0  0  0  0  0  0  0  0
   36.2910   30.1940   41.1770 H   0  0  0  0  0  0  0  0  0  0  0  0
   36.4060   28.8820   39.4440 C   0  0  0  0  0  0  0  0  0  0  0  0
   37.4800   29.0260   39.1060 H   0  0  0  0  0  0  0  0  0  0  0  0
   35.7380   28.5120   38.6810 H   0  0  0  0  0  0  0  0  0  0  0  0
   37.5050   25.7790   41.2520 C   0  0  0  0  0  0  0  0  0  0  0  0
   37.2450   26.6910   40.1900 C   0  0  0  0  0  0  0  0  0  0  0  0
   36.7410   27.9150   40.5270 C   0  0  0  0  0  0  0  0  0  0  0  0
   36.5130   28.2100   41.8370 N   0  0  0  0  0  0  0  0  0  0  0  0
   36.7610   27.3510   42.8110 C   0  0  0  0  0  0  0  0  0  0  0  0
   37.2520   26.1410   42.5280 N   0  0  0  0  0  0  0  0  0  0  0  0
   37.9010   24.7850   41.0970 H   0  0  0  0  0  0  0  0  0  0  0  0
   37.5080   26.2630   39.2410 H   0  0  0  0  0  0  0  0  0  0  0  0
   36.5470   27.6770   43.8200 H   0  0  0  0  0  0  0  0  0  0  0  0
  1  4  1  6  0  0  0
  1  3  1  0  0  0  0
  1 22  1  0  0  0  0
  1  2  1  0  0  0  0
  2  5  1  0  0  0  0
  3  2  1  0  0  0  0
  3  7  1  1  0  0  0
  6  2  1  0  0  0  0
  8 18  1  0  0  0  0
  8  3  1  0  0  0  0
  9  8  1  0  0  0  0
 10  9  1  0  0  0  0
 11  9  2  0  0  0  0
 11 12  1  0  0  0  0
 12 18  1  0  0  0  0
 13 12  2  0  0  0  0
 13 14  1  0  0  0  0
 14 15  2  0  0  0  0
 15 17  1  0  0  0  0
 15 16  1  0  0  0  0
 18 17  2  0  0  0  0
 19 13  1  0  0  0  0
 20 19  1  0  0  0  0
 21 19  1  0  0  0  0
 22 24  1  0  0  0  0
 23 22  1  0  0  0  0
 25 22  1  0  0  0  0
 25 30  1  0  0  0  0
 26 25  1  0  0  0  0
 27 25  1  0  0  0  0
 28 33  1  0  0  0  0
 29 30  1  0  0  0  0
 29 28  2  0  0  0  0
 30 31  2  0  0  0  0
 31 32  1  0  0  0  0
 32 36  1  0  0  0  0
 33 32  2  0  0  0  0
 34 28  1  0  0  0  0
 35 29  1  0  0  0  0
M  END
>  <minimizedAffinity>
-5.53554106

$$$$

 OpenBabel03252502453D

 36 39  0  0  1  0  0  0  0  0999 V2000
   37.7060   29.8870   41.1140 C   0  0  1  0  0  0  0  0  0  0  0  0
   36.7630   30.9230   40.5860 C   0  0  0  0  0  0  0  0  0  0  0  0
   38.1190   31.2900   41.0440 C   0  0  2  0  0  0  0  0  0  0  0  0
   38.1110   29.1060   40.4100 H   0  0  0  0  0  0  0  0  0  0  0  0
   35.8270   31.1920   41.1160 H   0  0  0  0  0  0  0  0  0  0  0  0
   36.5280   30.7960   39.5080 H   0  0  0  0  0  0  0  0  0  0  0  0
   38.4630   31.9680   41.7870 H   0  0  0  0  0  0  0  0  0  0  0  0
   39.0150   31.5390   39.8940 N   0  0  0  0  0  0  0  0  0  0  0  0
   39.1760   30.7120   38.8370 C   0  0  0  0  0  0  0  0  0  0  0  0
   38.6470   29.7530   38.7240 H   0  0  0  0  0  0  0  0  0  0  0  0
   40.0650   31.2890   38.0200 N   0  0  0  0  0  0  0  0  0  0  0  0
   40.4710   32.4660   38.5370 C   0  0  0  0  0  0  0  0  0  0  0  0
   41.3530   33.4440   38.1230 C   0  0  0  0  0  0  0  0  0  0  0  0
   41.5520   34.5410   38.8820 N   0  0  0  0  0  0  0  0  0  0  0  0
   40.8890   34.6890   40.0560 C   0  0  0  0  0  0  0  0  0  0  0  0
   41.0850   35.5980   40.6390 H   0  0  0  0  0  0  0  0  0  0  0  0
   40.0280   33.7450   40.4740 N   0  0  0  0  0  0  0  0  0  0  0  0
   39.8000   32.6220   39.7320 C   0  0  0  0  0  0  0  0  0  0  0  0
   41.9980   33.1940   36.8760 N   0  0  0  0  0  0  0  0  0  0  0  0
   42.4900   32.3050   36.5910 H   0  0  0  0  0  0  0  0  0  0  0  0
   42.0030   33.9570   36.1360 H   0  0  0  0  0  0  0  0  0  0  0  0
   37.4220   29.3250   42.4680 C   0  0  0  0  0  0  0  0  0  0  0  0
   36.7350   29.9480   43.0540 H   0  0  0  0  0  0  0  0  0  0  0  0
   38.4420   29.2510   42.9590 H   0  0  0  0  0  0  0  0  0  0  0  0
   36.8690   27.9320   42.2360 C   0  0  0  0  0  0  0  0  0  0  0  0
   36.9930   27.7380   41.1240 H   0  0  0  0  0  0  0  0  0  0  0  0
   35.8730   27.7600   42.6160 H   0  0  0  0  0  0  0  0  0  0  0  0
   39.8180   26.3340   43.9260 C   0  0  0  0  0  0  0  0  0  0  0  0
   38.8250   27.2980   43.5900 C   0  0  0  0  0  0  0  0  0  0  0  0
   37.8960   26.9380   42.6560 C   0  0  0  0  0  0  0  0  0  0  0  0
   37.9520   25.6970   42.0950 N   0  0  0  0  0  0  0  0  0  0  0  0
   38.8810   24.8150   42.4200 C   0  0  0  0  0  0  0  0  0  0  0  0
   39.8120   25.1250   43.3270 N   0  0  0  0  0  0  0  0  0  0  0  0
   40.6000   26.5170   44.6500 H   0  0  0  0  0  0  0  0  0  0  0  0
   38.9550   28.2000   44.1570 H   0  0  0  0  0  0  0  0  0  0  0  0
   38.8440   23.8550   41.9210 H   0  0  0  0  0  0  0  0  0  0  0  0
  1  4  1  6  0  0  0
  1 22  1  0  0  0  0
  2  3  1  0  0  0  0
  2  1  1  0  0  0  0
  2  5  1  0  0  0  0
  3  1  1  0  0  0  0
  3  7  1  1  0  0  0
  6  2  1  0  0  0  0
  8  3  1  0  0  0  0
  9  8  1  0  0  0  0
 10  9  1  0  0  0  0
 11 12  1  0  0  0  0
 11  9  2  0  0  0  0
 12 18  1  0  0  0  0
 13 12  2  0  0  0  0
 13 14  1  0  0  0  0
 14 15  2  0  0  0  0
 15 17  1  0  0  0  0
 15 16  1  0  0  0  0
 18  8  1  0  0  0  0
 18 17  2  0  0  0  0
 19 13  1  0  0  0  0
 20 19  1  0  0  0  0
 21 19  1  0  0  0  0
 22 24  1  0  0  0  0
 22 23  1  0  0  0  0
 25 22  1  0  0  0  0
 25 27  1  0  0  0  0
 25 30  1  0  0  0  0
 26 25  1  0  0  0  0
 28 34  1  0  0  0  0
 29 28  1  0  0  0  0
 29 35  1  0  0  0  0
 30 29  2  0  0  0  0
 31 32  2  0  0  0  0
 31 30  1  0  0  0  0
 32 33  1  0  0  0  0
 33 28  2  0  0  0  0
 36 32  1  0  0  0  0
M  END
>  <minimizedAffinity>
-5.46545172

$$$$

 OpenBabel03252502453D

 36 39  0  0  1  0  0  0  0  0999 V2000
   37.0010   27.6930   42.5260 C   0  0  1  0  0  0  0  0  0  0  0  0
   37.4270   28.5940   43.6430 C   0  0  0  0  0  0  0  0  0  0  0  0
   38.0620   28.6800   42.3120 C   0  0  2  0  0  0  0  0  0  0  0  0
   35.9710   27.8140   42.0870 H   0  0  0  0  0  0  0  0  0  0  0  0
   37.9270   28.2080   44.5530 H   0  0  0  0  0  0  0  0  0  0  0  0
   36.6370   29.3090   43.9570 H   0  0  0  0  0  0  0  0  0  0  0  0
   39.0710   28.5820   41.9930 H   0  0  0  0  0  0  0  0  0  0  0  0
   37.5680   29.8590   41.5670 N   0  0  0  0  0  0  0  0  0  0  0  0
   36.3060   30.0220   41.1140 C   0  0  0  0  0  0  0  0  0  0  0  0
   35.5030   29.2830   41.2570 H   0  0  0  0  0  0  0  0  0  0  0  0
   36.2630   31.2090   40.4950 N   0  0  0  0  0  0  0  0  0  0  0  0
   37.4720   31.8010   40.5470 C   0  0  0  0  0  0  0  0  0  0  0  0
   37.9770   32.9990   40.0820 C   0  0  0  0  0  0  0  0  0  0  0  0
   39.2690   33.3190   40.2970 N   0  0  0  0  0  0  0  0  0  0  0  0
   40.0800   32.4660   40.9690 C   0  0  0  0  0  0  0  0  0  0  0  0
   41.1250   32.7690   41.1190 H   0  0  0  0  0  0  0  0  0  0  0  0
   39.6050   31.2940   41.4280 N   0  0  0  0  0  0  0  0  0  0  0  0
   38.3030   30.9370   41.2300 C   0  0  0  0  0  0  0  0  0  0  0  0
   37.0420   33.8240   39.3880 N   0  0  0  0  0  0  0  0  0  0  0  0
   36.4010   33.5250   38.6060 H   0  0  0  0  0  0  0  0  0  0  0  0
   36.9580   34.8480   39.6610 H   0  0  0  0  0  0  0  0  0  0  0  0
   37.4100   26.2590   42.6070 C   0  0  0  0  0  0  0  0  0  0  0  0
   36.5760   25.5900   42.8550 H   0  0  0  0  0  0  0  0  0  0  0  0
   38.2130   26.2420   43.4080 H   0  0  0  0  0  0  0  0  0  0  0  0
   38.0270   25.9240   41.2630 C   0  0  0  0  0  0  0  0  0  0  0  0
   38.1940   26.9210   40.7480 H   0  0  0  0  0  0  0  0  0  0  0  0
   37.4890   25.1960   40.6750 H   0  0  0  0  0  0  0  0  0  0  0  0
   41.3150   25.0700   42.8670 C   0  0  0  0  0  0  0  0  0  0  0  0
   39.9160   25.2840   42.7070 C   0  0  0  0  0  0  0  0  0  0  0  0
   39.4760   25.6400   41.4640 C   0  0  0  0  0  0  0  0  0  0  0  0
   40.3730   25.7710   40.4470 N   0  0  0  0  0  0  0  0  0  0  0  0
   41.6680   25.5680   40.6130 C   0  0  0  0  0  0  0  0  0  0  0  0
   42.1430   25.2210   41.8120 N   0  0  0  0  0  0  0  0  0  0  0  0
   41.7680   24.7880   43.8070 H   0  0  0  0  0  0  0  0  0  0  0  0
   39.3920   25.1140   43.6290 H   0  0  0  0  0  0  0  0  0  0  0  0
   42.3010   25.6970   39.7450 H   0  0  0  0  0  0  0  0  0  0  0  0
  1  4  1  6  0  0  0
  1 22  1  0  0  0  0
  1  2  1  0  0  0  0
  2  6  1  0  0  0  0
  2  5  1  0  0  0  0
  3  7  1  6  0  0  0
  3  1  1  0  0  0  0
  3  2  1  0  0  0  0
  8  3  1  0  0  0  0
  9 10  1  0  0  0  0
  9  8  1  0  0  0  0
 11 12  1  0  0  0  0
 11  9  2  0  0  0  0
 12 18  1  0  0  0  0
 13 14  1  0  0  0  0
 13 12  2  0  0  0  0
 14 15  2  0  0  0  0
 15 16  1  0  0  0  0
 15 17  1  0  0  0  0
 18 17  2  0  0  0  0
 18  8  1  0  0  0  0
 19 21  1  0  0  0  0
 19 13  1  0  0  0  0
 20 19  1  0  0  0  0
 22 23  1  0  0  0  0
 22 24  1  0  0  0  0
 25 30  1  0  0  0  0
 25 22  1  0  0  0  0
 26 25  1  0  0  0  0
 27 25  1  0  0  0  0
 28 34  1  0  0  0  0
 29 28  1  0  0  0  0
 29 35  1  0  0  0  0
 30 29  2  0  0  0  0
 31 32  2  0  0  0  0
 31 30  1  0  0  0  0
 32 33  1  0  0  0  0
 33 28  2  0  0  0  0
 36 32  1  0  0  0  0
M  END
>  <minimizedAffinity>
-5.40044451

$$$$

 OpenBabel03252502453D

 36 39  0  0  1  0  0  0  0  0999 V2000
   37.7020   31.5580   39.4000 C   0  0  1  0  0  0  0  0  0  0  0  0
   37.3750   32.7390   40.2600 C   0  0  0  0  0  0  0  0  0  0  0  0
   38.6940   32.0810   40.3420 C   0  0  2  0  0  0  0  0  0  0  0  0
   37.7980   31.7010   38.2860 H   0  0  0  0  0  0  0  0  0  0  0  0
   36.6000   32.6940   41.0510 H   0  0  0  0  0  0  0  0  0  0  0  0
   37.2280   33.6760   39.6820 H   0  0  0  0  0  0  0  0  0  0  0  0
   39.2170   31.6270   41.1480 H   0  0  0  0  0  0  0  0  0  0  0  0
   39.7290   32.8840   39.6550 N   0  0  0  0  0  0  0  0  0  0  0  0
   39.9710   34.1950   39.8750 C   0  0  0  0  0  0  0  0  0  0  0  0
   39.4130   34.8080   40.5990 H   0  0  0  0  0  0  0  0  0  0  0  0
   40.9750   34.5490   39.0640 N   0  0  0  0  0  0  0  0  0  0  0  0
   41.3760   33.4880   38.3340 C   0  0  0  0  0  0  0  0  0  0  0  0
   42.3450   33.2950   37.3710 C   0  0  0  0  0  0  0  0  0  0  0  0
   42.5090   32.0810   36.8090 N   0  0  0  0  0  0  0  0  0  0  0  0
   41.7220   31.0420   37.1860 C   0  0  0  0  0  0  0  0  0  0  0  0
   41.8920   30.0720   36.7000 H   0  0  0  0  0  0  0  0  0  0  0  0
   40.7730   31.2130   38.1230 N   0  0  0  0  0  0  0  0  0  0  0  0
   40.5790   32.4280   38.7140 C   0  0  0  0  0  0  0  0  0  0  0  0
   43.1180   34.4490   37.0450 N   0  0  0  0  0  0  0  0  0  0  0  0
   42.7460   35.4080   36.8100 H   0  0  0  0  0  0  0  0  0  0  0  0
   44.1780   34.3710   37.0300 H   0  0  0  0  0  0  0  0  0  0  0  0
   37.0530   30.2570   39.7430 C   0  0  0  0  0  0  0  0  0  0  0  0
   36.3130   29.9390   38.9990 H   0  0  0  0  0  0  0  0  0  0  0  0
   36.5770   30.4420   40.7560 H   0  0  0  0  0  0  0  0  0  0  0  0
   38.1810   29.2530   39.8890 C   0  0  0  0  0  0  0  0  0  0  0  0
   39.0990   29.8650   40.1550 H   0  0  0  0  0  0  0  0  0  0  0  0
   38.3110   28.5800   39.0560 H   0  0  0  0  0  0  0  0  0  0  0  0
   36.7640   27.7230   43.0130 C   0  0  0  0  0  0  0  0  0  0  0  0
   36.8290   28.2970   41.7120 C   0  0  0  0  0  0  0  0  0  0  0  0
   38.0680   28.6040   41.2260 C   0  0  0  0  0  0  0  0  0  0  0  0
   39.1700   28.3540   41.9880 N   0  0  0  0  0  0  0  0  0  0  0  0
   39.0900   27.8190   43.1940 C   0  0  0  0  0  0  0  0  0  0  0  0
   37.8990   27.5050   43.7100 N   0  0  0  0  0  0  0  0  0  0  0  0
   35.8350   27.4450   43.4920 H   0  0  0  0  0  0  0  0  0  0  0  0
   35.8500   28.3950   41.2830 H   0  0  0  0  0  0  0  0  0  0  0  0
   40.0210   27.6580   43.7230 H   0  0  0  0  0  0  0  0  0  0  0  0
  1  4  1  6  0  0  0
  1 22  1  0  0  0  0
  1  2  1  0  0  0  0
  1  3  1  0  0  0  0
  2  3  1  0  0  0  0
  2  5  1  0  0  0  0
  3  7  1  1  0  0  0
  6  2  1  0  0  0  0
  8  9  1  0  0  0  0
  8  3  1  0  0  0  0
  9 10  1  0  0  0  0
 11  9  2  0  0  0  0
 12 18  1  0  0  0  0
 12 11  1  0  0  0  0
 13 12  2  0  0  0  0
 14 15  2  0  0  0  0
 14 13  1  0  0  0  0
 15 17  1  0  0  0  0
 16 15  1  0  0  0  0
 17 18  2  0  0  0  0
 18  8  1  0  0  0  0
 19 13  1  0  0  0  0
 20 19  1  0  0  0  0
 21 19  1  0  0  0  0
 22 25  1  0  0  0  0
 22 24  1  0  0  0  0
 23 22  1  0  0  0  0
 25 26  1  0  0  0  0
 25 30  1  0  0  0  0
 27 25  1  0  0  0  0
 28 34  1  0  0  0  0
 28 33  1  0  0  0  0
 29 28  2  0  0  0  0
 30 29  1  0  0  0  0
 30 31  2  0  0  0  0
 31 32  1  0  0  0  0
 32 33  2  0  0  0  0
 32 36  1  0  0  0  0
 35 29  1  0  0  0  0
M  END
>  <minimizedAffinity>
-5.39133072

$$$$

 OpenBabel03252502453D

 36 39  0  0  1  0  0  0  0  0999 V2000
   36.6700   29.8470   40.7020 C   0  0  1  0  0  0  0  0  0  0  0  0
   35.5010   28.9140   40.7600 C   0  0  0  0  0  0  0  0  0  0  0  0
   36.7590   28.5150   40.0990 C   0  0  2  0  0  0  0  0  0  0  0  0
   37.2080   30.1110   41.6560 H   0  0  0  0  0  0  0  0  0  0  0  0
   34.5510   29.1270   40.2280 H   0  0  0  0  0  0  0  0  0  0  0  0
   35.2540   28.5810   41.7910 H   0  0  0  0  0  0  0  0  0  0  0  0
   36.9760   28.1970   39.1080 H   0  0  0  0  0  0  0  0  0  0  0  0
   37.5290   27.5810   40.9480 N   0  0  0  0  0  0  0  0  0  0  0  0
   38.4740   27.9410   41.8440 C   0  0  0  0  0  0  0  0  0  0  0  0
   38.7720   28.9840   42.0350 H   0  0  0  0  0  0  0  0  0  0  0  0
   38.9330   26.8150   42.4040 N   0  0  0  0  0  0  0  0  0  0  0  0
   38.2960   25.7470   41.8810 C   0  0  0  0  0  0  0  0  0  0  0  0
   38.3740   24.3850   42.0890 C   0  0  0  0  0  0  0  0  0  0  0  0
   37.5810   23.5470   41.3920 N   0  0  0  0  0  0  0  0  0  0  0  0
   36.7050   24.0370   40.4800 C   0  0  0  0  0  0  0  0  0  0  0  0
   36.0810   23.3150   39.9360 H   0  0  0  0  0  0  0  0  0  0  0  0
   36.6170   25.3610   40.2650 N   0  0  0  0  0  0  0  0  0  0  0  0
   37.4020   26.2400   40.9530 C   0  0  0  0  0  0  0  0  0  0  0  0
   39.3270   23.9730   43.0680 N   0  0  0  0  0  0  0  0  0  0  0  0
   40.3360   24.2730   43.1270 H   0  0  0  0  0  0  0  0  0  0  0  0
   39.0230   23.2960   43.8290 H   0  0  0  0  0  0  0  0  0  0  0  0
   36.5740   31.0120   39.7730 C   0  0  0  0  0  0  0  0  0  0  0  0
   36.3400   31.9520   40.2880 H   0  0  0  0  0  0  0  0  0  0  0  0
   35.7570   30.7200   39.0420 H   0  0  0  0  0  0  0  0  0  0  0  0
   37.9030   31.0780   39.0460 C   0  0  0  0  0  0  0  0  0  0  0  0
   37.6530   31.3850   37.9820 H   0  0  0  0  0  0  0  0  0  0  0  0
   38.5190   30.1960   39.1280 H   0  0  0  0  0  0  0  0  0  0  0  0
   38.4950   34.6050   40.1920 C   0  0  0  0  0  0  0  0  0  0  0  0
   37.8260   33.3790   39.9170 C   0  0  0  0  0  0  0  0  0  0  0  0
   38.5730   32.3620   39.3960 C   0  0  0  0  0  0  0  0  0  0  0  0
   39.9020   32.5550   39.1650 N   0  0  0  0  0  0  0  0  0  0  0  0
   40.5070   33.7010   39.4260 C   0  0  0  0  0  0  0  0  0  0  0  0
   39.8150   34.7240   39.9350 N   0  0  0  0  0  0  0  0  0  0  0  0
   37.9990   35.4730   40.6030 H   0  0  0  0  0  0  0  0  0  0  0  0
   36.7880   33.4380   40.1860 H   0  0  0  0  0  0  0  0  0  0  0  0
   41.5660   33.7580   39.2080 H   0  0  0  0  0  0  0  0  0  0  0  0
  1  2  1  0  0  0  0
  1  4  1  1  0  0  0
  2  6  1  0  0  0  0
  3  7  1  6  0  0  0
  3  1  1  0  0  0  0
  3  2  1  0  0  0  0
  3  8  1  0  0  0  0
  5  2  1  0  0  0  0
  8 18  1  0  0  0  0
  8  9  1  0  0  0  0
  9 10  1  0  0  0  0
  9 11  2  0  0  0  0
 12 13  1  0  0  0  0
 12 11  1  0  0  0  0
 13 19  1  0  0  0  0
 14 13  2  0  0  0  0
 15 14  1  0  0  0  0
 16 15  1  0  0  0  0
 17 15  2  0  0  0  0
 17 18  1  0  0  0  0
 18 12  2  0  0  0  0
 19 20  1  0  0  0  0
 19 21  1  0  0  0  0
 22 23  1  0  0  0  0
 22  1  1  0  0  0  0
 24 22  1  0  0  0  0
 25 27  1  0  0  0  0
 25 30  1  0  0  0  0
 25 22  1  0  0  0  0
 26 25  1  0  0  0  0
 28 34  1  0  0  0  0
 29 35  1  0  0  0  0
 29 28  2  0  0  0  0
 30 29  1  0  0  0  0
 31 30  2  0  0  0  0
 31 32  1  0  0  0  0
 32 33  2  0  0  0  0
 33 28  1  0  0  0  0
 36 32  1  0  0  0  0
M  END
>  <minimizedAffinity>
-5.28522348

$$$$

 OpenBabel03252502453D

 36 39  0  0  1  0  0  0  0  0999 V2000
   36.8130   29.5000   41.1310 C   0  0  1  0  0  0  0  0  0  0  0  0
   36.7720   30.9890   40.9900 C   0  0  0  0  0  0  0  0  0  0  0  0
   37.8460   30.1950   40.3610 C   0  0  2  0  0  0  0  0  0  0  0  0
   36.0100   28.8800   40.6380 H   0  0  0  0  0  0  0  0  0  0  0  0
   36.9160   31.6660   41.8560 H   0  0  0  0  0  0  0  0  0  0  0  0
   35.8990   31.3520   40.4070 H   0  0  0  0  0  0  0  0  0  0  0  0
   38.9040   30.2230   40.4540 H   0  0  0  0  0  0  0  0  0  0  0  0
   37.6220   30.0640   38.9050 N   0  0  0  0  0  0  0  0  0  0  0  0
   37.1230   31.0310   38.1030 C   0  0  0  0  0  0  0  0  0  0  0  0
   36.8270   32.0290   38.4590 H   0  0  0  0  0  0  0  0  0  0  0  0
   37.0740   30.5250   36.8640 N   0  0  0  0  0  0  0  0  0  0  0  0
   37.5340   29.2580   36.8640 C   0  0  0  0  0  0  0  0  0  0  0  0
   37.7000   28.2960   35.8880 C   0  0  0  0  0  0  0  0  0  0  0  0
   38.2000   27.0860   36.2080 N   0  0  0  0  0  0  0  0  0  0  0  0
   38.5400   26.8050   37.4910 C   0  0  0  0  0  0  0  0  0  0  0  0
   38.9420   25.8060   37.7040 H   0  0  0  0  0  0  0  0  0  0  0  0
   38.3840   27.7310   38.4540 N   0  0  0  0  0  0  0  0  0  0  0  0
   37.8820   28.9670   38.1670 C   0  0  0  0  0  0  0  0  0  0  0  0
   37.3130   28.6910   34.5730 N   0  0  0  0  0  0  0  0  0  0  0  0
   36.4010   29.1440   34.2970 H   0  0  0  0  0  0  0  0  0  0  0  0
   37.9860   28.5260   33.7670 H   0  0  0  0  0  0  0  0  0  0  0  0
   37.2080   28.9450   42.4600 C   0  0  0  0  0  0  0  0  0  0  0  0
   36.7990   29.5170   43.3020 H   0  0  0  0  0  0  0  0  0  0  0  0
   38.3420   28.9730   42.4470 H   0  0  0  0  0  0  0  0  0  0  0  0
   36.7370   27.5040   42.4700 C   0  0  0  0  0  0  0  0  0  0  0  0
   36.6980   27.1900   41.3800 H   0  0  0  0  0  0  0  0  0  0  0  0
   35.8310   27.3170   43.0260 H   0  0  0  0  0  0  0  0  0  0  0  0
   39.9920   26.2690   43.8790 C   0  0  0  0  0  0  0  0  0  0  0  0
   38.8820   27.1220   43.6150 C   0  0  0  0  0  0  0  0  0  0  0  0
   37.8920   26.6290   42.8140 C   0  0  0  0  0  0  0  0  0  0  0  0
   38.0010   25.3670   42.3110 N   0  0  0  0  0  0  0  0  0  0  0  0
   39.0390   24.5890   42.5670 C   0  0  0  0  0  0  0  0  0  0  0  0
   40.0320   25.0310   43.3440 N   0  0  0  0  0  0  0  0  0  0  0  0
   40.8290   26.5610   44.4980 H   0  0  0  0  0  0  0  0  0  0  0  0
   38.9900   28.0630   44.1200 H   0  0  0  0  0  0  0  0  0  0  0  0
   39.0360   23.6030   42.1210 H   0  0  0  0  0  0  0  0  0  0  0  0
  1  4  1  6  0  0  0
  1 22  1  0  0  0  0
  2  1  1  0  0  0  0
  2  5  1  0  0  0  0
  3  7  1  1  0  0  0
  3  2  1  0  0  0  0
  3  1  1  0  0  0  0
  6  2  1  0  0  0  0
  8  3  1  0  0  0  0
  9 10  1  0  0  0  0
  9  8  1  0  0  0  0
 11 12  1  0  0  0  0
 11  9  2  0  0  0  0
 12 18  1  0  0  0  0
 13 14  1  0  0  0  0
 13 12  2  0  0  0  0
 14 15  2  0  0  0  0
 15 16  1  0  0  0  0
 15 17  1  0  0  0  0
 18 17  2  0  0  0  0
 18  8  1  0  0  0  0
 19 13  1  0  0  0  0
 20 19  1  0  0  0  0
 21 19  1  0  0  0  0
 22 25  1  0  0  0  0
 22 23  1  0  0  0  0
 24 22  1  0  0  0  0
 25 30  1  0  0  0  0
 25 27  1  0  0  0  0
 26 25  1  0  0  0  0
 28 34  1  0  0  0  0
 29 28  1  0  0  0  0
 29 35  1  0  0  0  0
 30 29  2  0  0  0  0
 31 32  2  0  0  0  0
 31 30  1  0  0  0  0
 32 33  1  0  0  0  0
 33 28  2  0  0  0  0
 36 32  1  0  0  0  0
M  END
>  <minimizedAffinity>
-5.14607954

$$$$
