
 OpenBabel03252505303D

 32 34  0  0  0  0  0  0  0  0999 V2000
   45.2810   29.6860   47.6450 C   0  0  0  0  0  0  0  0  0  0  0  0
   44.6930   30.1120   48.4820 H   0  0  0  0  0  0  0  0  0  0  0  0
   46.2680   29.4260   48.0770 H   0  0  0  0  0  0  0  0  0  0  0  0
   44.6240   28.5360   47.0510 N   0  0  0  0  0  0  0  0  0  0  0  0
   43.7880   28.6390   45.9810 C   0  0  0  0  0  0  0  0  0  0  0  0
   43.5030   29.5380   45.4440 H   0  0  0  0  0  0  0  0  0  0  0  0
   43.3180   27.4280   45.6350 N   0  0  0  0  0  0  0  0  0  0  0  0
   43.8550   26.5460   46.4850 C   0  0  0  0  0  0  0  0  0  0  0  0
   43.7820   25.1740   46.6680 C   0  0  0  0  0  0  0  0  0  0  0  0
   44.4420   24.5410   47.6240 N   0  0  0  0  0  0  0  0  0  0  0  0
   45.2330   25.2570   48.4720 C   0  0  0  0  0  0  0  0  0  0  0  0
   45.7370   24.6490   49.2250 H   0  0  0  0  0  0  0  0  0  0  0  0
   45.3630   26.6120   48.3630 N   0  0  0  0  0  0  0  0  0  0  0  0
   44.6790   27.2330   47.3800 C   0  0  0  0  0  0  0  0  0  0  0  0
   42.9220   24.5140   45.7220 N   0  0  0  0  0  0  0  0  0  0  0  0
   41.8810   24.6580   45.5620 H   0  0  0  0  0  0  0  0  0  0  0  0
   43.3350   23.7780   45.0790 H   0  0  0  0  0  0  0  0  0  0  0  0
   45.4900   30.6180   46.6650 O   0  0  0  0  0  0  0  0  0  0  0  0
   46.8490   31.7390   48.5440 O   0  0  0  0  0  0  0  0  0  0  0  0
   45.9030   32.0780   47.3950 P   0  0  2  0  0  0  0  0  0  0  0  0
   44.5030   32.8040   47.9600 O   0  0  0  0  0  0  0  0  0  0  0  0
   43.6780   32.3050   47.7410 H   0  0  0  0  0  0  0  0  0  0  0  0
   46.7380   33.0960   46.3270 O   0  0  0  0  0  0  0  0  0  0  0  0
   44.5020   35.4580   44.8830 C   0  0  0  0  0  0  0  0  0  0  0  0
   44.9230   35.5800   43.5390 C   0  0  0  0  0  0  0  0  0  0  0  0
   46.0330   34.7850   43.1810 C   0  0  0  0  0  0  0  0  0  0  0  0
   46.6180   33.9740   44.1080 N   0  0  0  0  0  0  0  0  0  0  0  0
   46.1520   33.9180   45.3740 C   0  0  0  0  0  0  0  0  0  0  0  0
   45.1100   34.6490   45.7510 N   0  0  0  0  0  0  0  0  0  0  0  0
   43.6480   36.0730   45.1520 H   0  0  0  0  0  0  0  0  0  0  0  0
   44.4490   36.2220   42.8320 H   0  0  0  0  0  0  0  0  0  0  0  0
   46.4120   34.8290   42.1570 H   0  0  0  0  0  0  0  0  0  0  0  0
  1  3  1  0  0  0  0
  1  2  1  0  0  0  0
  4 14  1  0  0  0  0
  4  1  1  0  0  0  0
  5  4  1  0  0  0  0
  6  5  1  0  0  0  0
  7  5  2  0  0  0  0
  7  8  1  0  0  0  0
  8  9  2  0  0  0  0
  8 14  1  0  0  0  0
  9 10  1  0  0  0  0
 10 11  2  0  0  0  0
 11 12  1  0  0  0  0
 13 11  1  0  0  0  0
 14 13  2  0  0  0  0
 15  9  1  0  0  0  0
 16 15  1  0  0  0  0
 17 15  1  0  0  0  0
 18 20  1  0  0  0  0
 18  1  1  0  0  0  0
 20 21  1  0  0  0  0
 20 19  2  1  0  0  0
 22 21  1  0  0  0  0
 23 20  1  0  0  0  0
 24 30  1  0  0  0  0
 24 29  1  0  0  0  0
 25 24  2  0  0  0  0
 26 25  1  0  0  0  0
 26 27  2  0  0  0  0
 27 28  1  0  0  0  0
 28 29  2  0  0  0  0
 28 23  1  0  0  0  0
 31 25  1  0  0  0  0
 32 26  1  0  0  0  0
M  END
>  <minimizedAffinity>
-4.91702318

>  <minimizedRMSD>
1.14374352

$$$$
