
 OpenBabel03252506583D

 29 31  0  0  0  0  0  0  0  0999 V2000
   45.9340   31.4850   43.4060 C   0  0  0  0  0  0  0  0  0  0  0  0
   45.1790   30.6820   43.2910 H   0  0  0  0  0  0  0  0  0  0  0  0
   46.9050   31.0670   43.0790 H   0  0  0  0  0  0  0  0  0  0  0  0
   45.9670   31.9690   44.7890 N   0  0  0  0  0  0  0  0  0  0  0  0
   46.2860   33.2560   45.0630 C   0  0  0  0  0  0  0  0  0  0  0  0
   46.5390   34.0450   44.3680 H   0  0  0  0  0  0  0  0  0  0  0  0
   46.2310   33.3870   46.4150 N   0  0  0  0  0  0  0  0  0  0  0  0
   45.8840   32.1970   46.9380 C   0  0  0  0  0  0  0  0  0  0  0  0
   45.6690   31.7030   48.2180 C   0  0  0  0  0  0  0  0  0  0  0  0
   45.3200   30.4140   48.4010 N   0  0  0  0  0  0  0  0  0  0  0  0
   45.1650   29.5550   47.3550 C   0  0  0  0  0  0  0  0  0  0  0  0
   44.8840   28.5710   47.7070 H   0  0  0  0  0  0  0  0  0  0  0  0
   45.3620   29.9820   46.0750 N   0  0  0  0  0  0  0  0  0  0  0  0
   45.7100   31.2680   45.9070 C   0  0  0  0  0  0  0  0  0  0  0  0
   45.8320   32.6060   49.3160 N   0  0  0  0  0  0  0  0  0  0  0  0
   45.5890   33.6340   49.2270 H   0  0  0  0  0  0  0  0  0  0  0  0
   46.1750   32.4490   50.2830 H   0  0  0  0  0  0  0  0  0  0  0  0
   45.5110   32.6150   42.4690 C   0  0  0  0  0  0  0  0  0  0  0  0
   45.7560   33.6040   42.9070 H   0  0  0  0  0  0  0  0  0  0  0  0
   46.1600   32.5030   41.5940 H   0  0  0  0  0  0  0  0  0  0  0  0
   44.0900   32.4550   42.1550 C   0  0  0  0  0  0  0  0  0  0  0  0
   43.4130   31.2800   42.4420 C   0  0  0  0  0  0  0  0  0  0  0  0
   42.0400   31.1810   42.1150 C   0  0  0  0  0  0  0  0  0  0  0  0
   41.4730   32.2610   41.5350 N   0  0  0  0  0  0  0  0  0  0  0  0
   42.1670   33.3990   41.2670 C   0  0  0  0  0  0  0  0  0  0  0  0
   43.4760   33.4880   41.5810 N   0  0  0  0  0  0  0  0  0  0  0  0
   43.8610   30.4350   42.8990 H   0  0  0  0  0  0  0  0  0  0  0  0
   41.4420   30.3100   42.3020 H   0  0  0  0  0  0  0  0  0  0  0  0
   41.6780   34.2610   40.7950 H   0  0  0  0  0  0  0  0  0  0  0  0
  1  4  1  0  0  0  0
  2  1  1  0  0  0  0
  3  1  1  0  0  0  0
  4  5  1  0  0  0  0
  4 14  1  0  0  0  0
  5  7  2  0  0  0  0
  6  5  1  0  0  0  0
  7  8  1  0  0  0  0
  8  9  1  0  0  0  0
  9 10  2  0  0  0  0
  9 15  1  0  0  0  0
 11 12  1  0  0  0  0
 11 10  1  0  0  0  0
 13 11  2  0  0  0  0
 14 13  1  0  0  0  0
 14  8  2  0  0  0  0
 15 17  1  0  0  0  0
 16 15  1  0  0  0  0
 18 19  1  0  0  0  0
 18  1  1  0  0  0  0
 20 18  1  0  0  0  0
 21 22  1  0  0  0  0
 21 18  1  0  0  0  0
 22 27  1  0  0  0  0
 23 28  1  0  0  0  0
 23 22  2  0  0  0  0
 24 23  1  0  0  0  0
 25 24  2  0  0  0  0
 25 26  1  0  0  0  0
 26 21  2  0  0  0  0
 29 25  1  0  0  0  0
M  END
>  <minimizedAffinity>
-3.89637446

>  <minimizedRMSD>
7.10157776

$$$$
