
 OpenBabel03242517303D

 52 56  0  0  1  0  0  0  0  0999 V2000
   45.4630   30.0980   47.1380 C   0  0  0  0  0  0  0  0  0  0  0  0
   46.5150   29.8230   46.8920 H   0  0  0  0  0  0  0  0  0  0  0  0
   44.8900   30.0140   46.2120 H   0  0  0  0  0  0  0  0  0  0  0  0
   45.0010   34.7480   44.9790 C   0  0  0  0  0  0  0  0  0  0  0  0
   45.8660   34.6080   43.8600 C   0  0  0  0  0  0  0  0  0  0  0  0
   46.9180   33.6860   43.9470 C   0  0  0  0  0  0  0  0  0  0  0  0
   47.0420   32.9850   45.0970 N   0  0  0  0  0  0  0  0  0  0  0  0
   46.2340   33.1140   46.1410 C   0  0  0  0  0  0  0  0  0  0  0  0
   45.2320   33.9990   46.0480 N   0  0  0  0  0  0  0  0  0  0  0  0
   46.4410   32.3500   47.2800 N   0  0  0  0  0  0  0  0  0  0  0  0
   47.7030   32.4150   47.9860 C   0  0  0  0  0  0  0  0  0  0  0  0
   47.9230   31.2820   48.9370 C   0  0  0  0  0  0  0  0  0  0  0  0
   46.7690   30.7160   49.5500 N   0  0  0  0  0  0  0  0  0  0  0  0
   45.5610   31.4370   49.2510 C   0  0  0  0  0  0  0  0  0  0  0  0
   45.3600   31.4660   47.7680 C   0  0  2  0  0  0  0  0  0  0  0  0
   44.1710   35.4190   45.0190 H   0  0  0  0  0  0  0  0  0  0  0  0
   45.6720   35.2160   43.0050 H   0  0  0  0  0  0  0  0  0  0  0  0
   47.5820   33.5740   43.1000 H   0  0  0  0  0  0  0  0  0  0  0  0
   48.4880   32.4040   47.1790 H   0  0  0  0  0  0  0  0  0  0  0  0
   47.8090   33.3770   48.5160 H   0  0  0  0  0  0  0  0  0  0  0  0
   48.6180   31.6140   49.7460 H   0  0  0  0  0  0  0  0  0  0  0  0
   48.5220   30.4990   48.3860 H   0  0  0  0  0  0  0  0  0  0  0  0
   46.9000   30.5070   50.5660 H   0  0  0  0  0  0  0  0  0  0  0  0
   44.7440   31.0440   49.8490 H   0  0  0  0  0  0  0  0  0  0  0  0
   45.7870   32.5090   49.5510 H   0  0  0  0  0  0  0  0  0  0  0  0
   44.3750   31.8900   47.4950 H   0  0  0  0  0  0  0  0  0  0  0  0
   44.9030   29.1350   48.1500 C   0  0  0  0  0  0  0  0  0  0  0  0
   45.0560   27.8230   47.9910 C   0  0  0  0  0  0  0  0  0  0  0  0
   44.5460   26.7870   48.9250 C   0  0  0  0  0  0  0  0  0  0  0  0
   45.3900   26.2180   49.3780 H   0  0  0  0  0  0  0  0  0  0  0  0
   44.0340   27.2820   49.7500 H   0  0  0  0  0  0  0  0  0  0  0  0
   43.5910   25.8750   48.1860 C   0  0  2  0  0  0  0  0  0  0  0  0
   44.1810   24.8720   47.2380 C   0  0  0  0  0  0  0  0  0  0  0  0
   43.3930   26.0500   46.7260 C   0  0  1  0  0  0  0  0  0  0  0  0
   42.6980   25.5750   48.7890 H   0  0  0  0  0  0  0  0  0  0  0  0
   43.7450   23.8670   47.2660 H   0  0  0  0  0  0  0  0  0  0  0  0
   45.2950   24.9290   47.0800 H   0  0  0  0  0  0  0  0  0  0  0  0
   43.9290   26.8730   46.2350 H   0  0  0  0  0  0  0  0  0  0  0  0
   42.1030   25.6520   46.1390 N   0  0  0  0  0  0  0  0  0  0  0  0
   40.9050   25.5850   46.7470 C   0  0  0  0  0  0  0  0  0  0  0  0
   40.7260   25.8290   47.8040 H   0  0  0  0  0  0  0  0  0  0  0  0
   39.9680   25.1860   45.9000 N   0  0  0  0  0  0  0  0  0  0  0  0
   40.5540   24.9840   44.7130 C   0  0  0  0  0  0  0  0  0  0  0  0
   40.1170   24.5760   43.4740 C   0  0  0  0  0  0  0  0  0  0  0  0
   40.9700   24.4690   42.4550 N   0  0  0  0  0  0  0  0  0  0  0  0
   42.2810   24.7640   42.6390 C   0  0  0  0  0  0  0  0  0  0  0  0
   42.8710   24.6390   41.7400 H   0  0  0  0  0  0  0  0  0  0  0  0
   42.7590   25.1710   43.8420 N   0  0  0  0  0  0  0  0  0  0  0  0
   41.9080   25.2780   44.8620 C   0  0  0  0  0  0  0  0  0  0  0  0
   38.7140   24.2830   43.3660 N   0  0  0  0  0  0  0  0  0  0  0  0
   37.8180   24.8250   43.3460 H   0  0  0  0  0  0  0  0  0  0  0  0
   38.6510   23.2270   43.2910 H   0  0  0  0  0  0  0  0  0  0  0  0
  1 15  1  0  0  0  0
  1 27  1  0  0  0  0
  2  1  1  0  0  0  0
  3  1  1  0  0  0  0
  4 16  1  0  0  0  0
  4  9  1  0  0  0  0
  5  6  1  0  0  0  0
  5  4  2  0  0  0  0
  6  7  2  0  0  0  0
  7  8  1  0  0  0  0
  8 10  1  0  0  0  0
  9  8  2  0  0  0  0
 10 15  1  0  0  0  0
 10 11  1  0  0  0  0
 11 20  1  0  0  0  0
 11 12  1  0  0  0  0
 12 13  1  0  0  0  0
 12 21  1  0  0  0  0
 13 23  1  0  0  0  0
 14 13  1  0  0  0  0
 14 25  1  0  0  0  0
 14 24  1  0  0  0  0
 15 26  1  6  0  0  0
 15 14  1  0  0  0  0
 17  5  1  0  0  0  0
 18  6  1  0  0  0  0
 19 11  1  0  0  0  0
 22 12  1  0  0  0  0
 28 27  2  0  0  0  0
 28 29  1  0  0  0  0
 29 30  1  0  0  0  0
 29 31  1  0  0  0  0
 32 35  1  1  0  0  0
 32 29  1  0  0  0  0
 33 36  1  0  0  0  0
 33 32  1  0  0  0  0
 34 38  1  6  0  0  0
 34 33  1  0  0  0  0
 34 32  1  0  0  0  0
 37 33  1  0  0  0  0
 39 34  1  0  0  0  0
 39 40  1  0  0  0  0
 40 41  1  0  0  0  0
 42 40  2  0  0  0  0
 43 49  1  0  0  0  0
 43 42  1  0  0  0  0
 44 43  2  0  0  0  0
 45 46  2  0  0  0  0
 45 44  1  0  0  0  0
 46 48  1  0  0  0  0
 47 46  1  0  0  0  0
 48 49  2  0  0  0  0
 49 39  1  0  0  0  0
 50 44  1  0  0  0  0
 51 50  1  0  0  0  0
 52 50  1  0  0  0  0
M  END
>  <minimizedAffinity>
-6.27956581

>  <minimizedRMSD>
0.399693817

$$$$
