
 OpenBabel03252506583D

 29 31  0  0  0  0  0  0  0  0999 V2000
   48.6930   34.2260   42.7820 C   0  0  0  0  0  0  0  0  0  0  0  0
   48.1410   34.9580   42.1600 H   0  0  0  0  0  0  0  0  0  0  0  0
   49.3040   34.8050   43.5000 H   0  0  0  0  0  0  0  0  0  0  0  0
   49.5040   33.3400   41.9400 N   0  0  0  0  0  0  0  0  0  0  0  0
   50.7610   32.9990   42.3060 C   0  0  0  0  0  0  0  0  0  0  0  0
   51.3040   33.3000   43.1930 H   0  0  0  0  0  0  0  0  0  0  0  0
   51.2390   32.1820   41.3300 N   0  0  0  0  0  0  0  0  0  0  0  0
   50.2800   32.0400   40.3960 C   0  0  0  0  0  0  0  0  0  0  0  0
   50.1630   31.3540   39.1940 C   0  0  0  0  0  0  0  0  0  0  0  0
   49.0250   31.4260   38.4770 N   0  0  0  0  0  0  0  0  0  0  0  0
   47.9570   32.1640   38.8930 C   0  0  0  0  0  0  0  0  0  0  0  0
   47.1440   32.0930   38.1830 H   0  0  0  0  0  0  0  0  0  0  0  0
   48.0130   32.8590   40.0640 N   0  0  0  0  0  0  0  0  0  0  0  0
   49.1530   32.7790   40.7680 C   0  0  0  0  0  0  0  0  0  0  0  0
   51.2840   30.5790   38.7580 N   0  0  0  0  0  0  0  0  0  0  0  0
   51.9200   30.0880   39.4510 H   0  0  0  0  0  0  0  0  0  0  0  0
   51.6440   30.3760   37.8070 H   0  0  0  0  0  0  0  0  0  0  0  0
   47.6410   33.4110   43.5310 C   0  0  0  0  0  0  0  0  0  0  0  0
   47.3570   32.5070   42.9540 H   0  0  0  0  0  0  0  0  0  0  0  0
   48.1590   33.0490   44.4250 H   0  0  0  0  0  0  0  0  0  0  0  0
   46.5060   34.2830   43.8380 C   0  0  0  0  0  0  0  0  0  0  0  0
   46.0600   35.2370   42.9360 C   0  0  0  0  0  0  0  0  0  0  0  0
   44.9590   36.0530   43.2860 C   0  0  0  0  0  0  0  0  0  0  0  0
   44.4070   35.8400   44.5020 N   0  0  0  0  0  0  0  0  0  0  0  0
   44.8690   34.8960   45.3630 C   0  0  0  0  0  0  0  0  0  0  0  0
   45.9200   34.1210   45.0230 N   0  0  0  0  0  0  0  0  0  0  0  0
   46.4950   35.3990   41.9830 H   0  0  0  0  0  0  0  0  0  0  0  0
   44.5510   36.8130   42.6500 H   0  0  0  0  0  0  0  0  0  0  0  0
   44.3990   34.7470   46.3430 H   0  0  0  0  0  0  0  0  0  0  0  0
  1  3  1  0  0  0  0
  1 18  1  0  0  0  0
  2  1  1  0  0  0  0
  4  5  1  0  0  0  0
  4  1  1  0  0  0  0
  5  6  1  0  0  0  0
  7  5  2  0  0  0  0
  8 14  1  0  0  0  0
  8  7  1  0  0  0  0
  9  8  2  0  0  0  0
 10 11  2  0  0  0  0
 10  9  1  0  0  0  0
 11 13  1  0  0  0  0
 12 11  1  0  0  0  0
 13 14  2  0  0  0  0
 14  4  1  0  0  0  0
 15  9  1  0  0  0  0
 15 16  1  0  0  0  0
 17 15  1  0  0  0  0
 18 21  1  0  0  0  0
 18 20  1  0  0  0  0
 19 18  1  0  0  0  0
 21 26  1  0  0  0  0
 22 23  1  0  0  0  0
 22 21  2  0  0  0  0
 23 24  2  0  0  0  0
 24 25  1  0  0  0  0
 25 29  1  0  0  0  0
 26 25  2  0  0  0  0
 27 22  1  0  0  0  0
 28 23  1  0  0  0  0
M  END
>  <minimizedAffinity>
-4.42755842

>  <minimizedRMSD>
2.15600371

$$$$
