
 OpenBabel03252505313D

 32 34  0  0  0  0  0  0  0  0999 V2000
   39.0280   32.5360   41.0900 C   0  0  0  0  0  0  0  0  0  0  0  0
   39.2890   31.4810   41.3090 H   0  0  0  0  0  0  0  0  0  0  0  0
   39.0630   33.0600   42.0660 H   0  0  0  0  0  0  0  0  0  0  0  0
   39.9320   33.1270   40.1190 N   0  0  0  0  0  0  0  0  0  0  0  0
   40.3140   34.4330   40.1710 C   0  0  0  0  0  0  0  0  0  0  0  0
   40.0210   35.1830   40.8970 H   0  0  0  0  0  0  0  0  0  0  0  0
   41.1500   34.7170   39.1580 N   0  0  0  0  0  0  0  0  0  0  0  0
   41.3040   33.5900   38.4550 C   0  0  0  0  0  0  0  0  0  0  0  0
   42.0140   33.2150   37.3240 C   0  0  0  0  0  0  0  0  0  0  0  0
   41.9830   31.9890   36.8310 N   0  0  0  0  0  0  0  0  0  0  0  0
   41.2230   31.0410   37.4500 C   0  0  0  0  0  0  0  0  0  0  0  0
   41.2620   30.0610   36.9700 H   0  0  0  0  0  0  0  0  0  0  0  0
   40.4920   31.3240   38.5680 N   0  0  0  0  0  0  0  0  0  0  0  0
   40.5410   32.5830   39.0510 C   0  0  0  0  0  0  0  0  0  0  0  0
   42.7820   34.2870   36.7470 N   0  0  0  0  0  0  0  0  0  0  0  0
   42.4370   35.2120   36.3570 H   0  0  0  0  0  0  0  0  0  0  0  0
   43.8360   34.1860   36.6810 H   0  0  0  0  0  0  0  0  0  0  0  0
   37.7510   32.6390   40.6100 O   0  0  0  0  0  0  0  0  0  0  0  0
   36.8710   30.8030   39.0320 O   0  0  0  0  0  0  0  0  0  0  0  0
   37.0910   31.0930   40.5150 P   0  0  2  0  0  0  0  0  0  0  0  0
   35.6400   31.0820   41.3530 O   0  0  0  0  0  0  0  0  0  0  0  0
   35.4300   31.9390   41.7980 H   0  0  0  0  0  0  0  0  0  0  0  0
   38.1580   29.9200   41.1140 O   0  0  0  0  0  0  0  0  0  0  0  0
   36.7380   27.3860   43.1690 C   0  0  0  0  0  0  0  0  0  0  0  0
   37.0400   26.1730   42.5090 C   0  0  0  0  0  0  0  0  0  0  0  0
   37.7680   26.3060   41.3070 C   0  0  0  0  0  0  0  0  0  0  0  0
   38.1280   27.5440   40.8620 N   0  0  0  0  0  0  0  0  0  0  0  0
   37.7970   28.6550   41.5560 C   0  0  0  0  0  0  0  0  0  0  0  0
   37.1140   28.5720   42.6910 N   0  0  0  0  0  0  0  0  0  0  0  0
   36.1780   27.2760   44.0930 H   0  0  0  0  0  0  0  0  0  0  0  0
   36.7470   25.2160   42.8770 H   0  0  0  0  0  0  0  0  0  0  0  0
   38.0370   25.4090   40.7440 H   0  0  0  0  0  0  0  0  0  0  0  0
  1  2  1  0  0  0  0
  1  3  1  0  0  0  0
  4  5  1  0  0  0  0
  4  1  1  0  0  0  0
  5  6  1  0  0  0  0
  7  5  2  0  0  0  0
  8 14  1  0  0  0  0
  8  7  1  0  0  0  0
  9  8  2  0  0  0  0
 10  9  1  0  0  0  0
 10 11  2  0  0  0  0
 11 13  1  0  0  0  0
 12 11  1  0  0  0  0
 13 14  2  0  0  0  0
 14  4  1  0  0  0  0
 15  9  1  0  0  0  0
 16 15  1  0  0  0  0
 17 15  1  0  0  0  0
 18  1  1  0  0  0  0
 20 19  2  6  0  0  0
 20 18  1  0  0  0  0
 20 23  1  0  0  0  0
 20 21  1  0  0  0  0
 21 22  1  0  0  0  0
 23 28  1  0  0  0  0
 24 30  1  0  0  0  0
 25 31  1  0  0  0  0
 25 24  2  0  0  0  0
 26 25  1  0  0  0  0
 27 26  2  0  0  0  0
 27 28  1  0  0  0  0
 28 29  2  0  0  0  0
 29 24  1  0  0  0  0
 32 26  1  0  0  0  0
M  END
>  <minimizedAffinity>
-6.29914856

$$$$

 OpenBabel03252505313D

 32 34  0  0  0  0  0  0  0  0999 V2000
   39.5100   30.5020   40.1590 C   0  0  0  0  0  0  0  0  0  0  0  0
   39.0300   29.6310   39.6690 H   0  0  0  0  0  0  0  0  0  0  0  0
   40.2260   30.0760   40.8890 H   0  0  0  0  0  0  0  0  0  0  0  0
   40.1630   31.3720   39.1970 N   0  0  0  0  0  0  0  0  0  0  0  0
   39.8960   31.3240   37.8620 C   0  0  0  0  0  0  0  0  0  0  0  0
   39.2010   30.6690   37.3470 H   0  0  0  0  0  0  0  0  0  0  0  0
   40.6350   32.2330   37.2030 N   0  0  0  0  0  0  0  0  0  0  0  0
   41.3770   32.8660   38.1180 C   0  0  0  0  0  0  0  0  0  0  0  0
   42.3210   33.8810   38.0990 C   0  0  0  0  0  0  0  0  0  0  0  0
   42.9170   34.3270   39.1920 N   0  0  0  0  0  0  0  0  0  0  0  0
   42.6010   33.7730   40.3970 C   0  0  0  0  0  0  0  0  0  0  0  0
   43.1430   34.2070   41.2380 H   0  0  0  0  0  0  0  0  0  0  0  0
   41.6810   32.7690   40.5060 N   0  0  0  0  0  0  0  0  0  0  0  0
   41.0880   32.3320   39.3760 C   0  0  0  0  0  0  0  0  0  0  0  0
   42.5840   34.3960   36.7820 N   0  0  0  0  0  0  0  0  0  0  0  0
   42.9620   33.8810   35.9330 H   0  0  0  0  0  0  0  0  0  0  0  0
   42.3900   35.4210   36.5820 H   0  0  0  0  0  0  0  0  0  0  0  0
   38.5960   31.2410   40.8580 O   0  0  0  0  0  0  0  0  0  0  0  0
   37.1510   29.3540   39.8640 O   0  0  0  0  0  0  0  0  0  0  0  0
   37.1970   30.3220   41.0440 P   0  0  2  0  0  0  0  0  0  0  0  0
   35.8770   31.3540   41.0310 O   0  0  0  0  0  0  0  0  0  0  0  0
   36.1180   32.3100   40.9690 H   0  0  0  0  0  0  0  0  0  0  0  0
   37.2430   29.3970   42.4640 O   0  0  0  0  0  0  0  0  0  0  0  0
   38.2890   25.9970   42.5700 C   0  0  0  0  0  0  0  0  0  0  0  0
   39.6070   26.0400   43.0790 C   0  0  0  0  0  0  0  0  0  0  0  0
   40.0960   27.3300   43.3790 C   0  0  0  0  0  0  0  0  0  0  0  0
   39.3070   28.4220   43.1720 N   0  0  0  0  0  0  0  0  0  0  0  0
   38.0560   28.2920   42.6790 C   0  0  0  0  0  0  0  0  0  0  0  0
   37.5590   27.0980   42.3860 N   0  0  0  0  0  0  0  0  0  0  0  0
   37.9200   25.0020   42.3410 H   0  0  0  0  0  0  0  0  0  0  0  0
   40.2050   25.1710   43.2330 H   0  0  0  0  0  0  0  0  0  0  0  0
   41.1080   27.4370   43.7770 H   0  0  0  0  0  0  0  0  0  0  0  0
  1 18  1  0  0  0  0
  1  3  1  0  0  0  0
  2  1  1  0  0  0  0
  4 14  1  0  0  0  0
  4  1  1  0  0  0  0
  5  4  1  0  0  0  0
  6  5  1  0  0  0  0
  7  5  2  0  0  0  0
  7  8  1  0  0  0  0
  8 14  1  0  0  0  0
  9  8  2  0  0  0  0
  9 10  1  0  0  0  0
 10 11  2  0  0  0  0
 11 13  1  0  0  0  0
 11 12  1  0  0  0  0
 14 13  2  0  0  0  0
 15  9  1  0  0  0  0
 16 15  1  0  0  0  0
 17 15  1  0  0  0  0
 18 20  1  0  0  0  0
 20 19  2  6  0  0  0
 20 23  1  0  0  0  0
 21 20  1  0  0  0  0
 22 21  1  0  0  0  0
 23 28  1  0  0  0  0
 24 25  1  0  0  0  0
 25 31  1  0  0  0  0
 25 26  2  0  0  0  0
 26 32  1  0  0  0  0
 27 26  1  0  0  0  0
 28 27  2  0  0  0  0
 29 24  2  0  0  0  0
 29 28  1  0  0  0  0
 30 24  1  0  0  0  0
M  END
>  <minimizedAffinity>
-5.65332937

$$$$

 OpenBabel03252505313D

 32 34  0  0  0  0  0  0  0  0999 V2000
   37.4250   29.3380   42.3050 C   0  0  0  0  0  0  0  0  0  0  0  0
   36.3290   29.4560   42.1840 H   0  0  0  0  0  0  0  0  0  0  0  0
   37.6930   29.9410   43.1950 H   0  0  0  0  0  0  0  0  0  0  0  0
   37.8050   27.9450   42.4540 N   0  0  0  0  0  0  0  0  0  0  0  0
   36.9740   26.9160   42.1250 C   0  0  0  0  0  0  0  0  0  0  0  0
   35.9660   26.9770   41.7290 H   0  0  0  0  0  0  0  0  0  0  0  0
   37.5730   25.7360   42.3590 N   0  0  0  0  0  0  0  0  0  0  0  0
   38.7910   26.0080   42.8390 C   0  0  0  0  0  0  0  0  0  0  0  0
   39.8780   25.2620   43.2660 C   0  0  0  0  0  0  0  0  0  0  0  0
   40.9980   25.8110   43.7070 N   0  0  0  0  0  0  0  0  0  0  0  0
   41.1010   27.1700   43.7500 C   0  0  0  0  0  0  0  0  0  0  0  0
   42.0610   27.5280   44.1270 H   0  0  0  0  0  0  0  0  0  0  0  0
   40.0790   27.9810   43.3480 N   0  0  0  0  0  0  0  0  0  0  0  0
   38.9480   27.3950   42.9030 C   0  0  0  0  0  0  0  0  0  0  0  0
   39.6680   23.8410   43.1820 N   0  0  0  0  0  0  0  0  0  0  0  0
   38.9320   23.2510   43.6720 H   0  0  0  0  0  0  0  0  0  0  0  0
   40.3060   23.2620   42.5620 H   0  0  0  0  0  0  0  0  0  0  0  0
   38.0990   29.8570   41.2340 O   0  0  0  0  0  0  0  0  0  0  0  0
   37.9030   32.3920   40.8150 O   0  0  0  0  0  0  0  0  0  0  0  0
   37.1620   31.0820   40.5580 P   0  0  2  0  0  0  0  0  0  0  0  0
   35.6630   31.0800   41.3050 O   0  0  0  0  0  0  0  0  0  0  0  0
   35.5480   30.3560   41.9680 H   0  0  0  0  0  0  0  0  0  0  0  0
   37.0130   30.9000   38.8780 O   0  0  0  0  0  0  0  0  0  0  0  0
   34.4150   28.5130   38.4150 C   0  0  0  0  0  0  0  0  0  0  0  0
   34.4700   28.1810   37.0420 C   0  0  0  0  0  0  0  0  0  0  0  0
   35.4710   28.8440   36.3010 C   0  0  0  0  0  0  0  0  0  0  0  0
   36.2980   29.7350   36.9180 N   0  0  0  0  0  0  0  0  0  0  0  0
   36.1770   29.9960   38.2380 C   0  0  0  0  0  0  0  0  0  0  0  0
   35.2500   29.3930   38.9710 N   0  0  0  0  0  0  0  0  0  0  0  0
   33.6420   27.9990   38.9800 H   0  0  0  0  0  0  0  0  0  0  0  0
   33.8100   27.4800   36.5810 H   0  0  0  0  0  0  0  0  0  0  0  0
   35.5700   28.6350   35.2330 H   0  0  0  0  0  0  0  0  0  0  0  0
  1  4  1  0  0  0  0
  1  3  1  0  0  0  0
  2  1  1  0  0  0  0
  4 14  1  0  0  0  0
  5  7  2  0  0  0  0
  5  4  1  0  0  0  0
  6  5  1  0  0  0  0
  7  8  1  0  0  0  0
  8 14  2  0  0  0  0
  8  9  1  0  0  0  0
  9 10  2  0  0  0  0
 10 11  1  0  0  0  0
 11 12  1  0  0  0  0
 13 11  2  0  0  0  0
 14 13  1  0  0  0  0
 15  9  1  0  0  0  0
 15 16  1  0  0  0  0
 17 15  1  0  0  0  0
 18  1  1  0  0  0  0
 20 19  2  1  0  0  0
 20 18  1  0  0  0  0
 20 21  1  0  0  0  0
 21 22  1  0  0  0  0
 23 20  1  0  0  0  0
 24 29  1  0  0  0  0
 24 30  1  0  0  0  0
 25 24  2  0  0  0  0
 26 27  2  0  0  0  0
 26 25  1  0  0  0  0
 27 28  1  0  0  0  0
 28 23  1  0  0  0  0
 28 29  2  0  0  0  0
 31 25  1  0  0  0  0
 32 26  1  0  0  0  0
M  END
>  <minimizedAffinity>
-5.55330706

$$$$

 OpenBabel03252505313D

 32 34  0  0  0  0  0  0  0  0999 V2000
   37.2050   29.0390   42.0650 C   0  0  0  0  0  0  0  0  0  0  0  0
   36.3450   28.8080   41.4060 H   0  0  0  0  0  0  0  0  0  0  0  0
   36.7760   29.5620   42.9430 H   0  0  0  0  0  0  0  0  0  0  0  0
   37.9340   27.8420   42.4450 N   0  0  0  0  0  0  0  0  0  0  0  0
   38.9660   27.8590   43.3340 C   0  0  0  0  0  0  0  0  0  0  0  0
   39.3750   28.7150   43.8590 H   0  0  0  0  0  0  0  0  0  0  0  0
   39.4600   26.6210   43.5040 N   0  0  0  0  0  0  0  0  0  0  0  0
   38.7420   25.8070   42.7230 C   0  0  0  0  0  0  0  0  0  0  0  0
   38.7400   24.4500   42.4420 C   0  0  0  0  0  0  0  0  0  0  0  0
   37.8880   23.8920   41.5980 N   0  0  0  0  0  0  0  0  0  0  0  0
   36.9660   24.6750   40.9680 C   0  0  0  0  0  0  0  0  0  0  0  0
   36.3080   24.1250   40.2930 H   0  0  0  0  0  0  0  0  0  0  0  0
   36.8990   26.0220   41.1860 N   0  0  0  0  0  0  0  0  0  0  0  0
   37.7790   26.5650   42.0510 C   0  0  0  0  0  0  0  0  0  0  0  0
   39.7490   23.7140   43.1570 N   0  0  0  0  0  0  0  0  0  0  0  0
   40.8050   23.8300   43.1180 H   0  0  0  0  0  0  0  0  0  0  0  0
   39.4490   22.9430   43.8220 H   0  0  0  0  0  0  0  0  0  0  0  0
   38.0780   29.8990   41.4560 O   0  0  0  0  0  0  0  0  0  0  0  0
   37.9090   32.3910   40.8240 O   0  0  0  0  0  0  0  0  0  0  0  0
   37.1870   31.0610   40.6240 P   0  0  2  0  0  0  0  0  0  0  0  0
   35.6420   31.1090   41.2690 O   0  0  0  0  0  0  0  0  0  0  0  0
   35.4840   30.4390   41.9780 H   0  0  0  0  0  0  0  0  0  0  0  0
   37.1500   30.7440   38.9580 O   0  0  0  0  0  0  0  0  0  0  0  0
   34.2690   28.7130   38.4720 C   0  0  0  0  0  0  0  0  0  0  0  0
   34.2670   28.4120   37.0910 C   0  0  0  0  0  0  0  0  0  0  0  0
   35.3340   28.9660   36.3520 C   0  0  0  0  0  0  0  0  0  0  0  0
   36.2740   29.7300   36.9800 N   0  0  0  0  0  0  0  0  0  0  0  0
   36.2000   29.9690   38.3070 C   0  0  0  0  0  0  0  0  0  0  0  0
   35.2130   29.4660   39.0380 N   0  0  0  0  0  0  0  0  0  0  0  0
   33.4450   28.2840   39.0350 H   0  0  0  0  0  0  0  0  0  0  0  0
   33.5200   27.8120   36.6220 H   0  0  0  0  0  0  0  0  0  0  0  0
   35.3960   28.7750   35.2780 H   0  0  0  0  0  0  0  0  0  0  0  0
  1  4  1  0  0  0  0
  1  3  1  0  0  0  0
  2  1  1  0  0  0  0
  4  5  1  0  0  0  0
  5  7  2  0  0  0  0
  5  6  1  0  0  0  0
  8  7  1  0  0  0  0
  9  8  1  0  0  0  0
  9 15  1  0  0  0  0
 10  9  2  0  0  0  0
 11 13  2  0  0  0  0
 11 10  1  0  0  0  0
 12 11  1  0  0  0  0
 13 14  1  0  0  0  0
 14  4  1  0  0  0  0
 14  8  2  0  0  0  0
 15 17  1  0  0  0  0
 16 15  1  0  0  0  0
 18  1  1  0  0  0  0
 20 19  2  1  0  0  0
 20 21  1  0  0  0  0
 20 18  1  0  0  0  0
 21 22  1  0  0  0  0
 23 20  1  0  0  0  0
 24 30  1  0  0  0  0
 24 29  1  0  0  0  0
 25 24  2  0  0  0  0
 26 27  2  0  0  0  0
 26 25  1  0  0  0  0
 27 28  1  0  0  0  0
 28 23  1  0  0  0  0
 28 29  2  0  0  0  0
 31 25  1  0  0  0  0
 32 26  1  0  0  0  0
M  END
>  <minimizedAffinity>
-5.50224161

$$$$

 OpenBabel03252505313D

 32 34  0  0  0  0  0  0  0  0999 V2000
   37.6930   29.7660   42.0650 C   0  0  0  0  0  0  0  0  0  0  0  0
   36.9070   30.1150   42.7640 H   0  0  0  0  0  0  0  0  0  0  0  0
   38.6420   30.1920   42.4460 H   0  0  0  0  0  0  0  0  0  0  0  0
   37.7380   28.3170   41.9810 N   0  0  0  0  0  0  0  0  0  0  0  0
   36.8730   27.5970   41.2140 C   0  0  0  0  0  0  0  0  0  0  0  0
   36.0700   27.9720   40.5890 H   0  0  0  0  0  0  0  0  0  0  0  0
   37.1340   26.2830   41.3180 N   0  0  0  0  0  0  0  0  0  0  0  0
   38.1700   26.1600   42.1550 C   0  0  0  0  0  0  0  0  0  0  0  0
   38.9080   25.1060   42.6710 C   0  0  0  0  0  0  0  0  0  0  0  0
   39.9170   25.2780   43.5100 N   0  0  0  0  0  0  0  0  0  0  0  0
   40.2560   26.5410   43.8930 C   0  0  0  0  0  0  0  0  0  0  0  0
   41.0990   26.5810   44.5840 H   0  0  0  0  0  0  0  0  0  0  0  0
   39.5820   27.6370   43.4320 N   0  0  0  0  0  0  0  0  0  0  0  0
   38.5580   27.4340   42.5790 C   0  0  0  0  0  0  0  0  0  0  0  0
   38.4700   23.8160   42.2060 N   0  0  0  0  0  0  0  0  0  0  0  0
   37.5210   23.3560   42.3310 H   0  0  0  0  0  0  0  0  0  0  0  0
   39.1490   23.2080   41.6620 H   0  0  0  0  0  0  0  0  0  0  0  0
   37.4910   30.2640   40.8060 O   0  0  0  0  0  0  0  0  0  0  0  0
   39.3310   31.7370   41.8460 O   0  0  0  0  0  0  0  0  0  0  0  0
   38.4000   31.6720   40.6380 P   0  0  2  0  0  0  0  0  0  0  0  0
   37.3540   32.9800   40.6110 O   0  0  0  0  0  0  0  0  0  0  0  0
   36.3990   32.7280   40.6470 H   0  0  0  0  0  0  0  0  0  0  0  0
   39.3680   31.6280   39.2470 O   0  0  0  0  0  0  0  0  0  0  0  0
   41.9520   33.2450   37.4120 C   0  0  0  0  0  0  0  0  0  0  0  0
   42.1280   34.4910   38.0550 C   0  0  0  0  0  0  0  0  0  0  0  0
   41.2860   34.7200   39.1640 C   0  0  0  0  0  0  0  0  0  0  0  0
   40.3850   33.7700   39.5440 N   0  0  0  0  0  0  0  0  0  0  0  0
   40.2810   32.6030   38.8710 C   0  0  0  0  0  0  0  0  0  0  0  0
   41.0540   32.3490   37.8230 N   0  0  0  0  0  0  0  0  0  0  0  0
   42.6030   33.0750   36.5580 H   0  0  0  0  0  0  0  0  0  0  0  0
   42.8400   35.2190   37.7390 H   0  0  0  0  0  0  0  0  0  0  0  0
   41.3680   35.6640   39.7100 H   0  0  0  0  0  0  0  0  0  0  0  0
  1  3  1  0  0  0  0
  1  2  1  0  0  0  0
  4  1  1  0  0  0  0
  4 14  1  0  0  0  0
  5  7  2  0  0  0  0
  5  4  1  0  0  0  0
  6  5  1  0  0  0  0
  7  8  1  0  0  0  0
  8 14  2  0  0  0  0
  8  9  1  0  0  0  0
  9 10  2  0  0  0  0
 10 11  1  0  0  0  0
 11 12  1  0  0  0  0
 13 11  2  0  0  0  0
 14 13  1  0  0  0  0
 15 16  1  0  0  0  0
 15  9  1  0  0  0  0
 17 15  1  0  0  0  0
 18  1  1  0  0  0  0
 20 18  1  0  0  0  0
 20 19  2  1  0  0  0
 21 20  1  0  0  0  0
 21 22  1  0  0  0  0
 23 20  1  0  0  0  0
 24 29  2  0  0  0  0
 24 25  1  0  0  0  0
 25 26  2  0  0  0  0
 26 27  1  0  0  0  0
 26 32  1  0  0  0  0
 28 23  1  0  0  0  0
 28 27  2  0  0  0  0
 29 28  1  0  0  0  0
 30 24  1  0  0  0  0
 31 25  1  0  0  0  0
M  END
>  <minimizedAffinity>
-5.39050579

$$$$

 OpenBabel03252505313D

 32 34  0  0  0  0  0  0  0  0999 V2000
   37.1280   31.3130   39.1700 C   0  0  0  0  0  0  0  0  0  0  0  0
   36.2030   31.6490   39.6810 H   0  0  0  0  0  0  0  0  0  0  0  0
   36.8720   31.2620   38.0930 H   0  0  0  0  0  0  0  0  0  0  0  0
   38.2420   32.2090   39.4260 N   0  0  0  0  0  0  0  0  0  0  0  0
   38.2740   33.0570   40.4910 C   0  0  0  0  0  0  0  0  0  0  0  0
   37.5210   33.1860   41.2610 H   0  0  0  0  0  0  0  0  0  0  0  0
   39.4140   33.7680   40.4900 N   0  0  0  0  0  0  0  0  0  0  0  0
   40.1150   33.3750   39.4210 C   0  0  0  0  0  0  0  0  0  0  0  0
   41.3400   33.7060   38.8610 C   0  0  0  0  0  0  0  0  0  0  0  0
   41.8030   33.1390   37.7600 N   0  0  0  0  0  0  0  0  0  0  0  0
   41.0540   32.1860   37.1360 C   0  0  0  0  0  0  0  0  0  0  0  0
   41.5190   31.7770   36.2380 H   0  0  0  0  0  0  0  0  0  0  0  0
   39.8360   31.8000   37.6200 N   0  0  0  0  0  0  0  0  0  0  0  0
   39.3870   32.3940   38.7440 C   0  0  0  0  0  0  0  0  0  0  0  0
   42.0500   34.7210   39.5940 N   0  0  0  0  0  0  0  0  0  0  0  0
   41.7520   35.7190   39.8000 H   0  0  0  0  0  0  0  0  0  0  0  0
   43.0030   34.4880   40.0020 H   0  0  0  0  0  0  0  0  0  0  0  0
   37.4850   30.0550   39.5710 O   0  0  0  0  0  0  0  0  0  0  0  0
   35.9280   28.3820   40.7590 O   0  0  0  0  0  0  0  0  0  0  0  0
   36.6650   29.6970   40.9970 P   0  0  2  0  0  0  0  0  0  0  0  0
   35.5900   30.9410   41.3190 O   0  0  0  0  0  0  0  0  0  0  0  0
   35.6380   31.6880   40.6730 H   0  0  0  0  0  0  0  0  0  0  0  0
   37.7350   29.4570   42.2900 O   0  0  0  0  0  0  0  0  0  0  0  0
   39.2960   26.7000   43.9100 C   0  0  0  0  0  0  0  0  0  0  0  0
   40.1190   26.1170   42.9200 C   0  0  0  0  0  0  0  0  0  0  0  0
   40.0880   26.7520   41.6600 C   0  0  0  0  0  0  0  0  0  0  0  0
   39.3000   27.8480   41.4680 N   0  0  0  0  0  0  0  0  0  0  0  0
   38.5410   28.3420   42.4720 C   0  0  0  0  0  0  0  0  0  0  0  0
   38.5430   27.7740   43.6710 N   0  0  0  0  0  0  0  0  0  0  0  0
   39.3240   26.2060   44.8770 H   0  0  0  0  0  0  0  0  0  0  0  0
   40.7270   25.2580   43.0930 H   0  0  0  0  0  0  0  0  0  0  0  0
   40.7000   26.3540   40.8470 H   0  0  0  0  0  0  0  0  0  0  0  0
  1  4  1  0  0  0  0
  1 18  1  0  0  0  0
  1  2  1  0  0  0  0
  3  1  1  0  0  0  0
  4  5  1  0  0  0  0
  5  6  1  0  0  0  0
  7  5  2  0  0  0  0
  8  7  1  0  0  0  0
  9  8  1  0  0  0  0
  9 15  1  0  0  0  0
 10  9  2  0  0  0  0
 11 13  2  0  0  0  0
 11 10  1  0  0  0  0
 12 11  1  0  0  0  0
 13 14  1  0  0  0  0
 14  8  2  0  0  0  0
 14  4  1  0  0  0  0
 15 16  1  0  0  0  0
 15 17  1  0  0  0  0
 18 20  1  0  0  0  0
 20 19  2  6  0  0  0
 20 21  1  0  0  0  0
 20 23  1  0  0  0  0
 22 21  1  0  0  0  0
 23 28  1  0  0  0  0
 24 30  1  0  0  0  0
 25 31  1  0  0  0  0
 25 24  2  0  0  0  0
 26 25  1  0  0  0  0
 27 26  2  0  0  0  0
 27 28  1  0  0  0  0
 28 29  2  0  0  0  0
 29 24  1  0  0  0  0
 32 26  1  0  0  0  0
M  END
>  <minimizedAffinity>
-5.33167219

$$$$

 OpenBabel03252505313D

 32 34  0  0  0  0  0  0  0  0999 V2000
   37.7340   29.7210   41.5840 C   0  0  0  0  0  0  0  0  0  0  0  0
   38.0500   30.3140   42.4650 H   0  0  0  0  0  0  0  0  0  0  0  0
   36.6260   29.7300   41.5990 H   0  0  0  0  0  0  0  0  0  0  0  0
   38.2690   30.2620   40.3470 N   0  0  0  0  0  0  0  0  0  0  0  0
   37.9620   29.7460   39.1250 C   0  0  0  0  0  0  0  0  0  0  0  0
   37.3140   28.9050   38.9020 H   0  0  0  0  0  0  0  0  0  0  0  0
   38.5900   30.4320   38.1540 N   0  0  0  0  0  0  0  0  0  0  0  0
   39.3000   31.3910   38.7560 C   0  0  0  0  0  0  0  0  0  0  0  0
   40.1440   32.4090   38.3400 C   0  0  0  0  0  0  0  0  0  0  0  0
   40.7340   33.2430   39.1810 N   0  0  0  0  0  0  0  0  0  0  0  0
   40.5120   33.1060   40.5190 C   0  0  0  0  0  0  0  0  0  0  0  0
   41.0400   33.8380   41.1320 H   0  0  0  0  0  0  0  0  0  0  0  0
   39.6950   32.1300   41.0150 N   0  0  0  0  0  0  0  0  0  0  0  0
   39.1060   31.2940   40.1360 C   0  0  0  0  0  0  0  0  0  0  0  0
   40.3130   32.4680   36.9120 N   0  0  0  0  0  0  0  0  0  0  0  0
   40.7080   31.7270   36.2610 H   0  0  0  0  0  0  0  0  0  0  0  0
   40.0180   33.3470   36.3950 H   0  0  0  0  0  0  0  0  0  0  0  0
   38.1380   28.4180   41.6940 O   0  0  0  0  0  0  0  0  0  0  0  0
   36.6570   26.7170   42.9390 O   0  0  0  0  0  0  0  0  0  0  0  0
   37.6600   27.8380   43.2010 P   0  0  2  0  0  0  0  0  0  0  0  0
   36.9530   29.0930   44.0540 O   0  0  0  0  0  0  0  0  0  0  0  0
   36.9700   29.9590   43.5790 H   0  0  0  0  0  0  0  0  0  0  0  0
   38.9640   27.1690   44.0550 O   0  0  0  0  0  0  0  0  0  0  0  0
   41.4190   24.9940   42.6750 C   0  0  0  0  0  0  0  0  0  0  0  0
   42.5190   25.8310   42.3790 C   0  0  0  0  0  0  0  0  0  0  0  0
   42.3400   27.1950   42.6940 C   0  0  0  0  0  0  0  0  0  0  0  0
   41.1660   27.6190   43.2440 N   0  0  0  0  0  0  0  0  0  0  0  0
   40.1630   26.7500   43.4940 C   0  0  0  0  0  0  0  0  0  0  0  0
   40.2910   25.4600   43.2140 N   0  0  0  0  0  0  0  0  0  0  0  0
   41.5630   23.9450   42.4300 H   0  0  0  0  0  0  0  0  0  0  0  0
   43.4270   25.4760   41.9480 H   0  0  0  0  0  0  0  0  0  0  0  0
   43.1500   27.9000   42.4910 H   0  0  0  0  0  0  0  0  0  0  0  0
  1  3  1  0  0  0  0
  1 18  1  0  0  0  0
  1  2  1  0  0  0  0
  4  1  1  0  0  0  0
  5  4  1  0  0  0  0
  6  5  1  0  0  0  0
  7  8  1  0  0  0  0
  7  5  2  0  0  0  0
  8 14  1  0  0  0  0
  9  8  2  0  0  0  0
  9 10  1  0  0  0  0
 10 11  2  0  0  0  0
 11 13  1  0  0  0  0
 11 12  1  0  0  0  0
 14  4  1  0  0  0  0
 14 13  2  0  0  0  0
 15  9  1  0  0  0  0
 16 15  1  0  0  0  0
 17 15  1  0  0  0  0
 18 20  1  0  0  0  0
 20 19  2  6  0  0  0
 20 21  1  0  0  0  0
 20 23  1  0  0  0  0
 22 21  1  0  0  0  0
 24 29  1  0  0  0  0
 25 24  2  0  0  0  0
 25 26  1  0  0  0  0
 26 27  2  0  0  0  0
 27 28  1  0  0  0  0
 28 23  1  0  0  0  0
 29 28  2  0  0  0  0
 30 24  1  0  0  0  0
 31 25  1  0  0  0  0
 32 26  1  0  0  0  0
M  END
>  <minimizedAffinity>
-5.27745295

$$$$

 OpenBabel03252505313D

 32 34  0  0  0  0  0  0  0  0999 V2000
   36.9050   30.9630   38.6690 C   0  0  0  0  0  0  0  0  0  0  0  0
   36.1780   31.5940   39.2190 H   0  0  0  0  0  0  0  0  0  0  0  0
   36.4660   30.8110   37.6630 H   0  0  0  0  0  0  0  0  0  0  0  0
   38.2180   31.5790   38.6060 N   0  0  0  0  0  0  0  0  0  0  0  0
   39.2190   31.0980   37.8170 C   0  0  0  0  0  0  0  0  0  0  0  0
   39.1900   30.2360   37.1600 H   0  0  0  0  0  0  0  0  0  0  0  0
   40.3230   31.8520   37.9480 N   0  0  0  0  0  0  0  0  0  0  0  0
   40.0290   32.8200   38.8220 C   0  0  0  0  0  0  0  0  0  0  0  0
   40.7080   33.8940   39.3780 C   0  0  0  0  0  0  0  0  0  0  0  0
   40.1540   34.7210   40.2500 N   0  0  0  0  0  0  0  0  0  0  0  0
   38.8590   34.5190   40.6280 C   0  0  0  0  0  0  0  0  0  0  0  0
   38.4910   35.2520   41.3480 H   0  0  0  0  0  0  0  0  0  0  0  0
   38.1180   33.4860   40.1300 N   0  0  0  0  0  0  0  0  0  0  0  0
   38.7070   32.6580   39.2430 C   0  0  0  0  0  0  0  0  0  0  0  0
   42.0640   34.0180   38.9150 N   0  0  0  0  0  0  0  0  0  0  0  0
   42.8630   33.3240   39.0110 H   0  0  0  0  0  0  0  0  0  0  0  0
   42.3540   34.9020   38.4030 H   0  0  0  0  0  0  0  0  0  0  0  0
   37.0330   29.7330   39.2550 O   0  0  0  0  0  0  0  0  0  0  0  0
   35.5060   28.7460   41.0800 O   0  0  0  0  0  0  0  0  0  0  0  0
   36.5360   29.8520   40.8590 P   0  0  2  0  0  0  0  0  0  0  0  0
   35.8570   31.3650   41.0950 O   0  0  0  0  0  0  0  0  0  0  0  0
   35.8970   31.9490   40.2990 H   0  0  0  0  0  0  0  0  0  0  0  0
   37.8190   29.5770   41.9330 O   0  0  0  0  0  0  0  0  0  0  0  0
   39.2320   26.8670   43.7540 C   0  0  0  0  0  0  0  0  0  0  0  0
   39.5860   25.9160   42.7710 C   0  0  0  0  0  0  0  0  0  0  0  0
   39.2980   26.2880   41.4410 C   0  0  0  0  0  0  0  0  0  0  0  0
   38.7170   27.4940   41.1810 N   0  0  0  0  0  0  0  0  0  0  0  0
   38.4100   28.3460   42.1830 C   0  0  0  0  0  0  0  0  0  0  0  0
   38.6660   28.0350   43.4470 N   0  0  0  0  0  0  0  0  0  0  0  0
   39.4570   26.5740   44.7760 H   0  0  0  0  0  0  0  0  0  0  0  0
   40.0400   24.9770   42.9990 H   0  0  0  0  0  0  0  0  0  0  0  0
   39.5450   25.6000   40.6290 H   0  0  0  0  0  0  0  0  0  0  0  0
  1  2  1  0  0  0  0
  1 18  1  0  0  0  0
  3  1  1  0  0  0  0
  4  1  1  0  0  0  0
  4 14  1  0  0  0  0
  5  7  2  0  0  0  0
  5  4  1  0  0  0  0
  6  5  1  0  0  0  0
  7  8  1  0  0  0  0
  8 14  2  0  0  0  0
  8  9  1  0  0  0  0
  9 10  2  0  0  0  0
 10 11  1  0  0  0  0
 11 12  1  0  0  0  0
 13 11  2  0  0  0  0
 14 13  1  0  0  0  0
 15 16  1  0  0  0  0
 15  9  1  0  0  0  0
 17 15  1  0  0  0  0
 18 20  1  0  0  0  0
 20 19  2  1  0  0  0
 20 21  1  0  0  0  0
 20 23  1  0  0  0  0
 22 21  1  0  0  0  0
 23 28  1  0  0  0  0
 24 30  1  0  0  0  0
 25 31  1  0  0  0  0
 25 24  2  0  0  0  0
 26 25  1  0  0  0  0
 27 26  2  0  0  0  0
 27 28  1  0  0  0  0
 28 29  2  0  0  0  0
 29 24  1  0  0  0  0
 32 26  1  0  0  0  0
M  END
>  <minimizedAffinity>
-5.23612976

$$$$

 OpenBabel03252505313D

 32 34  0  0  0  0  0  0  0  0999 V2000
   36.2230   29.4840   41.1610 C   0  0  0  0  0  0  0  0  0  0  0  0
   36.4200   30.0500   42.0940 H   0  0  0  0  0  0  0  0  0  0  0  0
   35.1210   29.4690   41.0490 H   0  0  0  0  0  0  0  0  0  0  0  0
   36.8820   30.0840   40.0150 N   0  0  0  0  0  0  0  0  0  0  0  0
   36.4370   29.9140   38.7390 C   0  0  0  0  0  0  0  0  0  0  0  0
   35.5790   29.3410   38.4050 H   0  0  0  0  0  0  0  0  0  0  0  0
   37.2270   30.5740   37.8750 N   0  0  0  0  0  0  0  0  0  0  0  0
   38.1800   31.1690   38.5990 C   0  0  0  0  0  0  0  0  0  0  0  0
   39.2740   31.9770   38.3260 C   0  0  0  0  0  0  0  0  0  0  0  0
   40.0770   32.4410   39.2690 N   0  0  0  0  0  0  0  0  0  0  0  0
   39.8320   32.1170   40.5710 C   0  0  0  0  0  0  0  0  0  0  0  0
   40.5480   32.5460   41.2750 H   0  0  0  0  0  0  0  0  0  0  0  0
   38.7770   31.3270   40.9280 N   0  0  0  0  0  0  0  0  0  0  0  0
   37.9740   30.8670   39.9470 C   0  0  0  0  0  0  0  0  0  0  0  0
   39.4450   32.2590   36.9260 N   0  0  0  0  0  0  0  0  0  0  0  0
   39.6130   31.5760   36.1290 H   0  0  0  0  0  0  0  0  0  0  0  0
   39.4050   33.2670   36.5950 H   0  0  0  0  0  0  0  0  0  0  0  0
   36.6460   28.1870   41.2720 O   0  0  0  0  0  0  0  0  0  0  0  0
   36.1210   27.4640   43.6880 O   0  0  0  0  0  0  0  0  0  0  0  0
   37.2730   27.9610   42.8180 P   0  0  2  0  0  0  0  0  0  0  0  0
   37.8600   29.4280   43.3740 O   0  0  0  0  0  0  0  0  0  0  0  0
   37.7950   30.1600   42.7140 H   0  0  0  0  0  0  0  0  0  0  0  0
   38.4780   26.7680   42.8340 O   0  0  0  0  0  0  0  0  0  0  0  0
   37.7130   23.6340   41.3330 C   0  0  0  0  0  0  0  0  0  0  0  0
   38.6400   23.5040   40.2740 C   0  0  0  0  0  0  0  0  0  0  0  0
   39.5420   24.5800   40.1270 C   0  0  0  0  0  0  0  0  0  0  0  0
   39.4760   25.6450   40.9760 N   0  0  0  0  0  0  0  0  0  0  0  0
   38.5550   25.6900   41.9630 C   0  0  0  0  0  0  0  0  0  0  0  0
   37.6900   24.6980   42.1360 N   0  0  0  0  0  0  0  0  0  0  0  0
   37.0220   22.8020   41.4400 H   0  0  0  0  0  0  0  0  0  0  0  0
   38.6720   22.6600   39.6220 H   0  0  0  0  0  0  0  0  0  0  0  0
   40.2870   24.5460   39.3290 H   0  0  0  0  0  0  0  0  0  0  0  0
  1 18  1  0  0  0  0
  1  2  1  0  0  0  0
  3  1  1  0  0  0  0
  4  1  1  0  0  0  0
  5  4  1  0  0  0  0
  6  5  1  0  0  0  0
  7  8  1  0  0  0  0
  7  5  2  0  0  0  0
  8 14  1  0  0  0  0
  9  8  2  0  0  0  0
  9 10  1  0  0  0  0
 10 11  2  0  0  0  0
 11 13  1  0  0  0  0
 11 12  1  0  0  0  0
 14  4  1  0  0  0  0
 14 13  2  0  0  0  0
 15  9  1  0  0  0  0
 16 15  1  0  0  0  0
 17 15  1  0  0  0  0
 18 20  1  0  0  0  0
 20 23  1  0  0  0  0
 20 21  1  0  0  0  0
 20 19  2  1  0  0  0
 22 21  1  0  0  0  0
 24 30  1  0  0  0  0
 24 29  1  0  0  0  0
 25 24  2  0  0  0  0
 26 25  1  0  0  0  0
 26 27  2  0  0  0  0
 27 28  1  0  0  0  0
 28 29  2  0  0  0  0
 28 23  1  0  0  0  0
 31 25  1  0  0  0  0
 32 26  1  0  0  0  0
M  END
>  <minimizedAffinity>
-5.15790749

$$$$
