
 OpenBabel03252506593D

 29 31  0  0  0  0  0  0  0  0999 V2000
   39.0430   29.3180   42.5590 C   0  0  0  0  0  0  0  0  0  0  0  0
   39.6820   29.8000   43.3250 H   0  0  0  0  0  0  0  0  0  0  0  0
   39.7040   28.6850   41.9370 H   0  0  0  0  0  0  0  0  0  0  0  0
   38.3290   30.3290   41.7720 N   0  0  0  0  0  0  0  0  0  0  0  0
   37.0060   30.1980   41.5160 C   0  0  0  0  0  0  0  0  0  0  0  0
   36.3410   29.4050   41.8280 H   0  0  0  0  0  0  0  0  0  0  0  0
   36.6500   31.2800   40.7750 N   0  0  0  0  0  0  0  0  0  0  0  0
   37.7420   32.0440   40.5920 C   0  0  0  0  0  0  0  0  0  0  0  0
   38.0170   33.2390   39.9410 C   0  0  0  0  0  0  0  0  0  0  0  0
   39.2650   33.7470   39.9490 N   0  0  0  0  0  0  0  0  0  0  0  0
   40.2940   33.1200   40.5860 C   0  0  0  0  0  0  0  0  0  0  0  0
   41.2110   33.6840   40.4770 H   0  0  0  0  0  0  0  0  0  0  0  0
   40.0860   31.9430   41.2410 N   0  0  0  0  0  0  0  0  0  0  0  0
   38.8380   31.4480   41.2250 C   0  0  0  0  0  0  0  0  0  0  0  0
   36.9370   33.8970   39.2720 N   0  0  0  0  0  0  0  0  0  0  0  0
   35.9460   33.8530   39.6480 H   0  0  0  0  0  0  0  0  0  0  0  0
   36.9170   34.4680   38.4060 H   0  0  0  0  0  0  0  0  0  0  0  0
   38.0440   28.4450   43.3140 C   0  0  0  0  0  0  0  0  0  0  0  0
   37.9950   28.7350   44.3840 H   0  0  0  0  0  0  0  0  0  0  0  0
   37.0700   28.7070   42.8850 H   0  0  0  0  0  0  0  0  0  0  0  0
   38.4020   27.0400   43.1100 C   0  0  0  0  0  0  0  0  0  0  0  0
   39.5650   26.5050   43.6400 C   0  0  0  0  0  0  0  0  0  0  0  0
   39.8620   25.1420   43.4110 C   0  0  0  0  0  0  0  0  0  0  0  0
   38.9700   24.4400   42.6760 N   0  0  0  0  0  0  0  0  0  0  0  0
   37.8380   24.9970   42.1700 C   0  0  0  0  0  0  0  0  0  0  0  0
   37.5600   26.2980   42.3930 N   0  0  0  0  0  0  0  0  0  0  0  0
   40.2620   27.0580   44.2170 H   0  0  0  0  0  0  0  0  0  0  0  0
   40.7390   24.6490   43.7830 H   0  0  0  0  0  0  0  0  0  0  0  0
   37.1320   24.4010   41.5770 H   0  0  0  0  0  0  0  0  0  0  0  0
  1 18  1  0  0  0  0
  1  2  1  0  0  0  0
  3  1  1  0  0  0  0
  4  1  1  0  0  0  0
  5  4  1  0  0  0  0
  5  6  1  0  0  0  0
  7  5  2  0  0  0  0
  8  7  1  0  0  0  0
  8 14  1  0  0  0  0
  9 10  1  0  0  0  0
  9  8  2  0  0  0  0
 10 11  2  0  0  0  0
 11 13  1  0  0  0  0
 12 11  1  0  0  0  0
 14 13  2  0  0  0  0
 14  4  1  0  0  0  0
 15 16  1  0  0  0  0
 15  9  1  0  0  0  0
 17 15  1  0  0  0  0
 18 19  1  0  0  0  0
 20 18  1  0  0  0  0
 21 18  1  0  0  0  0
 21 22  1  0  0  0  0
 22 27  1  0  0  0  0
 23 22  2  0  0  0  0
 23 28  1  0  0  0  0
 24 23  1  0  0  0  0
 25 26  1  0  0  0  0
 25 24  2  0  0  0  0
 26 21  2  0  0  0  0
 29 25  1  0  0  0  0
M  END
>  <minimizedAffinity>
-5.38503456

$$$$

 OpenBabel03252506593D

 29 31  0  0  0  0  0  0  0  0999 V2000
   35.8840   30.4290   40.6840 C   0  0  0  0  0  0  0  0  0  0  0  0
   34.8800   30.8650   40.5140 H   0  0  0  0  0  0  0  0  0  0  0  0
   36.2360   30.7980   41.6670 H   0  0  0  0  0  0  0  0  0  0  0  0
   36.7950   30.7850   39.5910 N   0  0  0  0  0  0  0  0  0  0  0  0
   36.5330   30.3990   38.3200 C   0  0  0  0  0  0  0  0  0  0  0  0
   35.6910   29.8260   37.9570 H   0  0  0  0  0  0  0  0  0  0  0  0
   37.5500   30.8770   37.5560 N   0  0  0  0  0  0  0  0  0  0  0  0
   38.4050   31.5370   38.3580 C   0  0  0  0  0  0  0  0  0  0  0  0
   39.5970   32.2260   38.1810 C   0  0  0  0  0  0  0  0  0  0  0  0
   40.2200   32.7900   39.2350 N   0  0  0  0  0  0  0  0  0  0  0  0
   39.7140   32.7110   40.4980 C   0  0  0  0  0  0  0  0  0  0  0  0
   40.3580   33.2250   41.2000 H   0  0  0  0  0  0  0  0  0  0  0  0
   38.5480   32.0470   40.7340 N   0  0  0  0  0  0  0  0  0  0  0  0
   37.9380   31.4900   39.6760 C   0  0  0  0  0  0  0  0  0  0  0  0
   40.1280   32.3100   36.8560 N   0  0  0  0  0  0  0  0  0  0  0  0
   39.4920   32.3670   36.0090 H   0  0  0  0  0  0  0  0  0  0  0  0
   41.1060   32.3280   36.5120 H   0  0  0  0  0  0  0  0  0  0  0  0
   35.6960   28.9140   40.7330 C   0  0  0  0  0  0  0  0  0  0  0  0
   34.6450   28.6550   40.9780 H   0  0  0  0  0  0  0  0  0  0  0  0
   35.8550   28.5840   39.7000 H   0  0  0  0  0  0  0  0  0  0  0  0
   36.6670   28.3510   41.6720 C   0  0  0  0  0  0  0  0  0  0  0  0
   37.0020   27.0060   41.6480 C   0  0  0  0  0  0  0  0  0  0  0  0
   37.9460   26.5170   42.5800 C   0  0  0  0  0  0  0  0  0  0  0  0
   38.4670   27.4130   43.4470 N   0  0  0  0  0  0  0  0  0  0  0  0
   38.1160   28.7260   43.4440 C   0  0  0  0  0  0  0  0  0  0  0  0
   37.2150   29.1880   42.5520 N   0  0  0  0  0  0  0  0  0  0  0  0
   36.5930   26.3060   40.9660 H   0  0  0  0  0  0  0  0  0  0  0  0
   38.2620   25.4930   42.6310 H   0  0  0  0  0  0  0  0  0  0  0  0
   38.5570   29.4310   44.1600 H   0  0  0  0  0  0  0  0  0  0  0  0
  1 18  1  0  0  0  0
  1  3  1  0  0  0  0
  2  1  1  0  0  0  0
  4 14  1  0  0  0  0
  4  1  1  0  0  0  0
  5  4  1  0  0  0  0
  6  5  1  0  0  0  0
  7  5  2  0  0  0  0
  7  8  1  0  0  0  0
  8 14  1  0  0  0  0
  9  8  2  0  0  0  0
  9 10  1  0  0  0  0
 10 11  2  0  0  0  0
 11 13  1  0  0  0  0
 11 12  1  0  0  0  0
 14 13  2  0  0  0  0
 15  9  1  0  0  0  0
 16 15  1  0  0  0  0
 17 15  1  0  0  0  0
 18 19  1  0  0  0  0
 18 21  1  0  0  0  0
 20 18  1  0  0  0  0
 21 26  1  0  0  0  0
 22 21  2  0  0  0  0
 22 23  1  0  0  0  0
 23 28  1  0  0  0  0
 23 24  2  0  0  0  0
 25 24  1  0  0  0  0
 25 29  1  0  0  0  0
 26 25  2  0  0  0  0
 27 22  1  0  0  0  0
M  END
>  <minimizedAffinity>
-5.19603682

$$$$

 OpenBabel03252506593D

 29 31  0  0  0  0  0  0  0  0999 V2000
   37.3360   29.0190   42.0390 C   0  0  0  0  0  0  0  0  0  0  0  0
   37.5330   28.2580   41.2580 H   0  0  0  0  0  0  0  0  0  0  0  0
   36.2760   29.3220   41.9370 H   0  0  0  0  0  0  0  0  0  0  0  0
   38.2600   30.1490   41.9040 N   0  0  0  0  0  0  0  0  0  0  0  0
   39.4220   30.1790   42.5980 C   0  0  0  0  0  0  0  0  0  0  0  0
   39.8060   29.4410   43.2890 H   0  0  0  0  0  0  0  0  0  0  0  0
   40.0420   31.3400   42.2590 N   0  0  0  0  0  0  0  0  0  0  0  0
   39.2620   31.9920   41.3770 C   0  0  0  0  0  0  0  0  0  0  0  0
   39.3420   33.1920   40.6840 C   0  0  0  0  0  0  0  0  0  0  0  0
   38.3510   33.5620   39.8480 N   0  0  0  0  0  0  0  0  0  0  0  0
   37.2470   32.7870   39.6520 C   0  0  0  0  0  0  0  0  0  0  0  0
   36.5710   33.2560   38.9480 H   0  0  0  0  0  0  0  0  0  0  0  0
   37.1120   31.5990   40.3050 N   0  0  0  0  0  0  0  0  0  0  0  0
   38.1060   31.2430   41.1340 C   0  0  0  0  0  0  0  0  0  0  0  0
   40.5000   34.0050   40.8900 N   0  0  0  0  0  0  0  0  0  0  0  0
   41.4510   33.5750   41.0740 H   0  0  0  0  0  0  0  0  0  0  0  0
   40.6180   35.0360   40.8980 H   0  0  0  0  0  0  0  0  0  0  0  0
   37.5530   28.3260   43.3830 C   0  0  0  0  0  0  0  0  0  0  0  0
   38.1950   28.9430   44.0460 H   0  0  0  0  0  0  0  0  0  0  0  0
   36.5620   28.3140   43.8490 H   0  0  0  0  0  0  0  0  0  0  0  0
   38.0900   26.9870   43.1380 C   0  0  0  0  0  0  0  0  0  0  0  0
   37.3940   26.0540   42.3850 C   0  0  0  0  0  0  0  0  0  0  0  0
   37.9600   24.7740   42.1820 C   0  0  0  0  0  0  0  0  0  0  0  0
   39.1660   24.5460   42.7460 N   0  0  0  0  0  0  0  0  0  0  0  0
   39.8220   25.4830   43.4800 C   0  0  0  0  0  0  0  0  0  0  0  0
   39.2770   26.7030   43.6700 N   0  0  0  0  0  0  0  0  0  0  0  0
   36.4480   26.2380   41.9420 H   0  0  0  0  0  0  0  0  0  0  0  0
   37.4900   23.9950   41.6140 H   0  0  0  0  0  0  0  0  0  0  0  0
   40.8020   25.2680   43.9250 H   0  0  0  0  0  0  0  0  0  0  0  0
  1 18  1  0  0  0  0
  2  1  1  0  0  0  0
  3  1  1  0  0  0  0
  4  1  1  0  0  0  0
  4  5  1  0  0  0  0
  5  6  1  0  0  0  0
  7  5  2  0  0  0  0
  8  7  1  0  0  0  0
  9 15  1  0  0  0  0
  9  8  2  0  0  0  0
 10  9  1  0  0  0  0
 11 10  2  0  0  0  0
 11 13  1  0  0  0  0
 12 11  1  0  0  0  0
 13 14  2  0  0  0  0
 14  8  1  0  0  0  0
 14  4  1  0  0  0  0
 15 17  1  0  0  0  0
 15 16  1  0  0  0  0
 18 20  1  0  0  0  0
 18 19  1  0  0  0  0
 21 18  1  0  0  0  0
 21 26  1  0  0  0  0
 22 21  2  0  0  0  0
 23 22  1  0  0  0  0
 23 24  2  0  0  0  0
 24 25  1  0  0  0  0
 25 26  2  0  0  0  0
 25 29  1  0  0  0  0
 27 22  1  0  0  0  0
 28 23  1  0  0  0  0
M  END
>  <minimizedAffinity>
-5.10057545

$$$$

 OpenBabel03252506593D

 29 31  0  0  0  0  0  0  0  0999 V2000
   37.9800   27.9650   42.6700 C   0  0  0  0  0  0  0  0  0  0  0  0
   38.0970   28.1890   43.7480 H   0  0  0  0  0  0  0  0  0  0  0  0
   38.9650   27.6160   42.3020 H   0  0  0  0  0  0  0  0  0  0  0  0
   37.4950   29.1440   41.9450 N   0  0  0  0  0  0  0  0  0  0  0  0
   36.2340   29.1840   41.4560 C   0  0  0  0  0  0  0  0  0  0  0  0
   35.4680   28.4230   41.5220 H   0  0  0  0  0  0  0  0  0  0  0  0
   36.0960   30.3910   40.8470 N   0  0  0  0  0  0  0  0  0  0  0  0
   37.2570   31.0600   40.9710 C   0  0  0  0  0  0  0  0  0  0  0  0
   37.7300   32.3030   40.5730 C   0  0  0  0  0  0  0  0  0  0  0  0
   38.9910   32.6780   40.8700 N   0  0  0  0  0  0  0  0  0  0  0  0
   39.8400   31.8670   41.5620 C   0  0  0  0  0  0  0  0  0  0  0  0
   40.8000   32.3470   41.6980 H   0  0  0  0  0  0  0  0  0  0  0  0
   39.4320   30.6350   41.9780 N   0  0  0  0  0  0  0  0  0  0  0  0
   38.1750   30.2740   41.6760 C   0  0  0  0  0  0  0  0  0  0  0  0
   36.8400   33.1550   39.8480 N   0  0  0  0  0  0  0  0  0  0  0  0
   35.7970   33.1560   40.0410 H   0  0  0  0  0  0  0  0  0  0  0  0
   37.0170   33.8430   39.0920 H   0  0  0  0  0  0  0  0  0  0  0  0
   36.9570   26.8350   42.5700 C   0  0  0  0  0  0  0  0  0  0  0  0
   36.5450   26.5870   43.5700 H   0  0  0  0  0  0  0  0  0  0  0  0
   36.1280   27.2660   41.9990 H   0  0  0  0  0  0  0  0  0  0  0  0
   37.5840   25.6930   41.9020 C   0  0  0  0  0  0  0  0  0  0  0  0
   36.9040   24.4990   41.7190 C   0  0  0  0  0  0  0  0  0  0  0  0
   37.5590   23.4290   41.0670 C   0  0  0  0  0  0  0  0  0  0  0  0
   38.8280   23.6490   40.6590 N   0  0  0  0  0  0  0  0  0  0  0  0
   39.4660   24.8340   40.8550 C   0  0  0  0  0  0  0  0  0  0  0  0
   38.8360   25.8510   41.4770 N   0  0  0  0  0  0  0  0  0  0  0  0
   35.9070   24.3300   42.0390 H   0  0  0  0  0  0  0  0  0  0  0  0
   37.1080   22.4730   40.8850 H   0  0  0  0  0  0  0  0  0  0  0  0
   40.4980   24.9830   40.5120 H   0  0  0  0  0  0  0  0  0  0  0  0
  1  2  1  0  0  0  0
  3  1  1  0  0  0  0
  4  1  1  0  0  0  0
  5  6  1  0  0  0  0
  5  4  1  0  0  0  0
  7  8  1  0  0  0  0
  7  5  2  0  0  0  0
  8 14  1  0  0  0  0
  9 10  1  0  0  0  0
  9  8  2  0  0  0  0
 10 11  2  0  0  0  0
 11 12  1  0  0  0  0
 11 13  1  0  0  0  0
 14  4  1  0  0  0  0
 14 13  2  0  0  0  0
 15 16  1  0  0  0  0
 15  9  1  0  0  0  0
 17 15  1  0  0  0  0
 18  1  1  0  0  0  0
 18 19  1  0  0  0  0
 20 18  1  0  0  0  0
 21 18  1  0  0  0  0
 22 21  1  0  0  0  0
 22 27  1  0  0  0  0
 23 22  2  0  0  0  0
 24 25  2  0  0  0  0
 24 23  1  0  0  0  0
 25 26  1  0  0  0  0
 26 21  2  0  0  0  0
 28 23  1  0  0  0  0
 29 25  1  0  0  0  0
M  END
>  <minimizedAffinity>
-5.01220417

$$$$

 OpenBabel03252506593D

 29 31  0  0  0  0  0  0  0  0999 V2000
   37.3540   29.7980   41.9980 C   0  0  0  0  0  0  0  0  0  0  0  0
   36.8480   28.8790   41.6400 H   0  0  0  0  0  0  0  0  0  0  0  0
   36.5830   30.4240   42.4870 H   0  0  0  0  0  0  0  0  0  0  0  0
   38.0180   30.4880   40.8880 N   0  0  0  0  0  0  0  0  0  0  0  0
   39.1100   31.2580   41.1070 C   0  0  0  0  0  0  0  0  0  0  0  0
   39.6080   31.4580   42.0460 H   0  0  0  0  0  0  0  0  0  0  0  0
   39.4820   31.7510   39.8970 N   0  0  0  0  0  0  0  0  0  0  0  0
   38.6260   31.2830   38.9700 C   0  0  0  0  0  0  0  0  0  0  0  0
   38.4800   31.4220   37.5970 C   0  0  0  0  0  0  0  0  0  0  0  0
   37.4760   30.7950   36.9520 N   0  0  0  0  0  0  0  0  0  0  0  0
   36.5770   30.0100   37.6090 C   0  0  0  0  0  0  0  0  0  0  0  0
   35.8530   29.5980   36.9180 H   0  0  0  0  0  0  0  0  0  0  0  0
   36.6680   29.8360   38.9580 N   0  0  0  0  0  0  0  0  0  0  0  0
   37.6720   30.4660   39.5880 C   0  0  0  0  0  0  0  0  0  0  0  0
   39.4240   32.2460   36.9060 N   0  0  0  0  0  0  0  0  0  0  0  0
   40.4350   32.3080   37.2200 H   0  0  0  0  0  0  0  0  0  0  0  0
   39.3160   32.8600   36.0770 H   0  0  0  0  0  0  0  0  0  0  0  0
   38.3900   29.3490   43.0270 C   0  0  0  0  0  0  0  0  0  0  0  0
   39.3380   29.9120   42.9040 H   0  0  0  0  0  0  0  0  0  0  0  0
   37.9740   29.6630   43.9900 H   0  0  0  0  0  0  0  0  0  0  0  0
   38.5580   27.8990   42.9190 C   0  0  0  0  0  0  0  0  0  0  0  0
   39.6140   27.2450   43.5350 C   0  0  0  0  0  0  0  0  0  0  0  0
   39.7290   25.8420   43.3960 C   0  0  0  0  0  0  0  0  0  0  0  0
   38.7790   25.2240   42.6590 N   0  0  0  0  0  0  0  0  0  0  0  0
   37.7560   25.8960   42.0690 C   0  0  0  0  0  0  0  0  0  0  0  0
   37.6520   27.2340   42.2040 N   0  0  0  0  0  0  0  0  0  0  0  0
   40.3560   27.7330   44.1130 H   0  0  0  0  0  0  0  0  0  0  0  0
   40.5130   25.2590   43.8380 H   0  0  0  0  0  0  0  0  0  0  0  0
   37.0000   25.3660   41.4760 H   0  0  0  0  0  0  0  0  0  0  0  0
  1  3  1  0  0  0  0
  1 18  1  0  0  0  0
  2  1  1  0  0  0  0
  4  5  1  0  0  0  0
  4  1  1  0  0  0  0
  5  6  1  0  0  0  0
  7  5  2  0  0  0  0
  8 14  1  0  0  0  0
  8  7  1  0  0  0  0
  9  8  2  0  0  0  0
 10  9  1  0  0  0  0
 10 11  2  0  0  0  0
 11 13  1  0  0  0  0
 12 11  1  0  0  0  0
 13 14  2  0  0  0  0
 14  4  1  0  0  0  0
 15 16  1  0  0  0  0
 15  9  1  0  0  0  0
 17 15  1  0  0  0  0
 18 20  1  0  0  0  0
 19 18  1  0  0  0  0
 21 18  1  0  0  0  0
 21 22  1  0  0  0  0
 22 27  1  0  0  0  0
 23 22  2  0  0  0  0
 23 28  1  0  0  0  0
 24 23  1  0  0  0  0
 25 26  1  0  0  0  0
 25 24  2  0  0  0  0
 26 21  2  0  0  0  0
 29 25  1  0  0  0  0
M  END
>  <minimizedAffinity>
-4.87248755

$$$$

 OpenBabel03252506593D

 29 31  0  0  0  0  0  0  0  0999 V2000
   36.8490   29.0740   41.8220 C   0  0  0  0  0  0  0  0  0  0  0  0
   36.5670   28.7530   40.7990 H   0  0  0  0  0  0  0  0  0  0  0  0
   35.9260   29.4370   42.3140 H   0  0  0  0  0  0  0  0  0  0  0  0
   37.8980   30.0970   41.7720 N   0  0  0  0  0  0  0  0  0  0  0  0
   39.0220   29.9710   42.5160 C   0  0  0  0  0  0  0  0  0  0  0  0
   39.2870   29.1710   43.1940 H   0  0  0  0  0  0  0  0  0  0  0  0
   39.7830   31.0650   42.2510 N   0  0  0  0  0  0  0  0  0  0  0  0
   39.1250   31.8310   41.3620 C   0  0  0  0  0  0  0  0  0  0  0  0
   39.3710   33.0370   40.7200 C   0  0  0  0  0  0  0  0  0  0  0  0
   38.4690   33.5450   39.8570 N   0  0  0  0  0  0  0  0  0  0  0  0
   37.2960   32.9080   39.5820 C   0  0  0  0  0  0  0  0  0  0  0  0
   36.7120   33.4740   38.8690 H   0  0  0  0  0  0  0  0  0  0  0  0
   36.9980   31.7210   40.1820 N   0  0  0  0  0  0  0  0  0  0  0  0
   37.9050   31.2260   41.0390 C   0  0  0  0  0  0  0  0  0  0  0  0
   40.6020   33.7060   41.0090 N   0  0  0  0  0  0  0  0  0  0  0  0
   41.4890   33.1640   41.2180 H   0  0  0  0  0  0  0  0  0  0  0  0
   40.8340   34.7160   41.0630 H   0  0  0  0  0  0  0  0  0  0  0  0
   37.3670   27.8300   42.5390 C   0  0  0  0  0  0  0  0  0  0  0  0
   38.4400   27.9420   42.7980 H   0  0  0  0  0  0  0  0  0  0  0  0
   36.8270   27.8160   43.4920 H   0  0  0  0  0  0  0  0  0  0  0  0
   37.0910   26.6590   41.7050 C   0  0  0  0  0  0  0  0  0  0  0  0
   37.1070   25.3760   42.2290 C   0  0  0  0  0  0  0  0  0  0  0  0
   36.8340   24.2810   41.3770 C   0  0  0  0  0  0  0  0  0  0  0  0
   36.5690   24.5690   40.0830 N   0  0  0  0  0  0  0  0  0  0  0  0
   36.5610   25.8400   39.6010 C   0  0  0  0  0  0  0  0  0  0  0  0
   36.8230   26.8800   40.4190 N   0  0  0  0  0  0  0  0  0  0  0  0
   37.3140   25.1540   43.2450 H   0  0  0  0  0  0  0  0  0  0  0  0
   36.8260   23.2580   41.6990 H   0  0  0  0  0  0  0  0  0  0  0  0
   36.3420   26.0420   38.5450 H   0  0  0  0  0  0  0  0  0  0  0  0
  1  3  1  0  0  0  0
  1 18  1  0  0  0  0
  2  1  1  0  0  0  0
  4  1  1  0  0  0  0
  4  5  1  0  0  0  0
  5  6  1  0  0  0  0
  7  5  2  0  0  0  0
  8  7  1  0  0  0  0
  9 15  1  0  0  0  0
  9  8  2  0  0  0  0
 10  9  1  0  0  0  0
 11 10  2  0  0  0  0
 11 13  1  0  0  0  0
 12 11  1  0  0  0  0
 13 14  2  0  0  0  0
 14  8  1  0  0  0  0
 14  4  1  0  0  0  0
 15 17  1  0  0  0  0
 15 16  1  0  0  0  0
 18 19  1  0  0  0  0
 18 20  1  0  0  0  0
 21 22  1  0  0  0  0
 21 18  1  0  0  0  0
 22 27  1  0  0  0  0
 23 28  1  0  0  0  0
 23 22  2  0  0  0  0
 24 23  1  0  0  0  0
 25 24  2  0  0  0  0
 25 26  1  0  0  0  0
 26 21  2  0  0  0  0
 29 25  1  0  0  0  0
M  END
>  <minimizedAffinity>
-4.81913185

$$$$

 OpenBabel03252506593D

 29 31  0  0  0  0  0  0  0  0999 V2000
   37.1730   27.3240   40.6240 C   0  0  0  0  0  0  0  0  0  0  0  0
   38.2220   27.0800   40.3650 H   0  0  0  0  0  0  0  0  0  0  0  0
   36.5270   26.7660   39.9180 H   0  0  0  0  0  0  0  0  0  0  0  0
   36.9490   28.7720   40.5670 N   0  0  0  0  0  0  0  0  0  0  0  0
   35.6970   29.2810   40.6490 C   0  0  0  0  0  0  0  0  0  0  0  0
   34.7650   28.7460   40.7610 H   0  0  0  0  0  0  0  0  0  0  0  0
   35.8260   30.6310   40.5660 N   0  0  0  0  0  0  0  0  0  0  0  0
   37.1330   30.9230   40.4360 C   0  0  0  0  0  0  0  0  0  0  0  0
   37.8800   32.0860   40.3080 C   0  0  0  0  0  0  0  0  0  0  0  0
   39.2220   32.0240   40.1920 N   0  0  0  0  0  0  0  0  0  0  0  0
   39.8910   30.8360   40.1980 C   0  0  0  0  0  0  0  0  0  0  0  0
   40.9560   30.9980   40.0950 H   0  0  0  0  0  0  0  0  0  0  0  0
   39.2120   29.6610   40.3190 N   0  0  0  0  0  0  0  0  0  0  0  0
   37.8760   29.7370   40.4330 C   0  0  0  0  0  0  0  0  0  0  0  0
   37.1780   33.3320   40.3030 N   0  0  0  0  0  0  0  0  0  0  0  0
   36.2970   33.4710   40.8770 H   0  0  0  0  0  0  0  0  0  0  0  0
   37.3690   34.2210   39.8030 H   0  0  0  0  0  0  0  0  0  0  0  0
   36.9480   26.8170   42.0470 C   0  0  0  0  0  0  0  0  0  0  0  0
   36.5090   27.6120   42.6840 H   0  0  0  0  0  0  0  0  0  0  0  0
   36.1740   26.0480   41.9460 H   0  0  0  0  0  0  0  0  0  0  0  0
   38.2140   26.2940   42.5620 C   0  0  0  0  0  0  0  0  0  0  0  0
   38.5610   24.9600   42.4120 C   0  0  0  0  0  0  0  0  0  0  0  0
   39.7970   24.5090   42.9320 C   0  0  0  0  0  0  0  0  0  0  0  0
   40.5700   25.4300   43.5500 N   0  0  0  0  0  0  0  0  0  0  0  0
   40.1990   26.7310   43.6800 C   0  0  0  0  0  0  0  0  0  0  0  0
   39.0190   27.1550   43.1820 N   0  0  0  0  0  0  0  0  0  0  0  0
   37.9530   24.2410   41.9260 H   0  0  0  0  0  0  0  0  0  0  0  0
   40.1430   23.4960   42.8600 H   0  0  0  0  0  0  0  0  0  0  0  0
   40.8490   27.4550   44.1870 H   0  0  0  0  0  0  0  0  0  0  0  0
  1 18  1  0  0  0  0
  2  1  1  0  0  0  0
  3  1  1  0  0  0  0
  4  1  1  0  0  0  0
  4  5  1  0  0  0  0
  5  6  1  0  0  0  0
  7  5  2  0  0  0  0
  8  7  1  0  0  0  0
  9  8  2  0  0  0  0
 10 11  2  0  0  0  0
 10  9  1  0  0  0  0
 11 13  1  0  0  0  0
 12 11  1  0  0  0  0
 13 14  2  0  0  0  0
 14  8  1  0  0  0  0
 14  4  1  0  0  0  0
 15  9  1  0  0  0  0
 15 16  1  0  0  0  0
 17 15  1  0  0  0  0
 18 21  1  0  0  0  0
 18 19  1  0  0  0  0
 20 18  1  0  0  0  0
 21 26  1  0  0  0  0
 22 21  2  0  0  0  0
 22 23  1  0  0  0  0
 23 24  2  0  0  0  0
 24 25  1  0  0  0  0
 25 29  1  0  0  0  0
 26 25  2  0  0  0  0
 27 22  1  0  0  0  0
 28 23  1  0  0  0  0
M  END
>  <minimizedAffinity>
-4.79576063

$$$$

 OpenBabel03252506593D

 29 31  0  0  0  0  0  0  0  0999 V2000
   36.2490   28.3980   41.0950 C   0  0  0  0  0  0  0  0  0  0  0  0
   35.2010   28.2420   41.4200 H   0  0  0  0  0  0  0  0  0  0  0  0
   36.2650   28.3000   39.9930 H   0  0  0  0  0  0  0  0  0  0  0  0
   37.1430   27.4430   41.7580 N   0  0  0  0  0  0  0  0  0  0  0  0
   37.9200   27.8300   42.7970 C   0  0  0  0  0  0  0  0  0  0  0  0
   37.9880   28.8090   43.2510 H   0  0  0  0  0  0  0  0  0  0  0  0
   38.6210   26.7310   43.1820 N   0  0  0  0  0  0  0  0  0  0  0  0
   38.2680   25.7060   42.3850 C   0  0  0  0  0  0  0  0  0  0  0  0
   38.6220   24.3680   42.2790 C   0  0  0  0  0  0  0  0  0  0  0  0
   38.0600   23.5880   41.3340 N   0  0  0  0  0  0  0  0  0  0  0  0
   37.1340   24.0710   40.4580 C   0  0  0  0  0  0  0  0  0  0  0  0
   36.8050   23.2930   39.7820 H   0  0  0  0  0  0  0  0  0  0  0  0
   36.7480   25.3770   40.5130 N   0  0  0  0  0  0  0  0  0  0  0  0
   37.3160   26.1420   41.4580 C   0  0  0  0  0  0  0  0  0  0  0  0
   39.5930   23.8600   43.1990 N   0  0  0  0  0  0  0  0  0  0  0  0
   39.6530   24.2230   44.1940 H   0  0  0  0  0  0  0  0  0  0  0  0
   40.3270   23.1360   43.0860 H   0  0  0  0  0  0  0  0  0  0  0  0
   36.6190   29.8240   41.4980 C   0  0  0  0  0  0  0  0  0  0  0  0
   35.8320   30.2700   42.1400 H   0  0  0  0  0  0  0  0  0  0  0  0
   37.5010   29.7080   42.1370 H   0  0  0  0  0  0  0  0  0  0  0  0
   36.8860   30.5980   40.2840 C   0  0  0  0  0  0  0  0  0  0  0  0
   37.0790   31.9700   40.3290 C   0  0  0  0  0  0  0  0  0  0  0  0
   37.3320   32.6680   39.1260 C   0  0  0  0  0  0  0  0  0  0  0  0
   37.3700   31.9330   37.9920 N   0  0  0  0  0  0  0  0  0  0  0  0
   37.1760   30.5880   37.9840 C   0  0  0  0  0  0  0  0  0  0  0  0
   36.9350   29.9270   39.1350 N   0  0  0  0  0  0  0  0  0  0  0  0
   37.0500   32.5430   41.2210 H   0  0  0  0  0  0  0  0  0  0  0  0
   37.4920   33.7270   39.0700 H   0  0  0  0  0  0  0  0  0  0  0  0
   37.2140   30.0180   37.0470 H   0  0  0  0  0  0  0  0  0  0  0  0
  1  2  1  0  0  0  0
  1 18  1  0  0  0  0
  1  4  1  0  0  0  0
  3  1  1  0  0  0  0
  4  5  1  0  0  0  0
  5  7  2  0  0  0  0
  5  6  1  0  0  0  0
  8  7  1  0  0  0  0
  9  8  1  0  0  0  0
  9 15  1  0  0  0  0
 10  9  2  0  0  0  0
 11 13  2  0  0  0  0
 11 10  1  0  0  0  0
 12 11  1  0  0  0  0
 13 14  1  0  0  0  0
 14  4  1  0  0  0  0
 14  8  2  0  0  0  0
 15 16  1  0  0  0  0
 17 15  1  0  0  0  0
 18 20  1  0  0  0  0
 18 19  1  0  0  0  0
 21 22  1  0  0  0  0
 21 18  1  0  0  0  0
 22 27  1  0  0  0  0
 23 22  2  0  0  0  0
 24 23  1  0  0  0  0
 25 24  2  0  0  0  0
 25 26  1  0  0  0  0
 26 21  2  0  0  0  0
 28 23  1  0  0  0  0
 29 25  1  0  0  0  0
M  END
>  <minimizedAffinity>
-4.77664995

$$$$

 OpenBabel03252506593D

 29 31  0  0  0  0  0  0  0  0999 V2000
   37.7550   29.6520   41.9510 C   0  0  0  0  0  0  0  0  0  0  0  0
   37.1580   28.7250   41.8400 H   0  0  0  0  0  0  0  0  0  0  0  0
   37.1050   30.3990   42.4470 H   0  0  0  0  0  0  0  0  0  0  0  0
   38.2450   30.1110   40.6480 N   0  0  0  0  0  0  0  0  0  0  0  0
   38.1300   29.3260   39.5510 C   0  0  0  0  0  0  0  0  0  0  0  0
   37.6980   28.3370   39.4800 H   0  0  0  0  0  0  0  0  0  0  0  0
   38.6710   30.0260   38.5190 N   0  0  0  0  0  0  0  0  0  0  0  0
   39.1010   31.2090   38.9920 C   0  0  0  0  0  0  0  0  0  0  0  0
   39.7240   32.3250   38.4500 C   0  0  0  0  0  0  0  0  0  0  0  0
   40.0310   33.3800   39.2310 N   0  0  0  0  0  0  0  0  0  0  0  0
   39.7480   33.3960   40.5640 C   0  0  0  0  0  0  0  0  0  0  0  0
   40.0710   34.3270   41.0120 H   0  0  0  0  0  0  0  0  0  0  0  0
   39.1380   32.3290   41.1530 N   0  0  0  0  0  0  0  0  0  0  0  0
   38.8380   31.2850   40.3640 C   0  0  0  0  0  0  0  0  0  0  0  0
   40.0210   32.3080   37.0510 N   0  0  0  0  0  0  0  0  0  0  0  0
   39.3890   31.8140   36.3580 H   0  0  0  0  0  0  0  0  0  0  0  0
   40.8080   32.7200   36.5150 H   0  0  0  0  0  0  0  0  0  0  0  0
   38.9330   29.3030   42.8570 C   0  0  0  0  0  0  0  0  0  0  0  0
   39.8620   29.7990   42.5060 H   0  0  0  0  0  0  0  0  0  0  0  0
   38.6880   29.7680   43.8180 H   0  0  0  0  0  0  0  0  0  0  0  0
   39.0480   27.8460   42.9370 C   0  0  0  0  0  0  0  0  0  0  0  0
   40.1140   27.2380   43.5800 C   0  0  0  0  0  0  0  0  0  0  0  0
   40.1740   25.8250   43.6250 C   0  0  0  0  0  0  0  0  0  0  0  0
   39.1660   25.1540   43.0260 N   0  0  0  0  0  0  0  0  0  0  0  0
   38.1340   25.7820   42.4030 C   0  0  0  0  0  0  0  0  0  0  0  0
   38.0820   27.1300   42.3630 N   0  0  0  0  0  0  0  0  0  0  0  0
   40.9020   27.7680   44.0510 H   0  0  0  0  0  0  0  0  0  0  0  0
   40.9620   25.2750   44.1010 H   0  0  0  0  0  0  0  0  0  0  0  0
   37.3300   25.2100   41.9260 H   0  0  0  0  0  0  0  0  0  0  0  0
  1  3  1  0  0  0  0
  1 18  1  0  0  0  0
  2  1  1  0  0  0  0
  4  1  1  0  0  0  0
  5  4  1  0  0  0  0
  6  5  1  0  0  0  0
  7  8  1  0  0  0  0
  7  5  2  0  0  0  0
  8 14  1  0  0  0  0
  9  8  2  0  0  0  0
  9 10  1  0  0  0  0
 10 11  2  0  0  0  0
 11 12  1  0  0  0  0
 11 13  1  0  0  0  0
 14  4  1  0  0  0  0
 14 13  2  0  0  0  0
 15  9  1  0  0  0  0
 16 15  1  0  0  0  0
 17 15  1  0  0  0  0
 18 21  1  0  0  0  0
 18 20  1  0  0  0  0
 19 18  1  0  0  0  0
 21 22  1  0  0  0  0
 22 23  2  0  0  0  0
 22 27  1  0  0  0  0
 23 28  1  0  0  0  0
 24 23  1  0  0  0  0
 25 24  2  0  0  0  0
 26 25  1  0  0  0  0
 26 21  2  0  0  0  0
 29 25  1  0  0  0  0
M  END
>  <minimizedAffinity>
-4.76375723

$$$$
