
 OpenBabel03252505293D

 32 34  0  0  0  0  0  0  0  0999 V2000
   45.2850   30.1120   47.9890 C   0  0  0  0  0  0  0  0  0  0  0  0
   44.2450   29.9890   48.3520 H   0  0  0  0  0  0  0  0  0  0  0  0
   45.8200   30.6510   48.7960 H   0  0  0  0  0  0  0  0  0  0  0  0
   45.9050   28.8360   47.6790 N   0  0  0  0  0  0  0  0  0  0  0  0
   47.1140   28.7370   47.0600 C   0  0  0  0  0  0  0  0  0  0  0  0
   47.7580   29.5450   46.7260 H   0  0  0  0  0  0  0  0  0  0  0  0
   47.4520   27.4470   46.8930 N   0  0  0  0  0  0  0  0  0  0  0  0
   46.4570   26.7170   47.4070 C   0  0  0  0  0  0  0  0  0  0  0  0
   46.1910   25.3630   47.5500 C   0  0  0  0  0  0  0  0  0  0  0  0
   45.0880   24.9040   48.1170 N   0  0  0  0  0  0  0  0  0  0  0  0
   44.1630   25.7890   48.5870 C   0  0  0  0  0  0  0  0  0  0  0  0
   43.2890   25.3160   49.0370 H   0  0  0  0  0  0  0  0  0  0  0  0
   44.3440   27.1390   48.4870 N   0  0  0  0  0  0  0  0  0  0  0  0
   45.4780   27.5810   47.9040 C   0  0  0  0  0  0  0  0  0  0  0  0
   47.2280   24.5160   47.0230 N   0  0  0  0  0  0  0  0  0  0  0  0
   47.5860   24.4520   46.0240 H   0  0  0  0  0  0  0  0  0  0  0  0
   47.7310   23.8500   47.6800 H   0  0  0  0  0  0  0  0  0  0  0  0
   45.3280   30.8960   46.8690 O   0  0  0  0  0  0  0  0  0  0  0  0
   46.9340   32.1940   48.4100 O   0  0  0  0  0  0  0  0  0  0  0  0
   45.9050   32.4170   47.3040 P   0  0  2  0  0  0  0  0  0  0  0  0
   44.6170   33.3370   47.8540 O   0  0  0  0  0  0  0  0  0  0  0  0
   43.7440   32.8780   47.7930 H   0  0  0  0  0  0  0  0  0  0  0  0
   46.6980   33.1770   46.0120 O   0  0  0  0  0  0  0  0  0  0  0  0
   44.4840   35.6390   44.7100 C   0  0  0  0  0  0  0  0  0  0  0  0
   44.8750   35.8010   43.3620 C   0  0  0  0  0  0  0  0  0  0  0  0
   45.9570   34.9950   42.9470 C   0  0  0  0  0  0  0  0  0  0  0  0
   46.5460   34.1380   43.8290 N   0  0  0  0  0  0  0  0  0  0  0  0
   46.1080   34.0460   45.1040 C   0  0  0  0  0  0  0  0  0  0  0  0
   45.0930   34.7850   45.5330 N   0  0  0  0  0  0  0  0  0  0  0  0
   43.6510   36.2620   45.0230 H   0  0  0  0  0  0  0  0  0  0  0  0
   44.3990   36.4790   42.6900 H   0  0  0  0  0  0  0  0  0  0  0  0
   46.3130   35.0690   41.9170 H   0  0  0  0  0  0  0  0  0  0  0  0
  1  2  1  0  0  0  0
  1  3  1  0  0  0  0
  4 14  1  0  0  0  0
  4  1  1  0  0  0  0
  5  4  1  0  0  0  0
  6  5  1  0  0  0  0
  7  5  2  0  0  0  0
  7  8  1  0  0  0  0
  8  9  2  0  0  0  0
  8 14  1  0  0  0  0
  9 10  1  0  0  0  0
 10 11  2  0  0  0  0
 11 12  1  0  0  0  0
 13 11  1  0  0  0  0
 14 13  2  0  0  0  0
 15  9  1  0  0  0  0
 15 17  1  0  0  0  0
 16 15  1  0  0  0  0
 18 20  1  0  0  0  0
 18  1  1  0  0  0  0
 20 21  1  0  0  0  0
 20 19  2  1  0  0  0
 22 21  1  0  0  0  0
 23 20  1  0  0  0  0
 24 30  1  0  0  0  0
 24 29  1  0  0  0  0
 25 24  2  0  0  0  0
 26 25  1  0  0  0  0
 26 27  2  0  0  0  0
 27 28  1  0  0  0  0
 28 29  2  0  0  0  0
 28 23  1  0  0  0  0
 31 25  1  0  0  0  0
 32 26  1  0  0  0  0
M  END
>  <minimizedAffinity>
-4.92519903

>  <minimizedRMSD>
1.81484318

$$$$
