
 OpenBabel03252506593D

 29 31  0  0  0  0  0  0  0  0999 V2000
   48.6930   34.2250   42.7820 C   0  0  0  0  0  0  0  0  0  0  0  0
   48.1410   34.9580   42.1610 H   0  0  0  0  0  0  0  0  0  0  0  0
   49.3040   34.8050   43.5000 H   0  0  0  0  0  0  0  0  0  0  0  0
   49.5040   33.3400   41.9400 N   0  0  0  0  0  0  0  0  0  0  0  0
   50.7620   33.0000   42.3060 C   0  0  0  0  0  0  0  0  0  0  0  0
   51.3040   33.3010   43.1920 H   0  0  0  0  0  0  0  0  0  0  0  0
   51.2390   32.1840   41.3300 N   0  0  0  0  0  0  0  0  0  0  0  0
   50.2810   32.0400   40.3960 C   0  0  0  0  0  0  0  0  0  0  0  0
   50.1640   31.3530   39.1960 C   0  0  0  0  0  0  0  0  0  0  0  0
   49.0240   31.4250   38.4780 N   0  0  0  0  0  0  0  0  0  0  0  0
   47.9560   32.1620   38.8950 C   0  0  0  0  0  0  0  0  0  0  0  0
   47.1430   32.0910   38.1840 H   0  0  0  0  0  0  0  0  0  0  0  0
   48.0120   32.8580   40.0650 N   0  0  0  0  0  0  0  0  0  0  0  0
   49.1520   32.7780   40.7690 C   0  0  0  0  0  0  0  0  0  0  0  0
   51.2840   30.5790   38.7580 N   0  0  0  0  0  0  0  0  0  0  0  0
   51.9200   30.0890   39.4510 H   0  0  0  0  0  0  0  0  0  0  0  0
   51.6440   30.3750   37.8070 H   0  0  0  0  0  0  0  0  0  0  0  0
   47.6410   33.4110   43.5310 C   0  0  0  0  0  0  0  0  0  0  0  0
   47.3570   32.5070   42.9550 H   0  0  0  0  0  0  0  0  0  0  0  0
   48.1590   33.0490   44.4260 H   0  0  0  0  0  0  0  0  0  0  0  0
   46.5060   34.2830   43.8390 C   0  0  0  0  0  0  0  0  0  0  0  0
   46.0600   35.2360   42.9360 C   0  0  0  0  0  0  0  0  0  0  0  0
   44.9590   36.0520   43.2860 C   0  0  0  0  0  0  0  0  0  0  0  0
   44.4060   35.8400   44.5010 N   0  0  0  0  0  0  0  0  0  0  0  0
   44.8690   34.8960   45.3630 C   0  0  0  0  0  0  0  0  0  0  0  0
   45.9190   34.1210   45.0230 N   0  0  0  0  0  0  0  0  0  0  0  0
   46.4950   35.3990   41.9830 H   0  0  0  0  0  0  0  0  0  0  0  0
   44.5510   36.8130   42.6490 H   0  0  0  0  0  0  0  0  0  0  0  0
   44.3990   34.7470   46.3430 H   0  0  0  0  0  0  0  0  0  0  0  0
  1  3  1  0  0  0  0
  1 18  1  0  0  0  0
  2  1  1  0  0  0  0
  4  5  1  0  0  0  0
  4  1  1  0  0  0  0
  5  6  1  0  0  0  0
  7  5  2  0  0  0  0
  8 14  1  0  0  0  0
  8  7  1  0  0  0  0
  9  8  2  0  0  0  0
 10 11  2  0  0  0  0
 10  9  1  0  0  0  0
 11 13  1  0  0  0  0
 12 11  1  0  0  0  0
 13 14  2  0  0  0  0
 14  4  1  0  0  0  0
 15  9  1  0  0  0  0
 15 16  1  0  0  0  0
 17 15  1  0  0  0  0
 18 21  1  0  0  0  0
 18 20  1  0  0  0  0
 19 18  1  0  0  0  0
 21 26  1  0  0  0  0
 22 23  1  0  0  0  0
 22 21  2  0  0  0  0
 23 24  2  0  0  0  0
 24 25  1  0  0  0  0
 25 29  1  0  0  0  0
 26 25  2  0  0  0  0
 27 22  1  0  0  0  0
 28 23  1  0  0  0  0
M  END
>  <minimizedAffinity>
-4.42786074

>  <minimizedRMSD>
2.17429709

$$$$
