
 OpenBabel03252500163D

 43 47  0  0  0  0  0  0  0  0999 V2000
   37.8180   28.0220   39.4160 Cl  0  0  0  0  0  0  0  0  0  0  0  0
   37.7020   27.9480   41.1490 C   0  0  0  0  0  0  0  0  0  0  0  0
   37.6610   26.7380   41.8040 C   0  0  0  0  0  0  0  0  0  0  0  0
   37.5690   26.6520   43.1860 C   0  0  0  0  0  0  0  0  0  0  0  0
   37.5200   27.8450   43.8710 C   0  0  0  0  0  0  0  0  0  0  0  0
   37.5610   29.0630   43.2180 C   0  0  0  0  0  0  0  0  0  0  0  0
   37.6490   29.1240   41.8820 C   0  0  0  0  0  0  0  0  0  0  0  0
   37.5390   25.7080   43.7020 H   0  0  0  0  0  0  0  0  0  0  0  0
   37.4480   27.8550   44.9560 H   0  0  0  0  0  0  0  0  0  0  0  0
   37.5190   29.9780   43.7980 H   0  0  0  0  0  0  0  0  0  0  0  0
   38.9500   23.7460   40.0730 C   0  0  0  0  0  0  0  0  0  0  0  0
   37.7730   23.1760   39.5360 C   0  0  0  0  0  0  0  0  0  0  0  0
   36.5610   23.8280   39.7770 C   0  0  0  0  0  0  0  0  0  0  0  0
   36.5680   24.9770   40.5140 N   0  0  0  0  0  0  0  0  0  0  0  0
   37.7180   25.4980   41.0170 C   0  0  0  0  0  0  0  0  0  0  0  0
   38.8800   24.8830   40.7920 N   0  0  0  0  0  0  0  0  0  0  0  0
   39.8620   23.2110   39.8640 H   0  0  0  0  0  0  0  0  0  0  0  0
   37.7430   22.2890   38.9620 H   0  0  0  0  0  0  0  0  0  0  0  0
   35.2630   23.3130   39.2570 C   0  0  0  0  0  0  0  0  0  0  0  0
   34.3710   23.1120   40.2840 F   0  0  0  0  0  0  0  0  0  0  0  0
   34.7300   24.2570   38.3850 F   0  0  0  0  0  0  0  0  0  0  0  0
   35.5220   22.1630   38.5640 F   0  0  0  0  0  0  0  0  0  0  0  0
   37.6930   30.3940   41.1720 C   0  0  0  0  0  0  0  0  0  0  0  0
   36.5810   31.0430   40.6340 C   0  0  0  0  0  0  0  0  0  0  0  0
   36.9970   32.2110   40.0380 C   0  0  0  0  0  0  0  0  0  0  0  0
   38.3580   32.2210   40.2410 C   0  0  0  0  0  0  0  0  0  0  0  0
   38.7420   31.1430   40.9090 O   0  0  0  0  0  0  0  0  0  0  0  0
   35.5230   30.7410   40.6420 H   0  0  0  0  0  0  0  0  0  0  0  0
   36.4820   33.0010   39.5120 H   0  0  0  0  0  0  0  0  0  0  0  0
   39.3790   33.1450   39.8750 N   0  0  0  0  0  0  0  0  0  0  0  0
   39.6700   34.3750   40.3640 C   0  0  0  0  0  0  0  0  0  0  0  0
   39.0690   34.7900   41.1680 H   0  0  0  0  0  0  0  0  0  0  0  0
   40.7320   34.8540   39.6890 N   0  0  0  0  0  0  0  0  0  0  0  0
   41.0880   33.9370   38.7990 C   0  0  0  0  0  0  0  0  0  0  0  0
   42.1200   33.9570   37.8690 C   0  0  0  0  0  0  0  0  0  0  0  0
   42.2630   32.8730   37.0740 N   0  0  0  0  0  0  0  0  0  0  0  0
   41.4330   31.7990   37.1720 C   0  0  0  0  0  0  0  0  0  0  0  0
   41.5710   30.9290   36.5120 H   0  0  0  0  0  0  0  0  0  0  0  0
   40.4280   31.7590   38.0660 N   0  0  0  0  0  0  0  0  0  0  0  0
   40.2540   32.8220   38.8780 C   0  0  0  0  0  0  0  0  0  0  0  0
   43.0110   35.0630   37.7330 N   0  0  0  0  0  0  0  0  0  0  0  0
   43.7330   34.8820   38.4910 H   0  0  0  0  0  0  0  0  0  0  0  0
   42.9930   35.8820   37.0560 H   0  0  0  0  0  0  0  0  0  0  0  0
  1  2  1  0  0  0  0
  2  3  2  0  0  0  0
  2  7  1  0  0  0  0
  3  4  1  0  0  0  0
  4  8  1  0  0  0  0
  4  5  2  0  0  0  0
  5  9  1  0  0  0  0
  6 10  1  0  0  0  0
  6  5  1  0  0  0  0
  7  6  2  0  0  0  0
 11 16  1  0  0  0  0
 12 13  1  0  0  0  0
 12 11  2  0  0  0  0
 13 14  2  0  0  0  0
 14 15  1  0  0  0  0
 15  3  1  0  0  0  0
 16 15  2  0  0  0  0
 17 11  1  0  0  0  0
 18 12  1  0  0  0  0
 19 13  1  0  0  0  0
 19 20  1  0  0  0  0
 21 19  1  0  0  0  0
 22 19  1  0  0  0  0
 23  7  1  0  0  0  0
 24 28  1  0  0  0  0
 24 23  2  0  0  0  0
 25 26  2  0  0  0  0
 25 24  1  0  0  0  0
 26 27  1  0  0  0  0
 27 23  1  0  0  0  0
 29 25  1  0  0  0  0
 30 26  1  0  0  0  0
 30 31  1  0  0  0  0
 31 32  1  0  0  0  0
 33 31  2  0  0  0  0
 34 40  1  0  0  0  0
 34 33  1  0  0  0  0
 35 34  2  0  0  0  0
 36 37  2  0  0  0  0
 36 35  1  0  0  0  0
 37 39  1  0  0  0  0
 38 37  1  0  0  0  0
 39 40  2  0  0  0  0
 40 30  1  0  0  0  0
 41 35  1  0  0  0  0
 41 42  1  0  0  0  0
 43 41  1  0  0  0  0
M  END
>  <minimizedAffinity>
-7.76190376

$$$$

 OpenBabel03252500163D

 43 47  0  0  0  0  0  0  0  0999 V2000
   37.7460   28.0740   39.3990 Cl  0  0  0  0  0  0  0  0  0  0  0  0
   37.6700   27.9570   41.1310 C   0  0  0  0  0  0  0  0  0  0  0  0
   37.6350   26.7300   41.7560 C   0  0  0  0  0  0  0  0  0  0  0  0
   37.5750   26.6090   43.1380 C   0  0  0  0  0  0  0  0  0  0  0  0
   37.5530   27.7850   43.8540 C   0  0  0  0  0  0  0  0  0  0  0  0
   37.5880   29.0190   43.2310 C   0  0  0  0  0  0  0  0  0  0  0  0
   37.6460   29.1130   41.8950 C   0  0  0  0  0  0  0  0  0  0  0  0
   37.5480   25.6520   43.6300 H   0  0  0  0  0  0  0  0  0  0  0  0
   37.5070   27.7670   44.9400 H   0  0  0  0  0  0  0  0  0  0  0  0
   37.5690   29.9190   43.8350 H   0  0  0  0  0  0  0  0  0  0  0  0
   36.6030   23.5910   40.1170 C   0  0  0  0  0  0  0  0  0  0  0  0
   37.7600   23.2360   39.3860 C   0  0  0  0  0  0  0  0  0  0  0  0
   38.8710   24.0780   39.4700 C   0  0  0  0  0  0  0  0  0  0  0  0
   38.7910   25.1980   40.2470 N   0  0  0  0  0  0  0  0  0  0  0  0
   37.6620   25.5100   40.9360 C   0  0  0  0  0  0  0  0  0  0  0  0
   36.5950   24.7120   40.8630 N   0  0  0  0  0  0  0  0  0  0  0  0
   35.7690   22.9140   40.0240 H   0  0  0  0  0  0  0  0  0  0  0  0
   37.8470   22.3740   38.7790 H   0  0  0  0  0  0  0  0  0  0  0  0
   40.1400   23.7970   38.7420 C   0  0  0  0  0  0  0  0  0  0  0  0
   40.2440   22.4590   38.4400 F   0  0  0  0  0  0  0  0  0  0  0  0
   40.1380   24.5200   37.5530 F   0  0  0  0  0  0  0  0  0  0  0  0
   41.1730   24.2330   39.5240 F   0  0  0  0  0  0  0  0  0  0  0  0
   37.6840   30.4000   41.2170 C   0  0  0  0  0  0  0  0  0  0  0  0
   36.5640   31.0770   40.7310 C   0  0  0  0  0  0  0  0  0  0  0  0
   36.9770   32.2550   40.1520 C   0  0  0  0  0  0  0  0  0  0  0  0
   38.3430   32.2430   40.3130 C   0  0  0  0  0  0  0  0  0  0  0  0
   38.7340   31.1440   40.9410 O   0  0  0  0  0  0  0  0  0  0  0  0
   35.5040   30.7870   40.7640 H   0  0  0  0  0  0  0  0  0  0  0  0
   36.4560   33.0650   39.6630 H   0  0  0  0  0  0  0  0  0  0  0  0
   39.3640   33.1640   39.9390 N   0  0  0  0  0  0  0  0  0  0  0  0
   39.6710   34.3880   40.4350 C   0  0  0  0  0  0  0  0  0  0  0  0
   39.0860   34.7990   41.2520 H   0  0  0  0  0  0  0  0  0  0  0  0
   40.7250   34.8660   39.7470 N   0  0  0  0  0  0  0  0  0  0  0  0
   41.0610   33.9550   38.8440 C   0  0  0  0  0  0  0  0  0  0  0  0
   42.0780   33.9770   37.8980 C   0  0  0  0  0  0  0  0  0  0  0  0
   42.2020   32.9000   37.0900 N   0  0  0  0  0  0  0  0  0  0  0  0
   41.3660   31.8300   37.1920 C   0  0  0  0  0  0  0  0  0  0  0  0
   41.4880   30.9650   36.5220 H   0  0  0  0  0  0  0  0  0  0  0  0
   40.3760   31.7890   38.1010 N   0  0  0  0  0  0  0  0  0  0  0  0
   40.2210   32.8450   38.9260 C   0  0  0  0  0  0  0  0  0  0  0  0
   42.9740   35.0780   37.7570 N   0  0  0  0  0  0  0  0  0  0  0  0
   43.7070   34.8870   38.5030 H   0  0  0  0  0  0  0  0  0  0  0  0
   42.9510   35.9040   37.0880 H   0  0  0  0  0  0  0  0  0  0  0  0
  1  2  1  0  0  0  0
  2  3  2  0  0  0  0
  2  7  1  0  0  0  0
  3  4  1  0  0  0  0
  4  8  1  0  0  0  0
  4  5  2  0  0  0  0
  5  9  1  0  0  0  0
  6 10  1  0  0  0  0
  6  5  1  0  0  0  0
  7  6  2  0  0  0  0
 11 16  1  0  0  0  0
 12 13  1  0  0  0  0
 12 11  2  0  0  0  0
 13 14  2  0  0  0  0
 14 15  1  0  0  0  0
 15  3  1  0  0  0  0
 16 15  2  0  0  0  0
 17 11  1  0  0  0  0
 18 12  1  0  0  0  0
 19 13  1  0  0  0  0
 19 22  1  0  0  0  0
 20 19  1  0  0  0  0
 21 19  1  0  0  0  0
 23  7  1  0  0  0  0
 24 28  1  0  0  0  0
 24 23  2  0  0  0  0
 25 26  2  0  0  0  0
 25 24  1  0  0  0  0
 26 27  1  0  0  0  0
 27 23  1  0  0  0  0
 29 25  1  0  0  0  0
 30 26  1  0  0  0  0
 30 31  1  0  0  0  0
 31 32  1  0  0  0  0
 33 31  2  0  0  0  0
 34 40  1  0  0  0  0
 34 33  1  0  0  0  0
 35 34  2  0  0  0  0
 36 37  2  0  0  0  0
 36 35  1  0  0  0  0
 37 39  1  0  0  0  0
 38 37  1  0  0  0  0
 39 40  2  0  0  0  0
 40 30  1  0  0  0  0
 41 35  1  0  0  0  0
 41 42  1  0  0  0  0
 43 41  1  0  0  0  0
M  END
>  <minimizedAffinity>
-7.47957325

$$$$

 OpenBabel03252500163D

 43 47  0  0  0  0  0  0  0  0999 V2000
   40.7610   30.4130   41.3340 Cl  0  0  0  0  0  0  0  0  0  0  0  0
   39.2870   31.1420   40.7700 C   0  0  0  0  0  0  0  0  0  0  0  0
   39.3120   32.2930   40.0160 C   0  0  0  0  0  0  0  0  0  0  0  0
   38.1500   32.8950   39.5520 C   0  0  0  0  0  0  0  0  0  0  0  0
   36.9660   32.2780   39.8890 C   0  0  0  0  0  0  0  0  0  0  0  0
   36.9360   31.1220   40.6460 C   0  0  0  0  0  0  0  0  0  0  0  0
   38.0710   30.5570   41.0840 C   0  0  0  0  0  0  0  0  0  0  0  0
   38.1650   33.7940   38.9610 H   0  0  0  0  0  0  0  0  0  0  0  0
   36.0170   32.6930   39.5600 H   0  0  0  0  0  0  0  0  0  0  0  0
   35.9810   30.6700   40.8880 H   0  0  0  0  0  0  0  0  0  0  0  0
   42.2580   33.4510   38.1210 C   0  0  0  0  0  0  0  0  0  0  0  0
   43.0420   34.0640   39.1240 C   0  0  0  0  0  0  0  0  0  0  0  0
   42.5470   34.0690   40.4310 C   0  0  0  0  0  0  0  0  0  0  0  0
   41.3370   33.4860   40.6770 N   0  0  0  0  0  0  0  0  0  0  0  0
   40.6080   32.9050   39.6880 C   0  0  0  0  0  0  0  0  0  0  0  0
   41.0730   32.8950   38.4380 N   0  0  0  0  0  0  0  0  0  0  0  0
   42.6770   33.4700   37.1280 H   0  0  0  0  0  0  0  0  0  0  0  0
   43.9810   34.5210   38.9580 H   0  0  0  0  0  0  0  0  0  0  0  0
   43.2930   34.6880   41.5630 C   0  0  0  0  0  0  0  0  0  0  0  0
   44.5710   35.0200   41.1820 F   0  0  0  0  0  0  0  0  0  0  0  0
   42.6290   35.8490   41.9470 F   0  0  0  0  0  0  0  0  0  0  0  0
   43.2760   33.8010   42.6030 F   0  0  0  0  0  0  0  0  0  0  0  0
   38.0640   29.3410   41.8830 C   0  0  0  0  0  0  0  0  0  0  0  0
   37.7230   29.2780   43.2350 C   0  0  0  0  0  0  0  0  0  0  0  0
   37.8310   27.9730   43.6580 C   0  0  0  0  0  0  0  0  0  0  0  0
   38.2360   27.2930   42.5330 C   0  0  0  0  0  0  0  0  0  0  0  0
   38.3670   28.1170   41.5040 O   0  0  0  0  0  0  0  0  0  0  0  0
   37.4120   30.0850   43.9150 H   0  0  0  0  0  0  0  0  0  0  0  0
   37.6660   27.4840   44.6060 H   0  0  0  0  0  0  0  0  0  0  0  0
   38.5280   25.9180   42.2930 N   0  0  0  0  0  0  0  0  0  0  0  0
   39.4770   25.1120   42.8300 C   0  0  0  0  0  0  0  0  0  0  0  0
   40.1640   25.5100   43.5710 H   0  0  0  0  0  0  0  0  0  0  0  0
   39.3480   23.8900   42.2800 N   0  0  0  0  0  0  0  0  0  0  0  0
   38.3400   23.9410   41.4190 C   0  0  0  0  0  0  0  0  0  0  0  0
   37.8160   22.9450   40.6060 C   0  0  0  0  0  0  0  0  0  0  0  0
   36.7710   23.2720   39.8140 N   0  0  0  0  0  0  0  0  0  0  0  0
   36.2440   24.5270   39.8060 C   0  0  0  0  0  0  0  0  0  0  0  0
   35.3930   24.7680   39.1510 H   0  0  0  0  0  0  0  0  0  0  0  0
   36.7360   25.5070   40.5860 N   0  0  0  0  0  0  0  0  0  0  0  0
   37.7800   25.2190   41.3910 C   0  0  0  0  0  0  0  0  0  0  0  0
   38.3380   21.6170   40.5840 N   0  0  0  0  0  0  0  0  0  0  0  0
   37.8570   21.1570   41.4120 H   0  0  0  0  0  0  0  0  0  0  0  0
   39.0340   21.1630   39.9220 H   0  0  0  0  0  0  0  0  0  0  0  0
  2  7  1  0  0  0  0
  2  1  1  0  0  0  0
  3  2  2  0  0  0  0
  4  5  2  0  0  0  0
  4  3  1  0  0  0  0
  5  6  1  0  0  0  0
  6 10  1  0  0  0  0
  6  7  2  0  0  0  0
  7 23  1  0  0  0  0
  8  4  1  0  0  0  0
  9  5  1  0  0  0  0
 11 16  2  0  0  0  0
 11 12  1  0  0  0  0
 12 13  2  0  0  0  0
 13 14  1  0  0  0  0
 13 19  1  0  0  0  0
 15  3  1  0  0  0  0
 15 14  2  0  0  0  0
 16 15  1  0  0  0  0
 17 11  1  0  0  0  0
 18 12  1  0  0  0  0
 19 21  1  0  0  0  0
 19 22  1  0  0  0  0
 20 19  1  0  0  0  0
 23 24  2  0  0  0  0
 24 25  1  0  0  0  0
 24 28  1  0  0  0  0
 25 29  1  0  0  0  0
 26 25  2  0  0  0  0
 27 23  1  0  0  0  0
 27 26  1  0  0  0  0
 30 26  1  0  0  0  0
 30 31  1  0  0  0  0
 31 32  1  0  0  0  0
 33 31  2  0  0  0  0
 34 33  1  0  0  0  0
 35 34  2  0  0  0  0
 36 35  1  0  0  0  0
 37 36  2  0  0  0  0
 37 39  1  0  0  0  0
 38 37  1  0  0  0  0
 39 40  2  0  0  0  0
 40 34  1  0  0  0  0
 40 30  1  0  0  0  0
 41 35  1  0  0  0  0
 41 42  1  0  0  0  0
 43 41  1  0  0  0  0
M  END
>  <minimizedAffinity>
-7.13763285

$$$$

 OpenBabel03252500163D

 43 47  0  0  0  0  0  0  0  0999 V2000
   40.9920   31.3990   39.5890 Cl  0  0  0  0  0  0  0  0  0  0  0  0
   40.0980   32.8720   39.8170 C   0  0  0  0  0  0  0  0  0  0  0  0
   40.7450   34.0840   39.9160 C   0  0  0  0  0  0  0  0  0  0  0  0
   40.0550   35.2750   40.0970 C   0  0  0  0  0  0  0  0  0  0  0  0
   38.6830   35.1810   40.1740 C   0  0  0  0  0  0  0  0  0  0  0  0
   38.0290   33.9670   40.0760 C   0  0  0  0  0  0  0  0  0  0  0  0
   38.7150   32.8280   39.9010 C   0  0  0  0  0  0  0  0  0  0  0  0
   40.5570   36.2240   40.1730 H   0  0  0  0  0  0  0  0  0  0  0  0
   38.0780   36.0720   40.3150 H   0  0  0  0  0  0  0  0  0  0  0  0
   36.9480   33.9400   40.1420 H   0  0  0  0  0  0  0  0  0  0  0  0
   44.1730   33.9570   38.5580 C   0  0  0  0  0  0  0  0  0  0  0  0
   44.9620   34.1960   39.7050 C   0  0  0  0  0  0  0  0  0  0  0  0
   44.3060   34.3950   40.9220 C   0  0  0  0  0  0  0  0  0  0  0  0
   42.9410   34.3510   40.9480 N   0  0  0  0  0  0  0  0  0  0  0  0
   42.2120   34.1190   39.8250 C   0  0  0  0  0  0  0  0  0  0  0  0
   42.8300   33.9280   38.6580 N   0  0  0  0  0  0  0  0  0  0  0  0
   44.7190   33.8090   37.6410 H   0  0  0  0  0  0  0  0  0  0  0  0
   46.0190   34.2340   39.7110 H   0  0  0  0  0  0  0  0  0  0  0  0
   45.0420   34.6540   42.1920 C   0  0  0  0  0  0  0  0  0  0  0  0
   45.9380   33.6430   42.4520 F   0  0  0  0  0  0  0  0  0  0  0  0
   45.7470   35.8470   42.0590 F   0  0  0  0  0  0  0  0  0  0  0  0
   44.1160   34.7940   43.1870 F   0  0  0  0  0  0  0  0  0  0  0  0
   38.0490   31.5380   39.7950 C   0  0  0  0  0  0  0  0  0  0  0  0
   37.1970   31.1650   38.7550 C   0  0  0  0  0  0  0  0  0  0  0  0
   36.7520   29.8840   38.9860 C   0  0  0  0  0  0  0  0  0  0  0  0
   37.3620   29.5300   40.1680 C   0  0  0  0  0  0  0  0  0  0  0  0
   38.1170   30.5180   40.6230 O   0  0  0  0  0  0  0  0  0  0  0  0
   36.8820   31.7380   37.8700 H   0  0  0  0  0  0  0  0  0  0  0  0
   36.0930   29.2180   38.4500 H   0  0  0  0  0  0  0  0  0  0  0  0
   37.3220   28.3400   40.9520 N   0  0  0  0  0  0  0  0  0  0  0  0
   36.6430   28.0580   42.0910 C   0  0  0  0  0  0  0  0  0  0  0  0
   36.0050   28.8140   42.5380 H   0  0  0  0  0  0  0  0  0  0  0  0
   36.9340   26.7930   42.4490 N   0  0  0  0  0  0  0  0  0  0  0  0
   37.7770   26.3040   41.5490 C   0  0  0  0  0  0  0  0  0  0  0  0
   38.3660   25.0490   41.4750 C   0  0  0  0  0  0  0  0  0  0  0  0
   39.1970   24.8110   40.4360 N   0  0  0  0  0  0  0  0  0  0  0  0
   39.4530   25.7590   39.4920 C   0  0  0  0  0  0  0  0  0  0  0  0
   40.1340   25.5390   38.6560 H   0  0  0  0  0  0  0  0  0  0  0  0
   38.8920   26.9800   39.5450 N   0  0  0  0  0  0  0  0  0  0  0  0
   38.0560   27.2560   40.5680 C   0  0  0  0  0  0  0  0  0  0  0  0
   38.1260   24.0280   42.4420 N   0  0  0  0  0  0  0  0  0  0  0  0
   37.2160   23.5920   42.1080 H   0  0  0  0  0  0  0  0  0  0  0  0
   38.6890   23.7440   43.2970 H   0  0  0  0  0  0  0  0  0  0  0  0
  1  2  1  0  0  0  0
  2  7  2  0  0  0  0
  2  3  1  0  0  0  0
  3  4  2  0  0  0  0
  4  8  1  0  0  0  0
  4  5  1  0  0  0  0
  5  9  1  0  0  0  0
  6 10  1  0  0  0  0
  6  5  2  0  0  0  0
  7  6  1  0  0  0  0
 11 16  2  0  0  0  0
 11 12  1  0  0  0  0
 12 18  1  0  0  0  0
 12 13  2  0  0  0  0
 13 14  1  0  0  0  0
 13 19  1  0  0  0  0
 15  3  1  0  0  0  0
 15 14  2  0  0  0  0
 16 15  1  0  0  0  0
 17 11  1  0  0  0  0
 19 20  1  0  0  0  0
 19 22  1  0  0  0  0
 21 19  1  0  0  0  0
 23  7  1  0  0  0  0
 23 27  1  0  0  0  0
 24 25  1  0  0  0  0
 24 23  2  0  0  0  0
 25 26  2  0  0  0  0
 26 27  1  0  0  0  0
 26 30  1  0  0  0  0
 28 24  1  0  0  0  0
 29 25  1  0  0  0  0
 30 31  1  0  0  0  0
 31 33  2  0  0  0  0
 31 32  1  0  0  0  0
 34 33  1  0  0  0  0
 35 34  1  0  0  0  0
 35 41  1  0  0  0  0
 36 35  2  0  0  0  0
 37 39  2  0  0  0  0
 37 36  1  0  0  0  0
 38 37  1  0  0  0  0
 39 40  1  0  0  0  0
 40 30  1  0  0  0  0
 40 34  2  0  0  0  0
 41 43  1  0  0  0  0
 42 41  1  0  0  0  0
M  END
>  <minimizedAffinity>
-7.06556225

$$$$

 OpenBabel03252500163D

 43 47  0  0  0  0  0  0  0  0999 V2000
   39.7150   27.0150   40.4840 Cl  0  0  0  0  0  0  0  0  0  0  0  0
   38.6310   27.3780   41.7930 C   0  0  0  0  0  0  0  0  0  0  0  0
   37.5540   26.5650   42.0670 C   0  0  0  0  0  0  0  0  0  0  0  0
   36.6740   26.8320   43.1060 C   0  0  0  0  0  0  0  0  0  0  0  0
   36.9350   27.9600   43.8530 C   0  0  0  0  0  0  0  0  0  0  0  0
   38.0150   28.7800   43.5830 C   0  0  0  0  0  0  0  0  0  0  0  0
   38.8530   28.5030   42.5730 C   0  0  0  0  0  0  0  0  0  0  0  0
   35.8320   26.1980   43.3240 H   0  0  0  0  0  0  0  0  0  0  0  0
   36.2890   28.2310   44.6830 H   0  0  0  0  0  0  0  0  0  0  0  0
   38.1820   29.6570   44.1970 H   0  0  0  0  0  0  0  0  0  0  0  0
   37.7050   23.1090   40.7850 C   0  0  0  0  0  0  0  0  0  0  0  0
   36.8760   23.1730   39.6420 C   0  0  0  0  0  0  0  0  0  0  0  0
   36.2810   24.3990   39.3320 C   0  0  0  0  0  0  0  0  0  0  0  0
   36.5260   25.4710   40.1410 N   0  0  0  0  0  0  0  0  0  0  0  0
   37.3290   25.3750   41.2330 C   0  0  0  0  0  0  0  0  0  0  0  0
   37.9000   24.2090   41.5380 N   0  0  0  0  0  0  0  0  0  0  0  0
   38.1430   22.1450   40.9870 H   0  0  0  0  0  0  0  0  0  0  0  0
   36.6720   22.3570   39.0010 H   0  0  0  0  0  0  0  0  0  0  0  0
   35.3910   24.5760   38.1510 C   0  0  0  0  0  0  0  0  0  0  0  0
   35.1510   25.9090   37.9150 F   0  0  0  0  0  0  0  0  0  0  0  0
   36.0240   24.0350   37.0350 F   0  0  0  0  0  0  0  0  0  0  0  0
   34.2410   23.8770   38.3900 F   0  0  0  0  0  0  0  0  0  0  0  0
   39.9950   29.3510   42.2680 C   0  0  0  0  0  0  0  0  0  0  0  0
   41.2480   29.2480   42.8750 C   0  0  0  0  0  0  0  0  0  0  0  0
   42.0770   30.2080   42.3420 C   0  0  0  0  0  0  0  0  0  0  0  0
   41.2840   30.8590   41.4250 C   0  0  0  0  0  0  0  0  0  0  0  0
   40.0670   30.3380   41.4010 O   0  0  0  0  0  0  0  0  0  0  0  0
   41.5920   28.5500   43.6520 H   0  0  0  0  0  0  0  0  0  0  0  0
   43.1070   30.4790   42.5170 H   0  0  0  0  0  0  0  0  0  0  0  0
   41.5330   31.9470   40.5390 N   0  0  0  0  0  0  0  0  0  0  0  0
   41.4290   33.2840   40.7340 C   0  0  0  0  0  0  0  0  0  0  0  0
   41.1070   33.6630   41.7000 H   0  0  0  0  0  0  0  0  0  0  0  0
   41.7760   33.9030   39.5900 N   0  0  0  0  0  0  0  0  0  0  0  0
   42.0890   32.9650   38.7050 C   0  0  0  0  0  0  0  0  0  0  0  0
   42.5080   33.0930   37.3870 C   0  0  0  0  0  0  0  0  0  0  0  0
   42.7630   31.9570   36.7010 N   0  0  0  0  0  0  0  0  0  0  0  0
   42.6190   30.7290   37.2710 C   0  0  0  0  0  0  0  0  0  0  0  0
   42.8340   29.8190   36.6910 H   0  0  0  0  0  0  0  0  0  0  0  0
   42.2150   30.5830   38.5460 N   0  0  0  0  0  0  0  0  0  0  0  0
   41.9500   31.6940   39.2640 C   0  0  0  0  0  0  0  0  0  0  0  0
   42.6700   34.3600   36.7520 N   0  0  0  0  0  0  0  0  0  0  0  0
   43.6420   34.6600   37.0620 H   0  0  0  0  0  0  0  0  0  0  0  0
   42.0110   34.9030   36.1190 H   0  0  0  0  0  0  0  0  0  0  0  0
  1  2  1  0  0  0  0
  2  3  2  0  0  0  0
  2  7  1  0  0  0  0
  3  4  1  0  0  0  0
  4  8  1  0  0  0  0
  4  5  2  0  0  0  0
  5  9  1  0  0  0  0
  6  5  1  0  0  0  0
  6 10  1  0  0  0  0
  7  6  2  0  0  0  0
 11 17  1  0  0  0  0
 11 16  1  0  0  0  0
 12 11  2  0  0  0  0
 13 12  1  0  0  0  0
 13 14  2  0  0  0  0
 14 15  1  0  0  0  0
 15 16  2  0  0  0  0
 15  3  1  0  0  0  0
 18 12  1  0  0  0  0
 19 22  1  0  0  0  0
 19 13  1  0  0  0  0
 20 19  1  0  0  0  0
 21 19  1  0  0  0  0
 23  7  1  0  0  0  0
 23 24  2  0  0  0  0
 24 28  1  0  0  0  0
 25 29  1  0  0  0  0
 25 24  1  0  0  0  0
 26 25  2  0  0  0  0
 27 26  1  0  0  0  0
 27 23  1  0  0  0  0
 30 31  1  0  0  0  0
 30 26  1  0  0  0  0
 31 32  1  0  0  0  0
 33 31  2  0  0  0  0
 34 40  1  0  0  0  0
 34 33  1  0  0  0  0
 35 34  2  0  0  0  0
 36 37  2  0  0  0  0
 36 35  1  0  0  0  0
 37 39  1  0  0  0  0
 38 37  1  0  0  0  0
 39 40  2  0  0  0  0
 40 30  1  0  0  0  0
 41 42  1  0  0  0  0
 41 35  1  0  0  0  0
 43 41  1  0  0  0  0
M  END
>  <minimizedAffinity>
-7.02426004

$$$$

 OpenBabel03252500163D

 43 47  0  0  0  0  0  0  0  0999 V2000
   36.1500   30.2870   38.8690 Cl  0  0  0  0  0  0  0  0  0  0  0  0
   36.2910   28.5600   39.0020 C   0  0  0  0  0  0  0  0  0  0  0  0
   35.5450   27.7260   38.1990 C   0  0  0  0  0  0  0  0  0  0  0  0
   35.6400   26.3440   38.2850 C   0  0  0  0  0  0  0  0  0  0  0  0
   36.5220   25.8480   39.2180 C   0  0  0  0  0  0  0  0  0  0  0  0
   37.2740   26.6810   40.0260 C   0  0  0  0  0  0  0  0  0  0  0  0
   37.1670   28.0140   39.9270 C   0  0  0  0  0  0  0  0  0  0  0  0
   35.0600   25.6880   37.6590 H   0  0  0  0  0  0  0  0  0  0  0  0
   36.6490   24.7760   39.3400 H   0  0  0  0  0  0  0  0  0  0  0  0
   37.9560   26.2470   40.7480 H   0  0  0  0  0  0  0  0  0  0  0  0
   34.1170   28.9410   35.0220 C   0  0  0  0  0  0  0  0  0  0  0  0
   32.8530   29.4280   35.4250 C   0  0  0  0  0  0  0  0  0  0  0  0
   32.5140   29.3320   36.7770 C   0  0  0  0  0  0  0  0  0  0  0  0
   33.4120   28.7760   37.6420 N   0  0  0  0  0  0  0  0  0  0  0  0
   34.6200   28.3160   37.2210 C   0  0  0  0  0  0  0  0  0  0  0  0
   34.9520   28.4030   35.9320 N   0  0  0  0  0  0  0  0  0  0  0  0
   34.3370   29.0340   33.9710 H   0  0  0  0  0  0  0  0  0  0  0  0
   32.1420   29.8640   34.7750 H   0  0  0  0  0  0  0  0  0  0  0  0
   31.2080   29.8160   37.3070 C   0  0  0  0  0  0  0  0  0  0  0  0
   30.1920   28.9590   36.9580 F   0  0  0  0  0  0  0  0  0  0  0  0
   31.2870   29.8690   38.6950 F   0  0  0  0  0  0  0  0  0  0  0  0
   31.0090   31.0800   36.8260 F   0  0  0  0  0  0  0  0  0  0  0  0
   37.9460   28.9120   40.7670 C   0  0  0  0  0  0  0  0  0  0  0  0
   37.9190   28.9210   42.1620 C   0  0  0  0  0  0  0  0  0  0  0  0
   38.7760   29.8970   42.6140 C   0  0  0  0  0  0  0  0  0  0  0  0
   39.2930   30.4440   41.4630 C   0  0  0  0  0  0  0  0  0  0  0  0
   38.7900   29.8490   40.3920 O   0  0  0  0  0  0  0  0  0  0  0  0
   37.3400   28.2910   42.8540 H   0  0  0  0  0  0  0  0  0  0  0  0
   39.0570   30.2410   43.5990 H   0  0  0  0  0  0  0  0  0  0  0  0
   40.2320   31.4910   41.2320 N   0  0  0  0  0  0  0  0  0  0  0  0
   41.5830   31.5020   41.3360 C   0  0  0  0  0  0  0  0  0  0  0  0
   42.1060   30.6000   41.6400 H   0  0  0  0  0  0  0  0  0  0  0  0
   42.0180   32.7340   41.0100 N   0  0  0  0  0  0  0  0  0  0  0  0
   40.9560   33.4700   40.7130 C   0  0  0  0  0  0  0  0  0  0  0  0
   40.8790   34.7990   40.3190 C   0  0  0  0  0  0  0  0  0  0  0  0
   39.6510   35.3070   40.0730 N   0  0  0  0  0  0  0  0  0  0  0  0
   38.5250   34.5520   40.2050 C   0  0  0  0  0  0  0  0  0  0  0  0
   37.5360   34.9900   39.9990 H   0  0  0  0  0  0  0  0  0  0  0  0
   38.5770   33.2630   40.5850 N   0  0  0  0  0  0  0  0  0  0  0  0
   39.7860   32.7200   40.8380 C   0  0  0  0  0  0  0  0  0  0  0  0
   42.0340   35.6250   40.1700 N   0  0  0  0  0  0  0  0  0  0  0  0
   42.3760   35.3820   39.1940 H   0  0  0  0  0  0  0  0  0  0  0  0
   42.4730   36.3200   40.8430 H   0  0  0  0  0  0  0  0  0  0  0  0
  1  2  1  0  0  0  0
  2  7  1  0  0  0  0
  3  4  1  0  0  0  0
  3  2  2  0  0  0  0
  4  5  2  0  0  0  0
  5  9  1  0  0  0  0
  5  6  1  0  0  0  0
  6 10  1  0  0  0  0
  7  6  2  0  0  0  0
  7 23  1  0  0  0  0
  8  4  1  0  0  0  0
 11 12  2  0  0  0  0
 11 16  1  0  0  0  0
 12 13  1  0  0  0  0
 13 19  1  0  0  0  0
 13 14  2  0  0  0  0
 15 14  1  0  0  0  0
 15  3  1  0  0  0  0
 16 15  2  0  0  0  0
 17 11  1  0  0  0  0
 18 12  1  0  0  0  0
 19 21  1  0  0  0  0
 20 19  1  0  0  0  0
 22 19  1  0  0  0  0
 23 24  2  0  0  0  0
 24 25  1  0  0  0  0
 24 28  1  0  0  0  0
 25 29  1  0  0  0  0
 26 25  2  0  0  0  0
 27 23  1  0  0  0  0
 27 26  1  0  0  0  0
 30 31  1  0  0  0  0
 30 26  1  0  0  0  0
 31 32  1  0  0  0  0
 33 31  2  0  0  0  0
 34 40  1  0  0  0  0
 34 33  1  0  0  0  0
 35 34  2  0  0  0  0
 36 37  2  0  0  0  0
 36 35  1  0  0  0  0
 37 39  1  0  0  0  0
 38 37  1  0  0  0  0
 39 40  2  0  0  0  0
 40 30  1  0  0  0  0
 41 35  1  0  0  0  0
 41 43  1  0  0  0  0
 42 41  1  0  0  0  0
M  END
>  <minimizedAffinity>
-6.98314238

$$$$

 OpenBabel03252500163D

 43 47  0  0  0  0  0  0  0  0999 V2000
   38.2390   28.2430   39.4120 Cl  0  0  0  0  0  0  0  0  0  0  0  0
   37.8690   28.0730   41.1020 C   0  0  0  0  0  0  0  0  0  0  0  0
   37.6350   26.8340   41.6540 C   0  0  0  0  0  0  0  0  0  0  0  0
   37.3390   26.6720   43.0000 C   0  0  0  0  0  0  0  0  0  0  0  0
   37.2900   27.8200   43.7580 C   0  0  0  0  0  0  0  0  0  0  0  0
   37.5240   29.0670   43.2090 C   0  0  0  0  0  0  0  0  0  0  0  0
   37.8090   29.2010   41.9050 C   0  0  0  0  0  0  0  0  0  0  0  0
   37.1560   25.7050   43.4360 H   0  0  0  0  0  0  0  0  0  0  0  0
   37.0640   27.7690   44.8200 H   0  0  0  0  0  0  0  0  0  0  0  0
   37.4760   29.9440   43.8430 H   0  0  0  0  0  0  0  0  0  0  0  0
   38.9500   23.9700   39.7360 C   0  0  0  0  0  0  0  0  0  0  0  0
   37.7770   23.4180   39.1740 C   0  0  0  0  0  0  0  0  0  0  0  0
   36.5580   24.0370   39.4610 C   0  0  0  0  0  0  0  0  0  0  0  0
   36.5550   25.1400   40.2670 N   0  0  0  0  0  0  0  0  0  0  0  0
   37.7020   25.6450   40.7930 C   0  0  0  0  0  0  0  0  0  0  0  0
   38.8700   25.0600   40.5240 N   0  0  0  0  0  0  0  0  0  0  0  0
   39.8670   23.4610   39.4890 H   0  0  0  0  0  0  0  0  0  0  0  0
   37.7540   22.5660   38.5470 H   0  0  0  0  0  0  0  0  0  0  0  0
   35.2630   23.5380   38.9190 C   0  0  0  0  0  0  0  0  0  0  0  0
   34.6520   24.4980   38.1490 F   0  0  0  0  0  0  0  0  0  0  0  0
   35.5170   22.4250   38.1220 F   0  0  0  0  0  0  0  0  0  0  0  0
   34.4900   23.1560   39.9800 F   0  0  0  0  0  0  0  0  0  0  0  0
   38.0590   30.5030   41.3040 C   0  0  0  0  0  0  0  0  0  0  0  0
   37.0770   31.3250   40.7500 C   0  0  0  0  0  0  0  0  0  0  0  0
   37.6750   32.4700   40.2770 C   0  0  0  0  0  0  0  0  0  0  0  0
   39.0080   32.2930   40.5680 C   0  0  0  0  0  0  0  0  0  0  0  0
   39.2080   31.1300   41.1700 O   0  0  0  0  0  0  0  0  0  0  0  0
   35.9930   31.1600   40.6660 H   0  0  0  0  0  0  0  0  0  0  0  0
   37.3000   33.3550   39.7850 H   0  0  0  0  0  0  0  0  0  0  0  0
   40.1580   33.1040   40.3430 N   0  0  0  0  0  0  0  0  0  0  0  0
   40.3410   34.1640   39.5180 C   0  0  0  0  0  0  0  0  0  0  0  0
   39.5200   34.5080   38.8950 H   0  0  0  0  0  0  0  0  0  0  0  0
   41.6080   34.5950   39.6650 N   0  0  0  0  0  0  0  0  0  0  0  0
   42.1960   33.8150   40.5620 C   0  0  0  0  0  0  0  0  0  0  0  0
   43.4930   33.8530   41.0560 C   0  0  0  0  0  0  0  0  0  0  0  0
   43.8360   32.9270   41.9800 N   0  0  0  0  0  0  0  0  0  0  0  0
   42.9500   31.9900   42.4170 C   0  0  0  0  0  0  0  0  0  0  0  0
   43.2540   31.2480   43.1700 H   0  0  0  0  0  0  0  0  0  0  0  0
   41.6890   31.9370   41.9520 N   0  0  0  0  0  0  0  0  0  0  0  0
   41.3090   32.8450   41.0290 C   0  0  0  0  0  0  0  0  0  0  0  0
   44.4530   34.8170   40.6240 N   0  0  0  0  0  0  0  0  0  0  0  0
   44.2280   35.6630   41.2260 H   0  0  0  0  0  0  0  0  0  0  0  0
   45.2170   34.7460   39.8890 H   0  0  0  0  0  0  0  0  0  0  0  0
  1  2  1  0  0  0  0
  2  3  2  0  0  0  0
  2  7  1  0  0  0  0
  3  4  1  0  0  0  0
  4  8  1  0  0  0  0
  4  5  2  0  0  0  0
  5  9  1  0  0  0  0
  6  5  1  0  0  0  0
  6 10  1  0  0  0  0
  7  6  2  0  0  0  0
 11 16  1  0  0  0  0
 12 13  1  0  0  0  0
 12 11  2  0  0  0  0
 13 14  2  0  0  0  0
 14 15  1  0  0  0  0
 15  3  1  0  0  0  0
 16 15  2  0  0  0  0
 17 11  1  0  0  0  0
 18 12  1  0  0  0  0
 19 13  1  0  0  0  0
 19 22  1  0  0  0  0
 20 19  1  0  0  0  0
 21 19  1  0  0  0  0
 23  7  1  0  0  0  0
 24 23  2  0  0  0  0
 25 26  2  0  0  0  0
 25 24  1  0  0  0  0
 26 27  1  0  0  0  0
 27 23  1  0  0  0  0
 28 24  1  0  0  0  0
 29 25  1  0  0  0  0
 30 26  1  0  0  0  0
 30 40  1  0  0  0  0
 31 33  2  0  0  0  0
 31 30  1  0  0  0  0
 32 31  1  0  0  0  0
 33 34  1  0  0  0  0
 34 40  2  0  0  0  0
 34 35  1  0  0  0  0
 35 36  2  0  0  0  0
 36 37  1  0  0  0  0
 37 38  1  0  0  0  0
 39 37  2  0  0  0  0
 40 39  1  0  0  0  0
 41 35  1  0  0  0  0
 41 42  1  0  0  0  0
 43 41  1  0  0  0  0
M  END
>  <minimizedAffinity>
-6.81403017

$$$$

 OpenBabel03252500163D

 43 47  0  0  0  0  0  0  0  0999 V2000
   40.6750   30.4560   41.6450 Cl  0  0  0  0  0  0  0  0  0  0  0  0
   39.2420   31.1470   40.9450 C   0  0  0  0  0  0  0  0  0  0  0  0
   39.3040   32.3070   40.2070 C   0  0  0  0  0  0  0  0  0  0  0  0
   38.1750   32.8790   39.6360 C   0  0  0  0  0  0  0  0  0  0  0  0
   36.9840   32.2220   39.8480 C   0  0  0  0  0  0  0  0  0  0  0  0
   36.9160   31.0560   40.5890 C   0  0  0  0  0  0  0  0  0  0  0  0
   38.0200   30.5210   41.1310 C   0  0  0  0  0  0  0  0  0  0  0  0
   38.2200   33.7850   39.0580 H   0  0  0  0  0  0  0  0  0  0  0  0
   36.0590   32.6110   39.4310 H   0  0  0  0  0  0  0  0  0  0  0  0
   35.9570   30.5720   40.7300 H   0  0  0  0  0  0  0  0  0  0  0  0
   42.1720   34.5880   40.6330 C   0  0  0  0  0  0  0  0  0  0  0  0
   43.0560   34.1580   39.6170 C   0  0  0  0  0  0  0  0  0  0  0  0
   42.6520   33.0950   38.8060 C   0  0  0  0  0  0  0  0  0  0  0  0
   41.4320   32.5240   39.0280 N   0  0  0  0  0  0  0  0  0  0  0  0
   40.6060   32.9630   40.0150 C   0  0  0  0  0  0  0  0  0  0  0  0
   40.9830   33.9770   40.7950 N   0  0  0  0  0  0  0  0  0  0  0  0
   42.5230   35.4110   41.2360 H   0  0  0  0  0  0  0  0  0  0  0  0
   44.0040   34.5840   39.4250 H   0  0  0  0  0  0  0  0  0  0  0  0
   43.5060   32.5630   37.7060 C   0  0  0  0  0  0  0  0  0  0  0  0
   42.7350   32.1400   36.6500 F   0  0  0  0  0  0  0  0  0  0  0  0
   44.3420   33.5840   37.2630 F   0  0  0  0  0  0  0  0  0  0  0  0
   44.2710   31.5570   38.2260 F   0  0  0  0  0  0  0  0  0  0  0  0
   37.9730   29.2950   41.9150 C   0  0  0  0  0  0  0  0  0  0  0  0
   37.5470   29.2140   43.2410 C   0  0  0  0  0  0  0  0  0  0  0  0
   37.6400   27.9050   43.6550 C   0  0  0  0  0  0  0  0  0  0  0  0
   38.1220   27.2410   42.5510 C   0  0  0  0  0  0  0  0  0  0  0  0
   38.3100   28.0790   41.5430 O   0  0  0  0  0  0  0  0  0  0  0  0
   37.1870   30.0100   43.9090 H   0  0  0  0  0  0  0  0  0  0  0  0
   37.4190   27.4040   44.5860 H   0  0  0  0  0  0  0  0  0  0  0  0
   38.4410   25.8720   42.3150 N   0  0  0  0  0  0  0  0  0  0  0  0
   39.3970   25.0830   42.8640 C   0  0  0  0  0  0  0  0  0  0  0  0
   40.0680   25.4930   43.6130 H   0  0  0  0  0  0  0  0  0  0  0  0
   39.2960   23.8590   42.3130 N   0  0  0  0  0  0  0  0  0  0  0  0
   38.2980   23.8920   41.4400 C   0  0  0  0  0  0  0  0  0  0  0  0
   37.8020   22.8870   40.6210 C   0  0  0  0  0  0  0  0  0  0  0  0
   36.7610   23.1950   39.8150 N   0  0  0  0  0  0  0  0  0  0  0  0
   36.2130   24.4410   39.8000 C   0  0  0  0  0  0  0  0  0  0  0  0
   35.3650   24.6670   39.1350 H   0  0  0  0  0  0  0  0  0  0  0  0
   36.6780   25.4290   40.5860 N   0  0  0  0  0  0  0  0  0  0  0  0
   37.7160   25.1600   41.4040 C   0  0  0  0  0  0  0  0  0  0  0  0
   38.3480   21.5680   40.6050 N   0  0  0  0  0  0  0  0  0  0  0  0
   37.8650   21.1000   41.4270 H   0  0  0  0  0  0  0  0  0  0  0  0
   39.0600   21.1260   39.9510 H   0  0  0  0  0  0  0  0  0  0  0  0
  2  7  1  0  0  0  0
  2  1  1  0  0  0  0
  3  2  2  0  0  0  0
  4  5  2  0  0  0  0
  4  3  1  0  0  0  0
  5  6  1  0  0  0  0
  6 10  1  0  0  0  0
  6  7  2  0  0  0  0
  7 23  1  0  0  0  0
  8  4  1  0  0  0  0
  9  5  1  0  0  0  0
 11 16  1  0  0  0  0
 11 17  1  0  0  0  0
 12 11  2  0  0  0  0
 13 14  2  0  0  0  0
 13 12  1  0  0  0  0
 14 15  1  0  0  0  0
 15  3  1  0  0  0  0
 15 16  2  0  0  0  0
 18 12  1  0  0  0  0
 19 22  1  0  0  0  0
 19 13  1  0  0  0  0
 20 19  1  0  0  0  0
 21 19  1  0  0  0  0
 23 24  2  0  0  0  0
 24 25  1  0  0  0  0
 24 28  1  0  0  0  0
 25 29  1  0  0  0  0
 26 25  2  0  0  0  0
 27 23  1  0  0  0  0
 27 26  1  0  0  0  0
 30 26  1  0  0  0  0
 30 31  1  0  0  0  0
 31 32  1  0  0  0  0
 33 31  2  0  0  0  0
 34 33  1  0  0  0  0
 35 34  2  0  0  0  0
 36 35  1  0  0  0  0
 37 36  2  0  0  0  0
 37 39  1  0  0  0  0
 38 37  1  0  0  0  0
 39 40  2  0  0  0  0
 40 34  1  0  0  0  0
 40 30  1  0  0  0  0
 41 35  1  0  0  0  0
 41 42  1  0  0  0  0
 43 41  1  0  0  0  0
M  END
>  <minimizedAffinity>
-6.79251957

$$$$

 OpenBabel03252500163D

 43 47  0  0  0  0  0  0  0  0999 V2000
   37.1640   26.9100   38.4530 Cl  0  0  0  0  0  0  0  0  0  0  0  0
   37.1910   26.8920   40.1910 C   0  0  0  0  0  0  0  0  0  0  0  0
   37.0240   25.7170   40.8890 C   0  0  0  0  0  0  0  0  0  0  0  0
   37.0420   25.6750   42.2760 C   0  0  0  0  0  0  0  0  0  0  0  0
   37.2370   26.8750   42.9210 C   0  0  0  0  0  0  0  0  0  0  0  0
   37.4060   28.0580   42.2260 C   0  0  0  0  0  0  0  0  0  0  0  0
   37.3850   28.0760   40.8850 C   0  0  0  0  0  0  0  0  0  0  0  0
   36.9130   24.7580   42.8250 H   0  0  0  0  0  0  0  0  0  0  0  0
   37.2640   26.9190   44.0070 H   0  0  0  0  0  0  0  0  0  0  0  0
   37.5570   28.9800   42.7750 H   0  0  0  0  0  0  0  0  0  0  0  0
   35.3880   22.9060   39.1470 C   0  0  0  0  0  0  0  0  0  0  0  0
   36.4890   22.1170   38.7430 C   0  0  0  0  0  0  0  0  0  0  0  0
   37.7700   22.5630   39.0760 C   0  0  0  0  0  0  0  0  0  0  0  0
   37.9010   23.7310   39.7700 N   0  0  0  0  0  0  0  0  0  0  0  0
   36.8200   24.4660   40.1430 C   0  0  0  0  0  0  0  0  0  0  0  0
   35.5920   24.0490   39.8300 N   0  0  0  0  0  0  0  0  0  0  0  0
   34.4180   22.5260   38.8700 H   0  0  0  0  0  0  0  0  0  0  0  0
   36.4130   21.2100   38.2060 H   0  0  0  0  0  0  0  0  0  0  0  0
   38.9990   21.8080   38.7000 C   0  0  0  0  0  0  0  0  0  0  0  0
   40.1010   22.6290   38.7150 F   0  0  0  0  0  0  0  0  0  0  0  0
   39.1920   20.7880   39.6270 F   0  0  0  0  0  0  0  0  0  0  0  0
   38.7830   21.2530   37.4690 F   0  0  0  0  0  0  0  0  0  0  0  0
   37.5600   29.3080   40.1300 C   0  0  0  0  0  0  0  0  0  0  0  0
   36.5210   30.1440   39.7200 C   0  0  0  0  0  0  0  0  0  0  0  0
   37.0560   31.2090   39.0330 C   0  0  0  0  0  0  0  0  0  0  0  0
   38.4110   30.9720   39.0570 C   0  0  0  0  0  0  0  0  0  0  0  0
   38.6810   29.8500   39.7070 O   0  0  0  0  0  0  0  0  0  0  0  0
   35.4370   30.0400   39.8770 H   0  0  0  0  0  0  0  0  0  0  0  0
   36.6250   32.0740   38.5510 H   0  0  0  0  0  0  0  0  0  0  0  0
   39.5220   31.6900   38.5270 N   0  0  0  0  0  0  0  0  0  0  0  0
   40.3780   31.3750   37.5240 C   0  0  0  0  0  0  0  0  0  0  0  0
   40.2580   30.4370   36.9900 H   0  0  0  0  0  0  0  0  0  0  0  0
   41.2640   32.3800   37.3980 N   0  0  0  0  0  0  0  0  0  0  0  0
   40.9620   33.2980   38.3070 C   0  0  0  0  0  0  0  0  0  0  0  0
   41.5750   34.5140   38.5770 C   0  0  0  0  0  0  0  0  0  0  0  0
   41.0550   35.2670   39.5730 N   0  0  0  0  0  0  0  0  0  0  0  0
   39.9720   34.8580   40.2880 C   0  0  0  0  0  0  0  0  0  0  0  0
   39.5680   35.4900   41.0940 H   0  0  0  0  0  0  0  0  0  0  0  0
   39.3630   33.6830   40.0420 N   0  0  0  0  0  0  0  0  0  0  0  0
   39.8530   32.9040   39.0560 C   0  0  0  0  0  0  0  0  0  0  0  0
   42.7120   34.9800   37.8520 N   0  0  0  0  0  0  0  0  0  0  0  0
   42.2800   35.4200   36.9870 H   0  0  0  0  0  0  0  0  0  0  0  0
   43.7480   34.9220   38.0840 H   0  0  0  0  0  0  0  0  0  0  0  0
  1  2  1  0  0  0  0
  2  7  2  0  0  0  0
  2  3  1  0  0  0  0
  3  4  2  0  0  0  0
  4  8  1  0  0  0  0
  4  5  1  0  0  0  0
  5  9  1  0  0  0  0
  6 10  1  0  0  0  0
  6  5  2  0  0  0  0
  7  6  1  0  0  0  0
 11 16  1  0  0  0  0
 12 13  1  0  0  0  0
 12 11  2  0  0  0  0
 13 14  2  0  0  0  0
 14 15  1  0  0  0  0
 15  3  1  0  0  0  0
 16 15  2  0  0  0  0
 17 11  1  0  0  0  0
 18 12  1  0  0  0  0
 19 20  1  0  0  0  0
 19 13  1  0  0  0  0
 19 21  1  0  0  0  0
 22 19  1  0  0  0  0
 23  7  1  0  0  0  0
 24 28  1  0  0  0  0
 24 23  2  0  0  0  0
 25 26  2  0  0  0  0
 25 24  1  0  0  0  0
 26 27  1  0  0  0  0
 27 23  1  0  0  0  0
 29 25  1  0  0  0  0
 30 40  1  0  0  0  0
 30 26  1  0  0  0  0
 31 30  1  0  0  0  0
 32 31  1  0  0  0  0
 33 31  2  0  0  0  0
 33 34  1  0  0  0  0
 34 35  2  0  0  0  0
 34 40  1  0  0  0  0
 35 36  1  0  0  0  0
 36 37  2  0  0  0  0
 37 38  1  0  0  0  0
 39 37  1  0  0  0  0
 40 39  2  0  0  0  0
 41 43  1  0  0  0  0
 41 35  1  0  0  0  0
 42 41  1  0  0  0  0
M  END
>  <minimizedAffinity>
-6.71183157

$$$$
