
 OpenBabel03252500513D

 36 38  0  0  0  0  0  0  0  0999 V2000
   44.5220   34.9070   42.0900 C   0  0  0  0  0  0  0  0  0  0  0  0
   45.3040   34.8390   41.1220 O   0  0  0  0  0  0  0  0  0  0  0  0
   44.8770   35.0320   44.5140 C   0  0  0  0  0  0  0  0  0  0  0  0
   44.9230   34.2980   43.3540 C   0  0  0  0  0  0  0  0  0  0  0  0
   45.3510   32.9580   43.3650 C   0  0  0  0  0  0  0  0  0  0  0  0
   45.7190   32.4120   44.5700 N   0  0  0  0  0  0  0  0  0  0  0  0
   45.6650   33.1520   45.6920 C   0  0  0  0  0  0  0  0  0  0  0  0
   45.2500   34.4390   45.6590 N   0  0  0  0  0  0  0  0  0  0  0  0
   44.5550   36.0460   44.5190 H   0  0  0  0  0  0  0  0  0  0  0  0
   45.3890   32.3790   42.4540 H   0  0  0  0  0  0  0  0  0  0  0  0
   46.0560   32.5660   46.9640 C   0  0  0  0  0  0  0  0  0  0  0  0
   47.3370   32.2540   47.2720 C   0  0  0  0  0  0  0  0  0  0  0  0
   47.7250   31.7050   48.4580 C   0  0  0  0  0  0  0  0  0  0  0  0
   46.7390   31.4680   49.3660 N   0  0  0  0  0  0  0  0  0  0  0  0
   45.4820   31.7720   49.0690 C   0  0  0  0  0  0  0  0  0  0  0  0
   45.0860   32.3140   47.9040 N   0  0  0  0  0  0  0  0  0  0  0  0
   48.0600   32.4790   46.4850 H   0  0  0  0  0  0  0  0  0  0  0  0
   48.7750   31.4830   48.6300 H   0  0  0  0  0  0  0  0  0  0  0  0
   44.6500   31.6060   49.7550 H   0  0  0  0  0  0  0  0  0  0  0  0
   43.3970   35.5830   41.7010 O   0  0  0  0  0  0  0  0  0  0  0  0
   42.1840   34.9700   41.4770 C   0  0  0  0  0  0  0  0  0  0  0  0
   41.7320   34.3790   42.2690 H   0  0  0  0  0  0  0  0  0  0  0  0
   42.3950   34.2030   40.6660 H   0  0  0  0  0  0  0  0  0  0  0  0
   41.1600   35.8830   40.8160 C   0  0  0  0  0  0  0  0  0  0  0  0
   40.5890   36.3540   41.6450 H   0  0  0  0  0  0  0  0  0  0  0  0
   41.6840   36.7190   40.2900 H   0  0  0  0  0  0  0  0  0  0  0  0
   42.0120   36.0700   38.0010 Cl  0  0  0  0  0  0  0  0  0  0  0  0
   40.6040   35.2060   38.5670 C   0  0  0  0  0  0  0  0  0  0  0  0
   40.2540   35.1560   39.9110 C   0  0  0  0  0  0  0  0  0  0  0  0
   39.1260   34.4540   40.2890 C   0  0  0  0  0  0  0  0  0  0  0  0
   38.8870   34.4340   41.3220 H   0  0  0  0  0  0  0  0  0  0  0  0
   38.3880   33.8290   39.3140 C   0  0  0  0  0  0  0  0  0  0  0  0
   38.6880   33.8450   37.9490 C   0  0  0  0  0  0  0  0  0  0  0  0
   37.6990   33.0240   36.7650 Cl  0  0  0  0  0  0  0  0  0  0  0  0
   39.8280   34.5610   37.6190 C   0  0  0  0  0  0  0  0  0  0  0  0
   40.1150   34.6080   36.5590 H   0  0  0  0  0  0  0  0  0  0  0  0
  1  4  1  0  0  0  0
  2  1  2  0  0  0  0
  3  9  1  0  0  0  0
  3  8  1  0  0  0  0
  4  5  1  0  0  0  0
  4  3  2  0  0  0  0
  5  6  2  0  0  0  0
  6  7  1  0  0  0  0
  7 11  1  0  0  0  0
  8  7  2  0  0  0  0
 10  5  1  0  0  0  0
 11 12  2  0  0  0  0
 11 16  1  0  0  0  0
 12 13  1  0  0  0  0
 13 18  1  0  0  0  0
 13 14  2  0  0  0  0
 15 14  1  0  0  0  0
 15 19  1  0  0  0  0
 16 15  2  0  0  0  0
 17 12  1  0  0  0  0
 20  1  1  0  0  0  0
 21 20  1  0  0  0  0
 21 22  1  0  0  0  0
 23 21  1  0  0  0  0
 24 21  1  0  0  0  0
 24 25  1  0  0  0  0
 26 24  1  0  0  0  0
 27 28  1  0  0  0  0
 28 29  1  0  0  0  0
 29 30  2  0  0  0  0
 29 24  1  0  0  0  0
 30 31  1  0  0  0  0
 32 30  1  0  0  0  0
 33 32  2  0  0  0  0
 34 33  1  0  0  0  0
 35 33  1  0  0  0  0
 35 28  2  0  0  0  0
 36 35  1  0  0  0  0
M  END
>  <minimizedAffinity>
-6.80004835

>  <minimizedRMSD>
0.780599594

$$$$
