
 OpenBabel03252509293D

 22 23  0  0  0  0  0  0  0  0999 V2000
   45.0690   33.8310   41.6980 C   0  0  0  0  0  0  0  0  0  0  0  0
   45.4280   34.6680   42.3570 H   0  0  0  0  0  0  0  0  0  0  0  0
   45.1290   32.8830   42.2710 H   0  0  0  0  0  0  0  0  0  0  0  0
   47.6280   35.2430   42.1610 Cl  0  0  0  0  0  0  0  0  0  0  0  0
   47.2380   34.4450   40.6400 C   0  0  0  0  0  0  0  0  0  0  0  0
   45.9960   33.8130   40.5480 C   0  0  0  0  0  0  0  0  0  0  0  0
   45.6900   33.1810   39.3380 C   0  0  0  0  0  0  0  0  0  0  0  0
   44.7180   32.6780   39.2470 H   0  0  0  0  0  0  0  0  0  0  0  0
   46.5560   33.1630   38.2610 C   0  0  0  0  0  3  0  0  0  0  0  0
   47.7950   33.8030   38.3720 C   0  0  0  0  0  0  0  0  0  0  0  0
   48.9200   33.8010   37.0240 Cl  0  0  0  0  0  0  0  0  0  0  0  0
   48.1200   34.4380   39.5680 C   0  0  0  0  0  0  0  0  0  0  0  0
   49.0890   34.9390   39.6620 H   0  0  0  0  0  0  0  0  0  0  0  0
   41.4460   33.2520   41.1370 C   0  0  0  0  0  0  0  0  0  0  0  0
   42.7890   33.0030   41.4700 C   0  0  0  0  0  0  0  0  0  0  0  0
   43.6770   34.0860   41.3540 C   0  0  0  0  0  0  0  0  0  0  0  0
   43.1840   35.2870   40.9340 N   0  0  0  0  0  0  0  0  0  0  0  0
   41.8780   35.4680   40.6280 C   0  0  0  0  0  0  0  0  0  0  0  0
   41.0110   34.4430   40.7320 N   0  0  0  0  0  0  0  0  0  0  0  0
   40.7730   32.3900   41.2360 H   0  0  0  0  0  0  0  0  0  0  0  0
   43.1440   32.0380   41.7990 H   0  0  0  0  0  0  0  0  0  0  0  0
   41.5940   36.4680   40.3030 H   0  0  0  0  0  0  0  0  0  0  0  0
  1  3  1  0  0  0  0
  1  2  1  0  0  0  0
  5  4  1  0  0  0  0
  6  5  1  0  0  0  0
  6  1  1  0  0  0  0
  7  6  2  0  0  0  0
  8  7  1  0  0  0  0
  9 10  2  0  0  0  0
  9  7  1  0  0  0  0
 10 12  1  0  0  0  0
 11 10  1  0  0  0  0
 12 13  1  0  0  0  0
 12  5  2  0  0  0  0
 14 20  1  0  0  0  0
 14 15  1  0  0  0  0
 15 21  1  0  0  0  0
 16 15  2  0  0  0  0
 16  1  1  0  0  0  0
 17 16  1  0  0  0  0
 18 19  1  0  0  0  0
 18 17  2  0  0  0  0
 19 14  2  0  0  0  0
 22 18  1  0  0  0  0
M  END
>  <minimizedAffinity>
-3.93936133

>  <minimizedRMSD>
4.77286386

$$$$
