
 OpenBabel03252506373D

 45 48  0  0  1  0  0  0  0  0999 V2000
   44.5250   35.3810   45.1820 C   0  0  0  0  0  0  0  0  0  0  0  0
   45.1950   35.4320   43.9530 C   0  0  0  0  0  0  0  0  0  0  0  0
   46.1490   34.5120   43.6820 C   0  0  0  0  0  0  0  0  0  0  0  0
   46.4000   33.5810   44.6340 N   0  0  0  0  0  0  0  0  0  0  0  0
   45.7640   33.5370   45.7950 C   0  0  0  0  0  0  0  0  0  0  0  0
   44.8210   34.4290   46.0880 N   0  0  0  0  0  0  0  0  0  0  0  0
   46.1130   32.5070   46.7350 N   0  0  0  0  0  0  0  0  0  0  0  0
   45.3640   32.1990   47.9020 C   0  0  0  0  0  0  0  0  0  0  0  0
   46.4360   31.8510   48.9190 C   0  0  0  0  0  0  0  0  0  0  0  0
   47.7310   31.8230   48.1700 C   0  0  0  0  0  0  0  0  0  0  0  0
   47.2650   31.6350   46.7260 C   0  0  1  0  0  0  0  0  0  0  0  0
   43.7740   36.1170   45.3780 H   0  0  0  0  0  0  0  0  0  0  0  0
   46.6810   34.5290   42.7450 H   0  0  0  0  0  0  0  0  0  0  0  0
   44.5490   31.5490   47.9490 H   0  0  0  0  0  0  0  0  0  0  0  0
   44.9750   33.1950   48.2890 H   0  0  0  0  0  0  0  0  0  0  0  0
   46.4140   32.4390   49.8310 H   0  0  0  0  0  0  0  0  0  0  0  0
   46.2420   30.7800   49.2240 H   0  0  0  0  0  0  0  0  0  0  0  0
   48.3720   30.9970   48.5140 H   0  0  0  0  0  0  0  0  0  0  0  0
   48.1970   32.8220   48.3030 H   0  0  0  0  0  0  0  0  0  0  0  0
   48.0740   31.9860   46.0440 H   0  0  0  0  0  0  0  0  0  0  0  0
   44.8230   36.4790   43.0390 N   0  0  0  0  0  0  0  0  0  0  0  0
   44.8120   37.4660   43.3500 H   0  0  0  0  0  0  0  0  0  0  0  0
   44.5960   36.0590   42.1160 H   0  0  0  0  0  0  0  0  0  0  0  0
   46.8130   29.9330   46.4810 S   0  0  0  0  0  0  0  0  0  0  0  0
   45.1720   30.5830   43.6500 O   0  0  0  0  0  0  0  0  0  0  0  0
   44.7650   29.9370   44.6290 C   0  0  0  0  0  0  0  0  0  0  0  0
   45.1600   29.6090   46.0220 C   0  0  1  0  0  0  0  0  0  0  0  0
   44.7240   28.1690   46.1340 C   0  0  0  0  0  0  0  0  0  0  0  0
   43.2780   28.3550   45.6660 C   0  0  0  0  0  0  0  0  0  0  0  0
   43.5170   29.2270   44.5220 N   0  0  0  0  0  0  0  0  0  0  0  0
   44.3380   30.1260   46.5850 H   0  0  0  0  0  0  0  0  0  0  0  0
   45.2580   27.5110   45.4180 H   0  0  0  0  0  0  0  0  0  0  0  0
   44.7650   27.8440   47.1750 H   0  0  0  0  0  0  0  0  0  0  0  0
   42.8110   27.4030   45.4090 H   0  0  0  0  0  0  0  0  0  0  0  0
   42.7200   28.8870   46.4630 H   0  0  0  0  0  0  0  0  0  0  0  0
   40.6200   29.5830   45.3680 Cl  0  0  0  0  0  0  0  0  0  0  0  0
   41.1610   29.3800   43.7160 C   0  0  0  0  0  0  0  0  0  0  0  0
   42.4950   29.2320   43.5030 C   0  0  0  0  0  0  0  0  0  0  0  0
   42.9240   29.0720   42.2020 C   0  0  0  0  0  0  0  0  0  0  0  0
   43.9910   28.9470   41.9610 H   0  0  0  0  0  0  0  0  0  0  0  0
   42.0890   29.0510   41.0900 C   0  0  0  0  0  3  0  0  0  0  0  0
   40.7180   29.2040   41.3260 C   0  0  0  0  0  0  0  0  0  0  0  0
   39.6040   29.1880   39.9770 Cl  0  0  0  0  0  0  0  0  0  0  0  0
   40.3100   29.3630   42.6300 C   0  0  0  0  0  0  0  0  0  0  0  0
   39.2360   29.4830   42.8080 H   0  0  0  0  0  0  0  0  0  0  0  0
  1 12  1  0  0  0  0
  1  6  1  0  0  0  0
  2  1  2  0  0  0  0
  3  2  1  0  0  0  0
  3  4  2  0  0  0  0
  4  5  1  0  0  0  0
  5  6  2  0  0  0  0
  5  7  1  0  0  0  0
  7  8  1  0  0  0  0
  8 14  1  0  0  0  0
  8 15  1  0  0  0  0
  8  9  1  0  0  0  0
  9 17  1  0  0  0  0
  9 16  1  0  0  0  0
 10 19  1  0  0  0  0
 10 18  1  0  0  0  0
 10  9  1  0  0  0  0
 11 20  1  6  0  0  0
 11  7  1  0  0  0  0
 11 10  1  0  0  0  0
 13  3  1  0  0  0  0
 21 22  1  0  0  0  0
 21  2  1  0  0  0  0
 23 21  1  0  0  0  0
 24 11  1  0  0  0  0
 25 26  2  0  0  0  0
 26 27  1  0  0  0  0
 27 28  1  0  0  0  0
 27 24  1  0  0  0  0
 27 31  1  1  0  0  0
 28 33  1  0  0  0  0
 29 28  1  0  0  0  0
 29 35  1  0  0  0  0
 30 26  1  0  0  0  0
 30 29  1  0  0  0  0
 32 28  1  0  0  0  0
 34 29  1  0  0  0  0
 37 36  1  0  0  0  0
 38 37  1  0  0  0  0
 38 30  1  0  0  0  0
 39 38  2  0  0  0  0
 40 39  1  0  0  0  0
 41 42  2  0  0  0  0
 41 39  1  0  0  0  0
 42 44  1  0  0  0  0
 43 42  1  0  0  0  0
 44 45  1  0  0  0  0
 44 37  2  0  0  0  0
M  END
>  <minimizedAffinity>
-5.68352461

>  <minimizedRMSD>
0.726775706

$$$$
