
 OpenBabel03252506053D

 44 48  0  0  0  0  0  0  0  0999 V2000
   44.8180   35.9520   43.1660 Cl  0  0  0  0  0  0  0  0  0  0  0  0
   45.5610   34.7200   44.1340 C   0  0  0  0  0  0  0  0  0  0  0  0
   46.6540   34.0220   43.6500 C   0  0  0  0  0  0  0  0  0  0  0  0
   47.1660   33.0620   44.5060 C   0  0  0  0  0  0  0  0  0  0  0  0
   46.6820   32.7680   45.7580 C   0  0  0  0  0  0  0  0  0  0  0  0
   45.5990   33.4830   46.2010 C   0  0  0  0  0  0  0  0  0  0  0  0
   45.0020   33.0880   47.7990 Cl  0  0  0  0  0  0  0  0  0  0  0  0
   45.0440   34.4470   45.4040 C   0  0  0  0  0  0  0  0  0  0  0  0
   48.0310   32.5170   44.1080 H   0  0  0  0  0  0  0  0  0  0  0  0
   44.1900   35.0030   45.7640 H   0  0  0  0  0  0  0  0  0  0  0  0
   47.3660   31.7200   46.5020 C   0  0  0  0  0  0  0  0  0  0  0  0
   47.4980   30.4250   46.0250 C   0  0  0  0  0  0  0  0  0  0  0  0
   48.1390   29.4110   46.7050 C   0  0  0  0  0  0  0  0  0  0  0  0
   48.6910   29.6810   47.9380 C   0  0  0  0  0  0  0  0  0  0  0  0
   49.3120   28.6840   48.5870 N   0  0  0  0  0  0  0  0  0  0  0  0
   49.8840   28.8650   49.8080 C   0  0  0  0  0  0  0  0  0  0  0  0
   49.7920   30.1320   50.3480 C   0  0  0  0  0  0  0  0  0  0  0  0
   49.1570   31.1520   49.6850 C   0  0  0  0  0  0  0  0  0  0  0  0
   48.5830   30.9470   48.4430 C   0  0  0  0  0  0  0  0  0  0  0  0
   47.9360   31.9510   47.7470 C   0  0  0  0  0  0  0  0  0  0  0  0
   47.0640   30.1930   45.0460 H   0  0  0  0  0  0  0  0  0  0  0  0
   48.2110   28.4120   46.2800 H   0  0  0  0  0  0  0  0  0  0  0  0
   50.3660   28.0170   50.2720 H   0  0  0  0  0  0  0  0  0  0  0  0
   50.2490   30.2850   51.3290 H   0  0  0  0  0  0  0  0  0  0  0  0
   49.1060   32.1240   50.1350 H   0  0  0  0  0  0  0  0  0  0  0  0
   47.8730   32.9320   48.1800 H   0  0  0  0  0  0  0  0  0  0  0  0
   48.6870   35.4820   41.0120 C   0  0  0  0  0  0  0  0  0  0  0  0
   48.2950   34.7680   39.8690 C   0  0  0  0  0  0  0  0  0  0  0  0
   47.3130   33.7680   40.0130 C   0  0  0  0  0  0  0  0  0  0  0  0
   46.8350   33.5880   41.2600 N   0  0  0  0  0  0  0  0  0  0  0  0
   47.2210   34.2780   42.3370 C   0  0  0  0  0  0  0  0  0  0  0  0
   48.1500   35.2300   42.2240 N   0  0  0  0  0  0  0  0  0  0  0  0
   49.4370   36.2370   40.8680 H   0  0  0  0  0  0  0  0  0  0  0  0
   48.7220   34.9730   38.9200 H   0  0  0  0  0  0  0  0  0  0  0  0
   49.0760   31.4960   39.3900 Cl  0  0  0  0  0  0  0  0  0  0  0  0
   47.5960   31.8860   38.5100 C   0  0  0  0  0  0  0  0  0  0  0  0
   46.8420   32.9770   38.8860 C   0  0  0  0  0  0  0  0  0  0  0  0
   45.7080   33.2370   38.1760 C   0  0  0  0  0  0  0  0  0  0  0  0
   45.0920   34.0830   38.4410 H   0  0  0  0  0  0  0  0  0  0  0  0
   45.3450   32.4110   37.1060 C   0  0  0  0  0  3  0  0  0  0  0  0
   46.1210   31.3340   36.7600 C   0  0  0  0  0  0  0  0  0  0  0  0
   45.6560   30.2990   35.4140 Cl  0  0  0  0  0  0  0  0  0  0  0  0
   47.2710   31.0560   37.4680 C   0  0  0  0  0  0  0  0  0  0  0  0
   47.8770   30.2100   37.1940 H   0  0  0  0  0  0  0  0  0  0  0  0
  1  2  1  0  0  0  0
  2  8  1  0  0  0  0
  3  2  2  0  0  0  0
  3  4  1  0  0  0  0
  4  5  2  0  0  0  0
  5  6  1  0  0  0  0
  5 11  1  0  0  0  0
  6  7  1  0  0  0  0
  8 10  1  0  0  0  0
  8  6  2  0  0  0  0
  9  4  1  0  0  0  0
 11 20  1  0  0  0  0
 12 11  2  0  0  0  0
 12 13  1  0  0  0  0
 13 14  2  0  0  0  0
 14 19  1  0  0  0  0
 14 15  1  0  0  0  0
 15 16  2  0  0  0  0
 16 23  1  0  0  0  0
 16 17  1  0  0  0  0
 17 24  1  0  0  0  0
 18 25  1  0  0  0  0
 18 17  2  0  0  0  0
 19 18  1  0  0  0  0
 20 26  1  0  0  0  0
 20 19  2  0  0  0  0
 21 12  1  0  0  0  0
 22 13  1  0  0  0  0
 27 32  1  0  0  0  0
 28 29  1  0  0  0  0
 28 27  2  0  0  0  0
 29 30  2  0  0  0  0
 30 31  1  0  0  0  0
 31  3  1  0  0  0  0
 32 31  2  0  0  0  0
 33 27  1  0  0  0  0
 34 28  1  0  0  0  0
 36 37  1  0  0  0  0
 36 35  1  0  0  0  0
 37 29  1  0  0  0  0
 38 39  1  0  0  0  0
 38 37  2  0  0  0  0
 40 38  1  0  0  0  0
 41 40  2  0  0  0  0
 41 43  1  0  0  0  0
 42 41  1  0  0  0  0
 43 36  2  0  0  0  0
 44 43  1  0  0  0  0
M  END
>  <minimizedAffinity>
-7.12410879

>  <minimizedRMSD>
0.672623336

$$$$
