
 OpenBabel03252506053D

 44 48  0  0  0  0  0  0  0  0999 V2000
   44.8630   35.9670   43.2010 Cl  0  0  0  0  0  0  0  0  0  0  0  0
   45.5990   34.7290   44.1670 C   0  0  0  0  0  0  0  0  0  0  0  0
   46.7190   34.0600   43.7040 C   0  0  0  0  0  0  0  0  0  0  0  0
   47.2220   33.0930   44.5580 C   0  0  0  0  0  0  0  0  0  0  0  0
   46.7060   32.7660   45.7880 C   0  0  0  0  0  0  0  0  0  0  0  0
   45.5970   33.4530   46.2110 C   0  0  0  0  0  0  0  0  0  0  0  0
   44.9590   33.0170   47.7820 Cl  0  0  0  0  0  0  0  0  0  0  0  0
   45.0480   34.4220   45.4160 C   0  0  0  0  0  0  0  0  0  0  0  0
   48.1090   32.5720   44.1760 H   0  0  0  0  0  0  0  0  0  0  0  0
   44.1740   34.9560   45.7600 H   0  0  0  0  0  0  0  0  0  0  0  0
   47.3860   31.7160   46.5330 C   0  0  0  0  0  0  0  0  0  0  0  0
   47.5070   30.4190   46.0600 C   0  0  0  0  0  0  0  0  0  0  0  0
   48.1450   29.4030   46.7420 C   0  0  0  0  0  0  0  0  0  0  0  0
   48.7040   29.6730   47.9700 C   0  0  0  0  0  0  0  0  0  0  0  0
   49.3220   28.6750   48.6210 N   0  0  0  0  0  0  0  0  0  0  0  0
   49.9000   28.8570   49.8380 C   0  0  0  0  0  0  0  0  0  0  0  0
   49.8200   30.1270   50.3730 C   0  0  0  0  0  0  0  0  0  0  0  0
   49.1890   31.1480   49.7090 C   0  0  0  0  0  0  0  0  0  0  0  0
   48.6070   30.9420   48.4710 C   0  0  0  0  0  0  0  0  0  0  0  0
   47.9640   31.9480   47.7750 C   0  0  0  0  0  0  0  0  0  0  0  0
   47.0670   30.1860   45.0840 H   0  0  0  0  0  0  0  0  0  0  0  0
   48.2080   28.4020   46.3190 H   0  0  0  0  0  0  0  0  0  0  0  0
   50.3790   28.0070   50.3030 H   0  0  0  0  0  0  0  0  0  0  0  0
   50.2820   30.2800   51.3510 H   0  0  0  0  0  0  0  0  0  0  0  0
   49.1460   32.1230   50.1560 H   0  0  0  0  0  0  0  0  0  0  0  0
   47.9100   32.9310   48.2040 H   0  0  0  0  0  0  0  0  0  0  0  0
   48.7640   35.6430   41.1470 C   0  0  0  0  0  0  0  0  0  0  0  0
   48.4590   34.9090   39.9910 C   0  0  0  0  0  0  0  0  0  0  0  0
   47.5340   33.8520   40.0970 C   0  0  0  0  0  0  0  0  0  0  0  0
   47.0190   33.6420   41.3230 N   0  0  0  0  0  0  0  0  0  0  0  0
   47.3210   34.3520   42.4150 C   0  0  0  0  0  0  0  0  0  0  0  0
   48.1950   35.3570   42.3370 N   0  0  0  0  0  0  0  0  0  0  0  0
   49.4720   36.4410   41.0330 H   0  0  0  0  0  0  0  0  0  0  0  0
   48.9110   35.1410   39.0590 H   0  0  0  0  0  0  0  0  0  0  0  0
   49.4290   31.6640   39.5710 Cl  0  0  0  0  0  0  0  0  0  0  0  0
   47.9770   31.9810   38.6180 C   0  0  0  0  0  0  0  0  0  0  0  0
   47.1560   33.0360   38.9530 C   0  0  0  0  0  0  0  0  0  0  0  0
   46.0460   33.2410   38.1860 C   0  0  0  0  0  0  0  0  0  0  0  0
   45.3790   34.0580   38.4180 H   0  0  0  0  0  0  0  0  0  0  0  0
   45.7750   32.3960   37.1050 C   0  0  0  0  0  3  0  0  0  0  0  0
   46.6160   31.3550   36.8020 C   0  0  0  0  0  0  0  0  0  0  0  0
   46.2650   30.2970   35.4400 Cl  0  0  0  0  0  0  0  0  0  0  0  0
   47.7420   31.1340   37.5660 C   0  0  0  0  0  0  0  0  0  0  0  0
   48.3990   30.3170   37.3250 H   0  0  0  0  0  0  0  0  0  0  0  0
  1  2  1  0  0  0  0
  2  8  1  0  0  0  0
  3  2  2  0  0  0  0
  3  4  1  0  0  0  0
  4  5  2  0  0  0  0
  5  6  1  0  0  0  0
  5 11  1  0  0  0  0
  6  7  1  0  0  0  0
  8 10  1  0  0  0  0
  8  6  2  0  0  0  0
  9  4  1  0  0  0  0
 11 20  1  0  0  0  0
 12 11  2  0  0  0  0
 12 13  1  0  0  0  0
 13 14  2  0  0  0  0
 14 19  1  0  0  0  0
 14 15  1  0  0  0  0
 15 16  2  0  0  0  0
 16 23  1  0  0  0  0
 16 17  1  0  0  0  0
 17 24  1  0  0  0  0
 18 25  1  0  0  0  0
 18 17  2  0  0  0  0
 19 18  1  0  0  0  0
 20 26  1  0  0  0  0
 20 19  2  0  0  0  0
 21 12  1  0  0  0  0
 22 13  1  0  0  0  0
 27 32  1  0  0  0  0
 28 29  1  0  0  0  0
 28 27  2  0  0  0  0
 29 30  2  0  0  0  0
 30 31  1  0  0  0  0
 31  3  1  0  0  0  0
 32 31  2  0  0  0  0
 33 27  1  0  0  0  0
 34 28  1  0  0  0  0
 36 37  1  0  0  0  0
 36 35  1  0  0  0  0
 37 29  1  0  0  0  0
 38 39  1  0  0  0  0
 38 37  2  0  0  0  0
 40 38  1  0  0  0  0
 41 40  2  0  0  0  0
 41 43  1  0  0  0  0
 42 41  1  0  0  0  0
 43 36  2  0  0  0  0
 44 43  1  0  0  0  0
M  END
>  <minimizedAffinity>
-7.09330654

>  <minimizedRMSD>
0.965341508

$$$$
