
 OpenBabel03242517493D

 44 47  0  0  0  0  0  0  0  0999 V2000
   36.8940   28.1510   42.3880 C   0  0  0  0  0  0  0  0  0  0  0  0
   37.4090   29.3880   41.9560 C   0  0  0  0  0  0  0  0  0  0  0  0
   38.7430   29.6660   42.2240 C   0  0  0  0  0  0  0  0  0  0  0  0
   39.4670   28.7410   42.8800 N   0  0  0  0  0  0  0  0  0  0  0  0
   38.9480   27.5630   43.2820 C   0  0  0  0  0  0  0  0  0  0  0  0
   37.6760   27.2360   43.0550 N   0  0  0  0  0  0  0  0  0  0  0  0
   35.8540   27.9810   42.1560 H   0  0  0  0  0  0  0  0  0  0  0  0
   39.1880   30.5920   41.9190 H   0  0  0  0  0  0  0  0  0  0  0  0
   39.8040   26.5810   44.0060 C   0  0  0  0  0  0  0  0  0  0  0  0
   39.6280   26.5880   45.0940 H   0  0  0  0  0  0  0  0  0  0  0  0
   40.8780   26.8510   43.8790 H   0  0  0  0  0  0  0  0  0  0  0  0
   39.6580   25.1740   43.4280 C   0  0  0  0  0  0  0  0  0  0  0  0
   40.1400   24.5030   44.1750 H   0  0  0  0  0  0  0  0  0  0  0  0
   38.5660   24.9480   43.4360 H   0  0  0  0  0  0  0  0  0  0  0  0
   37.7240   24.0200   41.4000 Cl  0  0  0  0  0  0  0  0  0  0  0  0
   39.3840   24.5430   41.1490 C   0  0  0  0  0  0  0  0  0  0  0  0
   40.2450   25.0660   42.0940 C   0  0  0  0  0  0  0  0  0  0  0  0
   41.5220   25.4260   41.7220 C   0  0  0  0  0  0  0  0  0  0  0  0
   42.1560   25.8310   42.4990 H   0  0  0  0  0  0  0  0  0  0  0  0
   41.9260   25.2550   40.3930 C   0  0  0  0  0  3  0  0  0  0  0  0
   41.0700   24.7310   39.4370 C   0  0  0  0  0  0  0  0  0  0  0  0
   41.6330   24.5370   37.7740 Cl  0  0  0  0  0  0  0  0  0  0  0  0
   39.7760   24.3710   39.8310 C   0  0  0  0  0  0  0  0  0  0  0  0
   39.1930   23.9740   39.0160 H   0  0  0  0  0  0  0  0  0  0  0  0
   36.3820   30.5500   41.0990 S   0  0  0  0  0  0  0  0  0  0  0  0
   36.4170   30.2470   39.3620 C   0  0  0  0  0  0  0  0  0  0  0  0
   35.6710   29.2490   38.7450 C   0  0  0  0  0  0  0  0  0  0  0  0
   35.7510   29.0680   37.3640 C   0  0  0  0  0  0  0  0  0  0  0  0
   36.5520   29.8570   36.6010 C   0  0  0  0  0  0  0  0  0  0  0  0
   37.2920   30.8510   37.2180 C   0  0  0  0  0  0  0  0  0  0  0  0
   37.2380   31.0590   38.5940 C   0  0  0  0  0  0  0  0  0  0  0  0
   35.0400   28.6230   39.3370 H   0  0  0  0  0  0  0  0  0  0  0  0
   35.1630   28.2850   36.9040 H   0  0  0  0  0  0  0  0  0  0  0  0
   36.6230   29.7280   35.5190 H   0  0  0  0  0  0  0  0  0  0  0  0
   37.9250   31.4690   36.5890 H   0  0  0  0  0  0  0  0  0  0  0  0
   38.0190   32.1040   39.2250 C   0  0  0  0  0  0  0  0  0  0  0  0
   37.5300   33.3390   39.5480 C   0  0  0  0  0  0  0  0  0  0  0  0
   38.2870   34.3330   40.1530 C   0  0  0  0  0  0  0  0  0  0  0  0
   39.5770   34.0630   40.4370 N   0  0  0  0  0  0  0  0  0  0  0  0
   40.0640   32.8430   40.1190 C   0  0  0  0  0  0  0  0  0  0  0  0
   39.3240   31.8740   39.5290 N   0  0  0  0  0  0  0  0  0  0  0  0
   36.4730   33.4650   39.2800 H   0  0  0  0  0  0  0  0  0  0  0  0
   37.7240   35.2290   40.3260 H   0  0  0  0  0  0  0  0  0  0  0  0
   41.1060   32.7130   40.3810 H   0  0  0  0  0  0  0  0  0  0  0  0
  1  6  1  0  0  0  0
  2  3  1  0  0  0  0
  2  1  2  0  0  0  0
  3  4  2  0  0  0  0
  4  5  1  0  0  0  0
  5  9  1  0  0  0  0
  6  5  2  0  0  0  0
  7  1  1  0  0  0  0
  8  3  1  0  0  0  0
  9 10  1  0  0  0  0
 11  9  1  0  0  0  0
 12 14  1  0  0  0  0
 12  9  1  0  0  0  0
 12 13  1  0  0  0  0
 16 15  1  0  0  0  0
 16 17  1  0  0  0  0
 17 12  1  0  0  0  0
 18 17  2  0  0  0  0
 18 19  1  0  0  0  0
 20 18  1  0  0  0  0
 21 23  1  0  0  0  0
 21 20  2  0  0  0  0
 22 21  1  0  0  0  0
 23 16  2  0  0  0  0
 24 23  1  0  0  0  0
 25  2  1  0  0  0  0
 26 25  1  0  0  0  0
 27 32  1  0  0  0  0
 27 26  1  0  0  0  0
 28 27  2  0  0  0  0
 29 30  2  0  0  0  0
 29 28  1  0  0  0  0
 30 31  1  0  0  0  0
 31 36  1  0  0  0  0
 31 26  2  0  0  0  0
 33 28  1  0  0  0  0
 34 29  1  0  0  0  0
 35 30  1  0  0  0  0
 36 41  2  0  0  0  0
 36 37  1  0  0  0  0
 37 38  2  0  0  0  0
 38 43  1  0  0  0  0
 38 39  1  0  0  0  0
 40 44  1  0  0  0  0
 40 39  2  0  0  0  0
 41 40  1  0  0  0  0
 42 37  1  0  0  0  0
M  END
>  <minimizedAffinity>
-6.49800825

$$$$

 OpenBabel03242517493D

 44 47  0  0  0  0  0  0  0  0999 V2000
   35.7350   28.4780   38.8210 C   0  0  0  0  0  0  0  0  0  0  0  0
   37.0520   28.4700   38.3210 C   0  0  0  0  0  0  0  0  0  0  0  0
   37.2270   28.6020   36.9500 C   0  0  0  0  0  0  0  0  0  0  0  0
   36.1330   28.7300   36.1780 N   0  0  0  0  0  0  0  0  0  0  0  0
   34.8830   28.7360   36.6830 C   0  0  0  0  0  0  0  0  0  0  0  0
   34.6470   28.6130   37.9890 N   0  0  0  0  0  0  0  0  0  0  0  0
   35.6510   28.3730   39.8910 H   0  0  0  0  0  0  0  0  0  0  0  0
   38.2060   28.6020   36.5150 H   0  0  0  0  0  0  0  0  0  0  0  0
   33.7130   28.8800   35.7720 C   0  0  0  0  0  0  0  0  0  0  0  0
   33.5700   28.0010   35.1230 H   0  0  0  0  0  0  0  0  0  0  0  0
   33.8790   29.7360   35.0770 H   0  0  0  0  0  0  0  0  0  0  0  0
   32.4360   29.2120   36.5440 C   0  0  0  0  0  0  0  0  0  0  0  0
   31.9410   28.2310   36.7210 H   0  0  0  0  0  0  0  0  0  0  0  0
   32.7660   29.6020   37.5350 H   0  0  0  0  0  0  0  0  0  0  0  0
   30.3140   30.4580   38.3130 Cl  0  0  0  0  0  0  0  0  0  0  0  0
   30.6140   30.7440   36.6040 C   0  0  0  0  0  0  0  0  0  0  0  0
   31.5910   30.1600   35.8200 C   0  0  0  0  0  0  0  0  0  0  0  0
   31.6850   30.5020   34.4890 C   0  0  0  0  0  0  0  0  0  0  0  0
   32.4660   30.0180   33.9190 H   0  0  0  0  0  0  0  0  0  0  0  0
   30.7890   31.4340   33.9530 C   0  0  0  0  0  3  0  0  0  0  0  0
   29.8050   32.0240   34.7300 C   0  0  0  0  0  0  0  0  0  0  0  0
   28.7010   33.1950   34.0000 Cl  0  0  0  0  0  0  0  0  0  0  0  0
   29.7230   31.6670   36.0810 C   0  0  0  0  0  0  0  0  0  0  0  0
   28.9280   32.1810   36.5950 H   0  0  0  0  0  0  0  0  0  0  0  0
   38.4360   28.2940   39.4130 S   0  0  0  0  0  0  0  0  0  0  0  0
   37.8910   27.9780   41.0600 C   0  0  0  0  0  0  0  0  0  0  0  0
   37.5620   26.7110   41.5270 C   0  0  0  0  0  0  0  0  0  0  0  0
   37.1380   26.5380   42.8450 C   0  0  0  0  0  0  0  0  0  0  0  0
   37.0380   27.5960   43.6910 C   0  0  0  0  0  0  0  0  0  0  0  0
   37.3680   28.8570   43.2250 C   0  0  0  0  0  0  0  0  0  0  0  0
   37.7940   29.0660   41.9150 C   0  0  0  0  0  0  0  0  0  0  0  0
   37.6370   25.8730   40.8690 H   0  0  0  0  0  0  0  0  0  0  0  0
   36.8860   25.5440   43.1870 H   0  0  0  0  0  0  0  0  0  0  0  0
   36.7090   27.4760   44.7250 H   0  0  0  0  0  0  0  0  0  0  0  0
   37.2810   29.6870   43.9170 H   0  0  0  0  0  0  0  0  0  0  0  0
   38.1350   30.3920   41.4410 C   0  0  0  0  0  0  0  0  0  0  0  0
   39.3640   30.9710   41.5990 C   0  0  0  0  0  0  0  0  0  0  0  0
   39.6810   32.2430   41.1400 C   0  0  0  0  0  0  0  0  0  0  0  0
   38.7210   32.9450   40.5050 N   0  0  0  0  0  0  0  0  0  0  0  0
   37.5050   32.3760   40.3470 C   0  0  0  0  0  0  0  0  0  0  0  0
   37.1970   31.1350   40.7950 N   0  0  0  0  0  0  0  0  0  0  0  0
   40.0780   30.3260   42.1250 H   0  0  0  0  0  0  0  0  0  0  0  0
   40.6930   32.5170   41.3600 H   0  0  0  0  0  0  0  0  0  0  0  0
   36.7980   33.0090   39.8280 H   0  0  0  0  0  0  0  0  0  0  0  0
  1  7  1  0  0  0  0
  2  1  1  0  0  0  0
  2 25  1  0  0  0  0
  3  2  2  0  0  0  0
  4  5  2  0  0  0  0
  4  3  1  0  0  0  0
  5  6  1  0  0  0  0
  6  1  2  0  0  0  0
  8  3  1  0  0  0  0
  9 12  1  0  0  0  0
  9  5  1  0  0  0  0
 10  9  1  0  0  0  0
 11  9  1  0  0  0  0
 12 13  1  0  0  0  0
 12 14  1  0  0  0  0
 16 15  1  0  0  0  0
 17 12  1  0  0  0  0
 17 16  2  0  0  0  0
 18 17  1  0  0  0  0
 19 18  1  0  0  0  0
 20 18  2  0  0  0  0
 20 21  1  0  0  0  0
 21 23  2  0  0  0  0
 22 21  1  0  0  0  0
 23 24  1  0  0  0  0
 23 16  1  0  0  0  0
 25 26  1  0  0  0  0
 26 27  2  0  0  0  0
 26 31  1  0  0  0  0
 27 28  1  0  0  0  0
 28 33  1  0  0  0  0
 28 29  2  0  0  0  0
 29 34  1  0  0  0  0
 30 29  1  0  0  0  0
 30 35  1  0  0  0  0
 31 30  2  0  0  0  0
 32 27  1  0  0  0  0
 36 37  1  0  0  0  0
 36 31  1  0  0  0  0
 37 42  1  0  0  0  0
 38 43  1  0  0  0  0
 38 37  2  0  0  0  0
 39 38  1  0  0  0  0
 40 39  2  0  0  0  0
 40 41  1  0  0  0  0
 41 36  2  0  0  0  0
 44 40  1  0  0  0  0
M  END
>  <minimizedAffinity>
-6.22972012

$$$$

 OpenBabel03242517493D

 44 47  0  0  0  0  0  0  0  0999 V2000
   41.2850   28.5370   39.8550 C   0  0  0  0  0  0  0  0  0  0  0  0
   40.6860   29.7950   40.0560 C   0  0  0  0  0  0  0  0  0  0  0  0
   40.3940   30.1750   41.3590 C   0  0  0  0  0  0  0  0  0  0  0  0
   40.6980   29.3230   42.3540 N   0  0  0  0  0  0  0  0  0  0  0  0
   41.2720   28.1230   42.1340 C   0  0  0  0  0  0  0  0  0  0  0  0
   41.5790   27.7000   40.9070 N   0  0  0  0  0  0  0  0  0  0  0  0
   41.4930   28.2870   38.8260 H   0  0  0  0  0  0  0  0  0  0  0  0
   39.9370   31.1210   41.5710 H   0  0  0  0  0  0  0  0  0  0  0  0
   41.5830   27.2240   43.2810 C   0  0  0  0  0  0  0  0  0  0  0  0
   42.3500   27.6430   43.9520 H   0  0  0  0  0  0  0  0  0  0  0  0
   42.0100   26.2660   42.9040 H   0  0  0  0  0  0  0  0  0  0  0  0
   40.3210   26.8410   44.0530 C   0  0  0  0  0  0  0  0  0  0  0  0
   40.6860   26.3070   44.9590 H   0  0  0  0  0  0  0  0  0  0  0  0
   39.8630   27.7990   44.3950 H   0  0  0  0  0  0  0  0  0  0  0  0
   37.6450   28.2020   43.6360 Cl  0  0  0  0  0  0  0  0  0  0  0  0
   38.1770   26.6370   43.0370 C   0  0  0  0  0  0  0  0  0  0  0  0
   39.4060   26.0390   43.2430 C   0  0  0  0  0  0  0  0  0  0  0  0
   39.6570   24.8000   42.6960 C   0  0  0  0  0  0  0  0  0  0  0  0
   40.6330   24.3750   42.8870 H   0  0  0  0  0  0  0  0  0  0  0  0
   38.6630   24.1660   41.9420 C   0  0  0  0  0  3  0  0  0  0  0  0
   37.4270   24.7560   41.7290 C   0  0  0  0  0  0  0  0  0  0  0  0
   36.2090   23.9110   40.7670 Cl  0  0  0  0  0  0  0  0  0  0  0  0
   37.1880   26.0170   42.2910 C   0  0  0  0  0  0  0  0  0  0  0  0
   36.2010   26.3860   42.0670 H   0  0  0  0  0  0  0  0  0  0  0  0
   40.3180   30.8550   38.6840 S   0  0  0  0  0  0  0  0  0  0  0  0
   39.6120   32.3710   39.2430 C   0  0  0  0  0  0  0  0  0  0  0  0
   40.3690   33.4830   39.5940 C   0  0  0  0  0  0  0  0  0  0  0  0
   39.7390   34.6490   40.0280 C   0  0  0  0  0  0  0  0  0  0  0  0
   38.3860   34.7220   40.1160 C   0  0  0  0  0  0  0  0  0  0  0  0
   37.6340   33.6140   39.7650 C   0  0  0  0  0  0  0  0  0  0  0  0
   38.2290   32.4330   39.3280 C   0  0  0  0  0  0  0  0  0  0  0  0
   41.4340   33.4350   39.5290 H   0  0  0  0  0  0  0  0  0  0  0  0
   40.3470   35.5020   40.2970 H   0  0  0  0  0  0  0  0  0  0  0  0
   37.8790   35.6290   40.4530 H   0  0  0  0  0  0  0  0  0  0  0  0
   36.5550   33.6940   39.8430 H   0  0  0  0  0  0  0  0  0  0  0  0
   37.4290   31.2810   38.9640 C   0  0  0  0  0  0  0  0  0  0  0  0
   36.8380   30.4410   39.8660 C   0  0  0  0  0  0  0  0  0  0  0  0
   36.0710   29.3400   39.5070 C   0  0  0  0  0  0  0  0  0  0  0  0
   35.9020   29.0870   38.1940 N   0  0  0  0  0  0  0  0  0  0  0  0
   36.4840   29.9160   37.2980 C   0  0  0  0  0  0  0  0  0  0  0  0
   37.2320   30.9890   37.6500 N   0  0  0  0  0  0  0  0  0  0  0  0
   37.0300   30.7270   40.9080 H   0  0  0  0  0  0  0  0  0  0  0  0
   35.6950   28.8080   40.3580 H   0  0  0  0  0  0  0  0  0  0  0  0
   36.2970   29.6380   36.2700 H   0  0  0  0  0  0  0  0  0  0  0  0
  1  2  2  0  0  0  0
  1  6  1  0  0  0  0
  2  3  1  0  0  0  0
  3  8  1  0  0  0  0
  3  4  2  0  0  0  0
  5  4  1  0  0  0  0
  5  9  1  0  0  0  0
  6  5  2  0  0  0  0
  7  1  1  0  0  0  0
  9 10  1  0  0  0  0
  9 12  1  0  0  0  0
 11  9  1  0  0  0  0
 12 14  1  0  0  0  0
 12 13  1  0  0  0  0
 16 17  1  0  0  0  0
 16 15  1  0  0  0  0
 17 12  1  0  0  0  0
 18 19  1  0  0  0  0
 18 17  2  0  0  0  0
 20 18  1  0  0  0  0
 21 20  2  0  0  0  0
 21 23  1  0  0  0  0
 22 21  1  0  0  0  0
 23 16  2  0  0  0  0
 24 23  1  0  0  0  0
 25 26  1  0  0  0  0
 25  2  1  0  0  0  0
 26 31  2  0  0  0  0
 26 27  1  0  0  0  0
 27 28  2  0  0  0  0
 28 29  1  0  0  0  0
 28 33  1  0  0  0  0
 29 34  1  0  0  0  0
 30 35  1  0  0  0  0
 30 29  2  0  0  0  0
 31 30  1  0  0  0  0
 32 27  1  0  0  0  0
 36 31  1  0  0  0  0
 36 37  1  0  0  0  0
 37 42  1  0  0  0  0
 38 37  2  0  0  0  0
 38 43  1  0  0  0  0
 39 38  1  0  0  0  0
 40 41  1  0  0  0  0
 40 39  2  0  0  0  0
 41 36  2  0  0  0  0
 44 40  1  0  0  0  0
M  END
>  <minimizedAffinity>
-6.20959377

$$$$

 OpenBabel03242517493D

 44 47  0  0  0  0  0  0  0  0999 V2000
   36.9780   30.7830   41.0550 C   0  0  0  0  0  0  0  0  0  0  0  0
   38.1220   31.6020   41.0130 C   0  0  0  0  0  0  0  0  0  0  0  0
   39.2440   31.1860   41.7190 C   0  0  0  0  0  0  0  0  0  0  0  0
   39.1760   30.0290   42.4010 N   0  0  0  0  0  0  0  0  0  0  0  0
   38.0660   29.2630   42.4230 C   0  0  0  0  0  0  0  0  0  0  0  0
   36.9570   29.6050   41.7670 N   0  0  0  0  0  0  0  0  0  0  0  0
   36.1330   31.1470   40.4920 H   0  0  0  0  0  0  0  0  0  0  0  0
   40.1430   31.7710   41.7240 H   0  0  0  0  0  0  0  0  0  0  0  0
   38.0550   27.9920   43.1990 C   0  0  0  0  0  0  0  0  0  0  0  0
   37.9760   28.1590   44.2860 H   0  0  0  0  0  0  0  0  0  0  0  0
   39.0190   27.4520   43.0530 H   0  0  0  0  0  0  0  0  0  0  0  0
   36.9660   27.0400   42.7050 C   0  0  0  0  0  0  0  0  0  0  0  0
   36.4190   26.7240   43.6220 H   0  0  0  0  0  0  0  0  0  0  0  0
   36.2650   27.6590   42.0970 H   0  0  0  0  0  0  0  0  0  0  0  0
   36.2230   27.1330   39.7680 Cl  0  0  0  0  0  0  0  0  0  0  0  0
   37.1980   25.9350   40.6090 C   0  0  0  0  0  0  0  0  0  0  0  0
   37.5210   25.9170   41.9520 C   0  0  0  0  0  0  0  0  0  0  0  0
   38.3020   24.8960   42.4470 C   0  0  0  0  0  0  0  0  0  0  0  0
   38.5270   24.9280   43.5050 H   0  0  0  0  0  0  0  0  0  0  0  0
   38.7530   23.8930   41.5820 C   0  0  0  0  0  3  0  0  0  0  0  0
   38.4340   23.9000   40.2330 C   0  0  0  0  0  0  0  0  0  0  0  0
   39.0310   22.6080   39.1870 Cl  0  0  0  0  0  0  0  0  0  0  0  0
   37.6410   24.9460   39.7450 C   0  0  0  0  0  0  0  0  0  0  0  0
   37.4500   24.8590   38.6880 H   0  0  0  0  0  0  0  0  0  0  0  0
   38.1240   33.1140   40.0900 S   0  0  0  0  0  0  0  0  0  0  0  0
   39.6880   33.3670   39.3160 C   0  0  0  0  0  0  0  0  0  0  0  0
   40.5620   34.3880   39.6740 C   0  0  0  0  0  0  0  0  0  0  0  0
   41.7840   34.5250   39.0150 C   0  0  0  0  0  0  0  0  0  0  0  0
   42.1420   33.6720   38.0210 C   0  0  0  0  0  0  0  0  0  0  0  0
   41.2710   32.6560   37.6670 C   0  0  0  0  0  0  0  0  0  0  0  0
   40.0420   32.4890   38.3030 C   0  0  0  0  0  0  0  0  0  0  0  0
   40.2880   35.0630   40.4540 H   0  0  0  0  0  0  0  0  0  0  0  0
   42.4480   35.3270   39.3090 H   0  0  0  0  0  0  0  0  0  0  0  0
   43.0960   33.7670   37.4980 H   0  0  0  0  0  0  0  0  0  0  0  0
   41.5770   31.9870   36.8710 H   0  0  0  0  0  0  0  0  0  0  0  0
   39.1410   31.4210   37.9210 C   0  0  0  0  0  0  0  0  0  0  0  0
   37.9750   31.6090   37.2330 C   0  0  0  0  0  0  0  0  0  0  0  0
   37.1180   30.5780   36.8720 C   0  0  0  0  0  0  0  0  0  0  0  0
   37.4580   29.3200   37.2200 N   0  0  0  0  0  0  0  0  0  0  0  0
   38.6100   29.1300   37.9000 C   0  0  0  0  0  0  0  0  0  0  0  0
   39.4450   30.1370   38.2520 N   0  0  0  0  0  0  0  0  0  0  0  0
   37.7830   32.6630   36.9940 H   0  0  0  0  0  0  0  0  0  0  0  0
   36.2570   30.9290   36.3380 H   0  0  0  0  0  0  0  0  0  0  0  0
   38.8030   28.0930   38.1380 H   0  0  0  0  0  0  0  0  0  0  0  0
  1  6  1  0  0  0  0
  2  1  2  0  0  0  0
  2  3  1  0  0  0  0
  3  8  1  0  0  0  0
  3  4  2  0  0  0  0
  4  5  1  0  0  0  0
  5  9  1  0  0  0  0
  6  5  2  0  0  0  0
  7  1  1  0  0  0  0
  9 10  1  0  0  0  0
 11  9  1  0  0  0  0
 12  9  1  0  0  0  0
 12 13  1  0  0  0  0
 14 12  1  0  0  0  0
 15 16  1  0  0  0  0
 16 17  1  0  0  0  0
 17 18  2  0  0  0  0
 17 12  1  0  0  0  0
 18 19  1  0  0  0  0
 20 18  1  0  0  0  0
 21 20  2  0  0  0  0
 22 21  1  0  0  0  0
 23 21  1  0  0  0  0
 23 16  2  0  0  0  0
 24 23  1  0  0  0  0
 25  2  1  0  0  0  0
 26 27  1  0  0  0  0
 26 25  1  0  0  0  0
 27 32  1  0  0  0  0
 28 33  1  0  0  0  0
 28 27  2  0  0  0  0
 29 28  1  0  0  0  0
 30 29  2  0  0  0  0
 30 31  1  0  0  0  0
 31 26  2  0  0  0  0
 34 29  1  0  0  0  0
 35 30  1  0  0  0  0
 36 41  1  0  0  0  0
 36 31  1  0  0  0  0
 37 36  2  0  0  0  0
 38 39  2  0  0  0  0
 38 37  1  0  0  0  0
 39 40  1  0  0  0  0
 40 44  1  0  0  0  0
 40 41  2  0  0  0  0
 42 37  1  0  0  0  0
 43 38  1  0  0  0  0
M  END
>  <minimizedAffinity>
-6.06654406

$$$$

 OpenBabel03242517493D

 44 47  0  0  0  0  0  0  0  0999 V2000
   41.3550   29.2530   42.1210 C   0  0  0  0  0  0  0  0  0  0  0  0
   40.7830   30.5320   41.9820 C   0  0  0  0  0  0  0  0  0  0  0  0
   39.4690   30.7040   42.3960 C   0  0  0  0  0  0  0  0  0  0  0  0
   38.8180   29.6440   42.9070 N   0  0  0  0  0  0  0  0  0  0  0  0
   39.3900   28.4300   43.0300 C   0  0  0  0  0  0  0  0  0  0  0  0
   40.6470   28.1980   42.6510 N   0  0  0  0  0  0  0  0  0  0  0  0
   42.3770   29.1680   41.7860 H   0  0  0  0  0  0  0  0  0  0  0  0
   38.9830   31.6560   42.3130 H   0  0  0  0  0  0  0  0  0  0  0  0
   38.6120   27.2950   43.6020 C   0  0  0  0  0  0  0  0  0  0  0  0
   38.6410   27.2750   44.7040 H   0  0  0  0  0  0  0  0  0  0  0  0
   39.0620   26.3280   43.2780 H   0  0  0  0  0  0  0  0  0  0  0  0
   37.1740   27.2800   43.0840 C   0  0  0  0  0  0  0  0  0  0  0  0
   36.5440   27.1050   43.9850 H   0  0  0  0  0  0  0  0  0  0  0  0
   36.9630   28.3150   42.7270 H   0  0  0  0  0  0  0  0  0  0  0  0
   36.8140   28.5110   40.3390 Cl  0  0  0  0  0  0  0  0  0  0  0  0
   36.8120   26.8090   40.7790 C   0  0  0  0  0  0  0  0  0  0  0  0
   36.9790   26.2740   42.0420 C   0  0  0  0  0  0  0  0  0  0  0  0
   36.9500   24.9070   42.2080 C   0  0  0  0  0  0  0  0  0  0  0  0
   37.0860   24.5390   43.2160 H   0  0  0  0  0  0  0  0  0  0  0  0
   36.7510   24.0820   41.0950 C   0  0  0  0  0  3  0  0  0  0  0  0
   36.5820   24.6080   39.8240 C   0  0  0  0  0  0  0  0  0  0  0  0
   36.3350   23.5190   38.4540 Cl  0  0  0  0  0  0  0  0  0  0  0  0
   36.6150   25.9990   39.6720 C   0  0  0  0  0  0  0  0  0  0  0  0
   36.4740   26.3050   38.6480 H   0  0  0  0  0  0  0  0  0  0  0  0
   41.7160   31.8730   41.2960 S   0  0  0  0  0  0  0  0  0  0  0  0
   42.0620   31.5810   39.5920 C   0  0  0  0  0  0  0  0  0  0  0  0
   43.2050   30.9280   39.1450 C   0  0  0  0  0  0  0  0  0  0  0  0
   43.4100   30.7330   37.7790 C   0  0  0  0  0  0  0  0  0  0  0  0
   42.5050   31.1720   36.8650 C   0  0  0  0  0  0  0  0  0  0  0  0
   41.3670   31.8200   37.3130 C   0  0  0  0  0  0  0  0  0  0  0  0
   41.1300   32.0330   38.6700 C   0  0  0  0  0  0  0  0  0  0  0  0
   43.9230   30.5800   39.8550 H   0  0  0  0  0  0  0  0  0  0  0  0
   44.3070   30.2240   37.4520 H   0  0  0  0  0  0  0  0  0  0  0  0
   42.6520   31.0250   35.7940 H   0  0  0  0  0  0  0  0  0  0  0  0
   40.6580   32.1620   36.5670 H   0  0  0  0  0  0  0  0  0  0  0  0
   39.9330   32.7130   39.1220 C   0  0  0  0  0  0  0  0  0  0  0  0
   38.6790   32.1710   39.0770 C   0  0  0  0  0  0  0  0  0  0  0  0
   37.5380   32.8320   39.5150 C   0  0  0  0  0  0  0  0  0  0  0  0
   37.6780   34.0770   40.0110 N   0  0  0  0  0  0  0  0  0  0  0  0
   38.9170   34.6160   40.0580 C   0  0  0  0  0  0  0  0  0  0  0  0
   40.0290   33.9710   39.6310 N   0  0  0  0  0  0  0  0  0  0  0  0
   38.6640   31.1570   38.6590 H   0  0  0  0  0  0  0  0  0  0  0  0
   36.6520   32.2400   39.3960 H   0  0  0  0  0  0  0  0  0  0  0  0
   38.9360   35.6160   40.4700 H   0  0  0  0  0  0  0  0  0  0  0  0
  1  6  1  0  0  0  0
  2  1  2  0  0  0  0
  2  3  1  0  0  0  0
  3  4  2  0  0  0  0
  4  5  1  0  0  0  0
  5  9  1  0  0  0  0
  6  5  2  0  0  0  0
  7  1  1  0  0  0  0
  8  3  1  0  0  0  0
  9 10  1  0  0  0  0
 11  9  1  0  0  0  0
 12  9  1  0  0  0  0
 12 13  1  0  0  0  0
 14 12  1  0  0  0  0
 15 16  1  0  0  0  0
 16 17  1  0  0  0  0
 17 18  2  0  0  0  0
 17 12  1  0  0  0  0
 18 19  1  0  0  0  0
 20 18  1  0  0  0  0
 21 20  2  0  0  0  0
 22 21  1  0  0  0  0
 23 21  1  0  0  0  0
 23 16  2  0  0  0  0
 24 23  1  0  0  0  0
 25  2  1  0  0  0  0
 26 25  1  0  0  0  0
 27 26  1  0  0  0  0
 27 32  1  0  0  0  0
 28 27  2  0  0  0  0
 29 30  2  0  0  0  0
 29 28  1  0  0  0  0
 30 31  1  0  0  0  0
 31 36  1  0  0  0  0
 31 26  2  0  0  0  0
 33 28  1  0  0  0  0
 34 29  1  0  0  0  0
 35 30  1  0  0  0  0
 36 41  1  0  0  0  0
 37 36  2  0  0  0  0
 37 38  1  0  0  0  0
 38 39  2  0  0  0  0
 39 40  1  0  0  0  0
 40 44  1  0  0  0  0
 41 40  2  0  0  0  0
 42 37  1  0  0  0  0
 43 38  1  0  0  0  0
M  END
>  <minimizedAffinity>
-6.03946829

$$$$

 OpenBabel03242517493D

 44 47  0  0  0  0  0  0  0  0999 V2000
   40.4780   30.2050   41.3460 C   0  0  0  0  0  0  0  0  0  0  0  0
   40.8170   29.8620   40.0240 C   0  0  0  0  0  0  0  0  0  0  0  0
   41.4160   28.6280   39.8060 C   0  0  0  0  0  0  0  0  0  0  0  0
   41.6390   27.8320   40.8660 N   0  0  0  0  0  0  0  0  0  0  0  0
   41.3030   28.1850   42.1240 C   0  0  0  0  0  0  0  0  0  0  0  0
   40.7250   29.3550   42.4000 N   0  0  0  0  0  0  0  0  0  0  0  0
   40.0150   31.1720   41.4650 H   0  0  0  0  0  0  0  0  0  0  0  0
   41.6960   28.3150   38.8200 H   0  0  0  0  0  0  0  0  0  0  0  0
   41.5790   27.2580   43.2560 C   0  0  0  0  0  0  0  0  0  0  0  0
   42.3500   27.6430   43.9420 H   0  0  0  0  0  0  0  0  0  0  0  0
   41.9860   26.2960   42.8660 H   0  0  0  0  0  0  0  0  0  0  0  0
   40.3000   26.8930   44.0090 C   0  0  0  0  0  0  0  0  0  0  0  0
   40.6450   26.3740   44.9320 H   0  0  0  0  0  0  0  0  0  0  0  0
   39.8390   27.8590   44.3230 H   0  0  0  0  0  0  0  0  0  0  0  0
   37.5990   28.2060   43.6020 Cl  0  0  0  0  0  0  0  0  0  0  0  0
   38.1600   26.6550   42.9940 C   0  0  0  0  0  0  0  0  0  0  0  0
   39.3990   26.0790   43.1950 C   0  0  0  0  0  0  0  0  0  0  0  0
   39.6730   24.8480   42.6410 C   0  0  0  0  0  0  0  0  0  0  0  0
   40.6570   24.4400   42.8280 H   0  0  0  0  0  0  0  0  0  0  0  0
   38.6900   24.2000   41.8840 C   0  0  0  0  0  3  0  0  0  0  0  0
   37.4430   24.7690   41.6750 C   0  0  0  0  0  0  0  0  0  0  0  0
   36.2400   23.9070   40.7100 Cl  0  0  0  0  0  0  0  0  0  0  0  0
   37.1810   26.0210   42.2450 C   0  0  0  0  0  0  0  0  0  0  0  0
   36.1870   26.3730   42.0240 H   0  0  0  0  0  0  0  0  0  0  0  0
   40.4880   30.9750   38.6840 S   0  0  0  0  0  0  0  0  0  0  0  0
   39.6270   32.4020   39.2610 C   0  0  0  0  0  0  0  0  0  0  0  0
   38.2530   32.4320   39.4710 C   0  0  0  0  0  0  0  0  0  0  0  0
   37.6410   33.5990   39.9300 C   0  0  0  0  0  0  0  0  0  0  0  0
   38.3680   34.7190   40.1770 C   0  0  0  0  0  0  0  0  0  0  0  0
   39.7370   34.6860   39.9680 C   0  0  0  0  0  0  0  0  0  0  0  0
   40.3810   33.5390   39.5100 C   0  0  0  0  0  0  0  0  0  0  0  0
   37.6730   31.5560   39.2790 H   0  0  0  0  0  0  0  0  0  0  0  0
   36.5710   33.6010   40.0860 H   0  0  0  0  0  0  0  0  0  0  0  0
   37.9030   35.6390   40.5370 H   0  0  0  0  0  0  0  0  0  0  0  0
   40.2970   35.5920   40.1720 H   0  0  0  0  0  0  0  0  0  0  0  0
   41.8140   33.5200   39.2960 C   0  0  0  0  0  0  0  0  0  0  0  0
   42.7300   33.2170   40.2640 C   0  0  0  0  0  0  0  0  0  0  0  0
   44.1020   33.2010   40.0480 C   0  0  0  0  0  0  0  0  0  0  0  0
   44.5530   33.5020   38.8130 N   0  0  0  0  0  0  0  0  0  0  0  0
   43.6490   33.8010   37.8540 C   0  0  0  0  0  0  0  0  0  0  0  0
   42.3110   33.8170   38.0660 N   0  0  0  0  0  0  0  0  0  0  0  0
   42.2710   32.9860   41.2330 H   0  0  0  0  0  0  0  0  0  0  0  0
   44.6530   32.9400   40.9300 H   0  0  0  0  0  0  0  0  0  0  0  0
   44.0980   34.0300   36.8960 H   0  0  0  0  0  0  0  0  0  0  0  0
  1  7  1  0  0  0  0
  1  6  1  0  0  0  0
  2  1  2  0  0  0  0
  3  2  1  0  0  0  0
  3  4  2  0  0  0  0
  4  5  1  0  0  0  0
  5  6  2  0  0  0  0
  5  9  1  0  0  0  0
  8  3  1  0  0  0  0
  9 10  1  0  0  0  0
  9 12  1  0  0  0  0
 11  9  1  0  0  0  0
 12 14  1  0  0  0  0
 12 13  1  0  0  0  0
 16 17  1  0  0  0  0
 16 15  1  0  0  0  0
 17 12  1  0  0  0  0
 18 19  1  0  0  0  0
 18 17  2  0  0  0  0
 20 18  1  0  0  0  0
 21 20  2  0  0  0  0
 21 23  1  0  0  0  0
 22 21  1  0  0  0  0
 23 16  2  0  0  0  0
 24 23  1  0  0  0  0
 25 26  1  0  0  0  0
 25  2  1  0  0  0  0
 26 27  2  0  0  0  0
 26 31  1  0  0  0  0
 27 28  1  0  0  0  0
 28 33  1  0  0  0  0
 28 29  2  0  0  0  0
 29 34  1  0  0  0  0
 30 35  1  0  0  0  0
 30 29  1  0  0  0  0
 31 30  2  0  0  0  0
 32 27  1  0  0  0  0
 36 31  1  0  0  0  0
 36 37  1  0  0  0  0
 37 42  1  0  0  0  0
 38 37  2  0  0  0  0
 38 43  1  0  0  0  0
 39 38  1  0  0  0  0
 40 41  1  0  0  0  0
 40 39  2  0  0  0  0
 41 36  2  0  0  0  0
 44 40  1  0  0  0  0
M  END
>  <minimizedAffinity>
-6.01138067

$$$$

 OpenBabel03242517493D

 44 47  0  0  0  0  0  0  0  0999 V2000
   39.2920   31.2610   40.9290 C   0  0  0  0  0  0  0  0  0  0  0  0
   38.0340   31.8390   40.6740 C   0  0  0  0  0  0  0  0  0  0  0  0
   38.0040   33.1200   40.1380 C   0  0  0  0  0  0  0  0  0  0  0  0
   39.1750   33.7350   39.8930 N   0  0  0  0  0  0  0  0  0  0  0  0
   40.3660   33.1580   40.1460 C   0  0  0  0  0  0  0  0  0  0  0  0
   40.4640   31.9310   40.6590 N   0  0  0  0  0  0  0  0  0  0  0  0
   39.2630   30.2660   41.3440 H   0  0  0  0  0  0  0  0  0  0  0  0
   37.0750   33.6100   39.9250 H   0  0  0  0  0  0  0  0  0  0  0  0
   41.6280   33.8940   39.8530 C   0  0  0  0  0  0  0  0  0  0  0  0
   42.5130   33.4120   40.2970 H   0  0  0  0  0  0  0  0  0  0  0  0
   41.5860   34.9110   40.3090 H   0  0  0  0  0  0  0  0  0  0  0  0
   41.8130   34.1190   38.3530 C   0  0  0  0  0  0  0  0  0  0  0  0
   40.7950   34.3520   37.9670 H   0  0  0  0  0  0  0  0  0  0  0  0
   42.4270   35.0450   38.2520 H   0  0  0  0  0  0  0  0  0  0  0  0
   44.8410   34.2110   38.4340 Cl  0  0  0  0  0  0  0  0  0  0  0  0
   43.8060   32.9810   37.7210 C   0  0  0  0  0  0  0  0  0  0  0  0
   42.4250   32.9640   37.6980 C   0  0  0  0  0  0  0  0  0  0  0  0
   41.7700   31.9150   37.0930 C   0  0  0  0  0  0  0  0  0  0  0  0
   40.6890   31.9490   37.1020 H   0  0  0  0  0  0  0  0  0  0  0  0
   42.5140   30.8830   36.5090 C   0  0  0  0  0  3  0  0  0  0  0  0
   43.9000   30.8900   36.5260 C   0  0  0  0  0  0  0  0  0  0  0  0
   44.7890   29.5610   35.7740 Cl  0  0  0  0  0  0  0  0  0  0  0  0
   44.5510   31.9630   37.1460 C   0  0  0  0  0  0  0  0  0  0  0  0
   45.6240   31.8740   37.1040 H   0  0  0  0  0  0  0  0  0  0  0  0
   36.5390   30.9560   41.0300 S   0  0  0  0  0  0  0  0  0  0  0  0
   36.9010   29.3100   41.5510 C   0  0  0  0  0  0  0  0  0  0  0  0
   37.3000   28.9880   42.8430 C   0  0  0  0  0  0  0  0  0  0  0  0
   37.5690   27.6620   43.1820 C   0  0  0  0  0  0  0  0  0  0  0  0
   37.4470   26.6670   42.2650 C   0  0  0  0  0  0  0  0  0  0  0  0
   37.0480   26.9910   40.9790 C   0  0  0  0  0  0  0  0  0  0  0  0
   36.7720   28.3040   40.6060 C   0  0  0  0  0  0  0  0  0  0  0  0
   37.3990   29.7630   43.5710 H   0  0  0  0  0  0  0  0  0  0  0  0
   37.8790   27.4330   44.1930 H   0  0  0  0  0  0  0  0  0  0  0  0
   37.6530   25.6250   42.5160 H   0  0  0  0  0  0  0  0  0  0  0  0
   36.9580   26.1810   40.2630 H   0  0  0  0  0  0  0  0  0  0  0  0
   36.3560   28.6260   39.2560 C   0  0  0  0  0  0  0  0  0  0  0  0
   35.0530   28.6570   38.8410 C   0  0  0  0  0  0  0  0  0  0  0  0
   34.6640   28.9680   37.5450 C   0  0  0  0  0  0  0  0  0  0  0  0
   35.6270   29.2560   36.6460 N   0  0  0  0  0  0  0  0  0  0  0  0
   36.9160   29.2270   37.0520 C   0  0  0  0  0  0  0  0  0  0  0  0
   37.2940   28.9230   38.3170 N   0  0  0  0  0  0  0  0  0  0  0  0
   34.3430   28.4100   39.6400 H   0  0  0  0  0  0  0  0  0  0  0  0
   33.6000   28.9390   37.4180 H   0  0  0  0  0  0  0  0  0  0  0  0
   37.6200   29.4700   36.2680 H   0  0  0  0  0  0  0  0  0  0  0  0
  1  7  1  0  0  0  0
  2  1  1  0  0  0  0
  2 25  1  0  0  0  0
  3  2  2  0  0  0  0
  4  3  1  0  0  0  0
  4  5  2  0  0  0  0
  5  6  1  0  0  0  0
  6  1  2  0  0  0  0
  8  3  1  0  0  0  0
  9  5  1  0  0  0  0
  9 10  1  0  0  0  0
  9 11  1  0  0  0  0
 12  9  1  0  0  0  0
 13 12  1  0  0  0  0
 14 12  1  0  0  0  0
 16 15  1  0  0  0  0
 17 16  1  0  0  0  0
 17 12  1  0  0  0  0
 18 19  1  0  0  0  0
 18 17  2  0  0  0  0
 20 21  2  0  0  0  0
 20 18  1  0  0  0  0
 21 23  1  0  0  0  0
 22 21  1  0  0  0  0
 23 16  2  0  0  0  0
 24 23  1  0  0  0  0
 25 26  1  0  0  0  0
 26 27  1  0  0  0  0
 27 28  2  0  0  0  0
 27 32  1  0  0  0  0
 28 33  1  0  0  0  0
 29 34  1  0  0  0  0
 29 28  1  0  0  0  0
 30 29  2  0  0  0  0
 31 30  1  0  0  0  0
 31 26  2  0  0  0  0
 35 30  1  0  0  0  0
 36 31  1  0  0  0  0
 37 36  1  0  0  0  0
 37 42  1  0  0  0  0
 38 37  2  0  0  0  0
 39 40  2  0  0  0  0
 39 38  1  0  0  0  0
 40 41  1  0  0  0  0
 41 36  2  0  0  0  0
 43 38  1  0  0  0  0
 44 40  1  0  0  0  0
M  END
>  <minimizedAffinity>
-5.99930096

$$$$

 OpenBabel03242517493D

 44 47  0  0  0  0  0  0  0  0999 V2000
   36.9230   27.8420   41.6940 C   0  0  0  0  0  0  0  0  0  0  0  0
   37.1430   29.2300   41.7840 C   0  0  0  0  0  0  0  0  0  0  0  0
   38.1730   29.6730   42.6030 C   0  0  0  0  0  0  0  0  0  0  0  0
   38.9020   28.7560   43.2630 N   0  0  0  0  0  0  0  0  0  0  0  0
   38.6700   27.4310   43.1590 C   0  0  0  0  0  0  0  0  0  0  0  0
   37.6980   26.9410   42.3890 N   0  0  0  0  0  0  0  0  0  0  0  0
   36.1130   27.5470   41.0460 H   0  0  0  0  0  0  0  0  0  0  0  0
   38.3850   30.7180   42.7100 H   0  0  0  0  0  0  0  0  0  0  0  0
   39.5130   26.4660   43.9180 C   0  0  0  0  0  0  0  0  0  0  0  0
   39.4250   25.4350   43.5380 H   0  0  0  0  0  0  0  0  0  0  0  0
   39.1720   26.4200   44.9790 H   0  0  0  0  0  0  0  0  0  0  0  0
   40.9740   26.9140   43.9700 C   0  0  0  0  0  0  0  0  0  0  0  0
   40.9360   28.0020   44.2040 H   0  0  0  0  0  0  0  0  0  0  0  0
   41.4240   26.4000   44.8520 H   0  0  0  0  0  0  0  0  0  0  0  0
   42.3540   29.3520   42.8140 Cl  0  0  0  0  0  0  0  0  0  0  0  0
   42.3200   27.7140   42.1760 C   0  0  0  0  0  0  0  0  0  0  0  0
   41.6810   26.6180   42.7250 C   0  0  0  0  0  0  0  0  0  0  0  0
   41.7590   25.3990   42.0890 C   0  0  0  0  0  0  0  0  0  0  0  0
   41.2420   24.5740   42.5590 H   0  0  0  0  0  0  0  0  0  0  0  0
   42.4820   25.2910   40.8960 C   0  0  0  0  0  3  0  0  0  0  0  0
   43.1260   26.3830   40.3360 C   0  0  0  0  0  0  0  0  0  0  0  0
   44.0260   26.1880   38.8280 Cl  0  0  0  0  0  0  0  0  0  0  0  0
   43.0390   27.6150   40.9960 C   0  0  0  0  0  0  0  0  0  0  0  0
   43.5720   28.3970   40.4810 H   0  0  0  0  0  0  0  0  0  0  0  0
   36.1310   30.3700   40.8790 S   0  0  0  0  0  0  0  0  0  0  0  0
   36.3190   30.1220   39.1430 C   0  0  0  0  0  0  0  0  0  0  0  0
   35.6240   29.1520   38.4300 C   0  0  0  0  0  0  0  0  0  0  0  0
   35.8240   29.0160   37.0560 C   0  0  0  0  0  0  0  0  0  0  0  0
   36.6950   29.8200   36.3930 C   0  0  0  0  0  0  0  0  0  0  0  0
   37.3850   30.7870   37.1060 C   0  0  0  0  0  0  0  0  0  0  0  0
   37.2100   30.9500   38.4780 C   0  0  0  0  0  0  0  0  0  0  0  0
   34.9380   28.5140   38.9430 H   0  0  0  0  0  0  0  0  0  0  0  0
   35.2740   28.2540   36.5210 H   0  0  0  0  0  0  0  0  0  0  0  0
   36.8610   29.7250   35.3190 H   0  0  0  0  0  0  0  0  0  0  0  0
   38.0750   31.4180   36.5570 H   0  0  0  0  0  0  0  0  0  0  0  0
   37.9400   31.9660   39.2100 C   0  0  0  0  0  0  0  0  0  0  0  0
   37.4770   33.2330   39.4310 C   0  0  0  0  0  0  0  0  0  0  0  0
   38.1840   34.2000   40.1350 C   0  0  0  0  0  0  0  0  0  0  0  0
   39.3950   33.8680   40.6250 N   0  0  0  0  0  0  0  0  0  0  0  0
   39.8560   32.6150   40.4080 C   0  0  0  0  0  0  0  0  0  0  0  0
   39.1650   31.6740   39.7220 N   0  0  0  0  0  0  0  0  0  0  0  0
   36.4850   33.4110   38.9970 H   0  0  0  0  0  0  0  0  0  0  0  0
   37.6530   35.1290   40.2010 H   0  0  0  0  0  0  0  0  0  0  0  0
   40.8330   32.4360   40.8350 H   0  0  0  0  0  0  0  0  0  0  0  0
  1  2  2  0  0  0  0
  1  6  1  0  0  0  0
  2  3  1  0  0  0  0
  3  8  1  0  0  0  0
  3  4  2  0  0  0  0
  5  4  1  0  0  0  0
  5  9  1  0  0  0  0
  6  5  2  0  0  0  0
  7  1  1  0  0  0  0
  9 12  1  0  0  0  0
  9 11  1  0  0  0  0
 10  9  1  0  0  0  0
 12 13  1  0  0  0  0
 12 14  1  0  0  0  0
 16 17  1  0  0  0  0
 16 15  1  0  0  0  0
 17 12  1  0  0  0  0
 18 19  1  0  0  0  0
 18 17  2  0  0  0  0
 20 18  1  0  0  0  0
 21 20  2  0  0  0  0
 21 23  1  0  0  0  0
 22 21  1  0  0  0  0
 23 16  2  0  0  0  0
 24 23  1  0  0  0  0
 25  2  1  0  0  0  0
 26 25  1  0  0  0  0
 27 32  1  0  0  0  0
 27 26  2  0  0  0  0
 28 27  1  0  0  0  0
 29 28  2  0  0  0  0
 29 30  1  0  0  0  0
 30 31  2  0  0  0  0
 31 26  1  0  0  0  0
 31 36  1  0  0  0  0
 33 28  1  0  0  0  0
 34 29  1  0  0  0  0
 35 30  1  0  0  0  0
 36 37  2  0  0  0  0
 36 41  1  0  0  0  0
 37 38  1  0  0  0  0
 38 43  1  0  0  0  0
 38 39  2  0  0  0  0
 40 39  1  0  0  0  0
 40 44  1  0  0  0  0
 41 40  2  0  0  0  0
 42 37  1  0  0  0  0
M  END
>  <minimizedAffinity>
-5.97693682

$$$$

 OpenBabel03242517493D

 44 47  0  0  0  0  0  0  0  0999 V2000
   36.5370   30.0310   41.3060 C   0  0  0  0  0  0  0  0  0  0  0  0
   37.6150   30.9070   41.0720 C   0  0  0  0  0  0  0  0  0  0  0  0
   38.8140   30.6500   41.7230 C   0  0  0  0  0  0  0  0  0  0  0  0
   38.8810   29.5830   42.5380 N   0  0  0  0  0  0  0  0  0  0  0  0
   37.8330   28.7600   42.7450 C   0  0  0  0  0  0  0  0  0  0  0  0
   36.6550   28.9500   42.1510 N   0  0  0  0  0  0  0  0  0  0  0  0
   35.6280   30.2710   40.7790 H   0  0  0  0  0  0  0  0  0  0  0  0
   39.6670   31.2840   41.5810 H   0  0  0  0  0  0  0  0  0  0  0  0
   37.9720   27.5950   43.6630 C   0  0  0  0  0  0  0  0  0  0  0  0
   36.9990   27.1830   43.9750 H   0  0  0  0  0  0  0  0  0  0  0  0
   38.4740   27.9150   44.6060 H   0  0  0  0  0  0  0  0  0  0  0  0
   38.8670   26.5090   43.0640 C   0  0  0  0  0  0  0  0  0  0  0  0
   39.7560   27.0510   42.6700 H   0  0  0  0  0  0  0  0  0  0  0  0
   39.2120   25.8850   43.9210 H   0  0  0  0  0  0  0  0  0  0  0  0
   40.0020   26.9560   40.2900 Cl  0  0  0  0  0  0  0  0  0  0  0  0
   38.6690   25.9140   40.7680 C   0  0  0  0  0  0  0  0  0  0  0  0
   38.1710   25.7290   42.0430 C   0  0  0  0  0  0  0  0  0  0  0  0
   37.1140   24.8670   42.2390 C   0  0  0  0  0  0  0  0  0  0  0  0
   36.7610   24.7580   43.2560 H   0  0  0  0  0  0  0  0  0  0  0  0
   36.5610   24.1950   41.1440 C   0  0  0  0  0  3  0  0  0  0  0  0
   37.0530   24.3730   39.8600 C   0  0  0  0  0  0  0  0  0  0  0  0
   36.3160   23.4980   38.5130 Cl  0  0  0  0  0  0  0  0  0  0  0  0
   38.1280   25.2510   39.6770 C   0  0  0  0  0  0  0  0  0  0  0  0
   38.4340   25.3190   38.6460 H   0  0  0  0  0  0  0  0  0  0  0  0
   37.4370   32.2920   39.9810 S   0  0  0  0  0  0  0  0  0  0  0  0
   39.0000   32.7560   39.3080 C   0  0  0  0  0  0  0  0  0  0  0  0
   39.7590   33.8130   39.7970 C   0  0  0  0  0  0  0  0  0  0  0  0
   40.9880   34.1200   39.2120 C   0  0  0  0  0  0  0  0  0  0  0  0
   41.4640   33.4000   38.1630 C   0  0  0  0  0  0  0  0  0  0  0  0
   40.7060   32.3470   37.6790 C   0  0  0  0  0  0  0  0  0  0  0  0
   39.4740   32.0120   38.2380 C   0  0  0  0  0  0  0  0  0  0  0  0
   39.3930   34.3850   40.6200 H   0  0  0  0  0  0  0  0  0  0  0  0
   41.5620   34.9470   39.6070 H   0  0  0  0  0  0  0  0  0  0  0  0
   42.4240   33.6290   37.6960 H   0  0  0  0  0  0  0  0  0  0  0  0
   41.1040   31.7860   36.8410 H   0  0  0  0  0  0  0  0  0  0  0  0
   38.6930   30.9070   37.7200 C   0  0  0  0  0  0  0  0  0  0  0  0
   38.9630   29.5910   37.9730 C   0  0  0  0  0  0  0  0  0  0  0  0
   38.2070   28.5390   37.4720 C   0  0  0  0  0  0  0  0  0  0  0  0
   37.1480   28.8350   36.6920 N   0  0  0  0  0  0  0  0  0  0  0  0
   36.8780   30.1350   36.4390 C   0  0  0  0  0  0  0  0  0  0  0  0
   37.6160   31.1600   36.9290 N   0  0  0  0  0  0  0  0  0  0  0  0
   39.8410   29.4490   38.6160 H   0  0  0  0  0  0  0  0  0  0  0  0
   38.5790   27.5830   37.7840 H   0  0  0  0  0  0  0  0  0  0  0  0
   36.0130   30.2800   35.8060 H   0  0  0  0  0  0  0  0  0  0  0  0
  1  6  1  0  0  0  0
  2  1  2  0  0  0  0
  2  3  1  0  0  0  0
  3  4  2  0  0  0  0
  4  5  1  0  0  0  0
  5  9  1  0  0  0  0
  6  5  2  0  0  0  0
  7  1  1  0  0  0  0
  8  3  1  0  0  0  0
  9 10  1  0  0  0  0
  9 11  1  0  0  0  0
 12  9  1  0  0  0  0
 12 14  1  0  0  0  0
 13 12  1  0  0  0  0
 15 16  1  0  0  0  0
 16 17  1  0  0  0  0
 17 18  2  0  0  0  0
 17 12  1  0  0  0  0
 18 19  1  0  0  0  0
 20 18  1  0  0  0  0
 21 20  2  0  0  0  0
 22 21  1  0  0  0  0
 23 21  1  0  0  0  0
 23 16  2  0  0  0  0
 24 23  1  0  0  0  0
 25  2  1  0  0  0  0
 26 27  1  0  0  0  0
 26 25  1  0  0  0  0
 27 32  1  0  0  0  0
 28 33  1  0  0  0  0
 28 27  2  0  0  0  0
 29 28  1  0  0  0  0
 30 29  2  0  0  0  0
 30 31  1  0  0  0  0
 31 26  2  0  0  0  0
 34 29  1  0  0  0  0
 35 30  1  0  0  0  0
 36 37  1  0  0  0  0
 36 31  1  0  0  0  0
 37 42  1  0  0  0  0
 38 43  1  0  0  0  0
 38 37  2  0  0  0  0
 39 38  1  0  0  0  0
 40 39  2  0  0  0  0
 40 41  1  0  0  0  0
 41 36  2  0  0  0  0
 44 40  1  0  0  0  0
M  END
>  <minimizedAffinity>
-5.9766078

$$$$
