
 OpenBabel03242510583D

 37 39  0  0  0  0  0  0  0  0999 V2000
   39.6630   32.3400   40.4900 C   0  0  0  0  0  0  0  0  0  0  0  0
   38.7540   33.0840   39.7090 C   0  0  0  0  0  0  0  0  0  0  0  0
   37.4080   32.7870   39.6230 C   0  0  0  0  0  0  0  0  0  0  0  0
   36.9530   31.7070   40.3450 C   0  0  0  0  0  0  0  0  0  0  0  0
   37.8500   30.9670   41.1220 C   0  0  0  0  0  0  0  0  0  0  0  0
   39.1310   31.3150   41.1530 N   0  0  0  0  0  0  0  0  0  0  0  0
   39.1640   33.9200   39.1620 H   0  0  0  0  0  0  0  0  0  0  0  0
   36.7790   33.4160   38.9940 H   0  0  0  0  0  0  0  0  0  0  0  0
   35.8860   31.4860   40.2680 H   0  0  0  0  0  0  0  0  0  0  0  0
   44.5030   35.4730   42.2540 C   0  0  0  0  0  0  0  0  0  0  0  0
   45.4150   34.9520   41.3240 C   0  0  0  0  0  0  0  0  0  0  0  0
   44.9360   34.0540   40.3710 C   0  0  0  0  0  0  0  0  0  0  0  0
   43.6180   33.7240   40.3810 N   0  0  0  0  0  0  0  0  0  0  0  0
   42.7750   34.2510   41.2960 C   0  0  0  0  0  0  0  0  0  0  0  0
   43.2140   35.1390   42.2500 N   0  0  0  0  0  0  0  0  0  0  0  0
   41.0620   32.7260   40.5200 C   0  0  0  0  0  0  0  0  0  0  0  0
   41.8910   32.0170   39.8770 O   0  0  0  0  0  0  0  0  0  0  0  0
   41.3980   33.8840   41.2780 N   0  0  0  0  0  0  0  0  0  0  0  0
   44.9320   36.1640   42.9670 H   0  0  0  0  0  0  0  0  0  0  0  0
   46.4770   35.2100   41.3040 H   0  0  0  0  0  0  0  0  0  0  0  0
   45.5380   33.5930   39.6130 H   0  0  0  0  0  0  0  0  0  0  0  0
   40.7140   34.4600   41.8020 H   0  0  0  0  0  0  0  0  0  0  0  0
   37.3470   29.8440   41.8820 C   0  0  0  0  0  3  0  0  0  0  0  0
   38.0620   29.3380   42.8630 C   0  0  0  0  0  3  0  0  0  0  0  0
   37.7470   28.1910   43.7410 C   0  0  0  0  0  0  0  0  0  0  0  0
   38.3390   28.2020   44.6800 H   0  0  0  0  0  0  0  0  0  0  0  0
   36.6820   28.2530   44.0460 H   0  0  0  0  0  0  0  0  0  0  0  0
   40.5080   26.8860   44.0110 Cl  0  0  0  0  0  0  0  0  0  0  0  0
   39.1850   26.2150   43.0870 C   0  0  0  0  0  0  0  0  0  0  0  0
   38.0000   26.9190   43.0580 C   0  0  0  0  0  0  0  0  0  0  0  0
   36.9760   26.3390   42.3050 C   0  0  0  0  0  0  0  0  0  0  0  0
   36.0190   26.8750   42.2630 H   0  0  0  0  0  0  0  0  0  0  0  0
   37.0900   25.1460   41.6180 C   0  0  0  0  0  3  0  0  0  0  0  0
   38.2930   24.4720   41.6710 C   0  0  0  0  0  0  0  0  0  0  0  0
   38.4300   22.9590   40.7980 Cl  0  0  0  0  0  0  0  0  0  0  0  0
   39.3500   25.0120   42.4120 C   0  0  0  0  0  0  0  0  0  0  0  0
   40.2720   24.4530   42.4280 H   0  0  0  0  0  0  0  0  0  0  0  0
  1 16  1  0  0  0  0
  1  6  1  0  0  0  0
  2  1  2  0  0  0  0
  3  2  1  0  0  0  0
  3  4  2  0  0  0  0
  4  5  1  0  0  0  0
  5  6  2  0  0  0  0
  5 23  1  0  0  0  0
  7  2  1  0  0  0  0
  8  3  1  0  0  0  0
  9  4  1  0  0  0  0
 10 19  1  0  0  0  0
 11 10  2  0  0  0  0
 12 13  2  0  0  0  0
 12 11  1  0  0  0  0
 13 14  1  0  0  0  0
 14 15  2  0  0  0  0
 15 10  1  0  0  0  0
 16 18  1  0  0  0  0
 17 16  2  0  0  0  0
 18 14  1  0  0  0  0
 18 22  1  0  0  0  0
 20 11  1  0  0  0  0
 21 12  1  0  0  0  0
 23 24  2  0  0  0  0
 24 25  1  0  0  0  0
 25 27  1  0  0  0  0
 25 26  1  0  0  0  0
 29 28  1  0  0  0  0
 30 29  1  0  0  0  0
 30 25  1  0  0  0  0
 31 30  2  0  0  0  0
 32 31  1  0  0  0  0
 33 34  2  0  0  0  0
 33 31  1  0  0  0  0
 34 36  1  0  0  0  0
 35 34  1  0  0  0  0
 36 37  1  0  0  0  0
 36 29  2  0  0  0  0
M  END
>  <minimizedAffinity>
-7.13099957

$$$$

 OpenBabel03242510583D

 37 39  0  0  0  0  0  0  0  0999 V2000
   40.8140   33.6510   38.9920 C   0  0  0  0  0  0  0  0  0  0  0  0
   40.9350   34.8990   39.6360 C   0  0  0  0  0  0  0  0  0  0  0  0
   39.9170   35.4740   40.3740 C   0  0  0  0  0  0  0  0  0  0  0  0
   38.7370   34.7740   40.4710 C   0  0  0  0  0  0  0  0  0  0  0  0
   38.6130   33.5340   39.8350 C   0  0  0  0  0  0  0  0  0  0  0  0
   39.6370   33.0490   39.1430 N   0  0  0  0  0  0  0  0  0  0  0  0
   41.8820   35.4060   39.5270 H   0  0  0  0  0  0  0  0  0  0  0  0
   40.0990   36.4430   40.8370 H   0  0  0  0  0  0  0  0  0  0  0  0
   37.9430   35.2400   41.0580 H   0  0  0  0  0  0  0  0  0  0  0  0
   43.7130   29.8660   35.3010 C   0  0  0  0  0  0  0  0  0  0  0  0
   45.0040   30.3910   35.4670 C   0  0  0  0  0  0  0  0  0  0  0  0
   45.1740   31.4320   36.3790 C   0  0  0  0  0  0  0  0  0  0  0  0
   44.0940   31.8930   37.0620 N   0  0  0  0  0  0  0  0  0  0  0  0
   42.8680   31.3560   36.8710 C   0  0  0  0  0  0  0  0  0  0  0  0
   42.6650   30.3280   35.9800 N   0  0  0  0  0  0  0  0  0  0  0  0
   41.9370   33.1240   38.2380 C   0  0  0  0  0  0  0  0  0  0  0  0
   42.9990   33.8110   38.1890 O   0  0  0  0  0  0  0  0  0  0  0  0
   41.7560   31.8610   37.6050 N   0  0  0  0  0  0  0  0  0  0  0  0
   43.6450   29.0610   34.5830 H   0  0  0  0  0  0  0  0  0  0  0  0
   45.8820   30.0300   34.9250 H   0  0  0  0  0  0  0  0  0  0  0  0
   46.1100   31.9110   36.5880 H   0  0  0  0  0  0  0  0  0  0  0  0
   40.8840   31.3030   37.6490 H   0  0  0  0  0  0  0  0  0  0  0  0
   37.3670   32.8120   39.9620 C   0  0  0  0  0  3  0  0  0  0  0  0
   37.3290   31.6720   40.6170 C   0  0  0  0  0  3  0  0  0  0  0  0
   36.1780   30.7720   40.8430 C   0  0  0  0  0  0  0  0  0  0  0  0
   35.5200   31.1260   41.6660 H   0  0  0  0  0  0  0  0  0  0  0  0
   35.5480   30.7580   39.9290 H   0  0  0  0  0  0  0  0  0  0  0  0
   35.4630   28.4830   38.9340 Cl  0  0  0  0  0  0  0  0  0  0  0  0
   36.3810   28.2890   40.4080 C   0  0  0  0  0  0  0  0  0  0  0  0
   36.6240   29.4150   41.1670 C   0  0  0  0  0  0  0  0  0  0  0  0
   37.3620   29.2040   42.3340 C   0  0  0  0  0  0  0  0  0  0  0  0
   37.5730   30.0820   42.9600 H   0  0  0  0  0  0  0  0  0  0  0  0
   37.8390   27.9760   42.7460 C   0  0  0  0  0  3  0  0  0  0  0  0
   37.5740   26.8720   41.9610 C   0  0  0  0  0  0  0  0  0  0  0  0
   38.1830   25.3170   42.4910 Cl  0  0  0  0  0  0  0  0  0  0  0  0
   36.8390   27.0310   40.7810 C   0  0  0  0  0  0  0  0  0  0  0  0
   36.6550   26.1440   40.1960 H   0  0  0  0  0  0  0  0  0  0  0  0
  1  6  2  0  0  0  0
  1  2  1  0  0  0  0
  2  3  2  0  0  0  0
  3  4  1  0  0  0  0
  3  8  1  0  0  0  0
  4  9  1  0  0  0  0
  5 23  1  0  0  0  0
  5  4  2  0  0  0  0
  6  5  1  0  0  0  0
  7  2  1  0  0  0  0
 10 11  2  0  0  0  0
 10 15  1  0  0  0  0
 11 12  1  0  0  0  0
 12 21  1  0  0  0  0
 12 13  2  0  0  0  0
 14 13  1  0  0  0  0
 14 18  1  0  0  0  0
 15 14  2  0  0  0  0
 16  1  1  0  0  0  0
 17 16  2  0  0  0  0
 18 22  1  0  0  0  0
 18 16  1  0  0  0  0
 19 10  1  0  0  0  0
 20 11  1  0  0  0  0
 23 24  2  0  0  0  0
 24 25  1  0  0  0  0
 25 30  1  0  0  0  0
 25 26  1  0  0  0  0
 27 25  1  0  0  0  0
 28 29  1  0  0  0  0
 29 36  2  0  0  0  0
 29 30  1  0  0  0  0
 30 31  2  0  0  0  0
 31 33  1  0  0  0  0
 31 32  1  0  0  0  0
 34 35  1  0  0  0  0
 34 33  2  0  0  0  0
 36 34  1  0  0  0  0
 37 36  1  0  0  0  0
M  END
>  <minimizedAffinity>
-6.76408577

$$$$

 OpenBabel03242510583D

 37 39  0  0  0  0  0  0  0  0999 V2000
   39.9910   33.5890   40.3780 C   0  0  0  0  0  0  0  0  0  0  0  0
   39.0940   34.6150   40.0180 C   0  0  0  0  0  0  0  0  0  0  0  0
   37.7630   34.3890   39.7220 C   0  0  0  0  0  0  0  0  0  0  0  0
   37.3130   33.0910   39.7890 C   0  0  0  0  0  0  0  0  0  0  0  0
   38.1990   32.0700   40.1460 C   0  0  0  0  0  0  0  0  0  0  0  0
   39.4650   32.3660   40.4160 N   0  0  0  0  0  0  0  0  0  0  0  0
   39.4990   35.6150   39.9800 H   0  0  0  0  0  0  0  0  0  0  0  0
   37.1420   35.2440   39.4530 H   0  0  0  0  0  0  0  0  0  0  0  0
   36.2590   32.9290   39.5540 H   0  0  0  0  0  0  0  0  0  0  0  0
   45.3400   33.0780   43.1130 C   0  0  0  0  0  0  0  0  0  0  0  0
   45.9360   34.2310   42.5800 C   0  0  0  0  0  0  0  0  0  0  0  0
   45.1590   35.0490   41.7600 C   0  0  0  0  0  0  0  0  0  0  0  0
   43.8700   34.7000   41.5130 N   0  0  0  0  0  0  0  0  0  0  0  0
   43.3370   33.5800   42.0480 C   0  0  0  0  0  0  0  0  0  0  0  0
   44.0750   32.7510   42.8610 N   0  0  0  0  0  0  0  0  0  0  0  0
   41.3740   33.9190   40.6720 C   0  0  0  0  0  0  0  0  0  0  0  0
   41.9510   34.7780   39.9440 O   0  0  0  0  0  0  0  0  0  0  0  0
   41.9810   33.2430   41.7700 N   0  0  0  0  0  0  0  0  0  0  0  0
   45.9910   32.4850   43.7400 H   0  0  0  0  0  0  0  0  0  0  0  0
   46.9720   34.5240   42.7700 H   0  0  0  0  0  0  0  0  0  0  0  0
   45.5070   35.9520   41.2980 H   0  0  0  0  0  0  0  0  0  0  0  0
   41.5020   32.5410   42.3630 H   0  0  0  0  0  0  0  0  0  0  0  0
   37.7010   30.7140   40.2220 C   0  0  0  0  0  3  0  0  0  0  0  0
   36.6260   30.4460   40.9310 C   0  0  0  0  0  3  0  0  0  0  0  0
   35.9690   29.1400   41.1570 C   0  0  0  0  0  0  0  0  0  0  0  0
   35.1140   29.2130   41.8610 H   0  0  0  0  0  0  0  0  0  0  0  0
   35.5470   28.7790   40.1950 H   0  0  0  0  0  0  0  0  0  0  0  0
   36.7960   26.7720   39.3940 Cl  0  0  0  0  0  0  0  0  0  0  0  0
   37.3810   27.0460   41.0180 C   0  0  0  0  0  0  0  0  0  0  0  0
   36.9170   28.1570   41.6890 C   0  0  0  0  0  0  0  0  0  0  0  0
   37.4160   28.3280   42.9830 C   0  0  0  0  0  0  0  0  0  0  0  0
   37.0650   29.2060   43.5430 H   0  0  0  0  0  0  0  0  0  0  0  0
   38.3120   27.4750   43.5950 C   0  0  0  0  0  3  0  0  0  0  0  0
   38.7520   26.3720   42.8910 C   0  0  0  0  0  0  0  0  0  0  0  0
   39.8890   25.2940   43.6740 Cl  0  0  0  0  0  0  0  0  0  0  0  0
   38.2820   26.1560   41.5910 C   0  0  0  0  0  0  0  0  0  0  0  0
   38.6510   25.2840   41.0750 H   0  0  0  0  0  0  0  0  0  0  0  0
  1  6  1  0  0  0  0
  1 16  1  0  0  0  0
  2  1  2  0  0  0  0
  3  4  2  0  0  0  0
  3  2  1  0  0  0  0
  4  5  1  0  0  0  0
  5 23  1  0  0  0  0
  5  6  2  0  0  0  0
  7  2  1  0  0  0  0
  8  3  1  0  0  0  0
  9  4  1  0  0  0  0
 10 19  1  0  0  0  0
 11 20  1  0  0  0  0
 11 10  2  0  0  0  0
 12 11  1  0  0  0  0
 13 12  2  0  0  0  0
 13 14  1  0  0  0  0
 14 15  2  0  0  0  0
 15 10  1  0  0  0  0
 16 18  1  0  0  0  0
 17 16  2  0  0  0  0
 18 14  1  0  0  0  0
 18 22  1  0  0  0  0
 21 12  1  0  0  0  0
 23 24  2  0  0  0  0
 24 25  1  0  0  0  0
 25 30  1  0  0  0  0
 25 26  1  0  0  0  0
 27 25  1  0  0  0  0
 28 29  1  0  0  0  0
 29 36  2  0  0  0  0
 29 30  1  0  0  0  0
 30 31  2  0  0  0  0
 31 32  1  0  0  0  0
 31 33  1  0  0  0  0
 34 33  2  0  0  0  0
 34 35  1  0  0  0  0
 36 34  1  0  0  0  0
 37 36  1  0  0  0  0
M  END
>  <minimizedAffinity>
-6.65831232

$$$$

 OpenBabel03242510583D

 37 39  0  0  0  0  0  0  0  0999 V2000
   40.8850   33.6960   39.0380 C   0  0  0  0  0  0  0  0  0  0  0  0
   41.0890   34.8920   39.7540 C   0  0  0  0  0  0  0  0  0  0  0  0
   40.1210   35.4740   40.5510 C   0  0  0  0  0  0  0  0  0  0  0  0
   38.9050   34.8350   40.6330 C   0  0  0  0  0  0  0  0  0  0  0  0
   38.6980   33.6470   39.9240 C   0  0  0  0  0  0  0  0  0  0  0  0
   39.6790   33.1500   39.1790 N   0  0  0  0  0  0  0  0  0  0  0  0
   42.0610   35.3530   39.6540 H   0  0  0  0  0  0  0  0  0  0  0  0
   40.3660   36.4010   41.0690 H   0  0  0  0  0  0  0  0  0  0  0  0
   38.1510   35.3060   41.2670 H   0  0  0  0  0  0  0  0  0  0  0  0
   43.6110   29.7690   35.3630 C   0  0  0  0  0  0  0  0  0  0  0  0
   44.8900   30.3460   35.3830 C   0  0  0  0  0  0  0  0  0  0  0  0
   45.0940   31.4520   36.2080 C   0  0  0  0  0  0  0  0  0  0  0  0
   44.0580   31.9210   36.9510 N   0  0  0  0  0  0  0  0  0  0  0  0
   42.8420   31.3320   36.9000 C   0  0  0  0  0  0  0  0  0  0  0  0
   42.6060   30.2410   36.0970 N   0  0  0  0  0  0  0  0  0  0  0  0
   41.9610   33.1570   38.2250 C   0  0  0  0  0  0  0  0  0  0  0  0
   42.9880   33.8730   38.0420 O   0  0  0  0  0  0  0  0  0  0  0  0
   41.7770   31.8480   37.6920 N   0  0  0  0  0  0  0  0  0  0  0  0
   43.5140   28.9150   34.7060 H   0  0  0  0  0  0  0  0  0  0  0  0
   45.7320   29.9790   34.7920 H   0  0  0  0  0  0  0  0  0  0  0  0
   46.0260   31.9740   36.3050 H   0  0  0  0  0  0  0  0  0  0  0  0
   40.9330   31.2670   37.8470 H   0  0  0  0  0  0  0  0  0  0  0  0
   37.4160   32.9870   40.0360 C   0  0  0  0  0  3  0  0  0  0  0  0
   37.3450   31.7620   40.5080 C   0  0  0  0  0  3  0  0  0  0  0  0
   36.1510   30.9060   40.6830 C   0  0  0  0  0  0  0  0  0  0  0  0
   36.0440   30.5380   41.7250 H   0  0  0  0  0  0  0  0  0  0  0  0
   35.2430   31.5090   40.4730 H   0  0  0  0  0  0  0  0  0  0  0  0
   36.4450   28.1110   41.9060 Cl  0  0  0  0  0  0  0  0  0  0  0  0
   36.3280   28.4310   40.1920 C   0  0  0  0  0  0  0  0  0  0  0  0
   36.2000   29.7440   39.7910 C   0  0  0  0  0  0  0  0  0  0  0  0
   36.1100   29.9440   38.4110 C   0  0  0  0  0  0  0  0  0  0  0  0
   36.0070   30.9800   38.0610 H   0  0  0  0  0  0  0  0  0  0  0  0
   36.1420   28.9340   37.4710 C   0  0  0  0  0  3  0  0  0  0  0  0
   36.2720   27.6330   37.9110 C   0  0  0  0  0  0  0  0  0  0  0  0
   36.3120   26.3560   36.7120 Cl  0  0  0  0  0  0  0  0  0  0  0  0
   36.3660   27.3790   39.2850 C   0  0  0  0  0  0  0  0  0  0  0  0
   36.4650   26.3480   39.5870 H   0  0  0  0  0  0  0  0  0  0  0  0
  1  6  2  0  0  0  0
  1  2  1  0  0  0  0
  2  3  2  0  0  0  0
  3  4  1  0  0  0  0
  3  8  1  0  0  0  0
  4  9  1  0  0  0  0
  5 23  1  0  0  0  0
  5  4  2  0  0  0  0
  6  5  1  0  0  0  0
  7  2  1  0  0  0  0
 10 11  2  0  0  0  0
 10 15  1  0  0  0  0
 11 12  1  0  0  0  0
 12 21  1  0  0  0  0
 12 13  2  0  0  0  0
 14 13  1  0  0  0  0
 14 18  1  0  0  0  0
 15 14  2  0  0  0  0
 16  1  1  0  0  0  0
 17 16  2  0  0  0  0
 18 22  1  0  0  0  0
 18 16  1  0  0  0  0
 19 10  1  0  0  0  0
 20 11  1  0  0  0  0
 23 24  2  0  0  0  0
 24 25  1  0  0  0  0
 25 26  1  0  0  0  0
 27 25  1  0  0  0  0
 29 28  1  0  0  0  0
 30 29  1  0  0  0  0
 30 25  1  0  0  0  0
 31 30  2  0  0  0  0
 32 31  1  0  0  0  0
 33 34  2  0  0  0  0
 33 31  1  0  0  0  0
 34 36  1  0  0  0  0
 35 34  1  0  0  0  0
 36 37  1  0  0  0  0
 36 29  2  0  0  0  0
M  END
>  <minimizedAffinity>
-6.31439924

$$$$

 OpenBabel03242510583D

 37 39  0  0  0  0  0  0  0  0999 V2000
   39.4130   32.1620   39.7800 C   0  0  0  0  0  0  0  0  0  0  0  0
   38.2470   32.9110   39.5210 C   0  0  0  0  0  0  0  0  0  0  0  0
   36.9830   32.5050   39.9050 C   0  0  0  0  0  0  0  0  0  0  0  0
   36.8810   31.3060   40.5720 C   0  0  0  0  0  0  0  0  0  0  0  0
   38.0350   30.5590   40.8330 C   0  0  0  0  0  0  0  0  0  0  0  0
   39.2150   31.0170   40.4310 N   0  0  0  0  0  0  0  0  0  0  0  0
   38.3830   33.8440   38.9940 H   0  0  0  0  0  0  0  0  0  0  0  0
   36.1380   33.1480   39.6620 H   0  0  0  0  0  0  0  0  0  0  0  0
   35.8760   30.9990   40.8700 H   0  0  0  0  0  0  0  0  0  0  0  0
   44.7870   31.9860   37.0530 C   0  0  0  0  0  0  0  0  0  0  0  0
   45.2680   33.2260   37.5010 C   0  0  0  0  0  0  0  0  0  0  0  0
   44.4710   33.9560   38.3830 C   0  0  0  0  0  0  0  0  0  0  0  0
   43.2730   33.4420   38.7680 N   0  0  0  0  0  0  0  0  0  0  0  0
   42.8500   32.2430   38.3100 C   0  0  0  0  0  0  0  0  0  0  0  0
   43.6110   31.4980   37.4400 N   0  0  0  0  0  0  0  0  0  0  0  0
   40.7000   32.6670   39.3400 C   0  0  0  0  0  0  0  0  0  0  0  0
   40.9540   33.8940   39.5190 O   0  0  0  0  0  0  0  0  0  0  0  0
   41.5900   31.7330   38.7340 N   0  0  0  0  0  0  0  0  0  0  0  0
   45.4480   31.4680   36.3720 H   0  0  0  0  0  0  0  0  0  0  0  0
   46.2290   33.6510   37.2000 H   0  0  0  0  0  0  0  0  0  0  0  0
   44.7340   34.9120   38.7910 H   0  0  0  0  0  0  0  0  0  0  0  0
   41.3760   30.7290   38.5910 H   0  0  0  0  0  0  0  0  0  0  0  0
   37.9050   29.3080   41.5470 C   0  0  0  0  0  3  0  0  0  0  0  0
   37.7810   29.3060   42.8560 C   0  0  0  0  0  3  0  0  0  0  0  0
   37.6580   28.1520   43.7720 C   0  0  0  0  0  0  0  0  0  0  0  0
   38.3440   28.2280   44.6420 H   0  0  0  0  0  0  0  0  0  0  0  0
   36.6300   28.1320   44.1890 H   0  0  0  0  0  0  0  0  0  0  0  0
   40.5280   27.0750   43.7700 Cl  0  0  0  0  0  0  0  0  0  0  0  0
   39.1780   26.2870   42.9900 C   0  0  0  0  0  0  0  0  0  0  0  0
   37.9420   26.8940   43.0760 C   0  0  0  0  0  0  0  0  0  0  0  0
   36.8980   26.2220   42.4350 C   0  0  0  0  0  0  0  0  0  0  0  0
   35.9010   26.6810   42.4870 H   0  0  0  0  0  0  0  0  0  0  0  0
   37.0380   25.0320   41.7500 C   0  0  0  0  0  3  0  0  0  0  0  0
   38.2900   24.4560   41.6850 C   0  0  0  0  0  0  0  0  0  0  0  0
   38.4590   22.9460   40.8130 Cl  0  0  0  0  0  0  0  0  0  0  0  0
   39.3690   25.0900   42.3110 C   0  0  0  0  0  0  0  0  0  0  0  0
   40.3310   24.6060   42.2370 H   0  0  0  0  0  0  0  0  0  0  0  0
  1  6  1  0  0  0  0
  2  1  2  0  0  0  0
  2  3  1  0  0  0  0
  3  4  2  0  0  0  0
  4  5  1  0  0  0  0
  4  9  1  0  0  0  0
  5 23  1  0  0  0  0
  6  5  2  0  0  0  0
  7  2  1  0  0  0  0
  8  3  1  0  0  0  0
 10 15  2  0  0  0  0
 10 11  1  0  0  0  0
 11 12  2  0  0  0  0
 12 13  1  0  0  0  0
 12 21  1  0  0  0  0
 14 18  1  0  0  0  0
 14 13  2  0  0  0  0
 15 14  1  0  0  0  0
 16 17  2  0  0  0  0
 16  1  1  0  0  0  0
 18 16  1  0  0  0  0
 19 10  1  0  0  0  0
 20 11  1  0  0  0  0
 22 18  1  0  0  0  0
 23 24  2  0  0  0  0
 24 25  1  0  0  0  0
 25 27  1  0  0  0  0
 25 26  1  0  0  0  0
 29 30  1  0  0  0  0
 29 28  1  0  0  0  0
 30 25  1  0  0  0  0
 31 32  1  0  0  0  0
 31 30  2  0  0  0  0
 33 31  1  0  0  0  0
 34 33  2  0  0  0  0
 34 36  1  0  0  0  0
 35 34  1  0  0  0  0
 36 29  2  0  0  0  0
 37 36  1  0  0  0  0
M  END
>  <minimizedAffinity>
-6.29965544

$$$$

 OpenBabel03242510583D

 37 39  0  0  0  0  0  0  0  0999 V2000
   38.3560   29.5230   41.9570 C   0  0  0  0  0  0  0  0  0  0  0  0
   38.1660   29.1520   43.3040 C   0  0  0  0  0  0  0  0  0  0  0  0
   37.5010   28.0030   43.6870 C   0  0  0  0  0  0  0  0  0  0  0  0
   37.0090   27.1950   42.6880 C   0  0  0  0  0  0  0  0  0  0  0  0
   37.1960   27.5590   41.3500 C   0  0  0  0  0  0  0  0  0  0  0  0
   37.8450   28.6810   41.0610 N   0  0  0  0  0  0  0  0  0  0  0  0
   38.5720   29.8210   44.0480 H   0  0  0  0  0  0  0  0  0  0  0  0
   37.4010   27.7960   44.7530 H   0  0  0  0  0  0  0  0  0  0  0  0
   36.4870   26.2910   43.0070 H   0  0  0  0  0  0  0  0  0  0  0  0
   39.0080   35.2320   40.1300 C   0  0  0  0  0  0  0  0  0  0  0  0
   40.4110   35.2730   40.1340 C   0  0  0  0  0  0  0  0  0  0  0  0
   41.0980   34.1000   40.4440 C   0  0  0  0  0  0  0  0  0  0  0  0
   40.3890   32.9760   40.7280 N   0  0  0  0  0  0  0  0  0  0  0  0
   39.0380   32.9830   40.7110 C   0  0  0  0  0  0  0  0  0  0  0  0
   38.3290   34.1220   40.4090 N   0  0  0  0  0  0  0  0  0  0  0  0
   39.0680   30.7500   41.6470 C   0  0  0  0  0  0  0  0  0  0  0  0
   40.2930   30.8230   41.9540 O   0  0  0  0  0  0  0  0  0  0  0  0
   38.3250   31.7870   41.0120 N   0  0  0  0  0  0  0  0  0  0  0  0
   38.5320   36.1700   39.8810 H   0  0  0  0  0  0  0  0  0  0  0  0
   40.9940   36.1700   39.9080 H   0  0  0  0  0  0  0  0  0  0  0  0
   42.1660   34.0120   40.4790 H   0  0  0  0  0  0  0  0  0  0  0  0
   37.3210   31.7190   40.7620 H   0  0  0  0  0  0  0  0  0  0  0  0
   36.6800   26.6890   40.3170 C   0  0  0  0  0  3  0  0  0  0  0  0
   36.5110   27.1440   39.0950 C   0  0  0  0  0  3  0  0  0  0  0  0
   35.9820   26.4370   37.9090 C   0  0  0  0  0  0  0  0  0  0  0  0
   36.7680   26.2380   37.1500 H   0  0  0  0  0  0  0  0  0  0  0  0
   35.5980   25.4440   38.2230 H   0  0  0  0  0  0  0  0  0  0  0  0
   35.1640   25.7330   35.0400 Cl  0  0  0  0  0  0  0  0  0  0  0  0
   34.4380   27.0090   35.9880 C   0  0  0  0  0  0  0  0  0  0  0  0
   34.9140   27.2080   37.2680 C   0  0  0  0  0  0  0  0  0  0  0  0
   34.2990   28.2400   37.9820 C   0  0  0  0  0  0  0  0  0  0  0  0
   34.6560   28.4230   39.0040 H   0  0  0  0  0  0  0  0  0  0  0  0
   33.2840   29.0350   37.4890 C   0  0  0  0  0  3  0  0  0  0  0  0
   32.8360   28.8050   36.2050 C   0  0  0  0  0  0  0  0  0  0  0  0
   31.5460   29.8170   35.5870 Cl  0  0  0  0  0  0  0  0  0  0  0  0
   33.4190   27.7820   35.4480 C   0  0  0  0  0  0  0  0  0  0  0  0
   33.0390   27.6350   34.4490 H   0  0  0  0  0  0  0  0  0  0  0  0
  1  2  1  0  0  0  0
  2  3  2  0  0  0  0
  2  7  1  0  0  0  0
  3  8  1  0  0  0  0
  4  9  1  0  0  0  0
  4  3  1  0  0  0  0
  5  4  2  0  0  0  0
  6  5  1  0  0  0  0
  6  1  2  0  0  0  0
 10 11  2  0  0  0  0
 10 15  1  0  0  0  0
 11 12  1  0  0  0  0
 12 21  1  0  0  0  0
 12 13  2  0  0  0  0
 14 13  1  0  0  0  0
 14 18  1  0  0  0  0
 15 14  2  0  0  0  0
 16 17  2  0  0  0  0
 16  1  1  0  0  0  0
 18 16  1  0  0  0  0
 19 10  1  0  0  0  0
 20 11  1  0  0  0  0
 22 18  1  0  0  0  0
 23  5  1  0  0  0  0
 24 23  2  0  0  0  0
 25 27  1  0  0  0  0
 25 24  1  0  0  0  0
 26 25  1  0  0  0  0
 28 29  1  0  0  0  0
 29 30  1  0  0  0  0
 30 25  1  0  0  0  0
 30 31  2  0  0  0  0
 31 32  1  0  0  0  0
 33 31  1  0  0  0  0
 34 33  2  0  0  0  0
 35 34  1  0  0  0  0
 36 29  2  0  0  0  0
 36 34  1  0  0  0  0
 37 36  1  0  0  0  0
M  END
>  <minimizedAffinity>
-6.06991625

$$$$

 OpenBabel03242510583D

 37 39  0  0  0  0  0  0  0  0999 V2000
   40.0300   33.6080   40.0470 C   0  0  0  0  0  0  0  0  0  0  0  0
   38.8740   34.3540   40.3510 C   0  0  0  0  0  0  0  0  0  0  0  0
   37.6070   33.9960   39.9300 C   0  0  0  0  0  0  0  0  0  0  0  0
   37.4940   32.8490   39.1770 C   0  0  0  0  0  0  0  0  0  0  0  0
   38.6390   32.1050   38.8740 C   0  0  0  0  0  0  0  0  0  0  0  0
   39.8220   32.5160   39.3150 N   0  0  0  0  0  0  0  0  0  0  0  0
   39.0190   35.2450   40.9440 H   0  0  0  0  0  0  0  0  0  0  0  0
   36.7690   34.6340   40.2120 H   0  0  0  0  0  0  0  0  0  0  0  0
   36.4870   32.5790   38.8530 H   0  0  0  0  0  0  0  0  0  0  0  0
   45.1630   33.3340   43.1990 C   0  0  0  0  0  0  0  0  0  0  0  0
   45.6220   34.6320   42.9260 C   0  0  0  0  0  0  0  0  0  0  0  0
   44.8000   35.4720   42.1750 C   0  0  0  0  0  0  0  0  0  0  0  0
   43.6000   35.0050   41.7430 N   0  0  0  0  0  0  0  0  0  0  0  0
   43.1980   33.7470   42.0300 C   0  0  0  0  0  0  0  0  0  0  0  0
   43.9830   32.8930   42.7680 N   0  0  0  0  0  0  0  0  0  0  0  0
   41.3220   34.0610   40.5330 C   0  0  0  0  0  0  0  0  0  0  0  0
   41.8210   35.1040   40.0180 O   0  0  0  0  0  0  0  0  0  0  0  0
   41.9330   33.2890   41.5620 N   0  0  0  0  0  0  0  0  0  0  0  0
   45.8430   32.7310   43.7850 H   0  0  0  0  0  0  0  0  0  0  0  0
   46.5850   35.0210   43.2680 H   0  0  0  0  0  0  0  0  0  0  0  0
   45.0460   36.4800   41.9050 H   0  0  0  0  0  0  0  0  0  0  0  0
   41.5170   32.4350   41.9790 H   0  0  0  0  0  0  0  0  0  0  0  0
   38.4930   30.8980   38.0920 C   0  0  0  0  0  3  0  0  0  0  0  0
   37.3590   30.2330   38.1110 C   0  0  0  0  0  3  0  0  0  0  0  0
   37.0100   28.9780   37.4110 C   0  0  0  0  0  0  0  0  0  0  0  0
   37.6920   28.7640   36.5610 H   0  0  0  0  0  0  0  0  0  0  0  0
   37.1230   28.1290   38.1180 H   0  0  0  0  0  0  0  0  0  0  0  0
   36.5690   29.1020   34.3800 Cl  0  0  0  0  0  0  0  0  0  0  0  0
   35.2850   29.0800   35.5640 C   0  0  0  0  0  0  0  0  0  0  0  0
   35.6390   29.0240   36.8960 C   0  0  0  0  0  0  0  0  0  0  0  0
   34.5740   29.0090   37.8000 C   0  0  0  0  0  0  0  0  0  0  0  0
   34.8240   28.9630   38.8690 H   0  0  0  0  0  0  0  0  0  0  0  0
   33.2420   29.0470   37.4400 C   0  0  0  0  0  3  0  0  0  0  0  0
   32.9270   29.1050   36.0980 C   0  0  0  0  0  0  0  0  0  0  0  0
   31.2350   29.1520   35.6480 Cl  0  0  0  0  0  0  0  0  0  0  0  0
   33.9590   29.1210   35.1520 C   0  0  0  0  0  0  0  0  0  0  0  0
   33.6700   29.1660   34.1130 H   0  0  0  0  0  0  0  0  0  0  0  0
  1  2  1  0  0  0  0
  1 16  1  0  0  0  0
  2  7  1  0  0  0  0
  3  8  1  0  0  0  0
  3  2  2  0  0  0  0
  4  3  1  0  0  0  0
  5  4  2  0  0  0  0
  5  6  1  0  0  0  0
  6  1  2  0  0  0  0
  9  4  1  0  0  0  0
 10 19  1  0  0  0  0
 11 10  1  0  0  0  0
 11 20  1  0  0  0  0
 12 11  2  0  0  0  0
 13 14  2  0  0  0  0
 13 12  1  0  0  0  0
 14 15  1  0  0  0  0
 15 10  2  0  0  0  0
 16 18  1  0  0  0  0
 17 16  2  0  0  0  0
 18 22  1  0  0  0  0
 18 14  1  0  0  0  0
 21 12  1  0  0  0  0
 23 24  2  0  0  0  0
 23  5  1  0  0  0  0
 25 24  1  0  0  0  0
 25 27  1  0  0  0  0
 26 25  1  0  0  0  0
 28 29  1  0  0  0  0
 29 30  1  0  0  0  0
 30 25  1  0  0  0  0
 30 31  2  0  0  0  0
 31 32  1  0  0  0  0
 33 31  1  0  0  0  0
 34 33  2  0  0  0  0
 35 34  1  0  0  0  0
 36 29  2  0  0  0  0
 36 34  1  0  0  0  0
 37 36  1  0  0  0  0
M  END
>  <minimizedAffinity>
-6.04390478

$$$$

 OpenBabel03242510583D

 37 39  0  0  0  0  0  0  0  0999 V2000
   37.0600   26.8000   41.3020 C   0  0  0  0  0  0  0  0  0  0  0  0
   37.2470   26.6250   42.6880 C   0  0  0  0  0  0  0  0  0  0  0  0
   37.3650   27.6770   43.5770 C   0  0  0  0  0  0  0  0  0  0  0  0
   37.2930   28.9500   43.0600 C   0  0  0  0  0  0  0  0  0  0  0  0
   37.1060   29.1290   41.6850 C   0  0  0  0  0  0  0  0  0  0  0  0
   37.0020   28.0670   40.8950 N   0  0  0  0  0  0  0  0  0  0  0  0
   37.2970   25.6060   43.0410 H   0  0  0  0  0  0  0  0  0  0  0  0
   37.5080   27.4470   44.6330 H   0  0  0  0  0  0  0  0  0  0  0  0
   37.3870   29.7700   43.7750 H   0  0  0  0  0  0  0  0  0  0  0  0
   37.7870   21.0460   39.6550 C   0  0  0  0  0  0  0  0  0  0  0  0
   37.3020   21.1620   38.3430 C   0  0  0  0  0  0  0  0  0  0  0  0
   36.9340   22.4290   37.8920 C   0  0  0  0  0  0  0  0  0  0  0  0
   37.0590   23.4900   38.7310 N   0  0  0  0  0  0  0  0  0  0  0  0
   37.5320   23.3310   39.9870 C   0  0  0  0  0  0  0  0  0  0  0  0
   37.9040   22.0960   40.4650 N   0  0  0  0  0  0  0  0  0  0  0  0
   36.9450   25.6360   40.4430 C   0  0  0  0  0  0  0  0  0  0  0  0
   36.2330   25.7300   39.4010 O   0  0  0  0  0  0  0  0  0  0  0  0
   37.6520   24.4640   40.8420 N   0  0  0  0  0  0  0  0  0  0  0  0
   38.0560   20.0410   39.9470 H   0  0  0  0  0  0  0  0  0  0  0  0
   37.1960   20.3170   37.6570 H   0  0  0  0  0  0  0  0  0  0  0  0
   36.5510   22.6380   36.9120 H   0  0  0  0  0  0  0  0  0  0  0  0
   38.2340   24.3950   41.6970 H   0  0  0  0  0  0  0  0  0  0  0  0
   37.0210   30.4760   41.1670 C   0  0  0  0  0  3  0  0  0  0  0  0
   37.0480   30.6860   39.8690 C   0  0  0  0  0  3  0  0  0  0  0  0
   36.9970   31.9700   39.1380 C   0  0  0  0  0  0  0  0  0  0  0  0
   36.8910   31.8290   38.0420 H   0  0  0  0  0  0  0  0  0  0  0  0
   36.0980   32.5350   39.4650 H   0  0  0  0  0  0  0  0  0  0  0  0
   39.6190   31.1310   37.7910 Cl  0  0  0  0  0  0  0  0  0  0  0  0
   39.4500   32.5130   38.8470 C   0  0  0  0  0  0  0  0  0  0  0  0
   38.2040   32.7650   39.3810 C   0  0  0  0  0  0  0  0  0  0  0  0
   38.1240   33.8800   40.2180 C   0  0  0  0  0  0  0  0  0  0  0  0
   37.1440   34.1080   40.6580 H   0  0  0  0  0  0  0  0  0  0  0  0
   39.1880   34.7060   40.5230 C   0  0  0  0  0  3  0  0  0  0  0  0
   40.4190   34.4210   39.9710 C   0  0  0  0  0  0  0  0  0  0  0  0
   41.7640   35.4740   40.3620 Cl  0  0  0  0  0  0  0  0  0  0  0  0
   40.5510   33.3130   39.1250 C   0  0  0  0  0  0  0  0  0  0  0  0
   41.5300   33.1260   38.7130 H   0  0  0  0  0  0  0  0  0  0  0  0
  1  2  1  0  0  0  0
  2  7  1  0  0  0  0
  2  3  2  0  0  0  0
  3  8  1  0  0  0  0
  4  3  1  0  0  0  0
  4  9  1  0  0  0  0
  5  4  2  0  0  0  0
  6  1  2  0  0  0  0
  6  5  1  0  0  0  0
 10 19  1  0  0  0  0
 10 15  1  0  0  0  0
 11 10  2  0  0  0  0
 12 11  1  0  0  0  0
 12 13  2  0  0  0  0
 13 14  1  0  0  0  0
 14 15  2  0  0  0  0
 14 18  1  0  0  0  0
 16 18  1  0  0  0  0
 16  1  1  0  0  0  0
 17 16  2  0  0  0  0
 18 22  1  0  0  0  0
 20 11  1  0  0  0  0
 21 12  1  0  0  0  0
 23  5  1  0  0  0  0
 24 23  2  0  0  0  0
 25 30  1  0  0  0  0
 25 27  1  0  0  0  0
 25 24  1  0  0  0  0
 26 25  1  0  0  0  0
 28 29  1  0  0  0  0
 29 36  2  0  0  0  0
 29 30  1  0  0  0  0
 30 31  2  0  0  0  0
 31 33  1  0  0  0  0
 31 32  1  0  0  0  0
 34 35  1  0  0  0  0
 34 33  2  0  0  0  0
 36 34  1  0  0  0  0
 37 36  1  0  0  0  0
M  END
>  <minimizedAffinity>
-6.01750088

$$$$

 OpenBabel03242510583D

 37 39  0  0  0  0  0  0  0  0999 V2000
   34.2360   28.3230   37.9530 C   0  0  0  0  0  0  0  0  0  0  0  0
   34.6070   27.0630   37.4410 C   0  0  0  0  0  0  0  0  0  0  0  0
   35.6480   26.3130   37.9520 C   0  0  0  0  0  0  0  0  0  0  0  0
   36.3450   26.8420   39.0150 C   0  0  0  0  0  0  0  0  0  0  0  0
   35.9800   28.0920   39.5260 C   0  0  0  0  0  0  0  0  0  0  0  0
   34.9670   28.7530   38.9800 N   0  0  0  0  0  0  0  0  0  0  0  0
   34.0270   26.6950   36.6070 H   0  0  0  0  0  0  0  0  0  0  0  0
   35.8640   25.3480   37.4930 H   0  0  0  0  0  0  0  0  0  0  0  0
   37.1640   26.2370   39.4080 H   0  0  0  0  0  0  0  0  0  0  0  0
   28.9810   31.2760   37.8150 C   0  0  0  0  0  0  0  0  0  0  0  0
   28.8570   31.3770   36.4210 C   0  0  0  0  0  0  0  0  0  0  0  0
   29.8310   30.7660   35.6320 C   0  0  0  0  0  0  0  0  0  0  0  0
   30.8510   30.1040   36.2390 N   0  0  0  0  0  0  0  0  0  0  0  0
   30.9300   30.0320   37.5860 C   0  0  0  0  0  0  0  0  0  0  0  0
   29.9870   30.6230   38.3940 N   0  0  0  0  0  0  0  0  0  0  0  0
   33.1270   29.0420   37.3520 C   0  0  0  0  0  0  0  0  0  0  0  0
   33.2150   29.3640   36.1320 O   0  0  0  0  0  0  0  0  0  0  0  0
   32.0120   29.3300   38.1910 N   0  0  0  0  0  0  0  0  0  0  0  0
   28.1970   31.7690   38.3730 H   0  0  0  0  0  0  0  0  0  0  0  0
   28.0420   31.9060   35.9200 H   0  0  0  0  0  0  0  0  0  0  0  0
   29.8400   30.7770   34.5600 H   0  0  0  0  0  0  0  0  0  0  0  0
   31.9460   29.0610   39.1900 H   0  0  0  0  0  0  0  0  0  0  0  0
   36.7190   28.6220   40.6510 C   0  0  0  0  0  3  0  0  0  0  0  0
   36.5750   28.0900   41.8440 C   0  0  0  0  0  3  0  0  0  0  0  0
   37.2110   28.4890   43.1180 C   0  0  0  0  0  0  0  0  0  0  0  0
   37.2680   29.5920   43.2350 H   0  0  0  0  0  0  0  0  0  0  0  0
   36.5890   28.1210   43.9620 H   0  0  0  0  0  0  0  0  0  0  0  0
   39.5870   30.3100   42.4580 Cl  0  0  0  0  0  0  0  0  0  0  0  0
   39.7310   28.6420   42.9600 C   0  0  0  0  0  0  0  0  0  0  0  0
   38.5690   27.9470   43.2230 C   0  0  0  0  0  0  0  0  0  0  0  0
   38.7410   26.6190   43.6200 C   0  0  0  0  0  0  0  0  0  0  0  0
   37.8340   26.0400   43.8370 H   0  0  0  0  0  0  0  0  0  0  0  0
   39.9660   25.9960   43.7560 C   0  0  0  0  0  3  0  0  0  0  0  0
   41.1050   26.7240   43.4830 C   0  0  0  0  0  0  0  0  0  0  0  0
   42.6550   25.9270   43.6590 Cl  0  0  0  0  0  0  0  0  0  0  0  0
   40.9860   28.0600   43.0820 C   0  0  0  0  0  0  0  0  0  0  0  0
   41.9020   28.5930   42.8790 H   0  0  0  0  0  0  0  0  0  0  0  0
  1  6  1  0  0  0  0
  2  3  1  0  0  0  0
  2  1  2  0  0  0  0
  3  4  2  0  0  0  0
  4  9  1  0  0  0  0
  4  5  1  0  0  0  0
  5 23  1  0  0  0  0
  6  5  2  0  0  0  0
  7  2  1  0  0  0  0
  8  3  1  0  0  0  0
 10 19  1  0  0  0  0
 10 15  1  0  0  0  0
 11 10  2  0  0  0  0
 12 13  2  0  0  0  0
 12 11  1  0  0  0  0
 13 14  1  0  0  0  0
 14 18  1  0  0  0  0
 14 15  2  0  0  0  0
 16  1  1  0  0  0  0
 16 18  1  0  0  0  0
 17 16  2  0  0  0  0
 18 22  1  0  0  0  0
 20 11  1  0  0  0  0
 21 12  1  0  0  0  0
 23 24  2  0  0  0  0
 24 25  1  0  0  0  0
 25 30  1  0  0  0  0
 25 26  1  0  0  0  0
 25 27  1  0  0  0  0
 28 29  1  0  0  0  0
 29 36  2  0  0  0  0
 29 30  1  0  0  0  0
 30 31  2  0  0  0  0
 31 33  1  0  0  0  0
 31 32  1  0  0  0  0
 34 35  1  0  0  0  0
 34 33  2  0  0  0  0
 36 34  1  0  0  0  0
 37 36  1  0  0  0  0
M  END
>  <minimizedAffinity>
-5.99474096

$$$$
