
 OpenBabel03252508173D

 48 52  0  0  1  0  0  0  0  0999 V2000
   46.7860   31.0620   46.9530 C   0  0  0  0  0  0  0  0  0  0  0  0
   45.8260   30.4840   47.0950 H   0  0  0  0  0  0  0  0  0  0  0  0
   47.4870   30.3660   46.5180 H   0  0  0  0  0  0  0  0  0  0  0  0
   47.1600   31.7020   48.2470 C   0  0  1  0  0  0  0  0  0  0  0  0
   47.0280   30.8400   49.4550 C   0  0  0  0  0  0  0  0  0  0  0  0
   48.3510   31.2340   48.9860 C   0  0  1  0  0  0  0  0  0  0  0  0
   46.6530   32.6920   48.4500 H   0  0  0  0  0  0  0  0  0  0  0  0
   46.6680   31.2260   50.4270 H   0  0  0  0  0  0  0  0  0  0  0  0
   46.7140   29.7820   49.3060 H   0  0  0  0  0  0  0  0  0  0  0  0
   48.8850   32.0030   49.5820 H   0  0  0  0  0  0  0  0  0  0  0  0
   49.2640   30.2640   48.3060 C   0  0  2  0  0  0  0  0  0  0  0  0
   49.5060   28.9810   49.1430 C   0  0  0  0  0  0  0  0  0  0  0  0
   50.5970   29.9440   48.9740 C   0  0  2  0  0  0  0  0  0  0  0  0
   49.1100   29.9950   47.2390 H   0  0  0  0  0  0  0  0  0  0  0  0
   49.5770   28.0150   48.6520 H   0  0  0  0  0  0  0  0  0  0  0  0
   49.0700   28.9240   50.1560 H   0  0  0  0  0  0  0  0  0  0  0  0
   51.3930   29.6680   48.2460 H   0  0  0  0  0  0  0  0  0  0  0  0
   51.0540   28.7180   51.6440 Cl  0  0  0  0  0  0  0  0  0  0  0  0
   51.2300   30.4480   51.3120 C   0  0  0  0  0  0  0  0  0  0  0  0
   50.9900   30.9030   50.0270 C   0  0  0  0  0  0  0  0  0  0  0  0
   51.1350   32.2590   49.7990 C   0  0  0  0  0  0  0  0  0  0  0  0
   50.9580   32.6560   48.8120 H   0  0  0  0  0  0  0  0  0  0  0  0
   51.5050   33.1400   50.8030 C   0  0  0  0  0  3  0  0  0  0  0  0
   51.7340   32.6410   52.0690 C   0  0  0  0  0  0  0  0  0  0  0  0
   52.2090   33.7070   53.3970 Cl  0  0  0  0  0  0  0  0  0  0  0  0
   51.6040   31.2980   52.3550 C   0  0  0  0  0  0  0  0  0  0  0  0
   51.7900   30.9350   53.3560 H   0  0  0  0  0  0  0  0  0  0  0  0
   45.8780   33.1130   46.2270 C   0  0  0  0  0  3  0  0  0  0  0  0
   46.5720   32.1120   45.8840 C   0  0  0  0  0  3  0  0  0  0  0  0
   44.5170   36.0600   44.4770 C   0  0  0  0  0  0  0  0  0  0  0  0
   45.1790   36.0350   43.2590 C   0  0  0  0  0  0  0  0  0  0  0  0
   46.0670   35.0120   43.0710 C   0  0  0  0  0  0  0  0  0  0  0  0
   46.2560   34.0900   44.0550 N   0  0  0  0  0  0  0  0  0  0  0  0
   45.5930   34.1470   45.2260 C   0  0  0  0  0  0  0  0  0  0  0  0
   44.7350   35.1360   45.4070 N   0  0  0  0  0  0  0  0  0  0  0  0
   43.8000   36.8590   44.6680 H   0  0  0  0  0  0  0  0  0  0  0  0
   45.0310   36.7630   42.4810 H   0  0  0  0  0  0  0  0  0  0  0  0
   46.8350   34.8570   41.8450 C   0  0  0  0  0  0  0  0  0  0  0  0
   48.0560   35.4320   41.6200 C   0  0  0  0  0  0  0  0  0  0  0  0
   48.7740   35.2760   40.4470 C   0  0  0  0  0  0  0  0  0  0  0  0
   48.2590   34.5090   39.4360 C   0  0  0  0  0  0  0  0  0  0  0  0
   47.0400   33.9090   39.6060 C   0  0  0  0  0  0  0  0  0  0  0  0
   46.3640   34.0960   40.7970 C   0  0  0  0  0  0  0  0  0  0  0  0
   48.4810   36.0520   42.4240 H   0  0  0  0  0  0  0  0  0  0  0  0
   49.7370   35.7890   40.3940 H   0  0  0  0  0  0  0  0  0  0  0  0
   48.9050   34.4530   38.5580 H   0  0  0  0  0  0  0  0  0  0  0  0
   46.6700   33.3140   38.7880 H   0  0  0  0  0  0  0  0  0  0  0  0
   45.4100   33.5870   40.8450 H   0  0  0  0  0  0  0  0  0  0  0  0
  1  2  1  0  0  0  0
  1  4  1  0  0  0  0
  3  1  1  0  0  0  0
  4  7  1  1  0  0  0
  4  6  1  0  0  0  0
  4  5  1  0  0  0  0
  5  8  1  0  0  0  0
  6  5  1  0  0  0  0
  6 10  1  1  0  0  0
  9  5  1  0  0  0  0
 11 14  1  6  0  0  0
 11 13  1  0  0  0  0
 11  6  1  0  0  0  0
 11 12  1  0  0  0  0
 12 16  1  0  0  0  0
 13 17  1  6  0  0  0
 13 12  1  0  0  0  0
 13 20  1  0  0  0  0
 15 12  1  0  0  0  0
 19 18  1  0  0  0  0
 19 26  1  0  0  0  0
 20 19  2  0  0  0  0
 21 20  1  0  0  0  0
 21 23  2  0  0  0  0
 22 21  1  0  0  0  0
 23 24  1  0  0  0  0
 24 26  2  0  0  0  0
 24 25  1  0  0  0  0
 26 27  1  0  0  0  0
 29 28  2  0  0  0  0
 29  1  1  0  0  0  0
 30 36  1  0  0  0  0
 30 35  1  0  0  0  0
 31 30  2  0  0  0  0
 32 31  1  0  0  0  0
 32 33  2  0  0  0  0
 33 34  1  0  0  0  0
 34 35  2  0  0  0  0
 34 28  1  0  0  0  0
 37 31  1  0  0  0  0
 38 32  1  0  0  0  0
 39 38  1  0  0  0  0
 39 44  1  0  0  0  0
 40 39  2  0  0  0  0
 41 42  2  0  0  0  0
 41 40  1  0  0  0  0
 42 43  1  0  0  0  0
 43 48  1  0  0  0  0
 43 38  2  0  0  0  0
 45 40  1  0  0  0  0
 46 41  1  0  0  0  0
 47 42  1  0  0  0  0
M  END
>  <minimizedAffinity>
-7.16771603

>  <minimizedRMSD>
2.31267285

$$$$
