
 OpenBabel03252508463D

 46 48  0  0  0  0  0  0  0  0999 V2000
   42.2610   31.7850   42.5680 N   0  0  0  0  0  0  0  0  0  0  0  0
   42.2630   32.3100   43.4830 H   0  0  0  0  0  0  0  0  0  0  0  0
   43.0680   32.4540   41.5960 C   0  0  0  0  0  0  0  0  0  0  0  0
   43.7440   31.7190   41.1180 H   0  0  0  0  0  0  0  0  0  0  0  0
   42.4520   32.8880   40.7700 H   0  0  0  0  0  0  0  0  0  0  0  0
   43.6370   34.8850   41.8550 C   0  0  0  0  0  0  0  0  0  0  0  0
   43.9190   33.5460   42.1550 C   0  0  0  0  0  0  0  0  0  0  0  0
   44.9940   33.2730   42.9740 C   0  0  0  0  0  0  0  0  0  0  0  0
   45.7610   34.2840   43.4750 C   0  0  0  0  0  0  0  0  0  0  0  0
   45.5020   35.6070   43.1940 C   0  0  0  0  0  0  0  0  0  0  0  0
   44.4130   35.8510   42.3680 C   0  0  0  0  0  0  0  0  0  0  0  0
   45.1680   32.2220   43.1730 H   0  0  0  0  0  0  0  0  0  0  0  0
   46.5870   33.9860   44.1080 H   0  0  0  0  0  0  0  0  0  0  0  0
   46.1310   36.3780   43.6100 H   0  0  0  0  0  0  0  0  0  0  0  0
   44.1760   36.8790   42.1230 H   0  0  0  0  0  0  0  0  0  0  0  0
   40.2400   35.8040   40.4900 C   0  0  0  0  0  0  0  0  0  0  0  0
   41.2750   35.6190   41.4300 C   0  0  0  0  0  0  0  0  0  0  0  0
   42.4960   35.1190   40.9900 C   0  0  0  0  0  0  0  0  0  0  0  0
   42.6070   34.8370   39.6580 N   0  0  0  0  0  0  0  0  0  0  0  0
   41.5980   35.0240   38.7720 C   0  0  0  0  0  0  0  0  0  0  0  0
   40.4260   35.5050   39.2030 N   0  0  0  0  0  0  0  0  0  0  0  0
   39.3610   36.1890   40.9640 H   0  0  0  0  0  0  0  0  0  0  0  0
   41.2210   35.8260   42.4710 H   0  0  0  0  0  0  0  0  0  0  0  0
   41.6740   34.8050   37.7290 H   0  0  0  0  0  0  0  0  0  0  0  0
   40.6140   31.6640   42.0890 S   0  0  0  0  0  0  0  0  0  0  0  0
   39.8320   32.8750   42.5430 O   0  0  0  0  0  0  0  0  0  0  0  0
   39.9000   33.7700   42.1000 H   0  0  0  0  0  0  0  0  0  0  0  0
   39.9940   30.4130   42.5820 O   0  0  0  0  0  0  0  0  0  0  0  0
   40.3200   29.7620   43.2470 H   0  0  0  0  0  0  0  0  0  0  0  0
   40.6120   31.6240   40.4060 O   0  0  0  0  0  0  0  0  0  0  0  0
   39.5050   30.9400   39.9710 C   0  0  0  0  0  0  0  0  0  0  0  0
   39.0680   31.5240   39.1340 H   0  0  0  0  0  0  0  0  0  0  0  0
   38.7050   30.7920   40.7080 H   0  0  0  0  0  0  0  0  0  0  0  0
   39.9450   29.5720   39.4170 C   0  0  0  0  0  0  0  0  0  0  0  0
   39.5230   28.8310   40.0960 H   0  0  0  0  0  0  0  0  0  0  0  0
   41.0280   29.5380   39.4960 H   0  0  0  0  0  0  0  0  0  0  0  0
   37.1020   28.5190   38.9460 Cl  0  0  0  0  0  0  0  0  0  0  0  0
   38.2210   28.9490   37.6690 C   0  0  0  0  0  0  0  0  0  0  0  0
   39.4670   29.4180   38.0210 C   0  0  0  0  0  0  0  0  0  0  0  0
   40.3710   29.7700   37.0120 C   0  0  0  0  0  0  0  0  0  0  0  0
   41.3550   30.1430   37.2670 H   0  0  0  0  0  0  0  0  0  0  0  0
   40.0440   29.6570   35.6760 C   0  0  0  0  0  3  0  0  0  0  0  0
   38.7930   29.1850   35.3690 C   0  0  0  0  0  0  0  0  0  0  0  0
   38.3990   29.0470   33.6530 Cl  0  0  0  0  0  0  0  0  0  0  0  0
   37.8580   28.8220   36.3310 C   0  0  0  0  0  0  0  0  0  0  0  0
   36.8640   28.4510   36.0410 H   0  0  0  0  0  0  0  0  0  0  0  0
  1  2  1  0  0  0  0
  3  7  1  0  0  0  0
  3  1  1  0  0  0  0
  4  3  1  0  0  0  0
  5  3  1  0  0  0  0
  6  7  2  0  0  0  0
  6 11  1  0  0  0  0
  7  8  1  0  0  0  0
  8 12  1  0  0  0  0
  8  9  2  0  0  0  0
  9 13  1  0  0  0  0
 10  9  1  0  0  0  0
 10 14  1  0  0  0  0
 11 10  2  0  0  0  0
 15 11  1  0  0  0  0
 16 22  1  0  0  0  0
 16 17  1  0  0  0  0
 17 23  1  0  0  0  0
 18 17  2  0  0  0  0
 18  6  1  0  0  0  0
 19 18  1  0  0  0  0
 20 21  1  0  0  0  0
 20 19  2  0  0  0  0
 21 16  2  0  0  0  0
 24 20  1  0  0  0  0
 25 26  1  0  0  0  0
 25  1  1  0  0  0  0
 25 28  1  0  0  0  0
 27 26  1  0  0  0  0
 28 29  1  0  0  0  0
 30 25  1  0  0  0  0
 31 30  1  0  0  0  0
 31 33  1  0  0  0  0
 32 31  1  0  0  0  0
 34 36  1  0  0  0  0
 34 31  1  0  0  0  0
 34 35  1  0  0  0  0
 38 39  1  0  0  0  0
 38 37  1  0  0  0  0
 39 34  1  0  0  0  0
 40 41  1  0  0  0  0
 40 39  2  0  0  0  0
 42 40  1  0  0  0  0
 43 42  2  0  0  0  0
 43 45  1  0  0  0  0
 44 43  1  0  0  0  0
 45 38  2  0  0  0  0
 46 45  1  0  0  0  0
M  END
>  <minimizedAffinity>
-5.40796947

>  <minimizedRMSD>
3.97246051

$$$$
