
 OpenBabel03252501103D

 21 22  0  0  0  0  0  0  0  0999 V2000
   47.2720   34.7230   42.0350 C   0  0  0  0  0  0  0  0  0  0  0  0
   48.1640   35.5980   41.7940 O   0  0  0  0  0  0  0  0  0  0  0  0
   49.1640   32.3520   42.3840 Cl  0  0  0  0  0  0  0  0  0  0  0  0
   48.1250   32.6360   40.9970 C   0  0  0  0  0  0  0  0  0  0  0  0
   47.3000   33.7490   40.9410 C   0  0  0  0  0  0  0  0  0  0  0  0
   46.5350   33.8490   39.7920 C   0  0  0  0  0  0  0  0  0  0  0  0
   45.8680   34.7060   39.6950 H   0  0  0  0  0  0  0  0  0  0  0  0
   46.5980   32.9040   38.7870 C   0  0  0  0  0  3  0  0  0  0  0  0
   47.4270   31.8200   38.8850 C   0  0  0  0  0  0  0  0  0  0  0  0
   47.4540   30.6580   37.5680 Cl  0  0  0  0  0  0  0  0  0  0  0  0
   48.2000   31.6820   40.0030 C   0  0  0  0  0  0  0  0  0  0  0  0
   48.8500   30.8190   40.0650 H   0  0  0  0  0  0  0  0  0  0  0  0
   44.6450   35.9140   44.3470 C   0  0  0  0  0  0  0  0  0  0  0  0
   45.4950   35.8130   43.2310 C   0  0  0  0  0  0  0  0  0  0  0  0
   46.4360   34.7700   43.2020 C   0  0  0  0  0  0  0  0  0  0  0  0
   46.4500   33.9320   44.2640 N   0  0  0  0  0  0  0  0  0  0  0  0
   45.6320   34.0460   45.3190 C   0  0  0  0  0  0  0  0  0  0  0  0
   44.7110   35.0530   45.3650 N   0  0  0  0  0  0  0  0  0  0  0  0
   43.9290   36.7190   44.3560 H   0  0  0  0  0  0  0  0  0  0  0  0
   45.3820   36.5450   42.4480 H   0  0  0  0  0  0  0  0  0  0  0  0
   45.7270   33.3150   46.1260 H   0  0  0  0  0  0  0  0  0  0  0  0
  1 15  1  0  0  0  0
  2  1  2  0  0  0  0
  4  3  1  0  0  0  0
  5  4  1  0  0  0  0
  5  1  1  0  0  0  0
  6  5  2  0  0  0  0
  7  6  1  0  0  0  0
  8  9  2  0  0  0  0
  8  6  1  0  0  0  0
  9 11  1  0  0  0  0
 10  9  1  0  0  0  0
 11 12  1  0  0  0  0
 11  4  2  0  0  0  0
 13 19  1  0  0  0  0
 13 18  1  0  0  0  0
 14 13  2  0  0  0  0
 15 14  1  0  0  0  0
 15 16  2  0  0  0  0
 16 17  1  0  0  0  0
 17 18  2  0  0  0  0
 17 21  1  0  0  0  0
 20 14  1  0  0  0  0
M  END
>  <minimizedAffinity>
-4.1578989

>  <minimizedRMSD>
1.22789991

$$$$
