
 OpenBabel03242512443D

 39 41  0  0  1  0  0  0  0  0999 V2000
   45.6350   34.3440   44.9790 C   0  0  0  0  0  0  0  0  0  0  0  0
   46.3960   34.0570   43.8350 C   0  0  0  0  0  0  0  0  0  0  0  0
   47.2040   32.9200   43.8770 C   0  0  0  0  0  0  0  0  0  0  0  0
   47.2020   32.1630   45.0230 N   0  0  0  0  0  0  0  0  0  0  0  0
   46.4570   32.4920   46.0740 C   0  0  0  0  0  0  0  0  0  0  0  0
   45.6600   33.5820   46.0770 N   0  0  0  0  0  0  0  0  0  0  0  0
   46.5280   31.6040   47.2240 N   0  0  0  0  0  0  0  0  0  0  0  0
   46.3250   32.1930   48.5220 C   0  0  0  0  0  0  0  0  0  0  0  0
   45.6130   31.2730   49.4160 C   0  0  0  0  0  0  0  0  0  0  0  0
   45.0370   30.0240   48.8330 C   0  0  0  0  0  0  0  0  0  0  0  0
   45.8920   29.3560   47.8190 C   0  0  0  0  0  0  0  0  0  0  0  0
   46.7760   30.2040   46.9930 C   0  0  2  0  0  0  0  0  0  0  0  0
   46.3870   34.6560   42.9500 H   0  0  0  0  0  0  0  0  0  0  0  0
   47.8080   32.6570   43.0240 H   0  0  0  0  0  0  0  0  0  0  0  0
   45.7480   33.1610   48.4010 H   0  0  0  0  0  0  0  0  0  0  0  0
   47.3010   32.5170   48.9150 H   0  0  0  0  0  0  0  0  0  0  0  0
   44.7800   31.8060   49.9250 H   0  0  0  0  0  0  0  0  0  0  0  0
   46.2910   30.9500   50.2560 H   0  0  0  0  0  0  0  0  0  0  0  0
   44.0580   30.2660   48.3760 H   0  0  0  0  0  0  0  0  0  0  0  0
   44.8240   29.3330   49.6840 H   0  0  0  0  0  0  0  0  0  0  0  0
   45.2500   28.6530   47.2500 H   0  0  0  0  0  0  0  0  0  0  0  0
   46.5690   28.6670   48.4070 H   0  0  0  0  0  0  0  0  0  0  0  0
   46.4330   30.0160   45.9200 H   0  0  0  0  0  0  0  0  0  0  0  0
   48.2370   30.6440   49.5460 Cl  0  0  0  0  0  0  0  0  0  0  0  0
   49.0190   29.9670   48.1050 C   0  0  0  0  0  0  0  0  0  0  0  0
   48.2000   29.8140   46.9740 C   0  0  0  0  0  0  0  0  0  0  0  0
   48.8990   29.2830   45.9120 C   0  0  0  0  0  0  0  0  0  0  0  0
   48.3890   29.1230   44.9940 H   0  0  0  0  0  0  0  0  0  0  0  0
   50.2280   28.9340   45.9220 C   0  0  0  0  0  0  0  0  0  0  0  0
   50.9550   29.1190   47.0780 C   0  0  0  0  0  0  0  0  0  0  0  0
   52.6490   28.7170   47.2160 Cl  0  0  0  0  0  0  0  0  0  0  0  0
   50.3560   29.6460   48.2040 C   0  0  0  0  0  0  0  0  0  0  0  0
   50.8700   29.8160   49.1400 H   0  0  0  0  0  0  0  0  0  0  0  0
   44.8600   35.4660   44.8890 O   0  0  0  0  0  0  0  0  0  0  0  0
   44.4660   36.0770   43.7080 C   0  0  0  0  0  0  0  0  0  0  0  0
   45.0980   37.0170   43.1540 O   0  0  0  0  0  0  0  0  0  0  0  0
   43.3150   35.7340   42.9680 N   0  0  0  0  0  0  0  0  0  0  0  0
   43.1970   35.3810   41.9960 H   0  0  0  0  0  0  0  0  0  0  0  0
   42.2940   35.7490   43.2150 H   0  0  0  0  0  0  0  0  0  0  0  0
  1  6  1  0  0  0  0
  2  3  1  0  0  0  0
  2  1  2  0  0  0  0
  3  4  2  0  0  0  0
  4  5  1  0  0  0  0
  5  6  2  0  0  0  0
  5  7  1  0  0  0  0
  7  8  1  0  0  0  0
  8 16  1  0  0  0  0
  8  9  1  0  0  0  0
  9 17  1  0  0  0  0
  9 18  1  0  0  0  0
 10  9  1  0  0  0  0
 10 20  1  0  0  0  0
 11 22  1  0  0  0  0
 11 10  1  0  0  0  0
 12 23  1  6  0  0  0
 12  7  1  0  0  0  0
 12 11  1  0  0  0  0
 13  2  1  0  0  0  0
 14  3  1  0  0  0  0
 15  8  1  0  0  0  0
 19 10  1  0  0  0  0
 21 11  1  0  0  0  0
 25 32  1  0  0  0  0
 25 24  1  0  0  0  0
 26 12  1  0  0  0  0
 26 25  2  0  0  0  0
 27 29  2  0  0  0  0
 27 26  1  0  0  0  0
 28 27  1  0  0  0  0
 29 30  1  0  0  0  0
 30 31  1  0  0  0  0
 30 32  2  0  0  0  0
 32 33  1  0  0  0  0
 34  1  1  0  0  0  0
 35 34  1  0  0  0  0
 36 35  2  0  0  0  0
 37 39  1  0  0  0  0
 37 35  1  0  0  0  0
 38 37  1  0  0  0  0
M  END
>  <minimizedAffinity>
-6.26695681

>  <minimizedRMSD>
0.730799496

$$$$
