
 OpenBabel03242517203D

 40 42  0  0  0  0  0  0  0  0999 V2000
   34.7260   29.4190   39.8270 C   0  0  0  0  0  0  0  0  0  0  0  0
   34.9630   28.5380   38.7470 C   0  0  0  0  0  0  0  0  0  0  0  0
   35.9160   27.5570   38.9220 C   0  0  0  0  0  0  0  0  0  0  0  0
   36.5610   27.5030   40.1170 N   0  0  0  0  0  0  0  0  0  0  0  0
   36.3140   28.3580   41.1290 C   0  0  0  0  0  0  0  0  0  0  0  0
   35.3940   29.3070   40.9670 N   0  0  0  0  0  0  0  0  0  0  0  0
   33.9860   30.2020   39.7310 H   0  0  0  0  0  0  0  0  0  0  0  0
   36.1270   26.8650   38.1210 H   0  0  0  0  0  0  0  0  0  0  0  0
   37.0180   28.2880   42.4180 C   0  0  0  0  0  0  0  0  0  0  0  0
   36.4010   28.7920   43.1970 H   0  0  0  0  0  0  0  0  0  0  0  0
   37.9530   28.8490   42.3610 H   0  0  0  0  0  0  0  0  0  0  0  0
   37.1710   26.8670   42.8620 C   0  0  0  0  0  0  0  0  0  0  0  0
   36.5450   26.2130   42.2450 H   0  0  0  0  0  0  0  0  0  0  0  0
   36.7440   26.8280   43.9070 H   0  0  0  0  0  0  0  0  0  0  0  0
   37.8400   24.0510   41.8510 Cl  0  0  0  0  0  0  0  0  0  0  0  0
   39.0000   25.1460   42.5660 C   0  0  0  0  0  0  0  0  0  0  0  0
   38.5450   26.3780   42.9720 C   0  0  0  0  0  0  0  0  0  0  0  0
   39.4720   27.2540   43.5450 C   0  0  0  0  0  0  0  0  0  0  0  0
   39.1560   28.2510   43.8850 H   0  0  0  0  0  0  0  0  0  0  0  0
   40.7890   26.8580   43.6800 C   0  0  0  0  0  3  0  0  0  0  0  0
   41.2040   25.6120   43.2590 C   0  0  0  0  0  0  0  0  0  0  0  0
   42.8870   25.2050   43.4730 Cl  0  0  0  0  0  0  0  0  0  0  0  0
   40.3040   24.7090   42.6810 C   0  0  0  0  0  0  0  0  0  0  0  0
   40.6340   23.7340   42.3550 H   0  0  0  0  0  0  0  0  0  0  0  0
   34.2120   28.6790   37.4930 C   0  0  0  0  0  3  0  0  0  0  0  0
   32.9210   28.9070   37.4230 C   0  0  0  0  0  3  0  0  0  0  0  0
   32.1790   29.0470   36.1410 C   0  0  0  0  0  0  0  0  0  0  0  0
   32.8640   29.0290   35.2660 H   0  0  0  0  0  0  0  0  0  0  0  0
   31.5180   28.1630   36.0510 H   0  0  0  0  0  0  0  0  0  0  0  0
   32.1190   30.7300   33.9010 F   0  0  0  0  0  0  0  0  0  0  0  0
   31.3910   31.0760   34.9770 C   0  0  0  0  0  0  0  0  0  0  0  0
   31.3950   30.2720   36.1010 C   0  0  0  0  0  0  0  0  0  0  0  0
   30.6110   30.7360   37.1300 C   0  0  0  0  0  0  0  0  0  0  0  0
   29.8490   31.8910   37.1430 C   0  0  0  0  0  0  0  0  0  0  0  0
   29.9070   32.6350   35.9720 C   0  0  0  0  0  0  0  0  0  0  0  0
   30.6600   32.2630   34.8750 C   0  0  0  0  0  0  0  0  0  0  0  0
   30.5740   30.1440   38.0450 H   0  0  0  0  0  0  0  0  0  0  0  0
   29.2620   32.2010   37.9700 H   0  0  0  0  0  0  0  0  0  0  0  0
   29.3480   33.5680   35.8570 H   0  0  0  0  0  0  0  0  0  0  0  0
   30.6940   32.8470   33.9780 H   0  0  0  0  0  0  0  0  0  0  0  0
  1  6  1  0  0  0  0
  2  3  1  0  0  0  0
  2  1  2  0  0  0  0
  3  4  2  0  0  0  0
  4  5  1  0  0  0  0
  5  9  1  0  0  0  0
  6  5  2  0  0  0  0
  7  1  1  0  0  0  0
  8  3  1  0  0  0  0
  9 12  1  0  0  0  0
  9 10  1  0  0  0  0
 11  9  1  0  0  0  0
 12 17  1  0  0  0  0
 12 14  1  0  0  0  0
 13 12  1  0  0  0  0
 15 16  1  0  0  0  0
 16 23  2  0  0  0  0
 16 17  1  0  0  0  0
 17 18  2  0  0  0  0
 18 20  1  0  0  0  0
 18 19  1  0  0  0  0
 21 22  1  0  0  0  0
 21 20  2  0  0  0  0
 23 21  1  0  0  0  0
 24 23  1  0  0  0  0
 25  2  1  0  0  0  0
 26 25  2  0  0  0  0
 27 26  1  0  0  0  0
 28 27  1  0  0  0  0
 29 27  1  0  0  0  0
 30 31  1  0  0  0  0
 31 32  1  0  0  0  0
 32 27  1  0  0  0  0
 32 33  2  0  0  0  0
 33 34  1  0  0  0  0
 33 37  1  0  0  0  0
 34 38  1  0  0  0  0
 35 34  2  0  0  0  0
 36 31  2  0  0  0  0
 36 35  1  0  0  0  0
 39 35  1  0  0  0  0
 40 36  1  0  0  0  0
M  END
>  <minimizedAffinity>
-6.51593494

$$$$

 OpenBabel03242517203D

 40 42  0  0  0  0  0  0  0  0999 V2000
   35.1930   29.2110   40.3230 C   0  0  0  0  0  0  0  0  0  0  0  0
   35.7240   29.0540   39.0230 C   0  0  0  0  0  0  0  0  0  0  0  0
   37.0850   28.8580   38.9090 C   0  0  0  0  0  0  0  0  0  0  0  0
   37.8210   28.8300   40.0530 N   0  0  0  0  0  0  0  0  0  0  0  0
   37.2850   28.9830   41.2790 C   0  0  0  0  0  0  0  0  0  0  0  0
   35.9730   29.1720   41.3960 N   0  0  0  0  0  0  0  0  0  0  0  0
   34.1300   29.3660   40.4560 H   0  0  0  0  0  0  0  0  0  0  0  0
   37.5290   28.7340   37.9340 H   0  0  0  0  0  0  0  0  0  0  0  0
   38.0930   28.9500   42.5080 C   0  0  0  0  0  0  0  0  0  0  0  0
   37.8460   29.8420   43.1290 H   0  0  0  0  0  0  0  0  0  0  0  0
   39.1520   29.0360   42.2590 H   0  0  0  0  0  0  0  0  0  0  0  0
   37.7430   27.7550   43.3390 C   0  0  0  0  0  0  0  0  0  0  0  0
   36.7240   27.8560   43.7300 H   0  0  0  0  0  0  0  0  0  0  0  0
   38.4340   27.7940   44.2330 H   0  0  0  0  0  0  0  0  0  0  0  0
   40.5770   26.5870   43.3030 Cl  0  0  0  0  0  0  0  0  0  0  0  0
   39.1750   25.8010   42.6160 C   0  0  0  0  0  0  0  0  0  0  0  0
   37.9700   26.4540   42.7120 C   0  0  0  0  0  0  0  0  0  0  0  0
   36.8480   25.8270   42.1610 C   0  0  0  0  0  0  0  0  0  0  0  0
   35.8620   26.3100   42.2130 H   0  0  0  0  0  0  0  0  0  0  0  0
   36.9880   24.5940   41.5520 C   0  0  0  0  0  3  0  0  0  0  0  0
   38.2170   23.9730   41.4770 C   0  0  0  0  0  0  0  0  0  0  0  0
   38.2910   22.4190   40.6880 Cl  0  0  0  0  0  0  0  0  0  0  0  0
   39.3620   24.5710   42.0170 C   0  0  0  0  0  0  0  0  0  0  0  0
   40.3220   24.0810   41.9550 H   0  0  0  0  0  0  0  0  0  0  0  0
   34.8450   29.1000   37.8490 C   0  0  0  0  0  3  0  0  0  0  0  0
   33.5520   28.8690   37.8800 C   0  0  0  0  0  3  0  0  0  0  0  0
   32.6780   28.9220   36.6780 C   0  0  0  0  0  0  0  0  0  0  0  0
   33.2630   29.1100   35.7520 H   0  0  0  0  0  0  0  0  0  0  0  0
   32.2160   27.9220   36.5690 H   0  0  0  0  0  0  0  0  0  0  0  0
   32.1110   30.7520   34.6320 F   0  0  0  0  0  0  0  0  0  0  0  0
   31.3990   30.8290   35.7700 C   0  0  0  0  0  0  0  0  0  0  0  0
   31.6490   29.9440   36.8010 C   0  0  0  0  0  0  0  0  0  0  0  0
   30.8550   30.1270   37.9080 C   0  0  0  0  0  0  0  0  0  0  0  0
   29.8660   31.0810   38.0760 C   0  0  0  0  0  0  0  0  0  0  0  0
   29.6860   31.9250   36.9870 C   0  0  0  0  0  0  0  0  0  0  0  0
   30.4270   31.8310   35.8260 C   0  0  0  0  0  0  0  0  0  0  0  0
   31.0050   29.4590   38.7560 H   0  0  0  0  0  0  0  0  0  0  0  0
   29.2820   31.1760   38.9560 H   0  0  0  0  0  0  0  0  0  0  0  0
   28.9350   32.7190   36.9970 H   0  0  0  0  0  0  0  0  0  0  0  0
   30.2760   32.4890   34.9940 H   0  0  0  0  0  0  0  0  0  0  0  0
  1  7  1  0  0  0  0
  1  6  1  0  0  0  0
  2  1  2  0  0  0  0
  3  2  1  0  0  0  0
  3  4  2  0  0  0  0
  4  5  1  0  0  0  0
  5  6  2  0  0  0  0
  5  9  1  0  0  0  0
  8  3  1  0  0  0  0
  9 10  1  0  0  0  0
  9 12  1  0  0  0  0
 11  9  1  0  0  0  0
 12 13  1  0  0  0  0
 12 14  1  0  0  0  0
 16 17  1  0  0  0  0
 16 15  1  0  0  0  0
 17 12  1  0  0  0  0
 18 19  1  0  0  0  0
 18 17  2  0  0  0  0
 20 18  1  0  0  0  0
 21 20  2  0  0  0  0
 21 23  1  0  0  0  0
 22 21  1  0  0  0  0
 23 16  2  0  0  0  0
 24 23  1  0  0  0  0
 25 26  2  0  0  0  0
 25  2  1  0  0  0  0
 27 32  1  0  0  0  0
 27 26  1  0  0  0  0
 28 27  1  0  0  0  0
 29 27  1  0  0  0  0
 30 31  1  0  0  0  0
 31 36  2  0  0  0  0
 31 32  1  0  0  0  0
 32 33  2  0  0  0  0
 33 34  1  0  0  0  0
 33 37  1  0  0  0  0
 34 38  1  0  0  0  0
 35 39  1  0  0  0  0
 35 34  2  0  0  0  0
 36 35  1  0  0  0  0
 40 36  1  0  0  0  0
M  END
>  <minimizedAffinity>
-6.38354826

$$$$

 OpenBabel03242517203D

 40 42  0  0  0  0  0  0  0  0999 V2000
   36.8390   29.1500   38.7040 C   0  0  0  0  0  0  0  0  0  0  0  0
   35.4320   29.1100   38.8340 C   0  0  0  0  0  0  0  0  0  0  0  0
   34.9030   29.2750   40.0970 C   0  0  0  0  0  0  0  0  0  0  0  0
   35.7690   29.4640   41.1280 N   0  0  0  0  0  0  0  0  0  0  0  0
   37.1060   29.4980   40.9740 C   0  0  0  0  0  0  0  0  0  0  0  0
   37.6240   29.3400   39.7570 N   0  0  0  0  0  0  0  0  0  0  0  0
   37.2950   29.0250   37.7310 H   0  0  0  0  0  0  0  0  0  0  0  0
   33.8340   29.2500   40.2380 H   0  0  0  0  0  0  0  0  0  0  0  0
   38.0310   29.7040   42.0990 C   0  0  0  0  0  0  0  0  0  0  0  0
   37.7390   30.6310   42.6430 H   0  0  0  0  0  0  0  0  0  0  0  0
   39.0410   29.8780   41.7220 H   0  0  0  0  0  0  0  0  0  0  0  0
   37.9200   28.5870   43.0880 C   0  0  0  0  0  0  0  0  0  0  0  0
   36.9770   28.6690   43.6410 H   0  0  0  0  0  0  0  0  0  0  0  0
   38.7470   28.7610   43.8380 H   0  0  0  0  0  0  0  0  0  0  0  0
   40.7380   27.7610   42.2070 Cl  0  0  0  0  0  0  0  0  0  0  0  0
   39.3330   26.7250   42.1230 C   0  0  0  0  0  0  0  0  0  0  0  0
   38.1360   27.2410   42.5570 C   0  0  0  0  0  0  0  0  0  0  0  0
   37.0110   26.4140   42.4890 C   0  0  0  0  0  0  0  0  0  0  0  0
   36.0300   26.7820   42.8240 H   0  0  0  0  0  0  0  0  0  0  0  0
   37.1400   25.1280   41.9980 C   0  0  0  0  0  3  0  0  0  0  0  0
   38.3610   24.6490   41.5720 C   0  0  0  0  0  0  0  0  0  0  0  0
   38.4220   23.0130   40.9680 Cl  0  0  0  0  0  0  0  0  0  0  0  0
   39.5090   25.4490   41.6260 C   0  0  0  0  0  0  0  0  0  0  0  0
   40.4620   25.0700   41.2900 H   0  0  0  0  0  0  0  0  0  0  0  0
   34.5820   28.8990   37.6560 C   0  0  0  0  0  3  0  0  0  0  0  0
   33.2690   28.9310   37.6740 C   0  0  0  0  0  3  0  0  0  0  0  0
   32.4240   28.7160   36.4680 C   0  0  0  0  0  0  0  0  0  0  0  0
   33.0080   28.2740   35.6320 H   0  0  0  0  0  0  0  0  0  0  0  0
   31.6470   27.9770   36.7440 H   0  0  0  0  0  0  0  0  0  0  0  0
   30.6900   30.2230   38.0730 F   0  0  0  0  0  0  0  0  0  0  0  0
   30.9580   30.6680   36.8330 C   0  0  0  0  0  0  0  0  0  0  0  0
   31.8080   29.9520   36.0120 C   0  0  0  0  0  0  0  0  0  0  0  0
   32.0000   30.5130   34.7710 C   0  0  0  0  0  0  0  0  0  0  0  0
   31.4400   31.6830   34.2890 C   0  0  0  0  0  0  0  0  0  0  0  0
   30.6000   32.3340   35.1840 C   0  0  0  0  0  0  0  0  0  0  0  0
   30.3370   31.8610   36.4550 C   0  0  0  0  0  0  0  0  0  0  0  0
   32.6620   29.9930   34.0780 H   0  0  0  0  0  0  0  0  0  0  0  0
   31.6250   32.0690   33.3180 H   0  0  0  0  0  0  0  0  0  0  0  0
   30.0980   33.2680   34.9210 H   0  0  0  0  0  0  0  0  0  0  0  0
   29.6870   32.3750   37.1340 H   0  0  0  0  0  0  0  0  0  0  0  0
  1  2  2  0  0  0  0
  1  6  1  0  0  0  0
  2  3  1  0  0  0  0
  3  8  1  0  0  0  0
  3  4  2  0  0  0  0
  5  4  1  0  0  0  0
  5  9  1  0  0  0  0
  6  5  2  0  0  0  0
  7  1  1  0  0  0  0
  9 10  1  0  0  0  0
  9 12  1  0  0  0  0
 11  9  1  0  0  0  0
 12 13  1  0  0  0  0
 12 14  1  0  0  0  0
 16 15  1  0  0  0  0
 16 17  1  0  0  0  0
 17 12  1  0  0  0  0
 18 17  2  0  0  0  0
 18 19  1  0  0  0  0
 20 18  1  0  0  0  0
 21 23  1  0  0  0  0
 21 20  2  0  0  0  0
 22 21  1  0  0  0  0
 23 16  2  0  0  0  0
 24 23  1  0  0  0  0
 25 26  2  0  0  0  0
 25  2  1  0  0  0  0
 27 29  1  0  0  0  0
 27 26  1  0  0  0  0
 28 27  1  0  0  0  0
 31 30  1  0  0  0  0
 32 27  1  0  0  0  0
 32 31  2  0  0  0  0
 33 32  1  0  0  0  0
 34 33  2  0  0  0  0
 34 35  1  0  0  0  0
 35 36  2  0  0  0  0
 36 31  1  0  0  0  0
 36 40  1  0  0  0  0
 37 33  1  0  0  0  0
 38 34  1  0  0  0  0
 39 35  1  0  0  0  0
M  END
>  <minimizedAffinity>
-6.26922607

$$$$

 OpenBabel03242517203D

 40 42  0  0  0  0  0  0  0  0999 V2000
   36.2670   29.9210   38.5090 C   0  0  0  0  0  0  0  0  0  0  0  0
   35.1710   29.3320   39.1790 C   0  0  0  0  0  0  0  0  0  0  0  0
   35.2980   29.1080   40.5350 C   0  0  0  0  0  0  0  0  0  0  0  0
   36.4660   29.4680   41.1310 N   0  0  0  0  0  0  0  0  0  0  0  0
   37.4940   30.0280   40.4640 C   0  0  0  0  0  0  0  0  0  0  0  0
   37.3770   30.2480   39.1560 N   0  0  0  0  0  0  0  0  0  0  0  0
   36.2070   30.1140   37.4450 H   0  0  0  0  0  0  0  0  0  0  0  0
   34.4850   28.6590   41.0830 H   0  0  0  0  0  0  0  0  0  0  0  0
   38.7510   30.4150   41.1220 C   0  0  0  0  0  0  0  0  0  0  0  0
   38.8230   31.5260   41.1440 H   0  0  0  0  0  0  0  0  0  0  0  0
   39.6010   30.0660   40.5320 H   0  0  0  0  0  0  0  0  0  0  0  0
   38.7600   29.9690   42.5510 C   0  0  0  0  0  0  0  0  0  0  0  0
   37.7330   29.8240   42.9040 H   0  0  0  0  0  0  0  0  0  0  0  0
   39.1810   30.8370   43.1380 H   0  0  0  0  0  0  0  0  0  0  0  0
   37.4970   27.4130   43.6800 Cl  0  0  0  0  0  0  0  0  0  0  0  0
   39.2040   27.6160   43.3640 C   0  0  0  0  0  0  0  0  0  0  0  0
   39.6180   28.8240   42.8560 C   0  0  0  0  0  0  0  0  0  0  0  0
   40.9830   28.9870   42.6040 C   0  0  0  0  0  0  0  0  0  0  0  0
   41.3630   29.9360   42.1980 H   0  0  0  0  0  0  0  0  0  0  0  0
   41.8540   27.9470   42.8680 C   0  0  0  0  0  3  0  0  0  0  0  0
   41.3970   26.7490   43.3780 C   0  0  0  0  0  0  0  0  0  0  0  0
   42.5730   25.4970   43.6790 Cl  0  0  0  0  0  0  0  0  0  0  0  0
   40.0360   26.5500   43.6430 C   0  0  0  0  0  0  0  0  0  0  0  0
   39.6840   25.6110   44.0430 H   0  0  0  0  0  0  0  0  0  0  0  0
   33.9510   28.9770   38.4440 C   0  0  0  0  0  3  0  0  0  0  0  0
   33.7650   29.2000   37.1630 C   0  0  0  0  0  3  0  0  0  0  0  0
   32.5200   28.8320   36.4360 C   0  0  0  0  0  0  0  0  0  0  0  0
   32.7360   28.2050   35.5440 H   0  0  0  0  0  0  0  0  0  0  0  0
   31.9130   28.2130   37.1250 H   0  0  0  0  0  0  0  0  0  0  0  0
   30.8120   30.2320   38.1620 F   0  0  0  0  0  0  0  0  0  0  0  0
   30.9390   30.6710   36.8980 C   0  0  0  0  0  0  0  0  0  0  0  0
   31.7710   30.0070   36.0170 C   0  0  0  0  0  0  0  0  0  0  0  0
   31.8130   30.5550   34.7570 C   0  0  0  0  0  0  0  0  0  0  0  0
   31.1230   31.6680   34.3080 C   0  0  0  0  0  0  0  0  0  0  0  0
   30.3120   32.2690   35.2620 C   0  0  0  0  0  0  0  0  0  0  0  0
   30.1950   31.8030   36.5570 C   0  0  0  0  0  0  0  0  0  0  0  0
   32.4540   30.0750   34.0170 H   0  0  0  0  0  0  0  0  0  0  0  0
   31.1940   32.0460   33.3200 H   0  0  0  0  0  0  0  0  0  0  0  0
   29.7170   33.1560   35.0310 H   0  0  0  0  0  0  0  0  0  0  0  0
   29.5650   32.2780   37.2830 H   0  0  0  0  0  0  0  0  0  0  0  0
  1  6  2  0  0  0  0
  1  2  1  0  0  0  0
  2  3  2  0  0  0  0
  3  8  1  0  0  0  0
  3  4  1  0  0  0  0
  5  9  1  0  0  0  0
  5  4  2  0  0  0  0
  6  5  1  0  0  0  0
  7  1  1  0  0  0  0
  9 10  1  0  0  0  0
  9 12  1  0  0  0  0
 11  9  1  0  0  0  0
 12 17  1  0  0  0  0
 12 13  1  0  0  0  0
 12 14  1  0  0  0  0
 16 23  1  0  0  0  0
 16 15  1  0  0  0  0
 17 16  2  0  0  0  0
 18 17  1  0  0  0  0
 18 20  2  0  0  0  0
 19 18  1  0  0  0  0
 20 21  1  0  0  0  0
 21 23  2  0  0  0  0
 21 22  1  0  0  0  0
 23 24  1  0  0  0  0
 25  2  1  0  0  0  0
 26 25  2  0  0  0  0
 27 29  1  0  0  0  0
 27 26  1  0  0  0  0
 28 27  1  0  0  0  0
 31 30  1  0  0  0  0
 32 27  1  0  0  0  0
 32 31  2  0  0  0  0
 33 32  1  0  0  0  0
 34 33  2  0  0  0  0
 34 35  1  0  0  0  0
 35 36  2  0  0  0  0
 36 31  1  0  0  0  0
 36 40  1  0  0  0  0
 37 33  1  0  0  0  0
 38 34  1  0  0  0  0
 39 35  1  0  0  0  0
M  END
>  <minimizedAffinity>
-6.23777819

$$$$

 OpenBabel03242517203D

 40 42  0  0  0  0  0  0  0  0999 V2000
   35.1140   29.4890   40.3060 C   0  0  0  0  0  0  0  0  0  0  0  0
   35.0520   28.9810   38.9880 C   0  0  0  0  0  0  0  0  0  0  0  0
   36.2430   28.6560   38.3730 C   0  0  0  0  0  0  0  0  0  0  0  0
   37.3920   28.8450   39.0740 N   0  0  0  0  0  0  0  0  0  0  0  0
   37.4200   29.3310   40.3300 C   0  0  0  0  0  0  0  0  0  0  0  0
   36.2740   29.6470   40.9300 N   0  0  0  0  0  0  0  0  0  0  0  0
   34.2030   29.7560   40.8240 H   0  0  0  0  0  0  0  0  0  0  0  0
   36.2380   28.2660   37.3670 H   0  0  0  0  0  0  0  0  0  0  0  0
   38.6710   29.5310   41.0770 C   0  0  0  0  0  0  0  0  0  0  0  0
   38.6790   30.5600   41.5040 H   0  0  0  0  0  0  0  0  0  0  0  0
   39.5230   29.4770   40.3970 H   0  0  0  0  0  0  0  0  0  0  0  0
   38.7460   28.5960   42.2440 C   0  0  0  0  0  0  0  0  0  0  0  0
   38.1320   28.9760   43.0680 H   0  0  0  0  0  0  0  0  0  0  0  0
   39.8180   28.6360   42.5970 H   0  0  0  0  0  0  0  0  0  0  0  0
   36.2850   27.2610   43.4930 Cl  0  0  0  0  0  0  0  0  0  0  0  0
   37.4150   26.4540   42.4320 C   0  0  0  0  0  0  0  0  0  0  0  0
   38.4710   27.1890   41.9510 C   0  0  0  0  0  0  0  0  0  0  0  0
   39.3770   26.5440   41.1030 C   0  0  0  0  0  0  0  0  0  0  0  0
   40.2390   27.0900   40.6930 H   0  0  0  0  0  0  0  0  0  0  0  0
   39.1800   25.2140   40.7840 C   0  0  0  0  0  3  0  0  0  0  0  0
   38.1060   24.5120   41.2890 C   0  0  0  0  0  0  0  0  0  0  0  0
   37.9440   22.8370   40.8270 Cl  0  0  0  0  0  0  0  0  0  0  0  0
   37.1790   25.1250   42.1400 C   0  0  0  0  0  0  0  0  0  0  0  0
   36.3400   24.5710   42.5340 H   0  0  0  0  0  0  0  0  0  0  0  0
   33.7580   28.8140   38.3150 C   0  0  0  0  0  3  0  0  0  0  0  0
   33.5800   28.9060   37.0170 C   0  0  0  0  0  3  0  0  0  0  0  0
   32.2600   28.7310   36.3540 C   0  0  0  0  0  0  0  0  0  0  0  0
   32.3310   28.0680   35.4650 H   0  0  0  0  0  0  0  0  0  0  0  0
   31.5960   28.2250   37.0810 H   0  0  0  0  0  0  0  0  0  0  0  0
   30.7020   30.3070   38.0710 F   0  0  0  0  0  0  0  0  0  0  0  0
   30.9240   30.7540   36.8230 C   0  0  0  0  0  0  0  0  0  0  0  0
   31.6860   30.0050   35.9460 C   0  0  0  0  0  0  0  0  0  0  0  0
   31.8390   30.5720   34.7030 C   0  0  0  0  0  0  0  0  0  0  0  0
   31.3170   31.7770   34.2670 C   0  0  0  0  0  0  0  0  0  0  0  0
   30.5640   32.4590   35.2150 C   0  0  0  0  0  0  0  0  0  0  0  0
   30.3480   31.9840   36.4940 C   0  0  0  0  0  0  0  0  0  0  0  0
   32.4310   30.0280   33.9670 H   0  0  0  0  0  0  0  0  0  0  0  0
   31.4660   32.1660   33.2910 H   0  0  0  0  0  0  0  0  0  0  0  0
   30.1000   33.4230   34.9920 H   0  0  0  0  0  0  0  0  0  0  0  0
   29.7660   32.5220   37.2150 H   0  0  0  0  0  0  0  0  0  0  0  0
  1  7  1  0  0  0  0
  1  6  1  0  0  0  0
  2  1  2  0  0  0  0
  3  2  1  0  0  0  0
  3  4  2  0  0  0  0
  4  5  1  0  0  0  0
  5  6  2  0  0  0  0
  5  9  1  0  0  0  0
  8  3  1  0  0  0  0
  9 10  1  0  0  0  0
  9 12  1  0  0  0  0
 11  9  1  0  0  0  0
 12 14  1  0  0  0  0
 12 13  1  0  0  0  0
 16 15  1  0  0  0  0
 17 12  1  0  0  0  0
 17 16  2  0  0  0  0
 18 17  1  0  0  0  0
 19 18  1  0  0  0  0
 20 18  2  0  0  0  0
 20 21  1  0  0  0  0
 21 23  2  0  0  0  0
 22 21  1  0  0  0  0
 23 16  1  0  0  0  0
 23 24  1  0  0  0  0
 25  2  1  0  0  0  0
 26 25  2  0  0  0  0
 27 26  1  0  0  0  0
 27 29  1  0  0  0  0
 28 27  1  0  0  0  0
 31 30  1  0  0  0  0
 32 27  1  0  0  0  0
 32 31  2  0  0  0  0
 33 32  1  0  0  0  0
 34 33  2  0  0  0  0
 34 35  1  0  0  0  0
 35 36  2  0  0  0  0
 36 31  1  0  0  0  0
 36 40  1  0  0  0  0
 37 33  1  0  0  0  0
 38 34  1  0  0  0  0
 39 35  1  0  0  0  0
M  END
>  <minimizedAffinity>
-6.21800804

$$$$

 OpenBabel03242517203D

 40 42  0  0  0  0  0  0  0  0999 V2000
   36.1030   27.4780   38.8570 C   0  0  0  0  0  0  0  0  0  0  0  0
   35.1940   28.5580   38.7880 C   0  0  0  0  0  0  0  0  0  0  0  0
   34.9560   29.2660   39.9470 C   0  0  0  0  0  0  0  0  0  0  0  0
   35.6100   28.8780   41.0740 N   0  0  0  0  0  0  0  0  0  0  0  0
   36.4720   27.8430   41.1090 C   0  0  0  0  0  0  0  0  0  0  0  0
   36.7070   27.1560   39.9930 N   0  0  0  0  0  0  0  0  0  0  0  0
   36.3180   26.8970   37.9690 H   0  0  0  0  0  0  0  0  0  0  0  0
   34.2680   30.0970   39.9360 H   0  0  0  0  0  0  0  0  0  0  0  0
   37.1740   27.4350   42.3350 C   0  0  0  0  0  0  0  0  0  0  0  0
   38.1010   26.8830   42.0560 H   0  0  0  0  0  0  0  0  0  0  0  0
   36.5580   26.7310   42.8980 H   0  0  0  0  0  0  0  0  0  0  0  0
   37.6210   28.6320   43.1140 C   0  0  0  0  0  0  0  0  0  0  0  0
   37.6040   28.4090   44.1860 H   0  0  0  0  0  0  0  0  0  0  0  0
   36.8310   29.4210   42.9380 H   0  0  0  0  0  0  0  0  0  0  0  0
   40.2400   27.1430   43.6790 Cl  0  0  0  0  0  0  0  0  0  0  0  0
   40.1370   28.6910   42.8720 C   0  0  0  0  0  0  0  0  0  0  0  0
   38.8870   29.2310   42.6920 C   0  0  0  0  0  0  0  0  0  0  0  0
   38.8030   30.4690   42.0470 C   0  0  0  0  0  0  0  0  0  0  0  0
   37.8240   30.9420   41.8800 H   0  0  0  0  0  0  0  0  0  0  0  0
   39.9590   31.0940   41.6210 C   0  0  0  0  0  3  0  0  0  0  0  0
   41.1950   30.5160   41.8220 C   0  0  0  0  0  0  0  0  0  0  0  0
   42.5970   31.3830   41.2480 Cl  0  0  0  0  0  0  0  0  0  0  0  0
   41.3180   29.2780   42.4630 C   0  0  0  0  0  0  0  0  0  0  0  0
   42.2880   28.8310   42.6190 H   0  0  0  0  0  0  0  0  0  0  0  0
   34.5360   28.8980   37.5200 C   0  0  0  0  0  3  0  0  0  0  0  0
   33.2350   28.9400   37.3470 C   0  0  0  0  0  3  0  0  0  0  0  0
   32.5880   29.2890   36.0540 C   0  0  0  0  0  0  0  0  0  0  0  0
   33.3340   29.6070   35.2940 H   0  0  0  0  0  0  0  0  0  0  0  0
   32.1120   28.3660   35.6700 H   0  0  0  0  0  0  0  0  0  0  0  0
   32.0770   31.1950   34.0630 F   0  0  0  0  0  0  0  0  0  0  0  0
   31.3730   31.2640   35.2060 C   0  0  0  0  0  0  0  0  0  0  0  0
   31.5960   30.3430   36.2120 C   0  0  0  0  0  0  0  0  0  0  0  0
   30.8130   30.5210   37.3270 C   0  0  0  0  0  0  0  0  0  0  0  0
   29.8590   31.5040   37.5270 C   0  0  0  0  0  0  0  0  0  0  0  0
   29.7040   32.3840   36.4640 C   0  0  0  0  0  0  0  0  0  0  0  0
   30.4360   32.2970   35.2960 C   0  0  0  0  0  0  0  0  0  0  0  0
   30.9440   29.8240   38.1550 H   0  0  0  0  0  0  0  0  0  0  0  0
   29.2820   31.5940   38.4130 H   0  0  0  0  0  0  0  0  0  0  0  0
   28.9810   33.2030   36.4990 H   0  0  0  0  0  0  0  0  0  0  0  0
   30.3050   32.9840   34.4840 H   0  0  0  0  0  0  0  0  0  0  0  0
  1  6  1  0  0  0  0
  2  1  2  0  0  0  0
  2  3  1  0  0  0  0
  3  4  2  0  0  0  0
  4  5  1  0  0  0  0
  5  9  1  0  0  0  0
  6  5  2  0  0  0  0
  7  1  1  0  0  0  0
  8  3  1  0  0  0  0
  9 11  1  0  0  0  0
  9 12  1  0  0  0  0
 10  9  1  0  0  0  0
 12 13  1  0  0  0  0
 14 12  1  0  0  0  0
 16 15  1  0  0  0  0
 17 16  1  0  0  0  0
 17 12  1  0  0  0  0
 18 17  2  0  0  0  0
 19 18  1  0  0  0  0
 20 21  2  0  0  0  0
 20 18  1  0  0  0  0
 21 23  1  0  0  0  0
 22 21  1  0  0  0  0
 23 24  1  0  0  0  0
 23 16  2  0  0  0  0
 25  2  1  0  0  0  0
 26 25  2  0  0  0  0
 27 32  1  0  0  0  0
 27 26  1  0  0  0  0
 28 27  1  0  0  0  0
 29 27  1  0  0  0  0
 30 31  1  0  0  0  0
 31 36  2  0  0  0  0
 31 32  1  0  0  0  0
 32 33  2  0  0  0  0
 33 34  1  0  0  0  0
 33 37  1  0  0  0  0
 34 38  1  0  0  0  0
 35 39  1  0  0  0  0
 35 34  2  0  0  0  0
 36 35  1  0  0  0  0
 40 36  1  0  0  0  0
M  END
>  <minimizedAffinity>
-6.02498484

$$$$

 OpenBabel03242517203D

 40 42  0  0  0  0  0  0  0  0999 V2000
   36.5220   28.3720   38.4160 C   0  0  0  0  0  0  0  0  0  0  0  0
   35.1790   28.7930   38.5420 C   0  0  0  0  0  0  0  0  0  0  0  0
   34.7170   29.0790   39.8110 C   0  0  0  0  0  0  0  0  0  0  0  0
   35.5830   28.9380   40.8490 N   0  0  0  0  0  0  0  0  0  0  0  0
   36.8590   28.5340   40.6970 C   0  0  0  0  0  0  0  0  0  0  0  0
   37.3110   28.2560   39.4760 N   0  0  0  0  0  0  0  0  0  0  0  0
   36.9230   28.1380   37.4390 H   0  0  0  0  0  0  0  0  0  0  0  0
   33.6980   29.4030   39.9490 H   0  0  0  0  0  0  0  0  0  0  0  0
   37.7860   28.3850   41.8290 C   0  0  0  0  0  0  0  0  0  0  0  0
   38.7920   28.1050   41.4410 H   0  0  0  0  0  0  0  0  0  0  0  0
   37.4650   27.5590   42.4660 H   0  0  0  0  0  0  0  0  0  0  0  0
   37.9640   29.6890   42.5430 C   0  0  0  0  0  0  0  0  0  0  0  0
   38.0050   29.5210   43.6250 H   0  0  0  0  0  0  0  0  0  0  0  0
   37.0180   30.2740   42.3460 H   0  0  0  0  0  0  0  0  0  0  0  0
   37.3610   31.9850   40.6020 Cl  0  0  0  0  0  0  0  0  0  0  0  0
   38.9550   31.5910   41.2040 C   0  0  0  0  0  0  0  0  0  0  0  0
   39.0630   30.5300   42.0700 C   0  0  0  0  0  0  0  0  0  0  0  0
   40.3370   30.2140   42.5510 C   0  0  0  0  0  0  0  0  0  0  0  0
   40.4740   29.3730   43.2460 H   0  0  0  0  0  0  0  0  0  0  0  0
   41.4230   30.9660   42.1470 C   0  0  0  0  0  3  0  0  0  0  0  0
   41.2710   32.0240   41.2750 C   0  0  0  0  0  0  0  0  0  0  0  0
   42.7020   32.9130   40.8230 Cl  0  0  0  0  0  0  0  0  0  0  0  0
   40.0100   32.3700   40.7730 C   0  0  0  0  0  0  0  0  0  0  0  0
   39.8970   33.1980   40.0900 H   0  0  0  0  0  0  0  0  0  0  0  0
   34.3210   28.9140   37.3570 C   0  0  0  0  0  3  0  0  0  0  0  0
   33.0080   28.8990   37.3870 C   0  0  0  0  0  3  0  0  0  0  0  0
   32.1570   29.0240   36.1730 C   0  0  0  0  0  0  0  0  0  0  0  0
   32.7590   28.9670   35.2410 H   0  0  0  0  0  0  0  0  0  0  0  0
   31.4710   28.1560   36.1670 H   0  0  0  0  0  0  0  0  0  0  0  0
   32.0860   30.7450   33.9610 F   0  0  0  0  0  0  0  0  0  0  0  0
   31.3900   31.0900   35.0590 C   0  0  0  0  0  0  0  0  0  0  0  0
   31.4000   30.2680   36.1700 C   0  0  0  0  0  0  0  0  0  0  0  0
   30.6500   30.7320   37.2240 C   0  0  0  0  0  0  0  0  0  0  0  0
   29.9140   31.9030   37.2720 C   0  0  0  0  0  0  0  0  0  0  0  0
   29.9630   32.6650   36.1110 C   0  0  0  0  0  0  0  0  0  0  0  0
   30.6840   32.2940   34.9920 C   0  0  0  0  0  0  0  0  0  0  0  0
   30.6190   30.1260   38.1300 H   0  0  0  0  0  0  0  0  0  0  0  0
   29.3530   32.2130   38.1170 H   0  0  0  0  0  0  0  0  0  0  0  0
   29.4230   33.6110   36.0240 H   0  0  0  0  0  0  0  0  0  0  0  0
   30.7110   32.8910   34.1030 H   0  0  0  0  0  0  0  0  0  0  0  0
  1  2  2  0  0  0  0
  1  6  1  0  0  0  0
  2  3  1  0  0  0  0
  3  8  1  0  0  0  0
  3  4  2  0  0  0  0
  5  4  1  0  0  0  0
  5  9  1  0  0  0  0
  6  5  2  0  0  0  0
  7  1  1  0  0  0  0
  9 11  1  0  0  0  0
  9 12  1  0  0  0  0
 10  9  1  0  0  0  0
 12 13  1  0  0  0  0
 14 12  1  0  0  0  0
 15 16  1  0  0  0  0
 16 17  1  0  0  0  0
 17 12  1  0  0  0  0
 17 18  2  0  0  0  0
 18 19  1  0  0  0  0
 20 18  1  0  0  0  0
 21 20  2  0  0  0  0
 22 21  1  0  0  0  0
 23 16  2  0  0  0  0
 23 21  1  0  0  0  0
 24 23  1  0  0  0  0
 25 26  2  0  0  0  0
 25  2  1  0  0  0  0
 27 26  1  0  0  0  0
 28 27  1  0  0  0  0
 29 27  1  0  0  0  0
 30 31  1  0  0  0  0
 31 32  1  0  0  0  0
 32 27  1  0  0  0  0
 32 33  2  0  0  0  0
 33 34  1  0  0  0  0
 33 37  1  0  0  0  0
 34 38  1  0  0  0  0
 35 34  2  0  0  0  0
 36 31  2  0  0  0  0
 36 35  1  0  0  0  0
 39 35  1  0  0  0  0
 40 36  1  0  0  0  0
M  END
>  <minimizedAffinity>
-5.86917591

$$$$

 OpenBabel03242517203D

 40 42  0  0  0  0  0  0  0  0999 V2000
   36.2190   29.6130   37.7880 C   0  0  0  0  0  0  0  0  0  0  0  0
   34.9100   29.2890   38.2110 C   0  0  0  0  0  0  0  0  0  0  0  0
   34.6610   29.2850   39.5680 C   0  0  0  0  0  0  0  0  0  0  0  0
   35.6890   29.5930   40.4030 N   0  0  0  0  0  0  0  0  0  0  0  0
   36.9280   29.8980   39.9690 C   0  0  0  0  0  0  0  0  0  0  0  0
   37.1740   29.9040   38.6610 N   0  0  0  0  0  0  0  0  0  0  0  0
   36.4550   29.6290   36.7320 H   0  0  0  0  0  0  0  0  0  0  0  0
   33.6750   29.0430   39.9320 H   0  0  0  0  0  0  0  0  0  0  0  0
   38.0310   30.2300   40.8840 C   0  0  0  0  0  0  0  0  0  0  0  0
   38.0690   31.3350   41.0210 H   0  0  0  0  0  0  0  0  0  0  0  0
   38.9840   29.9460   40.4340 H   0  0  0  0  0  0  0  0  0  0  0  0
   37.7860   29.6500   42.2420 C   0  0  0  0  0  0  0  0  0  0  0  0
   36.7160   29.6900   42.4780 H   0  0  0  0  0  0  0  0  0  0  0  0
   38.3010   30.3460   42.9670 H   0  0  0  0  0  0  0  0  0  0  0  0
   40.7850   29.3980   42.8240 Cl  0  0  0  0  0  0  0  0  0  0  0  0
   39.6750   28.0500   42.7540 C   0  0  0  0  0  0  0  0  0  0  0  0
   38.3570   28.3250   42.4820 C   0  0  0  0  0  0  0  0  0  0  0  0
   37.4690   27.2470   42.4250 C   0  0  0  0  0  0  0  0  0  0  0  0
   36.4040   27.4160   42.2090 H   0  0  0  0  0  0  0  0  0  0  0  0
   37.9390   25.9650   42.6410 C   0  0  0  0  0  3  0  0  0  0  0  0
   39.2720   25.7330   42.9120 C   0  0  0  0  0  0  0  0  0  0  0  0
   39.7680   24.0800   43.1710 Cl  0  0  0  0  0  0  0  0  0  0  0  0
   40.1890   26.7880   42.9770 C   0  0  0  0  0  0  0  0  0  0  0  0
   41.2310   26.6000   43.1880 H   0  0  0  0  0  0  0  0  0  0  0  0
   33.8670   28.9710   37.2290 C   0  0  0  0  0  3  0  0  0  0  0  0
   32.6050   29.3180   37.3470 C   0  0  0  0  0  3  0  0  0  0  0  0
   31.5630   28.9860   36.3390 C   0  0  0  0  0  0  0  0  0  0  0  0
   31.9860   28.4190   35.4830 H   0  0  0  0  0  0  0  0  0  0  0  0
   30.8310   28.3210   36.8370 H   0  0  0  0  0  0  0  0  0  0  0  0
   32.6280   30.5410   34.2640 F   0  0  0  0  0  0  0  0  0  0  0  0
   31.4580   30.9200   34.8070 C   0  0  0  0  0  0  0  0  0  0  0  0
   30.9010   30.1790   35.8330 C   0  0  0  0  0  0  0  0  0  0  0  0
   29.7050   30.6700   36.3000 C   0  0  0  0  0  0  0  0  0  0  0  0
   29.0350   31.7970   35.8540 C   0  0  0  0  0  0  0  0  0  0  0  0
   29.6700   32.4770   34.8230 C   0  0  0  0  0  0  0  0  0  0  0  0
   30.8720   32.0720   34.2770 C   0  0  0  0  0  0  0  0  0  0  0  0
   29.2160   30.1280   37.1090 H   0  0  0  0  0  0  0  0  0  0  0  0
   28.1110   32.1300   36.2550 H   0  0  0  0  0  0  0  0  0  0  0  0
   29.2400   33.3810   34.3840 H   0  0  0  0  0  0  0  0  0  0  0  0
   31.3500   32.6070   33.4800 H   0  0  0  0  0  0  0  0  0  0  0  0
  1  2  2  0  0  0  0
  1  6  1  0  0  0  0
  2  3  1  0  0  0  0
  3  8  1  0  0  0  0
  3  4  2  0  0  0  0
  5  4  1  0  0  0  0
  5  9  1  0  0  0  0
  6  5  2  0  0  0  0
  7  1  1  0  0  0  0
  9 10  1  0  0  0  0
  9 12  1  0  0  0  0
 11  9  1  0  0  0  0
 12 13  1  0  0  0  0
 12 17  1  0  0  0  0
 12 14  1  0  0  0  0
 16 15  1  0  0  0  0
 16 23  1  0  0  0  0
 17 16  2  0  0  0  0
 18 17  1  0  0  0  0
 18 20  2  0  0  0  0
 19 18  1  0  0  0  0
 20 21  1  0  0  0  0
 21 23  2  0  0  0  0
 21 22  1  0  0  0  0
 23 24  1  0  0  0  0
 25 26  2  0  0  0  0
 25  2  1  0  0  0  0
 27 29  1  0  0  0  0
 27 26  1  0  0  0  0
 28 27  1  0  0  0  0
 30 31  1  0  0  0  0
 31 32  1  0  0  0  0
 32 33  2  0  0  0  0
 32 27  1  0  0  0  0
 33 37  1  0  0  0  0
 34 38  1  0  0  0  0
 34 33  1  0  0  0  0
 35 34  2  0  0  0  0
 36 31  2  0  0  0  0
 36 35  1  0  0  0  0
 39 35  1  0  0  0  0
 40 36  1  0  0  0  0
M  END
>  <minimizedAffinity>
-5.6383605

$$$$

 OpenBabel03242517203D

 40 42  0  0  0  0  0  0  0  0999 V2000
   36.9700   24.8790   41.9440 C   0  0  0  0  0  0  0  0  0  0  0  0
   36.9330   24.4380   40.6020 C   0  0  0  0  0  0  0  0  0  0  0  0
   37.7110   25.1160   39.6870 C   0  0  0  0  0  0  0  0  0  0  0  0
   38.4580   26.1590   40.1360 N   0  0  0  0  0  0  0  0  0  0  0  0
   38.4720   26.5570   41.4230 C   0  0  0  0  0  0  0  0  0  0  0  0
   37.7250   25.9070   42.3120 N   0  0  0  0  0  0  0  0  0  0  0  0
   36.3750   24.3740   42.6940 H   0  0  0  0  0  0  0  0  0  0  0  0
   37.7110   24.8100   38.6520 H   0  0  0  0  0  0  0  0  0  0  0  0
   39.2860   27.6870   41.8970 C   0  0  0  0  0  0  0  0  0  0  0  0
   39.7240   28.2120   41.0170 H   0  0  0  0  0  0  0  0  0  0  0  0
   40.1300   27.3170   42.4830 H   0  0  0  0  0  0  0  0  0  0  0  0
   38.4330   28.6950   42.6010 C   0  0  0  0  0  0  0  0  0  0  0  0
   38.8880   28.9650   43.5610 H   0  0  0  0  0  0  0  0  0  0  0  0
   37.4680   28.1600   42.8430 H   0  0  0  0  0  0  0  0  0  0  0  0
   35.7150   28.7360   41.1830 Cl  0  0  0  0  0  0  0  0  0  0  0  0
   36.8790   30.0390   41.1270 C   0  0  0  0  0  0  0  0  0  0  0  0
   38.0550   29.8700   41.8160 C   0  0  0  0  0  0  0  0  0  0  0  0
   38.9880   30.9110   41.7710 C   0  0  0  0  0  0  0  0  0  0  0  0
   39.9440   30.8230   42.3070 H   0  0  0  0  0  0  0  0  0  0  0  0
   38.6980   32.0530   41.0490 C   0  0  0  0  0  3  0  0  0  0  0  0
   37.5050   32.1820   40.3700 C   0  0  0  0  0  0  0  0  0  0  0  0
   37.2320   33.6610   39.4860 Cl  0  0  0  0  0  0  0  0  0  0  0  0
   36.5480   31.1600   40.3930 C   0  0  0  0  0  0  0  0  0  0  0  0
   35.6150   31.2660   39.8590 H   0  0  0  0  0  0  0  0  0  0  0  0
   36.0920   23.2990   40.2150 C   0  0  0  0  0  3  0  0  0  0  0  0
   34.9340   23.4050   39.6040 C   0  0  0  0  0  3  0  0  0  0  0  0
   34.0970   22.2380   39.2190 C   0  0  0  0  0  0  0  0  0  0  0  0
   34.5410   21.6770   38.3690 H   0  0  0  0  0  0  0  0  0  0  0  0
   34.0820   21.5500   40.0870 H   0  0  0  0  0  0  0  0  0  0  0  0
   32.1480   22.8440   41.1410 F   0  0  0  0  0  0  0  0  0  0  0  0
   31.8100   22.9280   39.8420 C   0  0  0  0  0  0  0  0  0  0  0  0
   32.7430   22.6360   38.8650 C   0  0  0  0  0  0  0  0  0  0  0  0
   32.2730   22.7600   37.5800 C   0  0  0  0  0  0  0  0  0  0  0  0
   30.9990   23.1350   37.1900 C   0  0  0  0  0  0  0  0  0  0  0  0
   30.1300   23.4080   38.2390 C   0  0  0  0  0  0  0  0  0  0  0  0
   30.4960   23.3170   39.5680 C   0  0  0  0  0  0  0  0  0  0  0  0
   32.9640   22.5440   36.7650 H   0  0  0  0  0  0  0  0  0  0  0  0
   30.6900   23.2130   36.1780 H   0  0  0  0  0  0  0  0  0  0  0  0
   29.0960   23.7150   38.0610 H   0  0  0  0  0  0  0  0  0  0  0  0
   29.8150   23.5310   40.3670 H   0  0  0  0  0  0  0  0  0  0  0  0
  1  6  1  0  0  0  0
  1  7  1  0  0  0  0
  2  1  2  0  0  0  0
  3  4  2  0  0  0  0
  3  2  1  0  0  0  0
  4  5  1  0  0  0  0
  5  9  1  0  0  0  0
  5  6  2  0  0  0  0
  8  3  1  0  0  0  0
  9 11  1  0  0  0  0
  9 12  1  0  0  0  0
 10  9  1  0  0  0  0
 12 14  1  0  0  0  0
 12 13  1  0  0  0  0
 16 15  1  0  0  0  0
 16 17  1  0  0  0  0
 17 12  1  0  0  0  0
 18 17  2  0  0  0  0
 18 19  1  0  0  0  0
 20 18  1  0  0  0  0
 21 23  1  0  0  0  0
 21 20  2  0  0  0  0
 22 21  1  0  0  0  0
 23 16  2  0  0  0  0
 24 23  1  0  0  0  0
 25  2  1  0  0  0  0
 26 25  2  0  0  0  0
 27 26  1  0  0  0  0
 27 29  1  0  0  0  0
 28 27  1  0  0  0  0
 31 30  1  0  0  0  0
 32 27  1  0  0  0  0
 32 31  2  0  0  0  0
 33 32  1  0  0  0  0
 34 33  2  0  0  0  0
 34 35  1  0  0  0  0
 35 36  2  0  0  0  0
 36 31  1  0  0  0  0
 36 40  1  0  0  0  0
 37 33  1  0  0  0  0
 38 34  1  0  0  0  0
 39 35  1  0  0  0  0
M  END
>  <minimizedAffinity>
-5.59005594

$$$$
