
 OpenBabel03242512093D

 34 36  0  0  1  0  0  0  0  0999 V2000
   48.2690   34.5690   41.2390 C   0  0  1  0  0  0  0  0  0  0  0  0
   48.9080   35.9170   41.7550 C   0  0  0  0  0  0  0  0  0  0  0  0
   49.1660   34.6190   42.3880 C   0  0  2  0  0  0  0  0  0  0  0  0
   48.6760   34.2760   40.2580 H   0  0  0  0  0  0  0  0  0  0  0  0
   49.6520   36.3760   41.0660 H   0  0  0  0  0  0  0  0  0  0  0  0
   48.2050   36.6510   42.1960 H   0  0  0  0  0  0  0  0  0  0  0  0
   48.6800   34.2800   43.3090 H   0  0  0  0  0  0  0  0  0  0  0  0
   46.7930   34.5470   41.4320 C   0  0  0  0  0  0  0  0  0  0  0  0
   46.0980   34.3060   40.4510 O   0  0  0  0  0  0  0  0  0  0  0  0
   45.4440   35.9160   42.9500 C   0  0  0  0  0  0  0  0  0  0  0  0
   46.1380   34.7850   42.6750 C   0  0  0  0  0  0  0  0  0  0  0  0
   46.1980   33.7950   43.6960 C   0  0  0  0  0  0  0  0  0  0  0  0
   45.5810   33.9930   44.8830 N   0  0  0  0  0  0  0  0  0  0  0  0
   44.8920   35.1510   45.1110 C   0  0  0  0  0  0  0  0  0  0  0  0
   44.8320   36.0760   44.1680 N   0  0  0  0  0  0  0  0  0  0  0  0
   45.4010   36.6640   42.1710 H   0  0  0  0  0  0  0  0  0  0  0  0
   46.7030   32.8710   43.6070 H   0  0  0  0  0  0  0  0  0  0  0  0
   44.3640   35.4190   46.0140 H   0  0  0  0  0  0  0  0  0  0  0  0
   50.4830   34.1880   42.2770 O   0  0  0  0  0  0  0  0  0  0  0  0
   49.0940   32.0650   42.7370 O   0  0  0  0  0  0  0  0  0  0  0  0
   50.4310   32.4900   42.1590 P   0  0  2  0  0  0  0  0  0  0  0  0
   51.7100   31.7470   42.9240 O   0  0  0  0  0  0  0  0  0  0  0  0
   52.4840   32.3540   43.0320 H   0  0  0  0  0  0  0  0  0  0  0  0
   50.3640   32.0870   40.4970 O   0  0  0  0  0  0  0  0  0  0  0  0
   49.0220   29.5870   39.8140 Cl  0  0  0  0  0  0  0  0  0  0  0  0
   50.6950   30.0090   39.4770 C   0  0  0  0  0  0  0  0  0  0  0  0
   51.2260   31.2380   39.8540 C   0  0  0  0  0  0  0  0  0  0  0  0
   52.5480   31.4760   39.5450 C   0  0  0  0  0  0  0  0  0  0  0  0
   52.9470   32.4350   39.8440 H   0  0  0  0  0  0  0  0  0  0  0  0
   53.3350   30.5480   38.8910 C   0  0  0  0  0  0  0  0  0  0  0  0
   52.8170   29.3150   38.5100 C   0  0  0  0  0  0  0  0  0  0  0  0
   53.7610   28.1060   37.6820 Cl  0  0  0  0  0  0  0  0  0  0  0  0
   51.4790   29.0820   38.8240 C   0  0  0  0  0  0  0  0  0  0  0  0
   51.0810   28.1270   38.5280 H   0  0  0  0  0  0  0  0  0  0  0  0
  1  4  1  6  0  0  0
  1  8  1  0  0  0  0
  1  2  1  0  0  0  0
  1  3  1  0  0  0  0
  2  6  1  0  0  0  0
  2  3  1  0  0  0  0
  3  7  1  1  0  0  0
  5  2  1  0  0  0  0
  8 11  1  0  0  0  0
  9  8  2  0  0  0  0
 10 15  1  0  0  0  0
 11 10  2  0  0  0  0
 11 12  1  0  0  0  0
 12 13  2  0  0  0  0
 13 14  1  0  0  0  0
 14 18  1  0  0  0  0
 15 14  2  0  0  0  0
 16 10  1  0  0  0  0
 17 12  1  0  0  0  0
 19  3  1  0  0  0  0
 21 19  1  0  0  0  0
 21 20  2  1  0  0  0
 21 22  1  0  0  0  0
 22 23  1  0  0  0  0
 24 21  1  0  0  0  0
 26 25  1  0  0  0  0
 26 27  1  0  0  0  0
 27 24  1  0  0  0  0
 28 29  1  0  0  0  0
 28 27  2  0  0  0  0
 30 28  1  0  0  0  0
 31 33  1  0  0  0  0
 31 30  2  0  0  0  0
 32 31  1  0  0  0  0
 33 26  2  0  0  0  0
 34 33  1  0  0  0  0
M  END
>  <minimizedAffinity>
-4.99809217

>  <minimizedRMSD>
2.07687974

$$$$
