
 OpenBabel03242514223D

 35 38  0  0  0  0  0  0  0  0999 V2000
   44.7590   33.1890   41.1000 Cl  0  0  0  0  0  0  0  0  0  0  0  0
   46.3080   33.9920   40.9100 C   0  0  0  0  0  0  0  0  0  0  0  0
   46.8260   34.7110   41.9400 C   0  0  0  0  0  0  0  0  0  0  0  0
   48.0570   35.3530   41.7990 C   0  0  0  0  0  0  0  0  0  0  0  0
   48.7040   35.2250   40.5950 C   0  0  0  0  0  0  0  0  0  0  0  0
   48.1540   34.4900   39.5650 C   0  0  0  0  0  0  0  0  0  0  0  0
   46.9610   33.8710   39.7130 C   0  0  0  0  0  0  0  0  0  0  0  0
   48.4750   35.9250   42.6130 H   0  0  0  0  0  0  0  0  0  0  0  0
   49.6630   35.7010   40.4250 H   0  0  0  0  0  0  0  0  0  0  0  0
   48.6600   34.3850   38.6090 H   0  0  0  0  0  0  0  0  0  0  0  0
   45.6260   33.9740   45.3440 C   0  0  0  0  0  0  0  0  0  0  0  0
   44.7460   35.0300   45.5760 C   0  0  0  0  0  0  0  0  0  0  0  0
   44.5630   35.9810   44.5840 C   0  0  0  0  0  0  0  0  0  0  0  0
   45.2570   35.8380   43.4230 N   0  0  0  0  0  0  0  0  0  0  0  0
   46.1020   34.8190   43.2080 C   0  0  0  0  0  0  0  0  0  0  0  0
   46.2920   33.8770   44.1730 N   0  0  0  0  0  0  0  0  0  0  0  0
   45.8600   33.1650   46.0330 H   0  0  0  0  0  0  0  0  0  0  0  0
   44.2510   35.0380   46.5380 H   0  0  0  0  0  0  0  0  0  0  0  0
   43.8840   36.7930   44.7670 H   0  0  0  0  0  0  0  0  0  0  0  0
   46.3590   33.0840   38.6280 C   0  0  0  0  0  0  0  0  0  0  0  0
   45.1400   33.2240   38.0970 N   0  0  0  0  0  0  0  0  0  0  0  0
   44.9770   32.3090   37.1300 C   0  0  0  0  0  0  0  0  0  0  0  0
   46.1030   31.5810   37.0440 N   0  0  0  0  0  0  0  0  0  0  0  0
   46.9410   32.0660   37.9680 N   0  0  0  0  0  0  0  0  0  0  0  0
   44.1680   32.0650   36.4530 H   0  0  0  0  0  0  0  0  0  0  0  0
   47.5290   32.2180   34.4370 Cl  0  0  0  0  0  0  0  0  0  0  0  0
   47.2530   30.6110   35.0610 C   0  0  0  0  0  0  0  0  0  0  0  0
   46.5870   30.4940   36.2640 C   0  0  0  0  0  0  0  0  0  0  0  0
   46.3250   29.2540   36.8340 C   0  0  0  0  0  0  0  0  0  0  0  0
   45.8080   29.0950   37.7730 H   0  0  0  0  0  0  0  0  0  0  0  0
   46.7460   28.0950   36.1720 C   0  0  0  0  0  0  0  0  0  0  0  0
   47.4110   28.2270   34.9690 C   0  0  0  0  0  0  0  0  0  0  0  0
   47.9620   26.7870   34.0970 Cl  0  0  0  0  0  0  0  0  0  0  0  0
   47.6750   29.4570   34.3960 C   0  0  0  0  0  0  0  0  0  0  0  0
   48.2020   29.5620   33.4450 H   0  0  0  0  0  0  0  0  0  0  0  0
  2  1  1  0  0  0  0
  2  3  1  0  0  0  0
  3 15  1  0  0  0  0
  4  3  2  0  0  0  0
  4  8  1  0  0  0  0
  5  4  1  0  0  0  0
  6  7  1  0  0  0  0
  6  5  2  0  0  0  0
  7  2  2  0  0  0  0
  9  5  1  0  0  0  0
 10  6  1  0  0  0  0
 11 12  1  0  0  0  0
 11 17  1  0  0  0  0
 12 18  1  0  0  0  0
 13 19  1  0  0  0  0
 13 12  2  0  0  0  0
 14 13  1  0  0  0  0
 15 14  2  0  0  0  0
 15 16  1  0  0  0  0
 16 11  2  0  0  0  0
 20  7  1  0  0  0  0
 21 20  1  0  0  0  0
 22 21  2  0  0  0  0
 23 22  1  0  0  0  0
 23 24  1  0  0  0  0
 24 20  2  0  0  0  0
 25 22  1  0  0  0  0
 26 27  1  0  0  0  0
 27 28  1  0  0  0  0
 28 29  2  0  0  0  0
 28 23  1  0  0  0  0
 29 30  1  0  0  0  0
 31 29  1  0  0  0  0
 32 31  2  0  0  0  0
 33 32  1  0  0  0  0
 34 32  1  0  0  0  0
 34 27  2  0  0  0  0
 35 34  1  0  0  0  0
M  END
>  <minimizedAffinity>
-5.79437876

>  <minimizedRMSD>
1.58531392

$$$$
