
 OpenBabel03252500503D

 36 38  0  0  0  0  0  0  0  0999 V2000
   45.1420   34.8660   42.1120 C   0  0  0  0  0  0  0  0  0  0  0  0
   45.9720   34.7200   41.1940 O   0  0  0  0  0  0  0  0  0  0  0  0
   45.0130   34.8460   44.5610 C   0  0  0  0  0  0  0  0  0  0  0  0
   45.4090   34.2310   43.3990 C   0  0  0  0  0  0  0  0  0  0  0  0
   46.0700   32.9900   43.4280 C   0  0  0  0  0  0  0  0  0  0  0  0
   46.3040   32.4170   44.6540 N   0  0  0  0  0  0  0  0  0  0  0  0
   45.9060   33.0390   45.7780 C   0  0  0  0  0  0  0  0  0  0  0  0
   45.2720   34.2330   45.7270 N   0  0  0  0  0  0  0  0  0  0  0  0
   44.5120   35.7850   44.5530 H   0  0  0  0  0  0  0  0  0  0  0  0
   46.3830   32.5040   42.5150 H   0  0  0  0  0  0  0  0  0  0  0  0
   46.1570   32.4250   47.0710 C   0  0  0  0  0  0  0  0  0  0  0  0
   47.3980   32.1070   47.5110 C   0  0  0  0  0  0  0  0  0  0  0  0
   47.6550   31.5310   48.7190 C   0  0  0  0  0  0  0  0  0  0  0  0
   46.5770   31.2740   49.5090 N   0  0  0  0  0  0  0  0  0  0  0  0
   45.3580   31.5840   49.0830 C   0  0  0  0  0  0  0  0  0  0  0  0
   45.0910   32.1510   47.8940 N   0  0  0  0  0  0  0  0  0  0  0  0
   48.2020   32.3480   46.8130 H   0  0  0  0  0  0  0  0  0  0  0  0
   48.6810   31.3050   49.0010 H   0  0  0  0  0  0  0  0  0  0  0  0
   44.4570   31.4020   49.6700 H   0  0  0  0  0  0  0  0  0  0  0  0
   44.1090   35.6380   41.6540 O   0  0  0  0  0  0  0  0  0  0  0  0
   43.2400   35.2320   40.6660 C   0  0  0  0  0  0  0  0  0  0  0  0
   43.3180   34.2230   40.2700 H   0  0  0  0  0  0  0  0  0  0  0  0
   43.4930   35.8850   39.7730 H   0  0  0  0  0  0  0  0  0  0  0  0
   41.7890   35.6010   40.9500 C   0  0  0  0  0  0  0  0  0  0  0  0
   41.5470   35.1530   41.9380 H   0  0  0  0  0  0  0  0  0  0  0  0
   41.7010   36.7070   41.0850 H   0  0  0  0  0  0  0  0  0  0  0  0
   39.7690   33.7610   42.0520 Cl  0  0  0  0  0  0  0  0  0  0  0  0
   39.8880   34.2300   40.3750 C   0  0  0  0  0  0  0  0  0  0  0  0
   40.8670   35.1040   39.9160 C   0  0  0  0  0  0  0  0  0  0  0  0
   40.9030   35.4330   38.5740 C   0  0  0  0  0  0  0  0  0  0  0  0
   41.6620   36.1030   38.2570 H   0  0  0  0  0  0  0  0  0  0  0  0
   39.9630   34.8790   37.7410 C   0  0  0  0  0  3  0  0  0  0  0  0
   38.9570   33.9950   38.1420 C   0  0  0  0  0  0  0  0  0  0  0  0
   37.7940   33.3310   37.0200 Cl  0  0  0  0  0  0  0  0  0  0  0  0
   38.9610   33.6960   39.4960 C   0  0  0  0  0  0  0  0  0  0  0  0
   38.1920   33.0060   39.8700 H   0  0  0  0  0  0  0  0  0  0  0  0
  1  4  1  0  0  0  0
  2  1  2  0  0  0  0
  3  8  1  0  0  0  0
  4  5  1  0  0  0  0
  4  3  2  0  0  0  0
  5  6  2  0  0  0  0
  6  7  1  0  0  0  0
  7 11  1  0  0  0  0
  8  7  2  0  0  0  0
  9  3  1  0  0  0  0
 10  5  1  0  0  0  0
 11 12  2  0  0  0  0
 11 16  1  0  0  0  0
 12 13  1  0  0  0  0
 13 18  1  0  0  0  0
 13 14  2  0  0  0  0
 15 14  1  0  0  0  0
 15 19  1  0  0  0  0
 16 15  2  0  0  0  0
 17 12  1  0  0  0  0
 20  1  1  0  0  0  0
 21 24  1  0  0  0  0
 21 20  1  0  0  0  0
 22 21  1  0  0  0  0
 23 21  1  0  0  0  0
 24 26  1  0  0  0  0
 24 25  1  0  0  0  0
 28 27  1  0  0  0  0
 29 28  1  0  0  0  0
 29 24  1  0  0  0  0
 30 29  2  0  0  0  0
 31 30  1  0  0  0  0
 32 33  2  0  0  0  0
 32 30  1  0  0  0  0
 33 35  1  0  0  0  0
 34 33  1  0  0  0  0
 35 36  1  0  0  0  0
 35 28  2  0  0  0  0
M  END
>  <minimizedAffinity>
-6.57727957

>  <minimizedRMSD>
0.964827836

$$$$
