
 OpenBabel03252506373D

 45 48  0  0  1  0  0  0  0  0999 V2000
   44.5070   35.6000   45.1090 C   0  0  0  0  0  0  0  0  0  0  0  0
   45.1240   35.5620   43.8520 C   0  0  0  0  0  0  0  0  0  0  0  0
   46.0070   34.5750   43.5790 C   0  0  0  0  0  0  0  0  0  0  0  0
   46.2430   33.6670   44.5570 N   0  0  0  0  0  0  0  0  0  0  0  0
   45.6570   33.7070   45.7440 C   0  0  0  0  0  0  0  0  0  0  0  0
   44.7830   34.6660   46.0390 N   0  0  0  0  0  0  0  0  0  0  0  0
   45.9840   32.6930   46.7100 N   0  0  0  0  0  0  0  0  0  0  0  0
   45.2700   32.4770   47.9190 C   0  0  0  0  0  0  0  0  0  0  0  0
   46.3630   32.1020   48.9040 C   0  0  0  0  0  0  0  0  0  0  0  0
   47.6190   31.9650   48.1030 C   0  0  0  0  0  0  0  0  0  0  0  0
   47.0800   31.7520   46.6880 C   0  0  1  0  0  0  0  0  0  0  0  0
   43.8110   36.3880   45.3060 H   0  0  0  0  0  0  0  0  0  0  0  0
   46.4970   34.5230   42.6210 H   0  0  0  0  0  0  0  0  0  0  0  0
   44.4200   31.8810   48.0260 H   0  0  0  0  0  0  0  0  0  0  0  0
   44.9590   33.5100   48.2800 H   0  0  0  0  0  0  0  0  0  0  0  0
   46.4170   32.7250   49.7920 H   0  0  0  0  0  0  0  0  0  0  0  0
   46.1180   31.0580   49.2600 H   0  0  0  0  0  0  0  0  0  0  0  0
   48.2240   31.1140   48.4540 H   0  0  0  0  0  0  0  0  0  0  0  0
   48.1500   32.9380   48.1760 H   0  0  0  0  0  0  0  0  0  0  0  0
   47.8780   32.0260   45.9600 H   0  0  0  0  0  0  0  0  0  0  0  0
   44.7750   36.5950   42.9130 N   0  0  0  0  0  0  0  0  0  0  0  0
   44.8380   37.5920   43.1830 H   0  0  0  0  0  0  0  0  0  0  0  0
   44.4830   36.1550   42.0180 H   0  0  0  0  0  0  0  0  0  0  0  0
   46.5150   30.0730   46.5320 S   0  0  0  0  0  0  0  0  0  0  0  0
   46.0630   30.3330   43.2370 O   0  0  0  0  0  0  0  0  0  0  0  0
   45.2580   29.9050   44.0800 C   0  0  0  0  0  0  0  0  0  0  0  0
   45.0970   29.8010   45.5510 C   0  0  1  0  0  0  0  0  0  0  0  0
   44.4580   28.4410   45.6960 C   0  0  0  0  0  0  0  0  0  0  0  0
   43.3030   28.6520   44.7120 C   0  0  0  0  0  0  0  0  0  0  0  0
   44.0400   29.2850   43.6250 N   0  0  0  0  0  0  0  0  0  0  0  0
   44.2090   30.4720   45.6990 H   0  0  0  0  0  0  0  0  0  0  0  0
   45.1120   27.6270   45.3230 H   0  0  0  0  0  0  0  0  0  0  0  0
   44.0900   28.3050   46.7150 H   0  0  0  0  0  0  0  0  0  0  0  0
   42.8300   27.7080   44.4370 H   0  0  0  0  0  0  0  0  0  0  0  0
   42.5810   29.3590   45.1690 H   0  0  0  0  0  0  0  0  0  0  0  0
   43.0770   31.8280   42.2680 Cl  0  0  0  0  0  0  0  0  0  0  0  0
   42.9690   30.2250   41.5770 C   0  0  0  0  0  0  0  0  0  0  0  0
   43.4460   29.1880   42.3130 C   0  0  0  0  0  0  0  0  0  0  0  0
   43.3620   27.9220   41.7710 C   0  0  0  0  0  0  0  0  0  0  0  0
   43.7310   27.0380   42.3150 H   0  0  0  0  0  0  0  0  0  0  0  0
   42.8230   27.6300   40.5220 C   0  0  0  0  0  3  0  0  0  0  0  0
   42.3350   28.7080   39.7770 C   0  0  0  0  0  0  0  0  0  0  0  0
   41.6420   28.4210   38.1950 Cl  0  0  0  0  0  0  0  0  0  0  0  0
   42.4290   29.9620   40.3350 C   0  0  0  0  0  0  0  0  0  0  0  0
   42.0450   30.8030   39.7450 H   0  0  0  0  0  0  0  0  0  0  0  0
  1 12  1  0  0  0  0
  1  6  1  0  0  0  0
  2  1  2  0  0  0  0
  3  2  1  0  0  0  0
  3  4  2  0  0  0  0
  4  5  1  0  0  0  0
  5  6  2  0  0  0  0
  5  7  1  0  0  0  0
  7  8  1  0  0  0  0
  8 14  1  0  0  0  0
  8 15  1  0  0  0  0
  8  9  1  0  0  0  0
  9 17  1  0  0  0  0
  9 16  1  0  0  0  0
 10 19  1  0  0  0  0
 10 18  1  0  0  0  0
 10  9  1  0  0  0  0
 11 20  1  6  0  0  0
 11  7  1  0  0  0  0
 11 10  1  0  0  0  0
 13  3  1  0  0  0  0
 21 22  1  0  0  0  0
 21  2  1  0  0  0  0
 23 21  1  0  0  0  0
 24 11  1  0  0  0  0
 25 26  2  0  0  0  0
 26 27  1  0  0  0  0
 27 28  1  0  0  0  0
 27 31  1  1  0  0  0
 27 24  1  0  0  0  0
 28 33  1  0  0  0  0
 29 35  1  0  0  0  0
 29 28  1  0  0  0  0
 30 26  1  0  0  0  0
 30 29  1  0  0  0  0
 32 28  1  0  0  0  0
 34 29  1  0  0  0  0
 37 36  1  0  0  0  0
 37 38  1  0  0  0  0
 38 30  1  0  0  0  0
 39 38  2  0  0  0  0
 39 40  1  0  0  0  0
 41 39  1  0  0  0  0
 42 44  1  0  0  0  0
 42 41  2  0  0  0  0
 43 42  1  0  0  0  0
 44 37  2  0  0  0  0
 45 44  1  0  0  0  0
M  END
>  <minimizedAffinity>
-5.22415829

>  <minimizedRMSD>
0.820372105

$$$$
