
 OpenBabel03252506053D

 44 48  0  0  0  0  0  0  0  0999 V2000
   44.8130   35.9420   43.1370 Cl  0  0  0  0  0  0  0  0  0  0  0  0
   45.5560   34.7130   44.1090 C   0  0  0  0  0  0  0  0  0  0  0  0
   46.6410   34.0030   43.6220 C   0  0  0  0  0  0  0  0  0  0  0  0
   47.1530   33.0470   44.4820 C   0  0  0  0  0  0  0  0  0  0  0  0
   46.6770   32.7660   45.7390 C   0  0  0  0  0  0  0  0  0  0  0  0
   45.6010   33.4910   46.1850 C   0  0  0  0  0  0  0  0  0  0  0  0
   45.0140   33.1130   47.7910 Cl  0  0  0  0  0  0  0  0  0  0  0  0
   45.0460   34.4530   45.3850 C   0  0  0  0  0  0  0  0  0  0  0  0
   48.0120   32.4940   44.0820 H   0  0  0  0  0  0  0  0  0  0  0  0
   44.1990   35.0180   45.7470 H   0  0  0  0  0  0  0  0  0  0  0  0
   47.3590   31.7190   46.4870 C   0  0  0  0  0  0  0  0  0  0  0  0
   47.4910   30.4230   46.0130 C   0  0  0  0  0  0  0  0  0  0  0  0
   48.1320   29.4100   46.6960 C   0  0  0  0  0  0  0  0  0  0  0  0
   48.6820   29.6830   47.9280 C   0  0  0  0  0  0  0  0  0  0  0  0
   49.3020   28.6870   48.5810 N   0  0  0  0  0  0  0  0  0  0  0  0
   49.8720   28.8710   49.8020 C   0  0  0  0  0  0  0  0  0  0  0  0
   49.7810   30.1390   50.3390 C   0  0  0  0  0  0  0  0  0  0  0  0
   49.1470   31.1570   49.6730 C   0  0  0  0  0  0  0  0  0  0  0  0
   48.5740   30.9500   48.4310 C   0  0  0  0  0  0  0  0  0  0  0  0
   47.9280   31.9530   47.7320 C   0  0  0  0  0  0  0  0  0  0  0  0
   47.0580   30.1890   45.0330 H   0  0  0  0  0  0  0  0  0  0  0  0
   48.2040   28.4110   46.2730 H   0  0  0  0  0  0  0  0  0  0  0  0
   50.3540   28.0230   50.2680 H   0  0  0  0  0  0  0  0  0  0  0  0
   50.2360   30.2940   51.3200 H   0  0  0  0  0  0  0  0  0  0  0  0
   49.0950   32.1310   50.1210 H   0  0  0  0  0  0  0  0  0  0  0  0
   47.8650   32.9340   48.1630 H   0  0  0  0  0  0  0  0  0  0  0  0
   48.6670   35.4260   40.9580 C   0  0  0  0  0  0  0  0  0  0  0  0
   48.2580   34.7100   39.8240 C   0  0  0  0  0  0  0  0  0  0  0  0
   47.2670   33.7210   39.9820 C   0  0  0  0  0  0  0  0  0  0  0  0
   46.7980   33.5530   41.2330 N   0  0  0  0  0  0  0  0  0  0  0  0
   47.2000   34.2460   42.3030 C   0  0  0  0  0  0  0  0  0  0  0  0
   48.1370   35.1870   42.1760 N   0  0  0  0  0  0  0  0  0  0  0  0
   49.4230   36.1730   40.8040 H   0  0  0  0  0  0  0  0  0  0  0  0
   48.6800   34.9040   38.8700 H   0  0  0  0  0  0  0  0  0  0  0  0
   48.8020   31.2430   39.5760 Cl  0  0  0  0  0  0  0  0  0  0  0  0
   47.4290   31.7440   38.5860 C   0  0  0  0  0  0  0  0  0  0  0  0
   46.7790   32.9270   38.8640 C   0  0  0  0  0  0  0  0  0  0  0  0
   45.7250   33.2710   38.0700 C   0  0  0  0  0  0  0  0  0  0  0  0
   45.1910   34.1910   38.2580 H   0  0  0  0  0  0  0  0  0  0  0  0
   45.3370   32.4350   37.0180 C   0  0  0  0  0  3  0  0  0  0  0  0
   46.0080   31.2640   36.7710 C   0  0  0  0  0  0  0  0  0  0  0  0
   45.5110   30.2190   35.4440 Cl  0  0  0  0  0  0  0  0  0  0  0  0
   47.0760   30.9020   37.5630 C   0  0  0  0  0  0  0  0  0  0  0  0
   47.6000   29.9820   37.3670 H   0  0  0  0  0  0  0  0  0  0  0  0
  1  2  1  0  0  0  0
  2  8  1  0  0  0  0
  3  2  2  0  0  0  0
  3  4  1  0  0  0  0
  4  5  2  0  0  0  0
  5  6  1  0  0  0  0
  5 11  1  0  0  0  0
  6  7  1  0  0  0  0
  8 10  1  0  0  0  0
  8  6  2  0  0  0  0
  9  4  1  0  0  0  0
 11 20  1  0  0  0  0
 12 11  2  0  0  0  0
 12 13  1  0  0  0  0
 13 14  2  0  0  0  0
 14 19  1  0  0  0  0
 14 15  1  0  0  0  0
 15 16  2  0  0  0  0
 16 23  1  0  0  0  0
 16 17  1  0  0  0  0
 17 24  1  0  0  0  0
 18 25  1  0  0  0  0
 18 17  2  0  0  0  0
 19 18  1  0  0  0  0
 20 26  1  0  0  0  0
 20 19  2  0  0  0  0
 21 12  1  0  0  0  0
 22 13  1  0  0  0  0
 27 32  1  0  0  0  0
 28 29  1  0  0  0  0
 28 27  2  0  0  0  0
 29 30  2  0  0  0  0
 30 31  1  0  0  0  0
 31  3  1  0  0  0  0
 32 31  2  0  0  0  0
 33 27  1  0  0  0  0
 34 28  1  0  0  0  0
 36 37  1  0  0  0  0
 36 35  1  0  0  0  0
 37 29  1  0  0  0  0
 38 39  1  0  0  0  0
 38 37  2  0  0  0  0
 40 38  1  0  0  0  0
 41 40  2  0  0  0  0
 41 43  1  0  0  0  0
 42 41  1  0  0  0  0
 43 36  2  0  0  0  0
 44 43  1  0  0  0  0
M  END
>  <minimizedAffinity>
-7.082654

>  <minimizedRMSD>
0.642542958

$$$$
