
 OpenBabel03242515393D

 37 40  0  0  0  0  0  0  0  0999 V2000
   43.9260   34.6320   40.9170 C   0  0  0  0  0  0  0  0  0  0  0  0
   43.8790   33.5320   40.0780 C   0  0  0  0  0  0  0  0  0  0  0  0
   45.0830   32.8860   39.7970 C   0  0  0  0  0  0  0  0  0  0  0  0
   46.2200   33.3770   40.3640 N   0  0  0  0  0  0  0  0  0  0  0  0
   46.2300   34.4400   41.1670 C   0  0  0  0  0  0  0  0  0  0  0  0
   45.0840   35.0420   41.4250 N   0  0  0  0  0  0  0  0  0  0  0  0
   42.9470   33.2010   39.6680 H   0  0  0  0  0  0  0  0  0  0  0  0
   45.5310   33.5210   36.9430 Cl  0  0  0  0  0  0  0  0  0  0  0  0
   45.3460   31.8910   37.5900 C   0  0  0  0  0  0  0  0  0  0  0  0
   45.1410   31.7350   38.9390 C   0  0  0  0  0  0  0  0  0  0  0  0
   45.0090   30.4260   39.3480 C   0  0  0  0  0  0  0  0  0  0  0  0
   44.8460   30.2240   40.3960 H   0  0  0  0  0  0  0  0  0  0  0  0
   45.0760   29.3450   38.4650 C   0  0  0  0  0  3  0  0  0  0  0  0
   45.2850   29.5900   37.1120 C   0  0  0  0  0  0  0  0  0  0  0  0
   45.3600   28.2020   36.0550 Cl  0  0  0  0  0  0  0  0  0  0  0  0
   45.4230   30.8910   36.6620 C   0  0  0  0  0  0  0  0  0  0  0  0
   45.5860   31.0680   35.6040 H   0  0  0  0  0  0  0  0  0  0  0  0
   42.3460   35.4460   41.2590 S   0  0  0  0  0  0  0  0  0  0  0  0
   40.1690   34.7740   39.8130 C   0  0  0  0  0  0  0  0  0  0  0  0
   40.9900   34.3520   40.8620 C   0  0  0  0  0  0  0  0  0  0  0  0
   40.7400   33.1630   41.5240 C   0  0  0  0  0  0  0  0  0  0  0  0
   39.6750   32.3490   41.1810 C   0  0  0  0  0  0  0  0  0  0  0  0
   38.8500   32.7800   40.1210 C   0  0  0  0  0  0  0  0  0  0  0  0
   39.0920   33.9720   39.4480 C   0  0  0  0  0  0  0  0  0  0  0  0
   37.8480   31.7900   39.9640 O   0  0  0  0  0  0  0  0  0  0  0  0
   37.8750   31.0260   41.1430 C   0  0  0  0  0  0  0  0  0  0  0  0
   39.1950   31.1400   41.6540 O   0  0  0  0  0  0  0  0  0  0  0  0
   40.3280   35.6900   39.2730 H   0  0  0  0  0  0  0  0  0  0  0  0
   41.4080   32.8900   42.3270 H   0  0  0  0  0  0  0  0  0  0  0  0
   38.4670   34.3010   38.6450 H   0  0  0  0  0  0  0  0  0  0  0  0
   37.5520   29.9860   41.0100 H   0  0  0  0  0  0  0  0  0  0  0  0
   37.2220   31.5590   41.8850 H   0  0  0  0  0  0  0  0  0  0  0  0
   47.3590   34.9510   41.7480 O   0  0  0  0  0  0  0  0  0  0  0  0
   48.5420   35.0540   41.0130 C   0  0  0  0  0  0  0  0  0  0  0  0
   49.4040   34.0170   41.2470 F   0  0  0  0  0  0  0  0  0  0  0  0
   48.1390   35.1340   39.6710 F   0  0  0  0  0  0  0  0  0  0  0  0
   49.1750   36.2230   41.4060 F   0  0  0  0  0  0  0  0  0  0  0  0
  1 18  1  0  0  0  0
  1  6  1  0  0  0  0
  2  1  2  0  0  0  0
  3  2  1  0  0  0  0
  3  4  2  0  0  0  0
  4  5  1  0  0  0  0
  5  6  2  0  0  0  0
  5 33  1  0  0  0  0
  7  2  1  0  0  0  0
  8  9  1  0  0  0  0
  9 10  1  0  0  0  0
 10 11  2  0  0  0  0
 10  3  1  0  0  0  0
 11 12  1  0  0  0  0
 13 11  1  0  0  0  0
 14 13  2  0  0  0  0
 15 14  1  0  0  0  0
 16 14  1  0  0  0  0
 16  9  2  0  0  0  0
 17 16  1  0  0  0  0
 19 20  1  0  0  0  0
 20 18  1  0  0  0  0
 20 21  2  0  0  0  0
 21 29  1  0  0  0  0
 22 21  1  0  0  0  0
 22 27  1  0  0  0  0
 23 22  2  0  0  0  0
 24 19  2  0  0  0  0
 24 23  1  0  0  0  0
 25 23  1  0  0  0  0
 25 26  1  0  0  0  0
 26 27  1  0  0  0  0
 26 32  1  0  0  0  0
 28 19  1  0  0  0  0
 30 24  1  0  0  0  0
 31 26  1  0  0  0  0
 34 35  1  0  0  0  0
 34 37  1  0  0  0  0
 34 33  1  0  0  0  0
 36 34  1  0  0  0  0
M  END
>  <minimizedAffinity>
-5.82846165

>  <minimizedRMSD>
0.527598441

$$$$
