
 OpenBabel03252506493D

 30 32  0  0  0  0  0  0  0  0999 V2000
   45.7180   33.7840   41.5810 C   0  0  0  0  0  0  0  0  0  0  0  0
   46.8940   34.4460   41.2270 C   0  0  0  0  0  0  0  0  0  0  0  0
   47.8550   34.6680   42.2180 C   0  0  0  0  0  0  0  0  0  0  0  0
   47.6040   34.2360   43.4660 N   0  0  0  0  0  0  0  0  0  0  0  0
   46.4550   33.5950   43.7970 C   0  0  0  0  0  0  0  0  0  0  0  0
   45.4990   33.3620   42.8530 N   0  0  0  0  0  0  0  0  0  0  0  0
   47.0800   34.7880   40.2110 H   0  0  0  0  0  0  0  0  0  0  0  0
   48.7880   35.1710   42.0250 H   0  0  0  0  0  0  0  0  0  0  0  0
   47.7470   30.9750   44.4460 Cl  0  0  0  0  0  0  0  0  0  0  0  0
   46.7600   31.9170   45.5490 C   0  0  0  0  0  0  0  0  0  0  0  0
   46.1940   33.1280   45.1690 C   0  0  0  0  0  0  0  0  0  0  0  0
   45.4070   33.8830   46.0400 C   0  0  0  0  0  0  0  0  0  0  0  0
   45.0110   34.8170   45.6430 H   0  0  0  0  0  0  0  0  0  0  0  0
   45.1880   33.4070   47.3210 C   0  0  0  0  0  0  0  0  0  0  0  0
   45.7650   32.2140   47.6440 C   0  0  0  0  0  0  0  0  0  0  0  0
   45.4790   31.6210   49.2730 Cl  0  0  0  0  0  0  0  0  0  0  0  0
   46.5420   31.4310   46.8430 C   0  0  0  0  0  0  0  0  0  0  0  0
   46.9630   30.4870   47.1910 H   0  0  0  0  0  0  0  0  0  0  0  0
   44.5380   33.5360   40.2600 S   0  0  0  0  0  0  0  0  0  0  0  0
   42.2370   31.3650   40.7380 Cl  0  0  0  0  0  0  0  0  0  0  0  0
   41.8510   33.0670   40.9400 C   0  0  0  0  0  0  0  0  0  0  0  0
   42.8790   33.9240   40.7190 C   0  0  0  0  0  0  0  0  0  0  0  0
   42.6390   35.2900   40.8630 C   0  0  0  0  0  0  0  0  0  0  0  0
   41.3510   35.7150   41.2270 C   0  0  0  0  0  0  0  0  0  0  0  0
   40.3060   34.8500   41.4520 C   0  0  0  0  0  0  0  0  0  0  0  0
   40.5870   33.4950   41.2980 C   0  0  0  0  0  0  0  0  0  0  0  0
   39.3380   32.2820   41.5560 Cl  0  0  0  0  0  0  0  0  0  0  0  0
   43.3570   36.0550   40.7190 H   0  0  0  0  0  0  0  0  0  0  0  0
   41.1540   36.7840   41.3420 H   0  0  0  0  0  0  0  0  0  0  0  0
   39.3310   35.1820   41.7290 H   0  0  0  0  0  0  0  0  0  0  0  0
  1  6  1  0  0  0  0
  2  1  2  0  0  0  0
  2  3  1  0  0  0  0
  3  4  2  0  0  0  0
  4  5  1  0  0  0  0
  5 11  1  0  0  0  0
  6  5  2  0  0  0  0
  7  2  1  0  0  0  0
  8  3  1  0  0  0  0
  9 10  1  0  0  0  0
 10 17  1  0  0  0  0
 11 10  2  0  0  0  0
 11 12  1  0  0  0  0
 12 14  2  0  0  0  0
 13 12  1  0  0  0  0
 14 15  1  0  0  0  0
 15 16  1  0  0  0  0
 17 18  1  0  0  0  0
 17 15  2  0  0  0  0
 19 22  1  0  0  0  0
 19  1  1  0  0  0  0
 20 21  1  0  0  0  0
 21 26  1  0  0  0  0
 22 23  1  0  0  0  0
 22 21  2  0  0  0  0
 23 24  2  0  0  0  0
 24 29  1  0  0  0  0
 24 25  1  0  0  0  0
 25 30  1  0  0  0  0
 26 25  2  0  0  0  0
 26 27  1  0  0  0  0
 28 23  1  0  0  0  0
M  END
>  <minimizedAffinity>
-5.83133507

>  <minimizedRMSD>
4.09676647

$$$$
