
 OpenBabel03252506053D

 44 48  0  0  0  0  0  0  0  0999 V2000
   44.7820   35.9770   43.2710 Cl  0  0  0  0  0  0  0  0  0  0  0  0
   45.5330   34.7390   44.2250 C   0  0  0  0  0  0  0  0  0  0  0  0
   46.6280   34.0500   43.7330 C   0  0  0  0  0  0  0  0  0  0  0  0
   47.1460   33.0840   44.5790 C   0  0  0  0  0  0  0  0  0  0  0  0
   46.6650   32.7750   45.8280 C   0  0  0  0  0  0  0  0  0  0  0  0
   45.5790   33.4800   46.2800 C   0  0  0  0  0  0  0  0  0  0  0  0
   44.9870   33.0680   47.8750 Cl  0  0  0  0  0  0  0  0  0  0  0  0
   45.0180   34.4500   45.4930 C   0  0  0  0  0  0  0  0  0  0  0  0
   48.0130   32.5480   44.1740 H   0  0  0  0  0  0  0  0  0  0  0  0
   44.1620   34.9990   45.8600 H   0  0  0  0  0  0  0  0  0  0  0  0
   47.3550   31.7230   46.5610 C   0  0  0  0  0  0  0  0  0  0  0  0
   47.4680   30.4270   46.0830 C   0  0  0  0  0  0  0  0  0  0  0  0
   48.1140   29.4080   46.7530 C   0  0  0  0  0  0  0  0  0  0  0  0
   48.6920   29.6760   47.9740 C   0  0  0  0  0  0  0  0  0  0  0  0
   49.3170   28.6750   48.6130 N   0  0  0  0  0  0  0  0  0  0  0  0
   49.9130   28.8540   49.8220 C   0  0  0  0  0  0  0  0  0  0  0  0
   49.8420   30.1220   50.3620 C   0  0  0  0  0  0  0  0  0  0  0  0
   49.2020   31.1450   49.7100 C   0  0  0  0  0  0  0  0  0  0  0  0
   48.6030   30.9430   48.4790 C   0  0  0  0  0  0  0  0  0  0  0  0
   47.9500   31.9510   47.7950 C   0  0  0  0  0  0  0  0  0  0  0  0
   47.0130   30.1960   45.1120 H   0  0  0  0  0  0  0  0  0  0  0  0
   48.1700   28.4090   46.3270 H   0  0  0  0  0  0  0  0  0  0  0  0
   50.3980   28.0020   50.2790 H   0  0  0  0  0  0  0  0  0  0  0  0
   50.3180   30.2720   51.3340 H   0  0  0  0  0  0  0  0  0  0  0  0
   49.1670   32.1190   50.1590 H   0  0  0  0  0  0  0  0  0  0  0  0
   47.9030   32.9330   48.2270 H   0  0  0  0  0  0  0  0  0  0  0  0
   48.7620   35.4270   41.1300 C   0  0  0  0  0  0  0  0  0  0  0  0
   48.2610   34.8410   39.9580 C   0  0  0  0  0  0  0  0  0  0  0  0
   47.1690   33.9570   40.0690 C   0  0  0  0  0  0  0  0  0  0  0  0
   46.7020   33.7550   41.3160 N   0  0  0  0  0  0  0  0  0  0  0  0
   47.1920   34.3220   42.4220 C   0  0  0  0  0  0  0  0  0  0  0  0
   48.2250   35.1630   42.3400 N   0  0  0  0  0  0  0  0  0  0  0  0
   49.5930   36.0960   41.0110 H   0  0  0  0  0  0  0  0  0  0  0  0
   48.6880   35.0550   39.0110 H   0  0  0  0  0  0  0  0  0  0  0  0
   48.5520   34.6130   37.5570 Cl  0  0  0  0  0  0  0  0  0  0  0  0
   47.1540   33.5420   37.6790 C   0  0  0  0  0  0  0  0  0  0  0  0
   46.5820   33.3030   38.9100 C   0  0  0  0  0  0  0  0  0  0  0  0
   45.5050   32.4680   38.9540 C   0  0  0  0  0  0  0  0  0  0  0  0
   45.0280   32.2560   39.9000 H   0  0  0  0  0  0  0  0  0  0  0  0
   45.0180   31.8890   37.7760 C   0  0  0  0  0  3  0  0  0  0  0  0
   45.6140   32.1510   36.5690 C   0  0  0  0  0  0  0  0  0  0  0  0
   44.9940   31.4160   35.0950 Cl  0  0  0  0  0  0  0  0  0  0  0  0
   46.7050   32.9920   36.5080 C   0  0  0  0  0  0  0  0  0  0  0  0
   47.1700   33.1960   35.5590 H   0  0  0  0  0  0  0  0  0  0  0  0
  1  2  1  0  0  0  0
  2  8  1  0  0  0  0
  3  2  2  0  0  0  0
  3  4  1  0  0  0  0
  4  5  2  0  0  0  0
  5  6  1  0  0  0  0
  5 11  1  0  0  0  0
  6  7  1  0  0  0  0
  8 10  1  0  0  0  0
  8  6  2  0  0  0  0
  9  4  1  0  0  0  0
 11 20  1  0  0  0  0
 12 11  2  0  0  0  0
 12 13  1  0  0  0  0
 13 14  2  0  0  0  0
 14 19  1  0  0  0  0
 14 15  1  0  0  0  0
 15 16  2  0  0  0  0
 16 23  1  0  0  0  0
 16 17  1  0  0  0  0
 17 24  1  0  0  0  0
 18 25  1  0  0  0  0
 18 17  2  0  0  0  0
 19 18  1  0  0  0  0
 20 26  1  0  0  0  0
 20 19  2  0  0  0  0
 21 12  1  0  0  0  0
 22 13  1  0  0  0  0
 27 32  1  0  0  0  0
 28 29  1  0  0  0  0
 28 27  2  0  0  0  0
 29 30  2  0  0  0  0
 30 31  1  0  0  0  0
 31  3  1  0  0  0  0
 32 31  2  0  0  0  0
 33 27  1  0  0  0  0
 34 28  1  0  0  0  0
 35 36  1  0  0  0  0
 36 37  1  0  0  0  0
 37 38  2  0  0  0  0
 37 29  1  0  0  0  0
 38 39  1  0  0  0  0
 40 38  1  0  0  0  0
 41 40  2  0  0  0  0
 42 41  1  0  0  0  0
 43 41  1  0  0  0  0
 43 36  2  0  0  0  0
 44 43  1  0  0  0  0
M  END
>  <minimizedAffinity>
-7.79996014

>  <minimizedRMSD>
0.147390962

$$$$
