
 OpenBabel03242523503D

 44 47  0  0  1  0  0  0  0  0999 V2000
   42.8160   34.4490   38.7390 C   0  0  1  0  0  0  0  0  0  0  0  0
   43.0070   35.1590   40.0790 C   0  0  1  0  0  0  0  0  0  0  0  0
   41.7430   35.5050   40.5940 O   0  0  0  0  0  0  0  0  0  0  0  0
   40.8280   35.8570   39.5980 C   0  0  0  0  0  0  0  0  0  0  0  0
   40.4250   34.6410   38.7850 C   0  0  2  0  0  0  0  0  0  0  0  0
   41.5630   33.6080   38.9140 C   0  0  1  0  0  0  0  0  0  0  0  0
   43.6630   33.7630   38.5170 H   0  0  0  0  0  0  0  0  0  0  0  0
   43.6510   36.0330   39.9640 H   0  0  0  0  0  0  0  0  0  0  0  0
   39.9420   36.2270   40.1500 H   0  0  0  0  0  0  0  0  0  0  0  0
   41.1860   36.7000   38.9960 H   0  0  0  0  0  0  0  0  0  0  0  0
   39.4600   34.2090   39.1040 H   0  0  0  0  0  0  0  0  0  0  0  0
   41.5470   33.2000   39.9280 H   0  0  0  0  0  0  0  0  0  0  0  0
   42.6270   35.3770   37.7170 O   0  0  0  0  0  0  0  0  0  0  0  0
   43.5220   35.7130   37.4660 H   0  0  0  0  0  0  0  0  0  0  0  0
   40.4380   35.0000   37.4320 O   0  0  0  0  0  0  0  0  0  0  0  0
   40.2520   34.2010   36.8690 H   0  0  0  0  0  0  0  0  0  0  0  0
   43.4890   34.1870   40.9660 O   0  0  0  0  0  0  0  0  0  0  0  0
   44.5950   34.2980   41.7070 C   0  0  0  0  0  0  0  0  0  0  0  0
   45.8470   34.4340   41.1120 C   0  0  0  0  0  0  0  0  0  0  0  0
   46.9610   34.5470   41.9290 C   0  0  0  0  0  0  0  0  0  0  0  0
   46.8080   34.5210   43.3080 N   0  0  0  0  0  0  0  0  0  0  0  0
   45.5850   34.3870   43.8410 C   0  0  0  0  0  0  0  0  0  0  0  0
   44.4820   34.2750   43.0580 N   0  0  0  0  0  0  0  0  0  0  0  0
   45.9920   34.4570   40.0390 H   0  0  0  0  0  0  0  0  0  0  0  0
   45.4200   34.3610   44.9100 H   0  0  0  0  0  0  0  0  0  0  0  0
   48.3390   34.6810   41.3340 C   0  0  0  0  0  0  0  0  0  0  0  0
   49.0490   36.0030   41.5170 C   0  0  0  0  0  0  0  0  0  0  0  0
   49.4930   34.6960   42.1920 C   0  0  0  0  0  0  0  0  0  0  0  0
   48.3770   34.2100   40.3350 H   0  0  0  0  0  0  0  0  0  0  0  0
   48.5330   36.7690   42.1030 H   0  0  0  0  0  0  0  0  0  0  0  0
   49.6710   36.2970   40.6480 H   0  0  0  0  0  0  0  0  0  0  0  0
   49.3350   34.7430   43.3090 H   0  0  0  0  0  0  0  0  0  0  0  0
   50.4910   34.3380   41.9440 H   0  0  0  0  0  0  0  0  0  0  0  0
   41.4300   32.6080   37.9710 O   0  0  0  0  0  0  0  0  0  0  0  0
   42.4420   30.5420   36.1970 Cl  0  0  0  0  0  0  0  0  0  0  0  0
   40.9250   30.5360   37.1090 C   0  0  0  0  0  0  0  0  0  0  0  0
   40.5360   31.5770   37.9290 C   0  0  0  0  0  0  0  0  0  0  0  0
   39.3380   31.4980   38.6070 C   0  0  0  0  0  0  0  0  0  0  0  0
   39.0760   32.3350   39.2360 H   0  0  0  0  0  0  0  0  0  0  0  0
   38.5000   30.3890   38.4880 C   0  0  0  0  0  0  0  0  0  0  0  0
   38.9550   29.3870   37.6490 C   0  0  0  0  0  0  0  0  0  0  0  0
   37.9340   27.9640   37.4630 Cl  0  0  0  0  0  0  0  0  0  0  0  0
   40.1410   29.4100   36.9470 C   0  0  0  0  0  0  0  0  0  0  0  0
   40.4380   28.5910   36.3080 H   0  0  0  0  0  0  0  0  0  0  0  0
  1  7  1  6  0  0  0
  1  6  1  0  0  0  0
  1  2  1  0  0  0  0
  2  8  1  6  0  0  0
  2  3  1  0  0  0  0
  2 17  1  0  0  0  0
  4  9  1  0  0  0  0
  4  3  1  0  0  0  0
  5  6  1  0  0  0  0
  5 11  1  1  0  0  0
  5  4  1  0  0  0  0
  6 12  1  1  0  0  0
 10  4  1  0  0  0  0
 13  1  1  0  0  0  0
 14 13  1  0  0  0  0
 15  5  1  0  0  0  0
 16 15  1  0  0  0  0
 17 18  1  0  0  0  0
 18 23  1  0  0  0  0
 19 18  2  0  0  0  0
 19 20  1  0  0  0  0
 20 21  2  0  0  0  0
 21 22  1  0  0  0  0
 22 25  1  0  0  0  0
 23 22  2  0  0  0  0
 24 19  1  0  0  0  0
 26 27  1  0  0  0  0
 26 20  1  0  0  0  0
 26 28  1  0  0  0  0
 27 30  1  0  0  0  0
 27 28  1  0  0  0  0
 28 32  1  0  0  0  0
 29 26  1  0  0  0  0
 31 27  1  0  0  0  0
 33 28  1  0  0  0  0
 34  6  1  0  0  0  0
 35 36  1  0  0  0  0
 36 37  1  0  0  0  0
 37 34  1  0  0  0  0
 37 38  2  0  0  0  0
 38 39  1  0  0  0  0
 40 38  1  0  0  0  0
 41 40  2  0  0  0  0
 42 41  1  0  0  0  0
 43 36  2  0  0  0  0
 43 41  1  0  0  0  0
 44 43  1  0  0  0  0
M  END
>  <minimizedAffinity>
-6.40614319

>  <minimizedRMSD>
1.44138765

$$$$
