
 OpenBabel03252500113D

 32 34  0  0  0  0  0  0  0  0999 V2000
   40.4200   30.0130   39.4000 Cl  0  0  0  0  0  0  0  0  0  0  0  0
   39.3500   31.3640   39.6560 C   0  0  0  0  0  0  0  0  0  0  0  0
   38.0370   31.1620   40.0040 C   0  0  0  0  0  0  0  0  0  0  0  0
   37.1540   32.2050   40.2170 C   0  0  0  0  0  0  0  0  0  0  0  0
   37.6730   33.4830   40.0560 C   0  0  0  0  0  0  0  0  0  0  0  0
   38.9830   33.6930   39.7080 C   0  0  0  0  0  0  0  0  0  0  0  0
   39.8180   32.6570   39.5090 C   0  0  0  0  0  0  0  0  0  0  0  0
   36.1180   32.0320   40.4930 H   0  0  0  0  0  0  0  0  0  0  0  0
   36.9910   34.3060   40.2200 H   0  0  0  0  0  0  0  0  0  0  0  0
   39.3890   34.6880   39.5820 H   0  0  0  0  0  0  0  0  0  0  0  0
   41.9000   32.4780   41.6950 Cl  0  0  0  0  0  0  0  0  0  0  0  0
   42.2990   32.7830   40.0140 C   0  0  0  0  0  0  0  0  0  0  0  0
   41.2360   32.8370   39.1320 C   0  0  0  0  0  0  0  0  0  0  0  0
   41.4380   33.0740   37.7720 C   0  0  0  0  0  0  0  0  0  0  0  0
   40.6520   33.1280   37.0300 H   0  0  0  0  0  0  0  0  0  0  0  0
   42.7300   33.2610   37.2820 C   0  0  0  0  0  3  0  0  0  0  0  0
   43.7780   33.2030   38.1770 C   0  0  0  0  0  0  0  0  0  0  0  0
   45.4180   33.4370   37.5810 Cl  0  0  0  0  0  0  0  0  0  0  0  0
   43.5840   32.9690   39.5290 C   0  0  0  0  0  0  0  0  0  0  0  0
   44.3870   32.9190   40.2530 H   0  0  0  0  0  0  0  0  0  0  0  0
   36.5970   27.8440   39.2560 C   0  0  0  0  0  0  0  0  0  0  0  0
   36.6320   27.2050   40.5190 C   0  0  0  0  0  0  0  0  0  0  0  0
   37.1440   27.9190   41.5880 C   0  0  0  0  0  0  0  0  0  0  0  0
   37.5930   29.1970   41.4010 N   0  0  0  0  0  0  0  0  0  0  0  0
   37.5420   29.7800   40.1610 C   0  0  0  0  0  0  0  0  0  0  0  0
   37.0490   29.1060   39.1140 N   0  0  0  0  0  0  0  0  0  0  0  0
   36.1910   27.2620   38.4420 H   0  0  0  0  0  0  0  0  0  0  0  0
   36.2980   26.2140   40.7300 H   0  0  0  0  0  0  0  0  0  0  0  0
   37.2350   27.3480   42.9830 C   0  0  0  0  0  0  0  0  0  0  0  0
   36.0040   27.3030   43.5750 F   0  0  0  0  0  0  0  0  0  0  0  0
   37.7330   26.0480   42.8970 F   0  0  0  0  0  0  0  0  0  0  0  0
   38.1090   28.1450   43.6780 F   0  0  0  0  0  0  0  0  0  0  0  0
  1  2  1  0  0  0  0
  2  3  1  0  0  0  0
  3 25  1  0  0  0  0
  3  4  2  0  0  0  0
  4  8  1  0  0  0  0
  5  4  1  0  0  0  0
  5  9  1  0  0  0  0
  6  5  2  0  0  0  0
  7  2  2  0  0  0  0
  7  6  1  0  0  0  0
 10  6  1  0  0  0  0
 12 11  1  0  0  0  0
 13  7  1  0  0  0  0
 13 12  2  0  0  0  0
 14 13  1  0  0  0  0
 15 14  1  0  0  0  0
 16 14  2  0  0  0  0
 16 17  1  0  0  0  0
 17 19  2  0  0  0  0
 18 17  1  0  0  0  0
 19 12  1  0  0  0  0
 19 20  1  0  0  0  0
 21 22  1  0  0  0  0
 22 28  1  0  0  0  0
 22 23  2  0  0  0  0
 23 29  1  0  0  0  0
 24 23  1  0  0  0  0
 25 24  2  0  0  0  0
 26 21  2  0  0  0  0
 26 25  1  0  0  0  0
 27 21  1  0  0  0  0
 29 30  1  0  0  0  0
 29 32  1  0  0  0  0
 31 29  1  0  0  0  0
M  END
>  <minimizedAffinity>
-5.94622755

$$$$

 OpenBabel03252500113D

 32 34  0  0  0  0  0  0  0  0999 V2000
   39.2420   27.5390   40.0430 Cl  0  0  0  0  0  0  0  0  0  0  0  0
   38.2270   27.5870   41.4580 C   0  0  0  0  0  0  0  0  0  0  0  0
   38.1700   28.7130   42.2410 C   0  0  0  0  0  0  0  0  0  0  0  0
   37.3780   28.7940   43.3730 C   0  0  0  0  0  0  0  0  0  0  0  0
   36.6360   27.6610   43.6780 C   0  0  0  0  0  0  0  0  0  0  0  0
   36.6870   26.5320   42.9000 C   0  0  0  0  0  0  0  0  0  0  0  0
   37.4670   26.4850   41.8050 C   0  0  0  0  0  0  0  0  0  0  0  0
   37.3420   29.6910   43.9840 H   0  0  0  0  0  0  0  0  0  0  0  0
   36.0130   27.7140   44.5600 H   0  0  0  0  0  0  0  0  0  0  0  0
   36.1100   25.6490   43.1350 H   0  0  0  0  0  0  0  0  0  0  0  0
   39.5290   24.3820   42.4910 Cl  0  0  0  0  0  0  0  0  0  0  0  0
   38.4400   24.2460   41.1220 C   0  0  0  0  0  0  0  0  0  0  0  0
   37.5530   25.2900   40.9390 C   0  0  0  0  0  0  0  0  0  0  0  0
   36.6420   25.2860   39.8820 C   0  0  0  0  0  0  0  0  0  0  0  0
   35.9230   26.0690   39.6820 H   0  0  0  0  0  0  0  0  0  0  0  0
   36.6170   24.2150   38.9880 C   0  0  0  0  0  3  0  0  0  0  0  0
   37.5100   23.1830   39.1870 C   0  0  0  0  0  0  0  0  0  0  0  0
   37.4960   21.8220   38.0710 Cl  0  0  0  0  0  0  0  0  0  0  0  0
   38.4170   23.1810   40.2340 C   0  0  0  0  0  0  0  0  0  0  0  0
   39.1280   22.3850   40.4140 H   0  0  0  0  0  0  0  0  0  0  0  0
   40.9830   31.0910   41.9660 C   0  0  0  0  0  0  0  0  0  0  0  0
   40.4450   32.1050   41.1360 C   0  0  0  0  0  0  0  0  0  0  0  0
   39.1420   31.9510   40.6940 C   0  0  0  0  0  0  0  0  0  0  0  0
   38.4240   30.8470   41.0630 N   0  0  0  0  0  0  0  0  0  0  0  0
   38.9830   29.8880   41.8680 C   0  0  0  0  0  0  0  0  0  0  0  0
   40.2410   30.0180   42.3060 N   0  0  0  0  0  0  0  0  0  0  0  0
   42.0010   31.2380   42.2950 H   0  0  0  0  0  0  0  0  0  0  0  0
   40.9510   32.9860   40.8140 H   0  0  0  0  0  0  0  0  0  0  0  0
   38.4570   32.9610   39.8070 C   0  0  0  0  0  0  0  0  0  0  0  0
   39.2200   34.0870   39.6650 F   0  0  0  0  0  0  0  0  0  0  0  0
   38.2730   32.3900   38.5470 F   0  0  0  0  0  0  0  0  0  0  0  0
   37.2430   33.2340   40.3840 F   0  0  0  0  0  0  0  0  0  0  0  0
  1  2  1  0  0  0  0
  2  7  2  0  0  0  0
  2  3  1  0  0  0  0
  3  4  2  0  0  0  0
  4  5  1  0  0  0  0
  4  8  1  0  0  0  0
  5  9  1  0  0  0  0
  6 10  1  0  0  0  0
  6  5  2  0  0  0  0
  7  6  1  0  0  0  0
 12 11  1  0  0  0  0
 13 12  1  0  0  0  0
 13  7  1  0  0  0  0
 14 13  2  0  0  0  0
 15 14  1  0  0  0  0
 16 17  2  0  0  0  0
 16 14  1  0  0  0  0
 17 19  1  0  0  0  0
 18 17  1  0  0  0  0
 19 20  1  0  0  0  0
 19 12  2  0  0  0  0
 21 27  1  0  0  0  0
 21 26  1  0  0  0  0
 22 21  2  0  0  0  0
 23 24  2  0  0  0  0
 23 22  1  0  0  0  0
 24 25  1  0  0  0  0
 25  3  1  0  0  0  0
 25 26  2  0  0  0  0
 28 22  1  0  0  0  0
 29 32  1  0  0  0  0
 29 23  1  0  0  0  0
 30 29  1  0  0  0  0
 31 29  1  0  0  0  0
M  END
>  <minimizedAffinity>
-5.94087315

$$$$

 OpenBabel03252500113D

 32 34  0  0  0  0  0  0  0  0999 V2000
   39.9060   27.6070   40.1160 Cl  0  0  0  0  0  0  0  0  0  0  0  0
   38.7380   27.7220   41.4030 C   0  0  0  0  0  0  0  0  0  0  0  0
   37.4780   28.2130   41.1630 C   0  0  0  0  0  0  0  0  0  0  0  0
   36.5190   28.3210   42.1550 C   0  0  0  0  0  0  0  0  0  0  0  0
   36.9050   27.9030   43.4220 C   0  0  0  0  0  0  0  0  0  0  0  0
   38.1620   27.4110   43.6690 C   0  0  0  0  0  0  0  0  0  0  0  0
   39.0710   27.3170   42.6830 C   0  0  0  0  0  0  0  0  0  0  0  0
   35.5260   28.7110   41.9520 H   0  0  0  0  0  0  0  0  0  0  0  0
   36.1640   27.9830   44.2040 H   0  0  0  0  0  0  0  0  0  0  0  0
   38.4640   27.0840   44.6550 H   0  0  0  0  0  0  0  0  0  0  0  0
   39.5450   24.3610   42.2580 Cl  0  0  0  0  0  0  0  0  0  0  0  0
   40.8100   25.4730   42.7510 C   0  0  0  0  0  0  0  0  0  0  0  0
   40.4370   26.7950   42.9040 C   0  0  0  0  0  0  0  0  0  0  0  0
   41.3610   27.7650   43.2930 C   0  0  0  0  0  0  0  0  0  0  0  0
   41.1370   28.8140   43.4310 H   0  0  0  0  0  0  0  0  0  0  0  0
   42.6870   27.4060   43.5350 C   0  0  0  0  0  3  0  0  0  0  0  0
   43.0400   26.0820   43.3770 C   0  0  0  0  0  0  0  0  0  0  0  0
   44.7080   25.6060   43.6770 Cl  0  0  0  0  0  0  0  0  0  0  0  0
   42.1270   25.1140   42.9910 C   0  0  0  0  0  0  0  0  0  0  0  0
   42.3750   24.0690   42.8600 H   0  0  0  0  0  0  0  0  0  0  0  0
   36.1070   28.2320   37.7340 C   0  0  0  0  0  0  0  0  0  0  0  0
   36.5000   29.5050   37.2550 C   0  0  0  0  0  0  0  0  0  0  0  0
   37.2200   30.3200   38.1110 C   0  0  0  0  0  0  0  0  0  0  0  0
   37.5260   29.8840   39.3710 N   0  0  0  0  0  0  0  0  0  0  0  0
   37.1250   28.6430   39.7960 C   0  0  0  0  0  0  0  0  0  0  0  0
   36.4290   27.8390   38.9830 N   0  0  0  0  0  0  0  0  0  0  0  0
   35.5460   27.6180   37.0430 H   0  0  0  0  0  0  0  0  0  0  0  0
   36.2940   29.9020   36.2870 H   0  0  0  0  0  0  0  0  0  0  0  0
   37.6970   31.6970   37.7190 C   0  0  0  0  0  0  0  0  0  0  0  0
   37.4260   31.9540   36.4030 F   0  0  0  0  0  0  0  0  0  0  0  0
   37.0250   32.6380   38.5000 F   0  0  0  0  0  0  0  0  0  0  0  0
   39.0420   31.7390   37.9820 F   0  0  0  0  0  0  0  0  0  0  0  0
  1  2  1  0  0  0  0
  2  7  1  0  0  0  0
  3  2  2  0  0  0  0
  3  4  1  0  0  0  0
  4  5  2  0  0  0  0
  5  6  1  0  0  0  0
  5  9  1  0  0  0  0
  6 10  1  0  0  0  0
  7 13  1  0  0  0  0
  7  6  2  0  0  0  0
  8  4  1  0  0  0  0
 11 12  1  0  0  0  0
 12 13  2  0  0  0  0
 12 19  1  0  0  0  0
 13 14  1  0  0  0  0
 14 15  1  0  0  0  0
 14 16  2  0  0  0  0
 17 16  1  0  0  0  0
 17 18  1  0  0  0  0
 19 17  2  0  0  0  0
 20 19  1  0  0  0  0
 21 26  1  0  0  0  0
 22 21  2  0  0  0  0
 22 23  1  0  0  0  0
 23 24  2  0  0  0  0
 24 25  1  0  0  0  0
 25  3  1  0  0  0  0
 26 25  2  0  0  0  0
 27 21  1  0  0  0  0
 28 22  1  0  0  0  0
 29 32  1  0  0  0  0
 29 23  1  0  0  0  0
 29 31  1  0  0  0  0
 30 29  1  0  0  0  0
M  END
>  <minimizedAffinity>
-5.89347506

$$$$

 OpenBabel03252500113D

 32 34  0  0  0  0  0  0  0  0999 V2000
   40.6020   30.0160   40.0310 Cl  0  0  0  0  0  0  0  0  0  0  0  0
   39.3270   31.1990   39.9450 C   0  0  0  0  0  0  0  0  0  0  0  0
   38.0100   30.8110   39.9630 C   0  0  0  0  0  0  0  0  0  0  0  0
   36.9660   31.7170   39.8970 C   0  0  0  0  0  0  0  0  0  0  0  0
   37.3260   33.0550   39.8100 C   0  0  0  0  0  0  0  0  0  0  0  0
   38.6400   33.4500   39.7920 C   0  0  0  0  0  0  0  0  0  0  0  0
   39.6330   32.5450   39.8590 C   0  0  0  0  0  0  0  0  0  0  0  0
   35.9280   31.3980   39.9110 H   0  0  0  0  0  0  0  0  0  0  0  0
   36.5180   33.7710   39.7580 H   0  0  0  0  0  0  0  0  0  0  0  0
   38.9230   34.4920   39.7260 H   0  0  0  0  0  0  0  0  0  0  0  0
   41.0970   32.4450   37.2150 Cl  0  0  0  0  0  0  0  0  0  0  0  0
   41.8630   32.9310   38.7170 C   0  0  0  0  0  0  0  0  0  0  0  0
   41.0610   32.9260   39.8420 C   0  0  0  0  0  0  0  0  0  0  0  0
   41.5660   33.2940   41.0900 C   0  0  0  0  0  0  0  0  0  0  0  0
   40.9950   33.3120   42.0080 H   0  0  0  0  0  0  0  0  0  0  0  0
   42.9010   33.6770   41.2150 C   0  0  0  0  0  3  0  0  0  0  0  0
   43.6860   33.6760   40.0810 C   0  0  0  0  0  0  0  0  0  0  0  0
   45.3750   34.1550   40.2150 Cl  0  0  0  0  0  0  0  0  0  0  0  0
   43.1900   33.3110   38.8390 C   0  0  0  0  0  0  0  0  0  0  0  0
   43.7830   33.3010   37.9330 H   0  0  0  0  0  0  0  0  0  0  0  0
   37.2740   27.3130   39.0360 C   0  0  0  0  0  0  0  0  0  0  0  0
   37.0810   26.6970   40.2970 C   0  0  0  0  0  0  0  0  0  0  0  0
   37.2060   27.4890   41.4250 C   0  0  0  0  0  0  0  0  0  0  0  0
   37.5070   28.8170   41.2960 N   0  0  0  0  0  0  0  0  0  0  0  0
   37.6870   29.3740   40.0550 C   0  0  0  0  0  0  0  0  0  0  0  0
   37.5690   28.6250   38.9520 N   0  0  0  0  0  0  0  0  0  0  0  0
   37.1700   26.6700   38.1740 H   0  0  0  0  0  0  0  0  0  0  0  0
   36.8450   25.6710   40.4640 H   0  0  0  0  0  0  0  0  0  0  0  0
   37.0240   26.9510   42.8240 C   0  0  0  0  0  0  0  0  0  0  0  0
   36.6130   25.6480   42.7980 F   0  0  0  0  0  0  0  0  0  0  0  0
   38.2500   27.0170   43.4860 F   0  0  0  0  0  0  0  0  0  0  0  0
   36.1080   27.7650   43.4420 F   0  0  0  0  0  0  0  0  0  0  0  0
  2  3  1  0  0  0  0
  2  1  1  0  0  0  0
  3 25  1  0  0  0  0
  4  8  1  0  0  0  0
  4  3  2  0  0  0  0
  5  4  1  0  0  0  0
  6  5  2  0  0  0  0
  6  7  1  0  0  0  0
  7  2  2  0  0  0  0
  9  5  1  0  0  0  0
 10  6  1  0  0  0  0
 11 12  1  0  0  0  0
 12 19  2  0  0  0  0
 12 13  1  0  0  0  0
 13  7  1  0  0  0  0
 13 14  2  0  0  0  0
 14 16  1  0  0  0  0
 14 15  1  0  0  0  0
 17 18  1  0  0  0  0
 17 16  2  0  0  0  0
 19 17  1  0  0  0  0
 20 19  1  0  0  0  0
 21 22  1  0  0  0  0
 22 28  1  0  0  0  0
 22 23  2  0  0  0  0
 23 29  1  0  0  0  0
 24 23  1  0  0  0  0
 25 24  2  0  0  0  0
 26 21  2  0  0  0  0
 26 25  1  0  0  0  0
 27 21  1  0  0  0  0
 29 32  1  0  0  0  0
 29 31  1  0  0  0  0
 30 29  1  0  0  0  0
M  END
>  <minimizedAffinity>
-5.8598237

$$$$

 OpenBabel03252500113D

 32 34  0  0  0  0  0  0  0  0999 V2000
   39.9130   28.5540   40.5150 Cl  0  0  0  0  0  0  0  0  0  0  0  0
   38.4520   29.4930   40.6480 C   0  0  0  0  0  0  0  0  0  0  0  0
   38.4930   30.8640   40.5890 C   0  0  0  0  0  0  0  0  0  0  0  0
   37.3580   31.6490   40.6890 C   0  0  0  0  0  0  0  0  0  0  0  0
   36.1600   30.9660   40.8570 C   0  0  0  0  0  0  0  0  0  0  0  0
   36.1110   29.5960   40.9170 C   0  0  0  0  0  0  0  0  0  0  0  0
   37.2330   28.8610   40.8150 C   0  0  0  0  0  0  0  0  0  0  0  0
   37.4040   32.7320   40.6410 H   0  0  0  0  0  0  0  0  0  0  0  0
   35.2670   31.5690   40.9370 H   0  0  0  0  0  0  0  0  0  0  0  0
   35.1800   29.0630   41.0470 H   0  0  0  0  0  0  0  0  0  0  0  0
   37.5760   27.5500   43.5190 Cl  0  0  0  0  0  0  0  0  0  0  0  0
   37.3720   26.6410   42.0320 C   0  0  0  0  0  0  0  0  0  0  0  0
   37.2270   27.3840   40.8750 C   0  0  0  0  0  0  0  0  0  0  0  0
   37.0580   26.7650   39.6360 C   0  0  0  0  0  0  0  0  0  0  0  0
   36.9390   27.2850   38.6950 H   0  0  0  0  0  0  0  0  0  0  0  0
   37.0330   25.3730   39.5510 C   0  0  0  0  0  3  0  0  0  0  0  0
   37.1790   24.6490   40.7160 C   0  0  0  0  0  0  0  0  0  0  0  0
   37.1510   22.8910   40.6320 Cl  0  0  0  0  0  0  0  0  0  0  0  0
   37.3470   25.2580   41.9490 C   0  0  0  0  0  0  0  0  0  0  0  0
   37.4640   24.7150   42.8780 H   0  0  0  0  0  0  0  0  0  0  0  0
   41.7590   32.4350   41.3010 C   0  0  0  0  0  0  0  0  0  0  0  0
   42.2160   32.7900   40.0080 C   0  0  0  0  0  0  0  0  0  0  0  0
   41.4000   32.4860   38.9320 C   0  0  0  0  0  0  0  0  0  0  0  0
   40.2000   31.8630   39.1410 N   0  0  0  0  0  0  0  0  0  0  0  0
   39.7960   31.5350   40.4100 C   0  0  0  0  0  0  0  0  0  0  0  0
   40.5700   31.8220   41.4640 N   0  0  0  0  0  0  0  0  0  0  0  0
   42.4170   32.6850   42.1210 H   0  0  0  0  0  0  0  0  0  0  0  0
   43.1370   33.2750   39.7800 H   0  0  0  0  0  0  0  0  0  0  0  0
   41.7740   32.8120   37.5070 C   0  0  0  0  0  0  0  0  0  0  0  0
   41.9280   34.1600   37.3370 F   0  0  0  0  0  0  0  0  0  0  0  0
   42.9870   32.1880   37.2130 F   0  0  0  0  0  0  0  0  0  0  0  0
   40.7770   32.3060   36.7120 F   0  0  0  0  0  0  0  0  0  0  0  0
  1  2  1  0  0  0  0
  2  7  1  0  0  0  0
  3  2  2  0  0  0  0
  3  4  1  0  0  0  0
  4  5  2  0  0  0  0
  5  6  1  0  0  0  0
  5  9  1  0  0  0  0
  6 10  1  0  0  0  0
  7 13  1  0  0  0  0
  7  6  2  0  0  0  0
  8  4  1  0  0  0  0
 12 11  1  0  0  0  0
 13 12  2  0  0  0  0
 14 13  1  0  0  0  0
 15 14  1  0  0  0  0
 16 14  2  0  0  0  0
 16 17  1  0  0  0  0
 17 19  2  0  0  0  0
 18 17  1  0  0  0  0
 19 12  1  0  0  0  0
 19 20  1  0  0  0  0
 21 26  1  0  0  0  0
 21 27  1  0  0  0  0
 22 21  2  0  0  0  0
 23 24  2  0  0  0  0
 23 22  1  0  0  0  0
 24 25  1  0  0  0  0
 25  3  1  0  0  0  0
 25 26  2  0  0  0  0
 28 22  1  0  0  0  0
 29 23  1  0  0  0  0
 30 29  1  0  0  0  0
 31 29  1  0  0  0  0
 32 29  1  0  0  0  0
M  END
>  <minimizedAffinity>
-5.7944355

$$$$

 OpenBabel03252500113D

 32 34  0  0  0  0  0  0  0  0999 V2000
   40.3960   29.9190   40.6030 Cl  0  0  0  0  0  0  0  0  0  0  0  0
   39.0220   30.1340   39.5550 C   0  0  0  0  0  0  0  0  0  0  0  0
   37.8030   29.5910   39.8780 C   0  0  0  0  0  0  0  0  0  0  0  0
   36.6860   29.7370   39.0750 C   0  0  0  0  0  0  0  0  0  0  0  0
   36.8670   30.4700   37.9090 C   0  0  0  0  0  0  0  0  0  0  0  0
   38.0820   31.0150   37.5800 C   0  0  0  0  0  0  0  0  0  0  0  0
   39.1490   30.8560   38.3830 C   0  0  0  0  0  0  0  0  0  0  0  0
   35.7270   29.3020   39.3420 H   0  0  0  0  0  0  0  0  0  0  0  0
   36.0000   30.5900   37.2750 H   0  0  0  0  0  0  0  0  0  0  0  0
   38.2240   31.5870   36.6730 H   0  0  0  0  0  0  0  0  0  0  0  0
   41.1440   29.0940   36.9470 Cl  0  0  0  0  0  0  0  0  0  0  0  0
   41.4910   30.7490   37.4160 C   0  0  0  0  0  0  0  0  0  0  0  0
   40.4760   31.4260   38.0660 C   0  0  0  0  0  0  0  0  0  0  0  0
   40.6430   32.7470   38.4850 C   0  0  0  0  0  0  0  0  0  0  0  0
   39.8920   33.3330   38.9970 H   0  0  0  0  0  0  0  0  0  0  0  0
   41.8490   33.4050   38.2480 C   0  0  0  0  0  3  0  0  0  0  0  0
   42.8500   32.7120   37.5980 C   0  0  0  0  0  0  0  0  0  0  0  0
   44.3810   33.5230   37.2890 Cl  0  0  0  0  0  0  0  0  0  0  0  0
   42.6910   31.4010   37.1800 C   0  0  0  0  0  0  0  0  0  0  0  0
   43.4570   30.8340   36.6690 H   0  0  0  0  0  0  0  0  0  0  0  0
   37.4290   28.7400   43.4530 C   0  0  0  0  0  0  0  0  0  0  0  0
   37.4310   27.3240   43.4310 C   0  0  0  0  0  0  0  0  0  0  0  0
   37.5600   26.7000   42.2030 C   0  0  0  0  0  0  0  0  0  0  0  0
   37.6790   27.4510   41.0660 N   0  0  0  0  0  0  0  0  0  0  0  0
   37.6710   28.8200   41.1310 C   0  0  0  0  0  0  0  0  0  0  0  0
   37.5490   29.4440   42.3090 N   0  0  0  0  0  0  0  0  0  0  0  0
   37.3270   29.1990   44.4250 H   0  0  0  0  0  0  0  0  0  0  0  0
   37.3430   26.6840   44.2800 H   0  0  0  0  0  0  0  0  0  0  0  0
   37.5760   25.1980   42.0490 C   0  0  0  0  0  0  0  0  0  0  0  0
   38.6150   24.6450   42.7460 F   0  0  0  0  0  0  0  0  0  0  0  0
   36.3810   24.6880   42.5570 F   0  0  0  0  0  0  0  0  0  0  0  0
   37.6670   24.9420   40.7050 F   0  0  0  0  0  0  0  0  0  0  0  0
  2  3  1  0  0  0  0
  2  1  1  0  0  0  0
  3 25  1  0  0  0  0
  4  8  1  0  0  0  0
  4  3  2  0  0  0  0
  5  4  1  0  0  0  0
  6  5  2  0  0  0  0
  6  7  1  0  0  0  0
  7  2  2  0  0  0  0
  9  5  1  0  0  0  0
 10  6  1  0  0  0  0
 11 12  1  0  0  0  0
 12 13  1  0  0  0  0
 13  7  1  0  0  0  0
 13 14  2  0  0  0  0
 14 15  1  0  0  0  0
 16 14  1  0  0  0  0
 17 16  2  0  0  0  0
 18 17  1  0  0  0  0
 19 12  2  0  0  0  0
 19 17  1  0  0  0  0
 20 19  1  0  0  0  0
 21 27  1  0  0  0  0
 22 21  1  0  0  0  0
 22 28  1  0  0  0  0
 23 22  2  0  0  0  0
 24 25  2  0  0  0  0
 24 23  1  0  0  0  0
 25 26  1  0  0  0  0
 26 21  2  0  0  0  0
 29 23  1  0  0  0  0
 29 31  1  0  0  0  0
 29 30  1  0  0  0  0
 32 29  1  0  0  0  0
M  END
>  <minimizedAffinity>
-5.77371883

$$$$

 OpenBabel03252500113D

 32 34  0  0  0  0  0  0  0  0999 V2000
   40.1720   29.2300   39.7370 Cl  0  0  0  0  0  0  0  0  0  0  0  0
   38.9180   30.4320   39.8630 C   0  0  0  0  0  0  0  0  0  0  0  0
   39.1240   31.7100   39.4070 C   0  0  0  0  0  0  0  0  0  0  0  0
   38.1560   32.6960   39.4870 C   0  0  0  0  0  0  0  0  0  0  0  0
   36.9500   32.3170   40.0630 C   0  0  0  0  0  0  0  0  0  0  0  0
   36.7360   31.0420   40.5210 C   0  0  0  0  0  0  0  0  0  0  0  0
   37.6970   30.1060   40.4270 C   0  0  0  0  0  0  0  0  0  0  0  0
   38.3320   33.7030   39.1230 H   0  0  0  0  0  0  0  0  0  0  0  0
   36.1870   33.0800   40.1300 H   0  0  0  0  0  0  0  0  0  0  0  0
   35.7980   30.7460   40.9690 H   0  0  0  0  0  0  0  0  0  0  0  0
   38.4340   29.4880   43.2940 Cl  0  0  0  0  0  0  0  0  0  0  0  0
   37.8000   28.2840   42.1870 C   0  0  0  0  0  0  0  0  0  0  0  0
   37.5100   28.7200   40.9080 C   0  0  0  0  0  0  0  0  0  0  0  0
   37.0010   27.8480   39.9450 C   0  0  0  0  0  0  0  0  0  0  0  0
   36.7540   28.1240   38.9290 H   0  0  0  0  0  0  0  0  0  0  0  0
   36.7760   26.5100   40.2680 C   0  0  0  0  0  3  0  0  0  0  0  0
   37.0710   26.0930   41.5490 C   0  0  0  0  0  0  0  0  0  0  0  0
   36.7950   24.4080   41.9780 Cl  0  0  0  0  0  0  0  0  0  0  0  0
   37.5770   26.9540   42.5090 C   0  0  0  0  0  0  0  0  0  0  0  0
   37.8170   26.6540   43.5210 H   0  0  0  0  0  0  0  0  0  0  0  0
   41.8290   32.2130   36.9420 C   0  0  0  0  0  0  0  0  0  0  0  0
   42.8840   32.7130   37.7450 C   0  0  0  0  0  0  0  0  0  0  0  0
   42.6460   32.8630   39.0990 C   0  0  0  0  0  0  0  0  0  0  0  0
   41.4230   32.5340   39.6170 N   0  0  0  0  0  0  0  0  0  0  0  0
   40.4280   32.0540   38.8050 C   0  0  0  0  0  0  0  0  0  0  0  0
   40.6380   31.9000   37.4920 N   0  0  0  0  0  0  0  0  0  0  0  0
   42.0440   32.1060   35.8890 H   0  0  0  0  0  0  0  0  0  0  0  0
   43.8560   32.9860   37.4030 H   0  0  0  0  0  0  0  0  0  0  0  0
   43.6880   33.3850   40.0580 C   0  0  0  0  0  0  0  0  0  0  0  0
   44.3660   32.3570   40.6520 F   0  0  0  0  0  0  0  0  0  0  0  0
   44.5990   34.1610   39.3420 F   0  0  0  0  0  0  0  0  0  0  0  0
   43.0260   34.1600   40.9760 F   0  0  0  0  0  0  0  0  0  0  0  0
  1  2  1  0  0  0  0
  2  7  1  0  0  0  0
  3  4  1  0  0  0  0
  3  2  2  0  0  0  0
  4  5  2  0  0  0  0
  5  9  1  0  0  0  0
  5  6  1  0  0  0  0
  6 10  1  0  0  0  0
  7  6  2  0  0  0  0
  7 13  1  0  0  0  0
  8  4  1  0  0  0  0
 12 19  1  0  0  0  0
 12 11  1  0  0  0  0
 13 12  2  0  0  0  0
 14 16  2  0  0  0  0
 14 13  1  0  0  0  0
 15 14  1  0  0  0  0
 16 17  1  0  0  0  0
 17 18  1  0  0  0  0
 17 19  2  0  0  0  0
 19 20  1  0  0  0  0
 21 26  2  0  0  0  0
 21 22  1  0  0  0  0
 22 23  2  0  0  0  0
 23 24  1  0  0  0  0
 23 29  1  0  0  0  0
 25  3  1  0  0  0  0
 25 24  2  0  0  0  0
 26 25  1  0  0  0  0
 27 21  1  0  0  0  0
 28 22  1  0  0  0  0
 29 30  1  0  0  0  0
 29 32  1  0  0  0  0
 31 29  1  0  0  0  0
M  END
>  <minimizedAffinity>
-5.63885641

$$$$

 OpenBabel03252500113D

 32 34  0  0  0  0  0  0  0  0999 V2000
   38.0900   27.9270   39.4410 Cl  0  0  0  0  0  0  0  0  0  0  0  0
   37.6040   27.6560   41.0910 C   0  0  0  0  0  0  0  0  0  0  0  0
   37.3380   26.3870   41.5430 C   0  0  0  0  0  0  0  0  0  0  0  0
   36.9490   26.1260   42.8450 C   0  0  0  0  0  0  0  0  0  0  0  0
   36.8390   27.2310   43.6800 C   0  0  0  0  0  0  0  0  0  0  0  0
   37.1030   28.5010   43.2350 C   0  0  0  0  0  0  0  0  0  0  0  0
   37.4810   28.7220   41.9630 C   0  0  0  0  0  0  0  0  0  0  0  0
   36.7410   25.1180   43.1900 H   0  0  0  0  0  0  0  0  0  0  0  0
   36.5360   27.0380   44.6990 H   0  0  0  0  0  0  0  0  0  0  0  0
   37.0190   29.3630   43.8840 H   0  0  0  0  0  0  0  0  0  0  0  0
   35.3640   30.0890   40.2910 Cl  0  0  0  0  0  0  0  0  0  0  0  0
   36.9120   30.8250   40.6660 C   0  0  0  0  0  0  0  0  0  0  0  0
   37.7740   30.0740   41.4420 C   0  0  0  0  0  0  0  0  0  0  0  0
   39.0320   30.5610   41.8010 C   0  0  0  0  0  0  0  0  0  0  0  0
   39.7540   30.0270   42.4040 H   0  0  0  0  0  0  0  0  0  0  0  0
   39.4350   31.8260   41.3750 C   0  0  0  0  0  3  0  0  0  0  0  0
   38.5610   32.5600   40.6010 C   0  0  0  0  0  0  0  0  0  0  0  0
   39.0500   34.1600   40.0520 Cl  0  0  0  0  0  0  0  0  0  0  0  0
   37.3110   32.0820   40.2410 C   0  0  0  0  0  0  0  0  0  0  0  0
   36.6050   32.6360   39.6360 H   0  0  0  0  0  0  0  0  0  0  0  0
   38.7820   23.6400   39.5400 C   0  0  0  0  0  0  0  0  0  0  0  0
   37.6500   23.1370   38.8530 C   0  0  0  0  0  0  0  0  0  0  0  0
   36.4300   23.7450   39.0890 C   0  0  0  0  0  0  0  0  0  0  0  0
   36.3500   24.7950   39.9630 N   0  0  0  0  0  0  0  0  0  0  0  0
   37.4700   25.2510   40.6090 C   0  0  0  0  0  0  0  0  0  0  0  0
   38.6600   24.6770   40.3930 N   0  0  0  0  0  0  0  0  0  0  0  0
   39.7200   23.1450   39.3350 H   0  0  0  0  0  0  0  0  0  0  0  0
   37.6470   22.3250   38.1620 H   0  0  0  0  0  0  0  0  0  0  0  0
   35.1530   23.3010   38.4180 C   0  0  0  0  0  0  0  0  0  0  0  0
   34.7930   24.1700   37.4270 F   0  0  0  0  0  0  0  0  0  0  0  0
   35.3650   22.0440   37.8510 F   0  0  0  0  0  0  0  0  0  0  0  0
   34.1990   23.2210   39.4010 F   0  0  0  0  0  0  0  0  0  0  0  0
  1  2  1  0  0  0  0
  2  3  2  0  0  0  0
  2  7  1  0  0  0  0
  3  4  1  0  0  0  0
  4  8  1  0  0  0  0
  4  5  2  0  0  0  0
  5  9  1  0  0  0  0
  6  5  1  0  0  0  0
  6 10  1  0  0  0  0
  7  6  2  0  0  0  0
 11 12  1  0  0  0  0
 12 13  1  0  0  0  0
 13 14  2  0  0  0  0
 13  7  1  0  0  0  0
 14 15  1  0  0  0  0
 16 14  1  0  0  0  0
 17 16  2  0  0  0  0
 18 17  1  0  0  0  0
 19 17  1  0  0  0  0
 19 12  2  0  0  0  0
 20 19  1  0  0  0  0
 21 26  1  0  0  0  0
 22 23  1  0  0  0  0
 22 21  2  0  0  0  0
 23 24  2  0  0  0  0
 24 25  1  0  0  0  0
 25  3  1  0  0  0  0
 26 25  2  0  0  0  0
 27 21  1  0  0  0  0
 28 22  1  0  0  0  0
 29 23  1  0  0  0  0
 29 32  1  0  0  0  0
 30 29  1  0  0  0  0
 31 29  1  0  0  0  0
M  END
>  <minimizedAffinity>
-5.62765646

$$$$

 OpenBabel03252500113D

 32 34  0  0  0  0  0  0  0  0999 V2000
   38.2070   28.1100   39.3230 Cl  0  0  0  0  0  0  0  0  0  0  0  0
   37.8480   27.9420   41.0190 C   0  0  0  0  0  0  0  0  0  0  0  0
   37.7630   29.0470   41.8300 C   0  0  0  0  0  0  0  0  0  0  0  0
   37.4810   28.9590   43.1810 C   0  0  0  0  0  0  0  0  0  0  0  0
   37.2860   27.6780   43.6800 C   0  0  0  0  0  0  0  0  0  0  0  0
   37.3700   26.5690   42.8760 C   0  0  0  0  0  0  0  0  0  0  0  0
   37.6450   26.6880   41.5650 C   0  0  0  0  0  0  0  0  0  0  0  0
   37.4160   29.8410   43.8120 H   0  0  0  0  0  0  0  0  0  0  0  0
   37.0650   27.5980   44.7340 H   0  0  0  0  0  0  0  0  0  0  0  0
   37.2180   25.5700   43.2620 H   0  0  0  0  0  0  0  0  0  0  0  0
   40.3550   25.3930   41.2140 Cl  0  0  0  0  0  0  0  0  0  0  0  0
   38.9090   24.8240   40.4000 C   0  0  0  0  0  0  0  0  0  0  0  0
   37.7440   25.5210   40.6620 C   0  0  0  0  0  0  0  0  0  0  0  0
   36.5350   25.1560   40.0690 C   0  0  0  0  0  0  0  0  0  0  0  0
   35.5900   25.6570   40.2310 H   0  0  0  0  0  0  0  0  0  0  0  0
   36.4890   24.0700   39.1950 C   0  0  0  0  0  3  0  0  0  0  0  0
   37.6600   23.3870   38.9460 C   0  0  0  0  0  0  0  0  0  0  0  0
   37.6250   22.0130   37.8460 Cl  0  0  0  0  0  0  0  0  0  0  0  0
   38.8640   23.7450   39.5310 C   0  0  0  0  0  0  0  0  0  0  0  0
   39.7980   23.2270   39.3540 H   0  0  0  0  0  0  0  0  0  0  0  0
   37.1590   32.2970   40.1830 C   0  0  0  0  0  0  0  0  0  0  0  0
   38.4530   32.8740   40.1630 C   0  0  0  0  0  0  0  0  0  0  0  0
   39.4920   32.1420   40.7090 C   0  0  0  0  0  0  0  0  0  0  0  0
   39.2480   30.9060   41.2430 N   0  0  0  0  0  0  0  0  0  0  0  0
   37.9800   30.3840   41.2430 C   0  0  0  0  0  0  0  0  0  0  0  0
   36.9610   31.0760   40.7180 N   0  0  0  0  0  0  0  0  0  0  0  0
   36.3690   32.8920   39.7490 H   0  0  0  0  0  0  0  0  0  0  0  0
   38.7070   33.8290   39.7630 H   0  0  0  0  0  0  0  0  0  0  0  0
   40.9140   32.6470   40.7480 C   0  0  0  0  0  0  0  0  0  0  0  0
   41.5930   32.2890   39.6170 F   0  0  0  0  0  0  0  0  0  0  0  0
   40.8870   34.0400   40.8250 F   0  0  0  0  0  0  0  0  0  0  0  0
   41.4870   32.1220   41.8780 F   0  0  0  0  0  0  0  0  0  0  0  0
  1  2  1  0  0  0  0
  2  7  2  0  0  0  0
  2  3  1  0  0  0  0
  3  4  2  0  0  0  0
  4  5  1  0  0  0  0
  4  8  1  0  0  0  0
  5  9  1  0  0  0  0
  6 10  1  0  0  0  0
  6  5  2  0  0  0  0
  7  6  1  0  0  0  0
 12 13  1  0  0  0  0
 12 11  1  0  0  0  0
 13  7  1  0  0  0  0
 14 15  1  0  0  0  0
 14 13  2  0  0  0  0
 16 14  1  0  0  0  0
 17 16  2  0  0  0  0
 17 19  1  0  0  0  0
 18 17  1  0  0  0  0
 19 12  2  0  0  0  0
 20 19  1  0  0  0  0
 21 26  1  0  0  0  0
 22 21  2  0  0  0  0
 22 23  1  0  0  0  0
 23 29  1  0  0  0  0
 23 24  2  0  0  0  0
 24 25  1  0  0  0  0
 25  3  1  0  0  0  0
 26 25  2  0  0  0  0
 27 21  1  0  0  0  0
 28 22  1  0  0  0  0
 29 31  1  0  0  0  0
 29 32  1  0  0  0  0
 30 29  1  0  0  0  0
M  END
>  <minimizedAffinity>
-5.62190533

$$$$
