
 OpenBabel03252509293D

 22 23  0  0  0  0  0  0  0  0999 V2000
   45.4060   33.9470   40.4940 C   0  0  0  0  0  0  0  0  0  0  0  0
   45.7970   33.0740   39.9050 H   0  0  0  0  0  0  0  0  0  0  0  0
   45.9070   34.8680   40.1310 H   0  0  0  0  0  0  0  0  0  0  0  0
   47.9720   35.1390   41.3620 Cl  0  0  0  0  0  0  0  0  0  0  0  0
   46.9570   34.1720   42.4290 C   0  0  0  0  0  0  0  0  0  0  0  0
   45.7700   33.6660   41.8980 C   0  0  0  0  0  0  0  0  0  0  0  0
   44.9670   32.8990   42.7490 C   0  0  0  0  0  0  0  0  0  0  0  0
   44.0280   32.4920   42.3490 H   0  0  0  0  0  0  0  0  0  0  0  0
   45.3050   32.6340   44.0620 C   0  0  0  0  0  3  0  0  0  0  0  0
   46.4990   33.1500   44.5760 C   0  0  0  0  0  0  0  0  0  0  0  0
   46.9600   32.8340   46.2410 Cl  0  0  0  0  0  0  0  0  0  0  0  0
   47.3140   33.9160   43.7470 C   0  0  0  0  0  0  0  0  0  0  0  0
   48.2500   34.3230   44.1430 H   0  0  0  0  0  0  0  0  0  0  0  0
   41.9660   35.3410   40.4560 C   0  0  0  0  0  0  0  0  0  0  0  0
   43.3470   35.2340   40.6960 C   0  0  0  0  0  0  0  0  0  0  0  0
   43.9760   34.0600   40.2470 C   0  0  0  0  0  0  0  0  0  0  0  0
   43.2150   33.1180   39.6170 N   0  0  0  0  0  0  0  0  0  0  0  0
   41.8870   33.2760   39.4130 C   0  0  0  0  0  0  0  0  0  0  0  0
   41.2660   34.3940   39.8360 N   0  0  0  0  0  0  0  0  0  0  0  0
   41.5000   36.2670   40.8160 H   0  0  0  0  0  0  0  0  0  0  0  0
   43.9180   36.0010   41.1990 H   0  0  0  0  0  0  0  0  0  0  0  0
   41.3780   32.4610   38.9000 H   0  0  0  0  0  0  0  0  0  0  0  0
  1  6  1  0  0  0  0
  2  1  1  0  0  0  0
  3  1  1  0  0  0  0
  4  5  1  0  0  0  0
  5 12  1  0  0  0  0
  6  5  2  0  0  0  0
  6  7  1  0  0  0  0
  7  9  2  0  0  0  0
  8  7  1  0  0  0  0
  9 10  1  0  0  0  0
 10 11  1  0  0  0  0
 12 13  1  0  0  0  0
 12 10  2  0  0  0  0
 14 15  1  0  0  0  0
 14 20  1  0  0  0  0
 15 21  1  0  0  0  0
 16  1  1  0  0  0  0
 16 15  2  0  0  0  0
 17 16  1  0  0  0  0
 18 17  2  0  0  0  0
 18 19  1  0  0  0  0
 19 14  2  0  0  0  0
 22 18  1  0  0  0  0
M  END
>  <minimizedAffinity>
-3.7675972

>  <minimizedRMSD>
5.19274902

$$$$
