
 OpenBabel03242517553D

 44 46  0  0  0  0  0  0  0  0999 V2000
   45.4070   30.1420   47.3570 C   0  0  0  0  0  0  0  0  0  0  0  0
   45.9510   31.2140   46.7250 C   0  0  0  0  0  0  0  0  0  0  0  0
   46.1870   32.3690   47.4490 C   0  0  0  0  0  0  0  0  0  0  0  0
   45.8920   32.4770   48.7910 C   0  0  0  0  0  0  0  0  0  0  0  0
   45.3370   31.3800   49.4390 C   0  0  0  0  0  0  0  0  0  0  0  0
   45.1020   30.2260   48.7100 C   0  0  0  0  0  0  0  0  0  0  0  0
   46.6150   33.2660   47.0220 H   0  0  0  0  0  0  0  0  0  0  0  0
   46.0630   33.3630   49.3860 H   0  0  0  0  0  0  0  0  0  0  0  0
   45.0640   31.3370   50.4800 H   0  0  0  0  0  0  0  0  0  0  0  0
   44.6670   29.3130   49.1370 H   0  0  0  0  0  0  0  0  0  0  0  0
   45.0720   28.7490   46.3850 S   0  0  0  0  0  0  0  0  0  0  0  0
   43.8180   28.9400   45.5550 O   0  0  0  0  0  0  0  0  0  0  0  0
   44.7430   27.6180   47.3590 O   0  0  0  0  0  0  0  0  0  0  0  0
   48.0370   28.1670   47.5390 Cl  0  0  0  0  0  0  0  0  0  0  0  0
   47.6360   27.8100   45.8680 C   0  0  0  0  0  0  0  0  0  0  0  0
   46.3820   28.1710   45.4240 C   0  0  0  0  0  0  0  0  0  0  0  0
   46.2200   27.9320   44.0550 C   0  0  0  0  0  0  0  0  0  0  0  0
   45.2600   28.1840   43.5970 H   0  0  0  0  0  0  0  0  0  0  0  0
   47.1760   27.3980   43.2140 C   0  0  0  0  0  3  0  0  0  0  0  0
   48.3950   27.0720   43.7700 C   0  0  0  0  0  0  0  0  0  0  0  0
   49.6460   26.3890   42.7530 Cl  0  0  0  0  0  0  0  0  0  0  0  0
   48.6570   27.2700   45.1160 C   0  0  0  0  0  0  0  0  0  0  0  0
   49.6150   27.0130   45.5470 H   0  0  0  0  0  0  0  0  0  0  0  0
   46.3240   31.3120   45.3980 O   0  0  0  0  0  0  0  0  0  0  0  0
   45.2600   34.2860   43.8190 C   0  0  0  0  0  0  0  0  0  0  0  0
   46.4480   34.7340   43.2000 C   0  0  0  0  0  0  0  0  0  0  0  0
   47.5990   34.0030   43.3370 C   0  0  0  0  0  0  0  0  0  0  0  0
   47.5030   32.8910   44.0680 N   0  0  0  0  0  0  0  0  0  0  0  0
   46.4090   32.4610   44.6500 C   0  0  0  0  0  0  0  0  0  0  0  0
   45.2710   33.1650   44.5250 N   0  0  0  0  0  0  0  0  0  0  0  0
   44.3410   34.8520   43.7200 H   0  0  0  0  0  0  0  0  0  0  0  0
   46.3360   35.6500   42.6480 H   0  0  0  0  0  0  0  0  0  0  0  0
   48.8700   34.3830   42.7140 C   0  0  0  0  0  0  0  0  0  0  0  0
   49.5810   34.6280   43.5300 H   0  0  0  0  0  0  0  0  0  0  0  0
   49.3060   33.5530   42.0990 H   0  0  0  0  0  0  0  0  0  0  0  0
   48.7540   35.5660   41.8000 C   0  0  0  0  0  0  0  0  0  0  0  0
   49.7570   36.0990   41.8750 H   0  0  0  0  0  0  0  0  0  0  0  0
   48.0310   36.3170   42.1140 H   0  0  0  0  0  0  0  0  0  0  0  0
   48.6130   35.2060   40.3880 C   0  0  0  0  0  3  0  0  0  0  0  0
   48.0250   34.3220   39.5910 C   0  0  0  0  0  3  0  0  0  0  0  0
   48.2100   34.2090   38.0890 C   0  0  0  0  0  0  0  0  0  0  0  0
   47.3190   34.6970   37.6430 H   0  0  0  0  0  0  0  0  0  0  0  0
   49.1450   34.7570   37.8280 H   0  0  0  0  0  0  0  0  0  0  0  0
   48.3220   33.1550   37.8420 H   0  0  0  0  0  0  0  0  0  0  0  0
  1  6  1  0  0  0  0
  2  1  2  0  0  0  0
  2  3  1  0  0  0  0
  3  4  2  0  0  0  0
  4  8  1  0  0  0  0
  4  5  1  0  0  0  0
  5  9  1  0  0  0  0
  6 10  1  0  0  0  0
  6  5  2  0  0  0  0
  7  3  1  0  0  0  0
 11  1  1  0  0  0  0
 11 13  2  0  0  0  0
 12 11  2  0  0  0  0
 15 14  1  0  0  0  0
 16 15  1  0  0  0  0
 16 11  1  0  0  0  0
 17 16  2  0  0  0  0
 18 17  1  0  0  0  0
 19 20  2  0  0  0  0
 19 17  1  0  0  0  0
 20 22  1  0  0  0  0
 21 20  1  0  0  0  0
 22 23  1  0  0  0  0
 22 15  2  0  0  0  0
 24  2  1  0  0  0  0
 25 30  1  0  0  0  0
 26 27  1  0  0  0  0
 26 25  2  0  0  0  0
 27 28  2  0  0  0  0
 28 29  1  0  0  0  0
 29 24  1  0  0  0  0
 30 29  2  0  0  0  0
 31 25  1  0  0  0  0
 32 26  1  0  0  0  0
 33 27  1  0  0  0  0
 33 34  1  0  0  0  0
 35 33  1  0  0  0  0
 36 37  1  0  0  0  0
 36 38  1  0  0  0  0
 36 33  1  0  0  0  0
 39 36  1  0  0  0  0
 40 39  2  0  0  0  0
 41 40  1  0  0  0  0
 42 41  1  0  0  0  0
 43 41  1  0  0  0  0
 44 41  1  0  0  0  0
M  END
>  <minimizedAffinity>
-5.60860205

>  <minimizedRMSD>
1.08387339

$$$$
