
 OpenBabel03242515393D

 37 40  0  0  0  0  0  0  0  0999 V2000
   44.0780   34.8280   41.0750 C   0  0  0  0  0  0  0  0  0  0  0  0
   44.0390   34.0070   39.9620 C   0  0  0  0  0  0  0  0  0  0  0  0
   45.2430   33.4510   39.5290 C   0  0  0  0  0  0  0  0  0  0  0  0
   46.3740   33.7530   40.2260 N   0  0  0  0  0  0  0  0  0  0  0  0
   46.3770   34.5480   41.2940 C   0  0  0  0  0  0  0  0  0  0  0  0
   45.2300   35.0670   41.6940 N   0  0  0  0  0  0  0  0  0  0  0  0
   43.1110   33.8130   39.4620 H   0  0  0  0  0  0  0  0  0  0  0  0
   44.9770   30.5750   40.1650 Cl  0  0  0  0  0  0  0  0  0  0  0  0
   45.1990   31.2250   38.5410 C   0  0  0  0  0  0  0  0  0  0  0  0
   45.3090   32.5860   38.3830 C   0  0  0  0  0  0  0  0  0  0  0  0
   45.4790   32.9980   37.0800 C   0  0  0  0  0  0  0  0  0  0  0  0
   45.5730   34.0530   36.8780 H   0  0  0  0  0  0  0  0  0  0  0  0
   45.5360   32.1050   36.0050 C   0  0  0  0  0  3  0  0  0  0  0  0
   45.4170   30.7420   36.2500 C   0  0  0  0  0  0  0  0  0  0  0  0
   45.4950   29.6760   34.8700 Cl  0  0  0  0  0  0  0  0  0  0  0  0
   45.2440   30.2900   37.5460 C   0  0  0  0  0  0  0  0  0  0  0  0
   45.1510   29.2240   37.7250 H   0  0  0  0  0  0  0  0  0  0  0  0
   42.4990   35.5310   41.6080 S   0  0  0  0  0  0  0  0  0  0  0  0
   40.3710   35.0060   40.0340 C   0  0  0  0  0  0  0  0  0  0  0  0
   41.1480   34.4890   41.0740 C   0  0  0  0  0  0  0  0  0  0  0  0
   40.8630   33.2530   41.6270 C   0  0  0  0  0  0  0  0  0  0  0  0
   39.8050   32.4830   41.1790 C   0  0  0  0  0  0  0  0  0  0  0  0
   39.0230   33.0090   40.1290 C   0  0  0  0  0  0  0  0  0  0  0  0
   39.3000   34.2480   39.5660 C   0  0  0  0  0  0  0  0  0  0  0  0
   38.0190   32.0460   39.8550 O   0  0  0  0  0  0  0  0  0  0  0  0
   37.9960   31.1880   40.9680 C   0  0  0  0  0  0  0  0  0  0  0  0
   39.2970   31.2440   41.5330 O   0  0  0  0  0  0  0  0  0  0  0  0
   40.5570   35.9600   39.5770 H   0  0  0  0  0  0  0  0  0  0  0  0
   41.4980   32.9070   42.4280 H   0  0  0  0  0  0  0  0  0  0  0  0
   38.7090   34.6490   38.7710 H   0  0  0  0  0  0  0  0  0  0  0  0
   37.6690   30.1660   40.7370 H   0  0  0  0  0  0  0  0  0  0  0  0
   37.3200   31.6660   41.7260 H   0  0  0  0  0  0  0  0  0  0  0  0
   47.4990   34.8650   42.0110 O   0  0  0  0  0  0  0  0  0  0  0  0
   48.6790   35.2130   41.3510 C   0  0  0  0  0  0  0  0  0  0  0  0
   49.6910   34.3160   41.5650 F   0  0  0  0  0  0  0  0  0  0  0  0
   48.3280   35.3220   39.9960 F   0  0  0  0  0  0  0  0  0  0  0  0
   49.0900   36.4380   41.8520 F   0  0  0  0  0  0  0  0  0  0  0  0
  1 18  1  0  0  0  0
  1  6  1  0  0  0  0
  2  1  2  0  0  0  0
  3  2  1  0  0  0  0
  3  4  2  0  0  0  0
  4  5  1  0  0  0  0
  5  6  2  0  0  0  0
  5 33  1  0  0  0  0
  7  2  1  0  0  0  0
  9  8  1  0  0  0  0
 10  9  1  0  0  0  0
 10  3  1  0  0  0  0
 11 10  2  0  0  0  0
 12 11  1  0  0  0  0
 13 14  2  0  0  0  0
 13 11  1  0  0  0  0
 14 16  1  0  0  0  0
 15 14  1  0  0  0  0
 16 17  1  0  0  0  0
 16  9  2  0  0  0  0
 19 20  1  0  0  0  0
 20 18  1  0  0  0  0
 20 21  2  0  0  0  0
 21 29  1  0  0  0  0
 22 27  1  0  0  0  0
 22 21  1  0  0  0  0
 23 22  2  0  0  0  0
 24 19  2  0  0  0  0
 24 23  1  0  0  0  0
 25 23  1  0  0  0  0
 25 26  1  0  0  0  0
 26 27  1  0  0  0  0
 26 32  1  0  0  0  0
 28 19  1  0  0  0  0
 30 24  1  0  0  0  0
 31 26  1  0  0  0  0
 34 35  1  0  0  0  0
 34 37  1  0  0  0  0
 34 33  1  0  0  0  0
 36 34  1  0  0  0  0
M  END
>  <minimizedAffinity>
-6.09035254

>  <minimizedRMSD>
0.55675

$$$$
