
 OpenBabel03252506053D

 44 48  0  0  0  0  0  0  0  0999 V2000
   44.7770   35.9560   43.2200 Cl  0  0  0  0  0  0  0  0  0  0  0  0
   45.5270   34.7240   44.1830 C   0  0  0  0  0  0  0  0  0  0  0  0
   46.6130   34.0220   43.6900 C   0  0  0  0  0  0  0  0  0  0  0  0
   47.1320   33.0620   44.5440 C   0  0  0  0  0  0  0  0  0  0  0  0
   46.6600   32.7730   45.8010 C   0  0  0  0  0  0  0  0  0  0  0  0
   45.5820   33.4910   46.2530 C   0  0  0  0  0  0  0  0  0  0  0  0
   45.0000   33.1020   47.8580 Cl  0  0  0  0  0  0  0  0  0  0  0  0
   45.0210   34.4550   45.4590 C   0  0  0  0  0  0  0  0  0  0  0  0
   47.9910   32.5150   44.1380 H   0  0  0  0  0  0  0  0  0  0  0  0
   44.1720   35.0140   45.8260 H   0  0  0  0  0  0  0  0  0  0  0  0
   47.3480   31.7250   46.5410 C   0  0  0  0  0  0  0  0  0  0  0  0
   47.4630   30.4260   46.0700 C   0  0  0  0  0  0  0  0  0  0  0  0
   48.1080   29.4120   46.7470 C   0  0  0  0  0  0  0  0  0  0  0  0
   48.6830   29.6860   47.9680 C   0  0  0  0  0  0  0  0  0  0  0  0
   49.3070   28.6900   48.6140 N   0  0  0  0  0  0  0  0  0  0  0  0
   49.9000   28.8750   49.8240 C   0  0  0  0  0  0  0  0  0  0  0  0
   49.8270   30.1460   50.3570 C   0  0  0  0  0  0  0  0  0  0  0  0
   49.1880   31.1650   49.6970 C   0  0  0  0  0  0  0  0  0  0  0  0
   48.5920   30.9560   48.4670 C   0  0  0  0  0  0  0  0  0  0  0  0
   47.9400   31.9600   47.7750 C   0  0  0  0  0  0  0  0  0  0  0  0
   47.0110   30.1900   45.1000 H   0  0  0  0  0  0  0  0  0  0  0  0
   48.1660   28.4100   46.3270 H   0  0  0  0  0  0  0  0  0  0  0  0
   50.3840   28.0260   50.2860 H   0  0  0  0  0  0  0  0  0  0  0  0
   50.3010   30.3020   51.3290 H   0  0  0  0  0  0  0  0  0  0  0  0
   49.1510   32.1420   50.1410 H   0  0  0  0  0  0  0  0  0  0  0  0
   47.8910   32.9440   48.2020 H   0  0  0  0  0  0  0  0  0  0  0  0
   48.7260   35.3610   41.0510 C   0  0  0  0  0  0  0  0  0  0  0  0
   48.2190   34.7540   39.8920 C   0  0  0  0  0  0  0  0  0  0  0  0
   47.1310   33.8690   40.0250 C   0  0  0  0  0  0  0  0  0  0  0  0
   46.6730   33.6860   41.2780 N   0  0  0  0  0  0  0  0  0  0  0  0
   47.1680   34.2740   42.3710 C   0  0  0  0  0  0  0  0  0  0  0  0
   48.1980   35.1150   42.2680 N   0  0  0  0  0  0  0  0  0  0  0  0
   49.5540   36.0300   40.9150 H   0  0  0  0  0  0  0  0  0  0  0  0
   48.6400   34.9540   38.9380 H   0  0  0  0  0  0  0  0  0  0  0  0
   45.3410   31.6650   40.7940 Cl  0  0  0  0  0  0  0  0  0  0  0  0
   45.6810   32.1430   39.1300 C   0  0  0  0  0  0  0  0  0  0  0  0
   46.5380   33.1930   38.8810 C   0  0  0  0  0  0  0  0  0  0  0  0
   46.7710   33.5250   37.5800 C   0  0  0  0  0  0  0  0  0  0  0  0
   47.4360   34.3430   37.3450 H   0  0  0  0  0  0  0  0  0  0  0  0
   46.1480   32.8080   36.5510 C   0  0  0  0  0  3  0  0  0  0  0  0
   45.3010   31.7680   36.8370 C   0  0  0  0  0  0  0  0  0  0  0  0
   44.5220   30.8730   35.5360 Cl  0  0  0  0  0  0  0  0  0  0  0  0
   45.0550   31.4190   38.1470 C   0  0  0  0  0  0  0  0  0  0  0  0
   44.3900   30.6030   38.3690 H   0  0  0  0  0  0  0  0  0  0  0  0
  1  2  1  0  0  0  0
  2  8  1  0  0  0  0
  3  2  2  0  0  0  0
  3  4  1  0  0  0  0
  4  5  2  0  0  0  0
  5  6  1  0  0  0  0
  5 11  1  0  0  0  0
  6  7  1  0  0  0  0
  8 10  1  0  0  0  0
  8  6  2  0  0  0  0
  9  4  1  0  0  0  0
 11 20  1  0  0  0  0
 12 11  2  0  0  0  0
 12 13  1  0  0  0  0
 13 14  2  0  0  0  0
 14 19  1  0  0  0  0
 14 15  1  0  0  0  0
 15 16  2  0  0  0  0
 16 23  1  0  0  0  0
 16 17  1  0  0  0  0
 17 24  1  0  0  0  0
 18 25  1  0  0  0  0
 18 17  2  0  0  0  0
 19 18  1  0  0  0  0
 20 26  1  0  0  0  0
 20 19  2  0  0  0  0
 21 12  1  0  0  0  0
 22 13  1  0  0  0  0
 27 32  1  0  0  0  0
 28 29  1  0  0  0  0
 28 27  2  0  0  0  0
 29 30  2  0  0  0  0
 30 31  1  0  0  0  0
 31  3  1  0  0  0  0
 32 31  2  0  0  0  0
 33 27  1  0  0  0  0
 34 28  1  0  0  0  0
 36 35  1  0  0  0  0
 37 36  1  0  0  0  0
 37 29  1  0  0  0  0
 38 37  2  0  0  0  0
 39 38  1  0  0  0  0
 40 41  2  0  0  0  0
 40 38  1  0  0  0  0
 41 43  1  0  0  0  0
 42 41  1  0  0  0  0
 43 44  1  0  0  0  0
 43 36  2  0  0  0  0
M  END
>  <minimizedAffinity>
-7.29033709

>  <minimizedRMSD>
0.110297836

$$$$
