
 OpenBabel03242520363D

 36 39  0  0  1  0  0  0  0  0999 V2000
   45.4930   33.5530   43.9180 C   0  0  0  0  0  0  0  0  0  0  0  0
   46.5470   32.8720   43.2220 C   0  0  0  0  0  0  0  0  0  0  0  0
   47.4670   32.1980   43.9810 C   0  0  0  0  0  0  0  0  0  0  0  0
   47.3510   32.1980   45.3300 N   0  0  0  0  0  0  0  0  0  0  0  0
   46.3430   32.8510   45.9590 C   0  0  0  0  0  0  0  0  0  0  0  0
   45.4260   33.5210   45.2400 N   0  0  0  0  0  0  0  0  0  0  0  0
   44.7400   34.0990   43.3710 H   0  0  0  0  0  0  0  0  0  0  0  0
   48.2900   31.6610   43.5430 H   0  0  0  0  0  0  0  0  0  0  0  0
   46.6450   32.9110   41.7410 C   0  0  1  0  0  0  0  0  0  0  0  0
   45.9500   33.8910   40.9610 C   0  0  0  0  0  0  0  0  0  0  0  0
   47.4030   34.0920   41.1080 C   0  0  1  0  0  0  0  0  0  0  0  0
   47.1010   31.9540   41.3520 H   0  0  0  0  0  0  0  0  0  0  0  0
   45.5290   33.5370   39.9700 H   0  0  0  0  0  0  0  0  0  0  0  0
   45.2140   34.5580   41.4530 H   0  0  0  0  0  0  0  0  0  0  0  0
   47.9750   33.9090   40.1620 H   0  0  0  0  0  0  0  0  0  0  0  0
   48.0070   35.1420   41.9590 C   0  0  0  0  0  0  0  0  0  0  0  0
   48.7670   36.0330   41.2240 F   0  0  0  0  0  0  0  0  0  0  0  0
   48.8030   34.5930   42.9630 F   0  0  0  0  0  0  0  0  0  0  0  0
   46.9770   35.8580   42.5190 F   0  0  0  0  0  0  0  0  0  0  0  0
   46.2890   32.7960   47.4470 C   0  0  2  0  0  0  0  0  0  0  0  0
   47.5970   32.3480   48.0790 C   0  0  0  0  0  0  0  0  0  0  0  0
   46.3980   31.4890   48.1550 C   0  0  2  0  0  0  0  0  0  0  0  0
   45.7250   33.6130   47.9060 H   0  0  0  0  0  0  0  0  0  0  0  0
   47.9140   32.9220   49.0040 H   0  0  0  0  0  0  0  0  0  0  0  0
   48.4450   32.1200   47.4350 H   0  0  0  0  0  0  0  0  0  0  0  0
   45.9010   31.4910   49.1730 H   0  0  0  0  0  0  0  0  0  0  0  0
   48.7570   29.5820   47.3100 Cl  0  0  0  0  0  0  0  0  0  0  0  0
   47.0860   29.2620   46.9420 C   0  0  0  0  0  0  0  0  0  0  0  0
   46.2300   30.2290   47.4210 C   0  0  0  0  0  0  0  0  0  0  0  0
   44.8650   30.0270   47.1680 C   0  0  0  0  0  0  0  0  0  0  0  0
   44.0260   30.6500   47.4480 H   0  0  0  0  0  0  0  0  0  0  0  0
   44.4050   28.9050   46.4680 C   0  0  0  0  0  0  0  0  0  0  0  0
   45.2970   27.9620   46.0060 C   0  0  0  0  0  0  0  0  0  0  0  0
   44.8370   26.5220   45.1210 Cl  0  0  0  0  0  0  0  0  0  0  0  0
   46.6390   28.1580   46.2530 C   0  0  0  0  0  0  0  0  0  0  0  0
   47.4050   27.4840   45.9360 H   0  0  0  0  0  0  0  0  0  0  0  0
  1  6  1  0  0  0  0
  2  1  2  0  0  0  0
  2  3  1  0  0  0  0
  3  4  2  0  0  0  0
  4  5  1  0  0  0  0
  5 20  1  0  0  0  0
  6  5  2  0  0  0  0
  7  1  1  0  0  0  0
  8  3  1  0  0  0  0
  9 12  1  6  0  0  0
  9  2  1  0  0  0  0
 10 11  1  0  0  0  0
 10 14  1  0  0  0  0
 10  9  1  0  0  0  0
 11 15  1  6  0  0  0
 11  9  1  0  0  0  0
 11 16  1  0  0  0  0
 13 10  1  0  0  0  0
 16 19  1  0  0  0  0
 16 18  1  0  0  0  0
 17 16  1  0  0  0  0
 20 23  1  1  0  0  0
 20 21  1  0  0  0  0
 20 22  1  0  0  0  0
 21 22  1  0  0  0  0
 21 24  1  0  0  0  0
 22 26  1  1  0  0  0
 25 21  1  0  0  0  0
 28 27  1  0  0  0  0
 28 29  1  0  0  0  0
 29 22  1  0  0  0  0
 30 29  2  0  0  0  0
 30 31  1  0  0  0  0
 32 30  1  0  0  0  0
 33 35  1  0  0  0  0
 33 32  2  0  0  0  0
 34 33  1  0  0  0  0
 35 28  2  0  0  0  0
 36 35  1  0  0  0  0
M  END
>  <minimizedAffinity>
-5.40066338

>  <minimizedRMSD>
1.37450051

$$$$
