
 OpenBabel03252508463D

 46 48  0  0  0  0  0  0  0  0999 V2000
   42.6870   31.4580   42.5770 N   0  0  0  0  0  0  0  0  0  0  0  0
   42.9450   31.7430   43.5590 H   0  0  0  0  0  0  0  0  0  0  0  0
   43.0160   32.4900   41.6440 C   0  0  0  0  0  0  0  0  0  0  0  0
   43.5390   32.0430   40.7770 H   0  0  0  0  0  0  0  0  0  0  0  0
   42.1020   32.9850   41.2310 H   0  0  0  0  0  0  0  0  0  0  0  0
   43.6670   34.9010   41.8920 C   0  0  0  0  0  0  0  0  0  0  0  0
   43.9030   33.5560   42.2000 C   0  0  0  0  0  0  0  0  0  0  0  0
   44.9660   33.2500   43.0220 C   0  0  0  0  0  0  0  0  0  0  0  0
   45.7660   34.2370   43.5210 C   0  0  0  0  0  0  0  0  0  0  0  0
   45.5530   35.5670   43.2310 C   0  0  0  0  0  0  0  0  0  0  0  0
   44.4750   35.8430   42.4010 C   0  0  0  0  0  0  0  0  0  0  0  0
   45.1030   32.1950   43.2270 H   0  0  0  0  0  0  0  0  0  0  0  0
   46.5800   33.9140   44.1570 H   0  0  0  0  0  0  0  0  0  0  0  0
   46.2070   36.3170   43.6450 H   0  0  0  0  0  0  0  0  0  0  0  0
   44.2740   36.8770   42.1510 H   0  0  0  0  0  0  0  0  0  0  0  0
   40.2590   35.7820   40.5310 C   0  0  0  0  0  0  0  0  0  0  0  0
   41.2780   35.5480   41.4770 C   0  0  0  0  0  0  0  0  0  0  0  0
   42.5370   35.1700   41.0220 C   0  0  0  0  0  0  0  0  0  0  0  0
   42.6990   35.0500   39.6710 N   0  0  0  0  0  0  0  0  0  0  0  0
   41.7040   35.2810   38.7800 C   0  0  0  0  0  0  0  0  0  0  0  0
   40.4940   35.6430   39.2250 N   0  0  0  0  0  0  0  0  0  0  0  0
   39.3470   36.0610   41.0160 H   0  0  0  0  0  0  0  0  0  0  0  0
   41.1850   35.6300   42.5320 H   0  0  0  0  0  0  0  0  0  0  0  0
   41.8190   35.1870   37.7220 H   0  0  0  0  0  0  0  0  0  0  0  0
   41.0040   31.1060   42.6070 S   0  0  0  0  0  0  0  0  0  0  0  0
   40.1880   32.3710   42.4710 O   0  0  0  0  0  0  0  0  0  0  0  0
   40.0750   32.8600   41.6050 H   0  0  0  0  0  0  0  0  0  0  0  0
   40.6260   30.3570   43.8270 O   0  0  0  0  0  0  0  0  0  0  0  0
   41.1380   30.1890   44.6520 H   0  0  0  0  0  0  0  0  0  0  0  0
   40.7010   30.1260   41.2720 O   0  0  0  0  0  0  0  0  0  0  0  0
   39.8960   29.0820   41.6510 C   0  0  0  0  0  0  0  0  0  0  0  0
   38.8450   29.4280   41.5600 H   0  0  0  0  0  0  0  0  0  0  0  0
   40.0240   28.7180   42.6790 H   0  0  0  0  0  0  0  0  0  0  0  0
   40.0960   27.9110   40.6700 C   0  0  0  0  0  0  0  0  0  0  0  0
   41.1720   27.7460   40.6260 H   0  0  0  0  0  0  0  0  0  0  0  0
   39.7580   28.2590   39.6970 H   0  0  0  0  0  0  0  0  0  0  0  0
   37.2400   27.4710   39.6390 Cl  0  0  0  0  0  0  0  0  0  0  0  0
   38.0570   26.4130   40.7690 C   0  0  0  0  0  0  0  0  0  0  0  0
   39.3450   26.7240   41.1450 C   0  0  0  0  0  0  0  0  0  0  0  0
   40.0120   25.8850   42.0460 C   0  0  0  0  0  0  0  0  0  0  0  0
   41.0260   26.1100   42.3520 H   0  0  0  0  0  0  0  0  0  0  0  0
   39.4100   24.7580   42.5660 C   0  0  0  0  0  3  0  0  0  0  0  0
   38.1270   24.4850   42.1670 C   0  0  0  0  0  0  0  0  0  0  0  0
   37.3770   23.0390   42.8490 Cl  0  0  0  0  0  0  0  0  0  0  0  0
   37.4190   25.2830   41.2760 C   0  0  0  0  0  0  0  0  0  0  0  0
   36.3920   25.0250   40.9800 H   0  0  0  0  0  0  0  0  0  0  0  0
  1 25  1  0  0  0  0
  1  2  1  0  0  0  0
  3  7  1  0  0  0  0
  3  1  1  0  0  0  0
  4  3  1  0  0  0  0
  5  3  1  0  0  0  0
  6  7  2  0  0  0  0
  6 11  1  0  0  0  0
  7  8  1  0  0  0  0
  8 12  1  0  0  0  0
  8  9  2  0  0  0  0
  9 13  1  0  0  0  0
 10  9  1  0  0  0  0
 10 14  1  0  0  0  0
 11 10  2  0  0  0  0
 15 11  1  0  0  0  0
 16 22  1  0  0  0  0
 16 17  1  0  0  0  0
 17 23  1  0  0  0  0
 18 17  2  0  0  0  0
 18  6  1  0  0  0  0
 19 18  1  0  0  0  0
 20 21  1  0  0  0  0
 20 19  2  0  0  0  0
 21 16  2  0  0  0  0
 24 20  1  0  0  0  0
 25 28  1  0  0  0  0
 26 25  1  0  0  0  0
 27 26  1  0  0  0  0
 28 29  1  0  0  0  0
 30 31  1  0  0  0  0
 30 25  1  0  0  0  0
 31 33  1  0  0  0  0
 32 31  1  0  0  0  0
 34 39  1  0  0  0  0
 34 31  1  0  0  0  0
 35 34  1  0  0  0  0
 36 34  1  0  0  0  0
 37 38  1  0  0  0  0
 38 39  2  0  0  0  0
 38 45  1  0  0  0  0
 39 40  1  0  0  0  0
 40 41  1  0  0  0  0
 40 42  2  0  0  0  0
 43 42  1  0  0  0  0
 43 44  1  0  0  0  0
 45 43  2  0  0  0  0
 46 45  1  0  0  0  0
M  END
>  <minimizedAffinity>
-5.24570417

>  <minimizedRMSD>
0.657014251

$$$$
