
 OpenBabel03252503083D

 28 30  0  0  1  0  0  0  0  0999 V2000
   45.8820   35.8610   43.0320 C   0  0  0  0  0  0  0  0  0  0  0  0
   46.3000   34.5570   43.4050 C   0  0  0  0  0  0  0  0  0  0  0  0
   45.7080   34.0800   44.5660 C   0  0  0  0  0  0  0  0  0  0  0  0
   44.8210   34.7960   45.2690 N   0  0  0  0  0  0  0  0  0  0  0  0
   44.4550   36.0480   44.8630 C   0  0  0  0  0  0  0  0  0  0  0  0
   44.9990   36.5630   43.7400 N   0  0  0  0  0  0  0  0  0  0  0  0
   46.3150   36.2910   42.1240 H   0  0  0  0  0  0  0  0  0  0  0  0
   43.7370   36.5790   45.4680 H   0  0  0  0  0  0  0  0  0  0  0  0
   46.0430   32.8010   44.9980 C   0  0  0  0  0  0  0  0  0  0  0  0
   45.8810   31.5440   44.5160 C   0  0  0  0  0  0  0  0  0  0  0  0
   46.2750   30.4380   45.1290 C   0  0  0  0  0  0  0  0  0  0  0  0
   46.8880   30.6160   46.3400 C   0  0  0  0  0  0  0  0  0  0  0  0
   46.8630   32.4450   46.5340 S   0  0  0  0  0  0  0  0  0  0  0  0
   45.4580   31.2410   43.5730 H   0  0  0  0  0  0  0  0  0  0  0  0
   46.2690   29.3850   44.9790 H   0  0  0  0  0  0  0  0  0  0  0  0
   47.3440   30.1060   47.1550 H   0  0  0  0  0  0  0  0  0  0  0  0
   47.2360   33.8750   42.5930 C   0  0  2  0  0  3  0  0  0  0  0  0
   48.3510   33.6390   43.2510 O   0  0  0  0  0  1  0  0  0  0  0  0
   48.8650   35.7340   41.0460 Cl  0  0  0  0  0  0  0  0  0  0  0  0
   47.9510   34.3350   40.4350 C   0  0  0  0  0  0  0  0  0  0  0  0
   47.1710   33.4180   41.1710 C   0  0  0  0  0  0  0  0  0  0  0  0
   46.5730   32.4310   40.4410 C   0  0  0  0  0  0  0  0  0  0  0  0
   45.9910   31.8020   41.0910 H   0  0  0  0  0  0  0  0  0  0  0  0
   46.7060   32.3120   39.0830 C   0  0  0  0  0  3  0  0  0  0  0  0
   47.4680   33.2100   38.3710 C   0  0  0  0  0  0  0  0  0  0  0  0
   47.5400   32.9290   36.6440 Cl  0  0  0  0  0  0  0  0  0  0  0  0
   48.0990   34.2320   39.0420 C   0  0  0  0  0  0  0  0  0  0  0  0
   48.6710   34.8830   38.4060 H   0  0  0  0  0  0  0  0  0  0  0  0
  1  2  2  0  0  0  0
  1  6  1  0  0  0  0
  2  3  1  0  0  0  0
  3  9  1  0  0  0  0
  3  4  2  0  0  0  0
  5  4  1  0  0  0  0
  5  8  1  0  0  0  0
  6  5  2  0  0  0  0
  7  1  1  0  0  0  0
  9 13  1  0  0  0  0
 10  9  2  0  0  0  0
 10 11  1  0  0  0  0
 11 12  2  0  0  0  0
 12 13  1  0  0  0  0
 12 16  1  0  0  0  0
 14 10  1  0  0  0  0
 15 11  1  0  0  0  0
 17 18  1  6  0  0  0
 17  2  1  0  0  0  0
 20 19  1  0  0  0  0
 20 21  1  0  0  0  0
 21 17  1  0  0  0  0
 22 23  1  0  0  0  0
 22 21  2  0  0  0  0
 24 22  1  0  0  0  0
 25 27  1  0  0  0  0
 25 24  2  0  0  0  0
 26 25  1  0  0  0  0
 27 20  2  0  0  0  0
 28 27  1  0  0  0  0
M  END
>  <minimizedAffinity>
-5.39799976

>  <minimizedRMSD>
1.46141708

$$$$
