
 OpenBabel03242523013D

 32 34  0  0  0  0  0  0  0  0999 V2000
   37.6890   33.3830   40.1100 C   0  0  0  0  0  0  0  0  0  0  0  0
   37.2110   32.0880   40.2870 C   0  0  0  0  0  0  0  0  0  0  0  0
   37.9740   30.9700   40.0530 C   0  0  0  0  0  0  0  0  0  0  0  0
   39.2560   31.2020   39.6260 N   0  0  0  0  0  0  0  0  0  0  0  0
   39.7230   32.4470   39.4520 C   0  0  0  0  0  0  0  0  0  0  0  0
   38.9470   33.5390   39.6910 N   0  0  0  0  0  0  0  0  0  0  0  0
   37.0330   34.2190   40.3130 H   0  0  0  0  0  0  0  0  0  0  0  0
   36.1810   31.9090   40.6300 H   0  0  0  0  0  0  0  0  0  0  0  0
   37.0000   29.6480   37.5620 Cl  0  0  0  0  0  0  0  0  0  0  0  0
   37.0340   28.9280   39.1490 C   0  0  0  0  0  0  0  0  0  0  0  0
   37.4960   29.6050   40.2330 C   0  0  0  0  0  0  0  0  0  0  0  0
   37.4710   28.9330   41.4230 C   0  0  0  0  0  0  0  0  0  0  0  0
   37.0220   27.6630   41.5680 C   0  0  0  0  0  0  0  0  0  0  0  0
   36.5560   26.9830   40.4680 C   0  0  0  0  0  0  0  0  0  0  0  0
   36.5680   27.6350   39.2530 C   0  0  0  0  0  0  0  0  0  0  0  0
   37.8370   29.4530   42.3160 H   0  0  0  0  0  0  0  0  0  0  0  0
   36.1790   25.9600   40.5010 H   0  0  0  0  0  0  0  0  0  0  0  0
   36.2000   27.0980   38.3860 H   0  0  0  0  0  0  0  0  0  0  0  0
   36.9980   26.9390   42.8650 C   0  0  0  0  0  0  0  0  0  0  0  0
   35.9570   27.4040   43.6000 F   0  0  0  0  0  0  0  0  0  0  0  0
   38.2130   27.1030   43.5390 F   0  0  0  0  0  0  0  0  0  0  0  0
   36.8480   25.5880   42.6050 F   0  0  0  0  0  0  0  0  0  0  0  0
   41.8770   32.2990   41.5790 Cl  0  0  0  0  0  0  0  0  0  0  0  0
   42.1490   32.6010   39.8800 C   0  0  0  0  0  0  0  0  0  0  0  0
   41.0950   32.6470   38.9960 C   0  0  0  0  0  0  0  0  0  0  0  0
   41.2660   32.8830   37.6490 C   0  0  0  0  0  0  0  0  0  0  0  0
   40.4290   32.9200   36.9470 H   0  0  0  0  0  0  0  0  0  0  0  0
   42.5510   33.0780   37.1810 C   0  0  0  0  0  3  0  0  0  0  0  0
   43.6260   33.0330   38.0700 C   0  0  0  0  0  0  0  0  0  0  0  0
   45.2710   33.2790   37.5010 Cl  0  0  0  0  0  0  0  0  0  0  0  0
   43.4380   32.7940   39.4290 C   0  0  0  0  0  0  0  0  0  0  0  0
   44.2870   32.7600   40.1210 H   0  0  0  0  0  0  0  0  0  0  0  0
  1  2  1  0  0  0  0
  1  7  1  0  0  0  0
  2  8  1  0  0  0  0
  3 11  1  0  0  0  0
  3  2  2  0  0  0  0
  4  3  1  0  0  0  0
  5  4  2  0  0  0  0
  5  6  1  0  0  0  0
  6  1  2  0  0  0  0
  9 10  1  0  0  0  0
 10 15  2  0  0  0  0
 10 11  1  0  0  0  0
 11 12  2  0  0  0  0
 12 13  1  0  0  0  0
 12 16  1  0  0  0  0
 13 19  1  0  0  0  0
 14 17  1  0  0  0  0
 14 13  2  0  0  0  0
 15 14  1  0  0  0  0
 18 15  1  0  0  0  0
 19 21  1  0  0  0  0
 19 20  1  0  0  0  0
 22 19  1  0  0  0  0
 24 23  1  0  0  0  0
 25  5  1  0  0  0  0
 25 24  2  0  0  0  0
 26 25  1  0  0  0  0
 27 26  1  0  0  0  0
 28 26  2  0  0  0  0
 28 29  1  0  0  0  0
 29 31  2  0  0  0  0
 30 29  1  0  0  0  0
 31 24  1  0  0  0  0
 31 32  1  0  0  0  0
M  END
>  <minimizedAffinity>
-6.17205715

$$$$

 OpenBabel03242523013D

 32 34  0  0  0  0  0  0  0  0999 V2000
   33.3310   27.0260   36.5480 C   0  0  0  0  0  0  0  0  0  0  0  0
   32.3650   27.9650   36.1990 C   0  0  0  0  0  0  0  0  0  0  0  0
   32.3560   29.2470   36.6910 C   0  0  0  0  0  0  0  0  0  0  0  0
   33.3700   29.5590   37.5610 N   0  0  0  0  0  0  0  0  0  0  0  0
   34.3030   28.6590   37.9020 C   0  0  0  0  0  0  0  0  0  0  0  0
   34.2890   27.3940   37.4010 N   0  0  0  0  0  0  0  0  0  0  0  0
   33.2760   26.0330   36.1220 H   0  0  0  0  0  0  0  0  0  0  0  0
   31.5540   27.7090   35.5000 H   0  0  0  0  0  0  0  0  0  0  0  0
   30.4770   29.9640   38.8940 Cl  0  0  0  0  0  0  0  0  0  0  0  0
   30.4600   30.6330   37.2850 C   0  0  0  0  0  0  0  0  0  0  0  0
   31.3570   30.2490   36.3400 C   0  0  0  0  0  0  0  0  0  0  0  0
   31.2410   30.8450   35.1160 C   0  0  0  0  0  0  0  0  0  0  0  0
   30.3030   31.7740   34.8100 C   0  0  0  0  0  0  0  0  0  0  0  0
   29.3990   32.1600   35.7700 C   0  0  0  0  0  0  0  0  0  0  0  0
   29.4900   31.5750   37.0150 C   0  0  0  0  0  0  0  0  0  0  0  0
   31.9500   30.5550   34.3320 H   0  0  0  0  0  0  0  0  0  0  0  0
   28.6150   32.9010   35.6040 H   0  0  0  0  0  0  0  0  0  0  0  0
   28.7760   31.8800   37.7720 H   0  0  0  0  0  0  0  0  0  0  0  0
   30.1830   32.4190   33.4770 C   0  0  0  0  0  0  0  0  0  0  0  0
   29.0570   33.1750   33.4640 F   0  0  0  0  0  0  0  0  0  0  0  0
   30.1620   31.4530   32.4660 F   0  0  0  0  0  0  0  0  0  0  0  0
   31.3020   33.2070   33.2730 F   0  0  0  0  0  0  0  0  0  0  0  0
   36.8240   29.8030   36.6690 Cl  0  0  0  0  0  0  0  0  0  0  0  0
   36.5500   29.5620   38.3770 C   0  0  0  0  0  0  0  0  0  0  0  0
   35.3630   29.0330   38.8320 C   0  0  0  0  0  0  0  0  0  0  0  0
   35.1080   28.8270   40.1700 C   0  0  0  0  0  0  0  0  0  0  0  0
   34.1650   28.4070   40.5310 H   0  0  0  0  0  0  0  0  0  0  0  0
   36.0900   29.1700   41.0800 C   0  0  0  0  0  3  0  0  0  0  0  0
   37.2950   29.7060   40.6280 C   0  0  0  0  0  0  0  0  0  0  0  0
   38.5610   30.1500   41.7640 Cl  0  0  0  0  0  0  0  0  0  0  0  0
   37.5400   29.9090   39.2720 C   0  0  0  0  0  0  0  0  0  0  0  0
   38.4900   30.3310   38.9250 H   0  0  0  0  0  0  0  0  0  0  0  0
  1  6  1  0  0  0  0
  2  1  2  0  0  0  0
  2  3  1  0  0  0  0
  3  4  2  0  0  0  0
  4  5  1  0  0  0  0
  5 25  1  0  0  0  0
  6  5  2  0  0  0  0
  7  1  1  0  0  0  0
  8  2  1  0  0  0  0
 10  9  1  0  0  0  0
 11  3  1  0  0  0  0
 11 10  2  0  0  0  0
 12 11  1  0  0  0  0
 13 12  2  0  0  0  0
 13 14  1  0  0  0  0
 14 15  2  0  0  0  0
 15 10  1  0  0  0  0
 15 18  1  0  0  0  0
 16 12  1  0  0  0  0
 17 14  1  0  0  0  0
 19 13  1  0  0  0  0
 20 19  1  0  0  0  0
 21 19  1  0  0  0  0
 22 19  1  0  0  0  0
 23 24  1  0  0  0  0
 24 25  2  0  0  0  0
 24 31  1  0  0  0  0
 25 26  1  0  0  0  0
 26 27  1  0  0  0  0
 26 28  2  0  0  0  0
 29 28  1  0  0  0  0
 29 30  1  0  0  0  0
 31 29  2  0  0  0  0
 32 31  1  0  0  0  0
M  END
>  <minimizedAffinity>
-6.0810132

$$$$

 OpenBabel03242523013D

 32 34  0  0  0  0  0  0  0  0999 V2000
   36.6030   29.8610   37.1320 C   0  0  0  0  0  0  0  0  0  0  0  0
   36.4430   28.9920   38.2060 C   0  0  0  0  0  0  0  0  0  0  0  0
   37.3200   28.9370   39.2610 C   0  0  0  0  0  0  0  0  0  0  0  0
   38.3840   29.8000   39.1970 N   0  0  0  0  0  0  0  0  0  0  0  0
   38.5450   30.6400   38.1650 C   0  0  0  0  0  0  0  0  0  0  0  0
   37.6610   30.6750   37.1310 N   0  0  0  0  0  0  0  0  0  0  0  0
   35.8730   29.8520   36.3330 H   0  0  0  0  0  0  0  0  0  0  0  0
   35.5860   28.3020   38.2510 H   0  0  0  0  0  0  0  0  0  0  0  0
   36.5940   30.2720   41.8290 Cl  0  0  0  0  0  0  0  0  0  0  0  0
   36.8440   28.5610   41.6070 C   0  0  0  0  0  0  0  0  0  0  0  0
   37.1730   28.0360   40.3980 C   0  0  0  0  0  0  0  0  0  0  0  0
   37.3430   26.6810   40.3520 C   0  0  0  0  0  0  0  0  0  0  0  0
   37.2010   25.8620   41.4210 C   0  0  0  0  0  0  0  0  0  0  0  0
   36.8680   26.3980   42.6420 C   0  0  0  0  0  0  0  0  0  0  0  0
   36.6910   27.7630   42.7210 C   0  0  0  0  0  0  0  0  0  0  0  0
   37.6090   26.2270   39.3900 H   0  0  0  0  0  0  0  0  0  0  0  0
   36.7360   25.8080   43.5490 H   0  0  0  0  0  0  0  0  0  0  0  0
   36.4280   28.1860   43.6830 H   0  0  0  0  0  0  0  0  0  0  0  0
   37.3870   24.3880   41.3640 C   0  0  0  0  0  0  0  0  0  0  0  0
   37.7050   23.9450   42.6060 F   0  0  0  0  0  0  0  0  0  0  0  0
   38.3780   24.0570   40.4340 F   0  0  0  0  0  0  0  0  0  0  0  0
   36.2040   23.8190   40.9290 F   0  0  0  0  0  0  0  0  0  0  0  0
   38.3470   33.1110   39.9080 Cl  0  0  0  0  0  0  0  0  0  0  0  0
   39.7050   32.6930   38.8920 C   0  0  0  0  0  0  0  0  0  0  0  0
   39.6920   31.5410   38.1380 C   0  0  0  0  0  0  0  0  0  0  0  0
   40.7420   31.1750   37.3240 C   0  0  0  0  0  0  0  0  0  0  0  0
   40.7320   30.2610   36.7250 H   0  0  0  0  0  0  0  0  0  0  0  0
   41.8450   32.0060   37.2730 C   0  0  0  0  0  3  0  0  0  0  0  0
   41.8670   33.1750   38.0340 C   0  0  0  0  0  0  0  0  0  0  0  0
   43.2580   34.2490   37.9880 Cl  0  0  0  0  0  0  0  0  0  0  0  0
   40.7990   33.5330   38.8520 C   0  0  0  0  0  0  0  0  0  0  0  0
   40.8230   34.4520   39.4470 H   0  0  0  0  0  0  0  0  0  0  0  0
  1  2  1  0  0  0  0
  2  8  1  0  0  0  0
  2  3  2  0  0  0  0
  3 11  1  0  0  0  0
  4  3  1  0  0  0  0
  5  4  2  0  0  0  0
  6  1  2  0  0  0  0
  6  5  1  0  0  0  0
  7  1  1  0  0  0  0
 10  9  1  0  0  0  0
 10 15  1  0  0  0  0
 11 10  2  0  0  0  0
 12 11  1  0  0  0  0
 12 13  2  0  0  0  0
 13 14  1  0  0  0  0
 14 15  2  0  0  0  0
 14 17  1  0  0  0  0
 15 18  1  0  0  0  0
 16 12  1  0  0  0  0
 19 13  1  0  0  0  0
 19 20  1  0  0  0  0
 21 19  1  0  0  0  0
 22 19  1  0  0  0  0
 24 23  1  0  0  0  0
 25  5  1  0  0  0  0
 25 24  2  0  0  0  0
 26 25  1  0  0  0  0
 27 26  1  0  0  0  0
 28 26  2  0  0  0  0
 28 29  1  0  0  0  0
 29 31  2  0  0  0  0
 30 29  1  0  0  0  0
 31 24  1  0  0  0  0
 31 32  1  0  0  0  0
M  END
>  <minimizedAffinity>
-5.90872765

$$$$

 OpenBabel03242523013D

 32 34  0  0  0  0  0  0  0  0999 V2000
   36.2020   30.9480   41.0490 C   0  0  0  0  0  0  0  0  0  0  0  0
   36.1240   29.5670   41.2030 C   0  0  0  0  0  0  0  0  0  0  0  0
   37.1010   28.7090   40.7620 C   0  0  0  0  0  0  0  0  0  0  0  0
   38.1780   29.2960   40.1490 N   0  0  0  0  0  0  0  0  0  0  0  0
   38.2590   30.6250   39.9960 C   0  0  0  0  0  0  0  0  0  0  0  0
   37.2770   31.4550   40.4420 N   0  0  0  0  0  0  0  0  0  0  0  0
   35.3950   31.5650   41.4200 H   0  0  0  0  0  0  0  0  0  0  0  0
   35.2570   29.1020   41.6970 H   0  0  0  0  0  0  0  0  0  0  0  0
   38.0750   27.6850   43.3910 Cl  0  0  0  0  0  0  0  0  0  0  0  0
   37.4680   26.7090   42.0810 C   0  0  0  0  0  0  0  0  0  0  0  0
   37.0420   27.2600   40.9140 C   0  0  0  0  0  0  0  0  0  0  0  0
   36.5890   26.3900   39.9630 C   0  0  0  0  0  0  0  0  0  0  0  0
   36.5440   25.0450   40.1240 C   0  0  0  0  0  0  0  0  0  0  0  0
   36.9750   24.4930   41.3060 C   0  0  0  0  0  0  0  0  0  0  0  0
   37.4390   25.3460   42.2860 C   0  0  0  0  0  0  0  0  0  0  0  0
   36.2390   26.8040   39.0090 H   0  0  0  0  0  0  0  0  0  0  0  0
   36.9710   23.4230   41.5140 H   0  0  0  0  0  0  0  0  0  0  0  0
   37.7790   24.9100   43.2180 H   0  0  0  0  0  0  0  0  0  0  0  0
   36.0490   24.1050   39.0850 C   0  0  0  0  0  0  0  0  0  0  0  0
   35.2640   23.1750   39.6840 F   0  0  0  0  0  0  0  0  0  0  0  0
   37.1220   23.5110   38.4130 F   0  0  0  0  0  0  0  0  0  0  0  0
   35.3260   24.8280   38.1540 F   0  0  0  0  0  0  0  0  0  0  0  0
   37.8760   31.4810   37.1140 Cl  0  0  0  0  0  0  0  0  0  0  0  0
   39.3580   31.6290   38.0270 C   0  0  0  0  0  0  0  0  0  0  0  0
   39.4230   31.2070   39.3360 C   0  0  0  0  0  0  0  0  0  0  0  0
   40.5720   31.3070   40.0910 C   0  0  0  0  0  0  0  0  0  0  0  0
   40.6230   30.9720   41.1300 H   0  0  0  0  0  0  0  0  0  0  0  0
   41.6940   31.8530   39.4990 C   0  0  0  0  0  3  0  0  0  0  0  0
   41.6370   32.2820   38.1730 C   0  0  0  0  0  0  0  0  0  0  0  0
   43.0510   32.9800   37.3950 Cl  0  0  0  0  0  0  0  0  0  0  0  0
   40.4700   32.1760   37.4210 C   0  0  0  0  0  0  0  0  0  0  0  0
   40.4330   32.5160   36.3800 H   0  0  0  0  0  0  0  0  0  0  0  0
  1  2  1  0  0  0  0
  1  7  1  0  0  0  0
  2  8  1  0  0  0  0
  3 11  1  0  0  0  0
  3  2  2  0  0  0  0
  4  3  1  0  0  0  0
  5  4  2  0  0  0  0
  5  6  1  0  0  0  0
  6  1  2  0  0  0  0
 10 15  1  0  0  0  0
 10  9  1  0  0  0  0
 11 10  2  0  0  0  0
 12 13  2  0  0  0  0
 12 11  1  0  0  0  0
 13 14  1  0  0  0  0
 14 17  1  0  0  0  0
 14 15  2  0  0  0  0
 15 18  1  0  0  0  0
 16 12  1  0  0  0  0
 19 20  1  0  0  0  0
 19 13  1  0  0  0  0
 21 19  1  0  0  0  0
 22 19  1  0  0  0  0
 23 24  1  0  0  0  0
 24 25  1  0  0  0  0
 25  5  1  0  0  0  0
 25 26  2  0  0  0  0
 26 27  1  0  0  0  0
 28 26  1  0  0  0  0
 29 28  2  0  0  0  0
 30 29  1  0  0  0  0
 31 24  2  0  0  0  0
 31 29  1  0  0  0  0
 32 31  1  0  0  0  0
M  END
>  <minimizedAffinity>
-5.8561492

$$$$

 OpenBabel03242523013D

 32 34  0  0  0  0  0  0  0  0999 V2000
   36.5380   27.6050   43.6800 C   0  0  0  0  0  0  0  0  0  0  0  0
   37.3070   28.7170   43.3550 C   0  0  0  0  0  0  0  0  0  0  0  0
   38.1530   28.7520   42.2740 C   0  0  0  0  0  0  0  0  0  0  0  0
   38.2000   27.6100   41.5170 N   0  0  0  0  0  0  0  0  0  0  0  0
   37.4620   26.5340   41.8240 C   0  0  0  0  0  0  0  0  0  0  0  0
   36.6310   26.5240   42.9020 N   0  0  0  0  0  0  0  0  0  0  0  0
   35.8920   27.6460   44.5470 H   0  0  0  0  0  0  0  0  0  0  0  0
   37.2650   29.6320   43.9670 H   0  0  0  0  0  0  0  0  0  0  0  0
   41.0390   28.5200   42.9970 Cl  0  0  0  0  0  0  0  0  0  0  0  0
   40.2950   29.8830   42.2070 C   0  0  0  0  0  0  0  0  0  0  0  0
   38.9690   29.9060   41.9130 C   0  0  0  0  0  0  0  0  0  0  0  0
   38.5040   31.0310   41.2930 C   0  0  0  0  0  0  0  0  0  0  0  0
   39.2790   32.0930   40.9670 C   0  0  0  0  0  0  0  0  0  0  0  0
   40.6210   32.0650   41.2660 C   0  0  0  0  0  0  0  0  0  0  0  0
   41.1200   30.9430   41.8920 C   0  0  0  0  0  0  0  0  0  0  0  0
   37.4370   31.0790   41.0440 H   0  0  0  0  0  0  0  0  0  0  0  0
   41.3110   32.8780   41.0360 H   0  0  0  0  0  0  0  0  0  0  0  0
   42.1770   30.9210   42.1280 H   0  0  0  0  0  0  0  0  0  0  0  0
   38.7670   33.3140   40.2920 C   0  0  0  0  0  0  0  0  0  0  0  0
   38.8300   34.3490   41.1680 F   0  0  0  0  0  0  0  0  0  0  0  0
   37.4610   33.1090   39.8370 F   0  0  0  0  0  0  0  0  0  0  0  0
   39.5580   33.5620   39.1850 F   0  0  0  0  0  0  0  0  0  0  0  0
   39.3110   24.3420   42.8050 Cl  0  0  0  0  0  0  0  0  0  0  0  0
   38.3540   24.2830   41.3450 C   0  0  0  0  0  0  0  0  0  0  0  0
   37.5440   25.3390   40.9910 C   0  0  0  0  0  0  0  0  0  0  0  0
   36.7740   25.3320   39.8480 C   0  0  0  0  0  0  0  0  0  0  0  0
   36.1310   26.1700   39.5680 H   0  0  0  0  0  0  0  0  0  0  0  0
   36.8270   24.2160   39.0350 C   0  0  0  0  0  3  0  0  0  0  0  0
   37.6450   23.1420   39.3860 C   0  0  0  0  0  0  0  0  0  0  0  0
   37.7310   21.7110   38.3680 Cl  0  0  0  0  0  0  0  0  0  0  0  0
   38.4180   23.1620   40.5430 C   0  0  0  0  0  0  0  0  0  0  0  0
   39.0590   22.3150   40.8120 H   0  0  0  0  0  0  0  0  0  0  0  0
  1  7  1  0  0  0  0
  2  1  1  0  0  0  0
  2  8  1  0  0  0  0
  3  2  2  0  0  0  0
  4  5  2  0  0  0  0
  4  3  1  0  0  0  0
  5  6  1  0  0  0  0
  6  1  2  0  0  0  0
 10  9  1  0  0  0  0
 11 10  1  0  0  0  0
 11  3  1  0  0  0  0
 12 11  2  0  0  0  0
 13 14  2  0  0  0  0
 13 12  1  0  0  0  0
 14 15  1  0  0  0  0
 15 18  1  0  0  0  0
 15 10  2  0  0  0  0
 16 12  1  0  0  0  0
 17 14  1  0  0  0  0
 19 13  1  0  0  0  0
 19 20  1  0  0  0  0
 21 19  1  0  0  0  0
 22 19  1  0  0  0  0
 24 23  1  0  0  0  0
 25 24  1  0  0  0  0
 25  5  1  0  0  0  0
 26 25  2  0  0  0  0
 27 26  1  0  0  0  0
 28 29  2  0  0  0  0
 28 26  1  0  0  0  0
 29 31  1  0  0  0  0
 30 29  1  0  0  0  0
 31 32  1  0  0  0  0
 31 24  2  0  0  0  0
M  END
>  <minimizedAffinity>
-5.85504484

$$$$

 OpenBabel03242523013D

 32 34  0  0  0  0  0  0  0  0999 V2000
   36.1310   30.6700   41.0460 C   0  0  0  0  0  0  0  0  0  0  0  0
   36.2270   29.3020   41.2820 C   0  0  0  0  0  0  0  0  0  0  0  0
   37.3240   28.5580   40.9280 C   0  0  0  0  0  0  0  0  0  0  0  0
   38.3410   29.2470   40.3180 N   0  0  0  0  0  0  0  0  0  0  0  0
   38.2550   30.5640   40.0860 C   0  0  0  0  0  0  0  0  0  0  0  0
   37.1550   31.2800   40.4460 N   0  0  0  0  0  0  0  0  0  0  0  0
   35.2350   31.1950   41.3510 H   0  0  0  0  0  0  0  0  0  0  0  0
   35.4070   28.7550   41.7730 H   0  0  0  0  0  0  0  0  0  0  0  0
   39.0380   27.8200   43.2570 Cl  0  0  0  0  0  0  0  0  0  0  0  0
   38.2120   26.7000   42.2060 C   0  0  0  0  0  0  0  0  0  0  0  0
   37.4490   27.1240   41.1660 C   0  0  0  0  0  0  0  0  0  0  0  0
   36.8530   26.1500   40.4150 C   0  0  0  0  0  0  0  0  0  0  0  0
   36.9820   24.8230   40.6530 C   0  0  0  0  0  0  0  0  0  0  0  0
   37.7550   24.4000   41.7070 C   0  0  0  0  0  0  0  0  0  0  0  0
   38.3700   25.3590   42.4830 C   0  0  0  0  0  0  0  0  0  0  0  0
   36.2310   26.4620   39.5670 H   0  0  0  0  0  0  0  0  0  0  0  0
   37.9090   23.3510   41.9650 H   0  0  0  0  0  0  0  0  0  0  0  0
   38.9800   25.0250   43.3150 H   0  0  0  0  0  0  0  0  0  0  0  0
   36.3300   23.7690   39.8320 C   0  0  0  0  0  0  0  0  0  0  0  0
   36.2720   24.1980   38.5460 F   0  0  0  0  0  0  0  0  0  0  0  0
   35.0570   23.4790   40.3320 F   0  0  0  0  0  0  0  0  0  0  0  0
   37.0860   22.6150   39.9290 F   0  0  0  0  0  0  0  0  0  0  0  0
   40.5200   31.4660   41.8860 Cl  0  0  0  0  0  0  0  0  0  0  0  0
   40.4400   31.7100   40.1580 C   0  0  0  0  0  0  0  0  0  0  0  0
   39.3600   31.2580   39.4330 C   0  0  0  0  0  0  0  0  0  0  0  0
   39.2580   31.4300   38.0700 C   0  0  0  0  0  0  0  0  0  0  0  0
   38.4010   31.0710   37.4940 H   0  0  0  0  0  0  0  0  0  0  0  0
   40.2870   32.0830   37.4180 C   0  0  0  0  0  3  0  0  0  0  0  0
   41.3840   32.5440   38.1450 C   0  0  0  0  0  0  0  0  0  0  0  0
   42.7060   33.3780   37.3400 Cl  0  0  0  0  0  0  0  0  0  0  0  0
   41.4750   32.3640   39.5220 C   0  0  0  0  0  0  0  0  0  0  0  0
   42.3400   32.7290   40.0870 H   0  0  0  0  0  0  0  0  0  0  0  0
  1  2  1  0  0  0  0
  1  7  1  0  0  0  0
  2  8  1  0  0  0  0
  3 11  1  0  0  0  0
  3  2  2  0  0  0  0
  4  3  1  0  0  0  0
  5  4  2  0  0  0  0
  5  6  1  0  0  0  0
  6  1  2  0  0  0  0
 10 15  1  0  0  0  0
 10  9  1  0  0  0  0
 11 10  2  0  0  0  0
 12 13  2  0  0  0  0
 12 11  1  0  0  0  0
 13 14  1  0  0  0  0
 14 17  1  0  0  0  0
 14 15  2  0  0  0  0
 15 18  1  0  0  0  0
 16 12  1  0  0  0  0
 19 22  1  0  0  0  0
 19 21  1  0  0  0  0
 19 13  1  0  0  0  0
 20 19  1  0  0  0  0
 24 23  1  0  0  0  0
 25  5  1  0  0  0  0
 25 24  2  0  0  0  0
 26 25  1  0  0  0  0
 27 26  1  0  0  0  0
 28 26  2  0  0  0  0
 28 29  1  0  0  0  0
 29 31  2  0  0  0  0
 30 29  1  0  0  0  0
 31 32  1  0  0  0  0
 31 24  1  0  0  0  0
M  END
>  <minimizedAffinity>
-5.77962255

$$$$

 OpenBabel03242523013D

 32 34  0  0  0  0  0  0  0  0999 V2000
   38.4560   34.3480   40.2430 C   0  0  0  0  0  0  0  0  0  0  0  0
   37.6650   33.2100   40.3600 C   0  0  0  0  0  0  0  0  0  0  0  0
   38.1210   31.9490   40.0630 C   0  0  0  0  0  0  0  0  0  0  0  0
   39.4220   31.8700   39.6370 N   0  0  0  0  0  0  0  0  0  0  0  0
   40.1890   32.9630   39.5210 C   0  0  0  0  0  0  0  0  0  0  0  0
   39.7140   34.2020   39.8210 N   0  0  0  0  0  0  0  0  0  0  0  0
   38.0320   35.3120   40.4930 H   0  0  0  0  0  0  0  0  0  0  0  0
   36.6210   33.2800   40.7030 H   0  0  0  0  0  0  0  0  0  0  0  0
   38.7540   30.2400   42.4260 Cl  0  0  0  0  0  0  0  0  0  0  0  0
   37.5350   29.9050   41.2260 C   0  0  0  0  0  0  0  0  0  0  0  0
   37.3120   30.7410   40.1780 C   0  0  0  0  0  0  0  0  0  0  0  0
   36.3290   30.3690   39.3050 C   0  0  0  0  0  0  0  0  0  0  0  0
   35.5890   29.2420   39.4300 C   0  0  0  0  0  0  0  0  0  0  0  0
   35.8180   28.4000   40.4920 C   0  0  0  0  0  0  0  0  0  0  0  0
   36.8040   28.7470   41.3910 C   0  0  0  0  0  0  0  0  0  0  0  0
   36.1260   31.0240   38.4490 H   0  0  0  0  0  0  0  0  0  0  0  0
   35.2670   27.4750   40.6650 H   0  0  0  0  0  0  0  0  0  0  0  0
   36.9850   28.0840   42.2280 H   0  0  0  0  0  0  0  0  0  0  0  0
   34.5210   28.8440   38.4770 C   0  0  0  0  0  0  0  0  0  0  0  0
   33.3190   29.1640   39.0170 F   0  0  0  0  0  0  0  0  0  0  0  0
   34.6050   27.4770   38.1920 F   0  0  0  0  0  0  0  0  0  0  0  0
   34.7220   29.5270   37.2910 F   0  0  0  0  0  0  0  0  0  0  0  0
   42.2100   32.0690   41.5950 Cl  0  0  0  0  0  0  0  0  0  0  0  0
   42.5660   32.4340   39.9240 C   0  0  0  0  0  0  0  0  0  0  0  0
   41.5690   32.8330   39.0630 C   0  0  0  0  0  0  0  0  0  0  0  0
   41.8070   33.1290   37.7390 C   0  0  0  0  0  0  0  0  0  0  0  0
   41.0150   33.4460   37.0550 H   0  0  0  0  0  0  0  0  0  0  0  0
   43.1020   33.0180   37.2710 C   0  0  0  0  0  3  0  0  0  0  0  0
   44.1190   32.6140   38.1370 C   0  0  0  0  0  0  0  0  0  0  0  0
   45.7750   32.4640   37.5660 Cl  0  0  0  0  0  0  0  0  0  0  0  0
   43.8640   32.3170   39.4720 C   0  0  0  0  0  0  0  0  0  0  0  0
   44.6680   32.0010   40.1470 H   0  0  0  0  0  0  0  0  0  0  0  0
  1  2  1  0  0  0  0
  1  7  1  0  0  0  0
  2  8  1  0  0  0  0
  3 11  1  0  0  0  0
  3  2  2  0  0  0  0
  4  3  1  0  0  0  0
  5  4  2  0  0  0  0
  5  6  1  0  0  0  0
  6  1  2  0  0  0  0
 10 15  1  0  0  0  0
 10  9  1  0  0  0  0
 11 10  2  0  0  0  0
 12 13  2  0  0  0  0
 12 11  1  0  0  0  0
 13 14  1  0  0  0  0
 14 17  1  0  0  0  0
 14 15  2  0  0  0  0
 15 18  1  0  0  0  0
 16 12  1  0  0  0  0
 19 20  1  0  0  0  0
 19 13  1  0  0  0  0
 21 19  1  0  0  0  0
 22 19  1  0  0  0  0
 24 23  1  0  0  0  0
 25  5  1  0  0  0  0
 25 24  2  0  0  0  0
 26 25  1  0  0  0  0
 27 26  1  0  0  0  0
 28 26  2  0  0  0  0
 28 29  1  0  0  0  0
 29 31  2  0  0  0  0
 30 29  1  0  0  0  0
 31 24  1  0  0  0  0
 31 32  1  0  0  0  0
M  END
>  <minimizedAffinity>
-5.73503208

$$$$

 OpenBabel03242523013D

 32 34  0  0  0  0  0  0  0  0999 V2000
   37.3270   28.3540   43.6800 C   0  0  0  0  0  0  0  0  0  0  0  0
   36.9880   27.3850   42.7410 C   0  0  0  0  0  0  0  0  0  0  0  0
   37.3600   27.4590   41.4210 C   0  0  0  0  0  0  0  0  0  0  0  0
   38.0970   28.5620   41.0710 N   0  0  0  0  0  0  0  0  0  0  0  0
   38.4260   29.5000   41.9700 C   0  0  0  0  0  0  0  0  0  0  0  0
   38.0450   29.4030   43.2730 N   0  0  0  0  0  0  0  0  0  0  0  0
   37.0000   28.2320   44.7040 H   0  0  0  0  0  0  0  0  0  0  0  0
   36.3970   26.5020   43.0290 H   0  0  0  0  0  0  0  0  0  0  0  0
   35.7410   28.4790   39.1320 Cl  0  0  0  0  0  0  0  0  0  0  0  0
   36.2820   26.8350   39.3430 C   0  0  0  0  0  0  0  0  0  0  0  0
   37.0190   26.4560   40.4200 C   0  0  0  0  0  0  0  0  0  0  0  0
   37.3830   25.1400   40.4720 C   0  0  0  0  0  0  0  0  0  0  0  0
   37.0550   24.2240   39.5300 C   0  0  0  0  0  0  0  0  0  0  0  0
   36.3090   24.6130   38.4430 C   0  0  0  0  0  0  0  0  0  0  0  0
   35.9260   25.9340   38.3610 C   0  0  0  0  0  0  0  0  0  0  0  0
   37.9780   24.8040   41.3300 H   0  0  0  0  0  0  0  0  0  0  0  0
   36.0050   23.9370   37.6420 H   0  0  0  0  0  0  0  0  0  0  0  0
   35.3390   26.2410   37.5040 H   0  0  0  0  0  0  0  0  0  0  0  0
   37.4540   22.7940   39.5940 C   0  0  0  0  0  0  0  0  0  0  0  0
   36.4320   22.0390   39.1170 F   0  0  0  0  0  0  0  0  0  0  0  0
   37.7850   22.4370   40.9050 F   0  0  0  0  0  0  0  0  0  0  0  0
   38.5880   22.6250   38.8200 F   0  0  0  0  0  0  0  0  0  0  0  0
   36.8980   31.7330   40.6060 Cl  0  0  0  0  0  0  0  0  0  0  0  0
   38.6150   31.7280   40.9240 C   0  0  0  0  0  0  0  0  0  0  0  0
   39.2110   30.6570   41.5530 C   0  0  0  0  0  0  0  0  0  0  0  0
   40.5620   30.6140   41.8230 C   0  0  0  0  0  0  0  0  0  0  0  0
   41.0350   29.7640   42.3220 H   0  0  0  0  0  0  0  0  0  0  0  0
   41.3360   31.6920   41.4410 C   0  0  0  0  0  3  0  0  0  0  0  0
   40.7410   32.7810   40.8040 C   0  0  0  0  0  0  0  0  0  0  0  0
   41.7030   34.1660   40.3080 Cl  0  0  0  0  0  0  0  0  0  0  0  0
   39.3750   32.8120   40.5370 C   0  0  0  0  0  0  0  0  0  0  0  0
   38.9140   33.6700   40.0360 H   0  0  0  0  0  0  0  0  0  0  0  0
  1  7  1  0  0  0  0
  2  8  1  0  0  0  0
  2  1  2  0  0  0  0
  3  2  1  0  0  0  0
  4  3  2  0  0  0  0
  4  5  1  0  0  0  0
  5  6  2  0  0  0  0
  6  1  1  0  0  0  0
  9 10  1  0  0  0  0
 10 11  1  0  0  0  0
 11 12  2  0  0  0  0
 11  3  1  0  0  0  0
 12 16  1  0  0  0  0
 13 19  1  0  0  0  0
 13 12  1  0  0  0  0
 14 13  2  0  0  0  0
 15 14  1  0  0  0  0
 15 10  2  0  0  0  0
 17 14  1  0  0  0  0
 18 15  1  0  0  0  0
 19 21  1  0  0  0  0
 20 19  1  0  0  0  0
 22 19  1  0  0  0  0
 23 24  1  0  0  0  0
 24 25  1  0  0  0  0
 25 26  2  0  0  0  0
 25  5  1  0  0  0  0
 26 27  1  0  0  0  0
 28 26  1  0  0  0  0
 29 28  2  0  0  0  0
 30 29  1  0  0  0  0
 31 29  1  0  0  0  0
 31 24  2  0  0  0  0
 32 31  1  0  0  0  0
M  END
>  <minimizedAffinity>
-5.66744423

$$$$

 OpenBabel03242523013D

 32 34  0  0  0  0  0  0  0  0999 V2000
   37.5780   30.9260   38.0760 C   0  0  0  0  0  0  0  0  0  0  0  0
   37.4130   30.0610   39.1530 C   0  0  0  0  0  0  0  0  0  0  0  0
   38.4470   29.3430   39.7020 C   0  0  0  0  0  0  0  0  0  0  0  0
   39.6750   29.5290   39.1210 N   0  0  0  0  0  0  0  0  0  0  0  0
   39.8420   30.3600   38.0830 C   0  0  0  0  0  0  0  0  0  0  0  0
   38.8010   31.0600   37.5570 N   0  0  0  0  0  0  0  0  0  0  0  0
   36.7190   31.4610   37.6930 H   0  0  0  0  0  0  0  0  0  0  0  0
   36.4240   29.9170   39.6140 H   0  0  0  0  0  0  0  0  0  0  0  0
   39.2570   30.4760   42.3410 Cl  0  0  0  0  0  0  0  0  0  0  0  0
   38.6450   28.8670   42.0690 C   0  0  0  0  0  0  0  0  0  0  0  0
   38.2980   28.4320   40.8300 C   0  0  0  0  0  0  0  0  0  0  0  0
   37.8320   27.1500   40.7460 C   0  0  0  0  0  0  0  0  0  0  0  0
   37.7020   26.3180   41.8070 C   0  0  0  0  0  0  0  0  0  0  0  0
   38.0540   26.7640   43.0590 C   0  0  0  0  0  0  0  0  0  0  0  0
   38.5290   28.0530   43.1760 C   0  0  0  0  0  0  0  0  0  0  0  0
   37.5450   26.7700   39.7580 H   0  0  0  0  0  0  0  0  0  0  0  0
   37.9790   26.1580   43.9630 H   0  0  0  0  0  0  0  0  0  0  0  0
   38.8060   28.4040   44.1630 H   0  0  0  0  0  0  0  0  0  0  0  0
   37.1940   24.9250   41.7090 C   0  0  0  0  0  0  0  0  0  0  0  0
   38.2380   24.0740   41.8690 F   0  0  0  0  0  0  0  0  0  0  0  0
   36.5550   24.7240   40.4820 F   0  0  0  0  0  0  0  0  0  0  0  0
   36.2520   24.7360   42.7040 F   0  0  0  0  0  0  0  0  0  0  0  0
   41.0140   27.9250   36.7120 Cl  0  0  0  0  0  0  0  0  0  0  0  0
   41.7920   29.4830   36.8500 C   0  0  0  0  0  0  0  0  0  0  0  0
   41.1670   30.5270   37.4950 C   0  0  0  0  0  0  0  0  0  0  0  0
   41.7460   31.7710   37.6250 C   0  0  0  0  0  0  0  0  0  0  0  0
   41.2500   32.5990   38.1380 H   0  0  0  0  0  0  0  0  0  0  0  0
   43.0010   31.9640   37.0810 C   0  0  0  0  0  3  0  0  0  0  0  0
   43.6400   30.9120   36.4250 C   0  0  0  0  0  0  0  0  0  0  0  0
   45.2380   31.1320   35.7250 Cl  0  0  0  0  0  0  0  0  0  0  0  0
   43.0450   29.6610   36.3010 C   0  0  0  0  0  0  0  0  0  0  0  0
   43.5530   28.8390   35.7850 H   0  0  0  0  0  0  0  0  0  0  0  0
  1  2  1  0  0  0  0
  2  8  1  0  0  0  0
  2  3  2  0  0  0  0
  3 11  1  0  0  0  0
  4  3  1  0  0  0  0
  5  4  2  0  0  0  0
  6  1  2  0  0  0  0
  6  5  1  0  0  0  0
  7  1  1  0  0  0  0
 10  9  1  0  0  0  0
 10 15  1  0  0  0  0
 11 10  2  0  0  0  0
 12 11  1  0  0  0  0
 12 13  2  0  0  0  0
 13 14  1  0  0  0  0
 14 15  2  0  0  0  0
 14 17  1  0  0  0  0
 15 18  1  0  0  0  0
 16 12  1  0  0  0  0
 19 13  1  0  0  0  0
 19 20  1  0  0  0  0
 19 22  1  0  0  0  0
 21 19  1  0  0  0  0
 23 24  1  0  0  0  0
 24 25  1  0  0  0  0
 25 26  2  0  0  0  0
 25  5  1  0  0  0  0
 26 27  1  0  0  0  0
 28 26  1  0  0  0  0
 29 28  2  0  0  0  0
 30 29  1  0  0  0  0
 31 29  1  0  0  0  0
 31 24  2  0  0  0  0
 32 31  1  0  0  0  0
M  END
>  <minimizedAffinity>
-5.6489954

$$$$
