
 OpenBabel03252506523D

 32 35  0  0  0  0  0  0  0  0999 V2000
   47.4030   31.4800   45.2750 C   0  0  0  0  0  0  0  0  0  0  0  0
   46.8570   32.7470   45.1960 C   0  0  0  0  0  0  0  0  0  0  0  0
   46.1160   33.3210   46.2210 C   0  0  0  0  0  0  0  0  0  0  0  0
   45.9130   32.5760   47.3910 C   0  0  0  0  0  0  0  0  0  0  0  0
   45.2590   32.8010   48.5710 N   0  0  0  0  0  0  0  0  0  0  0  0
   45.4040   31.6970   49.3490 C   0  0  0  0  0  0  0  0  0  0  0  0
   46.1380   30.8120   48.6470 N   0  0  0  0  0  0  0  0  0  0  0  0
   46.4650   31.3200   47.4450 C   0  0  0  0  0  0  0  0  0  0  0  0
   47.1970   30.7460   46.4410 C   0  0  0  0  0  0  0  0  0  0  0  0
   47.9750   31.0880   44.4350 H   0  0  0  0  0  0  0  0  0  0  0  0
   45.6950   34.2980   46.1590 H   0  0  0  0  0  0  0  0  0  0  0  0
   44.7500   33.6870   48.7900 H   0  0  0  0  0  0  0  0  0  0  0  0
   44.9690   31.6610   50.3190 H   0  0  0  0  0  0  0  0  0  0  0  0
   45.3750   28.4370   45.8490 Cl  0  0  0  0  0  0  0  0  0  0  0  0
   47.0790   28.2310   46.2500 C   0  0  0  0  0  0  0  0  0  0  0  0
   47.7850   29.4110   46.4970 C   0  0  0  0  0  0  0  0  0  0  0  0
   49.1290   29.2680   46.8140 C   0  0  0  0  0  0  0  0  0  0  0  0
   49.7090   30.1650   47.0130 H   0  0  0  0  0  0  0  0  0  0  0  0
   49.7880   28.0550   46.8950 C   0  0  0  0  0  3  0  0  0  0  0  0
   49.0490   26.9340   46.6430 C   0  0  0  0  0  0  0  0  0  0  0  0
   49.8110   25.3710   46.7270 Cl  0  0  0  0  0  0  0  0  0  0  0  0
   47.7220   27.0140   46.3270 C   0  0  0  0  0  0  0  0  0  0  0  0
   47.0990   26.1460   46.1190 H   0  0  0  0  0  0  0  0  0  0  0  0
   46.3230   35.1920   42.4940 C   0  0  0  0  0  0  0  0  0  0  0  0
   47.4820   35.0120   41.7050 C   0  0  0  0  0  0  0  0  0  0  0  0
   48.4380   34.0510   42.1070 C   0  0  0  0  0  0  0  0  0  0  0  0
   48.1730   33.3490   43.2520 N   0  0  0  0  0  0  0  0  0  0  0  0
   47.0540   33.5440   43.9860 C   0  0  0  0  0  0  0  0  0  0  0  0
   46.1580   34.4500   43.6030 N   0  0  0  0  0  0  0  0  0  0  0  0
   45.6320   35.9340   42.1410 H   0  0  0  0  0  0  0  0  0  0  0  0
   47.7160   35.5510   40.7970 H   0  0  0  0  0  0  0  0  0  0  0  0
   49.3400   33.8430   41.5790 H   0  0  0  0  0  0  0  0  0  0  0  0
  1  9  1  0  0  0  0
  2  1  2  0  0  0  0
  2  3  1  0  0  0  0
  3  4  2  0  0  0  0
  4  8  1  0  0  0  0
  4  5  1  0  0  0  0
  5 12  1  0  0  0  0
  5  6  1  0  0  0  0
  6 13  1  0  0  0  0
  7  6  2  0  0  0  0
  8  7  1  0  0  0  0
  9 16  1  0  0  0  0
  9  8  2  0  0  0  0
 10  1  1  0  0  0  0
 11  3  1  0  0  0  0
 14 15  1  0  0  0  0
 15 22  2  0  0  0  0
 15 16  1  0  0  0  0
 16 17  2  0  0  0  0
 17 19  1  0  0  0  0
 17 18  1  0  0  0  0
 20 21  1  0  0  0  0
 20 19  2  0  0  0  0
 22 20  1  0  0  0  0
 23 22  1  0  0  0  0
 24 29  1  0  0  0  0
 25 26  1  0  0  0  0
 25 24  2  0  0  0  0
 26 27  2  0  0  0  0
 27 28  1  0  0  0  0
 28  2  1  0  0  0  0
 29 28  2  0  0  0  0
 30 24  1  0  0  0  0
 31 25  1  0  0  0  0
 32 26  1  0  0  0  0
M  END
>  <minimizedAffinity>
-5.36200237

>  <minimizedRMSD>
1.12172484

$$$$
