
 OpenBabel03252509293D

 22 23  0  0  0  0  0  0  0  0999 V2000
   47.1150   35.1740   41.8510 C   0  0  0  0  0  0  0  0  0  0  0  0
   46.4550   34.9100   40.9800 H   0  0  0  0  0  0  0  0  0  0  0  0
   47.4390   36.2290   41.7380 H   0  0  0  0  0  0  0  0  0  0  0  0
   46.6600   32.7950   40.1510 Cl  0  0  0  0  0  0  0  0  0  0  0  0
   48.1810   33.0960   40.9890 C   0  0  0  0  0  0  0  0  0  0  0  0
   48.2680   34.2550   41.7610 C   0  0  0  0  0  0  0  0  0  0  0  0
   49.4760   34.4900   42.4250 C   0  0  0  0  0  0  0  0  0  0  0  0
   49.5650   35.3970   43.0370 H   0  0  0  0  0  0  0  0  0  0  0  0
   50.5570   33.6310   42.3420 C   0  0  0  0  0  3  0  0  0  0  0  0
   50.4500   32.4740   41.5640 C   0  0  0  0  0  0  0  0  0  0  0  0
   51.8010   31.3610   41.4350 Cl  0  0  0  0  0  0  0  0  0  0  0  0
   49.2550   32.2220   40.8940 C   0  0  0  0  0  0  0  0  0  0  0  0
   49.1650   31.3180   40.2830 H   0  0  0  0  0  0  0  0  0  0  0  0
   44.5950   35.9110   44.4760 C   0  0  0  0  0  0  0  0  0  0  0  0
   45.3520   36.0340   43.2970 C   0  0  0  0  0  0  0  0  0  0  0  0
   46.3300   35.0500   43.0710 C   0  0  0  0  0  0  0  0  0  0  0  0
   46.4770   34.0580   43.9960 N   0  0  0  0  0  0  0  0  0  0  0  0
   45.7190   33.9900   45.1150 C   0  0  0  0  0  0  0  0  0  0  0  0
   44.7760   34.9230   45.3490 N   0  0  0  0  0  0  0  0  0  0  0  0
   43.8380   36.6910   44.6280 H   0  0  0  0  0  0  0  0  0  0  0  0
   45.2080   36.8340   42.5860 H   0  0  0  0  0  0  0  0  0  0  0  0
   45.9210   33.1560   45.7840 H   0  0  0  0  0  0  0  0  0  0  0  0
  1 16  1  0  0  0  0
  2  1  1  0  0  0  0
  3  1  1  0  0  0  0
  4  5  1  0  0  0  0
  5  6  1  0  0  0  0
  6  1  1  0  0  0  0
  6  7  2  0  0  0  0
  7  8  1  0  0  0  0
  9  7  1  0  0  0  0
 10  9  2  0  0  0  0
 11 10  1  0  0  0  0
 12  5  2  0  0  0  0
 12 10  1  0  0  0  0
 13 12  1  0  0  0  0
 14 20  1  0  0  0  0
 14 19  1  0  0  0  0
 15 14  2  0  0  0  0
 16 15  1  0  0  0  0
 16 17  2  0  0  0  0
 17 18  1  0  0  0  0
 18 19  2  0  0  0  0
 18 22  1  0  0  0  0
 21 15  1  0  0  0  0
M  END
>  <minimizedAffinity>
-4.71216106

>  <minimizedRMSD>
2.72530198

$$$$
