
 OpenBabel03252506523D

 32 35  0  0  0  0  0  0  0  0999 V2000
   46.9530   31.2980   45.1020 C   0  0  0  0  0  0  0  0  0  0  0  0
   46.7430   32.6620   45.1630 C   0  0  0  0  0  0  0  0  0  0  0  0
   46.2490   33.3060   46.2910 C   0  0  0  0  0  0  0  0  0  0  0  0
   45.9500   32.5300   47.4200 C   0  0  0  0  0  0  0  0  0  0  0  0
   45.4630   32.8010   48.6680 N   0  0  0  0  0  0  0  0  0  0  0  0
   45.3800   31.6290   49.3510 C   0  0  0  0  0  0  0  0  0  0  0  0
   45.8120   30.6580   48.5220 N   0  0  0  0  0  0  0  0  0  0  0  0
   46.1670   31.1770   47.3340 C   0  0  0  0  0  0  0  0  0  0  0  0
   46.6530   30.5340   46.2270 C   0  0  0  0  0  0  0  0  0  0  0  0
   47.3430   30.8560   44.1850 H   0  0  0  0  0  0  0  0  0  0  0  0
   46.0870   34.3580   46.3370 H   0  0  0  0  0  0  0  0  0  0  0  0
   45.2130   33.7610   48.9960 H   0  0  0  0  0  0  0  0  0  0  0  0
   45.0220   31.6130   50.3520 H   0  0  0  0  0  0  0  0  0  0  0  0
   49.2820   29.5160   47.2570 Cl  0  0  0  0  0  0  0  0  0  0  0  0
   48.0520   28.4590   46.5670 C   0  0  0  0  0  0  0  0  0  0  0  0
   46.8850   29.0960   46.1340 C   0  0  0  0  0  0  0  0  0  0  0  0
   45.9050   28.2790   45.5870 C   0  0  0  0  0  0  0  0  0  0  0  0
   44.9850   28.7410   45.2400 H   0  0  0  0  0  0  0  0  0  0  0  0
   46.0180   26.9060   45.4510 C   0  0  0  0  0  3  0  0  0  0  0  0
   47.1790   26.3380   45.8890 C   0  0  0  0  0  0  0  0  0  0  0  0
   47.3940   24.6150   45.7500 Cl  0  0  0  0  0  0  0  0  0  0  0  0
   48.1790   27.0930   46.4370 C   0  0  0  0  0  0  0  0  0  0  0  0
   49.1180   26.6780   46.7970 H   0  0  0  0  0  0  0  0  0  0  0  0
   46.4660   35.2080   42.5160 C   0  0  0  0  0  0  0  0  0  0  0  0
   47.6740   35.0230   41.8070 C   0  0  0  0  0  0  0  0  0  0  0  0
   48.5750   34.0240   42.2430 C   0  0  0  0  0  0  0  0  0  0  0  0
   48.2110   33.2930   43.3400 N   0  0  0  0  0  0  0  0  0  0  0  0
   47.0460   33.4930   43.9990 C   0  0  0  0  0  0  0  0  0  0  0  0
   46.2030   34.4350   43.5830 N   0  0  0  0  0  0  0  0  0  0  0  0
   45.8200   35.9800   42.1400 H   0  0  0  0  0  0  0  0  0  0  0  0
   47.9880   35.5850   40.9370 H   0  0  0  0  0  0  0  0  0  0  0  0
   49.5080   33.8100   41.7740 H   0  0  0  0  0  0  0  0  0  0  0  0
  1  2  2  0  0  0  0
  1  9  1  0  0  0  0
  2  3  1  0  0  0  0
  3 11  1  0  0  0  0
  3  4  2  0  0  0  0
  4  5  1  0  0  0  0
  5 12  1  0  0  0  0
  5  6  1  0  0  0  0
  6 13  1  0  0  0  0
  7  6  2  0  0  0  0
  8  4  1  0  0  0  0
  8  7  1  0  0  0  0
  9  8  2  0  0  0  0
 10  1  1  0  0  0  0
 15 14  1  0  0  0  0
 16  9  1  0  0  0  0
 16 15  2  0  0  0  0
 17 16  1  0  0  0  0
 18 17  1  0  0  0  0
 19 17  2  0  0  0  0
 19 20  1  0  0  0  0
 20 22  2  0  0  0  0
 21 20  1  0  0  0  0
 22 15  1  0  0  0  0
 22 23  1  0  0  0  0
 24 29  1  0  0  0  0
 25 26  1  0  0  0  0
 25 24  2  0  0  0  0
 26 27  2  0  0  0  0
 27 28  1  0  0  0  0
 28  2  1  0  0  0  0
 29 28  2  0  0  0  0
 30 24  1  0  0  0  0
 31 25  1  0  0  0  0
 32 26  1  0  0  0  0
M  END
>  <minimizedAffinity>
-5.34494448

>  <minimizedRMSD>
0.598213255

$$$$
