
 OpenBabel03252503143D

 35 38  0  0  0  0  0  0  0  0999 V2000
   37.9060   32.6240   39.8850 C   0  0  0  0  0  0  0  0  0  0  0  0
   37.1790   33.6510   39.7440 O   0  0  0  0  0  0  0  0  0  0  0  0
   40.1720   33.5640   39.8550 C   0  0  0  0  0  0  0  0  0  0  0  0
   39.1970   32.7040   39.3030 C   0  0  0  0  0  0  0  0  0  0  0  0
   39.6150   31.9870   38.2010 C   0  0  0  0  0  0  0  0  0  0  0  0
   40.8670   32.0990   37.6870 N   0  0  0  0  0  0  0  0  0  0  0  0
   41.7620   32.9420   38.2600 C   0  0  0  0  0  0  0  0  0  0  0  0
   41.4180   33.6660   39.3330 N   0  0  0  0  0  0  0  0  0  0  0  0
   39.9340   34.1710   40.7270 H   0  0  0  0  0  0  0  0  0  0  0  0
   42.7460   32.9880   37.8050 H   0  0  0  0  0  0  0  0  0  0  0  0
   38.7110   31.1110   37.5790 C   0  0  0  0  0  0  0  0  0  0  0  0
   37.5410   31.2900   36.8760 C   0  0  0  0  0  0  0  0  0  0  0  0
   36.8630   30.2630   36.3800 C   0  0  0  0  0  0  0  0  0  0  0  0
   37.3660   29.0190   36.5900 C   0  0  0  0  0  0  0  0  0  0  0  0
   38.8960   29.3570   37.5550 S   0  0  0  0  0  0  0  0  0  0  0  0
   37.2250   32.3480   36.7660 H   0  0  0  0  0  0  0  0  0  0  0  0
   35.9420   30.3280   35.8200 H   0  0  0  0  0  0  0  0  0  0  0  0
   37.0130   28.0240   36.2960 H   0  0  0  0  0  0  0  0  0  0  0  0
   37.4830   31.3810   40.6090 C   0  0  0  0  0  0  0  0  0  0  0  0
   36.2090   31.1150   41.0970 C   0  0  0  0  0  0  0  0  0  0  0  0
   36.2920   29.9000   41.6660 N   0  0  0  0  0  0  0  0  0  0  0  0
   37.5810   29.4430   41.5260 C   0  0  0  0  0  0  0  0  0  0  0  0
   38.3160   30.3670   40.8700 N   0  0  0  0  0  0  0  0  0  0  0  0
   35.3340   31.7610   41.0290 H   0  0  0  0  0  0  0  0  0  0  0  0
   35.5350   29.3810   42.1310 H   0  0  0  0  0  0  0  0  0  0  0  0
   36.9520   27.0910   39.8610 Cl  0  0  0  0  0  0  0  0  0  0  0  0
   37.9080   26.9850   41.3270 C   0  0  0  0  0  0  0  0  0  0  0  0
   38.1200   28.1590   42.0000 C   0  0  0  0  0  0  0  0  0  0  0  0
   38.8710   28.1670   43.1790 C   0  0  0  0  0  0  0  0  0  0  0  0
   39.0730   29.0540   43.7520 H   0  0  0  0  0  0  0  0  0  0  0  0
   39.3740   26.9420   43.6130 C   0  0  0  0  0  3  0  0  0  0  0  0
   39.1460   25.7730   42.9170 C   0  0  0  0  0  0  0  0  0  0  0  0
   39.7620   24.2130   43.4320 Cl  0  0  0  0  0  0  0  0  0  0  0  0
   38.4020   25.7680   41.7510 C   0  0  0  0  0  0  0  0  0  0  0  0
   38.1780   24.8990   41.1480 H   0  0  0  0  0  0  0  0  0  0  0  0
  1 19  1  0  0  0  0
  2  1  2  0  0  0  0
  3  9  1  0  0  0  0
  4  3  2  0  0  0  0
  4  1  1  0  0  0  0
  5  4  1  0  0  0  0
  6  5  2  0  0  0  0
  6  7  1  0  0  0  0
  7  8  2  0  0  0  0
  8  3  1  0  0  0  0
 10  7  1  0  0  0  0
 11  5  1  0  0  0  0
 12 11  2  0  0  0  0
 13 14  2  0  0  0  0
 13 12  1  0  0  0  0
 14 15  1  0  0  0  0
 15 11  1  0  0  0  0
 16 12  1  0  0  0  0
 17 13  1  0  0  0  0
 18 14  1  0  0  0  0
 19 23  1  0  0  0  0
 19 20  2  0  0  0  0
 20 21  1  0  0  0  0
 21 25  1  0  0  0  0
 22 21  1  0  0  0  0
 22 28  1  0  0  0  0
 23 22  2  0  0  0  0
 24 20  1  0  0  0  0
 26 27  1  0  0  0  0
 27 34  2  0  0  0  0
 27 28  1  0  0  0  0
 28 29  2  0  0  0  0
 29 31  1  0  0  0  0
 29 30  1  0  0  0  0
 32 33  1  0  0  0  0
 32 31  2  0  0  0  0
 34 32  1  0  0  0  0
 35 34  1  0  0  0  0
M  END
>  <minimizedAffinity>
-6.16798687

$$$$

 OpenBabel03252503143D

 35 38  0  0  0  0  0  0  0  0999 V2000
   36.7540   30.9960   40.2600 C   0  0  0  0  0  0  0  0  0  0  0  0
   35.9740   30.9770   41.2560 O   0  0  0  0  0  0  0  0  0  0  0  0
   36.2620   30.0470   38.0520 C   0  0  0  0  0  0  0  0  0  0  0  0
   36.6680   29.8760   39.3930 C   0  0  0  0  0  0  0  0  0  0  0  0
   36.9610   28.5750   39.7490 C   0  0  0  0  0  0  0  0  0  0  0  0
   36.8660   27.5400   38.8750 N   0  0  0  0  0  0  0  0  0  0  0  0
   36.4690   27.7640   37.5970 C   0  0  0  0  0  0  0  0  0  0  0  0
   36.1710   29.0050   37.1900 N   0  0  0  0  0  0  0  0  0  0  0  0
   36.0100   31.0380   37.6800 H   0  0  0  0  0  0  0  0  0  0  0  0
   36.4130   26.8980   36.9470 H   0  0  0  0  0  0  0  0  0  0  0  0
   37.3670   28.3070   41.0650 C   0  0  0  0  0  0  0  0  0  0  0  0
   36.7130   27.8590   42.1920 C   0  0  0  0  0  0  0  0  0  0  0  0
   37.3500   27.6850   43.3430 C   0  0  0  0  0  0  0  0  0  0  0  0
   38.6780   27.9640   43.3740 C   0  0  0  0  0  0  0  0  0  0  0  0
   39.0190   28.5070   41.6480 S   0  0  0  0  0  0  0  0  0  0  0  0
   35.6300   27.6630   42.0510 H   0  0  0  0  0  0  0  0  0  0  0  0
   36.9030   27.3380   44.2630 H   0  0  0  0  0  0  0  0  0  0  0  0
   39.4240   27.9080   44.1750 H   0  0  0  0  0  0  0  0  0  0  0  0
   37.7230   32.1020   39.9660 C   0  0  0  0  0  0  0  0  0  0  0  0
   37.3920   33.4110   39.6380 C   0  0  0  0  0  0  0  0  0  0  0  0
   38.5650   34.0420   39.4610 N   0  0  0  0  0  0  0  0  0  0  0  0
   39.5800   33.1390   39.6760 C   0  0  0  0  0  0  0  0  0  0  0  0
   39.0510   31.9370   39.9880 N   0  0  0  0  0  0  0  0  0  0  0  0
   36.3900   33.8290   39.5460 H   0  0  0  0  0  0  0  0  0  0  0  0
   38.7060   35.0300   39.2100 H   0  0  0  0  0  0  0  0  0  0  0  0
   40.8880   32.3140   37.1650 Cl  0  0  0  0  0  0  0  0  0  0  0  0
   41.7630   33.0680   38.4840 C   0  0  0  0  0  0  0  0  0  0  0  0
   41.0250   33.3970   39.5900 C   0  0  0  0  0  0  0  0  0  0  0  0
   41.6420   34.0030   40.6900 C   0  0  0  0  0  0  0  0  0  0  0  0
   41.1190   34.2850   41.5860 H   0  0  0  0  0  0  0  0  0  0  0  0
   43.0110   34.2400   40.5920 C   0  0  0  0  0  3  0  0  0  0  0  0
   43.7310   33.8980   39.4660 C   0  0  0  0  0  0  0  0  0  0  0  0
   45.4550   34.1820   39.3060 Cl  0  0  0  0  0  0  0  0  0  0  0  0
   43.1190   33.3000   38.3800 C   0  0  0  0  0  0  0  0  0  0  0  0
   43.6100   33.0020   37.4630 H   0  0  0  0  0  0  0  0  0  0  0  0
  1  2  2  0  0  0  0
  3  4  1  0  0  0  0
  4  5  2  0  0  0  0
  4  1  1  0  0  0  0
  5 11  1  0  0  0  0
  6  5  1  0  0  0  0
  7  6  2  0  0  0  0
  8  7  1  0  0  0  0
  8  3  2  0  0  0  0
  9  3  1  0  0  0  0
 10  7  1  0  0  0  0
 11 15  1  0  0  0  0
 11 12  2  0  0  0  0
 12 13  1  0  0  0  0
 13 14  2  0  0  0  0
 13 17  1  0  0  0  0
 14 18  1  0  0  0  0
 15 14  1  0  0  0  0
 16 12  1  0  0  0  0
 19 23  1  0  0  0  0
 19  1  1  0  0  0  0
 20 19  2  0  0  0  0
 21 20  1  0  0  0  0
 21 22  1  0  0  0  0
 22 23  2  0  0  0  0
 24 20  1  0  0  0  0
 25 21  1  0  0  0  0
 26 27  1  0  0  0  0
 27 28  1  0  0  0  0
 28 22  1  0  0  0  0
 28 29  2  0  0  0  0
 29 30  1  0  0  0  0
 31 29  1  0  0  0  0
 32 31  2  0  0  0  0
 33 32  1  0  0  0  0
 34 27  2  0  0  0  0
 34 32  1  0  0  0  0
 35 34  1  0  0  0  0
M  END
>  <minimizedAffinity>
-5.90606642

$$$$

 OpenBabel03252503143D

 35 38  0  0  0  0  0  0  0  0999 V2000
   41.7200   33.4030   38.4610 C   0  0  0  0  0  0  0  0  0  0  0  0
   41.8720   34.5360   37.9160 O   0  0  0  0  0  0  0  0  0  0  0  0
   42.1390   31.5560   36.9030 C   0  0  0  0  0  0  0  0  0  0  0  0
   42.5640   32.3720   37.9740 C   0  0  0  0  0  0  0  0  0  0  0  0
   43.8190   32.0760   38.4650 C   0  0  0  0  0  0  0  0  0  0  0  0
   44.5860   31.0780   37.9560 N   0  0  0  0  0  0  0  0  0  0  0  0
   44.1260   30.3260   36.9260 C   0  0  0  0  0  0  0  0  0  0  0  0
   42.9150   30.5630   36.4040 N   0  0  0  0  0  0  0  0  0  0  0  0
   41.1620   31.7140   36.4500 H   0  0  0  0  0  0  0  0  0  0  0  0
   44.7850   29.5440   36.5630 H   0  0  0  0  0  0  0  0  0  0  0  0
   44.3230   32.8310   39.5360 C   0  0  0  0  0  0  0  0  0  0  0  0
   45.0680   33.9850   39.6210 C   0  0  0  0  0  0  0  0  0  0  0  0
   45.4200   34.5030   40.7920 C   0  0  0  0  0  0  0  0  0  0  0  0
   45.0170   33.8500   41.9120 C   0  0  0  0  0  0  0  0  0  0  0  0
   44.0830   32.4160   41.2330 S   0  0  0  0  0  0  0  0  0  0  0  0
   45.3410   34.4330   38.6430 H   0  0  0  0  0  0  0  0  0  0  0  0
   46.0010   35.4010   40.9330 H   0  0  0  0  0  0  0  0  0  0  0  0
   45.1670   34.0570   42.9780 H   0  0  0  0  0  0  0  0  0  0  0  0
   40.7330   33.1160   39.5520 C   0  0  0  0  0  0  0  0  0  0  0  0
   40.1560   34.0550   40.3980 C   0  0  0  0  0  0  0  0  0  0  0  0
   39.3440   33.3540   41.2080 N   0  0  0  0  0  0  0  0  0  0  0  0
   39.4270   32.0260   40.8620 C   0  0  0  0  0  0  0  0  0  0  0  0
   40.2910   31.8850   39.8330 N   0  0  0  0  0  0  0  0  0  0  0  0
   40.3300   35.1310   40.3990 H   0  0  0  0  0  0  0  0  0  0  0  0
   38.7510   33.7250   41.9640 H   0  0  0  0  0  0  0  0  0  0  0  0
   36.7240   31.4900   39.8130 Cl  0  0  0  0  0  0  0  0  0  0  0  0
   37.4460   30.5400   41.0970 C   0  0  0  0  0  0  0  0  0  0  0  0
   38.7080   30.9040   41.4840 C   0  0  0  0  0  0  0  0  0  0  0  0
   39.3610   30.2000   42.5010 C   0  0  0  0  0  0  0  0  0  0  0  0
   40.3510   30.4360   42.8500 H   0  0  0  0  0  0  0  0  0  0  0  0
   38.6660   29.1410   43.0790 C   0  0  0  0  0  3  0  0  0  0  0  0
   37.3940   28.7950   42.6720 C   0  0  0  0  0  0  0  0  0  0  0  0
   36.4880   27.4670   43.3750 Cl  0  0  0  0  0  0  0  0  0  0  0  0
   36.7510   29.4920   41.6650 C   0  0  0  0  0  0  0  0  0  0  0  0
   35.7590   29.2850   41.2880 H   0  0  0  0  0  0  0  0  0  0  0  0
  1 19  1  0  0  0  0
  2  1  2  0  0  0  0
  3  4  1  0  0  0  0
  4  1  1  0  0  0  0
  4  5  2  0  0  0  0
  5 11  1  0  0  0  0
  6  5  1  0  0  0  0
  7  6  2  0  0  0  0
  8  3  2  0  0  0  0
  8  7  1  0  0  0  0
  9  3  1  0  0  0  0
 10  7  1  0  0  0  0
 11 12  2  0  0  0  0
 11 15  1  0  0  0  0
 12 13  1  0  0  0  0
 13 17  1  0  0  0  0
 13 14  2  0  0  0  0
 14 18  1  0  0  0  0
 15 14  1  0  0  0  0
 16 12  1  0  0  0  0
 19 23  1  0  0  0  0
 19 20  2  0  0  0  0
 20 24  1  0  0  0  0
 20 21  1  0  0  0  0
 21 25  1  0  0  0  0
 22 21  1  0  0  0  0
 22 28  1  0  0  0  0
 23 22  2  0  0  0  0
 26 27  1  0  0  0  0
 27 28  2  0  0  0  0
 27 34  1  0  0  0  0
 28 29  1  0  0  0  0
 29 30  1  0  0  0  0
 29 31  2  0  0  0  0
 32 31  1  0  0  0  0
 32 33  1  0  0  0  0
 34 32  2  0  0  0  0
 35 34  1  0  0  0  0
M  END
>  <minimizedAffinity>
-5.85444832

$$$$

 OpenBabel03252503143D

 35 38  0  0  0  0  0  0  0  0999 V2000
   41.9250   33.3070   38.6980 C   0  0  0  0  0  0  0  0  0  0  0  0
   41.7220   33.6780   37.5050 O   0  0  0  0  0  0  0  0  0  0  0  0
   43.8960   34.0820   39.9350 C   0  0  0  0  0  0  0  0  0  0  0  0
   43.2860   33.1510   39.0670 C   0  0  0  0  0  0  0  0  0  0  0  0
   44.1090   32.1280   38.6430 C   0  0  0  0  0  0  0  0  0  0  0  0
   45.4060   32.0250   39.0330 N   0  0  0  0  0  0  0  0  0  0  0  0
   45.9390   32.9500   39.8690 C   0  0  0  0  0  0  0  0  0  0  0  0
   45.1920   33.9680   40.3160 N   0  0  0  0  0  0  0  0  0  0  0  0
   43.3250   34.9250   40.3220 H   0  0  0  0  0  0  0  0  0  0  0  0
   46.9800   32.8140   40.1450 H   0  0  0  0  0  0  0  0  0  0  0  0
   43.5920   31.1580   37.7710 C   0  0  0  0  0  0  0  0  0  0  0  0
   43.5580   31.0290   36.4010 C   0  0  0  0  0  0  0  0  0  0  0  0
   42.9910   29.9830   35.8130 C   0  0  0  0  0  0  0  0  0  0  0  0
   42.4410   29.0350   36.6150 C   0  0  0  0  0  0  0  0  0  0  0  0
   42.7620   29.6960   38.3030 S   0  0  0  0  0  0  0  0  0  0  0  0
   44.0380   31.8620   35.8460 H   0  0  0  0  0  0  0  0  0  0  0  0
   42.9290   29.8170   34.7480 H   0  0  0  0  0  0  0  0  0  0  0  0
   41.9230   28.0950   36.3940 H   0  0  0  0  0  0  0  0  0  0  0  0
   40.8400   33.0380   39.6960 C   0  0  0  0  0  0  0  0  0  0  0  0
   40.1530   33.9950   40.4330 C   0  0  0  0  0  0  0  0  0  0  0  0
   39.2830   33.3060   41.1900 N   0  0  0  0  0  0  0  0  0  0  0  0
   39.4380   31.9670   40.9190 C   0  0  0  0  0  0  0  0  0  0  0  0
   40.4060   31.8070   39.9910 N   0  0  0  0  0  0  0  0  0  0  0  0
   40.2970   35.0750   40.3990 H   0  0  0  0  0  0  0  0  0  0  0  0
   38.6050   33.6910   41.8630 H   0  0  0  0  0  0  0  0  0  0  0  0
   36.8340   31.3460   39.6800 Cl  0  0  0  0  0  0  0  0  0  0  0  0
   37.4680   30.4510   41.0480 C   0  0  0  0  0  0  0  0  0  0  0  0
   38.6900   30.8510   41.5200 C   0  0  0  0  0  0  0  0  0  0  0  0
   39.2720   30.1930   42.6080 C   0  0  0  0  0  0  0  0  0  0  0  0
   40.2270   30.4590   43.0250 H   0  0  0  0  0  0  0  0  0  0  0  0
   38.5510   29.1390   43.1640 C   0  0  0  0  0  3  0  0  0  0  0  0
   37.3210   28.7560   42.6700 C   0  0  0  0  0  0  0  0  0  0  0  0
   36.3850   27.4340   43.3440 Cl  0  0  0  0  0  0  0  0  0  0  0  0
   36.7490   29.4090   41.5930 C   0  0  0  0  0  0  0  0  0  0  0  0
   35.7920   29.1720   41.1470 H   0  0  0  0  0  0  0  0  0  0  0  0
  1  4  1  0  0  0  0
  1 19  1  0  0  0  0
  2  1  2  0  0  0  0
  3  8  1  0  0  0  0
  3  9  1  0  0  0  0
  4  3  2  0  0  0  0
  5  6  2  0  0  0  0
  5  4  1  0  0  0  0
  6  7  1  0  0  0  0
  7 10  1  0  0  0  0
  7  8  2  0  0  0  0
 11 15  1  0  0  0  0
 11  5  1  0  0  0  0
 12 11  2  0  0  0  0
 13 12  1  0  0  0  0
 13 14  2  0  0  0  0
 14 15  1  0  0  0  0
 16 12  1  0  0  0  0
 17 13  1  0  0  0  0
 18 14  1  0  0  0  0
 19 23  1  0  0  0  0
 19 20  2  0  0  0  0
 20 21  1  0  0  0  0
 21 25  1  0  0  0  0
 22 21  1  0  0  0  0
 22 28  1  0  0  0  0
 23 22  2  0  0  0  0
 24 20  1  0  0  0  0
 26 27  1  0  0  0  0
 27 28  2  0  0  0  0
 27 34  1  0  0  0  0
 28 29  1  0  0  0  0
 29 30  1  0  0  0  0
 29 31  2  0  0  0  0
 32 31  1  0  0  0  0
 32 33  1  0  0  0  0
 34 32  2  0  0  0  0
 35 34  1  0  0  0  0
M  END
>  <minimizedAffinity>
-5.81357574

$$$$

 OpenBabel03252503143D

 35 38  0  0  0  0  0  0  0  0999 V2000
   37.1740   27.4200   42.7110 C   0  0  0  0  0  0  0  0  0  0  0  0
   36.1980   27.0610   43.4330 O   0  0  0  0  0  0  0  0  0  0  0  0
   39.2840   26.7660   43.7760 C   0  0  0  0  0  0  0  0  0  0  0  0
   38.3170   26.5810   42.7650 C   0  0  0  0  0  0  0  0  0  0  0  0
   38.5860   25.5510   41.8870 C   0  0  0  0  0  0  0  0  0  0  0  0
   39.6960   24.7750   41.9890 N   0  0  0  0  0  0  0  0  0  0  0  0
   40.5920   25.0000   42.9830 C   0  0  0  0  0  0  0  0  0  0  0  0
   40.3870   25.9850   43.8670 N   0  0  0  0  0  0  0  0  0  0  0  0
   39.1580   27.5550   44.5160 H   0  0  0  0  0  0  0  0  0  0  0  0
   41.4580   24.3470   43.0120 H   0  0  0  0  0  0  0  0  0  0  0  0
   37.6830   25.2970   40.8430 C   0  0  0  0  0  0  0  0  0  0  0  0
   36.6150   24.4400   40.6940 C   0  0  0  0  0  0  0  0  0  0  0  0
   35.9080   24.3970   39.5710 C   0  0  0  0  0  0  0  0  0  0  0  0
   36.2760   25.2340   38.5670 C   0  0  0  0  0  0  0  0  0  0  0  0
   37.7180   26.1240   39.2860 S   0  0  0  0  0  0  0  0  0  0  0  0
   36.4060   23.8040   41.5780 H   0  0  0  0  0  0  0  0  0  0  0  0
   35.0620   23.7540   39.3850 H   0  0  0  0  0  0  0  0  0  0  0  0
   35.8720   25.3970   37.5610 H   0  0  0  0  0  0  0  0  0  0  0  0
   37.1760   28.6390   41.8370 C   0  0  0  0  0  0  0  0  0  0  0  0
   36.0720   29.1780   41.1870 C   0  0  0  0  0  0  0  0  0  0  0  0
   36.5380   30.2520   40.5270 N   0  0  0  0  0  0  0  0  0  0  0  0
   37.8860   30.3610   40.7710 C   0  0  0  0  0  0  0  0  0  0  0  0
   38.2760   29.3560   41.5850 N   0  0  0  0  0  0  0  0  0  0  0  0
   35.0490   28.8030   41.2120 H   0  0  0  0  0  0  0  0  0  0  0  0
   35.9970   30.8990   39.9360 H   0  0  0  0  0  0  0  0  0  0  0  0
   39.1460   29.7700   38.1710 Cl  0  0  0  0  0  0  0  0  0  0  0  0
   39.4530   31.2520   39.0560 C   0  0  0  0  0  0  0  0  0  0  0  0
   38.7980   31.3910   40.2510 C   0  0  0  0  0  0  0  0  0  0  0  0
   38.9840   32.5420   41.0230 C   0  0  0  0  0  0  0  0  0  0  0  0
   38.5000   32.7110   41.9690 H   0  0  0  0  0  0  0  0  0  0  0  0
   39.8500   33.5070   40.5150 C   0  0  0  0  0  3  0  0  0  0  0  0
   40.4980   33.3420   39.3090 C   0  0  0  0  0  0  0  0  0  0  0  0
   41.5960   34.5350   38.6370 Cl  0  0  0  0  0  0  0  0  0  0  0  0
   40.3130   32.2030   38.5470 C   0  0  0  0  0  0  0  0  0  0  0  0
   40.7810   31.9970   37.5940 H   0  0  0  0  0  0  0  0  0  0  0  0
  1  4  1  0  0  0  0
  1  2  2  0  0  0  0
  3  8  1  0  0  0  0
  3  9  1  0  0  0  0
  4  3  2  0  0  0  0
  5  6  2  0  0  0  0
  5  4  1  0  0  0  0
  6  7  1  0  0  0  0
  7 10  1  0  0  0  0
  7  8  2  0  0  0  0
 11  5  1  0  0  0  0
 12 11  2  0  0  0  0
 12 16  1  0  0  0  0
 13 12  1  0  0  0  0
 14 15  1  0  0  0  0
 14 13  2  0  0  0  0
 15 11  1  0  0  0  0
 17 13  1  0  0  0  0
 18 14  1  0  0  0  0
 19  1  1  0  0  0  0
 20 24  1  0  0  0  0
 20 19  2  0  0  0  0
 21 22  1  0  0  0  0
 21 20  1  0  0  0  0
 22 23  2  0  0  0  0
 23 19  1  0  0  0  0
 25 21  1  0  0  0  0
 26 27  1  0  0  0  0
 27 28  1  0  0  0  0
 28 22  1  0  0  0  0
 28 29  2  0  0  0  0
 29 30  1  0  0  0  0
 31 29  1  0  0  0  0
 32 31  2  0  0  0  0
 33 32  1  0  0  0  0
 34 27  2  0  0  0  0
 34 32  1  0  0  0  0
 35 34  1  0  0  0  0
M  END
>  <minimizedAffinity>
-5.66770792

$$$$

 OpenBabel03252503143D

 35 38  0  0  0  0  0  0  0  0999 V2000
   37.5890   30.9770   40.8840 C   0  0  0  0  0  0  0  0  0  0  0  0
   36.4120   31.4430   40.8640 O   0  0  0  0  0  0  0  0  0  0  0  0
   39.2260   32.7920   41.0860 C   0  0  0  0  0  0  0  0  0  0  0  0
   38.5850   31.8050   40.3060 C   0  0  0  0  0  0  0  0  0  0  0  0
   39.0120   31.7340   38.9960 C   0  0  0  0  0  0  0  0  0  0  0  0
   39.9750   32.5500   38.4960 N   0  0  0  0  0  0  0  0  0  0  0  0
   40.5560   33.4820   39.2930 C   0  0  0  0  0  0  0  0  0  0  0  0
   40.1860   33.6010   40.5740 N   0  0  0  0  0  0  0  0  0  0  0  0
   38.9550   32.9230   42.1320 H   0  0  0  0  0  0  0  0  0  0  0  0
   41.3190   34.1040   38.8360 H   0  0  0  0  0  0  0  0  0  0  0  0
   38.4260   30.7860   38.1420 C   0  0  0  0  0  0  0  0  0  0  0  0
   37.2230   30.7180   37.4770 C   0  0  0  0  0  0  0  0  0  0  0  0
   36.9080   29.6810   36.7110 C   0  0  0  0  0  0  0  0  0  0  0  0
   37.8210   28.6810   36.6040 C   0  0  0  0  0  0  0  0  0  0  0  0
   39.2010   29.2750   37.6670 S   0  0  0  0  0  0  0  0  0  0  0  0
   36.5560   31.5900   37.6360 H   0  0  0  0  0  0  0  0  0  0  0  0
   35.9870   29.5610   36.1610 H   0  0  0  0  0  0  0  0  0  0  0  0
   37.8140   27.7350   36.0500 H   0  0  0  0  0  0  0  0  0  0  0  0
   37.9610   29.6460   41.4660 C   0  0  0  0  0  0  0  0  0  0  0  0
   38.5590   29.4360   42.7030 C   0  0  0  0  0  0  0  0  0  0  0  0
   38.7060   28.1040   42.8050 N   0  0  0  0  0  0  0  0  0  0  0  0
   38.2110   27.5230   41.6610 C   0  0  0  0  0  0  0  0  0  0  0  0
   37.7500   28.4860   40.8340 N   0  0  0  0  0  0  0  0  0  0  0  0
   38.8450   30.1960   43.4300 H   0  0  0  0  0  0  0  0  0  0  0  0
   39.1150   27.5840   43.5950 H   0  0  0  0  0  0  0  0  0  0  0  0
   40.5190   26.4670   40.1590 Cl  0  0  0  0  0  0  0  0  0  0  0  0
   39.1720   25.4610   40.6550 C   0  0  0  0  0  0  0  0  0  0  0  0
   38.1690   26.0870   41.3460 C   0  0  0  0  0  0  0  0  0  0  0  0
   37.0560   25.3610   41.7810 C   0  0  0  0  0  0  0  0  0  0  0  0
   36.2370   25.7940   42.3270 H   0  0  0  0  0  0  0  0  0  0  0  0
   37.0330   24.0030   41.4740 C   0  0  0  0  0  3  0  0  0  0  0  0
   38.0550   23.3950   40.7750 C   0  0  0  0  0  0  0  0  0  0  0  0
   38.0610   21.6880   40.3710 Cl  0  0  0  0  0  0  0  0  0  0  0  0
   39.1550   24.1160   40.3470 C   0  0  0  0  0  0  0  0  0  0  0  0
   39.9960   23.7170   39.7970 H   0  0  0  0  0  0  0  0  0  0  0  0
  1 19  1  0  0  0  0
  2  1  2  0  0  0  0
  3  9  1  0  0  0  0
  4  1  1  0  0  0  0
  4  3  2  0  0  0  0
  5  4  1  0  0  0  0
  6  5  2  0  0  0  0
  6  7  1  0  0  0  0
  7  8  2  0  0  0  0
  8  3  1  0  0  0  0
 10  7  1  0  0  0  0
 11  5  1  0  0  0  0
 12 16  1  0  0  0  0
 12 11  2  0  0  0  0
 13 12  1  0  0  0  0
 14 13  2  0  0  0  0
 14 15  1  0  0  0  0
 15 11  1  0  0  0  0
 17 13  1  0  0  0  0
 18 14  1  0  0  0  0
 19 20  2  0  0  0  0
 20 21  1  0  0  0  0
 20 24  1  0  0  0  0
 21 25  1  0  0  0  0
 22 21  1  0  0  0  0
 23 19  1  0  0  0  0
 23 22  2  0  0  0  0
 26 27  1  0  0  0  0
 27 28  1  0  0  0  0
 28 22  1  0  0  0  0
 28 29  2  0  0  0  0
 29 30  1  0  0  0  0
 31 29  1  0  0  0  0
 32 31  2  0  0  0  0
 33 32  1  0  0  0  0
 34 27  2  0  0  0  0
 34 32  1  0  0  0  0
 35 34  1  0  0  0  0
M  END
>  <minimizedAffinity>
-5.65357876

$$$$

 OpenBabel03252503143D

 35 38  0  0  0  0  0  0  0  0999 V2000
   39.6300   32.6340   40.8280 C   0  0  0  0  0  0  0  0  0  0  0  0
   38.7090   33.4430   41.1440 O   0  0  0  0  0  0  0  0  0  0  0  0
   41.5390   34.0050   40.1250 C   0  0  0  0  0  0  0  0  0  0  0  0
   40.5170   33.0820   39.8150 C   0  0  0  0  0  0  0  0  0  0  0  0
   40.4790   32.6810   38.4960 C   0  0  0  0  0  0  0  0  0  0  0  0
   41.3580   33.1380   37.5670 N   0  0  0  0  0  0  0  0  0  0  0  0
   42.3200   34.0260   37.9230 C   0  0  0  0  0  0  0  0  0  0  0  0
   42.4100   34.4540   39.1880 N   0  0  0  0  0  0  0  0  0  0  0  0
   41.6480   34.3800   41.1420 H   0  0  0  0  0  0  0  0  0  0  0  0
   42.9920   34.3550   37.1370 H   0  0  0  0  0  0  0  0  0  0  0  0
   39.4910   31.7680   38.0920 C   0  0  0  0  0  0  0  0  0  0  0  0
   38.1380   31.8690   37.8610 C   0  0  0  0  0  0  0  0  0  0  0  0
   37.4170   30.8240   37.4750 C   0  0  0  0  0  0  0  0  0  0  0  0
   38.0640   29.6420   37.3140 C   0  0  0  0  0  0  0  0  0  0  0  0
   39.8030   30.0680   37.7440 S   0  0  0  0  0  0  0  0  0  0  0  0
   37.7150   32.8830   38.0240 H   0  0  0  0  0  0  0  0  0  0  0  0
   36.3560   30.8300   37.2770 H   0  0  0  0  0  0  0  0  0  0  0  0
   37.7160   28.6480   37.0100 H   0  0  0  0  0  0  0  0  0  0  0  0
   39.8200   31.2840   41.4510 C   0  0  0  0  0  0  0  0  0  0  0  0
   40.7140   30.9720   42.4670 C   0  0  0  0  0  0  0  0  0  0  0  0
   40.5410   29.6610   42.7050 N   0  0  0  0  0  0  0  0  0  0  0  0
   39.5680   29.1910   41.8560 C   0  0  0  0  0  0  0  0  0  0  0  0
   39.1240   30.2030   41.0800 N   0  0  0  0  0  0  0  0  0  0  0  0
   41.4070   31.6530   42.9620 H   0  0  0  0  0  0  0  0  0  0  0  0
   41.0390   29.0860   43.4000 H   0  0  0  0  0  0  0  0  0  0  0  0
   37.4080   28.4980   43.7410 Cl  0  0  0  0  0  0  0  0  0  0  0  0
   38.0570   27.3520   42.5830 C   0  0  0  0  0  0  0  0  0  0  0  0
   39.0590   27.8130   41.7710 C   0  0  0  0  0  0  0  0  0  0  0  0
   39.6340   26.9680   40.8170 C   0  0  0  0  0  0  0  0  0  0  0  0
   40.4230   27.2690   40.1510 H   0  0  0  0  0  0  0  0  0  0  0  0
   39.1400   25.6670   40.7500 C   0  0  0  0  0  3  0  0  0  0  0  0
   38.1310   25.2270   41.5810 C   0  0  0  0  0  0  0  0  0  0  0  0
   37.4830   23.5970   41.5250 Cl  0  0  0  0  0  0  0  0  0  0  0  0
   37.5630   26.0660   42.5230 C   0  0  0  0  0  0  0  0  0  0  0  0
   36.7710   25.8000   43.2090 H   0  0  0  0  0  0  0  0  0  0  0  0
  1  2  2  0  0  0  0
  1 19  1  0  0  0  0
  3  9  1  0  0  0  0
  4  3  1  0  0  0  0
  4  1  1  0  0  0  0
  5  4  2  0  0  0  0
  6  7  2  0  0  0  0
  6  5  1  0  0  0  0
  7  8  1  0  0  0  0
  8  3  2  0  0  0  0
 10  7  1  0  0  0  0
 11  5  1  0  0  0  0
 12 16  1  0  0  0  0
 12 11  2  0  0  0  0
 13 12  1  0  0  0  0
 14 13  2  0  0  0  0
 14 15  1  0  0  0  0
 15 11  1  0  0  0  0
 17 13  1  0  0  0  0
 18 14  1  0  0  0  0
 19 20  2  0  0  0  0
 20 21  1  0  0  0  0
 20 24  1  0  0  0  0
 21 25  1  0  0  0  0
 22 21  1  0  0  0  0
 23 19  1  0  0  0  0
 23 22  2  0  0  0  0
 27 26  1  0  0  0  0
 28 22  1  0  0  0  0
 28 27  2  0  0  0  0
 29 28  1  0  0  0  0
 30 29  1  0  0  0  0
 31 29  2  0  0  0  0
 31 32  1  0  0  0  0
 32 34  2  0  0  0  0
 33 32  1  0  0  0  0
 34 27  1  0  0  0  0
 34 35  1  0  0  0  0
M  END
>  <minimizedAffinity>
-5.65224695

$$$$

 OpenBabel03252503143D

 35 38  0  0  0  0  0  0  0  0999 V2000
   37.3660   27.4460   42.7650 C   0  0  0  0  0  0  0  0  0  0  0  0
   36.5770   27.2530   43.7360 O   0  0  0  0  0  0  0  0  0  0  0  0
   39.6340   27.3040   43.6900 C   0  0  0  0  0  0  0  0  0  0  0  0
   38.6200   26.7860   42.8560 C   0  0  0  0  0  0  0  0  0  0  0  0
   38.9580   25.6320   42.1800 C   0  0  0  0  0  0  0  0  0  0  0  0
   40.1730   25.0400   42.3090 N   0  0  0  0  0  0  0  0  0  0  0  0
   41.1100   25.5830   43.1260 C   0  0  0  0  0  0  0  0  0  0  0  0
   40.8430   26.7030   43.8100 N   0  0  0  0  0  0  0  0  0  0  0  0
   39.4590   28.2130   44.2640 H   0  0  0  0  0  0  0  0  0  0  0  0
   42.0610   25.0640   43.1870 H   0  0  0  0  0  0  0  0  0  0  0  0
   38.0150   25.0480   41.3210 C   0  0  0  0  0  0  0  0  0  0  0  0
   36.8540   24.3350   41.5230 C   0  0  0  0  0  0  0  0  0  0  0  0
   36.1270   23.8840   40.5080 C   0  0  0  0  0  0  0  0  0  0  0  0
   36.5710   24.1520   39.2530 C   0  0  0  0  0  0  0  0  0  0  0  0
   38.1160   25.1030   39.5610 S   0  0  0  0  0  0  0  0  0  0  0  0
   36.5880   24.1760   42.5890 H   0  0  0  0  0  0  0  0  0  0  0  0
   35.2110   23.3210   40.5920 H   0  0  0  0  0  0  0  0  0  0  0  0
   36.1710   23.9020   38.2630 H   0  0  0  0  0  0  0  0  0  0  0  0
   37.0510   28.3010   41.5750 C   0  0  0  0  0  0  0  0  0  0  0  0
   37.6050   29.5440   41.2940 C   0  0  0  0  0  0  0  0  0  0  0  0
   37.0360   29.9350   40.1410 N   0  0  0  0  0  0  0  0  0  0  0  0
   36.1600   28.9560   39.7350 C   0  0  0  0  0  0  0  0  0  0  0  0
   36.1740   27.9440   40.6300 N   0  0  0  0  0  0  0  0  0  0  0  0
   38.3450   30.0800   41.8870 H   0  0  0  0  0  0  0  0  0  0  0  0
   37.2100   30.8120   39.6300 H   0  0  0  0  0  0  0  0  0  0  0  0
   37.6020   28.8310   37.1660 Cl  0  0  0  0  0  0  0  0  0  0  0  0
   35.8540   28.9120   37.2670 C   0  0  0  0  0  0  0  0  0  0  0  0
   35.3210   28.9660   38.5270 C   0  0  0  0  0  0  0  0  0  0  0  0
   33.9350   29.0320   38.7010 C   0  0  0  0  0  0  0  0  0  0  0  0
   33.4550   29.0770   39.6630 H   0  0  0  0  0  0  0  0  0  0  0  0
   33.1560   29.0400   37.5470 C   0  0  0  0  0  3  0  0  0  0  0  0
   33.7170   28.9850   36.2880 C   0  0  0  0  0  0  0  0  0  0  0  0
   32.7680   28.9930   34.8120 Cl  0  0  0  0  0  0  0  0  0  0  0  0
   35.0880   28.9200   36.1190 C   0  0  0  0  0  0  0  0  0  0  0  0
   35.6060   28.8740   35.1710 H   0  0  0  0  0  0  0  0  0  0  0  0
  1  4  1  0  0  0  0
  1  2  2  0  0  0  0
  3  8  1  0  0  0  0
  3  9  1  0  0  0  0
  4  3  2  0  0  0  0
  5  6  2  0  0  0  0
  5  4  1  0  0  0  0
  6  7  1  0  0  0  0
  7 10  1  0  0  0  0
  7  8  2  0  0  0  0
 11 12  2  0  0  0  0
 11  5  1  0  0  0  0
 12 16  1  0  0  0  0
 13 17  1  0  0  0  0
 13 12  1  0  0  0  0
 14 15  1  0  0  0  0
 14 13  2  0  0  0  0
 15 11  1  0  0  0  0
 18 14  1  0  0  0  0
 19  1  1  0  0  0  0
 20 19  2  0  0  0  0
 20 24  1  0  0  0  0
 21 20  1  0  0  0  0
 22 21  1  0  0  0  0
 22 23  2  0  0  0  0
 23 19  1  0  0  0  0
 25 21  1  0  0  0  0
 26 27  1  0  0  0  0
 27 28  1  0  0  0  0
 28 29  2  0  0  0  0
 28 22  1  0  0  0  0
 29 30  1  0  0  0  0
 31 29  1  0  0  0  0
 32 31  2  0  0  0  0
 33 32  1  0  0  0  0
 34 32  1  0  0  0  0
 34 27  2  0  0  0  0
 35 34  1  0  0  0  0
M  END
>  <minimizedAffinity>
-5.63763475

$$$$

 OpenBabel03252503143D

 35 38  0  0  0  0  0  0  0  0999 V2000
   35.9530   29.2310   39.7030 C   0  0  0  0  0  0  0  0  0  0  0  0
   34.9840   29.5750   40.4420 O   0  0  0  0  0  0  0  0  0  0  0  0
   35.4780   27.3800   38.1650 C   0  0  0  0  0  0  0  0  0  0  0  0
   36.0180   27.8510   39.3820 C   0  0  0  0  0  0  0  0  0  0  0  0
   36.5880   26.8790   40.1780 C   0  0  0  0  0  0  0  0  0  0  0  0
   36.6270   25.5700   39.8180 N   0  0  0  0  0  0  0  0  0  0  0  0
   36.0910   25.1750   38.6360 C   0  0  0  0  0  0  0  0  0  0  0  0
   35.5230   26.0710   37.8180 N   0  0  0  0  0  0  0  0  0  0  0  0
   35.0070   28.0740   37.4710 H   0  0  0  0  0  0  0  0  0  0  0  0
   36.1530   24.1160   38.4040 H   0  0  0  0  0  0  0  0  0  0  0  0
   37.1450   27.2520   41.4110 C   0  0  0  0  0  0  0  0  0  0  0  0
   36.6260   27.4440   42.6720 C   0  0  0  0  0  0  0  0  0  0  0  0
   37.3930   27.8060   43.6930 C   0  0  0  0  0  0  0  0  0  0  0  0
   38.7170   27.9810   43.4510 C   0  0  0  0  0  0  0  0  0  0  0  0
   38.8560   27.6030   41.6540 S   0  0  0  0  0  0  0  0  0  0  0  0
   35.5320   27.2740   42.7530 H   0  0  0  0  0  0  0  0  0  0  0  0
   37.0560   27.9740   44.7040 H   0  0  0  0  0  0  0  0  0  0  0  0
   39.5520   28.2700   44.1000 H   0  0  0  0  0  0  0  0  0  0  0  0
   36.9900   30.1760   39.1730 C   0  0  0  0  0  0  0  0  0  0  0  0
   37.0680   30.6540   37.8700 C   0  0  0  0  0  0  0  0  0  0  0  0
   38.1420   31.4620   37.8510 N   0  0  0  0  0  0  0  0  0  0  0  0
   38.6990   31.4730   39.1080 C   0  0  0  0  0  0  0  0  0  0  0  0
   37.9790   30.6730   39.9240 N   0  0  0  0  0  0  0  0  0  0  0  0
   36.3970   30.4180   37.0450 H   0  0  0  0  0  0  0  0  0  0  0  0
   38.5040   31.9930   37.0470 H   0  0  0  0  0  0  0  0  0  0  0  0
   38.2140   34.2250   40.0510 Cl  0  0  0  0  0  0  0  0  0  0  0  0
   39.8140   33.5090   40.0030 C   0  0  0  0  0  0  0  0  0  0  0  0
   39.8880   32.2220   39.5410 C   0  0  0  0  0  0  0  0  0  0  0  0
   41.1250   31.5730   39.4690 C   0  0  0  0  0  0  0  0  0  0  0  0
   41.2500   30.5650   39.1160 H   0  0  0  0  0  0  0  0  0  0  0  0
   42.2400   32.2970   39.8840 C   0  0  0  0  0  3  0  0  0  0  0  0
   42.1380   33.5930   40.3450 C   0  0  0  0  0  0  0  0  0  0  0  0
   43.5200   34.5350   40.8750 Cl  0  0  0  0  0  0  0  0  0  0  0  0
   40.9140   34.2320   40.4150 C   0  0  0  0  0  0  0  0  0  0  0  0
   40.7480   35.2430   40.7640 H   0  0  0  0  0  0  0  0  0  0  0  0
  1  2  2  0  0  0  0
  3  4  1  0  0  0  0
  4  1  1  0  0  0  0
  4  5  2  0  0  0  0
  5 11  1  0  0  0  0
  6  5  1  0  0  0  0
  7  6  2  0  0  0  0
  8  3  2  0  0  0  0
  8  7  1  0  0  0  0
  9  3  1  0  0  0  0
 10  7  1  0  0  0  0
 11 15  1  0  0  0  0
 11 12  2  0  0  0  0
 12 16  1  0  0  0  0
 12 13  1  0  0  0  0
 13 17  1  0  0  0  0
 14 13  2  0  0  0  0
 14 18  1  0  0  0  0
 15 14  1  0  0  0  0
 19  1  1  0  0  0  0
 19 23  1  0  0  0  0
 20 19  2  0  0  0  0
 21 20  1  0  0  0  0
 21 22  1  0  0  0  0
 22 28  1  0  0  0  0
 22 23  2  0  0  0  0
 24 20  1  0  0  0  0
 25 21  1  0  0  0  0
 27 26  1  0  0  0  0
 27 34  1  0  0  0  0
 28 27  2  0  0  0  0
 29 28  1  0  0  0  0
 29 31  2  0  0  0  0
 30 29  1  0  0  0  0
 31 32  1  0  0  0  0
 32 34  2  0  0  0  0
 32 33  1  0  0  0  0
 34 35  1  0  0  0  0
M  END
>  <minimizedAffinity>
-5.61284161

$$$$
