
 OpenBabel03242523533D

 44 47  0  0  1  0  0  0  0  0999 V2000
   39.3780   30.7460   40.3260 C   0  0  1  0  0  0  0  0  0  0  0  0
   40.2670   30.7560   41.5690 C   0  0  1  0  0  0  0  0  0  0  0  0
   40.6460   32.0840   41.8460 O   0  0  0  0  0  0  0  0  0  0  0  0
   40.8360   32.8480   40.6910 C   0  0  0  0  0  0  0  0  0  0  0  0
   39.5110   33.1200   40.0040 C   0  0  2  0  0  0  0  0  0  0  0  0
   38.5340   32.0060   40.4340 C   0  0  1  0  0  0  0  0  0  0  0  0
   38.6900   29.8720   40.3240 H   0  0  0  0  0  0  0  0  0  0  0  0
   41.1330   30.1090   41.4280 H   0  0  0  0  0  0  0  0  0  0  0  0
   41.2530   33.8070   41.0550 H   0  0  0  0  0  0  0  0  0  0  0  0
   41.5980   32.4120   40.0360 H   0  0  0  0  0  0  0  0  0  0  0  0
   39.1000   34.1180   40.2390 H   0  0  0  0  0  0  0  0  0  0  0  0
   38.2670   32.1660   41.4820 H   0  0  0  0  0  0  0  0  0  0  0  0
   40.1540   30.7920   39.1690 O   0  0  0  0  0  0  0  0  0  0  0  0
   40.4760   29.8720   39.0050 H   0  0  0  0  0  0  0  0  0  0  0  0
   39.6840   32.9140   38.6300 O   0  0  0  0  0  0  0  0  0  0  0  0
   38.8110   33.0100   38.1620 H   0  0  0  0  0  0  0  0  0  0  0  0
   39.4360   30.4020   42.6410 O   0  0  0  0  0  0  0  0  0  0  0  0
   38.9440   29.1790   42.8660 C   0  0  0  0  0  0  0  0  0  0  0  0
   39.7870   28.1090   43.1520 C   0  0  0  0  0  0  0  0  0  0  0  0
   39.2230   26.8630   43.3800 C   0  0  0  0  0  0  0  0  0  0  0  0
   37.8440   26.7100   43.3160 N   0  0  0  0  0  0  0  0  0  0  0  0
   37.0690   27.7680   43.0360 C   0  0  0  0  0  0  0  0  0  0  0  0
   37.6020   28.9960   42.8100 N   0  0  0  0  0  0  0  0  0  0  0  0
   40.8640   28.2020   43.2080 H   0  0  0  0  0  0  0  0  0  0  0  0
   35.9910   27.6930   42.9760 H   0  0  0  0  0  0  0  0  0  0  0  0
   40.0920   25.6690   43.6790 C   0  0  0  0  0  0  0  0  0  0  0  0
   39.7260   24.3610   43.0160 C   0  0  0  0  0  0  0  0  0  0  0  0
   40.9900   25.1650   42.6760 C   0  0  0  0  0  0  0  0  0  0  0  0
   40.3610   25.6450   44.7510 H   0  0  0  0  0  0  0  0  0  0  0  0
   38.8750   24.3700   42.3290 H   0  0  0  0  0  0  0  0  0  0  0  0
   39.9120   23.4720   43.6530 H   0  0  0  0  0  0  0  0  0  0  0  0
   40.9300   25.5940   41.6330 H   0  0  0  0  0  0  0  0  0  0  0  0
   41.9420   24.6670   42.8490 H   0  0  0  0  0  0  0  0  0  0  0  0
   37.4130   31.9940   39.6280 O   0  0  0  0  0  0  0  0  0  0  0  0
   37.6700   31.4550   36.7850 Cl  0  0  0  0  0  0  0  0  0  0  0  0
   36.6520   30.6060   37.9590 C   0  0  0  0  0  0  0  0  0  0  0  0
   36.6040   30.9450   39.2960 C   0  0  0  0  0  0  0  0  0  0  0  0
   35.7850   30.2360   40.1490 C   0  0  0  0  0  0  0  0  0  0  0  0
   35.7790   30.5360   41.1860 H   0  0  0  0  0  0  0  0  0  0  0  0
   34.9960   29.1770   39.6970 C   0  0  0  0  0  3  0  0  0  0  0  0
   35.0960   28.8970   38.3450 C   0  0  0  0  0  0  0  0  0  0  0  0
   34.1220   27.5680   37.7220 Cl  0  0  0  0  0  0  0  0  0  0  0  0
   35.8960   29.5700   37.4460 C   0  0  0  0  0  0  0  0  0  0  0  0
   35.9290   29.2980   36.4010 H   0  0  0  0  0  0  0  0  0  0  0  0
  1  7  1  6  0  0  0
  1  6  1  0  0  0  0
  1  2  1  0  0  0  0
  2  8  1  6  0  0  0
  2  3  1  0  0  0  0
  2 17  1  0  0  0  0
  4  9  1  0  0  0  0
  4  3  1  0  0  0  0
  5 11  1  1  0  0  0
  5  6  1  0  0  0  0
  5  4  1  0  0  0  0
  6 12  1  1  0  0  0
 10  4  1  0  0  0  0
 13  1  1  0  0  0  0
 14 13  1  0  0  0  0
 15  5  1  0  0  0  0
 16 15  1  0  0  0  0
 17 18  1  0  0  0  0
 18 19  1  0  0  0  0
 19 24  1  0  0  0  0
 19 20  2  0  0  0  0
 20 26  1  0  0  0  0
 21 20  1  0  0  0  0
 22 21  2  0  0  0  0
 23 18  2  0  0  0  0
 23 22  1  0  0  0  0
 25 22  1  0  0  0  0
 26 29  1  0  0  0  0
 27 31  1  0  0  0  0
 27 26  1  0  0  0  0
 28 33  1  0  0  0  0
 28 27  1  0  0  0  0
 28 26  1  0  0  0  0
 30 27  1  0  0  0  0
 32 28  1  0  0  0  0
 34  6  1  0  0  0  0
 35 36  1  0  0  0  0
 36 37  1  0  0  0  0
 37 34  1  0  0  0  0
 37 38  2  0  0  0  0
 38 39  1  0  0  0  0
 40 38  1  0  0  0  0
 41 40  2  0  0  0  0
 42 41  1  0  0  0  0
 43 36  2  0  0  0  0
 43 41  1  0  0  0  0
 44 43  1  0  0  0  0
M  END
>  <minimizedAffinity>
-6.16357374

$$$$

 OpenBabel03242523533D

 44 47  0  0  1  0  0  0  0  0999 V2000
   37.2540   31.5410   39.9770 C   0  0  1  0  0  0  0  0  0  0  0  0
   37.5120   31.6870   38.4780 C   0  0  1  0  0  0  0  0  0  0  0  0
   38.8380   32.1200   38.2850 O   0  0  0  0  0  0  0  0  0  0  0  0
   39.2760   32.9920   39.2860 C   0  0  0  0  0  0  0  0  0  0  0  0
   39.4580   32.2550   40.5990 C   0  0  2  0  0  0  0  0  0  0  0  0
   38.5550   31.0060   40.5510 C   0  0  1  0  0  0  0  0  0  0  0  0
   36.4550   30.7950   40.1830 H   0  0  0  0  0  0  0  0  0  0  0  0
   36.7930   32.3720   38.0280 H   0  0  0  0  0  0  0  0  0  0  0  0
   40.2650   33.3470   38.9340 H   0  0  0  0  0  0  0  0  0  0  0  0
   38.6410   33.8820   39.3560 H   0  0  0  0  0  0  0  0  0  0  0  0
   40.5090   31.9760   40.7950 H   0  0  0  0  0  0  0  0  0  0  0  0
   38.9880   30.2920   39.8450 H   0  0  0  0  0  0  0  0  0  0  0  0
   36.9570   32.7790   40.5450 O   0  0  0  0  0  0  0  0  0  0  0  0
   36.0060   32.9620   40.3500 H   0  0  0  0  0  0  0  0  0  0  0  0
   38.9060   33.0410   41.6170 O   0  0  0  0  0  0  0  0  0  0  0  0
   38.9420   32.5470   42.4810 H   0  0  0  0  0  0  0  0  0  0  0  0
   37.4920   30.3870   37.9550 O   0  0  0  0  0  0  0  0  0  0  0  0
   36.6060   29.9240   37.0670 C   0  0  0  0  0  0  0  0  0  0  0  0
   35.3680   29.4360   37.4780 C   0  0  0  0  0  0  0  0  0  0  0  0
   34.4860   28.9700   36.5160 C   0  0  0  0  0  0  0  0  0  0  0  0
   34.8510   28.9990   35.1770 N   0  0  0  0  0  0  0  0  0  0  0  0
   36.0540   29.4760   34.8240 C   0  0  0  0  0  0  0  0  0  0  0  0
   36.9320   29.9360   35.7520 N   0  0  0  0  0  0  0  0  0  0  0  0
   35.0600   29.4040   38.5160 H   0  0  0  0  0  0  0  0  0  0  0  0
   36.3800   29.5160   33.7930 H   0  0  0  0  0  0  0  0  0  0  0  0
   33.1400   28.4180   36.9090 C   0  0  0  0  0  0  0  0  0  0  0  0
   31.9950   29.3970   37.0240 C   0  0  0  0  0  0  0  0  0  0  0  0
   32.0910   28.3200   35.9320 C   0  0  0  0  0  0  0  0  0  0  0  0
   33.2510   27.6600   37.7060 H   0  0  0  0  0  0  0  0  0  0  0  0
   32.2040   30.4410   36.7760 H   0  0  0  0  0  0  0  0  0  0  0  0
   31.2820   29.1540   37.8370 H   0  0  0  0  0  0  0  0  0  0  0  0
   32.2530   28.7860   34.9160 H   0  0  0  0  0  0  0  0  0  0  0  0
   31.2920   27.5810   35.9100 H   0  0  0  0  0  0  0  0  0  0  0  0
   38.4180   30.4470   41.8070 O   0  0  0  0  0  0  0  0  0  0  0  0
   36.2470   28.5210   41.6940 Cl  0  0  0  0  0  0  0  0  0  0  0  0
   37.9050   28.2500   42.2540 C   0  0  0  0  0  0  0  0  0  0  0  0
   38.8660   29.2410   42.2660 C   0  0  0  0  0  0  0  0  0  0  0  0
   40.1360   28.9520   42.7170 C   0  0  0  0  0  0  0  0  0  0  0  0
   40.8540   29.7580   42.7090 H   0  0  0  0  0  0  0  0  0  0  0  0
   40.4830   27.6770   43.1660 C   0  0  0  0  0  3  0  0  0  0  0  0
   39.4680   26.7370   43.1250 C   0  0  0  0  0  0  0  0  0  0  0  0
   39.8530   25.1100   43.6800 Cl  0  0  0  0  0  0  0  0  0  0  0  0
   38.1820   26.9670   42.6850 C   0  0  0  0  0  0  0  0  0  0  0  0
   37.4360   26.1860   42.6780 H   0  0  0  0  0  0  0  0  0  0  0  0
  1  7  1  1  0  0  0
  1 13  1  0  0  0  0
  1  6  1  0  0  0  0
  2  8  1  6  0  0  0
  2  1  1  0  0  0  0
  3  2  1  0  0  0  0
  3  4  1  0  0  0  0
  4 10  1  0  0  0  0
  4  5  1  0  0  0  0
  5 11  1  1  0  0  0
  5 15  1  0  0  0  0
  6 12  1  6  0  0  0
  6  5  1  0  0  0  0
  6 34  1  0  0  0  0
  9  4  1  0  0  0  0
 14 13  1  0  0  0  0
 15 16  1  0  0  0  0
 17  2  1  0  0  0  0
 18 19  1  0  0  0  0
 18 17  1  0  0  0  0
 19 24  1  0  0  0  0
 20 26  1  0  0  0  0
 20 19  2  0  0  0  0
 21 20  1  0  0  0  0
 22 21  2  0  0  0  0
 22 23  1  0  0  0  0
 23 18  2  0  0  0  0
 25 22  1  0  0  0  0
 26 27  1  0  0  0  0
 26 29  1  0  0  0  0
 27 31  1  0  0  0  0
 28 26  1  0  0  0  0
 28 27  1  0  0  0  0
 30 27  1  0  0  0  0
 32 28  1  0  0  0  0
 33 28  1  0  0  0  0
 34 37  1  0  0  0  0
 35 36  1  0  0  0  0
 36 37  2  0  0  0  0
 36 43  1  0  0  0  0
 37 38  1  0  0  0  0
 38 40  2  0  0  0  0
 39 38  1  0  0  0  0
 41 40  1  0  0  0  0
 41 42  1  0  0  0  0
 43 41  2  0  0  0  0
 44 43  1  0  0  0  0
M  END
>  <minimizedAffinity>
-6.15267372

$$$$

 OpenBabel03242523533D

 44 47  0  0  1  0  0  0  0  0999 V2000
   36.7470   30.1760   41.2980 C   0  0  1  0  0  0  0  0  0  0  0  0
   36.3930   28.9140   40.5120 C   0  0  1  0  0  0  0  0  0  0  0  0
   36.5830   29.1650   39.1390 O   0  0  0  0  0  0  0  0  0  0  0  0
   36.2640   30.4770   38.7780 C   0  0  0  0  0  0  0  0  0  0  0  0
   37.2850   31.4510   39.3370 C   0  0  2  0  0  0  0  0  0  0  0  0
   37.9340   30.7780   40.5640 C   0  0  1  0  0  0  0  0  0  0  0  0
   37.0710   29.9340   42.3340 H   0  0  0  0  0  0  0  0  0  0  0  0
   35.3720   28.5990   40.7290 H   0  0  0  0  0  0  0  0  0  0  0  0
   36.3300   30.4870   37.6720 H   0  0  0  0  0  0  0  0  0  0  0  0
   35.2260   30.7260   39.0230 H   0  0  0  0  0  0  0  0  0  0  0  0
   38.0500   31.7470   38.5980 H   0  0  0  0  0  0  0  0  0  0  0  0
   38.5820   29.9700   40.2130 H   0  0  0  0  0  0  0  0  0  0  0  0
   35.6800   31.0720   41.2900 O   0  0  0  0  0  0  0  0  0  0  0  0
   35.0430   30.7630   41.9790 H   0  0  0  0  0  0  0  0  0  0  0  0
   36.5930   32.5450   39.8710 O   0  0  0  0  0  0  0  0  0  0  0  0
   37.2330   33.1640   40.3150 H   0  0  0  0  0  0  0  0  0  0  0  0
   37.3800   27.9710   40.8310 O   0  0  0  0  0  0  0  0  0  0  0  0
   37.1830   26.6540   40.9440 C   0  0  0  0  0  0  0  0  0  0  0  0
   36.6920   25.9080   39.8750 C   0  0  0  0  0  0  0  0  0  0  0  0
   36.5090   24.5450   40.0460 C   0  0  0  0  0  0  0  0  0  0  0  0
   36.8130   23.9580   41.2670 N   0  0  0  0  0  0  0  0  0  0  0  0
   37.2820   24.7130   42.2710 C   0  0  0  0  0  0  0  0  0  0  0  0
   37.4690   26.0490   42.1230 N   0  0  0  0  0  0  0  0  0  0  0  0
   36.4480   26.3420   38.9140 H   0  0  0  0  0  0  0  0  0  0  0  0
   37.5310   24.2970   43.2390 H   0  0  0  0  0  0  0  0  0  0  0  0
   35.9660   23.6960   38.9260 C   0  0  0  0  0  0  0  0  0  0  0  0
   34.6010   23.0780   39.1220 C   0  0  0  0  0  0  0  0  0  0  0  0
   34.8960   24.1900   38.1030 C   0  0  0  0  0  0  0  0  0  0  0  0
   36.7640   23.0580   38.5030 H   0  0  0  0  0  0  0  0  0  0  0  0
   34.0740   23.3170   40.0490 H   0  0  0  0  0  0  0  0  0  0  0  0
   34.5010   22.0690   38.6730 H   0  0  0  0  0  0  0  0  0  0  0  0
   34.3890   25.1550   38.3990 H   0  0  0  0  0  0  0  0  0  0  0  0
   34.7170   23.9490   37.0570 H   0  0  0  0  0  0  0  0  0  0  0  0
   38.6420   31.6960   41.3140 O   0  0  0  0  0  0  0  0  0  0  0  0
   40.0960   33.6050   39.6760 Cl  0  0  0  0  0  0  0  0  0  0  0  0
   40.7430   32.5590   40.9500 C   0  0  0  0  0  0  0  0  0  0  0  0
   39.9600   31.6820   41.6730 C   0  0  0  0  0  0  0  0  0  0  0  0
   40.5380   30.9000   42.6490 C   0  0  0  0  0  0  0  0  0  0  0  0
   39.8870   30.2280   43.1890 H   0  0  0  0  0  0  0  0  0  0  0  0
   41.9030   30.9690   42.9320 C   0  0  0  0  0  3  0  0  0  0  0  0
   42.6230   31.8700   42.1660 C   0  0  0  0  0  0  0  0  0  0  0  0
   44.3510   31.9970   42.4830 Cl  0  0  0  0  0  0  0  0  0  0  0  0
   42.1000   32.6770   41.1780 C   0  0  0  0  0  0  0  0  0  0  0  0
   42.7200   33.3610   40.6180 H   0  0  0  0  0  0  0  0  0  0  0  0
  1  7  1  1  0  0  0
  2  8  1  1  0  0  0
  2 17  1  0  0  0  0
  2  1  1  0  0  0  0
  3  2  1  0  0  0  0
  4 10  1  0  0  0  0
  4  3  1  0  0  0  0
  4  5  1  0  0  0  0
  5 11  1  6  0  0  0
  5 15  1  0  0  0  0
  5  6  1  0  0  0  0
  6 12  1  6  0  0  0
  6  1  1  0  0  0  0
  6 34  1  0  0  0  0
  9  4  1  0  0  0  0
 13  1  1  0  0  0  0
 13 14  1  0  0  0  0
 15 16  1  0  0  0  0
 17 18  1  0  0  0  0
 18 23  1  0  0  0  0
 19 20  1  0  0  0  0
 19 18  2  0  0  0  0
 20 21  2  0  0  0  0
 21 22  1  0  0  0  0
 22 25  1  0  0  0  0
 23 22  2  0  0  0  0
 24 19  1  0  0  0  0
 26 27  1  0  0  0  0
 26 20  1  0  0  0  0
 27 30  1  0  0  0  0
 28 32  1  0  0  0  0
 28 26  1  0  0  0  0
 28 27  1  0  0  0  0
 29 26  1  0  0  0  0
 31 27  1  0  0  0  0
 33 28  1  0  0  0  0
 34 37  1  0  0  0  0
 35 36  1  0  0  0  0
 36 43  2  0  0  0  0
 36 37  1  0  0  0  0
 37 38  2  0  0  0  0
 38 40  1  0  0  0  0
 38 39  1  0  0  0  0
 41 42  1  0  0  0  0
 41 40  2  0  0  0  0
 43 41  1  0  0  0  0
 44 43  1  0  0  0  0
M  END
>  <minimizedAffinity>
-6.13990068

$$$$

 OpenBabel03242523533D

 44 47  0  0  1  0  0  0  0  0999 V2000
   38.7070   31.8630   38.8920 C   0  0  1  0  0  0  0  0  0  0  0  0
   40.1350   32.2390   38.4970 C   0  0  1  0  0  0  0  0  0  0  0  0
   40.6080   33.2240   39.3860 O   0  0  0  0  0  0  0  0  0  0  0  0
   39.6070   34.1080   39.8000 C   0  0  0  0  0  0  0  0  0  0  0  0
   38.6240   33.4120   40.7220 C   0  0  2  0  0  0  0  0  0  0  0  0
   38.6940   31.9030   40.4110 C   0  0  1  0  0  0  0  0  0  0  0  0
   38.4550   30.8270   38.5730 H   0  0  0  0  0  0  0  0  0  0  0  0
   40.1720   32.5770   37.4610 H   0  0  0  0  0  0  0  0  0  0  0  0
   40.1440   34.8890   40.3730 H   0  0  0  0  0  0  0  0  0  0  0  0
   39.1400   34.6200   38.9510 H   0  0  0  0  0  0  0  0  0  0  0  0
   38.8240   33.6040   41.7910 H   0  0  0  0  0  0  0  0  0  0  0  0
   39.6460   31.5160   40.7840 H   0  0  0  0  0  0  0  0  0  0  0  0
   37.7990   32.7910   38.3840 O   0  0  0  0  0  0  0  0  0  0  0  0
   37.6500   32.5560   37.4360 H   0  0  0  0  0  0  0  0  0  0  0  0
   37.3310   33.7830   40.3370 O   0  0  0  0  0  0  0  0  0  0  0  0
   36.6610   33.2800   40.8760 H   0  0  0  0  0  0  0  0  0  0  0  0
   40.9220   31.1130   38.7760 O   0  0  0  0  0  0  0  0  0  0  0  0
   41.5130   30.3370   37.8620 C   0  0  0  0  0  0  0  0  0  0  0  0
   42.6000   30.7990   37.1250 C   0  0  0  0  0  0  0  0  0  0  0  0
   43.1760   29.9510   36.1920 C   0  0  0  0  0  0  0  0  0  0  0  0
   42.6620   28.6740   36.0120 N   0  0  0  0  0  0  0  0  0  0  0  0
   41.6130   28.2700   36.7430 C   0  0  0  0  0  0  0  0  0  0  0  0
   41.0350   29.0850   37.6620 N   0  0  0  0  0  0  0  0  0  0  0  0
   43.0190   31.7900   37.2470 H   0  0  0  0  0  0  0  0  0  0  0  0
   41.1800   27.2840   36.6350 H   0  0  0  0  0  0  0  0  0  0  0  0
   44.3450   30.4070   35.3570 C   0  0  0  0  0  0  0  0  0  0  0  0
   45.3870   31.2690   36.0340 C   0  0  0  0  0  0  0  0  0  0  0  0
   45.6450   29.8290   35.5650 C   0  0  0  0  0  0  0  0  0  0  0  0
   44.0070   30.7060   34.3480 H   0  0  0  0  0  0  0  0  0  0  0  0
   45.2470   31.4770   37.0980 H   0  0  0  0  0  0  0  0  0  0  0  0
   45.8200   32.0450   35.3710 H   0  0  0  0  0  0  0  0  0  0  0  0
   45.7940   29.1360   36.4450 H   0  0  0  0  0  0  0  0  0  0  0  0
   46.4230   29.6960   34.8150 H   0  0  0  0  0  0  0  0  0  0  0  0
   37.6270   31.2320   40.9740 O   0  0  0  0  0  0  0  0  0  0  0  0
   35.8290   29.7470   39.2420 Cl  0  0  0  0  0  0  0  0  0  0  0  0
   36.7200   29.1430   40.6480 C   0  0  0  0  0  0  0  0  0  0  0  0
   37.5540   29.9390   41.4070 C   0  0  0  0  0  0  0  0  0  0  0  0
   38.2140   29.3950   42.4890 C   0  0  0  0  0  0  0  0  0  0  0  0
   38.8550   30.0550   43.0540 H   0  0  0  0  0  0  0  0  0  0  0  0
   38.0640   28.0530   42.8410 C   0  0  0  0  0  3  0  0  0  0  0  0
   37.2120   27.3190   42.0340 C   0  0  0  0  0  0  0  0  0  0  0  0
   36.9870   25.6190   42.4350 Cl  0  0  0  0  0  0  0  0  0  0  0  0
   36.5260   27.8080   40.9420 C   0  0  0  0  0  0  0  0  0  0  0  0
   35.8760   27.1780   40.3520 H   0  0  0  0  0  0  0  0  0  0  0  0
  1  7  1  6  0  0  0
  1  6  1  0  0  0  0
  2  8  1  6  0  0  0
  2 17  1  0  0  0  0
  2  1  1  0  0  0  0
  2  3  1  0  0  0  0
  3  4  1  0  0  0  0
  4  9  1  0  0  0  0
  4  5  1  0  0  0  0
  5 11  1  1  0  0  0
  6  5  1  0  0  0  0
  6 12  1  1  0  0  0
  6 34  1  0  0  0  0
 10  4  1  0  0  0  0
 13  1  1  0  0  0  0
 14 13  1  0  0  0  0
 15  5  1  0  0  0  0
 15 16  1  0  0  0  0
 18 17  1  0  0  0  0
 19 24  1  0  0  0  0
 19 18  2  0  0  0  0
 20 19  1  0  0  0  0
 21 20  2  0  0  0  0
 21 22  1  0  0  0  0
 22 23  2  0  0  0  0
 23 18  1  0  0  0  0
 25 22  1  0  0  0  0
 26 28  1  0  0  0  0
 26 27  1  0  0  0  0
 26 20  1  0  0  0  0
 27 30  1  0  0  0  0
 28 27  1  0  0  0  0
 28 32  1  0  0  0  0
 29 26  1  0  0  0  0
 31 27  1  0  0  0  0
 33 28  1  0  0  0  0
 34 37  1  0  0  0  0
 35 36  1  0  0  0  0
 36 43  2  0  0  0  0
 36 37  1  0  0  0  0
 37 38  2  0  0  0  0
 38 40  1  0  0  0  0
 38 39  1  0  0  0  0
 41 42  1  0  0  0  0
 41 40  2  0  0  0  0
 43 41  1  0  0  0  0
 44 43  1  0  0  0  0
M  END
>  <minimizedAffinity>
-6.03633881

$$$$

 OpenBabel03242523533D

 44 47  0  0  1  0  0  0  0  0999 V2000
   37.8630   32.1480   40.5880 C   0  0  1  0  0  0  0  0  0  0  0  0
   37.1630   30.8600   41.0210 C   0  0  1  0  0  0  0  0  0  0  0  0
   36.8950   30.0820   39.8780 O   0  0  0  0  0  0  0  0  0  0  0  0
   36.5800   30.8540   38.7560 C   0  0  0  0  0  0  0  0  0  0  0  0
   37.8050   31.5950   38.2540 C   0  0  2  0  0  0  0  0  0  0  0  0
   38.7750   31.7350   39.4450 C   0  0  1  0  0  0  0  0  0  0  0  0
   38.4970   32.5600   41.4030 H   0  0  0  0  0  0  0  0  0  0  0  0
   36.2530   31.0850   41.5800 H   0  0  0  0  0  0  0  0  0  0  0  0
   36.2680   30.1190   37.9890 H   0  0  0  0  0  0  0  0  0  0  0  0
   35.7100   31.4960   38.9350 H   0  0  0  0  0  0  0  0  0  0  0  0
   38.2960   31.0920   37.4020 H   0  0  0  0  0  0  0  0  0  0  0  0
   39.1980   30.7510   39.6650 H   0  0  0  0  0  0  0  0  0  0  0  0
   36.9320   33.0830   40.1400 O   0  0  0  0  0  0  0  0  0  0  0  0
   36.5440   33.5070   40.9440 H   0  0  0  0  0  0  0  0  0  0  0  0
   37.4260   32.9110   37.9620 O   0  0  0  0  0  0  0  0  0  0  0  0
   38.2270   33.4430   37.7040 H   0  0  0  0  0  0  0  0  0  0  0  0
   38.1190   30.1190   41.7280 O   0  0  0  0  0  0  0  0  0  0  0  0
   37.9830   28.8450   42.1110 C   0  0  0  0  0  0  0  0  0  0  0  0
   39.0140   27.9280   41.9270 C   0  0  0  0  0  0  0  0  0  0  0  0
   38.8200   26.6200   42.3440 C   0  0  0  0  0  0  0  0  0  0  0  0
   37.6140   26.2560   42.9290 N   0  0  0  0  0  0  0  0  0  0  0  0
   36.6470   27.1710   43.0860 C   0  0  0  0  0  0  0  0  0  0  0  0
   36.8180   28.4570   42.6840 N   0  0  0  0  0  0  0  0  0  0  0  0
   39.9630   28.1870   41.4750 H   0  0  0  0  0  0  0  0  0  0  0  0
   35.6920   26.9310   43.5350 H   0  0  0  0  0  0  0  0  0  0  0  0
   39.8980   25.5850   42.1550 C   0  0  0  0  0  0  0  0  0  0  0  0
   40.9590   25.4830   43.2270 C   0  0  0  0  0  0  0  0  0  0  0  0
   39.9040   24.3970   42.9650 C   0  0  0  0  0  0  0  0  0  0  0  0
   40.2280   25.5580   41.1000 H   0  0  0  0  0  0  0  0  0  0  0  0
   40.8570   26.1410   44.0940 H   0  0  0  0  0  0  0  0  0  0  0  0
   41.9660   25.2390   42.8330 H   0  0  0  0  0  0  0  0  0  0  0  0
   39.1740   24.3250   43.8230 H   0  0  0  0  0  0  0  0  0  0  0  0
   40.2790   23.4170   42.6760 H   0  0  0  0  0  0  0  0  0  0  0  0
   39.7670   32.6550   39.1680 O   0  0  0  0  0  0  0  0  0  0  0  0
   41.7090   32.6830   41.3290 Cl  0  0  0  0  0  0  0  0  0  0  0  0
   42.0160   32.4420   39.6010 C   0  0  0  0  0  0  0  0  0  0  0  0
   41.0140   32.4470   38.6520 C   0  0  0  0  0  0  0  0  0  0  0  0
   41.3340   32.2520   37.3250 C   0  0  0  0  0  0  0  0  0  0  0  0
   40.5180   32.2650   36.6180 H   0  0  0  0  0  0  0  0  0  0  0  0
   42.6500   32.0480   36.9090 C   0  0  0  0  0  3  0  0  0  0  0  0
   43.5990   32.0580   37.9170 C   0  0  0  0  0  0  0  0  0  0  0  0
   45.2780   31.8040   37.4470 Cl  0  0  0  0  0  0  0  0  0  0  0  0
   43.3400   32.2470   39.2580 C   0  0  0  0  0  0  0  0  0  0  0  0
   44.1290   32.2410   39.9950 H   0  0  0  0  0  0  0  0  0  0  0  0
  1  2  1  0  0  0  0
  1  7  1  1  0  0  0
  2  8  1  1  0  0  0
  2 17  1  0  0  0  0
  3  2  1  0  0  0  0
  4 10  1  0  0  0  0
  4  3  1  0  0  0  0
  5 11  1  6  0  0  0
  5  4  1  0  0  0  0
  5  6  1  0  0  0  0
  6 12  1  1  0  0  0
  6  1  1  0  0  0  0
  9  4  1  0  0  0  0
 13  1  1  0  0  0  0
 13 14  1  0  0  0  0
 15  5  1  0  0  0  0
 16 15  1  0  0  0  0
 17 18  1  0  0  0  0
 18 23  1  0  0  0  0
 19 18  2  0  0  0  0
 19 20  1  0  0  0  0
 20 21  2  0  0  0  0
 21 22  1  0  0  0  0
 22 25  1  0  0  0  0
 23 22  2  0  0  0  0
 24 19  1  0  0  0  0
 26 20  1  0  0  0  0
 26 28  1  0  0  0  0
 26 27  1  0  0  0  0
 27 30  1  0  0  0  0
 28 27  1  0  0  0  0
 28 32  1  0  0  0  0
 29 26  1  0  0  0  0
 31 27  1  0  0  0  0
 33 28  1  0  0  0  0
 34  6  1  0  0  0  0
 36 35  1  0  0  0  0
 37 34  1  0  0  0  0
 37 36  2  0  0  0  0
 38 37  1  0  0  0  0
 39 38  1  0  0  0  0
 40 38  2  0  0  0  0
 40 41  1  0  0  0  0
 41 43  2  0  0  0  0
 42 41  1  0  0  0  0
 43 36  1  0  0  0  0
 43 44  1  0  0  0  0
M  END
>  <minimizedAffinity>
-5.96293879

$$$$

 OpenBabel03242523533D

 44 47  0  0  1  0  0  0  0  0999 V2000
   37.7990   31.8500   39.7550 C   0  0  1  0  0  0  0  0  0  0  0  0
   38.3900   32.1150   38.3700 C   0  0  1  0  0  0  0  0  0  0  0  0
   39.6580   32.7090   38.5230 O   0  0  0  0  0  0  0  0  0  0  0  0
   39.7290   33.5640   39.6270 C   0  0  0  0  0  0  0  0  0  0  0  0
   39.6820   32.7740   40.9210 C   0  0  2  0  0  0  0  0  0  0  0  0
   38.9820   31.4340   40.6150 C   0  0  1  0  0  0  0  0  0  0  0  0
   37.0760   31.0060   39.7350 H   0  0  0  0  0  0  0  0  0  0  0  0
   37.7190   32.7400   37.7790 H   0  0  0  0  0  0  0  0  0  0  0  0
   40.7200   34.0510   39.5400 H   0  0  0  0  0  0  0  0  0  0  0  0
   38.9870   34.3690   39.5660 H   0  0  0  0  0  0  0  0  0  0  0  0
   40.6810   32.6070   41.3610 H   0  0  0  0  0  0  0  0  0  0  0  0
   39.6590   30.8200   40.0150 H   0  0  0  0  0  0  0  0  0  0  0  0
   37.2220   33.0090   40.2700 O   0  0  0  0  0  0  0  0  0  0  0  0
   36.3300   33.0930   39.8530 H   0  0  0  0  0  0  0  0  0  0  0  0
   38.8060   33.4280   41.7960 O   0  0  0  0  0  0  0  0  0  0  0  0
   38.6960   32.8900   42.6270 H   0  0  0  0  0  0  0  0  0  0  0  0
   38.6610   30.8560   37.8190 O   0  0  0  0  0  0  0  0  0  0  0  0
   37.8150   29.8210   37.8020 C   0  0  0  0  0  0  0  0  0  0  0  0
   36.5630   29.9290   37.2010 C   0  0  0  0  0  0  0  0  0  0  0  0
   35.7260   28.8240   37.2100 C   0  0  0  0  0  0  0  0  0  0  0  0
   36.1480   27.6460   37.8120 N   0  0  0  0  0  0  0  0  0  0  0  0
   37.3610   27.5860   38.3800 C   0  0  0  0  0  0  0  0  0  0  0  0
   38.1950   28.6570   38.3810 N   0  0  0  0  0  0  0  0  0  0  0  0
   36.2110   30.8360   36.7250 H   0  0  0  0  0  0  0  0  0  0  0  0
   37.7300   26.6890   38.8600 H   0  0  0  0  0  0  0  0  0  0  0  0
   34.3550   28.8930   36.5880 C   0  0  0  0  0  0  0  0  0  0  0  0
   33.4800   27.6660   36.6990 C   0  0  0  0  0  0  0  0  0  0  0  0
   33.1900   28.9890   37.4250 C   0  0  0  0  0  0  0  0  0  0  0  0
   34.4000   29.4060   35.6100 H   0  0  0  0  0  0  0  0  0  0  0  0
   33.8810   26.8160   37.2580 H   0  0  0  0  0  0  0  0  0  0  0  0
   32.8450   27.4900   35.8070 H   0  0  0  0  0  0  0  0  0  0  0  0
   33.3170   28.8750   38.5410 H   0  0  0  0  0  0  0  0  0  0  0  0
   32.2520   29.4820   37.1770 H   0  0  0  0  0  0  0  0  0  0  0  0
   38.6200   30.7890   41.7800 O   0  0  0  0  0  0  0  0  0  0  0  0
   40.7310   28.9910   42.6470 Cl  0  0  0  0  0  0  0  0  0  0  0  0
   39.0280   28.6000   42.3580 C   0  0  0  0  0  0  0  0  0  0  0  0
   38.1020   29.5360   41.9450 C   0  0  0  0  0  0  0  0  0  0  0  0
   36.7930   29.1530   41.7410 C   0  0  0  0  0  0  0  0  0  0  0  0
   36.1030   29.9190   41.4170 H   0  0  0  0  0  0  0  0  0  0  0  0
   36.3730   27.8370   41.9410 C   0  0  0  0  0  3  0  0  0  0  0  0
   37.3580   26.9560   42.3530 C   0  0  0  0  0  0  0  0  0  0  0  0
   36.8820   25.2820   42.6210 Cl  0  0  0  0  0  0  0  0  0  0  0  0
   38.6800   27.2810   42.5740 C   0  0  0  0  0  0  0  0  0  0  0  0
   39.3990   26.5430   42.8980 H   0  0  0  0  0  0  0  0  0  0  0  0
  1  7  1  6  0  0  0
  1 13  1  0  0  0  0
  1  6  1  0  0  0  0
  2  8  1  6  0  0  0
  2  3  1  0  0  0  0
  2  1  1  0  0  0  0
  3  4  1  0  0  0  0
  4  5  1  0  0  0  0
  5 11  1  1  0  0  0
  5 15  1  0  0  0  0
  6 12  1  6  0  0  0
  6  5  1  0  0  0  0
  6 34  1  0  0  0  0
  9  4  1  0  0  0  0
 10  4  1  0  0  0  0
 14 13  1  0  0  0  0
 15 16  1  0  0  0  0
 17  2  1  0  0  0  0
 18 17  1  0  0  0  0
 18 23  1  0  0  0  0
 19 20  1  0  0  0  0
 19 18  2  0  0  0  0
 20 21  2  0  0  0  0
 21 22  1  0  0  0  0
 22 23  2  0  0  0  0
 22 25  1  0  0  0  0
 24 19  1  0  0  0  0
 26 27  1  0  0  0  0
 26 20  1  0  0  0  0
 26 28  1  0  0  0  0
 27 30  1  0  0  0  0
 27 28  1  0  0  0  0
 28 32  1  0  0  0  0
 29 26  1  0  0  0  0
 31 27  1  0  0  0  0
 33 28  1  0  0  0  0
 34 37  1  0  0  0  0
 36 43  1  0  0  0  0
 36 35  1  0  0  0  0
 37 36  2  0  0  0  0
 38 40  2  0  0  0  0
 38 37  1  0  0  0  0
 39 38  1  0  0  0  0
 40 41  1  0  0  0  0
 41 43  2  0  0  0  0
 41 42  1  0  0  0  0
 43 44  1  0  0  0  0
M  END
>  <minimizedAffinity>
-5.95360374

$$$$

 OpenBabel03242523533D

 44 47  0  0  1  0  0  0  0  0999 V2000
   41.0150   31.7350   39.7790 C   0  0  1  0  0  0  0  0  0  0  0  0
   42.0810   31.8060   40.8720 C   0  0  1  0  0  0  0  0  0  0  0  0
   42.5130   33.1400   41.0000 O   0  0  0  0  0  0  0  0  0  0  0  0
   42.5350   33.8240   39.7810 C   0  0  0  0  0  0  0  0  0  0  0  0
   41.1250   34.0810   39.2840 C   0  0  2  0  0  0  0  0  0  0  0  0
   40.2120   33.0180   39.9290 C   0  0  1  0  0  0  0  0  0  0  0  0
   40.3250   30.8770   39.9380 H   0  0  0  0  0  0  0  0  0  0  0  0
   42.9090   31.1320   40.6450 H   0  0  0  0  0  0  0  0  0  0  0  0
   43.0140   34.7950   40.0150 H   0  0  0  0  0  0  0  0  0  0  0  0
   43.1860   33.3310   39.0500 H   0  0  0  0  0  0  0  0  0  0  0  0
   40.7660   35.1000   39.5110 H   0  0  0  0  0  0  0  0  0  0  0  0
   40.1080   33.2490   40.9920 H   0  0  0  0  0  0  0  0  0  0  0  0
   41.6080   31.6900   38.5190 O   0  0  0  0  0  0  0  0  0  0  0  0
   41.8910   30.7550   38.3700 H   0  0  0  0  0  0  0  0  0  0  0  0
   41.0870   33.7830   37.9170 O   0  0  0  0  0  0  0  0  0  0  0  0
   40.1540   33.8690   37.5790 H   0  0  0  0  0  0  0  0  0  0  0  0
   41.4180   31.5380   42.0770 O   0  0  0  0  0  0  0  0  0  0  0  0
   40.9050   30.3560   42.4310 C   0  0  0  0  0  0  0  0  0  0  0  0
   39.5310   30.1880   42.5840 C   0  0  0  0  0  0  0  0  0  0  0  0
   39.0520   28.9390   42.9500 C   0  0  0  0  0  0  0  0  0  0  0  0
   39.9430   27.8940   43.1550 N   0  0  0  0  0  0  0  0  0  0  0  0
   41.2580   28.0990   42.9980 C   0  0  0  0  0  0  0  0  0  0  0  0
   41.7470   29.3140   42.6400 N   0  0  0  0  0  0  0  0  0  0  0  0
   38.8170   30.9860   42.4300 H   0  0  0  0  0  0  0  0  0  0  0  0
   41.9870   27.3140   43.1480 H   0  0  0  0  0  0  0  0  0  0  0  0
   37.5760   28.7090   43.1440 C   0  0  0  0  0  0  0  0  0  0  0  0
   36.8900   27.7600   42.1880 C   0  0  0  0  0  0  0  0  0  0  0  0
   37.1080   27.4590   43.6790 C   0  0  0  0  0  0  0  0  0  0  0  0
   37.0640   29.6590   43.3820 H   0  0  0  0  0  0  0  0  0  0  0  0
   37.5150   27.2690   41.4380 H   0  0  0  0  0  0  0  0  0  0  0  0
   35.8530   28.0580   41.9340 H   0  0  0  0  0  0  0  0  0  0  0  0
   37.8510   26.6200   43.8190 H   0  0  0  0  0  0  0  0  0  0  0  0
   36.2120   27.3050   44.2780 H   0  0  0  0  0  0  0  0  0  0  0  0
   38.9820   32.9780   39.3030 O   0  0  0  0  0  0  0  0  0  0  0  0
   38.4270   31.5580   36.8300 Cl  0  0  0  0  0  0  0  0  0  0  0  0
   37.5950   31.3890   38.3840 C   0  0  0  0  0  0  0  0  0  0  0  0
   37.9410   32.1170   39.5050 C   0  0  0  0  0  0  0  0  0  0  0  0
   37.2450   31.9290   40.6800 C   0  0  0  0  0  0  0  0  0  0  0  0
   37.5500   32.5200   41.5300 H   0  0  0  0  0  0  0  0  0  0  0  0
   36.1930   31.0170   40.7710 C   0  0  0  0  0  3  0  0  0  0  0  0
   35.9030   30.3250   39.6070 C   0  0  0  0  0  0  0  0  0  0  0  0
   34.5830   29.1610   39.6680 Cl  0  0  0  0  0  0  0  0  0  0  0  0
   36.5640   30.4710   38.4060 C   0  0  0  0  0  0  0  0  0  0  0  0
   36.2870   29.8970   37.5330 H   0  0  0  0  0  0  0  0  0  0  0  0
  1  6  1  0  0  0  0
  1  7  1  1  0  0  0
  1  2  1  0  0  0  0
  2  8  1  6  0  0  0
  2  3  1  0  0  0  0
  2 17  1  0  0  0  0
  4  9  1  0  0  0  0
  4  3  1  0  0  0  0
  5 11  1  1  0  0  0
  5  4  1  0  0  0  0
  5  6  1  0  0  0  0
  6 12  1  1  0  0  0
 10  4  1  0  0  0  0
 13  1  1  0  0  0  0
 14 13  1  0  0  0  0
 15  5  1  0  0  0  0
 16 15  1  0  0  0  0
 17 18  1  0  0  0  0
 18 19  2  0  0  0  0
 18 23  1  0  0  0  0
 19 20  1  0  0  0  0
 20 26  1  0  0  0  0
 20 21  2  0  0  0  0
 22 25  1  0  0  0  0
 22 21  1  0  0  0  0
 23 22  2  0  0  0  0
 24 19  1  0  0  0  0
 26 29  1  0  0  0  0
 26 28  1  0  0  0  0
 27 26  1  0  0  0  0
 27 28  1  0  0  0  0
 28 32  1  0  0  0  0
 28 33  1  0  0  0  0
 30 27  1  0  0  0  0
 31 27  1  0  0  0  0
 34 37  1  0  0  0  0
 34  6  1  0  0  0  0
 35 36  1  0  0  0  0
 36 43  2  0  0  0  0
 36 37  1  0  0  0  0
 37 38  2  0  0  0  0
 38 40  1  0  0  0  0
 38 39  1  0  0  0  0
 41 42  1  0  0  0  0
 41 40  2  0  0  0  0
 43 41  1  0  0  0  0
 44 43  1  0  0  0  0
M  END
>  <minimizedAffinity>
-5.93474293

$$$$

 OpenBabel03242523533D

 44 47  0  0  1  0  0  0  0  0999 V2000
   38.8540   31.4870   39.9160 C   0  0  1  0  0  0  0  0  0  0  0  0
   39.6440   32.2350   40.9890 C   0  0  1  0  0  0  0  0  0  0  0  0
   39.0240   33.4760   41.2290 O   0  0  0  0  0  0  0  0  0  0  0  0
   38.4660   34.0360   40.0760 C   0  0  0  0  0  0  0  0  0  0  0  0
   37.2490   33.2470   39.6310 C   0  0  2  0  0  0  0  0  0  0  0  0
   37.3980   31.8200   40.1950 C   0  0  1  0  0  0  0  0  0  0  0  0
   38.9800   30.3860   40.0100 H   0  0  0  0  0  0  0  0  0  0  0  0
   40.6860   32.3540   40.6880 H   0  0  0  0  0  0  0  0  0  0  0  0
   38.1420   35.0490   40.3860 H   0  0  0  0  0  0  0  0  0  0  0  0
   39.2160   34.1830   39.2910 H   0  0  0  0  0  0  0  0  0  0  0  0
   36.2960   33.7030   39.9550 H   0  0  0  0  0  0  0  0  0  0  0  0
   37.2430   31.8570   41.2770 H   0  0  0  0  0  0  0  0  0  0  0  0
   39.2090   31.9360   38.6460 O   0  0  0  0  0  0  0  0  0  0  0  0
   40.0540   31.4830   38.4080 H   0  0  0  0  0  0  0  0  0  0  0  0
   37.3250   33.0780   38.2430 O   0  0  0  0  0  0  0  0  0  0  0  0
   36.5790   32.4970   37.9330 H   0  0  0  0  0  0  0  0  0  0  0  0
   39.4550   31.5180   42.1780 O   0  0  0  0  0  0  0  0  0  0  0  0
   40.0660   30.3720   42.4960 C   0  0  0  0  0  0  0  0  0  0  0  0
   39.3330   29.2410   42.8440 C   0  0  0  0  0  0  0  0  0  0  0  0
   40.0170   28.0780   43.1620 C   0  0  0  0  0  0  0  0  0  0  0  0
   41.4050   28.0660   43.1290 N   0  0  0  0  0  0  0  0  0  0  0  0
   42.0730   29.1780   42.7880 C   0  0  0  0  0  0  0  0  0  0  0  0
   41.4200   30.3260   42.4740 N   0  0  0  0  0  0  0  0  0  0  0  0
   38.2500   29.2250   42.8780 H   0  0  0  0  0  0  0  0  0  0  0  0
   43.1540   29.2140   42.7500 H   0  0  0  0  0  0  0  0  0  0  0  0
   39.2710   26.8310   43.5610 C   0  0  0  0  0  0  0  0  0  0  0  0
   39.0270   25.7960   42.4870 C   0  0  0  0  0  0  0  0  0  0  0  0
   39.9720   25.5820   43.6800 C   0  0  0  0  0  0  0  0  0  0  0  0
   38.4320   27.0820   44.2350 H   0  0  0  0  0  0  0  0  0  0  0  0
   39.4410   25.9980   41.4960 H   0  0  0  0  0  0  0  0  0  0  0  0
   38.0520   25.2770   42.5840 H   0  0  0  0  0  0  0  0  0  0  0  0
   41.0480   25.5320   43.3400 H   0  0  0  0  0  0  0  0  0  0  0  0
   39.7260   24.7610   44.3510 H   0  0  0  0  0  0  0  0  0  0  0  0
   36.5070   30.9550   39.5920 O   0  0  0  0  0  0  0  0  0  0  0  0
   36.6440   29.9780   36.8590 Cl  0  0  0  0  0  0  0  0  0  0  0  0
   36.5530   29.0210   38.3470 C   0  0  0  0  0  0  0  0  0  0  0  0
   36.4910   29.5890   39.6030 C   0  0  0  0  0  0  0  0  0  0  0  0
   36.4210   28.7760   40.7140 C   0  0  0  0  0  0  0  0  0  0  0  0
   36.3740   29.2640   41.6760 H   0  0  0  0  0  0  0  0  0  0  0  0
   36.4110   27.3850   40.6060 C   0  0  0  0  0  3  0  0  0  0  0  0
   36.4750   26.8890   39.3150 C   0  0  0  0  0  0  0  0  0  0  0  0
   36.4660   25.1380   39.1230 Cl  0  0  0  0  0  0  0  0  0  0  0  0
   36.5460   27.6510   38.1690 C   0  0  0  0  0  0  0  0  0  0  0  0
   36.5950   27.1990   37.1890 H   0  0  0  0  0  0  0  0  0  0  0  0
  1  7  1  1  0  0  0
  1  6  1  0  0  0  0
  1  2  1  0  0  0  0
  2  8  1  6  0  0  0
  2  3  1  0  0  0  0
  2 17  1  0  0  0  0
  4  9  1  0  0  0  0
  4  3  1  0  0  0  0
  5 11  1  1  0  0  0
  5  4  1  0  0  0  0
  5  6  1  0  0  0  0
  6 12  1  1  0  0  0
 10  4  1  0  0  0  0
 13  1  1  0  0  0  0
 14 13  1  0  0  0  0
 15  5  1  0  0  0  0
 16 15  1  0  0  0  0
 17 18  1  0  0  0  0
 18 19  1  0  0  0  0
 19 24  1  0  0  0  0
 19 20  2  0  0  0  0
 20 26  1  0  0  0  0
 21 20  1  0  0  0  0
 22 21  2  0  0  0  0
 23 18  2  0  0  0  0
 23 22  1  0  0  0  0
 25 22  1  0  0  0  0
 26 28  1  0  0  0  0
 26 29  1  0  0  0  0
 27 31  1  0  0  0  0
 27 26  1  0  0  0  0
 27 28  1  0  0  0  0
 28 33  1  0  0  0  0
 30 27  1  0  0  0  0
 32 28  1  0  0  0  0
 34 37  1  0  0  0  0
 34  6  1  0  0  0  0
 35 36  1  0  0  0  0
 36 37  1  0  0  0  0
 37 38  2  0  0  0  0
 38 39  1  0  0  0  0
 40 38  1  0  0  0  0
 41 40  2  0  0  0  0
 42 41  1  0  0  0  0
 43 36  2  0  0  0  0
 43 41  1  0  0  0  0
 44 43  1  0  0  0  0
M  END
>  <minimizedAffinity>
-5.90100145

$$$$

 OpenBabel03242523533D

 44 47  0  0  1  0  0  0  0  0999 V2000
   37.4080   31.5070   39.9340 C   0  0  1  0  0  0  0  0  0  0  0  0
   37.7340   31.6810   38.4510 C   0  0  1  0  0  0  0  0  0  0  0  0
   39.0070   32.2730   38.3320 O   0  0  0  0  0  0  0  0  0  0  0  0
   39.2760   33.1930   39.3490 C   0  0  0  0  0  0  0  0  0  0  0  0
   39.4690   32.4850   40.6770 C   0  0  2  0  0  0  0  0  0  0  0  0
   38.7290   31.1350   40.5870 C   0  0  1  0  0  0  0  0  0  0  0  0
   36.6950   30.6690   40.0990 H   0  0  0  0  0  0  0  0  0  0  0  0
   36.9640   32.2740   37.9550 H   0  0  0  0  0  0  0  0  0  0  0  0
   40.2330   33.6650   39.0530 H   0  0  0  0  0  0  0  0  0  0  0  0
   38.5340   33.9990   39.3750 H   0  0  0  0  0  0  0  0  0  0  0  0
   40.5330   32.3370   40.9360 H   0  0  0  0  0  0  0  0  0  0  0  0
   39.2860   30.4790   39.9130 H   0  0  0  0  0  0  0  0  0  0  0  0
   36.9310   32.7000   40.4730 O   0  0  0  0  0  0  0  0  0  0  0  0
   35.9770   32.7660   40.2220 H   0  0  0  0  0  0  0  0  0  0  0  0
   38.7670   33.1990   41.6550 O   0  0  0  0  0  0  0  0  0  0  0  0
   38.8120   32.7140   42.5230 H   0  0  0  0  0  0  0  0  0  0  0  0
   37.9030   30.3880   37.9380 O   0  0  0  0  0  0  0  0  0  0  0  0
   36.9830   29.4190   37.9660 C   0  0  0  0  0  0  0  0  0  0  0  0
   37.3240   28.1160   38.3190 C   0  0  0  0  0  0  0  0  0  0  0  0
   36.3300   27.1510   38.3340 C   0  0  0  0  0  0  0  0  0  0  0  0
   35.0280   27.4990   37.9990 N   0  0  0  0  0  0  0  0  0  0  0  0
   34.7430   28.7650   37.6640 C   0  0  0  0  0  0  0  0  0  0  0  0
   35.7030   29.7250   37.6430 N   0  0  0  0  0  0  0  0  0  0  0  0
   38.3310   27.8200   38.5850 H   0  0  0  0  0  0  0  0  0  0  0  0
   33.7430   29.0800   37.3950 H   0  0  0  0  0  0  0  0  0  0  0  0
   36.6500   25.7230   38.6940 C   0  0  0  0  0  0  0  0  0  0  0  0
   37.9620   25.4610   39.3960 C   0  0  0  0  0  0  0  0  0  0  0  0
   36.5890   25.2970   40.0660 C   0  0  0  0  0  0  0  0  0  0  0  0
   36.3620   25.0430   37.8720 H   0  0  0  0  0  0  0  0  0  0  0  0
   38.5820   26.3300   39.6340 H   0  0  0  0  0  0  0  0  0  0  0  0
   38.4400   24.5050   39.1040 H   0  0  0  0  0  0  0  0  0  0  0  0
   36.4330   26.0780   40.8670 H   0  0  0  0  0  0  0  0  0  0  0  0
   36.3420   24.3000   40.4260 H   0  0  0  0  0  0  0  0  0  0  0  0
   38.5880   30.5650   41.8370 O   0  0  0  0  0  0  0  0  0  0  0  0
   36.4030   28.6530   41.7580 Cl  0  0  0  0  0  0  0  0  0  0  0  0
   38.0680   28.3710   42.2900 C   0  0  0  0  0  0  0  0  0  0  0  0
   39.0350   29.3560   42.2870 C   0  0  0  0  0  0  0  0  0  0  0  0
   40.3110   29.0580   42.7170 C   0  0  0  0  0  0  0  0  0  0  0  0
   41.0340   29.8600   42.6980 H   0  0  0  0  0  0  0  0  0  0  0  0
   40.6570   27.7800   43.1580 C   0  0  0  0  0  3  0  0  0  0  0  0
   39.6350   26.8460   43.1330 C   0  0  0  0  0  0  0  0  0  0  0  0
   40.0190   25.2160   43.6800 Cl  0  0  0  0  0  0  0  0  0  0  0  0
   38.3430   27.0850   42.7140 C   0  0  0  0  0  0  0  0  0  0  0  0
   37.5930   26.3090   42.7190 H   0  0  0  0  0  0  0  0  0  0  0  0
  1  7  1  1  0  0  0
  1 13  1  0  0  0  0
  1  6  1  0  0  0  0
  2  8  1  6  0  0  0
  2  1  1  0  0  0  0
  3  2  1  0  0  0  0
  3  4  1  0  0  0  0
  4 10  1  0  0  0  0
  4  5  1  0  0  0  0
  5 11  1  1  0  0  0
  5 15  1  0  0  0  0
  6 12  1  6  0  0  0
  6  5  1  0  0  0  0
  6 34  1  0  0  0  0
  9  4  1  0  0  0  0
 14 13  1  0  0  0  0
 15 16  1  0  0  0  0
 17 18  1  0  0  0  0
 17  2  1  0  0  0  0
 18 19  1  0  0  0  0
 19 20  2  0  0  0  0
 19 24  1  0  0  0  0
 20 26  1  0  0  0  0
 21 20  1  0  0  0  0
 22 21  2  0  0  0  0
 23 22  1  0  0  0  0
 23 18  2  0  0  0  0
 25 22  1  0  0  0  0
 26 27  1  0  0  0  0
 26 28  1  0  0  0  0
 27 30  1  0  0  0  0
 27 28  1  0  0  0  0
 28 33  1  0  0  0  0
 28 32  1  0  0  0  0
 29 26  1  0  0  0  0
 31 27  1  0  0  0  0
 34 37  1  0  0  0  0
 35 36  1  0  0  0  0
 36 43  1  0  0  0  0
 37 36  2  0  0  0  0
 37 38  1  0  0  0  0
 38 40  2  0  0  0  0
 39 38  1  0  0  0  0
 41 40  1  0  0  0  0
 41 42  1  0  0  0  0
 43 44  1  0  0  0  0
 43 41  2  0  0  0  0
M  END
>  <minimizedAffinity>
-5.87463713

$$$$
