
 OpenBabel03252506523D

 32 35  0  0  0  0  0  0  0  0999 V2000
   47.1480   31.2040   45.1680 C   0  0  0  0  0  0  0  0  0  0  0  0
   46.9030   32.5620   45.1320 C   0  0  0  0  0  0  0  0  0  0  0  0
   46.3590   33.2650   46.2010 C   0  0  0  0  0  0  0  0  0  0  0  0
   46.0440   32.5570   47.3690 C   0  0  0  0  0  0  0  0  0  0  0  0
   45.5110   32.8960   48.5820 N   0  0  0  0  0  0  0  0  0  0  0  0
   45.4360   31.7690   49.3370 C   0  0  0  0  0  0  0  0  0  0  0  0
   45.9160   30.7580   48.5880 N   0  0  0  0  0  0  0  0  0  0  0  0
   46.2960   31.2070   47.3790 C   0  0  0  0  0  0  0  0  0  0  0  0
   46.8320   30.5070   46.3320 C   0  0  0  0  0  0  0  0  0  0  0  0
   47.5770   30.7120   44.2940 H   0  0  0  0  0  0  0  0  0  0  0  0
   46.1700   34.3130   46.1730 H   0  0  0  0  0  0  0  0  0  0  0  0
   45.2280   33.8690   48.8380 H   0  0  0  0  0  0  0  0  0  0  0  0
   45.0470   31.8090   50.3270 H   0  0  0  0  0  0  0  0  0  0  0  0
   49.4610   29.6280   47.4800 Cl  0  0  0  0  0  0  0  0  0  0  0  0
   48.2740   28.4960   46.8370 C   0  0  0  0  0  0  0  0  0  0  0  0
   47.1020   29.0720   46.3400 C   0  0  0  0  0  0  0  0  0  0  0  0
   46.1540   28.1950   45.8290 C   0  0  0  0  0  0  0  0  0  0  0  0
   45.2310   28.6090   45.4350 H   0  0  0  0  0  0  0  0  0  0  0  0
   46.3040   26.8200   45.7880 C   0  0  0  0  0  3  0  0  0  0  0  0
   47.4690   26.3110   46.2870 C   0  0  0  0  0  0  0  0  0  0  0  0
   47.7290   24.5900   46.2680 Cl  0  0  0  0  0  0  0  0  0  0  0  0
   48.4380   27.1280   46.8020 C   0  0  0  0  0  0  0  0  0  0  0  0
   49.3780   26.7620   47.2100 H   0  0  0  0  0  0  0  0  0  0  0  0
   46.7500   35.0610   42.4310 C   0  0  0  0  0  0  0  0  0  0  0  0
   47.8760   34.7150   41.6500 C   0  0  0  0  0  0  0  0  0  0  0  0
   48.6800   33.6250   42.0580 C   0  0  0  0  0  0  0  0  0  0  0  0
   48.3070   32.9690   43.1990 N   0  0  0  0  0  0  0  0  0  0  0  0
   47.2230   33.3230   43.9260 C   0  0  0  0  0  0  0  0  0  0  0  0
   46.4700   34.3500   43.5370 N   0  0  0  0  0  0  0  0  0  0  0  0
   46.1760   35.8960   42.0740 H   0  0  0  0  0  0  0  0  0  0  0  0
   48.1930   35.2150   40.7450 H   0  0  0  0  0  0  0  0  0  0  0  0
   49.5460   33.2890   41.5360 H   0  0  0  0  0  0  0  0  0  0  0  0
  1  9  1  0  0  0  0
  2  1  2  0  0  0  0
  2  3  1  0  0  0  0
  3  4  2  0  0  0  0
  4  8  1  0  0  0  0
  4  5  1  0  0  0  0
  5 12  1  0  0  0  0
  5  6  1  0  0  0  0
  6 13  1  0  0  0  0
  7  6  2  0  0  0  0
  8  7  1  0  0  0  0
  9 16  1  0  0  0  0
  9  8  2  0  0  0  0
 10  1  1  0  0  0  0
 11  3  1  0  0  0  0
 15 14  1  0  0  0  0
 16 15  2  0  0  0  0
 17 16  1  0  0  0  0
 18 17  1  0  0  0  0
 19 17  2  0  0  0  0
 19 20  1  0  0  0  0
 20 22  2  0  0  0  0
 21 20  1  0  0  0  0
 22 15  1  0  0  0  0
 22 23  1  0  0  0  0
 24 29  1  0  0  0  0
 25 26  1  0  0  0  0
 25 24  2  0  0  0  0
 26 27  2  0  0  0  0
 27 28  1  0  0  0  0
 28  2  1  0  0  0  0
 29 28  2  0  0  0  0
 30 24  1  0  0  0  0
 31 25  1  0  0  0  0
 32 26  1  0  0  0  0
M  END
>  <minimizedAffinity>
-5.32060862

>  <minimizedRMSD>
1.01373863

$$$$
