
 OpenBabel03242523403D

 38 42  0  0  1  0  0  0  0  0999 V2000
   46.7840   32.6260   45.1430 C   0  0  2  0  0  0  0  0  0  0  0  0
   47.4010   31.5170   45.0340 N   0  0  2  0  0  4  0  0  0  0  0  0
   47.4190   30.2890   44.7870 C   0  0  0  0  0  0  0  0  0  0  0  0
   47.8380   30.1540   46.0910 N   0  0  0  0  0  0  0  0  0  0  0  0
   47.0570   30.9030   46.9460 C   0  0  2  0  0  3  0  0  0  0  0  0
   46.8720   30.3500   48.2460 C   0  0  0  0  0  0  0  0  0  0  0  0
   46.0590   31.0180   49.0750 C   0  0  0  0  0  0  0  0  0  0  0  0
   45.4130   32.1640   48.7620 C   0  0  0  0  0  0  0  0  0  0  0  0
   45.6850   32.5950   47.4600 C   0  0  0  0  0  0  0  0  0  0  0  0
   46.4790   32.0840   46.4370 C   0  0  1  0  0  0  0  0  0  0  0  0
   47.6700   33.3650   45.5190 H   0  0  0  0  0  0  0  0  0  0  0  0
   48.2420   31.7910   44.3590 H   0  0  0  0  0  0  0  0  0  0  0  0
   48.1320   29.7120   44.1160 H   0  0  0  0  0  0  0  0  0  0  0  0
   46.4630   29.7580   44.5940 H   0  0  0  0  0  0  0  0  0  0  0  0
   48.6620   29.5440   46.4010 H   0  0  0  0  0  0  0  0  0  0  0  0
   47.3490   29.4510   48.5720 H   0  0  0  0  0  0  0  0  0  0  0  0
   45.9220   30.5820   50.0820 H   0  0  0  0  0  0  0  0  0  0  0  0
   44.7720   32.6620   49.4530 H   0  0  0  0  0  0  0  0  0  0  0  0
   45.1030   33.5080   47.3460 H   0  0  0  0  0  0  0  0  0  0  0  0
   44.5000   35.5300   45.2530 C   0  0  0  0  0  0  0  0  0  0  0  0
   44.2640   35.5990   43.8620 C   0  0  0  0  0  0  0  0  0  0  0  0
   44.8790   34.6530   43.0680 C   0  0  0  0  0  0  0  0  0  0  0  0
   45.6600   33.7380   43.6940 N   0  0  0  0  0  0  0  0  0  0  0  0
   45.8770   33.6890   45.0450 C   0  0  0  0  0  0  0  0  0  0  0  0
   45.2780   34.5870   45.6980 N   0  0  0  0  0  0  0  0  0  0  0  0
   44.0610   36.2290   45.9630 H   0  0  0  0  0  0  0  0  0  0  0  0
   43.6160   36.3940   43.5280 H   0  0  0  0  0  0  0  0  0  0  0  0
   44.5740   34.7230   41.3510 S   0  0  0  0  0  0  0  0  0  0  0  0
   43.2890   31.9240   41.6990 Cl  0  0  0  0  0  0  0  0  0  0  0  0
   42.2670   33.2620   41.2120 C   0  0  0  0  0  0  0  0  0  0  0  0
   42.8190   34.5290   41.0480 C   0  0  0  0  0  0  0  0  0  0  0  0
   41.9620   35.5580   40.6600 C   0  0  0  0  0  0  0  0  0  0  0  0
   42.4240   36.5430   40.5400 H   0  0  0  0  0  0  0  0  0  0  0  0
   40.6190   35.2990   40.4530 C   0  0  0  0  0  3  0  0  0  0  0  0
   40.0960   34.0310   40.6220 C   0  0  0  0  0  0  0  0  0  0  0  0
   38.3970   33.7020   40.3600 Cl  0  0  0  0  0  0  0  0  0  0  0  0
   40.9130   32.9870   41.0060 C   0  0  0  0  0  0  0  0  0  0  0  0
   40.5390   31.9700   41.1500 H   0  0  0  0  0  0  0  0  0  0  0  0
  1 11  1  1  0  0  0
  1 10  1  0  0  0  0
  2 12  1  1  0  0  0
  2  1  1  0  0  0  0
  2 10  1  0  0  0  0
  3  2  1  0  0  0  0
  3  4  1  0  0  0  0
  4 15  1  0  0  0  0
  4  5  1  0  0  0  0
  5  6  1  6  0  0  0
  6 16  1  0  0  0  0
  6  7  2  0  0  0  0
  7 17  1  0  0  0  0
  8  7  1  0  0  0  0
  8 18  1  0  0  0  0
  9  8  2  0  0  0  0
 10  5  1  0  0  0  0
 10  9  1  6  0  0  0
 13  3  1  0  0  0  0
 14  3  1  0  0  0  0
 19  9  1  0  0  0  0
 20 25  1  0  0  0  0
 20 26  1  0  0  0  0
 21 20  2  0  0  0  0
 22 23  2  0  0  0  0
 22 21  1  0  0  0  0
 23 24  1  0  0  0  0
 24  1  1  0  0  0  0
 24 25  2  0  0  0  0
 27 21  1  0  0  0  0
 28 22  1  0  0  0  0
 30 29  1  0  0  0  0
 31 30  1  0  0  0  0
 31 28  1  0  0  0  0
 32 31  2  0  0  0  0
 33 32  1  0  0  0  0
 34 35  2  0  0  0  0
 34 32  1  0  0  0  0
 35 37  1  0  0  0  0
 36 35  1  0  0  0  0
 37 38  1  0  0  0  0
 37 30  2  0  0  0  0
M  END
>  <minimizedAffinity>
-6.62989616

>  <minimizedRMSD>
1.06938803

$$$$
