
 OpenBabel03252508463D

 46 48  0  0  0  0  0  0  0  0999 V2000
   42.6850   31.4180   42.5940 N   0  0  0  0  0  0  0  0  0  0  0  0
   42.9500   31.6980   43.5760 H   0  0  0  0  0  0  0  0  0  0  0  0
   42.9970   32.4600   41.6670 C   0  0  0  0  0  0  0  0  0  0  0  0
   43.5050   32.0240   40.7860 H   0  0  0  0  0  0  0  0  0  0  0  0
   42.0750   32.9590   41.2750 H   0  0  0  0  0  0  0  0  0  0  0  0
   43.6680   34.8670   41.9050 C   0  0  0  0  0  0  0  0  0  0  0  0
   43.8920   33.5210   42.2180 C   0  0  0  0  0  0  0  0  0  0  0  0
   44.9530   33.2110   43.0430 C   0  0  0  0  0  0  0  0  0  0  0  0
   45.7600   34.1920   43.5370 C   0  0  0  0  0  0  0  0  0  0  0  0
   45.5590   35.5230   43.2420 C   0  0  0  0  0  0  0  0  0  0  0  0
   44.4830   35.8050   42.4110 C   0  0  0  0  0  0  0  0  0  0  0  0
   45.0800   32.1550   43.2520 H   0  0  0  0  0  0  0  0  0  0  0  0
   46.5710   33.8660   44.1750 H   0  0  0  0  0  0  0  0  0  0  0  0
   46.2180   36.2700   43.6530 H   0  0  0  0  0  0  0  0  0  0  0  0
   44.2910   36.8400   42.1560 H   0  0  0  0  0  0  0  0  0  0  0  0
   40.2630   35.7570   40.5400 C   0  0  0  0  0  0  0  0  0  0  0  0
   41.2790   35.5170   41.4870 C   0  0  0  0  0  0  0  0  0  0  0  0
   42.5400   35.1420   41.0340 C   0  0  0  0  0  0  0  0  0  0  0  0
   42.7060   35.0310   39.6820 N   0  0  0  0  0  0  0  0  0  0  0  0
   41.7140   35.2680   38.7900 C   0  0  0  0  0  0  0  0  0  0  0  0
   40.5030   35.6270   39.2330 N   0  0  0  0  0  0  0  0  0  0  0  0
   39.3500   36.0330   41.0240 H   0  0  0  0  0  0  0  0  0  0  0  0
   41.1840   35.5920   42.5420 H   0  0  0  0  0  0  0  0  0  0  0  0
   41.8330   35.1820   37.7320 H   0  0  0  0  0  0  0  0  0  0  0  0
   41.0050   31.0530   42.6370 S   0  0  0  0  0  0  0  0  0  0  0  0
   40.1780   32.3080   42.4750 O   0  0  0  0  0  0  0  0  0  0  0  0
   40.0590   32.7770   41.5990 H   0  0  0  0  0  0  0  0  0  0  0  0
   40.6370   30.3280   43.8750 O   0  0  0  0  0  0  0  0  0  0  0  0
   41.1520   30.1840   44.7020 H   0  0  0  0  0  0  0  0  0  0  0  0
   40.7060   30.0410   41.3260 O   0  0  0  0  0  0  0  0  0  0  0  0
   40.1310   28.8780   41.7730 C   0  0  0  0  0  0  0  0  0  0  0  0
   39.2480   28.6810   41.1300 H   0  0  0  0  0  0  0  0  0  0  0  0
   39.7750   28.8810   42.8110 H   0  0  0  0  0  0  0  0  0  0  0  0
   41.1260   27.7190   41.5810 C   0  0  0  0  0  0  0  0  0  0  0  0
   42.1060   28.1280   41.8310 H   0  0  0  0  0  0  0  0  0  0  0  0
   41.1140   27.4700   40.5240 H   0  0  0  0  0  0  0  0  0  0  0  0
   39.3230   25.5360   40.4000 Cl  0  0  0  0  0  0  0  0  0  0  0  0
   39.9280   25.5360   42.0430 C   0  0  0  0  0  0  0  0  0  0  0  0
   40.7380   26.5760   42.4430 C   0  0  0  0  0  0  0  0  0  0  0  0
   41.2330   26.5870   43.7520 C   0  0  0  0  0  0  0  0  0  0  0  0
   41.8730   27.3940   44.0860 H   0  0  0  0  0  0  0  0  0  0  0  0
   40.9280   25.5850   44.6500 C   0  0  0  0  0  3  0  0  0  0  0  0
   40.1170   24.5680   44.2100 C   0  0  0  0  0  0  0  0  0  0  0  0
   39.7410   23.2980   45.3780 Cl  0  0  0  0  0  0  0  0  0  0  0  0
   39.6010   24.5080   42.9220 C   0  0  0  0  0  0  0  0  0  0  0  0
   38.9560   23.6730   42.6110 H   0  0  0  0  0  0  0  0  0  0  0  0
  1 25  1  0  0  0  0
  1  2  1  0  0  0  0
  3  7  1  0  0  0  0
  3  1  1  0  0  0  0
  4  3  1  0  0  0  0
  5  3  1  0  0  0  0
  6  7  2  0  0  0  0
  6 11  1  0  0  0  0
  7  8  1  0  0  0  0
  8 12  1  0  0  0  0
  8  9  2  0  0  0  0
  9 13  1  0  0  0  0
 10  9  1  0  0  0  0
 10 14  1  0  0  0  0
 11 10  2  0  0  0  0
 15 11  1  0  0  0  0
 16 22  1  0  0  0  0
 16 17  1  0  0  0  0
 17 23  1  0  0  0  0
 18 17  2  0  0  0  0
 18  6  1  0  0  0  0
 19 18  1  0  0  0  0
 20 21  1  0  0  0  0
 20 19  2  0  0  0  0
 21 16  2  0  0  0  0
 24 20  1  0  0  0  0
 25 28  1  0  0  0  0
 26 25  1  0  0  0  0
 27 26  1  0  0  0  0
 28 29  1  0  0  0  0
 30 31  1  0  0  0  0
 30 25  1  0  0  0  0
 31 33  1  0  0  0  0
 32 31  1  0  0  0  0
 34 31  1  0  0  0  0
 34 35  1  0  0  0  0
 34 39  1  0  0  0  0
 36 34  1  0  0  0  0
 37 38  1  0  0  0  0
 38 39  2  0  0  0  0
 38 45  1  0  0  0  0
 39 40  1  0  0  0  0
 40 41  1  0  0  0  0
 40 42  2  0  0  0  0
 43 42  1  0  0  0  0
 43 44  1  0  0  0  0
 45 43  2  0  0  0  0
 46 45  1  0  0  0  0
M  END
>  <minimizedAffinity>
-5.19200802

>  <minimizedRMSD>
1.07025003

$$$$
