
 OpenBabel03252501103D

 21 22  0  0  0  0  0  0  0  0999 V2000
   46.7940   34.7010   42.1780 C   0  0  0  0  0  0  0  0  0  0  0  0
   47.6840   35.5540   41.8600 O   0  0  0  0  0  0  0  0  0  0  0  0
   44.1360   34.7980   40.6760 Cl  0  0  0  0  0  0  0  0  0  0  0  0
   45.4840   33.7340   40.3050 C   0  0  0  0  0  0  0  0  0  0  0  0
   46.6500   33.7720   41.0540 C   0  0  0  0  0  0  0  0  0  0  0  0
   47.6300   32.8800   40.6520 C   0  0  0  0  0  0  0  0  0  0  0  0
   48.5680   32.8680   41.2080 H   0  0  0  0  0  0  0  0  0  0  0  0
   47.4460   32.0250   39.5860 C   0  0  0  0  0  3  0  0  0  0  0  0
   46.2770   32.0210   38.8730 C   0  0  0  0  0  0  0  0  0  0  0  0
   46.1150   30.9030   37.5280 Cl  0  0  0  0  0  0  0  0  0  0  0  0
   45.2840   32.8860   39.2360 C   0  0  0  0  0  0  0  0  0  0  0  0
   44.3650   32.8690   38.6620 H   0  0  0  0  0  0  0  0  0  0  0  0
   44.5290   35.8950   44.8430 C   0  0  0  0  0  0  0  0  0  0  0  0
   45.2300   35.8100   43.6280 C   0  0  0  0  0  0  0  0  0  0  0  0
   46.1100   34.7300   43.4400 C   0  0  0  0  0  0  0  0  0  0  0  0
   46.2140   33.8440   44.4580 N   0  0  0  0  0  0  0  0  0  0  0  0
   45.5370   33.9440   45.6100 C   0  0  0  0  0  0  0  0  0  0  0  0
   44.6770   34.9870   45.8100 N   0  0  0  0  0  0  0  0  0  0  0  0
   43.8580   36.7280   44.9740 H   0  0  0  0  0  0  0  0  0  0  0  0
   45.0580   36.5810   42.8950 H   0  0  0  0  0  0  0  0  0  0  0  0
   45.6950   33.1740   46.3690 H   0  0  0  0  0  0  0  0  0  0  0  0
  1 15  1  0  0  0  0
  2  1  2  0  0  0  0
  4  3  1  0  0  0  0
  4  5  1  0  0  0  0
  5  1  1  0  0  0  0
  6  5  2  0  0  0  0
  6  7  1  0  0  0  0
  8  6  1  0  0  0  0
  9 11  1  0  0  0  0
  9  8  2  0  0  0  0
 10  9  1  0  0  0  0
 11  4  2  0  0  0  0
 12 11  1  0  0  0  0
 13 19  1  0  0  0  0
 13 18  1  0  0  0  0
 14 13  2  0  0  0  0
 15 14  1  0  0  0  0
 15 16  2  0  0  0  0
 16 17  1  0  0  0  0
 17 18  2  0  0  0  0
 17 21  1  0  0  0  0
 20 14  1  0  0  0  0
M  END
>  <minimizedAffinity>
-4.22111988

>  <minimizedRMSD>
0.757692873

$$$$
