
 OpenBabel03252508163D

 38 41  0  0  1  0  0  0  0  0999 V2000
   38.0670   28.7390   42.7580 C   0  0  0  0  0  3  0  0  0  0  0  0
   39.0920   28.0300   42.5120 C   0  0  0  0  0  3  0  0  0  0  0  0
   36.2290   31.2260   40.7570 C   0  0  0  0  0  0  0  0  0  0  0  0
   37.2370   31.9370   40.1190 C   0  0  0  0  0  0  0  0  0  0  0  0
   38.5320   31.5460   40.4070 C   0  0  0  0  0  0  0  0  0  0  0  0
   38.7570   30.5260   41.2650 N   0  0  0  0  0  0  0  0  0  0  0  0
   37.7610   29.8560   41.8660 C   0  0  0  0  0  0  0  0  0  0  0  0
   36.5050   30.2270   41.5950 N   0  0  0  0  0  0  0  0  0  0  0  0
   35.1690   31.3910   40.6540 H   0  0  0  0  0  0  0  0  0  0  0  0
   36.8420   32.7040   39.4800 H   0  0  0  0  0  0  0  0  0  0  0  0
   38.8750   34.5260   41.0650 Cl  0  0  0  0  0  0  0  0  0  0  0  0
   39.8380   33.6200   39.9310 C   0  0  0  0  0  0  0  0  0  0  0  0
   39.5750   32.2830   39.7310 C   0  0  0  0  0  0  0  0  0  0  0  0
   40.4280   31.7160   38.8160 C   0  0  0  0  0  0  0  0  0  0  0  0
   40.3650   30.6900   38.5400 H   0  0  0  0  0  0  0  0  0  0  0  0
   41.4360   32.3890   38.1610 C   0  0  0  0  0  3  0  0  0  0  0  0
   41.6510   33.7260   38.4010 C   0  0  0  0  0  0  0  0  0  0  0  0
   42.9160   34.5990   37.5870 Cl  0  0  0  0  0  0  0  0  0  0  0  0
   40.8230   34.3520   39.3150 C   0  0  0  0  0  0  0  0  0  0  0  0
   41.0040   35.4000   39.4930 H   0  0  0  0  0  0  0  0  0  0  0  0
   39.3380   26.8760   43.4750 C   0  0  0  0  0  0  0  0  0  0  0  0
   40.1360   27.2230   44.1880 H   0  0  0  0  0  0  0  0  0  0  0  0
   38.4530   26.6390   44.0640 H   0  0  0  0  0  0  0  0  0  0  0  0
   39.8830   25.7080   42.7170 C   0  0  1  0  0  0  0  0  0  0  0  0
   39.7430   24.3650   43.3560 C   0  0  0  0  0  0  0  0  0  0  0  0
   38.9550   24.6790   42.1800 C   0  0  1  0  0  0  0  0  0  0  0  0
   40.8320   25.8670   42.1470 H   0  0  0  0  0  0  0  0  0  0  0  0
   40.5930   23.6350   43.3210 H   0  0  0  0  0  0  0  0  0  0  0  0
   39.1660   24.2910   44.3210 H   0  0  0  0  0  0  0  0  0  0  0  0
   39.2970   24.1660   41.2290 H   0  0  0  0  0  0  0  0  0  0  0  0
   37.5100   24.9880   42.1770 C   0  0  0  0  0  0  0  0  0  0  0  0
   36.6760   24.1180   41.1980 C   0  0  0  0  0  0  0  0  0  0  0  0
   36.9450   25.5410   40.8480 C   0  0  0  0  0  0  0  0  0  0  0  0
   37.0010   25.3180   43.0940 H   0  0  0  0  0  0  0  0  0  0  0  0
   35.6370   23.9330   41.5420 H   0  0  0  0  0  0  0  0  0  0  0  0
   37.2130   23.3370   40.6310 H   0  0  0  0  0  0  0  0  0  0  0  0
   36.1890   26.3220   40.9590 H   0  0  0  0  0  0  0  0  0  0  0  0
   37.6870   25.7770   40.0540 H   0  0  0  0  0  0  0  0  0  0  0  0
  2  1  2  0  0  0  0
  2 21  1  0  0  0  0
  3  8  1  0  0  0  0
  4  5  1  0  0  0  0
  4  3  2  0  0  0  0
  5  6  2  0  0  0  0
  6  7  1  0  0  0  0
  7  1  1  0  0  0  0
  8  7  2  0  0  0  0
  9  3  1  0  0  0  0
 10  4  1  0  0  0  0
 12 11  1  0  0  0  0
 13 12  1  0  0  0  0
 13  5  1  0  0  0  0
 14 13  2  0  0  0  0
 15 14  1  0  0  0  0
 16 17  2  0  0  0  0
 16 14  1  0  0  0  0
 17 19  1  0  0  0  0
 18 17  1  0  0  0  0
 19 20  1  0  0  0  0
 19 12  2  0  0  0  0
 21 23  1  0  0  0  0
 21 22  1  0  0  0  0
 24 27  1  6  0  0  0
 24 25  1  0  0  0  0
 24 21  1  0  0  0  0
 25 29  1  0  0  0  0
 26 30  1  6  0  0  0
 26 24  1  0  0  0  0
 26 25  1  0  0  0  0
 28 25  1  0  0  0  0
 31 26  1  0  0  0  0
 31 34  1  0  0  0  0
 32 35  1  0  0  0  0
 32 31  1  0  0  0  0
 33 37  1  0  0  0  0
 33 32  1  0  0  0  0
 33 31  1  0  0  0  0
 36 32  1  0  0  0  0
 38 33  1  0  0  0  0
M  END
>  <minimizedAffinity>
-5.82662964

$$$$

 OpenBabel03252508163D

 38 41  0  0  1  0  0  0  0  0999 V2000
   38.0450   28.6300   42.7390 C   0  0  0  0  0  3  0  0  0  0  0  0
   39.1540   28.0350   42.5630 C   0  0  0  0  0  3  0  0  0  0  0  0
   36.1670   31.1630   40.8360 C   0  0  0  0  0  0  0  0  0  0  0  0
   37.1620   31.8950   40.2020 C   0  0  0  0  0  0  0  0  0  0  0  0
   38.4630   31.5020   40.4590 C   0  0  0  0  0  0  0  0  0  0  0  0
   38.7060   30.4600   41.2850 N   0  0  0  0  0  0  0  0  0  0  0  0
   37.7220   29.7700   41.8830 C   0  0  0  0  0  0  0  0  0  0  0  0
   36.4600   30.1430   41.6420 N   0  0  0  0  0  0  0  0  0  0  0  0
   35.1050   31.3260   40.7540 H   0  0  0  0  0  0  0  0  0  0  0  0
   36.7540   32.6780   39.5900 H   0  0  0  0  0  0  0  0  0  0  0  0
   39.5730   30.4280   37.8050 Cl  0  0  0  0  0  0  0  0  0  0  0  0
   40.0770   31.8960   38.5950 C   0  0  0  0  0  0  0  0  0  0  0  0
   39.4930   32.2620   39.7870 C   0  0  0  0  0  0  0  0  0  0  0  0
   39.9950   33.4450   40.2720 C   0  0  0  0  0  0  0  0  0  0  0  0
   39.6570   33.8740   41.1850 H   0  0  0  0  0  0  0  0  0  0  0  0
   40.9710   34.1950   39.6530 C   0  0  0  0  0  3  0  0  0  0  0  0
   41.5190   33.7790   38.4630 C   0  0  0  0  0  0  0  0  0  0  0  0
   42.7520   34.7070   37.6610 Cl  0  0  0  0  0  0  0  0  0  0  0  0
   41.0520   32.5930   37.9240 C   0  0  0  0  0  0  0  0  0  0  0  0
   41.4910   32.2800   36.9900 H   0  0  0  0  0  0  0  0  0  0  0  0
   39.4160   26.8490   43.4810 C   0  0  0  0  0  0  0  0  0  0  0  0
   40.2290   27.1700   44.1890 H   0  0  0  0  0  0  0  0  0  0  0  0
   38.5420   26.5950   44.0810 H   0  0  0  0  0  0  0  0  0  0  0  0
   39.9410   25.7050   42.6740 C   0  0  1  0  0  0  0  0  0  0  0  0
   39.8230   24.3440   43.2770 C   0  0  0  0  0  0  0  0  0  0  0  0
   39.0000   24.6900   42.1340 C   0  0  1  0  0  0  0  0  0  0  0  0
   40.8730   25.8840   42.0820 H   0  0  0  0  0  0  0  0  0  0  0  0
   40.6730   23.6180   43.1950 H   0  0  0  0  0  0  0  0  0  0  0  0
   39.2740   24.2400   44.2560 H   0  0  0  0  0  0  0  0  0  0  0  0
   39.3150   24.2070   41.1590 H   0  0  0  0  0  0  0  0  0  0  0  0
   37.5550   24.9940   42.1820 C   0  0  0  0  0  0  0  0  0  0  0  0
   36.6920   24.1340   41.2200 C   0  0  0  0  0  0  0  0  0  0  0  0
   36.9450   25.5630   40.8790 C   0  0  0  0  0  0  0  0  0  0  0  0
   37.0750   25.3110   43.1190 H   0  0  0  0  0  0  0  0  0  0  0  0
   35.6650   23.9410   41.5950 H   0  0  0  0  0  0  0  0  0  0  0  0
   37.2120   23.3620   40.6260 H   0  0  0  0  0  0  0  0  0  0  0  0
   36.1920   26.3390   41.0250 H   0  0  0  0  0  0  0  0  0  0  0  0
   37.6600   25.8110   40.0650 H   0  0  0  0  0  0  0  0  0  0  0  0
  2  1  2  0  0  0  0
  2 21  1  0  0  0  0
  3  8  1  0  0  0  0
  4  5  1  0  0  0  0
  4  3  2  0  0  0  0
  5  6  2  0  0  0  0
  6  7  1  0  0  0  0
  7  1  1  0  0  0  0
  8  7  2  0  0  0  0
  9  3  1  0  0  0  0
 10  4  1  0  0  0  0
 11 12  1  0  0  0  0
 12 13  1  0  0  0  0
 13 14  2  0  0  0  0
 13  5  1  0  0  0  0
 14 15  1  0  0  0  0
 16 14  1  0  0  0  0
 17 16  2  0  0  0  0
 18 17  1  0  0  0  0
 19 17  1  0  0  0  0
 19 12  2  0  0  0  0
 20 19  1  0  0  0  0
 21 23  1  0  0  0  0
 21 22  1  0  0  0  0
 24 27  1  6  0  0  0
 24 25  1  0  0  0  0
 24 21  1  0  0  0  0
 25 29  1  0  0  0  0
 26 30  1  6  0  0  0
 26 31  1  0  0  0  0
 26 24  1  0  0  0  0
 26 25  1  0  0  0  0
 28 25  1  0  0  0  0
 31 34  1  0  0  0  0
 32 35  1  0  0  0  0
 32 31  1  0  0  0  0
 33 37  1  0  0  0  0
 33 32  1  0  0  0  0
 33 31  1  0  0  0  0
 36 32  1  0  0  0  0
 38 33  1  0  0  0  0
M  END
>  <minimizedAffinity>
-5.76562643

$$$$

 OpenBabel03252508163D

 38 41  0  0  1  0  0  0  0  0999 V2000
   37.7170   30.2870   41.2160 C   0  0  0  0  0  3  0  0  0  0  0  0
   36.5830   29.8580   40.8350 C   0  0  0  0  0  3  0  0  0  0  0  0
   37.7210   33.7290   39.9060 C   0  0  0  0  0  0  0  0  0  0  0  0
   39.0700   34.0200   39.7640 C   0  0  0  0  0  0  0  0  0  0  0  0
   39.9500   33.0200   40.1360 C   0  0  0  0  0  0  0  0  0  0  0  0
   39.4790   31.8440   40.6070 N   0  0  0  0  0  0  0  0  0  0  0  0
   38.1670   31.5910   40.7330 C   0  0  0  0  0  0  0  0  0  0  0  0
   37.3070   32.5520   40.3760 N   0  0  0  0  0  0  0  0  0  0  0  0
   36.8980   34.3840   39.6680 H   0  0  0  0  0  0  0  0  0  0  0  0
   39.2280   35.0080   39.3720 H   0  0  0  0  0  0  0  0  0  0  0  0
   41.2510   32.5030   37.4040 Cl  0  0  0  0  0  0  0  0  0  0  0  0
   42.0600   33.1430   38.8080 C   0  0  0  0  0  0  0  0  0  0  0  0
   41.3530   33.3250   39.9750 C   0  0  0  0  0  0  0  0  0  0  0  0
   42.1330   33.8430   40.9800 C   0  0  0  0  0  0  0  0  0  0  0  0
   41.7480   34.0460   41.9510 H   0  0  0  0  0  0  0  0  0  0  0  0
   43.4700   34.1510   40.8560 C   0  0  0  0  0  3  0  0  0  0  0  0
   44.1250   33.9460   39.6640 C   0  0  0  0  0  0  0  0  0  0  0  0
   45.8120   34.3250   39.4810 Cl  0  0  0  0  0  0  0  0  0  0  0  0
   43.3900   33.4260   38.6130 C   0  0  0  0  0  0  0  0  0  0  0  0
   43.9160   33.2710   37.6850 H   0  0  0  0  0  0  0  0  0  0  0  0
   36.1750   28.5000   41.3900 C   0  0  0  0  0  0  0  0  0  0  0  0
   35.1260   28.6190   41.7790 H   0  0  0  0  0  0  0  0  0  0  0  0
   36.1530   27.7320   40.6180 H   0  0  0  0  0  0  0  0  0  0  0  0
   37.0520   28.1570   42.5520 C   0  0  1  0  0  0  0  0  0  0  0  0
   36.4210   27.3940   43.6710 C   0  0  0  0  0  0  0  0  0  0  0  0
   37.3950   26.7360   42.8220 C   0  0  1  0  0  0  0  0  0  0  0  0
   37.8090   28.9180   42.8630 H   0  0  0  0  0  0  0  0  0  0  0  0
   36.6510   27.6650   44.7340 H   0  0  0  0  0  0  0  0  0  0  0  0
   35.3560   27.0480   43.5470 H   0  0  0  0  0  0  0  0  0  0  0  0
   38.4060   26.5640   43.3040 H   0  0  0  0  0  0  0  0  0  0  0  0
   37.0830   25.7400   41.7760 C   0  0  0  0  0  0  0  0  0  0  0  0
   37.6040   24.3100   42.0840 C   0  0  0  0  0  0  0  0  0  0  0  0
   38.3010   25.1250   41.0490 C   0  0  0  0  0  0  0  0  0  0  0  0
   36.1540   25.8070   41.1920 H   0  0  0  0  0  0  0  0  0  0  0  0
   36.9680   23.5040   41.6620 H   0  0  0  0  0  0  0  0  0  0  0  0
   38.1160   24.1540   43.0490 H   0  0  0  0  0  0  0  0  0  0  0  0
   38.1610   24.9540   39.9800 H   0  0  0  0  0  0  0  0  0  0  0  0
   39.2940   25.5700   41.2830 H   0  0  0  0  0  0  0  0  0  0  0  0
  2  1  2  0  0  0  0
  2 21  1  0  0  0  0
  3  8  1  0  0  0  0
  4  3  2  0  0  0  0
  4  5  1  0  0  0  0
  5  6  2  0  0  0  0
  6  7  1  0  0  0  0
  7  1  1  0  0  0  0
  8  7  2  0  0  0  0
  9  3  1  0  0  0  0
 10  4  1  0  0  0  0
 11 12  1  0  0  0  0
 12 13  1  0  0  0  0
 13  5  1  0  0  0  0
 13 14  2  0  0  0  0
 14 15  1  0  0  0  0
 16 14  1  0  0  0  0
 17 16  2  0  0  0  0
 18 17  1  0  0  0  0
 19 12  2  0  0  0  0
 19 17  1  0  0  0  0
 20 19  1  0  0  0  0
 21 22  1  0  0  0  0
 21 24  1  0  0  0  0
 23 21  1  0  0  0  0
 24 26  1  0  0  0  0
 24 27  1  1  0  0  0
 24 25  1  0  0  0  0
 25 28  1  0  0  0  0
 26 30  1  1  0  0  0
 26 25  1  0  0  0  0
 29 25  1  0  0  0  0
 31 32  1  0  0  0  0
 31 26  1  0  0  0  0
 32 36  1  0  0  0  0
 33 38  1  0  0  0  0
 33 31  1  0  0  0  0
 33 32  1  0  0  0  0
 34 31  1  0  0  0  0
 35 32  1  0  0  0  0
 37 33  1  0  0  0  0
M  END
>  <minimizedAffinity>
-5.58127737

$$$$

 OpenBabel03252508163D

 38 41  0  0  1  0  0  0  0  0999 V2000
   37.6780   29.8970   40.6580 C   0  0  0  0  0  3  0  0  0  0  0  0
   37.6850   28.6530   40.3980 C   0  0  0  0  0  3  0  0  0  0  0  0
   39.1060   31.6890   37.7740 C   0  0  0  0  0  0  0  0  0  0  0  0
   40.1390   32.4290   38.3320 C   0  0  0  0  0  0  0  0  0  0  0  0
   40.3110   32.3000   39.6980 C   0  0  0  0  0  0  0  0  0  0  0  0
   39.4960   31.4890   40.4100 N   0  0  0  0  0  0  0  0  0  0  0  0
   38.5050   30.7840   39.8410 C   0  0  0  0  0  0  0  0  0  0  0  0
   38.3310   30.9030   38.5200 N   0  0  0  0  0  0  0  0  0  0  0  0
   38.8280   31.6670   36.7330 H   0  0  0  0  0  0  0  0  0  0  0  0
   40.6640   33.0050   37.5930 H   0  0  0  0  0  0  0  0  0  0  0  0
   39.8180   35.2560   40.3650 Cl  0  0  0  0  0  0  0  0  0  0  0  0
   41.3110   34.3950   40.6170 C   0  0  0  0  0  0  0  0  0  0  0  0
   41.3950   33.0650   40.2710 C   0  0  0  0  0  0  0  0  0  0  0  0
   42.6330   32.5340   40.5400 C   0  0  0  0  0  0  0  0  0  0  0  0
   42.8720   31.5180   40.3340 H   0  0  0  0  0  0  0  0  0  0  0  0
   43.6830   33.2340   41.0920 C   0  0  0  0  0  3  0  0  0  0  0  0
   43.5410   34.5620   41.4160 C   0  0  0  0  0  0  0  0  0  0  0  0
   44.8520   35.4690   42.1130 Cl  0  0  0  0  0  0  0  0  0  0  0  0
   42.3150   35.1530   41.1680 C   0  0  0  0  0  0  0  0  0  0  0  0
   42.2180   36.1950   41.4290 H   0  0  0  0  0  0  0  0  0  0  0  0
   36.7890   27.7930   41.2790 C   0  0  0  0  0  0  0  0  0  0  0  0
   35.7380   27.9500   40.9100 H   0  0  0  0  0  0  0  0  0  0  0  0
   37.0160   26.7320   41.1820 H   0  0  0  0  0  0  0  0  0  0  0  0
   36.8550   28.2930   42.6870 C   0  0  1  0  0  0  0  0  0  0  0  0
   36.3810   27.3620   43.7550 C   0  0  0  0  0  0  0  0  0  0  0  0
   37.7960   27.6630   43.6500 C   0  0  1  0  0  0  0  0  0  0  0  0
   36.6190   29.3720   42.8580 H   0  0  0  0  0  0  0  0  0  0  0  0
   35.7550   27.7500   44.6010 H   0  0  0  0  0  0  0  0  0  0  0  0
   36.0830   26.3170   43.4580 H   0  0  0  0  0  0  0  0  0  0  0  0
   38.1960   28.3490   44.4570 H   0  0  0  0  0  0  0  0  0  0  0  0
   38.8250   26.7500   43.1120 C   0  0  0  0  0  0  0  0  0  0  0  0
   40.0100   26.4870   44.0790 C   0  0  0  0  0  0  0  0  0  0  0  0
   40.2260   27.3690   42.8990 C   0  0  0  0  0  0  0  0  0  0  0  0
   38.5530   25.9260   42.4360 H   0  0  0  0  0  0  0  0  0  0  0  0
   40.4600   25.4780   43.9690 H   0  0  0  0  0  0  0  0  0  0  0  0
   39.9660   26.9600   45.0760 H   0  0  0  0  0  0  0  0  0  0  0  0
   40.7490   27.0280   42.0030 H   0  0  0  0  0  0  0  0  0  0  0  0
   40.3100   28.4690   43.0470 H   0  0  0  0  0  0  0  0  0  0  0  0
  2  1  2  0  0  0  0
  2 21  1  0  0  0  0
  3  4  2  0  0  0  0
  3  8  1  0  0  0  0
  4  5  1  0  0  0  0
  5 13  1  0  0  0  0
  5  6  2  0  0  0  0
  7  6  1  0  0  0  0
  7  1  1  0  0  0  0
  8  7  2  0  0  0  0
  9  3  1  0  0  0  0
 10  4  1  0  0  0  0
 11 12  1  0  0  0  0
 12 19  1  0  0  0  0
 13 14  1  0  0  0  0
 13 12  2  0  0  0  0
 14 16  2  0  0  0  0
 15 14  1  0  0  0  0
 16 17  1  0  0  0  0
 17 18  1  0  0  0  0
 19 17  2  0  0  0  0
 19 20  1  0  0  0  0
 21 24  1  0  0  0  0
 22 21  1  0  0  0  0
 23 21  1  0  0  0  0
 24 27  1  1  0  0  0
 24 26  1  0  0  0  0
 24 25  1  0  0  0  0
 25 28  1  0  0  0  0
 26 25  1  0  0  0  0
 26 30  1  1  0  0  0
 29 25  1  0  0  0  0
 31 26  1  0  0  0  0
 31 32  1  0  0  0  0
 32 36  1  0  0  0  0
 33 38  1  0  0  0  0
 33 31  1  0  0  0  0
 33 32  1  0  0  0  0
 34 31  1  0  0  0  0
 35 32  1  0  0  0  0
 37 33  1  0  0  0  0
M  END
>  <minimizedAffinity>
-5.53628731

$$$$

 OpenBabel03252508163D

 38 41  0  0  1  0  0  0  0  0999 V2000
   36.9280   25.7660   40.7430 C   0  0  0  0  0  3  0  0  0  0  0  0
   36.8960   24.5790   41.1940 C   0  0  0  0  0  3  0  0  0  0  0  0
   37.6520   27.6700   43.8120 C   0  0  0  0  0  0  0  0  0  0  0  0
   37.9430   28.9430   43.3430 C   0  0  0  0  0  0  0  0  0  0  0  0
   37.8930   29.1110   41.9710 C   0  0  0  0  0  0  0  0  0  0  0  0
   37.5760   28.0680   41.1710 N   0  0  0  0  0  0  0  0  0  0  0  0
   37.2980   26.8470   41.6560 C   0  0  0  0  0  0  0  0  0  0  0  0
   37.3450   26.6740   42.9820 N   0  0  0  0  0  0  0  0  0  0  0  0
   37.6440   27.3570   44.8440 H   0  0  0  0  0  0  0  0  0  0  0  0
   38.1680   29.6230   44.1430 H   0  0  0  0  0  0  0  0  0  0  0  0
   35.7300   30.5930   40.3730 Cl  0  0  0  0  0  0  0  0  0  0  0  0
   37.3100   31.2170   40.7630 C   0  0  0  0  0  0  0  0  0  0  0  0
   38.1860   30.4420   41.4890 C   0  0  0  0  0  0  0  0  0  0  0  0
   39.3800   31.0810   41.7170 C   0  0  0  0  0  0  0  0  0  0  0  0
   40.1730   30.6260   42.2620 H   0  0  0  0  0  0  0  0  0  0  0  0
   39.6870   32.3500   41.2780 C   0  0  0  0  0  3  0  0  0  0  0  0
   38.7710   33.0770   40.5540 C   0  0  0  0  0  0  0  0  0  0  0  0
   39.1340   34.6810   39.9880 Cl  0  0  0  0  0  0  0  0  0  0  0  0
   37.5480   32.4850   40.2940 C   0  0  0  0  0  0  0  0  0  0  0  0
   36.8400   33.0670   39.7260 H   0  0  0  0  0  0  0  0  0  0  0  0
   36.5160   23.5040   40.1830 C   0  0  0  0  0  0  0  0  0  0  0  0
   37.4820   23.0670   39.8080 H   0  0  0  0  0  0  0  0  0  0  0  0
   35.9460   22.6950   40.6400 H   0  0  0  0  0  0  0  0  0  0  0  0
   35.8250   24.1410   39.0200 C   0  0  1  0  0  0  0  0  0  0  0  0
   35.8900   23.4150   37.7170 C   0  0  0  0  0  0  0  0  0  0  0  0
   34.6280   23.4890   38.4270 C   0  0  1  0  0  0  0  0  0  0  0  0
   35.8710   25.2560   38.9470 H   0  0  0  0  0  0  0  0  0  0  0  0
   36.0680   23.9820   36.7670 H   0  0  0  0  0  0  0  0  0  0  0  0
   36.3770   22.3980   37.6960 H   0  0  0  0  0  0  0  0  0  0  0  0
   33.8680   24.1940   37.9700 H   0  0  0  0  0  0  0  0  0  0  0  0
   34.0040   22.3800   39.1770 C   0  0  0  0  0  0  0  0  0  0  0  0
   32.6400   21.9120   38.6020 C   0  0  0  0  0  0  0  0  0  0  0  0
   32.6550   22.7080   39.8610 C   0  0  0  0  0  0  0  0  0  0  0  0
   34.6190   21.6110   39.6650 H   0  0  0  0  0  0  0  0  0  0  0  0
   32.4370   20.8320   38.7600 H   0  0  0  0  0  0  0  0  0  0  0  0
   32.2800   22.4080   37.6830 H   0  0  0  0  0  0  0  0  0  0  0  0
   32.5140   22.2500   40.8420 H   0  0  0  0  0  0  0  0  0  0  0  0
   32.3350   23.7720   39.8380 H   0  0  0  0  0  0  0  0  0  0  0  0
  1  2  2  0  0  0  0
  1  7  1  0  0  0  0
  3  9  1  0  0  0  0
  4  3  1  0  0  0  0
  4 10  1  0  0  0  0
  5  4  2  0  0  0  0
  6  7  2  0  0  0  0
  6  5  1  0  0  0  0
  7  8  1  0  0  0  0
  8  3  2  0  0  0  0
 11 12  1  0  0  0  0
 12 13  1  0  0  0  0
 13 14  2  0  0  0  0
 13  5  1  0  0  0  0
 14 15  1  0  0  0  0
 16 14  1  0  0  0  0
 17 16  2  0  0  0  0
 18 17  1  0  0  0  0
 19 17  1  0  0  0  0
 19 12  2  0  0  0  0
 20 19  1  0  0  0  0
 21 23  1  0  0  0  0
 21  2  1  0  0  0  0
 22 21  1  0  0  0  0
 24 27  1  6  0  0  0
 24 21  1  0  0  0  0
 25 26  1  0  0  0  0
 25 24  1  0  0  0  0
 26 30  1  6  0  0  0
 26 24  1  0  0  0  0
 26 31  1  0  0  0  0
 28 25  1  0  0  0  0
 29 25  1  0  0  0  0
 31 34  1  0  0  0  0
 31 33  1  0  0  0  0
 32 35  1  0  0  0  0
 32 31  1  0  0  0  0
 32 33  1  0  0  0  0
 33 37  1  0  0  0  0
 36 32  1  0  0  0  0
 38 33  1  0  0  0  0
M  END
>  <minimizedAffinity>
-5.50209093

$$$$

 OpenBabel03252508163D

 38 41  0  0  1  0  0  0  0  0999 V2000
   32.7960   29.4720   36.5540 C   0  0  0  0  0  3  0  0  0  0  0  0
   32.4860   29.7840   35.3620 C   0  0  0  0  0  3  0  0  0  0  0  0
   36.2470   28.2700   36.0920 C   0  0  0  0  0  0  0  0  0  0  0  0
   36.7100   28.1090   37.3900 C   0  0  0  0  0  0  0  0  0  0  0  0
   35.8200   28.4310   38.3980 C   0  0  0  0  0  0  0  0  0  0  0  0
   34.5800   28.8750   38.0900 N   0  0  0  0  0  0  0  0  0  0  0  0
   34.1600   29.0200   36.8240 C   0  0  0  0  0  0  0  0  0  0  0  0
   35.0150   28.7110   35.8420 N   0  0  0  0  0  0  0  0  0  0  0  0
   36.7990   28.0700   35.1880 H   0  0  0  0  0  0  0  0  0  0  0  0
   37.7210   27.7450   37.4130 H   0  0  0  0  0  0  0  0  0  0  0  0
   36.2130   30.9200   40.1530 Cl  0  0  0  0  0  0  0  0  0  0  0  0
   36.5250   29.2760   40.6390 C   0  0  0  0  0  0  0  0  0  0  0  0
   36.3040   28.2500   39.7470 C   0  0  0  0  0  0  0  0  0  0  0  0
   36.5900   27.0210   40.2880 C   0  0  0  0  0  0  0  0  0  0  0  0
   36.4770   26.1180   39.7360 H   0  0  0  0  0  0  0  0  0  0  0  0
   37.0460   26.8150   41.5710 C   0  0  0  0  0  3  0  0  0  0  0  0
   37.2490   27.8790   42.4170 C   0  0  0  0  0  0  0  0  0  0  0  0
   37.8250   27.6460   44.0420 Cl  0  0  0  0  0  0  0  0  0  0  0  0
   36.9780   29.1440   41.9290 C   0  0  0  0  0  0  0  0  0  0  0  0
   37.1410   29.9690   42.6040 H   0  0  0  0  0  0  0  0  0  0  0  0
   31.0540   30.2590   35.1590 C   0  0  0  0  0  0  0  0  0  0  0  0
   30.8600   30.2160   34.0520 H   0  0  0  0  0  0  0  0  0  0  0  0
   30.3320   29.6030   35.6440 H   0  0  0  0  0  0  0  0  0  0  0  0
   30.9420   31.6890   35.5830 C   0  0  1  0  0  0  0  0  0  0  0  0
   29.7130   32.4240   35.1600 C   0  0  0  0  0  0  0  0  0  0  0  0
   29.8940   32.0890   36.5590 C   0  0  1  0  0  0  0  0  0  0  0  0
   31.8810   32.2960   35.5870 H   0  0  0  0  0  0  0  0  0  0  0  0
   29.7890   33.4790   34.7900 H   0  0  0  0  0  0  0  0  0  0  0  0
   28.9050   31.8490   34.6240 H   0  0  0  0  0  0  0  0  0  0  0  0
   30.1620   32.9650   37.2250 H   0  0  0  0  0  0  0  0  0  0  0  0
   29.1790   31.0170   37.2810 C   0  0  0  0  0  0  0  0  0  0  0  0
   28.6990   31.4170   38.7020 C   0  0  0  0  0  0  0  0  0  0  0  0
   29.8650   30.4990   38.5670 C   0  0  0  0  0  0  0  0  0  0  0  0
   28.5550   30.2900   36.7400 H   0  0  0  0  0  0  0  0  0  0  0  0
   27.7650   30.9070   39.0170 H   0  0  0  0  0  0  0  0  0  0  0  0
   28.8940   32.4540   39.0290 H   0  0  0  0  0  0  0  0  0  0  0  0
   29.7820   29.4230   38.7310 H   0  0  0  0  0  0  0  0  0  0  0  0
   30.8890   30.8830   38.7710 H   0  0  0  0  0  0  0  0  0  0  0  0
  1  7  1  0  0  0  0
  2  1  2  0  0  0  0
  3  4  1  0  0  0  0
  4 10  1  0  0  0  0
  4  5  2  0  0  0  0
  5 13  1  0  0  0  0
  6  5  1  0  0  0  0
  7  6  2  0  0  0  0
  8  3  2  0  0  0  0
  8  7  1  0  0  0  0
  9  3  1  0  0  0  0
 11 12  1  0  0  0  0
 12 19  1  0  0  0  0
 13 14  1  0  0  0  0
 13 12  2  0  0  0  0
 14 16  2  0  0  0  0
 15 14  1  0  0  0  0
 16 17  1  0  0  0  0
 17 18  1  0  0  0  0
 19 17  2  0  0  0  0
 19 20  1  0  0  0  0
 21  2  1  0  0  0  0
 21 24  1  0  0  0  0
 21 23  1  0  0  0  0
 22 21  1  0  0  0  0
 24 27  1  1  0  0  0
 24 26  1  0  0  0  0
 25 24  1  0  0  0  0
 25 26  1  0  0  0  0
 26 30  1  1  0  0  0
 26 31  1  0  0  0  0
 28 25  1  0  0  0  0
 29 25  1  0  0  0  0
 31 33  1  0  0  0  0
 31 32  1  0  0  0  0
 32 35  1  0  0  0  0
 32 36  1  0  0  0  0
 33 32  1  0  0  0  0
 33 37  1  0  0  0  0
 33 38  1  0  0  0  0
 34 31  1  0  0  0  0
M  END
>  <minimizedAffinity>
-5.41864347

$$$$

 OpenBabel03252508163D

 38 41  0  0  1  0  0  0  0  0999 V2000
   39.2900   29.9110   41.8000 C   0  0  0  0  0  3  0  0  0  0  0  0
   39.7240   29.8400   40.6080 C   0  0  0  0  0  3  0  0  0  0  0  0
   37.0100   27.9310   43.9100 C   0  0  0  0  0  0  0  0  0  0  0  0
   36.9010   26.7270   43.2290 C   0  0  0  0  0  0  0  0  0  0  0  0
   37.6110   26.6320   42.0460 C   0  0  0  0  0  0  0  0  0  0  0  0
   38.3550   27.6760   41.6160 N   0  0  0  0  0  0  0  0  0  0  0  0
   38.4420   28.8290   42.2980 C   0  0  0  0  0  0  0  0  0  0  0  0
   37.7580   28.9310   43.4440 N   0  0  0  0  0  0  0  0  0  0  0  0
   36.5290   28.1830   44.8420 H   0  0  0  0  0  0  0  0  0  0  0  0
   36.2630   26.0330   43.7420 H   0  0  0  0  0  0  0  0  0  0  0  0
   39.5350   24.3660   42.8140 Cl  0  0  0  0  0  0  0  0  0  0  0  0
   38.2990   24.2760   41.5900 C   0  0  0  0  0  0  0  0  0  0  0  0
   37.5020   25.3720   41.3470 C   0  0  0  0  0  0  0  0  0  0  0  0
   36.5750   25.1340   40.3610 C   0  0  0  0  0  0  0  0  0  0  0  0
   35.8790   25.8740   40.0450 H   0  0  0  0  0  0  0  0  0  0  0  0
   36.4420   23.9430   39.6820 C   0  0  0  0  0  3  0  0  0  0  0  0
   37.2680   22.8810   39.9670 C   0  0  0  0  0  0  0  0  0  0  0  0
   37.1200   21.3680   39.1240 Cl  0  0  0  0  0  0  0  0  0  0  0  0
   38.2220   23.0620   40.9530 C   0  0  0  0  0  0  0  0  0  0  0  0
   38.8620   22.2200   41.1660 H   0  0  0  0  0  0  0  0  0  0  0  0
   40.6120   30.9940   40.1640 C   0  0  0  0  0  0  0  0  0  0  0  0
   41.6730   30.6590   40.3310 H   0  0  0  0  0  0  0  0  0  0  0  0
   40.5000   31.2120   39.1030 H   0  0  0  0  0  0  0  0  0  0  0  0
   40.3660   32.1760   41.0470 C   0  0  1  0  0  0  0  0  0  0  0  0
   40.8380   33.5020   40.5460 C   0  0  0  0  0  0  0  0  0  0  0  0
   39.4150   33.2340   40.6150 C   0  0  1  0  0  0  0  0  0  0  0  0
   40.4680   32.0200   42.1490 H   0  0  0  0  0  0  0  0  0  0  0  0
   41.3390   34.2200   41.2460 H   0  0  0  0  0  0  0  0  0  0  0  0
   41.2720   33.5560   39.5080 H   0  0  0  0  0  0  0  0  0  0  0  0
   38.8710   33.7680   41.4530 H   0  0  0  0  0  0  0  0  0  0  0  0
   38.5430   32.9460   39.4580 C   0  0  0  0  0  0  0  0  0  0  0  0
   37.2240   33.7650   39.4360 C   0  0  0  0  0  0  0  0  0  0  0  0
   37.1680   32.3200   39.7920 C   0  0  0  0  0  0  0  0  0  0  0  0
   38.9700   32.6800   38.4800 H   0  0  0  0  0  0  0  0  0  0  0  0
   36.8540   33.9860   38.4130 H   0  0  0  0  0  0  0  0  0  0  0  0
   37.0720   34.5020   40.2440 H   0  0  0  0  0  0  0  0  0  0  0  0
   36.8260   31.5580   39.0880 H   0  0  0  0  0  0  0  0  0  0  0  0
   37.0030   32.0240   40.8520 H   0  0  0  0  0  0  0  0  0  0  0  0
  1  7  1  0  0  0  0
  2  1  2  0  0  0  0
  3  9  1  0  0  0  0
  4 10  1  0  0  0  0
  4  3  2  0  0  0  0
  5  4  1  0  0  0  0
  6  5  2  0  0  0  0
  6  7  1  0  0  0  0
  7  8  2  0  0  0  0
  8  3  1  0  0  0  0
 12 11  1  0  0  0  0
 13 12  1  0  0  0  0
 13  5  1  0  0  0  0
 14 13  2  0  0  0  0
 15 14  1  0  0  0  0
 16 17  2  0  0  0  0
 16 14  1  0  0  0  0
 17 19  1  0  0  0  0
 18 17  1  0  0  0  0
 19 20  1  0  0  0  0
 19 12  2  0  0  0  0
 21 22  1  0  0  0  0
 21  2  1  0  0  0  0
 21 24  1  0  0  0  0
 23 21  1  0  0  0  0
 24 27  1  1  0  0  0
 25 26  1  0  0  0  0
 25 24  1  0  0  0  0
 25 28  1  0  0  0  0
 26 24  1  0  0  0  0
 26 30  1  1  0  0  0
 29 25  1  0  0  0  0
 31 33  1  0  0  0  0
 31 26  1  0  0  0  0
 32 31  1  0  0  0  0
 32 33  1  0  0  0  0
 32 36  1  0  0  0  0
 33 38  1  0  0  0  0
 34 31  1  0  0  0  0
 35 32  1  0  0  0  0
 37 33  1  0  0  0  0
M  END
>  <minimizedAffinity>
-5.39264965

$$$$

 OpenBabel03252508163D

 38 41  0  0  1  0  0  0  0  0999 V2000
   38.9290   28.9550   41.9540 C   0  0  0  0  0  3  0  0  0  0  0  0
   38.2040   28.1860   42.6580 C   0  0  0  0  0  3  0  0  0  0  0  0
   37.7290   32.0430   40.3440 C   0  0  0  0  0  0  0  0  0  0  0  0
   36.9600   31.5790   39.2860 C   0  0  0  0  0  0  0  0  0  0  0  0
   36.8840   30.2050   39.1470 C   0  0  0  0  0  0  0  0  0  0  0  0
   37.5370   29.3990   40.0130 N   0  0  0  0  0  0  0  0  0  0  0  0
   38.2730   29.8780   41.0280 C   0  0  0  0  0  0  0  0  0  0  0  0
   38.3540   31.2060   41.1710 N   0  0  0  0  0  0  0  0  0  0  0  0
   37.9000   33.0750   40.6030 H   0  0  0  0  0  0  0  0  0  0  0  0
   36.5270   32.3840   38.7220 H   0  0  0  0  0  0  0  0  0  0  0  0
   34.0690   29.1460   39.7670 Cl  0  0  0  0  0  0  0  0  0  0  0  0
   34.7960   29.2280   38.1860 C   0  0  0  0  0  0  0  0  0  0  0  0
   36.0720   29.7280   38.0500 C   0  0  0  0  0  0  0  0  0  0  0  0
   36.4930   29.7320   36.7430 C   0  0  0  0  0  0  0  0  0  0  0  0
   37.4560   30.0840   36.4570 H   0  0  0  0  0  0  0  0  0  0  0  0
   35.7420   29.2910   35.6750 C   0  0  0  0  0  3  0  0  0  0  0  0
   34.4720   28.8010   35.8720 C   0  0  0  0  0  0  0  0  0  0  0  0
   33.5040   28.2380   34.5420 Cl  0  0  0  0  0  0  0  0  0  0  0  0
   33.9930   28.7720   37.1700 C   0  0  0  0  0  0  0  0  0  0  0  0
   32.9960   28.3860   37.3080 H   0  0  0  0  0  0  0  0  0  0  0  0
   38.9550   27.2640   43.6090 C   0  0  0  0  0  0  0  0  0  0  0  0
   39.5470   27.9310   44.2950 H   0  0  0  0  0  0  0  0  0  0  0  0
   38.2790   26.6750   44.2280 H   0  0  0  0  0  0  0  0  0  0  0  0
   39.9280   26.4370   42.8310 C   0  0  1  0  0  0  0  0  0  0  0  0
   40.3940   25.1680   43.4660 C   0  0  0  0  0  0  0  0  0  0  0  0
   39.5150   25.1050   42.3140 C   0  0  1  0  0  0  0  0  0  0  0  0
   40.7010   26.9820   42.2350 H   0  0  0  0  0  0  0  0  0  0  0  0
   41.4730   24.8720   43.4040 H   0  0  0  0  0  0  0  0  0  0  0  0
   39.9310   24.8610   44.4470 H   0  0  0  0  0  0  0  0  0  0  0  0
   40.0180   24.7810   41.3520 H   0  0  0  0  0  0  0  0  0  0  0  0
   38.0780   24.7650   42.3530 C   0  0  0  0  0  0  0  0  0  0  0  0
   37.6590   23.6600   41.3470 C   0  0  0  0  0  0  0  0  0  0  0  0
   37.2800   25.0730   41.0650 C   0  0  0  0  0  0  0  0  0  0  0  0
   37.5120   24.8100   43.2950 H   0  0  0  0  0  0  0  0  0  0  0  0
   36.8120   23.0350   41.7000 H   0  0  0  0  0  0  0  0  0  0  0  0
   38.4550   23.2070   40.7310 H   0  0  0  0  0  0  0  0  0  0  0  0
   36.2690   25.4500   41.2290 H   0  0  0  0  0  0  0  0  0  0  0  0
   37.8200   25.6350   40.2710 H   0  0  0  0  0  0  0  0  0  0  0  0
  1  2  2  0  0  0  0
  2 21  1  0  0  0  0
  3  9  1  0  0  0  0
  3  8  1  0  0  0  0
  4  3  2  0  0  0  0
  5  4  1  0  0  0  0
  5  6  2  0  0  0  0
  6  7  1  0  0  0  0
  7  8  2  0  0  0  0
  7  1  1  0  0  0  0
 10  4  1  0  0  0  0
 12 11  1  0  0  0  0
 13 12  1  0  0  0  0
 13  5  1  0  0  0  0
 14 13  2  0  0  0  0
 15 14  1  0  0  0  0
 16 17  2  0  0  0  0
 16 14  1  0  0  0  0
 17 19  1  0  0  0  0
 18 17  1  0  0  0  0
 19 20  1  0  0  0  0
 19 12  2  0  0  0  0
 21 23  1  0  0  0  0
 21 22  1  0  0  0  0
 24 27  1  6  0  0  0
 24 25  1  0  0  0  0
 24 21  1  0  0  0  0
 25 29  1  0  0  0  0
 26 30  1  6  0  0  0
 26 31  1  0  0  0  0
 26 24  1  0  0  0  0
 26 25  1  0  0  0  0
 28 25  1  0  0  0  0
 31 34  1  0  0  0  0
 32 35  1  0  0  0  0
 32 31  1  0  0  0  0
 33 37  1  0  0  0  0
 33 32  1  0  0  0  0
 33 31  1  0  0  0  0
 36 32  1  0  0  0  0
 38 33  1  0  0  0  0
M  END
>  <minimizedAffinity>
-5.33293104

$$$$

 OpenBabel03252508163D

 38 41  0  0  1  0  0  0  0  0999 V2000
   34.8540   29.0490   39.3570 C   0  0  0  0  0  3  0  0  0  0  0  0
   34.8710   29.0500   38.0870 C   0  0  0  0  0  3  0  0  0  0  0  0
   37.2100   31.5510   40.6840 C   0  0  0  0  0  0  0  0  0  0  0  0
   38.1350   30.7870   41.3810 C   0  0  0  0  0  0  0  0  0  0  0  0
   37.9160   29.4210   41.3860 C   0  0  0  0  0  0  0  0  0  0  0  0
   36.8490   28.9040   40.7360 N   0  0  0  0  0  0  0  0  0  0  0  0
   35.9710   29.6690   40.0700 C   0  0  0  0  0  0  0  0  0  0  0  0
   36.1730   30.9920   40.0600 N   0  0  0  0  0  0  0  0  0  0  0  0
   37.2210   32.6230   40.5750 H   0  0  0  0  0  0  0  0  0  0  0  0
   38.9050   31.3930   41.8210 H   0  0  0  0  0  0  0  0  0  0  0  0
   36.9520   27.7080   43.7440 Cl  0  0  0  0  0  0  0  0  0  0  0  0
   38.5950   27.8200   43.1770 C   0  0  0  0  0  0  0  0  0  0  0  0
   38.8900   28.6300   42.1030 C   0  0  0  0  0  0  0  0  0  0  0  0
   40.2240   28.6000   41.7790 C   0  0  0  0  0  0  0  0  0  0  0  0
   40.6260   29.1680   40.9740 H   0  0  0  0  0  0  0  0  0  0  0  0
   41.1740   27.8520   42.4380 C   0  0  0  0  0  3  0  0  0  0  0  0
   40.8210   27.0600   43.5050 C   0  0  0  0  0  0  0  0  0  0  0  0
   42.0020   26.1070   44.3550 Cl  0  0  0  0  0  0  0  0  0  0  0  0
   39.4890   27.0500   43.8790 C   0  0  0  0  0  0  0  0  0  0  0  0
   39.2270   26.4240   44.7180 H   0  0  0  0  0  0  0  0  0  0  0  0
   33.6700   28.4000   37.4140 C   0  0  0  0  0  0  0  0  0  0  0  0
   33.9830   27.3530   37.1490 H   0  0  0  0  0  0  0  0  0  0  0  0
   32.8150   28.3260   38.0860 H   0  0  0  0  0  0  0  0  0  0  0  0
   33.3670   29.1200   36.1390 C   0  0  1  0  0  0  0  0  0  0  0  0
   32.3920   28.4700   35.2130 C   0  0  0  0  0  0  0  0  0  0  0  0
   32.0100   29.6810   35.9130 C   0  0  1  0  0  0  0  0  0  0  0  0
   34.2140   29.6530   35.6410 H   0  0  0  0  0  0  0  0  0  0  0  0
   32.5870   28.4620   34.1090 H   0  0  0  0  0  0  0  0  0  0  0  0
   31.8780   27.5280   35.5550 H   0  0  0  0  0  0  0  0  0  0  0  0
   31.9700   30.6100   35.2660 H   0  0  0  0  0  0  0  0  0  0  0  0
   31.0890   29.7460   37.0660 C   0  0  0  0  0  0  0  0  0  0  0  0
   29.6100   30.0260   36.6850 C   0  0  0  0  0  0  0  0  0  0  0  0
   30.4120   31.1150   37.3090 C   0  0  0  0  0  0  0  0  0  0  0  0
   31.2550   29.1240   37.9580 H   0  0  0  0  0  0  0  0  0  0  0  0
   28.8770   29.5610   37.3770 H   0  0  0  0  0  0  0  0  0  0  0  0
   29.3720   30.1110   35.6110 H   0  0  0  0  0  0  0  0  0  0  0  0
   30.3010   31.3930   38.3590 H   0  0  0  0  0  0  0  0  0  0  0  0
   30.7670   31.9610   36.6800 H   0  0  0  0  0  0  0  0  0  0  0  0
  1  7  1  0  0  0  0
  2  1  2  0  0  0  0
  3  4  1  0  0  0  0
  4  5  2  0  0  0  0
  4 10  1  0  0  0  0
  5 13  1  0  0  0  0
  6  5  1  0  0  0  0
  7  6  2  0  0  0  0
  8  7  1  0  0  0  0
  8  3  2  0  0  0  0
  9  3  1  0  0  0  0
 12 11  1  0  0  0  0
 12 19  1  0  0  0  0
 13 12  2  0  0  0  0
 14 13  1  0  0  0  0
 14 16  2  0  0  0  0
 15 14  1  0  0  0  0
 16 17  1  0  0  0  0
 17 19  2  0  0  0  0
 17 18  1  0  0  0  0
 19 20  1  0  0  0  0
 21 23  1  0  0  0  0
 21  2  1  0  0  0  0
 22 21  1  0  0  0  0
 24 27  1  6  0  0  0
 24 21  1  0  0  0  0
 25 29  1  0  0  0  0
 25 26  1  0  0  0  0
 25 24  1  0  0  0  0
 26 30  1  6  0  0  0
 26 24  1  0  0  0  0
 26 31  1  0  0  0  0
 28 25  1  0  0  0  0
 31 33  1  0  0  0  0
 31 34  1  0  0  0  0
 32 31  1  0  0  0  0
 32 33  1  0  0  0  0
 32 35  1  0  0  0  0
 33 37  1  0  0  0  0
 36 32  1  0  0  0  0
 38 33  1  0  0  0  0
M  END
>  <minimizedAffinity>
-5.3079586

$$$$
