
 OpenBabel03252506343D

 34 36  0  0  1  0  0  0  0  0999 V2000
   44.4320   35.7120   44.9670 C   0  0  0  0  0  0  0  0  0  0  0  0
   45.1060   35.7230   43.7370 C   0  0  0  0  0  0  0  0  0  0  0  0
   46.0640   34.7830   43.4990 C   0  0  0  0  0  0  0  0  0  0  0  0
   46.2980   33.8880   44.4930 N   0  0  0  0  0  0  0  0  0  0  0  0
   45.6580   33.8830   45.6530 C   0  0  0  0  0  0  0  0  0  0  0  0
   44.7220   34.7880   45.9060 N   0  0  0  0  0  0  0  0  0  0  0  0
   45.9970   32.8880   46.6160 N   0  0  0  0  0  0  0  0  0  0  0  0
   45.2000   32.5660   47.7860 C   0  0  0  0  0  0  0  0  0  0  0  0
   46.2830   32.2920   48.8180 C   0  0  0  0  0  0  0  0  0  0  0  0
   47.5830   32.2020   48.0870 C   0  0  0  0  0  0  0  0  0  0  0  0
   47.1550   32.0230   46.6380 C   0  0  1  0  0  0  0  0  0  0  0  0
   43.6620   36.4770   45.1420 H   0  0  0  0  0  0  0  0  0  0  0  0
   46.5780   34.7850   42.5700 H   0  0  0  0  0  0  0  0  0  0  0  0
   44.5820   31.6750   47.5860 H   0  0  0  0  0  0  0  0  0  0  0  0
   44.6340   33.4420   48.1110 H   0  0  0  0  0  0  0  0  0  0  0  0
   46.2730   33.0200   49.6500 H   0  0  0  0  0  0  0  0  0  0  0  0
   46.0510   31.2750   49.2500 H   0  0  0  0  0  0  0  0  0  0  0  0
   48.2710   31.4280   48.4440 H   0  0  0  0  0  0  0  0  0  0  0  0
   48.0980   33.1980   48.1330 H   0  0  0  0  0  0  0  0  0  0  0  0
   47.9070   32.3870   45.9300 H   0  0  0  0  0  0  0  0  0  0  0  0
   44.7270   36.7470   42.7990 N   0  0  0  0  0  0  0  0  0  0  0  0
   44.6900   37.7420   43.0840 H   0  0  0  0  0  0  0  0  0  0  0  0
   44.5130   36.3530   41.8600 H   0  0  0  0  0  0  0  0  0  0  0  0
   46.7160   30.2880   46.3970 S   0  0  0  0  0  0  0  0  0  0  0  0
   48.7470   30.1050   44.0770 Cl  0  0  0  0  0  0  0  0  0  0  0  0
   49.0750   29.3090   45.6210 C   0  0  0  0  0  0  0  0  0  0  0  0
   48.2100   29.3450   46.7160 C   0  0  0  0  0  0  0  0  0  0  0  0
   48.5580   28.6910   47.8780 C   0  0  0  0  0  0  0  0  0  0  0  0
   47.8210   28.7810   48.6630 H   0  0  0  0  0  0  0  0  0  0  0  0
   49.7490   28.0160   47.9420 C   0  0  0  0  0  3  0  0  0  0  0  0
   50.6110   27.9770   46.8630 C   0  0  0  0  0  0  0  0  0  0  0  0
   52.1290   27.1090   46.9590 Cl  0  0  0  0  0  0  0  0  0  0  0  0
   50.2760   28.6320   45.6790 C   0  0  0  0  0  0  0  0  0  0  0  0
   50.9720   28.5890   44.8330 H   0  0  0  0  0  0  0  0  0  0  0  0
  1 12  1  0  0  0  0
  1  6  1  0  0  0  0
  2  1  2  0  0  0  0
  3  2  1  0  0  0  0
  3  4  2  0  0  0  0
  4  5  1  0  0  0  0
  5  6  2  0  0  0  0
  5  7  1  0  0  0  0
  7 11  1  0  0  0  0
  7  8  1  0  0  0  0
  8 15  1  0  0  0  0
  8  9  1  0  0  0  0
  9 17  1  0  0  0  0
  9 16  1  0  0  0  0
 10 19  1  0  0  0  0
 10 18  1  0  0  0  0
 10  9  1  0  0  0  0
 11 20  1  6  0  0  0
 11 10  1  0  0  0  0
 13  3  1  0  0  0  0
 14  8  1  0  0  0  0
 21 22  1  0  0  0  0
 21  2  1  0  0  0  0
 23 21  1  0  0  0  0
 24 11  1  0  0  0  0
 24 27  1  0  0  0  0
 25 26  1  0  0  0  0
 26 33  2  0  0  0  0
 26 27  1  0  0  0  0
 27 28  2  0  0  0  0
 28 30  1  0  0  0  0
 28 29  1  0  0  0  0
 31 32  1  0  0  0  0
 31 30  2  0  0  0  0
 33 31  1  0  0  0  0
 34 33  1  0  0  0  0
M  END
>  <minimizedAffinity>
-5.26247263

>  <minimizedRMSD>
0.986490488

$$$$
