
 OpenBabel03252505413D

 29 31  0  0  1  0  0  0  0  0999 V2000
   38.7590   28.7830   43.1180 C   0  0  1  0  0  0  0  0  0  0  0  0
   37.3150   28.4990   43.6080 C   0  0  0  0  0  0  0  0  0  0  0  0
   38.3580   27.4700   43.6090 C   0  0  1  0  0  0  0  0  0  0  0  0
   39.3250   29.5050   43.7320 H   0  0  0  0  0  0  0  0  0  0  0  0
   37.0820   29.0670   44.5590 H   0  0  0  0  0  0  0  0  0  0  0  0
   36.5570   28.6940   42.8580 H   0  0  0  0  0  0  0  0  0  0  0  0
   38.7360   27.2890   44.6960 H   0  0  0  0  0  0  0  0  0  0  0  0
   40.8970   25.5990   43.3840 Cl  0  0  0  0  0  0  0  0  0  0  0  0
   39.3350   25.2800   42.6750 C   0  0  0  0  0  0  0  0  0  0  0  0
   38.3530   26.2120   42.8930 C   0  0  0  0  0  0  0  0  0  0  0  0
   37.1510   25.8350   42.2650 C   0  0  0  0  0  0  0  0  0  0  0  0
   36.2730   26.4790   42.3480 H   0  0  0  0  0  0  0  0  0  0  0  0
   36.9820   24.6830   41.5300 C   0  0  0  0  0  3  0  0  0  0  0  0
   38.0280   23.8020   41.3640 C   0  0  0  0  0  0  0  0  0  0  0  0
   37.7690   22.3680   40.4330 Cl  0  0  0  0  0  0  0  0  0  0  0  0
   39.2310   24.1190   41.9560 C   0  0  0  0  0  0  0  0  0  0  0  0
   40.0540   23.4430   41.8360 H   0  0  0  0  0  0  0  0  0  0  0  0
   38.8510   29.1140   41.6660 C   0  0  0  0  0  0  0  0  0  0  0  0
   39.9010   28.5780   40.9190 C   0  0  0  0  0  0  0  0  0  0  0  0
   39.9410   28.8710   39.5760 C   0  0  0  0  0  0  0  0  0  0  0  0
   38.9700   29.6570   39.0460 N   0  0  0  0  0  0  0  0  0  0  0  0
   37.9750   30.1560   39.7950 C   0  0  0  0  0  0  0  0  0  0  0  0
   37.9090   29.8850   41.1230 N   0  0  0  0  0  0  0  0  0  0  0  0
   40.6970   27.9650   41.2450 H   0  0  0  0  0  0  0  0  0  0  0  0
   40.7160   28.5030   38.9060 H   0  0  0  0  0  0  0  0  0  0  0  0
   37.0000   30.9970   39.0240 C   0  0  0  0  0  0  0  0  0  0  0  0
   37.5670   31.5170   37.8770 F   0  0  0  0  0  0  0  0  0  0  0  0
   36.5620   32.0640   39.8110 F   0  0  0  0  0  0  0  0  0  0  0  0
   35.8750   30.2330   38.7370 F   0  0  0  0  0  0  0  0  0  0  0  0
  1  2  1  0  0  0  0
  1  3  1  0  0  0  0
  1  4  1  1  0  0  0
  2  3  1  0  0  0  0
  2  5  1  0  0  0  0
  3  7  1  1  0  0  0
  6  2  1  0  0  0  0
  9 10  1  0  0  0  0
  9  8  1  0  0  0  0
 10  3  1  0  0  0  0
 11 12  1  0  0  0  0
 11 10  2  0  0  0  0
 13 11  1  0  0  0  0
 14 13  2  0  0  0  0
 14 16  1  0  0  0  0
 15 14  1  0  0  0  0
 16  9  2  0  0  0  0
 17 16  1  0  0  0  0
 18  1  1  0  0  0  0
 19 24  1  0  0  0  0
 19 18  2  0  0  0  0
 20 19  1  0  0  0  0
 21 20  2  0  0  0  0
 21 22  1  0  0  0  0
 22 23  2  0  0  0  0
 23 18  1  0  0  0  0
 25 20  1  0  0  0  0
 26 22  1  0  0  0  0
 26 28  1  0  0  0  0
 27 26  1  0  0  0  0
 29 26  1  0  0  0  0
M  END
>  <minimizedAffinity>
-5.69867849

$$$$

 OpenBabel03252505413D

 29 31  0  0  1  0  0  0  0  0999 V2000
   37.3320   28.7020   43.3710 C   0  0  1  0  0  0  0  0  0  0  0  0
   36.5550   27.3960   43.6800 C   0  0  0  0  0  0  0  0  0  0  0  0
   38.0090   27.4180   43.5000 C   0  0  1  0  0  0  0  0  0  0  0  0
   37.3150   29.4550   44.1790 H   0  0  0  0  0  0  0  0  0  0  0  0
   36.1160   27.4130   44.7220 H   0  0  0  0  0  0  0  0  0  0  0  0
   35.7880   27.1670   42.9500 H   0  0  0  0  0  0  0  0  0  0  0  0
   38.5380   27.3190   44.5340 H   0  0  0  0  0  0  0  0  0  0  0  0
   36.9940   24.7880   42.0670 Cl  0  0  0  0  0  0  0  0  0  0  0  0
   38.5280   25.5710   41.7840 C   0  0  0  0  0  0  0  0  0  0  0  0
   38.7830   26.7130   42.5010 C   0  0  0  0  0  0  0  0  0  0  0  0
   40.0490   27.2370   42.1800 C   0  0  0  0  0  0  0  0  0  0  0  0
   40.3970   28.1490   42.6720 H   0  0  0  0  0  0  0  0  0  0  0  0
   40.9170   26.6800   41.2690 C   0  0  0  0  0  3  0  0  0  0  0  0
   40.5750   25.5280   40.5940 C   0  0  0  0  0  0  0  0  0  0  0  0
   41.6970   24.8650   39.4570 Cl  0  0  0  0  0  0  0  0  0  0  0  0
   39.3460   24.9690   40.8660 C   0  0  0  0  0  0  0  0  0  0  0  0
   39.0650   24.0730   40.3490 H   0  0  0  0  0  0  0  0  0  0  0  0
   36.9900   29.3130   42.0520 C   0  0  0  0  0  0  0  0  0  0  0  0
   36.0210   28.6990   41.2580 C   0  0  0  0  0  0  0  0  0  0  0  0
   35.7000   29.3020   40.0650 C   0  0  0  0  0  0  0  0  0  0  0  0
   36.3330   30.4500   39.7190 N   0  0  0  0  0  0  0  0  0  0  0  0
   37.2620   31.0130   40.5070 C   0  0  0  0  0  0  0  0  0  0  0  0
   37.5990   30.4410   41.6900 N   0  0  0  0  0  0  0  0  0  0  0  0
   35.4830   27.8080   41.4440 H   0  0  0  0  0  0  0  0  0  0  0  0
   34.9580   28.9040   39.3740 H   0  0  0  0  0  0  0  0  0  0  0  0
   37.8400   32.2810   39.9520 C   0  0  0  0  0  0  0  0  0  0  0  0
   38.8980   32.0300   39.0980 F   0  0  0  0  0  0  0  0  0  0  0  0
   38.3070   33.0890   40.9900 F   0  0  0  0  0  0  0  0  0  0  0  0
   36.8320   32.9980   39.3190 F   0  0  0  0  0  0  0  0  0  0  0  0
  1  3  1  0  0  0  0
  1  2  1  0  0  0  0
  1  4  1  1  0  0  0
  2  5  1  0  0  0  0
  3  2  1  0  0  0  0
  3  7  1  1  0  0  0
  6  2  1  0  0  0  0
  9  8  1  0  0  0  0
  9 10  1  0  0  0  0
 10  3  1  0  0  0  0
 11 10  2  0  0  0  0
 11 12  1  0  0  0  0
 13 11  1  0  0  0  0
 14 16  1  0  0  0  0
 14 13  2  0  0  0  0
 15 14  1  0  0  0  0
 16  9  2  0  0  0  0
 17 16  1  0  0  0  0
 18  1  1  0  0  0  0
 19 24  1  0  0  0  0
 19 18  2  0  0  0  0
 20 19  1  0  0  0  0
 21 20  2  0  0  0  0
 21 22  1  0  0  0  0
 22 23  2  0  0  0  0
 23 18  1  0  0  0  0
 25 20  1  0  0  0  0
 26 22  1  0  0  0  0
 26 28  1  0  0  0  0
 27 26  1  0  0  0  0
 29 26  1  0  0  0  0
M  END
>  <minimizedAffinity>
-5.66449881

$$$$

 OpenBabel03252505413D

 29 31  0  0  1  0  0  0  0  0999 V2000
   37.7840   28.6690   42.8120 C   0  0  1  0  0  0  0  0  0  0  0  0
   36.8310   27.8040   43.6780 C   0  0  0  0  0  0  0  0  0  0  0  0
   37.9910   27.2360   42.9870 C   0  0  1  0  0  0  0  0  0  0  0  0
   38.3570   29.4290   43.3710 H   0  0  0  0  0  0  0  0  0  0  0  0
   36.9050   28.0780   44.7730 H   0  0  0  0  0  0  0  0  0  0  0  0
   35.7980   27.8390   43.3500 H   0  0  0  0  0  0  0  0  0  0  0  0
   38.8430   27.0210   43.7520 H   0  0  0  0  0  0  0  0  0  0  0  0
   40.0170   27.2020   40.5590 Cl  0  0  0  0  0  0  0  0  0  0  0  0
   38.7680   26.0200   40.8550 C   0  0  0  0  0  0  0  0  0  0  0  0
   37.9920   26.2040   41.9720 C   0  0  0  0  0  0  0  0  0  0  0  0
   37.0270   25.1870   42.0890 C   0  0  0  0  0  0  0  0  0  0  0  0
   36.3300   25.1970   42.9310 H   0  0  0  0  0  0  0  0  0  0  0  0
   36.8790   24.1450   41.2020 C   0  0  0  0  0  3  0  0  0  0  0  0
   37.7060   24.0400   40.1050 C   0  0  0  0  0  0  0  0  0  0  0  0
   37.4840   22.7130   39.0170 Cl  0  0  0  0  0  0  0  0  0  0  0  0
   38.6720   25.0080   39.9380 C   0  0  0  0  0  0  0  0  0  0  0  0
   39.3230   24.9410   39.0890 H   0  0  0  0  0  0  0  0  0  0  0  0
   37.1370   29.2550   41.6010 C   0  0  0  0  0  0  0  0  0  0  0  0
   35.9730   28.6640   41.1080 C   0  0  0  0  0  0  0  0  0  0  0  0
   35.3790   29.2460   40.0130 C   0  0  0  0  0  0  0  0  0  0  0  0
   35.9440   30.3530   39.4700 N   0  0  0  0  0  0  0  0  0  0  0  0
   37.0660   30.8940   39.9700 C   0  0  0  0  0  0  0  0  0  0  0  0
   37.6750   30.3420   41.0500 N   0  0  0  0  0  0  0  0  0  0  0  0
   35.4680   27.8060   41.4610 H   0  0  0  0  0  0  0  0  0  0  0  0
   34.4690   28.8640   39.5520 H   0  0  0  0  0  0  0  0  0  0  0  0
   37.5300   32.1160   39.2340 C   0  0  0  0  0  0  0  0  0  0  0  0
   38.8870   32.3230   39.3880 F   0  0  0  0  0  0  0  0  0  0  0  0
   36.8640   33.2450   39.7140 F   0  0  0  0  0  0  0  0  0  0  0  0
   37.1800   31.9950   37.8940 F   0  0  0  0  0  0  0  0  0  0  0  0
  1  3  1  0  0  0  0
  1  4  1  1  0  0  0
  1  2  1  0  0  0  0
  2  5  1  0  0  0  0
  3  2  1  0  0  0  0
  3  7  1  1  0  0  0
  6  2  1  0  0  0  0
  8  9  1  0  0  0  0
  9 10  1  0  0  0  0
 10 11  2  0  0  0  0
 10  3  1  0  0  0  0
 11 12  1  0  0  0  0
 13 11  1  0  0  0  0
 14 13  2  0  0  0  0
 15 14  1  0  0  0  0
 16 14  1  0  0  0  0
 16  9  2  0  0  0  0
 17 16  1  0  0  0  0
 18  1  1  0  0  0  0
 19 24  1  0  0  0  0
 19 18  1  0  0  0  0
 20 19  2  0  0  0  0
 21 22  2  0  0  0  0
 21 20  1  0  0  0  0
 22 23  1  0  0  0  0
 23 18  2  0  0  0  0
 25 20  1  0  0  0  0
 26 27  1  0  0  0  0
 26 28  1  0  0  0  0
 26 22  1  0  0  0  0
 29 26  1  0  0  0  0
M  END
>  <minimizedAffinity>
-5.63106632

$$$$

 OpenBabel03252505413D

 29 31  0  0  1  0  0  0  0  0999 V2000
   37.7280   28.4800   43.4460 C   0  0  1  0  0  0  0  0  0  0  0  0
   38.6620   29.6250   42.9740 C   0  0  0  0  0  0  0  0  0  0  0  0
   37.3060   29.4540   42.4470 C   0  0  1  0  0  0  0  0  0  0  0  0
   37.4210   28.5380   44.5050 H   0  0  0  0  0  0  0  0  0  0  0  0
   38.8540   30.3700   43.8040 H   0  0  0  0  0  0  0  0  0  0  0  0
   39.5990   29.2750   42.5570 H   0  0  0  0  0  0  0  0  0  0  0  0
   36.5970   30.2560   42.9080 H   0  0  0  0  0  0  0  0  0  0  0  0
   39.3970   28.9480   40.1290 Cl  0  0  0  0  0  0  0  0  0  0  0  0
   37.6630   28.9870   39.9410 C   0  0  0  0  0  0  0  0  0  0  0  0
   36.9210   29.2130   41.0730 C   0  0  0  0  0  0  0  0  0  0  0  0
   35.5440   29.2230   40.7800 C   0  0  0  0  0  0  0  0  0  0  0  0
   34.8220   29.3930   41.5820 H   0  0  0  0  0  0  0  0  0  0  0  0
   35.0110   29.0310   39.5250 C   0  0  0  0  0  3  0  0  0  0  0  0
   35.8360   28.8090   38.4440 C   0  0  0  0  0  0  0  0  0  0  0  0
   35.1210   28.5720   36.8860 Cl  0  0  0  0  0  0  0  0  0  0  0  0
   37.1950   28.7880   38.6700 C   0  0  0  0  0  0  0  0  0  0  0  0
   37.8490   28.6170   37.8380 H   0  0  0  0  0  0  0  0  0  0  0  0
   38.2190   27.1150   43.0940 C   0  0  0  0  0  0  0  0  0  0  0  0
   39.3990   26.6540   43.6800 C   0  0  0  0  0  0  0  0  0  0  0  0
   39.8090   25.3790   43.3650 C   0  0  0  0  0  0  0  0  0  0  0  0
   39.0570   24.6400   42.5120 N   0  0  0  0  0  0  0  0  0  0  0  0
   37.9270   25.1170   41.9670 C   0  0  0  0  0  0  0  0  0  0  0  0
   37.4980   26.3700   42.2580 N   0  0  0  0  0  0  0  0  0  0  0  0
   40.0460   27.1570   44.3460 H   0  0  0  0  0  0  0  0  0  0  0  0
   40.7130   24.9250   43.7670 H   0  0  0  0  0  0  0  0  0  0  0  0
   37.2380   24.1450   41.0560 C   0  0  0  0  0  0  0  0  0  0  0  0
   37.2330   24.5850   39.7460 F   0  0  0  0  0  0  0  0  0  0  0  0
   35.9110   23.9720   41.4560 F   0  0  0  0  0  0  0  0  0  0  0  0
   37.8490   22.9020   41.1750 F   0  0  0  0  0  0  0  0  0  0  0  0
  1  4  1  1  0  0  0
  2  1  1  0  0  0  0
  2  5  1  0  0  0  0
  3  7  1  1  0  0  0
  3  2  1  0  0  0  0
  3  1  1  0  0  0  0
  6  2  1  0  0  0  0
  9  8  1  0  0  0  0
  9 10  1  0  0  0  0
 10  3  1  0  0  0  0
 11 10  2  0  0  0  0
 11 12  1  0  0  0  0
 13 11  1  0  0  0  0
 14 16  1  0  0  0  0
 14 13  2  0  0  0  0
 15 14  1  0  0  0  0
 16  9  2  0  0  0  0
 17 16  1  0  0  0  0
 18  1  1  0  0  0  0
 18 19  1  0  0  0  0
 19 24  1  0  0  0  0
 20 19  2  0  0  0  0
 20 25  1  0  0  0  0
 21 20  1  0  0  0  0
 22 23  1  0  0  0  0
 22 21  2  0  0  0  0
 23 18  2  0  0  0  0
 26 29  1  0  0  0  0
 26 28  1  0  0  0  0
 26 22  1  0  0  0  0
 27 26  1  0  0  0  0
M  END
>  <minimizedAffinity>
-5.62488699

$$$$

 OpenBabel03252505413D

 29 31  0  0  1  0  0  0  0  0999 V2000
   37.4760   28.7000   43.3560 C   0  0  1  0  0  0  0  0  0  0  0  0
   36.5930   27.4580   43.6470 C   0  0  0  0  0  0  0  0  0  0  0  0
   38.0460   27.3640   43.4800 C   0  0  1  0  0  0  0  0  0  0  0  0
   37.5120   29.4450   44.1710 H   0  0  0  0  0  0  0  0  0  0  0  0
   36.1460   27.5030   44.6850 H   0  0  0  0  0  0  0  0  0  0  0  0
   35.8160   27.2980   42.9080 H   0  0  0  0  0  0  0  0  0  0  0  0
   38.5550   27.2140   44.5170 H   0  0  0  0  0  0  0  0  0  0  0  0
   36.9390   24.6920   42.2010 Cl  0  0  0  0  0  0  0  0  0  0  0  0
   38.4700   25.4400   41.8240 C   0  0  0  0  0  0  0  0  0  0  0  0
   38.7690   26.6060   42.4810 C   0  0  0  0  0  0  0  0  0  0  0  0
   40.0270   27.0980   42.0880 C   0  0  0  0  0  0  0  0  0  0  0  0
   40.4070   28.0240   42.5260 H   0  0  0  0  0  0  0  0  0  0  0  0
   40.8510   26.4910   41.1670 C   0  0  0  0  0  3  0  0  0  0  0  0
   40.4660   25.3170   40.5550 C   0  0  0  0  0  0  0  0  0  0  0  0
   41.5330   24.5900   39.4030 Cl  0  0  0  0  0  0  0  0  0  0  0  0
   39.2420   24.7880   40.9000 C   0  0  0  0  0  0  0  0  0  0  0  0
   38.9290   23.8750   40.4330 H   0  0  0  0  0  0  0  0  0  0  0  0
   37.1970   29.3470   42.0400 C   0  0  0  0  0  0  0  0  0  0  0  0
   38.0120   30.4000   41.6230 C   0  0  0  0  0  0  0  0  0  0  0  0
   37.7540   30.9540   40.3900 C   0  0  0  0  0  0  0  0  0  0  0  0
   36.7340   30.4570   39.6480 N   0  0  0  0  0  0  0  0  0  0  0  0
   35.9700   29.4420   40.0820 C   0  0  0  0  0  0  0  0  0  0  0  0
   36.1990   28.8760   41.2930 N   0  0  0  0  0  0  0  0  0  0  0  0
   38.8200   30.8520   42.1320 H   0  0  0  0  0  0  0  0  0  0  0  0
   38.3300   31.7780   39.9720 H   0  0  0  0  0  0  0  0  0  0  0  0
   34.8990   29.0340   39.1140 C   0  0  0  0  0  0  0  0  0  0  0  0
   33.6350   29.2040   39.6460 F   0  0  0  0  0  0  0  0  0  0  0  0
   35.0460   27.6870   38.7770 F   0  0  0  0  0  0  0  0  0  0  0  0
   35.0580   29.7530   37.9350 F   0  0  0  0  0  0  0  0  0  0  0  0
  1  3  1  0  0  0  0
  1  2  1  0  0  0  0
  1  4  1  1  0  0  0
  2  5  1  0  0  0  0
  3  2  1  0  0  0  0
  3  7  1  1  0  0  0
  6  2  1  0  0  0  0
  9  8  1  0  0  0  0
  9 10  1  0  0  0  0
 10  3  1  0  0  0  0
 11 10  2  0  0  0  0
 11 12  1  0  0  0  0
 13 11  1  0  0  0  0
 14 16  1  0  0  0  0
 14 13  2  0  0  0  0
 15 14  1  0  0  0  0
 16  9  2  0  0  0  0
 17 16  1  0  0  0  0
 18  1  1  0  0  0  0
 19 18  1  0  0  0  0
 19 24  1  0  0  0  0
 20 19  2  0  0  0  0
 21 22  2  0  0  0  0
 21 20  1  0  0  0  0
 22 23  1  0  0  0  0
 23 18  2  0  0  0  0
 25 20  1  0  0  0  0
 26 27  1  0  0  0  0
 26 22  1  0  0  0  0
 28 26  1  0  0  0  0
 29 26  1  0  0  0  0
M  END
>  <minimizedAffinity>
-5.60383368

$$$$

 OpenBabel03252505413D

 29 31  0  0  1  0  0  0  0  0999 V2000
   37.7530   28.5130   43.0860 C   0  0  1  0  0  0  0  0  0  0  0  0
   36.5740   27.6930   43.6710 C   0  0  0  0  0  0  0  0  0  0  0  0
   37.8850   27.0970   43.4050 C   0  0  1  0  0  0  0  0  0  0  0  0
   38.1330   29.3140   43.7450 H   0  0  0  0  0  0  0  0  0  0  0  0
   36.3110   28.0350   44.7170 H   0  0  0  0  0  0  0  0  0  0  0  0
   35.6920   27.6940   43.0410 H   0  0  0  0  0  0  0  0  0  0  0  0
   38.4600   26.9390   44.4070 H   0  0  0  0  0  0  0  0  0  0  0  0
   40.7240   26.6960   42.0690 Cl  0  0  0  0  0  0  0  0  0  0  0  0
   39.3340   25.6680   41.8280 C   0  0  0  0  0  0  0  0  0  0  0  0
   38.1890   26.0040   42.5060 C   0  0  0  0  0  0  0  0  0  0  0  0
   37.1500   25.0990   42.2200 C   0  0  0  0  0  0  0  0  0  0  0  0
   36.1710   25.2350   42.6870 H   0  0  0  0  0  0  0  0  0  0  0  0
   37.2650   24.0190   41.3740 C   0  0  0  0  0  3  0  0  0  0  0  0
   38.4580   23.7590   40.7340 C   0  0  0  0  0  0  0  0  0  0  0  0
   38.5560   22.3910   39.6800 Cl  0  0  0  0  0  0  0  0  0  0  0  0
   39.5120   24.6120   40.9760 C   0  0  0  0  0  0  0  0  0  0  0  0
   40.4470   24.4220   40.4860 H   0  0  0  0  0  0  0  0  0  0  0  0
   37.5120   29.0150   41.7010 C   0  0  0  0  0  0  0  0  0  0  0  0
   38.5090   29.7660   41.0760 C   0  0  0  0  0  0  0  0  0  0  0  0
   38.2760   30.1850   39.7870 C   0  0  0  0  0  0  0  0  0  0  0  0
   37.1030   29.8550   39.1920 N   0  0  0  0  0  0  0  0  0  0  0  0
   36.1660   29.1320   39.8240 C   0  0  0  0  0  0  0  0  0  0  0  0
   36.3670   28.7040   41.0950 N   0  0  0  0  0  0  0  0  0  0  0  0
   39.4440   30.0720   41.4610 H   0  0  0  0  0  0  0  0  0  0  0  0
   38.9880   30.7750   39.2110 H   0  0  0  0  0  0  0  0  0  0  0  0
   34.9430   28.8680   38.9950 C   0  0  0  0  0  0  0  0  0  0  0  0
   34.8960   27.5590   38.5550 F   0  0  0  0  0  0  0  0  0  0  0  0
   34.9360   29.7000   37.8740 F   0  0  0  0  0  0  0  0  0  0  0  0
   33.8150   29.1990   39.7370 F   0  0  0  0  0  0  0  0  0  0  0  0
  1  3  1  0  0  0  0
  1  2  1  0  0  0  0
  1  4  1  1  0  0  0
  2  5  1  0  0  0  0
  3  2  1  0  0  0  0
  3  7  1  1  0  0  0
  6  2  1  0  0  0  0
  9  8  1  0  0  0  0
  9 10  1  0  0  0  0
 10  3  1  0  0  0  0
 11 10  2  0  0  0  0
 11 12  1  0  0  0  0
 13 11  1  0  0  0  0
 14 16  1  0  0  0  0
 14 13  2  0  0  0  0
 15 14  1  0  0  0  0
 16  9  2  0  0  0  0
 17 16  1  0  0  0  0
 18  1  1  0  0  0  0
 19 24  1  0  0  0  0
 19 18  2  0  0  0  0
 20 19  1  0  0  0  0
 21 20  2  0  0  0  0
 21 22  1  0  0  0  0
 22 23  2  0  0  0  0
 23 18  1  0  0  0  0
 25 20  1  0  0  0  0
 26 29  1  0  0  0  0
 26 22  1  0  0  0  0
 27 26  1  0  0  0  0
 28 26  1  0  0  0  0
M  END
>  <minimizedAffinity>
-5.48600101

$$$$

 OpenBabel03252505413D

 29 31  0  0  1  0  0  0  0  0999 V2000
   38.4810   28.3020   42.6040 C   0  0  1  0  0  0  0  0  0  0  0  0
   37.1480   28.3540   43.3960 C   0  0  0  0  0  0  0  0  0  0  0  0
   37.2760   27.6340   42.1270 C   0  0  1  0  0  0  0  0  0  0  0  0
   39.3020   27.7660   43.1120 H   0  0  0  0  0  0  0  0  0  0  0  0
   37.2270   27.7910   44.3750 H   0  0  0  0  0  0  0  0  0  0  0  0
   36.7870   29.3610   43.5690 H   0  0  0  0  0  0  0  0  0  0  0  0
   37.3210   26.4860   42.3240 H   0  0  0  0  0  0  0  0  0  0  0  0
   38.0010   26.2420   39.3810 Cl  0  0  0  0  0  0  0  0  0  0  0  0
   36.7090   27.3890   39.6280 C   0  0  0  0  0  0  0  0  0  0  0  0
   36.5470   27.8770   40.9000 C   0  0  0  0  0  0  0  0  0  0  0  0
   35.4780   28.7900   40.9580 C   0  0  0  0  0  0  0  0  0  0  0  0
   35.2250   29.2670   41.9090 H   0  0  0  0  0  0  0  0  0  0  0  0
   34.6970   29.1480   39.8830 C   0  0  0  0  0  3  0  0  0  0  0  0
   34.9330   28.6050   38.6380 C   0  0  0  0  0  0  0  0  0  0  0  0
   33.9250   29.0830   37.3160 Cl  0  0  0  0  0  0  0  0  0  0  0  0
   35.9680   27.7030   38.5200 C   0  0  0  0  0  0  0  0  0  0  0  0
   36.1640   27.2720   37.5590 H   0  0  0  0  0  0  0  0  0  0  0  0
   38.9320   29.6290   42.0910 C   0  0  0  0  0  0  0  0  0  0  0  0
   40.1410   30.1530   42.5520 C   0  0  0  0  0  0  0  0  0  0  0  0
   40.5490   31.3600   42.0360 C   0  0  0  0  0  0  0  0  0  0  0  0
   39.7690   31.9780   41.1150 N   0  0  0  0  0  0  0  0  0  0  0  0
   38.6110   31.4460   40.6960 C   0  0  0  0  0  0  0  0  0  0  0  0
   38.1810   30.2560   41.1870 N   0  0  0  0  0  0  0  0  0  0  0  0
   40.8070   29.7460   43.2650 H   0  0  0  0  0  0  0  0  0  0  0  0
   41.4750   31.8530   42.3280 H   0  0  0  0  0  0  0  0  0  0  0  0
   37.8970   32.2790   39.6720 C   0  0  0  0  0  0  0  0  0  0  0  0
   36.8300   31.6010   39.1140 F   0  0  0  0  0  0  0  0  0  0  0  0
   38.7730   32.6250   38.6420 F   0  0  0  0  0  0  0  0  0  0  0  0
   37.4930   33.4710   40.2620 F   0  0  0  0  0  0  0  0  0  0  0  0
  1  4  1  1  0  0  0
  1  2  1  0  0  0  0
  2  6  1  0  0  0  0
  2  5  1  0  0  0  0
  3  7  1  1  0  0  0
  3  1  1  0  0  0  0
  3  2  1  0  0  0  0
  8  9  1  0  0  0  0
  9 10  1  0  0  0  0
 10 11  2  0  0  0  0
 10  3  1  0  0  0  0
 11 12  1  0  0  0  0
 13 11  1  0  0  0  0
 14 13  2  0  0  0  0
 15 14  1  0  0  0  0
 16 14  1  0  0  0  0
 16  9  2  0  0  0  0
 17 16  1  0  0  0  0
 18 19  1  0  0  0  0
 18  1  1  0  0  0  0
 19 24  1  0  0  0  0
 20 25  1  0  0  0  0
 20 19  2  0  0  0  0
 21 20  1  0  0  0  0
 22 21  2  0  0  0  0
 22 23  1  0  0  0  0
 23 18  2  0  0  0  0
 26 29  1  0  0  0  0
 26 22  1  0  0  0  0
 27 26  1  0  0  0  0
 28 26  1  0  0  0  0
M  END
>  <minimizedAffinity>
-5.42381382

$$$$

 OpenBabel03252505413D

 29 31  0  0  1  0  0  0  0  0999 V2000
   36.9600   31.5340   40.6620 C   0  0  1  0  0  0  0  0  0  0  0  0
   37.7730   32.2430   39.5480 C   0  0  0  0  0  0  0  0  0  0  0  0
   36.6000   31.4170   39.2550 C   0  0  1  0  0  0  0  0  0  0  0  0
   36.4380   32.2120   41.3600 H   0  0  0  0  0  0  0  0  0  0  0  0
   37.6690   33.3680   39.6130 H   0  0  0  0  0  0  0  0  0  0  0  0
   38.8200   31.9620   39.5310 H   0  0  0  0  0  0  0  0  0  0  0  0
   35.6910   32.0980   38.9910 H   0  0  0  0  0  0  0  0  0  0  0  0
   34.3520   29.2140   39.5670 Cl  0  0  0  0  0  0  0  0  0  0  0  0
   35.6770   29.1600   38.4320 C   0  0  0  0  0  0  0  0  0  0  0  0
   36.5480   30.2200   38.4430 C   0  0  0  0  0  0  0  0  0  0  0  0
   37.5650   30.0470   37.4860 C   0  0  0  0  0  0  0  0  0  0  0  0
   38.3380   30.8110   37.3760 H   0  0  0  0  0  0  0  0  0  0  0  0
   37.6740   28.9600   36.6490 C   0  0  0  0  0  3  0  0  0  0  0  0
   36.7500   27.9390   36.7090 C   0  0  0  0  0  0  0  0  0  0  0  0
   36.9270   26.5930   35.6370 Cl  0  0  0  0  0  0  0  0  0  0  0  0
   35.7300   28.0530   37.6270 C   0  0  0  0  0  0  0  0  0  0  0  0
   35.0030   27.2670   37.6850 H   0  0  0  0  0  0  0  0  0  0  0  0
   37.7260   30.4830   41.3950 C   0  0  0  0  0  0  0  0  0  0  0  0
   39.0330   30.7620   41.7980 C   0  0  0  0  0  0  0  0  0  0  0  0
   39.7030   29.7890   42.5030 C   0  0  0  0  0  0  0  0  0  0  0  0
   39.0700   28.6200   42.7700 N   0  0  0  0  0  0  0  0  0  0  0  0
   37.8120   28.3860   42.3660 C   0  0  0  0  0  0  0  0  0  0  0  0
   37.1260   29.3260   41.6690 N   0  0  0  0  0  0  0  0  0  0  0  0
   39.6020   31.6360   41.6320 H   0  0  0  0  0  0  0  0  0  0  0  0
   40.7240   29.9070   42.8620 H   0  0  0  0  0  0  0  0  0  0  0  0
   37.2900   27.0370   42.7650 C   0  0  0  0  0  0  0  0  0  0  0  0
   38.2900   26.2290   43.2710 F   0  0  0  0  0  0  0  0  0  0  0  0
   36.7350   26.3930   41.6580 F   0  0  0  0  0  0  0  0  0  0  0  0
   36.2560   27.2050   43.6800 F   0  0  0  0  0  0  0  0  0  0  0  0
  1  4  1  1  0  0  0
  1 18  1  0  0  0  0
  2  5  1  0  0  0  0
  2  1  1  0  0  0  0
  3  7  1  6  0  0  0
  3  2  1  0  0  0  0
  3  1  1  0  0  0  0
  6  2  1  0  0  0  0
  9 10  1  0  0  0  0
  9  8  1  0  0  0  0
 10  3  1  0  0  0  0
 11 10  2  0  0  0  0
 12 11  1  0  0  0  0
 13 14  2  0  0  0  0
 13 11  1  0  0  0  0
 14 16  1  0  0  0  0
 15 14  1  0  0  0  0
 16 17  1  0  0  0  0
 16  9  2  0  0  0  0
 18 23  2  0  0  0  0
 18 19  1  0  0  0  0
 19 20  2  0  0  0  0
 20 21  1  0  0  0  0
 20 25  1  0  0  0  0
 22 26  1  0  0  0  0
 22 21  2  0  0  0  0
 23 22  1  0  0  0  0
 24 19  1  0  0  0  0
 26 27  1  0  0  0  0
 26 29  1  0  0  0  0
 28 26  1  0  0  0  0
M  END
>  <minimizedAffinity>
-5.4228673

$$$$

 OpenBabel03252505413D

 29 31  0  0  1  0  0  0  0  0999 V2000
   35.5120   30.1400   40.5180 C   0  0  1  0  0  0  0  0  0  0  0  0
   34.8180   29.0520   39.6580 C   0  0  0  0  0  0  0  0  0  0  0  0
   35.5520   28.7290   40.8840 C   0  0  1  0  0  0  0  0  0  0  0  0
   34.8270   30.8630   40.9940 H   0  0  0  0  0  0  0  0  0  0  0  0
   33.6920   29.1590   39.6860 H   0  0  0  0  0  0  0  0  0  0  0  0
   35.1690   29.0240   38.6330 H   0  0  0  0  0  0  0  0  0  0  0  0
   34.8030   28.4920   41.7440 H   0  0  0  0  0  0  0  0  0  0  0  0
   37.6800   29.0460   43.2020 Cl  0  0  0  0  0  0  0  0  0  0  0  0
   37.7370   27.8560   41.9270 C   0  0  0  0  0  0  0  0  0  0  0  0
   36.7120   27.8740   41.0150 C   0  0  0  0  0  0  0  0  0  0  0  0
   36.8830   26.8700   40.0440 C   0  0  0  0  0  0  0  0  0  0  0  0
   36.1450   26.7580   39.2460 H   0  0  0  0  0  0  0  0  0  0  0  0
   37.9390   25.9870   40.0110 C   0  0  0  0  0  3  0  0  0  0  0  0
   38.9260   26.0430   40.9720 C   0  0  0  0  0  0  0  0  0  0  0  0
   40.2320   24.9120   40.8910 Cl  0  0  0  0  0  0  0  0  0  0  0  0
   38.8110   27.0070   41.9500 C   0  0  0  0  0  0  0  0  0  0  0  0
   39.5710   27.0640   42.7040 H   0  0  0  0  0  0  0  0  0  0  0  0
   36.6390   30.8330   39.8260 C   0  0  0  0  0  0  0  0  0  0  0  0
   36.7540   30.7090   38.4400 C   0  0  0  0  0  0  0  0  0  0  0  0
   37.7800   31.3860   37.8240 C   0  0  0  0  0  0  0  0  0  0  0  0
   38.6210   32.1330   38.5810 N   0  0  0  0  0  0  0  0  0  0  0  0
   38.4810   32.2290   39.9120 C   0  0  0  0  0  0  0  0  0  0  0  0
   37.4790   31.5720   40.5480 N   0  0  0  0  0  0  0  0  0  0  0  0
   36.1520   30.1500   37.7750 H   0  0  0  0  0  0  0  0  0  0  0  0
   37.9570   31.3560   36.7500 H   0  0  0  0  0  0  0  0  0  0  0  0
   39.5060   33.1060   40.5680 C   0  0  0  0  0  0  0  0  0  0  0  0
   38.9220   34.1600   41.2440 F   0  0  0  0  0  0  0  0  0  0  0  0
   40.3670   33.6370   39.6050 F   0  0  0  0  0  0  0  0  0  0  0  0
   40.2920   32.3300   41.4110 F   0  0  0  0  0  0  0  0  0  0  0  0
  1  3  1  0  0  0  0
  1  4  1  1  0  0  0
  2  5  1  0  0  0  0
  2  1  1  0  0  0  0
  2  3  1  0  0  0  0
  3 10  1  0  0  0  0
  3  7  1  1  0  0  0
  6  2  1  0  0  0  0
  9 16  1  0  0  0  0
  9  8  1  0  0  0  0
 10  9  2  0  0  0  0
 11 10  1  0  0  0  0
 12 11  1  0  0  0  0
 13 11  2  0  0  0  0
 13 14  1  0  0  0  0
 14 16  2  0  0  0  0
 15 14  1  0  0  0  0
 16 17  1  0  0  0  0
 18  1  1  0  0  0  0
 18 23  1  0  0  0  0
 19 18  2  0  0  0  0
 20 19  1  0  0  0  0
 20 21  2  0  0  0  0
 21 22  1  0  0  0  0
 22 23  2  0  0  0  0
 22 26  1  0  0  0  0
 24 19  1  0  0  0  0
 25 20  1  0  0  0  0
 26 27  1  0  0  0  0
 26 29  1  0  0  0  0
 28 26  1  0  0  0  0
M  END
>  <minimizedAffinity>
-5.38557673

$$$$
