
 OpenBabel03252508463D

 46 48  0  0  0  0  0  0  0  0999 V2000
   42.6870   31.3640   42.6140 N   0  0  0  0  0  0  0  0  0  0  0  0
   42.9640   31.6360   43.5960 H   0  0  0  0  0  0  0  0  0  0  0  0
   42.9750   32.4190   41.6940 C   0  0  0  0  0  0  0  0  0  0  0  0
   43.4630   31.9960   40.7950 H   0  0  0  0  0  0  0  0  0  0  0  0
   42.0430   32.9210   41.3310 H   0  0  0  0  0  0  0  0  0  0  0  0
   43.6670   34.8210   41.9200 C   0  0  0  0  0  0  0  0  0  0  0  0
   43.8810   33.4740   42.2380 C   0  0  0  0  0  0  0  0  0  0  0  0
   44.9410   33.1580   43.0600 C   0  0  0  0  0  0  0  0  0  0  0  0
   45.7590   34.1350   43.5480 C   0  0  0  0  0  0  0  0  0  0  0  0
   45.5680   35.4660   43.2480 C   0  0  0  0  0  0  0  0  0  0  0  0
   44.4920   35.7540   42.4190 C   0  0  0  0  0  0  0  0  0  0  0  0
   45.0610   32.1030   43.2740 H   0  0  0  0  0  0  0  0  0  0  0  0
   46.5690   33.8050   44.1850 H   0  0  0  0  0  0  0  0  0  0  0  0
   46.2350   36.2090   43.6540 H   0  0  0  0  0  0  0  0  0  0  0  0
   44.3080   36.7890   42.1600 H   0  0  0  0  0  0  0  0  0  0  0  0
   40.2600   35.7120   40.5620 C   0  0  0  0  0  0  0  0  0  0  0  0
   41.2760   35.4640   41.5070 C   0  0  0  0  0  0  0  0  0  0  0  0
   42.5390   35.1020   41.0510 C   0  0  0  0  0  0  0  0  0  0  0  0
   42.7080   35.0100   39.6980 N   0  0  0  0  0  0  0  0  0  0  0  0
   41.7150   35.2530   38.8080 C   0  0  0  0  0  0  0  0  0  0  0  0
   40.5020   35.6010   39.2540 N   0  0  0  0  0  0  0  0  0  0  0  0
   39.3450   35.9770   41.0490 H   0  0  0  0  0  0  0  0  0  0  0  0
   41.1790   35.5250   42.5630 H   0  0  0  0  0  0  0  0  0  0  0  0
   41.8350   35.1820   37.7480 H   0  0  0  0  0  0  0  0  0  0  0  0
   41.0130   30.9800   42.6760 S   0  0  0  0  0  0  0  0  0  0  0  0
   40.1690   32.2100   42.4330 O   0  0  0  0  0  0  0  0  0  0  0  0
   40.0470   32.6200   41.5280 H   0  0  0  0  0  0  0  0  0  0  0  0
   40.6500   30.3310   43.9580 O   0  0  0  0  0  0  0  0  0  0  0  0
   41.1650   30.2470   44.7940 H   0  0  0  0  0  0  0  0  0  0  0  0
   40.7320   29.8810   41.4320 O   0  0  0  0  0  0  0  0  0  0  0  0
   39.5170   29.2740   41.6300 C   0  0  0  0  0  0  0  0  0  0  0  0
   38.9090   29.4520   40.7190 H   0  0  0  0  0  0  0  0  0  0  0  0
   38.9270   29.6350   42.4820 H   0  0  0  0  0  0  0  0  0  0  0  0
   39.7310   27.7550   41.7680 C   0  0  0  0  0  0  0  0  0  0  0  0
   39.9840   27.5880   42.8160 H   0  0  0  0  0  0  0  0  0  0  0  0
   40.5960   27.5060   41.1600 H   0  0  0  0  0  0  0  0  0  0  0  0
   39.5610   24.7320   42.2650 Cl  0  0  0  0  0  0  0  0  0  0  0  0
   38.3050   25.6810   41.4990 C   0  0  0  0  0  0  0  0  0  0  0  0
   38.5060   27.0340   41.3440 C   0  0  0  0  0  0  0  0  0  0  0  0
   37.5100   27.8060   40.7370 C   0  0  0  0  0  0  0  0  0  0  0  0
   37.6470   28.8730   40.6080 H   0  0  0  0  0  0  0  0  0  0  0  0
   36.3310   27.2430   40.2900 C   0  0  0  0  0  3  0  0  0  0  0  0
   36.1710   25.8930   40.4620 C   0  0  0  0  0  0  0  0  0  0  0  0
   34.6550   25.1960   39.8780 Cl  0  0  0  0  0  0  0  0  0  0  0  0
   37.1280   25.0810   41.0580 C   0  0  0  0  0  0  0  0  0  0  0  0
   36.9570   24.0010   41.1790 H   0  0  0  0  0  0  0  0  0  0  0  0
  1 25  1  0  0  0  0
  1  2  1  0  0  0  0
  3  7  1  0  0  0  0
  3  1  1  0  0  0  0
  4  3  1  0  0  0  0
  5  3  1  0  0  0  0
  6  7  2  0  0  0  0
  6 11  1  0  0  0  0
  7  8  1  0  0  0  0
  8 12  1  0  0  0  0
  8  9  2  0  0  0  0
  9 13  1  0  0  0  0
 10  9  1  0  0  0  0
 10 14  1  0  0  0  0
 11 10  2  0  0  0  0
 15 11  1  0  0  0  0
 16 22  1  0  0  0  0
 16 17  1  0  0  0  0
 17 23  1  0  0  0  0
 18 17  2  0  0  0  0
 18  6  1  0  0  0  0
 19 18  1  0  0  0  0
 20 21  1  0  0  0  0
 20 19  2  0  0  0  0
 21 16  2  0  0  0  0
 24 20  1  0  0  0  0
 25 28  1  0  0  0  0
 26 25  1  0  0  0  0
 27 26  1  0  0  0  0
 28 29  1  0  0  0  0
 30 31  1  0  0  0  0
 30 25  1  0  0  0  0
 31 34  1  0  0  0  0
 31 33  1  0  0  0  0
 32 31  1  0  0  0  0
 34 35  1  0  0  0  0
 36 34  1  0  0  0  0
 38 37  1  0  0  0  0
 39 38  1  0  0  0  0
 39 34  1  0  0  0  0
 40 39  2  0  0  0  0
 41 40  1  0  0  0  0
 42 43  2  0  0  0  0
 42 40  1  0  0  0  0
 43 45  1  0  0  0  0
 44 43  1  0  0  0  0
 45 46  1  0  0  0  0
 45 38  2  0  0  0  0
M  END
>  <minimizedAffinity>
-5.38177299

>  <minimizedRMSD>
1.75678539

$$$$
