
 OpenBabel03252503083D

 28 30  0  0  1  0  0  0  0  0999 V2000
   45.0430   35.8400   43.7290 C   0  0  0  0  0  0  0  0  0  0  0  0
   45.7140   34.6520   43.3370 C   0  0  0  0  0  0  0  0  0  0  0  0
   45.8090   33.6950   44.3370 C   0  0  0  0  0  0  0  0  0  0  0  0
   45.3080   33.8840   45.5650 N   0  0  0  0  0  0  0  0  0  0  0  0
   44.6720   35.0490   45.8890 C   0  0  0  0  0  0  0  0  0  0  0  0
   44.5510   36.0150   44.9540 N   0  0  0  0  0  0  0  0  0  0  0  0
   44.9380   36.6320   42.9830 H   0  0  0  0  0  0  0  0  0  0  0  0
   44.2890   35.1460   46.8920 H   0  0  0  0  0  0  0  0  0  0  0  0
   46.4340   32.4890   44.0370 C   0  0  0  0  0  0  0  0  0  0  0  0
   47.7160   32.0800   43.8680 C   0  0  0  0  0  0  0  0  0  0  0  0
   48.0850   30.8470   43.5570 C   0  0  0  0  0  0  0  0  0  0  0  0
   47.0680   29.9430   43.4030 C   0  0  0  0  0  0  0  0  0  0  0  0
   45.5750   30.9650   43.7300 S   0  0  0  0  0  0  0  0  0  0  0  0
   48.6200   32.6530   43.9900 H   0  0  0  0  0  0  0  0  0  0  0  0
   48.9740   30.2910   43.3740 H   0  0  0  0  0  0  0  0  0  0  0  0
   46.8500   28.9270   43.1760 H   0  0  0  0  0  0  0  0  0  0  0  0
   46.2010   34.5410   42.0140 C   0  0  2  0  0  3  0  0  0  0  0  0
   47.1470   35.4250   41.7800 O   0  0  0  0  0  1  0  0  0  0  0  0
   43.6770   35.5470   40.9560 Cl  0  0  0  0  0  0  0  0  0  0  0  0
   44.5900   34.1260   40.3960 C   0  0  0  0  0  0  0  0  0  0  0  0
   45.8190   33.6350   40.8870 C   0  0  0  0  0  0  0  0  0  0  0  0
   46.2980   32.5160   40.2670 C   0  0  0  0  0  0  0  0  0  0  0  0
   47.2230   32.2160   40.7280 H   0  0  0  0  0  0  0  0  0  0  0  0
   45.6510   31.8910   39.2340 C   0  0  0  0  0  3  0  0  0  0  0  0
   44.4530   32.3760   38.7600 C   0  0  0  0  0  0  0  0  0  0  0  0
   43.7490   31.4690   37.4380 Cl  0  0  0  0  0  0  0  0  0  0  0  0
   43.9110   33.5010   39.3390 C   0  0  0  0  0  0  0  0  0  0  0  0
   42.9760   33.8050   38.9050 H   0  0  0  0  0  0  0  0  0  0  0  0
  1  6  1  0  0  0  0
  2  1  2  0  0  0  0
  2  3  1  0  0  0  0
  3  4  2  0  0  0  0
  4  5  1  0  0  0  0
  5  8  1  0  0  0  0
  6  5  2  0  0  0  0
  7  1  1  0  0  0  0
  9  3  1  0  0  0  0
 10 14  1  0  0  0  0
 10  9  2  0  0  0  0
 11 10  1  0  0  0  0
 12 11  2  0  0  0  0
 12 13  1  0  0  0  0
 13  9  1  0  0  0  0
 15 11  1  0  0  0  0
 16 12  1  0  0  0  0
 17 18  1  6  0  0  0
 17  2  1  0  0  0  0
 20 21  1  0  0  0  0
 20 19  1  0  0  0  0
 21 17  1  0  0  0  0
 22 23  1  0  0  0  0
 22 21  2  0  0  0  0
 24 22  1  0  0  0  0
 25 24  2  0  0  0  0
 25 27  1  0  0  0  0
 26 25  1  0  0  0  0
 27 20  2  0  0  0  0
 28 27  1  0  0  0  0
M  END
>  <minimizedAffinity>
-4.40668058

>  <minimizedRMSD>
1.05469382

$$$$
