
 OpenBabel03252503083D

 28 30  0  0  1  0  0  0  0  0999 V2000
   45.2450   35.9670   43.5680 C   0  0  0  0  0  0  0  0  0  0  0  0
   45.9060   34.7450   43.2770 C   0  0  0  0  0  0  0  0  0  0  0  0
   45.8470   33.8070   44.2980 C   0  0  0  0  0  0  0  0  0  0  0  0
   45.2170   34.0430   45.4570 N   0  0  0  0  0  0  0  0  0  0  0  0
   44.5960   35.2390   45.6840 C   0  0  0  0  0  0  0  0  0  0  0  0
   44.6230   36.1880   44.7250 N   0  0  0  0  0  0  0  0  0  0  0  0
   45.2580   36.7450   42.8000 H   0  0  0  0  0  0  0  0  0  0  0  0
   44.1050   35.3740   46.6340 H   0  0  0  0  0  0  0  0  0  0  0  0
   46.4510   32.5710   44.0940 C   0  0  0  0  0  0  0  0  0  0  0  0
   47.7250   32.1050   44.0980 C   0  0  0  0  0  0  0  0  0  0  0  0
   48.0760   30.8530   43.8490 C   0  0  0  0  0  0  0  0  0  0  0  0
   47.0490   29.9910   43.5710 C   0  0  0  0  0  0  0  0  0  0  0  0
   45.5730   31.0810   43.6900 S   0  0  0  0  0  0  0  0  0  0  0  0
   48.6300   32.6400   44.3330 H   0  0  0  0  0  0  0  0  0  0  0  0
   48.9560   30.2570   43.7900 H   0  0  0  0  0  0  0  0  0  0  0  0
   46.8180   28.9830   43.3260 H   0  0  0  0  0  0  0  0  0  0  0  0
   46.5370   34.5850   42.0210 C   0  0  2  0  0  3  0  0  0  0  0  0
   47.4380   35.5230   41.8190 O   0  0  0  0  0  1  0  0  0  0  0  0
   43.9490   35.1670   40.8090 Cl  0  0  0  0  0  0  0  0  0  0  0  0
   45.0800   33.8660   40.3640 C   0  0  0  0  0  0  0  0  0  0  0  0
   46.3400   33.5810   40.9310 C   0  0  0  0  0  0  0  0  0  0  0  0
   47.0010   32.5140   40.3920 C   0  0  0  0  0  0  0  0  0  0  0  0
   47.9370   32.3710   40.9050 H   0  0  0  0  0  0  0  0  0  0  0  0
   46.4980   31.7530   39.3690 C   0  0  0  0  0  3  0  0  0  0  0  0
   45.2680   32.0370   38.8230 C   0  0  0  0  0  0  0  0  0  0  0  0
   44.7630   30.9770   37.5250 Cl  0  0  0  0  0  0  0  0  0  0  0  0
   44.5460   33.0990   39.3170 C   0  0  0  0  0  0  0  0  0  0  0  0
   43.5990   33.2460   38.8300 H   0  0  0  0  0  0  0  0  0  0  0  0
  1  6  1  0  0  0  0
  2  1  2  0  0  0  0
  2  3  1  0  0  0  0
  3  4  2  0  0  0  0
  4  5  1  0  0  0  0
  5  8  1  0  0  0  0
  6  5  2  0  0  0  0
  7  1  1  0  0  0  0
  9 10  2  0  0  0  0
  9  3  1  0  0  0  0
 10 14  1  0  0  0  0
 11 10  1  0  0  0  0
 12 13  1  0  0  0  0
 12 11  2  0  0  0  0
 13  9  1  0  0  0  0
 15 11  1  0  0  0  0
 16 12  1  0  0  0  0
 17 18  1  6  0  0  0
 17  2  1  0  0  0  0
 20 19  1  0  0  0  0
 20 21  1  0  0  0  0
 21 17  1  0  0  0  0
 22 23  1  0  0  0  0
 22 21  2  0  0  0  0
 24 22  1  0  0  0  0
 25 27  1  0  0  0  0
 25 24  2  0  0  0  0
 26 25  1  0  0  0  0
 27 20  2  0  0  0  0
 28 27  1  0  0  0  0
M  END
>  <minimizedAffinity>
-4.38910818

>  <minimizedRMSD>
0.816730499

$$$$
