
 OpenBabel03252506393D

 45 48  0  0  1  0  0  0  0  0999 V2000
   43.0730   33.8550   38.9820 C   0  0  0  0  0  0  0  0  0  0  0  0
   42.3940   33.4130   37.8400 C   0  0  0  0  0  0  0  0  0  0  0  0
   41.5950   32.3250   37.9260 C   0  0  0  0  0  0  0  0  0  0  0  0
   41.5000   31.7210   39.1360 N   0  0  0  0  0  0  0  0  0  0  0  0
   42.1440   32.1430   40.2130 C   0  0  0  0  0  0  0  0  0  0  0  0
   42.9360   33.2110   40.1560 N   0  0  0  0  0  0  0  0  0  0  0  0
   41.9740   31.4230   41.4460 N   0  0  0  0  0  0  0  0  0  0  0  0
   42.4090   31.8920   42.7140 C   0  0  0  0  0  0  0  0  0  0  0  0
   42.8750   30.6250   43.4090 C   0  0  0  0  0  0  0  0  0  0  0  0
   42.4900   29.4900   42.5130 C   0  0  0  0  0  0  0  0  0  0  0  0
   41.3940   30.1160   41.6500 C   0  0  1  0  0  0  0  0  0  0  0  0
   43.7000   34.7180   38.8940 H   0  0  0  0  0  0  0  0  0  0  0  0
   41.0620   31.9620   37.0630 H   0  0  0  0  0  0  0  0  0  0  0  0
   41.8680   32.5150   43.3520 H   0  0  0  0  0  0  0  0  0  0  0  0
   43.3880   32.4380   42.5200 H   0  0  0  0  0  0  0  0  0  0  0  0
   43.9020   30.6420   43.7590 H   0  0  0  0  0  0  0  0  0  0  0  0
   42.2250   30.5150   44.3280 H   0  0  0  0  0  0  0  0  0  0  0  0
   42.1260   28.6290   43.0940 H   0  0  0  0  0  0  0  0  0  0  0  0
   43.3840   29.2540   41.8970 H   0  0  0  0  0  0  0  0  0  0  0  0
   41.3040   29.5250   40.7090 H   0  0  0  0  0  0  0  0  0  0  0  0
   42.5920   34.1550   36.6230 N   0  0  0  0  0  0  0  0  0  0  0  0
   43.5480   34.3460   36.2760 H   0  0  0  0  0  0  0  0  0  0  0  0
   41.6660   34.4170   36.2300 H   0  0  0  0  0  0  0  0  0  0  0  0
   39.8900   30.1920   42.5940 S   0  0  0  0  0  0  0  0  0  0  0  0
   40.0700   27.3080   40.9270 O   0  0  0  0  0  0  0  0  0  0  0  0
   39.0930   27.7670   41.5410 C   0  0  0  0  0  0  0  0  0  0  0  0
   38.6580   29.0120   42.2210 C   0  0  1  0  0  0  0  0  0  0  0  0
   37.9000   28.4670   43.4070 C   0  0  0  0  0  0  0  0  0  0  0  0
   36.9650   27.5280   42.6380 C   0  0  0  0  0  0  0  0  0  0  0  0
   37.9360   26.9310   41.7280 N   0  0  0  0  0  0  0  0  0  0  0  0
   37.8120   29.3170   41.5480 H   0  0  0  0  0  0  0  0  0  0  0  0
   38.5460   27.8670   44.0800 H   0  0  0  0  0  0  0  0  0  0  0  0
   37.3430   29.2670   43.8970 H   0  0  0  0  0  0  0  0  0  0  0  0
   36.4780   26.8110   43.3010 H   0  0  0  0  0  0  0  0  0  0  0  0
   36.2280   28.1460   42.0860 H   0  0  0  0  0  0  0  0  0  0  0  0
   39.2160   24.4500   42.9270 Cl  0  0  0  0  0  0  0  0  0  0  0  0
   38.0690   24.4430   41.6060 C   0  0  0  0  0  0  0  0  0  0  0  0
   37.5860   25.6410   41.1830 C   0  0  0  0  0  0  0  0  0  0  0  0
   36.6820   25.6380   40.1420 C   0  0  0  0  0  0  0  0  0  0  0  0
   36.2530   26.5750   39.7530 H   0  0  0  0  0  0  0  0  0  0  0  0
   36.2260   24.4960   39.4920 C   0  0  0  0  0  3  0  0  0  0  0  0
   36.7330   23.2710   39.9380 C   0  0  0  0  0  0  0  0  0  0  0  0
   36.2080   21.7890   39.1690 Cl  0  0  0  0  0  0  0  0  0  0  0  0
   37.6340   23.2940   40.9780 C   0  0  0  0  0  0  0  0  0  0  0  0
   38.0270   22.3310   41.3220 H   0  0  0  0  0  0  0  0  0  0  0  0
  1  6  1  0  0  0  0
  2  3  1  0  0  0  0
  2  1  2  0  0  0  0
  3  4  2  0  0  0  0
  4  5  1  0  0  0  0
  5  7  1  0  0  0  0
  6  5  2  0  0  0  0
  7 11  1  0  0  0  0
  7  8  1  0  0  0  0
  8 14  1  0  0  0  0
  8  9  1  0  0  0  0
  9 16  1  0  0  0  0
  9 17  1  0  0  0  0
 10 18  1  0  0  0  0
 10  9  1  0  0  0  0
 11 20  1  6  0  0  0
 11 10  1  0  0  0  0
 11 24  1  0  0  0  0
 12  1  1  0  0  0  0
 13  3  1  0  0  0  0
 15  8  1  0  0  0  0
 19 10  1  0  0  0  0
 21  2  1  0  0  0  0
 22 21  1  0  0  0  0
 23 21  1  0  0  0  0
 25 26  2  0  0  0  0
 26 30  1  0  0  0  0
 26 27  1  0  0  0  0
 27 31  1  6  0  0  0
 27 24  1  0  0  0  0
 27 28  1  0  0  0  0
 28 33  1  0  0  0  0
 28 32  1  0  0  0  0
 29 34  1  0  0  0  0
 29 28  1  0  0  0  0
 30 29  1  0  0  0  0
 35 29  1  0  0  0  0
 37 36  1  0  0  0  0
 38 37  1  0  0  0  0
 38 30  1  0  0  0  0
 39 38  2  0  0  0  0
 40 39  1  0  0  0  0
 41 42  2  0  0  0  0
 41 39  1  0  0  0  0
 42 44  1  0  0  0  0
 43 42  1  0  0  0  0
 44 45  1  0  0  0  0
 44 37  2  0  0  0  0
M  END
>  <minimizedAffinity>
-6.11186552

$$$$

 OpenBabel03252506393D

 45 48  0  0  1  0  0  0  0  0999 V2000
   37.1540   30.3720   36.7070 C   0  0  0  0  0  0  0  0  0  0  0  0
   37.9760   29.2720   36.4330 C   0  0  0  0  0  0  0  0  0  0  0  0
   39.0250   29.0120   37.2460 C   0  0  0  0  0  0  0  0  0  0  0  0
   39.2180   29.8470   38.2950 N   0  0  0  0  0  0  0  0  0  0  0  0
   38.4380   30.8860   38.5510 C   0  0  0  0  0  0  0  0  0  0  0  0
   37.3990   31.1650   37.7680 N   0  0  0  0  0  0  0  0  0  0  0  0
   38.7370   31.7110   39.6900 N   0  0  0  0  0  0  0  0  0  0  0  0
   37.8650   32.7020   40.2140 C   0  0  0  0  0  0  0  0  0  0  0  0
   38.8160   33.8020   40.6510 C   0  0  0  0  0  0  0  0  0  0  0  0
   40.1970   33.2500   40.4920 C   0  0  0  0  0  0  0  0  0  0  0  0
   39.9440   31.7420   40.4840 C   0  0  1  0  0  0  0  0  0  0  0  0
   36.3290   30.5620   36.0540 H   0  0  0  0  0  0  0  0  0  0  0  0
   39.6740   28.1720   37.0570 H   0  0  0  0  0  0  0  0  0  0  0  0
   37.1040   32.5390   40.9080 H   0  0  0  0  0  0  0  0  0  0  0  0
   37.3520   33.1670   39.3110 H   0  0  0  0  0  0  0  0  0  0  0  0
   38.6280   34.7760   40.2110 H   0  0  0  0  0  0  0  0  0  0  0  0
   38.6660   33.9200   41.7650 H   0  0  0  0  0  0  0  0  0  0  0  0
   40.8490   33.5610   41.3240 H   0  0  0  0  0  0  0  0  0  0  0  0
   40.5630   33.5890   39.5000 H   0  0  0  0  0  0  0  0  0  0  0  0
   40.8070   31.2400   39.9890 H   0  0  0  0  0  0  0  0  0  0  0  0
   37.6490   28.4720   35.2820 N   0  0  0  0  0  0  0  0  0  0  0  0
   37.5220   28.9160   34.3550 H   0  0  0  0  0  0  0  0  0  0  0  0
   37.5800   27.4760   35.5690 H   0  0  0  0  0  0  0  0  0  0  0  0
   39.6600   31.1950   42.1520 S   0  0  0  0  0  0  0  0  0  0  0  0
   37.7430   28.7430   40.9520 O   0  0  0  0  0  0  0  0  0  0  0  0
   38.7580   28.6330   41.6600 C   0  0  0  0  0  0  0  0  0  0  0  0
   39.6990   29.4730   42.4410 C   0  0  1  0  0  0  0  0  0  0  0  0
   41.0190   28.7970   42.1640 C   0  0  0  0  0  0  0  0  0  0  0  0
   40.6050   27.3740   42.5500 C   0  0  0  0  0  0  0  0  0  0  0  0
   39.3100   27.3210   41.8810 N   0  0  0  0  0  0  0  0  0  0  0  0
   39.4800   29.1010   43.4770 H   0  0  0  0  0  0  0  0  0  0  0  0
   41.2860   28.8200   41.0880 H   0  0  0  0  0  0  0  0  0  0  0  0
   41.7870   29.1830   42.8360 H   0  0  0  0  0  0  0  0  0  0  0  0
   41.3210   26.6330   42.1900 H   0  0  0  0  0  0  0  0  0  0  0  0
   40.4870   27.3330   43.6520 H   0  0  0  0  0  0  0  0  0  0  0  0
   36.7100   26.4000   43.1560 Cl  0  0  0  0  0  0  0  0  0  0  0  0
   37.6720   25.4470   42.0460 C   0  0  0  0  0  0  0  0  0  0  0  0
   38.8130   26.0040   41.5620 C   0  0  0  0  0  0  0  0  0  0  0  0
   39.5730   25.2560   40.6880 C   0  0  0  0  0  0  0  0  0  0  0  0
   40.5080   25.6490   40.2600 H   0  0  0  0  0  0  0  0  0  0  0  0
   39.2550   23.9700   40.2640 C   0  0  0  0  0  3  0  0  0  0  0  0
   38.0780   23.4100   40.7710 C   0  0  0  0  0  0  0  0  0  0  0  0
   37.6120   21.7950   40.2850 Cl  0  0  0  0  0  0  0  0  0  0  0  0
   37.3340   24.1720   41.6420 C   0  0  0  0  0  0  0  0  0  0  0  0
   36.4130   23.7280   42.0360 H   0  0  0  0  0  0  0  0  0  0  0  0
  1  6  1  0  0  0  0
  2  1  2  0  0  0  0
  2  3  1  0  0  0  0
  3  4  2  0  0  0  0
  4  5  1  0  0  0  0
  5  7  1  0  0  0  0
  6  5  2  0  0  0  0
  7  8  1  0  0  0  0
  7 11  1  0  0  0  0
  8  9  1  0  0  0  0
  8 14  1  0  0  0  0
  9 17  1  0  0  0  0
 10  9  1  0  0  0  0
 10 18  1  0  0  0  0
 11 20  1  6  0  0  0
 11 10  1  0  0  0  0
 11 24  1  0  0  0  0
 12  1  1  0  0  0  0
 13  3  1  0  0  0  0
 15  8  1  0  0  0  0
 16  9  1  0  0  0  0
 19 10  1  0  0  0  0
 21 23  1  0  0  0  0
 21  2  1  0  0  0  0
 22 21  1  0  0  0  0
 24 27  1  0  0  0  0
 25 26  2  0  0  0  0
 26 30  1  0  0  0  0
 26 27  1  0  0  0  0
 27 31  1  1  0  0  0
 28 27  1  0  0  0  0
 28 29  1  0  0  0  0
 28 33  1  0  0  0  0
 29 35  1  0  0  0  0
 30 29  1  0  0  0  0
 32 28  1  0  0  0  0
 34 29  1  0  0  0  0
 37 36  1  0  0  0  0
 38 30  1  0  0  0  0
 38 37  2  0  0  0  0
 39 38  1  0  0  0  0
 40 39  1  0  0  0  0
 41 39  2  0  0  0  0
 41 42  1  0  0  0  0
 42 44  2  0  0  0  0
 43 42  1  0  0  0  0
 44 45  1  0  0  0  0
 44 37  1  0  0  0  0
M  END
>  <minimizedAffinity>
-5.83796072

$$$$

 OpenBabel03252506393D

 45 48  0  0  1  0  0  0  0  0999 V2000
   40.1510   32.6780   38.8990 C   0  0  0  0  0  0  0  0  0  0  0  0
   39.9370   31.7500   37.8720 C   0  0  0  0  0  0  0  0  0  0  0  0
   40.2100   30.4450   38.0940 C   0  0  0  0  0  0  0  0  0  0  0  0
   40.6820   30.1100   39.3200 N   0  0  0  0  0  0  0  0  0  0  0  0
   40.8820   30.9910   40.2880 C   0  0  0  0  0  0  0  0  0  0  0  0
   40.6210   32.2820   40.0970 N   0  0  0  0  0  0  0  0  0  0  0  0
   41.3900   30.5260   41.5510 N   0  0  0  0  0  0  0  0  0  0  0  0
   41.4300   31.3090   42.7360 C   0  0  0  0  0  0  0  0  0  0  0  0
   42.7290   30.8750   43.3920 C   0  0  0  0  0  0  0  0  0  0  0  0
   43.2420   29.7240   42.5850 C   0  0  0  0  0  0  0  0  0  0  0  0
   41.9810   29.2460   41.8650 C   0  0  1  0  0  0  0  0  0  0  0  0
   39.9290   33.7060   38.7050 H   0  0  0  0  0  0  0  0  0  0  0  0
   40.0560   29.7090   37.3220 H   0  0  0  0  0  0  0  0  0  0  0  0
   40.6540   31.4100   43.4250 H   0  0  0  0  0  0  0  0  0  0  0  0
   41.6700   32.3680   42.3960 H   0  0  0  0  0  0  0  0  0  0  0  0
   43.4310   31.6770   43.5980 H   0  0  0  0  0  0  0  0  0  0  0  0
   42.4420   30.4360   44.3930 H   0  0  0  0  0  0  0  0  0  0  0  0
   43.6760   28.9460   43.2320 H   0  0  0  0  0  0  0  0  0  0  0  0
   43.9700   30.1440   41.8590 H   0  0  0  0  0  0  0  0  0  0  0  0
   42.2870   28.6710   40.9600 H   0  0  0  0  0  0  0  0  0  0  0  0
   39.4320   32.2520   36.6210 N   0  0  0  0  0  0  0  0  0  0  0  0
   39.9070   33.0370   36.1430 H   0  0  0  0  0  0  0  0  0  0  0  0
   38.5890   31.7080   36.3530 H   0  0  0  0  0  0  0  0  0  0  0  0
   40.9850   28.3120   43.0030 S   0  0  0  0  0  0  0  0  0  0  0  0
   40.0130   26.5410   40.3480 O   0  0  0  0  0  0  0  0  0  0  0  0
   39.3060   26.9560   41.2810 C   0  0  0  0  0  0  0  0  0  0  0  0
   39.3900   27.8460   42.4660 C   0  0  1  0  0  0  0  0  0  0  0  0
   38.5580   27.0940   43.4750 C   0  0  0  0  0  0  0  0  0  0  0  0
   37.3030   26.9160   42.6140 C   0  0  0  0  0  0  0  0  0  0  0  0
   37.9380   26.5150   41.3640 N   0  0  0  0  0  0  0  0  0  0  0  0
   38.6750   28.6530   42.1560 H   0  0  0  0  0  0  0  0  0  0  0  0
   38.9830   26.0970   43.7120 H   0  0  0  0  0  0  0  0  0  0  0  0
   38.3570   27.7260   44.3420 H   0  0  0  0  0  0  0  0  0  0  0  0
   36.6310   26.1660   43.0320 H   0  0  0  0  0  0  0  0  0  0  0  0
   36.8090   27.9040   42.5120 H   0  0  0  0  0  0  0  0  0  0  0  0
   37.0040   27.8690   38.8090 Cl  0  0  0  0  0  0  0  0  0  0  0  0
   36.6180   26.2240   39.2670 C   0  0  0  0  0  0  0  0  0  0  0  0
   37.1140   25.7650   40.4460 C   0  0  0  0  0  0  0  0  0  0  0  0
   36.8110   24.4700   40.8100 C   0  0  0  0  0  0  0  0  0  0  0  0
   37.1820   24.0380   41.7520 H   0  0  0  0  0  0  0  0  0  0  0  0
   36.0340   23.5970   40.0560 C   0  0  0  0  0  3  0  0  0  0  0  0
   35.5300   24.0840   38.8460 C   0  0  0  0  0  0  0  0  0  0  0  0
   34.5430   23.0450   37.8420 Cl  0  0  0  0  0  0  0  0  0  0  0  0
   35.8430   25.3790   38.5000 C   0  0  0  0  0  0  0  0  0  0  0  0
   35.4450   25.7540   37.5510 H   0  0  0  0  0  0  0  0  0  0  0  0
  1  6  1  0  0  0  0
  2  3  1  0  0  0  0
  2  1  2  0  0  0  0
  3  4  2  0  0  0  0
  4  5  1  0  0  0  0
  5  7  1  0  0  0  0
  6  5  2  0  0  0  0
  7 11  1  0  0  0  0
  7  8  1  0  0  0  0
  8  9  1  0  0  0  0
  8 14  1  0  0  0  0
  9 16  1  0  0  0  0
  9 17  1  0  0  0  0
 10 18  1  0  0  0  0
 10  9  1  0  0  0  0
 11 20  1  6  0  0  0
 11 10  1  0  0  0  0
 11 24  1  0  0  0  0
 12  1  1  0  0  0  0
 13  3  1  0  0  0  0
 15  8  1  0  0  0  0
 19 10  1  0  0  0  0
 21  2  1  0  0  0  0
 22 21  1  0  0  0  0
 23 21  1  0  0  0  0
 25 26  2  0  0  0  0
 26 30  1  0  0  0  0
 26 27  1  0  0  0  0
 27 31  1  6  0  0  0
 27 24  1  0  0  0  0
 27 28  1  0  0  0  0
 28 32  1  0  0  0  0
 28 33  1  0  0  0  0
 29 34  1  0  0  0  0
 29 28  1  0  0  0  0
 30 29  1  0  0  0  0
 35 29  1  0  0  0  0
 36 37  1  0  0  0  0
 37 38  1  0  0  0  0
 38 39  2  0  0  0  0
 38 30  1  0  0  0  0
 39 40  1  0  0  0  0
 41 39  1  0  0  0  0
 42 41  2  0  0  0  0
 43 42  1  0  0  0  0
 44 42  1  0  0  0  0
 44 37  2  0  0  0  0
 45 44  1  0  0  0  0
M  END
>  <minimizedAffinity>
-5.70795059

$$$$

 OpenBabel03252506393D

 45 48  0  0  1  0  0  0  0  0999 V2000
   38.8400   32.0370   38.9390 C   0  0  0  0  0  0  0  0  0  0  0  0
   39.5190   31.4730   37.8520 C   0  0  0  0  0  0  0  0  0  0  0  0
   39.8460   30.1610   37.8860 C   0  0  0  0  0  0  0  0  0  0  0  0
   39.4870   29.4610   38.9900 N   0  0  0  0  0  0  0  0  0  0  0  0
   38.8450   29.9990   40.0150 C   0  0  0  0  0  0  0  0  0  0  0  0
   38.5100   31.2870   40.0090 N   0  0  0  0  0  0  0  0  0  0  0  0
   38.5170   29.1640   41.1390 N   0  0  0  0  0  0  0  0  0  0  0  0
   37.6360   29.5420   42.1880 C   0  0  0  0  0  0  0  0  0  0  0  0
   38.2770   28.9200   43.4170 C   0  0  0  0  0  0  0  0  0  0  0  0
   39.4040   28.0720   42.9180 C   0  0  0  0  0  0  0  0  0  0  0  0
   39.0170   27.8470   41.4560 C   0  0  1  0  0  0  0  0  0  0  0  0
   38.5890   33.0760   38.8940 H   0  0  0  0  0  0  0  0  0  0  0  0
   40.3700   29.7010   37.0640 H   0  0  0  0  0  0  0  0  0  0  0  0
   36.6000   29.4290   42.1840 H   0  0  0  0  0  0  0  0  0  0  0  0
   37.8170   30.6530   42.3550 H   0  0  0  0  0  0  0  0  0  0  0  0
   38.5080   29.6150   44.2180 H   0  0  0  0  0  0  0  0  0  0  0  0
   37.5170   28.1940   43.8320 H   0  0  0  0  0  0  0  0  0  0  0  0
   39.4740   27.1300   43.4830 H   0  0  0  0  0  0  0  0  0  0  0  0
   40.3230   28.6920   42.9860 H   0  0  0  0  0  0  0  0  0  0  0  0
   39.9350   27.5770   40.8840 H   0  0  0  0  0  0  0  0  0  0  0  0
   39.8350   32.3390   36.7470 N   0  0  0  0  0  0  0  0  0  0  0  0
   40.3340   33.2320   36.9080 H   0  0  0  0  0  0  0  0  0  0  0  0
   39.4860   31.9090   35.8680 H   0  0  0  0  0  0  0  0  0  0  0  0
   37.7400   26.6110   41.3810 S   0  0  0  0  0  0  0  0  0  0  0  0
   35.3360   28.4400   39.9640 O   0  0  0  0  0  0  0  0  0  0  0  0
   35.9490   27.4810   39.4680 C   0  0  0  0  0  0  0  0  0  0  0  0
   36.9100   26.4190   39.8560 C   0  0  1  0  0  0  0  0  0  0  0  0
   37.7970   26.3460   38.6380 C   0  0  0  0  0  0  0  0  0  0  0  0
   36.6930   26.1720   37.5910 C   0  0  0  0  0  0  0  0  0  0  0  0
   35.7590   27.1830   38.0720 N   0  0  0  0  0  0  0  0  0  0  0  0
   36.2680   25.5100   39.7090 H   0  0  0  0  0  0  0  0  0  0  0  0
   38.3330   27.2990   38.4490 H   0  0  0  0  0  0  0  0  0  0  0  0
   38.4360   25.4620   38.6910 H   0  0  0  0  0  0  0  0  0  0  0  0
   37.0620   26.3540   36.5800 H   0  0  0  0  0  0  0  0  0  0  0  0
   36.2680   25.1530   37.6990 H   0  0  0  0  0  0  0  0  0  0  0  0
   36.4810   29.7330   36.5850 Cl  0  0  0  0  0  0  0  0  0  0  0  0
   35.0020   28.8260   36.3540 C   0  0  0  0  0  0  0  0  0  0  0  0
   34.8280   27.7030   37.0990 C   0  0  0  0  0  0  0  0  0  0  0  0
   33.6640   26.9870   36.9190 C   0  0  0  0  0  0  0  0  0  0  0  0
   33.4620   26.0680   37.4910 H   0  0  0  0  0  0  0  0  0  0  0  0
   32.6520   27.3310   36.0290 C   0  0  0  0  0  3  0  0  0  0  0  0
   32.8450   28.4900   35.2700 C   0  0  0  0  0  0  0  0  0  0  0  0
   31.6160   28.9880   34.1280 Cl  0  0  0  0  0  0  0  0  0  0  0  0
   34.0140   29.1910   35.4630 C   0  0  0  0  0  0  0  0  0  0  0  0
   34.1590   30.0970   34.8660 H   0  0  0  0  0  0  0  0  0  0  0  0
  1  6  1  0  0  0  0
  2  3  1  0  0  0  0
  2  1  2  0  0  0  0
  3  4  2  0  0  0  0
  4  5  1  0  0  0  0
  5  7  1  0  0  0  0
  6  5  2  0  0  0  0
  7 11  1  0  0  0  0
  7  8  1  0  0  0  0
  8 15  1  0  0  0  0
  8  9  1  0  0  0  0
  9 17  1  0  0  0  0
  9 16  1  0  0  0  0
 10 19  1  0  0  0  0
 10  9  1  0  0  0  0
 10 18  1  0  0  0  0
 11 20  1  6  0  0  0
 11 10  1  0  0  0  0
 12  1  1  0  0  0  0
 13  3  1  0  0  0  0
 14  8  1  0  0  0  0
 21 22  1  0  0  0  0
 21  2  1  0  0  0  0
 23 21  1  0  0  0  0
 24 11  1  0  0  0  0
 26 27  1  0  0  0  0
 26 25  2  0  0  0  0
 27 31  1  1  0  0  0
 27 24  1  0  0  0  0
 28 33  1  0  0  0  0
 28 27  1  0  0  0  0
 29 35  1  0  0  0  0
 29 30  1  0  0  0  0
 29 28  1  0  0  0  0
 30 26  1  0  0  0  0
 32 28  1  0  0  0  0
 34 29  1  0  0  0  0
 37 36  1  0  0  0  0
 37 38  1  0  0  0  0
 38 30  1  0  0  0  0
 39 38  2  0  0  0  0
 39 40  1  0  0  0  0
 41 39  1  0  0  0  0
 42 44  1  0  0  0  0
 42 41  2  0  0  0  0
 43 42  1  0  0  0  0
 44 37  2  0  0  0  0
 45 44  1  0  0  0  0
M  END
>  <minimizedAffinity>
-5.54763365

$$$$

 OpenBabel03252506393D

 45 48  0  0  1  0  0  0  0  0999 V2000
   39.0120   26.5100   42.4570 C   0  0  0  0  0  0  0  0  0  0  0  0
   37.7030   26.9360   42.7140 C   0  0  0  0  0  0  0  0  0  0  0  0
   37.4390   28.2610   42.7690 C   0  0  0  0  0  0  0  0  0  0  0  0
   38.4770   29.1090   42.5680 N   0  0  0  0  0  0  0  0  0  0  0  0
   39.7130   28.7010   42.3260 C   0  0  0  0  0  0  0  0  0  0  0  0
   40.0010   27.4030   42.2650 N   0  0  0  0  0  0  0  0  0  0  0  0
   40.7410   29.6880   42.1320 N   0  0  0  0  0  0  0  0  0  0  0  0
   42.0420   29.4040   41.6380 C   0  0  0  0  0  0  0  0  0  0  0  0
   42.9260   30.3510   42.4300 C   0  0  0  0  0  0  0  0  0  0  0  0
   42.0020   31.2390   43.2020 C   0  0  0  0  0  0  0  0  0  0  0  0
   40.6940   31.1020   42.4220 C   0  0  1  0  0  0  0  0  0  0  0  0
   39.2020   25.4580   42.4160 H   0  0  0  0  0  0  0  0  0  0  0  0
   36.4410   28.6170   42.9660 H   0  0  0  0  0  0  0  0  0  0  0  0
   42.3160   29.3560   40.6330 H   0  0  0  0  0  0  0  0  0  0  0  0
   42.3210   28.3900   42.0730 H   0  0  0  0  0  0  0  0  0  0  0  0
   43.7260   29.8760   42.9900 H   0  0  0  0  0  0  0  0  0  0  0  0
   43.4230   31.0240   41.6700 H   0  0  0  0  0  0  0  0  0  0  0  0
   42.3710   32.2760   43.2220 H   0  0  0  0  0  0  0  0  0  0  0  0
   41.9020   30.7910   44.2130 H   0  0  0  0  0  0  0  0  0  0  0  0
   39.8500   31.3840   43.0930 H   0  0  0  0  0  0  0  0  0  0  0  0
   36.7020   25.9210   42.9070 N   0  0  0  0  0  0  0  0  0  0  0  0
   36.8500   25.1650   43.5990 H   0  0  0  0  0  0  0  0  0  0  0  0
   35.9030   26.1050   42.2690 H   0  0  0  0  0  0  0  0  0  0  0  0
   40.7950   32.0900   40.9470 S   0  0  0  0  0  0  0  0  0  0  0  0
   39.5260   29.6840   39.0160 O   0  0  0  0  0  0  0  0  0  0  0  0
   39.0430   30.8060   39.2430 C   0  0  0  0  0  0  0  0  0  0  0  0
   39.4020   32.0900   39.8940 C   0  0  1  0  0  0  0  0  0  0  0  0
   38.0970   32.4830   40.5420 C   0  0  0  0  0  0  0  0  0  0  0  0
   37.2070   32.3600   39.3010 C   0  0  0  0  0  0  0  0  0  0  0  0
   37.7090   31.0930   38.7830 N   0  0  0  0  0  0  0  0  0  0  0  0
   39.4100   32.7680   38.9990 H   0  0  0  0  0  0  0  0  0  0  0  0
   37.7670   31.7460   41.3030 H   0  0  0  0  0  0  0  0  0  0  0  0
   38.1480   33.5150   40.8940 H   0  0  0  0  0  0  0  0  0  0  0  0
   36.1490   32.3450   39.5640 H   0  0  0  0  0  0  0  0  0  0  0  0
   37.4510   33.1970   38.6150 H   0  0  0  0  0  0  0  0  0  0  0  0
   35.3780   29.6020   40.0370 Cl  0  0  0  0  0  0  0  0  0  0  0  0
   35.7300   29.6460   38.3240 C   0  0  0  0  0  0  0  0  0  0  0  0
   36.8130   30.3600   37.9200 C   0  0  0  0  0  0  0  0  0  0  0  0
   37.0940   30.3960   36.5710 C   0  0  0  0  0  0  0  0  0  0  0  0
   37.9560   30.9570   36.1790 H   0  0  0  0  0  0  0  0  0  0  0  0
   36.3460   29.7540   35.5890 C   0  0  0  0  0  3  0  0  0  0  0  0
   35.2340   29.0220   36.0200 C   0  0  0  0  0  0  0  0  0  0  0  0
   34.2440   28.1850   34.8450 Cl  0  0  0  0  0  0  0  0  0  0  0  0
   34.9710   28.9980   37.3710 C   0  0  0  0  0  0  0  0  0  0  0  0
   34.0990   28.4230   37.7020 H   0  0  0  0  0  0  0  0  0  0  0  0
  1  2  1  0  0  0  0
  2  3  2  0  0  0  0
  2 21  1  0  0  0  0
  3 13  1  0  0  0  0
  4  3  1  0  0  0  0
  5  4  2  0  0  0  0
  6  5  1  0  0  0  0
  6  1  2  0  0  0  0
  7  5  1  0  0  0  0
  7 11  1  0  0  0  0
  8 15  1  0  0  0  0
  8  7  1  0  0  0  0
  8  9  1  0  0  0  0
  9 16  1  0  0  0  0
  9 10  1  0  0  0  0
 10 18  1  0  0  0  0
 10 19  1  0  0  0  0
 11 20  1  1  0  0  0
 11 10  1  0  0  0  0
 12  1  1  0  0  0  0
 14  8  1  0  0  0  0
 17  9  1  0  0  0  0
 21 22  1  0  0  0  0
 23 21  1  0  0  0  0
 24 11  1  0  0  0  0
 25 26  2  0  0  0  0
 26 27  1  0  0  0  0
 27 31  1  6  0  0  0
 27 28  1  0  0  0  0
 27 24  1  0  0  0  0
 28 33  1  0  0  0  0
 28 32  1  0  0  0  0
 29 34  1  0  0  0  0
 29 28  1  0  0  0  0
 30 26  1  0  0  0  0
 30 29  1  0  0  0  0
 35 29  1  0  0  0  0
 37 36  1  0  0  0  0
 38 37  1  0  0  0  0
 38 30  1  0  0  0  0
 39 38  2  0  0  0  0
 40 39  1  0  0  0  0
 41 42  2  0  0  0  0
 41 39  1  0  0  0  0
 42 44  1  0  0  0  0
 43 42  1  0  0  0  0
 44 45  1  0  0  0  0
 44 37  2  0  0  0  0
M  END
>  <minimizedAffinity>
-5.54343128

$$$$

 OpenBabel03252506393D

 45 48  0  0  1  0  0  0  0  0999 V2000
   42.3910   29.6660   41.8970 C   0  0  0  0  0  0  0  0  0  0  0  0
   41.6140   28.9220   42.7930 C   0  0  0  0  0  0  0  0  0  0  0  0
   40.3000   29.2140   42.9280 C   0  0  0  0  0  0  0  0  0  0  0  0
   39.8100   30.2270   42.1720 N   0  0  0  0  0  0  0  0  0  0  0  0
   40.5490   30.9280   41.3260 C   0  0  0  0  0  0  0  0  0  0  0  0
   41.8440   30.6620   41.1740 N   0  0  0  0  0  0  0  0  0  0  0  0
   39.9270   31.9850   40.5770 N   0  0  0  0  0  0  0  0  0  0  0  0
   40.5320   32.6530   39.4790 C   0  0  0  0  0  0  0  0  0  0  0  0
   40.0550   34.0860   39.6420 C   0  0  0  0  0  0  0  0  0  0  0  0
   39.0500   34.0700   40.7510 C   0  0  0  0  0  0  0  0  0  0  0  0
   38.6360   32.5980   40.7910 C   0  0  1  0  0  0  0  0  0  0  0  0
   43.4280   29.4210   41.8040 H   0  0  0  0  0  0  0  0  0  0  0  0
   39.6780   28.6580   43.6110 H   0  0  0  0  0  0  0  0  0  0  0  0
   40.5050   32.3390   38.4850 H   0  0  0  0  0  0  0  0  0  0  0  0
   41.6360   32.7330   39.7400 H   0  0  0  0  0  0  0  0  0  0  0  0
   40.8430   34.8290   39.7100 H   0  0  0  0  0  0  0  0  0  0  0  0
   39.4660   34.3280   38.7080 H   0  0  0  0  0  0  0  0  0  0  0  0
   38.2030   34.7380   40.5310 H   0  0  0  0  0  0  0  0  0  0  0  0
   39.5960   34.3470   41.6780 H   0  0  0  0  0  0  0  0  0  0  0  0
   38.2080   32.3780   41.7960 H   0  0  0  0  0  0  0  0  0  0  0  0
   42.2710   27.8760   43.5300 N   0  0  0  0  0  0  0  0  0  0  0  0
   43.1340   28.0750   44.0660 H   0  0  0  0  0  0  0  0  0  0  0  0
   41.7420   26.9900   43.4070 H   0  0  0  0  0  0  0  0  0  0  0  0
   37.5130   32.2780   39.4500 S   0  0  0  0  0  0  0  0  0  0  0  0
   38.5840   29.1410   39.0700 O   0  0  0  0  0  0  0  0  0  0  0  0
   37.4430   29.5180   39.3850 C   0  0  0  0  0  0  0  0  0  0  0  0
   36.6440   30.7640   39.4880 C   0  0  1  0  0  0  0  0  0  0  0  0
   35.8350   30.5100   40.7360 C   0  0  0  0  0  0  0  0  0  0  0  0
   35.2650   29.1450   40.3360 C   0  0  0  0  0  0  0  0  0  0  0  0
   36.4780   28.5360   39.8050 N   0  0  0  0  0  0  0  0  0  0  0  0
   35.8760   30.5700   38.6920 H   0  0  0  0  0  0  0  0  0  0  0  0
   36.4750   30.3890   41.6340 H   0  0  0  0  0  0  0  0  0  0  0  0
   35.0460   31.2570   40.8320 H   0  0  0  0  0  0  0  0  0  0  0  0
   34.8410   28.6180   41.1920 H   0  0  0  0  0  0  0  0  0  0  0  0
   34.5140   29.3040   39.5350 H   0  0  0  0  0  0  0  0  0  0  0  0
   37.4150   27.0730   42.2980 Cl  0  0  0  0  0  0  0  0  0  0  0  0
   36.9010   26.2950   40.8170 C   0  0  0  0  0  0  0  0  0  0  0  0
   36.5100   27.0930   39.7890 C   0  0  0  0  0  0  0  0  0  0  0  0
   36.1050   26.4820   38.6210 C   0  0  0  0  0  0  0  0  0  0  0  0
   35.7750   27.0710   37.7510 H   0  0  0  0  0  0  0  0  0  0  0  0
   36.0670   25.1070   38.4180 C   0  0  0  0  0  3  0  0  0  0  0  0
   36.4740   24.2990   39.4860 C   0  0  0  0  0  0  0  0  0  0  0  0
   36.4540   22.5590   39.3070 Cl  0  0  0  0  0  0  0  0  0  0  0  0
   36.8740   24.9270   40.6430 C   0  0  0  0  0  0  0  0  0  0  0  0
   37.1910   24.2890   41.4750 H   0  0  0  0  0  0  0  0  0  0  0  0
  1  2  1  0  0  0  0
  2  3  2  0  0  0  0
  2 21  1  0  0  0  0
  3 13  1  0  0  0  0
  4  3  1  0  0  0  0
  5  4  2  0  0  0  0
  6  5  1  0  0  0  0
  6  1  2  0  0  0  0
  7 11  1  0  0  0  0
  7  5  1  0  0  0  0
  8  9  1  0  0  0  0
  8 15  1  0  0  0  0
  8  7  1  0  0  0  0
  9 16  1  0  0  0  0
  9 10  1  0  0  0  0
 10 11  1  0  0  0  0
 10 19  1  0  0  0  0
 11 20  1  1  0  0  0
 12  1  1  0  0  0  0
 14  8  1  0  0  0  0
 17  9  1  0  0  0  0
 18 10  1  0  0  0  0
 21 22  1  0  0  0  0
 23 21  1  0  0  0  0
 24 27  1  0  0  0  0
 24 11  1  0  0  0  0
 25 26  2  0  0  0  0
 26 27  1  0  0  0  0
 26 30  1  0  0  0  0
 27 31  1  6  0  0  0
 27 28  1  0  0  0  0
 28 33  1  0  0  0  0
 28 32  1  0  0  0  0
 29 28  1  0  0  0  0
 29 34  1  0  0  0  0
 30 29  1  0  0  0  0
 35 29  1  0  0  0  0
 37 36  1  0  0  0  0
 38 30  1  0  0  0  0
 38 37  2  0  0  0  0
 39 38  1  0  0  0  0
 40 39  1  0  0  0  0
 41 39  2  0  0  0  0
 41 42  1  0  0  0  0
 42 44  2  0  0  0  0
 43 42  1  0  0  0  0
 44 37  1  0  0  0  0
 44 45  1  0  0  0  0
M  END
>  <minimizedAffinity>
-5.51453924

$$$$

 OpenBabel03252506393D

 45 48  0  0  1  0  0  0  0  0999 V2000
   38.4520   26.5000   36.1800 C   0  0  0  0  0  0  0  0  0  0  0  0
   37.6420   27.6420   36.2220 C   0  0  0  0  0  0  0  0  0  0  0  0
   36.8520   27.8520   37.2990 C   0  0  0  0  0  0  0  0  0  0  0  0
   36.8960   26.9270   38.2900 N   0  0  0  0  0  0  0  0  0  0  0  0
   37.6640   25.8490   38.2450 C   0  0  0  0  0  0  0  0  0  0  0  0
   38.4510   25.6180   37.1970 N   0  0  0  0  0  0  0  0  0  0  0  0
   37.6290   24.9300   39.3500 N   0  0  0  0  0  0  0  0  0  0  0  0
   38.5570   23.8730   39.5430 C   0  0  0  0  0  0  0  0  0  0  0  0
   37.6990   22.7610   40.1210 C   0  0  0  0  0  0  0  0  0  0  0  0
   36.3520   23.3610   40.3750 C   0  0  0  0  0  0  0  0  0  0  0  0
   36.6680   24.8560   40.4270 C   0  0  1  0  0  0  0  0  0  0  0  0
   39.0700   26.3510   35.3190 H   0  0  0  0  0  0  0  0  0  0  0  0
   36.2180   28.7220   37.3580 H   0  0  0  0  0  0  0  0  0  0  0  0
   39.4780   23.9510   40.0260 H   0  0  0  0  0  0  0  0  0  0  0  0
   38.7960   23.4800   38.5020 H   0  0  0  0  0  0  0  0  0  0  0  0
   37.7190   21.8280   39.5670 H   0  0  0  0  0  0  0  0  0  0  0  0
   38.1240   22.5360   41.1430 H   0  0  0  0  0  0  0  0  0  0  0  0
   35.9220   22.9910   41.3190 H   0  0  0  0  0  0  0  0  0  0  0  0
   35.7260   23.1250   39.4880 H   0  0  0  0  0  0  0  0  0  0  0  0
   35.7310   25.4230   40.2180 H   0  0  0  0  0  0  0  0  0  0  0  0
   37.6990   28.5360   35.0960 N   0  0  0  0  0  0  0  0  0  0  0  0
   37.5620   28.1780   34.1350 H   0  0  0  0  0  0  0  0  0  0  0  0
   37.8890   29.4990   35.4370 H   0  0  0  0  0  0  0  0  0  0  0  0
   37.3980   25.2380   42.0020 S   0  0  0  0  0  0  0  0  0  0  0  0
   39.6990   27.2730   40.7010 O   0  0  0  0  0  0  0  0  0  0  0  0
   38.7880   27.5680   41.4910 C   0  0  0  0  0  0  0  0  0  0  0  0
   37.7500   26.9170   42.3280 C   0  0  1  0  0  0  0  0  0  0  0  0
   36.5880   27.8660   42.1740 C   0  0  0  0  0  0  0  0  0  0  0  0
   37.3240   29.1550   42.5550 C   0  0  0  0  0  0  0  0  0  0  0  0
   38.5460   28.9580   41.7840 N   0  0  0  0  0  0  0  0  0  0  0  0
   38.1210   27.1950   43.3510 H   0  0  0  0  0  0  0  0  0  0  0  0
   36.2420   27.9410   41.1230 H   0  0  0  0  0  0  0  0  0  0  0  0
   35.8080   27.6270   42.8990 H   0  0  0  0  0  0  0  0  0  0  0  0
   36.7580   30.0420   42.2700 H   0  0  0  0  0  0  0  0  0  0  0  0
   37.5310   29.1280   43.6440 H   0  0  0  0  0  0  0  0  0  0  0  0
   37.6150   30.6440   39.4330 Cl  0  0  0  0  0  0  0  0  0  0  0  0
   39.0020   31.0070   40.4370 C   0  0  0  0  0  0  0  0  0  0  0  0
   39.2880   30.1510   41.4520 C   0  0  0  0  0  0  0  0  0  0  0  0
   40.3800   30.4340   42.2440 C   0  0  0  0  0  0  0  0  0  0  0  0
   40.6650   29.7810   43.0830 H   0  0  0  0  0  0  0  0  0  0  0  0
   41.2130   31.5360   42.0790 C   0  0  0  0  0  3  0  0  0  0  0  0
   40.9070   32.4080   41.0290 C   0  0  0  0  0  0  0  0  0  0  0  0
   41.9090   33.8170   40.7570 Cl  0  0  0  0  0  0  0  0  0  0  0  0
   39.8130   32.1080   40.2500 C   0  0  0  0  0  0  0  0  0  0  0  0
   39.5780   32.7950   39.4300 H   0  0  0  0  0  0  0  0  0  0  0  0
  1  2  2  0  0  0  0
  1  6  1  0  0  0  0
  2  3  1  0  0  0  0
  3 13  1  0  0  0  0
  3  4  2  0  0  0  0
  5  4  1  0  0  0  0
  5  7  1  0  0  0  0
  6  5  2  0  0  0  0
  7  8  1  0  0  0  0
  7 11  1  0  0  0  0
  8 14  1  0  0  0  0
  8  9  1  0  0  0  0
  9 10  1  0  0  0  0
  9 17  1  0  0  0  0
 10 11  1  0  0  0  0
 10 18  1  0  0  0  0
 11 20  1  6  0  0  0
 11 24  1  0  0  0  0
 12  1  1  0  0  0  0
 15  8  1  0  0  0  0
 16  9  1  0  0  0  0
 19 10  1  0  0  0  0
 21 23  1  0  0  0  0
 21  2  1  0  0  0  0
 22 21  1  0  0  0  0
 24 27  1  0  0  0  0
 25 26  2  0  0  0  0
 26 30  1  0  0  0  0
 26 27  1  0  0  0  0
 27 31  1  1  0  0  0
 28 27  1  0  0  0  0
 28 29  1  0  0  0  0
 28 33  1  0  0  0  0
 29 35  1  0  0  0  0
 30 29  1  0  0  0  0
 32 28  1  0  0  0  0
 34 29  1  0  0  0  0
 36 37  1  0  0  0  0
 37 38  1  0  0  0  0
 38 30  1  0  0  0  0
 38 39  2  0  0  0  0
 39 40  1  0  0  0  0
 41 39  1  0  0  0  0
 42 41  2  0  0  0  0
 43 42  1  0  0  0  0
 44 37  2  0  0  0  0
 44 42  1  0  0  0  0
 45 44  1  0  0  0  0
M  END
>  <minimizedAffinity>
-5.48450708

$$$$

 OpenBabel03252506393D

 45 48  0  0  1  0  0  0  0  0999 V2000
   37.4790   31.6790   38.4340 C   0  0  0  0  0  0  0  0  0  0  0  0
   37.0020   32.1210   39.6750 C   0  0  0  0  0  0  0  0  0  0  0  0
   36.5870   31.2120   40.5850 C   0  0  0  0  0  0  0  0  0  0  0  0
   36.6600   29.9050   40.2330 N   0  0  0  0  0  0  0  0  0  0  0  0
   37.1120   29.4920   39.0580 C   0  0  0  0  0  0  0  0  0  0  0  0
   37.5270   30.3650   38.1440 N   0  0  0  0  0  0  0  0  0  0  0  0
   37.1410   28.0800   38.7870 N   0  0  0  0  0  0  0  0  0  0  0  0
   37.8090   27.4900   37.6810 C   0  0  0  0  0  0  0  0  0  0  0  0
   36.8870   26.3480   37.2910 C   0  0  0  0  0  0  0  0  0  0  0  0
   35.8320   26.2810   38.3500 C   0  0  0  0  0  0  0  0  0  0  0  0
   36.4970   27.0120   39.5160 C   0  0  1  0  0  0  0  0  0  0  0  0
   37.8040   32.4140   37.7270 H   0  0  0  0  0  0  0  0  0  0  0  0
   36.2140   31.5240   41.5470 H   0  0  0  0  0  0  0  0  0  0  0  0
   38.8140   27.2130   37.6530 H   0  0  0  0  0  0  0  0  0  0  0  0
   37.6740   28.2180   36.8180 H   0  0  0  0  0  0  0  0  0  0  0  0
   36.5430   26.3650   36.2610 H   0  0  0  0  0  0  0  0  0  0  0  0
   37.4930   25.4020   37.4100 H   0  0  0  0  0  0  0  0  0  0  0  0
   35.5820   25.2380   38.5970 H   0  0  0  0  0  0  0  0  0  0  0  0
   34.9630   26.8600   37.9710 H   0  0  0  0  0  0  0  0  0  0  0  0
   35.7010   27.3720   40.2090 H   0  0  0  0  0  0  0  0  0  0  0  0
   36.9830   33.5410   39.9090 N   0  0  0  0  0  0  0  0  0  0  0  0
   36.5240   34.1770   39.2330 H   0  0  0  0  0  0  0  0  0  0  0  0
   37.4760   33.7450   40.8000 H   0  0  0  0  0  0  0  0  0  0  0  0
   37.6740   25.9230   40.2840 S   0  0  0  0  0  0  0  0  0  0  0  0
   40.3220   27.9290   39.9810 O   0  0  0  0  0  0  0  0  0  0  0  0
   39.7660   27.5640   41.0290 C   0  0  0  0  0  0  0  0  0  0  0  0
   38.7240   26.6150   41.4950 C   0  0  1  0  0  0  0  0  0  0  0  0
   38.0350   27.4180   42.5710 C   0  0  0  0  0  0  0  0  0  0  0  0
   39.2830   27.7970   43.3750 C   0  0  0  0  0  0  0  0  0  0  0  0
   40.1600   28.1730   42.2730 N   0  0  0  0  0  0  0  0  0  0  0  0
   39.3540   25.9220   42.1150 H   0  0  0  0  0  0  0  0  0  0  0  0
   37.5640   28.3400   42.1720 H   0  0  0  0  0  0  0  0  0  0  0  0
   37.3690   26.7760   43.1510 H   0  0  0  0  0  0  0  0  0  0  0  0
   39.0800   28.6070   44.0770 H   0  0  0  0  0  0  0  0  0  0  0  0
   39.6540   26.8870   43.8890 H   0  0  0  0  0  0  0  0  0  0  0  0
   39.6170   31.1620   42.3370 Cl  0  0  0  0  0  0  0  0  0  0  0  0
   41.1670   30.4200   42.6720 C   0  0  0  0  0  0  0  0  0  0  0  0
   41.2460   29.0660   42.6010 C   0  0  0  0  0  0  0  0  0  0  0  0
   42.4660   28.4790   42.8640 C   0  0  0  0  0  0  0  0  0  0  0  0
   42.5970   27.3870   42.8240 H   0  0  0  0  0  0  0  0  0  0  0  0
   43.6240   29.1740   43.1970 C   0  0  0  0  0  3  0  0  0  0  0  0
   43.5260   30.5680   43.2650 C   0  0  0  0  0  0  0  0  0  0  0  0
   44.9400   31.5120   43.6780 Cl  0  0  0  0  0  0  0  0  0  0  0  0
   42.3010   31.1350   43.0000 C   0  0  0  0  0  0  0  0  0  0  0  0
   42.2310   32.2270   43.0550 H   0  0  0  0  0  0  0  0  0  0  0  0
  1  2  1  0  0  0  0
  2 21  1  0  0  0  0
  2  3  2  0  0  0  0
  3 13  1  0  0  0  0
  4  3  1  0  0  0  0
  5  4  2  0  0  0  0
  6  1  2  0  0  0  0
  6  5  1  0  0  0  0
  7  5  1  0  0  0  0
  7 11  1  0  0  0  0
  8  7  1  0  0  0  0
  9 17  1  0  0  0  0
  9  8  1  0  0  0  0
  9 10  1  0  0  0  0
 10 18  1  0  0  0  0
 10 11  1  0  0  0  0
 11 20  1  1  0  0  0
 11 24  1  0  0  0  0
 12  1  1  0  0  0  0
 14  8  1  0  0  0  0
 15  8  1  0  0  0  0
 16  9  1  0  0  0  0
 19 10  1  0  0  0  0
 21 23  1  0  0  0  0
 22 21  1  0  0  0  0
 24 27  1  0  0  0  0
 25 26  2  0  0  0  0
 26 27  1  0  0  0  0
 26 30  1  0  0  0  0
 27 31  1  1  0  0  0
 27 28  1  0  0  0  0
 28 33  1  0  0  0  0
 28 29  1  0  0  0  0
 29 35  1  0  0  0  0
 29 34  1  0  0  0  0
 30 38  1  0  0  0  0
 30 29  1  0  0  0  0
 32 28  1  0  0  0  0
 36 37  1  0  0  0  0
 37 44  1  0  0  0  0
 38 37  2  0  0  0  0
 38 39  1  0  0  0  0
 39 41  2  0  0  0  0
 40 39  1  0  0  0  0
 41 42  1  0  0  0  0
 42 43  1  0  0  0  0
 44 45  1  0  0  0  0
 44 42  2  0  0  0  0
M  END
>  <minimizedAffinity>
-5.47787237

$$$$

 OpenBabel03252506393D

 45 48  0  0  1  0  0  0  0  0999 V2000
   38.9830   34.1610   40.4330 C   0  0  0  0  0  0  0  0  0  0  0  0
   38.3700   33.2310   39.5840 C   0  0  0  0  0  0  0  0  0  0  0  0
   39.1090   32.2260   39.0620 C   0  0  0  0  0  0  0  0  0  0  0  0
   40.4210   32.1800   39.4020 N   0  0  0  0  0  0  0  0  0  0  0  0
   40.9950   33.0610   40.2050 C   0  0  0  0  0  0  0  0  0  0  0  0
   40.2920   34.0610   40.7330 N   0  0  0  0  0  0  0  0  0  0  0  0
   42.3970   32.9210   40.4950 N   0  0  0  0  0  0  0  0  0  0  0  0
   43.0820   33.6410   41.5100 C   0  0  0  0  0  0  0  0  0  0  0  0
   44.4420   33.9020   40.8880 C   0  0  0  0  0  0  0  0  0  0  0  0
   44.4720   33.1340   39.6050 C   0  0  0  0  0  0  0  0  0  0  0  0
   43.3730   32.0930   39.8260 C   0  0  1  0  0  0  0  0  0  0  0  0
   38.3830   34.9490   40.8360 H   0  0  0  0  0  0  0  0  0  0  0  0
   38.6630   31.4970   38.4050 H   0  0  0  0  0  0  0  0  0  0  0  0
   43.1520   33.3630   42.5120 H   0  0  0  0  0  0  0  0  0  0  0  0
   42.6140   34.6780   41.5180 H   0  0  0  0  0  0  0  0  0  0  0  0
   44.7330   34.9470   40.8370 H   0  0  0  0  0  0  0  0  0  0  0  0
   45.1960   33.3940   41.5600 H   0  0  0  0  0  0  0  0  0  0  0  0
   45.4580   32.6730   39.4390 H   0  0  0  0  0  0  0  0  0  0  0  0
   44.1800   33.8440   38.8020 H   0  0  0  0  0  0  0  0  0  0  0  0
   43.0290   31.7250   38.8320 H   0  0  0  0  0  0  0  0  0  0  0  0
   36.9680   33.4060   39.3120 N   0  0  0  0  0  0  0  0  0  0  0  0
   36.6100   34.3160   38.9730 H   0  0  0  0  0  0  0  0  0  0  0  0
   36.4690   32.5170   39.5140 H   0  0  0  0  0  0  0  0  0  0  0  0
   43.9990   30.8090   40.8850 S   0  0  0  0  0  0  0  0  0  0  0  0
   41.2670   29.1250   39.9750 O   0  0  0  0  0  0  0  0  0  0  0  0
   41.7720   29.1930   41.1070 C   0  0  0  0  0  0  0  0  0  0  0  0
   42.8320   29.9280   41.8400 C   0  0  1  0  0  0  0  0  0  0  0  0
   43.4010   28.8480   42.7260 C   0  0  0  0  0  0  0  0  0  0  0  0
   42.0820   28.3810   43.3510 C   0  0  0  0  0  0  0  0  0  0  0  0
   41.2600   28.3380   42.1470 N   0  0  0  0  0  0  0  0  0  0  0  0
   42.2040   30.4990   42.5740 H   0  0  0  0  0  0  0  0  0  0  0  0
   43.8440   28.0150   42.1430 H   0  0  0  0  0  0  0  0  0  0  0  0
   44.0620   29.2860   43.4770 H   0  0  0  0  0  0  0  0  0  0  0  0
   42.1910   27.4160   43.8490 H   0  0  0  0  0  0  0  0  0  0  0  0
   41.7300   29.1680   44.0480 H   0  0  0  0  0  0  0  0  0  0  0  0
   38.5960   29.5150   43.0120 Cl  0  0  0  0  0  0  0  0  0  0  0  0
   38.8510   27.8440   42.5610 C   0  0  0  0  0  0  0  0  0  0  0  0
   40.1060   27.4730   42.1970 C   0  0  0  0  0  0  0  0  0  0  0  0
   40.3100   26.1560   41.8410 C   0  0  0  0  0  0  0  0  0  0  0  0
   41.3030   25.7920   41.5360 H   0  0  0  0  0  0  0  0  0  0  0  0
   39.3210   25.1780   41.8270 C   0  0  0  0  0  3  0  0  0  0  0  0
   38.0340   25.5750   42.2050 C   0  0  0  0  0  0  0  0  0  0  0  0
   36.7360   24.4010   42.2120 Cl  0  0  0  0  0  0  0  0  0  0  0  0
   37.8510   26.8930   42.5560 C   0  0  0  0  0  0  0  0  0  0  0  0
   36.8410   27.1970   42.8510 H   0  0  0  0  0  0  0  0  0  0  0  0
  1  6  1  0  0  0  0
  1 12  1  0  0  0  0
  2  1  2  0  0  0  0
  3  4  2  0  0  0  0
  3  2  1  0  0  0  0
  4  5  1  0  0  0  0
  5  7  1  0  0  0  0
  5  6  2  0  0  0  0
  7  8  1  0  0  0  0
  8 15  1  0  0  0  0
  8 14  1  0  0  0  0
  9  8  1  0  0  0  0
  9 17  1  0  0  0  0
 10 11  1  0  0  0  0
 10  9  1  0  0  0  0
 11 20  1  6  0  0  0
 11  7  1  0  0  0  0
 11 24  1  0  0  0  0
 13  3  1  0  0  0  0
 16  9  1  0  0  0  0
 18 10  1  0  0  0  0
 19 10  1  0  0  0  0
 21 23  1  0  0  0  0
 21  2  1  0  0  0  0
 22 21  1  0  0  0  0
 24 27  1  0  0  0  0
 25 26  2  0  0  0  0
 26 27  1  0  0  0  0
 26 30  1  0  0  0  0
 27 31  1  1  0  0  0
 27 28  1  0  0  0  0
 28 29  1  0  0  0  0
 28 33  1  0  0  0  0
 29 34  1  0  0  0  0
 29 35  1  0  0  0  0
 30 38  1  0  0  0  0
 30 29  1  0  0  0  0
 32 28  1  0  0  0  0
 37 36  1  0  0  0  0
 38 37  2  0  0  0  0
 39 38  1  0  0  0  0
 40 39  1  0  0  0  0
 41 39  2  0  0  0  0
 41 42  1  0  0  0  0
 42 43  1  0  0  0  0
 42 44  2  0  0  0  0
 44 37  1  0  0  0  0
 44 45  1  0  0  0  0
M  END
>  <minimizedAffinity>
-5.44102526

$$$$
