
 OpenBabel03252503093D

 28 30  0  0  1  0  0  0  0  0999 V2000
   45.2480   35.9680   43.5650 C   0  0  0  0  0  0  0  0  0  0  0  0
   45.9080   34.7460   43.2740 C   0  0  0  0  0  0  0  0  0  0  0  0
   45.8470   33.8080   44.2950 C   0  0  0  0  0  0  0  0  0  0  0  0
   45.2170   34.0450   45.4530 N   0  0  0  0  0  0  0  0  0  0  0  0
   44.5970   35.2410   45.6800 C   0  0  0  0  0  0  0  0  0  0  0  0
   44.6250   36.1900   44.7210 N   0  0  0  0  0  0  0  0  0  0  0  0
   45.2620   36.7460   42.7970 H   0  0  0  0  0  0  0  0  0  0  0  0
   44.1050   35.3760   46.6300 H   0  0  0  0  0  0  0  0  0  0  0  0
   46.4510   32.5720   44.0920 C   0  0  0  0  0  0  0  0  0  0  0  0
   47.7250   32.1050   44.0980 C   0  0  0  0  0  0  0  0  0  0  0  0
   48.0760   30.8530   43.8490 C   0  0  0  0  0  0  0  0  0  0  0  0
   47.0480   29.9920   43.5690 C   0  0  0  0  0  0  0  0  0  0  0  0
   45.5720   31.0820   43.6870 S   0  0  0  0  0  0  0  0  0  0  0  0
   48.6300   32.6400   44.3330 H   0  0  0  0  0  0  0  0  0  0  0  0
   48.9550   30.2560   43.7910 H   0  0  0  0  0  0  0  0  0  0  0  0
   46.8170   28.9830   43.3240 H   0  0  0  0  0  0  0  0  0  0  0  0
   46.5400   34.5860   42.0190 C   0  0  2  0  0  3  0  0  0  0  0  0
   47.4410   35.5230   41.8170 O   0  0  0  0  0  1  0  0  0  0  0  0
   43.9510   35.1640   40.8080 Cl  0  0  0  0  0  0  0  0  0  0  0  0
   45.0820   33.8640   40.3630 C   0  0  0  0  0  0  0  0  0  0  0  0
   46.3430   33.5810   40.9290 C   0  0  0  0  0  0  0  0  0  0  0  0
   47.0050   32.5140   40.3900 C   0  0  0  0  0  0  0  0  0  0  0  0
   47.9410   32.3730   40.9020 H   0  0  0  0  0  0  0  0  0  0  0  0
   46.5030   31.7530   39.3690 C   0  0  0  0  0  3  0  0  0  0  0  0
   45.2730   32.0360   38.8220 C   0  0  0  0  0  0  0  0  0  0  0  0
   44.7670   30.9740   37.5250 Cl  0  0  0  0  0  0  0  0  0  0  0  0
   44.5490   33.0960   39.3170 C   0  0  0  0  0  0  0  0  0  0  0  0
   43.6010   33.2410   38.8300 H   0  0  0  0  0  0  0  0  0  0  0  0
  1  6  1  0  0  0  0
  2  1  2  0  0  0  0
  2  3  1  0  0  0  0
  3  4  2  0  0  0  0
  4  5  1  0  0  0  0
  5  8  1  0  0  0  0
  6  5  2  0  0  0  0
  7  1  1  0  0  0  0
  9 10  2  0  0  0  0
  9  3  1  0  0  0  0
 10 14  1  0  0  0  0
 11 10  1  0  0  0  0
 12 13  1  0  0  0  0
 12 11  2  0  0  0  0
 13  9  1  0  0  0  0
 15 11  1  0  0  0  0
 16 12  1  0  0  0  0
 17 18  1  6  0  0  0
 17  2  1  0  0  0  0
 20 19  1  0  0  0  0
 20 21  1  0  0  0  0
 21 17  1  0  0  0  0
 22 23  1  0  0  0  0
 22 21  2  0  0  0  0
 24 22  1  0  0  0  0
 25 27  1  0  0  0  0
 25 24  2  0  0  0  0
 26 25  1  0  0  0  0
 27 20  2  0  0  0  0
 28 27  1  0  0  0  0
M  END
>  <minimizedAffinity>
-4.39022732

>  <minimizedRMSD>
0.662769496

$$$$
