
 OpenBabel03242512233D

 42 45  0  0  0  0  0  0  0  0999 V2000
   36.4530   31.1830   39.9700 C   0  0  0  0  0  0  0  0  0  0  0  0
   37.1510   32.0630   39.1840 C   0  0  0  0  0  0  0  0  0  0  0  0
   37.5660   31.6680   37.9480 C   0  0  0  0  0  0  0  0  0  0  0  0
   37.2780   30.3820   37.5040 C   0  0  0  0  0  0  0  0  0  0  0  0
   36.5760   29.5240   38.3180 C   0  0  0  0  0  0  0  0  0  0  0  0
   36.1450   29.9190   39.5890 C   0  0  0  0  0  0  0  0  0  0  0  0
   38.1150   32.4150   37.3760 H   0  0  0  0  0  0  0  0  0  0  0  0
   37.6240   30.1050   36.5200 H   0  0  0  0  0  0  0  0  0  0  0  0
   36.3750   28.5330   37.9320 H   0  0  0  0  0  0  0  0  0  0  0  0
   37.4080   33.4020   39.7390 C   0  0  0  0  0  0  0  0  0  0  0  0
   36.8520   33.6140   40.6390 H   0  0  0  0  0  0  0  0  0  0  0  0
   37.1850   34.1240   38.9200 H   0  0  0  0  0  0  0  0  0  0  0  0
   38.8720   33.5510   40.1000 C   0  0  0  0  0  0  0  0  0  0  0  0
   39.4590   34.8050   39.9440 C   0  0  0  0  0  0  0  0  0  0  0  0
   40.7890   34.9110   40.2810 C   0  0  0  0  0  0  0  0  0  0  0  0
   41.4400   33.8300   40.7340 N   0  0  0  0  0  0  0  0  0  0  0  0
   40.8360   32.6130   40.8790 C   0  0  0  0  0  0  0  0  0  0  0  0
   39.5570   32.4970   40.5560 N   0  0  0  0  0  0  0  0  0  0  0  0
   38.9290   35.6750   39.5760 H   0  0  0  0  0  0  0  0  0  0  0  0
   41.3610   35.8280   40.2050 H   0  0  0  0  0  0  0  0  0  0  0  0
   41.3290   31.7270   41.2380 H   0  0  0  0  0  0  0  0  0  0  0  0
   35.9820   31.4960   41.2550 O   0  0  0  0  0  0  0  0  0  0  0  0
   36.4910   31.0390   42.0160 H   0  0  0  0  0  0  0  0  0  0  0  0
   35.4390   28.9620   40.3270 O   0  0  0  0  0  0  0  0  0  0  0  0
   36.2490   28.0640   41.0160 C   0  0  0  0  0  0  0  0  0  0  0  0
   36.6230   28.3780   42.3060 C   0  0  0  0  0  0  0  0  0  0  0  0
   37.4360   27.5380   43.0770 C   0  0  0  0  0  0  0  0  0  0  0  0
   37.8620   26.3980   42.5460 N   0  0  0  0  0  0  0  0  0  0  0  0
   37.4990   26.0890   41.2870 C   0  0  0  0  0  0  0  0  0  0  0  0
   36.7190   26.9020   40.5550 N   0  0  0  0  0  0  0  0  0  0  0  0
   36.3240   29.2850   42.8220 H   0  0  0  0  0  0  0  0  0  0  0  0
   37.7230   27.7920   44.0860 H   0  0  0  0  0  0  0  0  0  0  0  0
   40.0330   26.3300   39.6160 Cl  0  0  0  0  0  0  0  0  0  0  0  0
   39.0920   24.8990   39.8590 C   0  0  0  0  0  0  0  0  0  0  0  0
   37.9380   24.8370   40.6340 C   0  0  0  0  0  0  0  0  0  0  0  0
   37.2580   23.6510   40.7660 C   0  0  0  0  0  0  0  0  0  0  0  0
   36.3540   23.6310   41.3810 H   0  0  0  0  0  0  0  0  0  0  0  0
   37.6540   22.4780   40.1650 C   0  0  0  0  0  3  0  0  0  0  0  0
   38.7960   22.5220   39.3940 C   0  0  0  0  0  0  0  0  0  0  0  0
   39.3160   21.0370   38.6200 Cl  0  0  0  0  0  0  0  0  0  0  0  0
   39.4950   23.7070   39.2480 C   0  0  0  0  0  0  0  0  0  0  0  0
   40.3780   23.6400   38.6240 H   0  0  0  0  0  0  0  0  0  0  0  0
  1 22  1  0  0  0  0
  2 10  1  0  0  0  0
  2  1  2  0  0  0  0
  3  2  1  0  0  0  0
  4  3  2  0  0  0  0
  4  5  1  0  0  0  0
  5  6  2  0  0  0  0
  6  1  1  0  0  0  0
  6 24  1  0  0  0  0
  7  3  1  0  0  0  0
  8  4  1  0  0  0  0
  9  5  1  0  0  0  0
 10 13  1  0  0  0  0
 10 11  1  0  0  0  0
 12 10  1  0  0  0  0
 13 18  1  0  0  0  0
 14 13  2  0  0  0  0
 14 15  1  0  0  0  0
 15 16  2  0  0  0  0
 16 17  1  0  0  0  0
 17 21  1  0  0  0  0
 18 17  2  0  0  0  0
 19 14  1  0  0  0  0
 20 15  1  0  0  0  0
 22 23  1  0  0  0  0
 24 25  1  0  0  0  0
 25 26  1  0  0  0  0
 26 31  1  0  0  0  0
 26 27  2  0  0  0  0
 27 32  1  0  0  0  0
 28 27  1  0  0  0  0
 29 28  2  0  0  0  0
 30 25  2  0  0  0  0
 30 29  1  0  0  0  0
 33 34  1  0  0  0  0
 34 35  1  0  0  0  0
 35 36  2  0  0  0  0
 35 29  1  0  0  0  0
 36 37  1  0  0  0  0
 38 36  1  0  0  0  0
 39 38  2  0  0  0  0
 40 39  1  0  0  0  0
 41 39  1  0  0  0  0
 41 34  2  0  0  0  0
 42 41  1  0  0  0  0
M  END
>  <minimizedAffinity>
-6.86782026

$$$$

 OpenBabel03242512233D

 42 45  0  0  0  0  0  0  0  0999 V2000
   36.7690   28.3490   41.9110 C   0  0  0  0  0  0  0  0  0  0  0  0
   36.1300   28.4720   40.7040 C   0  0  0  0  0  0  0  0  0  0  0  0
   36.1540   27.4280   39.8290 C   0  0  0  0  0  0  0  0  0  0  0  0
   36.8250   26.2590   40.1720 C   0  0  0  0  0  0  0  0  0  0  0  0
   37.4560   26.1690   41.3900 C   0  0  0  0  0  0  0  0  0  0  0  0
   37.4380   27.2360   42.2970 C   0  0  0  0  0  0  0  0  0  0  0  0
   35.6280   27.5910   38.8900 H   0  0  0  0  0  0  0  0  0  0  0  0
   36.8230   25.4540   39.4520 H   0  0  0  0  0  0  0  0  0  0  0  0
   37.9650   25.2410   41.6140 H   0  0  0  0  0  0  0  0  0  0  0  0
   35.4480   29.7470   40.4310 C   0  0  0  0  0  0  0  0  0  0  0  0
   34.9820   30.1850   41.2990 H   0  0  0  0  0  0  0  0  0  0  0  0
   34.7180   29.5380   39.6150 H   0  0  0  0  0  0  0  0  0  0  0  0
   36.4350   30.7740   39.9150 C   0  0  0  0  0  0  0  0  0  0  0  0
   36.7560   30.7490   38.5590 C   0  0  0  0  0  0  0  0  0  0  0  0
   37.6530   31.6940   38.1190 C   0  0  0  0  0  0  0  0  0  0  0  0
   38.1630   32.5730   38.9940 N   0  0  0  0  0  0  0  0  0  0  0  0
   37.8280   32.5740   40.3180 C   0  0  0  0  0  0  0  0  0  0  0  0
   36.9670   31.6690   40.7550 N   0  0  0  0  0  0  0  0  0  0  0  0
   36.3420   30.0360   37.8570 H   0  0  0  0  0  0  0  0  0  0  0  0
   37.9850   31.7810   37.0910 H   0  0  0  0  0  0  0  0  0  0  0  0
   38.2190   33.2640   41.0460 H   0  0  0  0  0  0  0  0  0  0  0  0
   36.8010   29.3670   42.8780 O   0  0  0  0  0  0  0  0  0  0  0  0
   37.7080   29.8290   42.9790 H   0  0  0  0  0  0  0  0  0  0  0  0
   38.1130   27.0300   43.5050 O   0  0  0  0  0  0  0  0  0  0  0  0
   39.4590   27.3840   43.4720 C   0  0  0  0  0  0  0  0  0  0  0  0
   40.3850   26.4770   43.9450 C   0  0  0  0  0  0  0  0  0  0  0  0
   41.7600   26.7440   43.9530 C   0  0  0  0  0  0  0  0  0  0  0  0
   42.1860   27.9120   43.4870 N   0  0  0  0  0  0  0  0  0  0  0  0
   41.2840   28.7990   43.0260 C   0  0  0  0  0  0  0  0  0  0  0  0
   39.9670   28.5340   43.0230 N   0  0  0  0  0  0  0  0  0  0  0  0
   40.1310   25.5000   44.3430 H   0  0  0  0  0  0  0  0  0  0  0  0
   42.4770   26.0280   44.3250 H   0  0  0  0  0  0  0  0  0  0  0  0
   40.0360   29.5460   40.3510 Cl  0  0  0  0  0  0  0  0  0  0  0  0
   41.1440   30.5030   41.2730 C   0  0  0  0  0  0  0  0  0  0  0  0
   41.6900   30.1180   42.4940 C   0  0  0  0  0  0  0  0  0  0  0  0
   42.5640   30.9490   43.1520 C   0  0  0  0  0  0  0  0  0  0  0  0
   42.9780   30.6220   44.1100 H   0  0  0  0  0  0  0  0  0  0  0  0
   42.9510   32.1780   42.6700 C   0  0  0  0  0  3  0  0  0  0  0  0
   42.4200   32.5750   41.4610 C   0  0  0  0  0  0  0  0  0  0  0  0
   42.9010   34.1390   40.8310 Cl  0  0  0  0  0  0  0  0  0  0  0  0
   41.5370   31.7530   40.7830 C   0  0  0  0  0  0  0  0  0  0  0  0
   41.1750   32.1520   39.8440 H   0  0  0  0  0  0  0  0  0  0  0  0
  1  6  1  0  0  0  0
  1 22  1  0  0  0  0
  2  1  2  0  0  0  0
  3  4  2  0  0  0  0
  3  2  1  0  0  0  0
  4  5  1  0  0  0  0
  5  9  1  0  0  0  0
  5  6  2  0  0  0  0
  6 24  1  0  0  0  0
  7  3  1  0  0  0  0
  8  4  1  0  0  0  0
 10  2  1  0  0  0  0
 10 11  1  0  0  0  0
 12 10  1  0  0  0  0
 13 10  1  0  0  0  0
 13 18  1  0  0  0  0
 14 13  2  0  0  0  0
 15 14  1  0  0  0  0
 15 16  2  0  0  0  0
 16 17  1  0  0  0  0
 17 18  2  0  0  0  0
 17 21  1  0  0  0  0
 19 14  1  0  0  0  0
 20 15  1  0  0  0  0
 22 23  1  0  0  0  0
 25 24  1  0  0  0  0
 25 26  1  0  0  0  0
 26 27  2  0  0  0  0
 26 31  1  0  0  0  0
 27 32  1  0  0  0  0
 28 27  1  0  0  0  0
 29 28  2  0  0  0  0
 30 29  1  0  0  0  0
 30 25  2  0  0  0  0
 33 34  1  0  0  0  0
 34 35  1  0  0  0  0
 35 29  1  0  0  0  0
 35 36  2  0  0  0  0
 36 37  1  0  0  0  0
 38 36  1  0  0  0  0
 39 38  2  0  0  0  0
 40 39  1  0  0  0  0
 41 34  2  0  0  0  0
 41 39  1  0  0  0  0
 42 41  1  0  0  0  0
M  END
>  <minimizedAffinity>
-6.63124084

$$$$

 OpenBabel03242512233D

 42 45  0  0  0  0  0  0  0  0999 V2000
   36.8230   28.0170   41.5980 C   0  0  0  0  0  0  0  0  0  0  0  0
   37.4790   26.9950   42.2360 C   0  0  0  0  0  0  0  0  0  0  0  0
   37.6210   25.7970   41.6020 C   0  0  0  0  0  0  0  0  0  0  0  0
   37.0990   25.6300   40.3240 C   0  0  0  0  0  0  0  0  0  0  0  0
   36.4460   26.6750   39.7140 C   0  0  0  0  0  0  0  0  0  0  0  0
   36.2940   27.9100   40.3560 C   0  0  0  0  0  0  0  0  0  0  0  0
   38.1510   25.0300   42.1630 H   0  0  0  0  0  0  0  0  0  0  0  0
   37.2300   24.6660   39.8540 H   0  0  0  0  0  0  0  0  0  0  0  0
   36.0560   26.4990   38.7200 H   0  0  0  0  0  0  0  0  0  0  0  0
   37.9960   27.2670   43.5870 C   0  0  0  0  0  0  0  0  0  0  0  0
   37.7440   26.5070   44.3090 H   0  0  0  0  0  0  0  0  0  0  0  0
   37.6070   28.2720   43.8700 H   0  0  0  0  0  0  0  0  0  0  0  0
   39.5090   27.3470   43.5660 C   0  0  0  0  0  0  0  0  0  0  0  0
   40.0970   28.4140   42.8880 C   0  0  0  0  0  0  0  0  0  0  0  0
   41.4720   28.4620   42.8880 C   0  0  0  0  0  0  0  0  0  0  0  0
   42.1640   27.5050   43.5230 N   0  0  0  0  0  0  0  0  0  0  0  0
   41.5580   26.4710   44.1800 C   0  0  0  0  0  0  0  0  0  0  0  0
   40.2350   26.4120   44.1870 N   0  0  0  0  0  0  0  0  0  0  0  0
   39.5350   29.1840   42.3760 H   0  0  0  0  0  0  0  0  0  0  0  0
   42.0500   29.2370   42.3980 H   0  0  0  0  0  0  0  0  0  0  0  0
   42.0820   25.6870   44.6980 H   0  0  0  0  0  0  0  0  0  0  0  0
   36.6270   29.2860   42.1670 O   0  0  0  0  0  0  0  0  0  0  0  0
   35.6640   29.4780   42.4550 H   0  0  0  0  0  0  0  0  0  0  0  0
   35.6130   28.8990   39.6370 O   0  0  0  0  0  0  0  0  0  0  0  0
   36.4380   29.7170   38.8730 C   0  0  0  0  0  0  0  0  0  0  0  0
   36.2550   29.7370   37.5050 C   0  0  0  0  0  0  0  0  0  0  0  0
   37.0360   30.5280   36.6540 C   0  0  0  0  0  0  0  0  0  0  0  0
   37.9890   31.2870   37.1840 N   0  0  0  0  0  0  0  0  0  0  0  0
   38.1710   31.2690   38.5180 C   0  0  0  0  0  0  0  0  0  0  0  0
   37.4160   30.5060   39.3260 N   0  0  0  0  0  0  0  0  0  0  0  0
   35.5030   29.1520   36.9850 H   0  0  0  0  0  0  0  0  0  0  0  0
   36.8850   30.5360   35.5860 H   0  0  0  0  0  0  0  0  0  0  0  0
   37.2280   33.9840   39.5240 Cl  0  0  0  0  0  0  0  0  0  0  0  0
   38.8280   33.3380   39.6490 C   0  0  0  0  0  0  0  0  0  0  0  0
   39.2130   32.0880   39.1730 C   0  0  0  0  0  0  0  0  0  0  0  0
   40.5110   31.6640   39.3200 C   0  0  0  0  0  0  0  0  0  0  0  0
   40.7860   30.6770   38.9370 H   0  0  0  0  0  0  0  0  0  0  0  0
   41.4910   32.4150   39.9270 C   0  0  0  0  0  3  0  0  0  0  0  0
   41.1270   33.6550   40.4040 C   0  0  0  0  0  0  0  0  0  0  0  0
   42.3630   34.6270   41.1810 Cl  0  0  0  0  0  0  0  0  0  0  0  0
   39.8250   34.1020   40.2670 C   0  0  0  0  0  0  0  0  0  0  0  0
   39.6370   35.0880   40.6730 H   0  0  0  0  0  0  0  0  0  0  0  0
  1 22  1  0  0  0  0
  1  2  1  0  0  0  0
  2 10  1  0  0  0  0
  3  7  1  0  0  0  0
  3  2  2  0  0  0  0
  4  3  1  0  0  0  0
  5  4  2  0  0  0  0
  5  6  1  0  0  0  0
  6  1  2  0  0  0  0
  8  4  1  0  0  0  0
  9  5  1  0  0  0  0
 10 12  1  0  0  0  0
 10 11  1  0  0  0  0
 13 10  1  0  0  0  0
 13 18  1  0  0  0  0
 14 13  2  0  0  0  0
 15 14  1  0  0  0  0
 15 16  2  0  0  0  0
 16 17  1  0  0  0  0
 17 18  2  0  0  0  0
 17 21  1  0  0  0  0
 19 14  1  0  0  0  0
 20 15  1  0  0  0  0
 22 23  1  0  0  0  0
 24  6  1  0  0  0  0
 25 30  1  0  0  0  0
 25 24  1  0  0  0  0
 26 25  2  0  0  0  0
 27 28  2  0  0  0  0
 27 26  1  0  0  0  0
 28 29  1  0  0  0  0
 29 35  1  0  0  0  0
 29 30  2  0  0  0  0
 31 26  1  0  0  0  0
 32 27  1  0  0  0  0
 33 34  1  0  0  0  0
 34 41  1  0  0  0  0
 35 36  1  0  0  0  0
 35 34  2  0  0  0  0
 36 38  2  0  0  0  0
 37 36  1  0  0  0  0
 38 39  1  0  0  0  0
 39 40  1  0  0  0  0
 41 39  2  0  0  0  0
 41 42  1  0  0  0  0
M  END
>  <minimizedAffinity>
-6.59452486

$$$$

 OpenBabel03242512233D

 42 45  0  0  0  0  0  0  0  0999 V2000
   36.3410   31.0110   39.9840 C   0  0  0  0  0  0  0  0  0  0  0  0
   36.0460   29.8900   39.2520 C   0  0  0  0  0  0  0  0  0  0  0  0
   36.5050   29.7900   37.9730 C   0  0  0  0  0  0  0  0  0  0  0  0
   37.2610   30.8230   37.4310 C   0  0  0  0  0  0  0  0  0  0  0  0
   37.5390   31.9340   38.1930 C   0  0  0  0  0  0  0  0  0  0  0  0
   37.0720   32.0470   39.5080 C   0  0  0  0  0  0  0  0  0  0  0  0
   36.2350   28.8750   37.4480 H   0  0  0  0  0  0  0  0  0  0  0  0
   37.6070   30.7090   36.4150 H   0  0  0  0  0  0  0  0  0  0  0  0
   38.1300   32.7130   37.7300 H   0  0  0  0  0  0  0  0  0  0  0  0
   35.2390   28.8490   39.9110 C   0  0  0  0  0  0  0  0  0  0  0  0
   34.6870   28.2290   39.2230 H   0  0  0  0  0  0  0  0  0  0  0  0
   34.5770   29.3820   40.6310 H   0  0  0  0  0  0  0  0  0  0  0  0
   36.1290   27.9150   40.7040 C   0  0  0  0  0  0  0  0  0  0  0  0
   36.6690   26.8110   40.0460 C   0  0  0  0  0  0  0  0  0  0  0  0
   37.4750   25.9810   40.7910 C   0  0  0  0  0  0  0  0  0  0  0  0
   37.6980   26.2670   42.0820 N   0  0  0  0  0  0  0  0  0  0  0  0
   37.1550   27.3580   42.6990 C   0  0  0  0  0  0  0  0  0  0  0  0
   36.3770   28.1640   41.9940 N   0  0  0  0  0  0  0  0  0  0  0  0
   36.4850   26.5840   39.0030 H   0  0  0  0  0  0  0  0  0  0  0  0
   37.9540   25.0920   40.3990 H   0  0  0  0  0  0  0  0  0  0  0  0
   37.3130   27.6160   43.7320 H   0  0  0  0  0  0  0  0  0  0  0  0
   35.9150   31.2060   41.3080 O   0  0  0  0  0  0  0  0  0  0  0  0
   35.1750   31.9050   41.4170 H   0  0  0  0  0  0  0  0  0  0  0  0
   37.4170   33.2220   40.1860 O   0  0  0  0  0  0  0  0  0  0  0  0
   38.7830   33.3780   40.3970 C   0  0  0  0  0  0  0  0  0  0  0  0
   39.3510   34.6070   40.1320 C   0  0  0  0  0  0  0  0  0  0  0  0
   40.7160   34.8580   40.3130 C   0  0  0  0  0  0  0  0  0  0  0  0
   41.4930   33.8770   40.7570 N   0  0  0  0  0  0  0  0  0  0  0  0
   40.9420   32.6750   41.0150 C   0  0  0  0  0  0  0  0  0  0  0  0
   39.6300   32.4440   40.8380 N   0  0  0  0  0  0  0  0  0  0  0  0
   38.7960   35.4660   39.7670 H   0  0  0  0  0  0  0  0  0  0  0  0
   41.1510   35.8230   40.1030 H   0  0  0  0  0  0  0  0  0  0  0  0
   42.0590   30.8510   38.8490 Cl  0  0  0  0  0  0  0  0  0  0  0  0
   42.2800   30.6770   40.5560 C   0  0  0  0  0  0  0  0  0  0  0  0
   41.7480   31.5390   41.5110 C   0  0  0  0  0  0  0  0  0  0  0  0
   41.9790   31.3160   42.8460 C   0  0  0  0  0  0  0  0  0  0  0  0
   41.5490   32.0090   43.5750 H   0  0  0  0  0  0  0  0  0  0  0  0
   42.7270   30.2630   43.3220 C   0  0  0  0  0  3  0  0  0  0  0  0
   43.2610   29.4000   42.3890 C   0  0  0  0  0  0  0  0  0  0  0  0
   44.2170   28.0520   42.9760 Cl  0  0  0  0  0  0  0  0  0  0  0  0
   43.0400   29.6070   41.0390 C   0  0  0  0  0  0  0  0  0  0  0  0
   43.5000   28.8760   40.3860 H   0  0  0  0  0  0  0  0  0  0  0  0
  1 22  1  0  0  0  0
  2 10  1  0  0  0  0
  2  1  2  0  0  0  0
  3  2  1  0  0  0  0
  4  3  2  0  0  0  0
  4  5  1  0  0  0  0
  5  6  2  0  0  0  0
  6  1  1  0  0  0  0
  6 24  1  0  0  0  0
  7  3  1  0  0  0  0
  8  4  1  0  0  0  0
  9  5  1  0  0  0  0
 10 12  1  0  0  0  0
 10 13  1  0  0  0  0
 11 10  1  0  0  0  0
 13 18  1  0  0  0  0
 14 13  2  0  0  0  0
 14 15  1  0  0  0  0
 15 16  2  0  0  0  0
 16 17  1  0  0  0  0
 17 21  1  0  0  0  0
 18 17  2  0  0  0  0
 19 14  1  0  0  0  0
 20 15  1  0  0  0  0
 22 23  1  0  0  0  0
 24 25  1  0  0  0  0
 25 30  1  0  0  0  0
 26 27  1  0  0  0  0
 26 25  2  0  0  0  0
 27 28  2  0  0  0  0
 28 29  1  0  0  0  0
 29 35  1  0  0  0  0
 30 29  2  0  0  0  0
 31 26  1  0  0  0  0
 32 27  1  0  0  0  0
 33 34  1  0  0  0  0
 34 41  2  0  0  0  0
 34 35  1  0  0  0  0
 35 36  2  0  0  0  0
 36 38  1  0  0  0  0
 36 37  1  0  0  0  0
 39 40  1  0  0  0  0
 39 38  2  0  0  0  0
 41 39  1  0  0  0  0
 42 41  1  0  0  0  0
M  END
>  <minimizedAffinity>
-6.56037903

$$$$

 OpenBabel03242512233D

 42 45  0  0  0  0  0  0  0  0999 V2000
   39.6870   27.9390   42.3890 C   0  0  0  0  0  0  0  0  0  0  0  0
   39.0850   26.9430   43.1140 C   0  0  0  0  0  0  0  0  0  0  0  0
   37.9500   27.2210   43.8150 C   0  0  0  0  0  0  0  0  0  0  0  0
   37.4220   28.5080   43.7850 C   0  0  0  0  0  0  0  0  0  0  0  0
   38.0510   29.4830   43.0480 C   0  0  0  0  0  0  0  0  0  0  0  0
   39.2170   29.2080   42.3250 C   0  0  0  0  0  0  0  0  0  0  0  0
   37.5240   26.3870   44.3680 H   0  0  0  0  0  0  0  0  0  0  0  0
   36.5230   28.6910   44.3540 H   0  0  0  0  0  0  0  0  0  0  0  0
   37.6050   30.4700   43.0550 H   0  0  0  0  0  0  0  0  0  0  0  0
   39.7170   25.6140   43.0850 C   0  0  0  0  0  0  0  0  0  0  0  0
   39.5080   25.0140   43.9560 H   0  0  0  0  0  0  0  0  0  0  0  0
   40.8080   25.7930   42.9420 H   0  0  0  0  0  0  0  0  0  0  0  0
   39.2210   24.8200   41.8940 C   0  0  0  0  0  0  0  0  0  0  0  0
   38.0210   24.1230   42.0280 C   0  0  0  0  0  0  0  0  0  0  0  0
   37.5940   23.4120   40.9300 C   0  0  0  0  0  0  0  0  0  0  0  0
   38.3330   23.4240   39.8110 N   0  0  0  0  0  0  0  0  0  0  0  0
   39.5050   24.1190   39.7100 C   0  0  0  0  0  0  0  0  0  0  0  0
   39.9280   24.8050   40.7590 N   0  0  0  0  0  0  0  0  0  0  0  0
   37.4280   24.1160   42.9340 H   0  0  0  0  0  0  0  0  0  0  0  0
   36.6800   22.8300   40.9040 H   0  0  0  0  0  0  0  0  0  0  0  0
   40.1220   24.1490   38.8280 H   0  0  0  0  0  0  0  0  0  0  0  0
   40.8560   27.7510   41.6350 O   0  0  0  0  0  0  0  0  0  0  0  0
   41.6930   28.1840   42.0350 H   0  0  0  0  0  0  0  0  0  0  0  0
   39.7680   30.2790   41.6120 O   0  0  0  0  0  0  0  0  0  0  0  0
   38.8760   30.9080   40.7490 C   0  0  0  0  0  0  0  0  0  0  0  0
   38.6760   32.2660   40.8900 C   0  0  0  0  0  0  0  0  0  0  0  0
   37.7980   32.9840   40.0700 C   0  0  0  0  0  0  0  0  0  0  0  0
   37.1340   32.3340   39.1210 N   0  0  0  0  0  0  0  0  0  0  0  0
   37.3260   31.0080   38.9820 C   0  0  0  0  0  0  0  0  0  0  0  0
   38.1710   30.3280   39.7740 N   0  0  0  0  0  0  0  0  0  0  0  0
   39.1740   32.8790   41.6350 H   0  0  0  0  0  0  0  0  0  0  0  0
   37.6490   34.0470   40.1880 H   0  0  0  0  0  0  0  0  0  0  0  0
   34.9800   29.3580   40.0020 Cl  0  0  0  0  0  0  0  0  0  0  0  0
   35.5390   29.4520   38.3680 C   0  0  0  0  0  0  0  0  0  0  0  0
   36.6190   30.2230   37.9470 C   0  0  0  0  0  0  0  0  0  0  0  0
   36.9880   30.2320   36.6250 C   0  0  0  0  0  0  0  0  0  0  0  0
   37.8410   30.8460   36.3220 H   0  0  0  0  0  0  0  0  0  0  0  0
   36.3400   29.5060   35.6510 C   0  0  0  0  0  3  0  0  0  0  0  0
   35.2680   28.7370   36.0500 C   0  0  0  0  0  0  0  0  0  0  0  0
   34.4290   27.8050   34.8240 Cl  0  0  0  0  0  0  0  0  0  0  0  0
   34.8800   28.7150   37.3780 C   0  0  0  0  0  0  0  0  0  0  0  0
   34.0280   28.0820   37.5930 H   0  0  0  0  0  0  0  0  0  0  0  0
  1  2  1  0  0  0  0
  2  3  2  0  0  0  0
  3  7  1  0  0  0  0
  4  3  1  0  0  0  0
  4  8  1  0  0  0  0
  5  9  1  0  0  0  0
  5  4  2  0  0  0  0
  6  1  2  0  0  0  0
  6  5  1  0  0  0  0
 10  2  1  0  0  0  0
 10 11  1  0  0  0  0
 12 10  1  0  0  0  0
 13 14  1  0  0  0  0
 13 10  1  0  0  0  0
 14 19  1  0  0  0  0
 15 14  2  0  0  0  0
 16 15  1  0  0  0  0
 17 16  2  0  0  0  0
 17 18  1  0  0  0  0
 18 13  2  0  0  0  0
 20 15  1  0  0  0  0
 21 17  1  0  0  0  0
 22 23  1  0  0  0  0
 22  1  1  0  0  0  0
 24  6  1  0  0  0  0
 25 26  1  0  0  0  0
 25 24  1  0  0  0  0
 26 31  1  0  0  0  0
 27 32  1  0  0  0  0
 27 26  2  0  0  0  0
 28 27  1  0  0  0  0
 29 28  2  0  0  0  0
 29 30  1  0  0  0  0
 30 25  2  0  0  0  0
 34 33  1  0  0  0  0
 35 34  1  0  0  0  0
 35 29  1  0  0  0  0
 36 35  2  0  0  0  0
 37 36  1  0  0  0  0
 38 39  2  0  0  0  0
 38 36  1  0  0  0  0
 39 41  1  0  0  0  0
 40 39  1  0  0  0  0
 41 42  1  0  0  0  0
 41 34  2  0  0  0  0
M  END
>  <minimizedAffinity>
-6.43001747

$$$$

 OpenBabel03242512233D

 42 45  0  0  0  0  0  0  0  0999 V2000
   37.4950   30.1590   41.8120 C   0  0  0  0  0  0  0  0  0  0  0  0
   37.7660   31.1500   40.9040 C   0  0  0  0  0  0  0  0  0  0  0  0
   39.0120   31.7010   40.8710 C   0  0  0  0  0  0  0  0  0  0  0  0
   39.9860   31.2520   41.7560 C   0  0  0  0  0  0  0  0  0  0  0  0
   39.6810   30.2560   42.6540 C   0  0  0  0  0  0  0  0  0  0  0  0
   38.4040   29.6830   42.6970 C   0  0  0  0  0  0  0  0  0  0  0  0
   39.1600   32.4820   40.1280 H   0  0  0  0  0  0  0  0  0  0  0  0
   40.9610   31.7130   41.7010 H   0  0  0  0  0  0  0  0  0  0  0  0
   40.4690   29.9380   43.3240 H   0  0  0  0  0  0  0  0  0  0  0  0
   36.6720   31.5600   40.0090 C   0  0  0  0  0  0  0  0  0  0  0  0
   36.8170   32.5310   39.5620 H   0  0  0  0  0  0  0  0  0  0  0  0
   35.7390   31.5040   40.6160 H   0  0  0  0  0  0  0  0  0  0  0  0
   36.5350   30.5810   38.8610 C   0  0  0  0  0  0  0  0  0  0  0  0
   37.3980   30.7230   37.7750 C   0  0  0  0  0  0  0  0  0  0  0  0
   37.2520   29.8190   36.7480 C   0  0  0  0  0  0  0  0  0  0  0  0
   36.3110   28.8680   36.8390 N   0  0  0  0  0  0  0  0  0  0  0  0
   35.4810   28.7530   37.9180 C   0  0  0  0  0  0  0  0  0  0  0  0
   35.6090   29.6180   38.9120 N   0  0  0  0  0  0  0  0  0  0  0  0
   38.1550   31.4940   37.7070 H   0  0  0  0  0  0  0  0  0  0  0  0
   37.8580   29.8210   35.8500 H   0  0  0  0  0  0  0  0  0  0  0  0
   34.7160   28.0030   38.0210 H   0  0  0  0  0  0  0  0  0  0  0  0
   36.2450   29.5300   41.9230 O   0  0  0  0  0  0  0  0  0  0  0  0
   35.7120   29.7890   42.7570 H   0  0  0  0  0  0  0  0  0  0  0  0
   38.2100   28.6790   43.6520 O   0  0  0  0  0  0  0  0  0  0  0  0
   38.4270   27.3900   43.1740 C   0  0  0  0  0  0  0  0  0  0  0  0
   39.4310   26.6390   43.7490 C   0  0  0  0  0  0  0  0  0  0  0  0
   39.7220   25.3330   43.3350 C   0  0  0  0  0  0  0  0  0  0  0  0
   39.0060   24.8000   42.3520 N   0  0  0  0  0  0  0  0  0  0  0  0
   38.0260   25.5310   41.7880 C   0  0  0  0  0  0  0  0  0  0  0  0
   37.7540   26.7830   42.1920 N   0  0  0  0  0  0  0  0  0  0  0  0
   40.0660   26.9900   44.5560 H   0  0  0  0  0  0  0  0  0  0  0  0
   40.5100   24.7530   43.7920 H   0  0  0  0  0  0  0  0  0  0  0  0
   38.3480   26.9630   39.1200 Cl  0  0  0  0  0  0  0  0  0  0  0  0
   37.3050   25.6230   39.4500 C   0  0  0  0  0  0  0  0  0  0  0  0
   37.1910   24.9990   40.6890 C   0  0  0  0  0  0  0  0  0  0  0  0
   36.3320   23.9410   40.8530 C   0  0  0  0  0  0  0  0  0  0  0  0
   36.2620   23.4690   41.8370 H   0  0  0  0  0  0  0  0  0  0  0  0
   35.5490   23.4350   39.8400 C   0  0  0  0  0  3  0  0  0  0  0  0
   35.6500   24.0410   38.6060 C   0  0  0  0  0  0  0  0  0  0  0  0
   34.6590   23.4110   37.3040 Cl  0  0  0  0  0  0  0  0  0  0  0  0
   36.5090   25.1090   38.4210 C   0  0  0  0  0  0  0  0  0  0  0  0
   36.5180   25.5170   37.4180 H   0  0  0  0  0  0  0  0  0  0  0  0
  1 22  1  0  0  0  0
  1  6  1  0  0  0  0
  2  1  2  0  0  0  0
  3  2  1  0  0  0  0
  3  4  2  0  0  0  0
  4  5  1  0  0  0  0
  5  6  2  0  0  0  0
  5  9  1  0  0  0  0
  6 24  1  0  0  0  0
  7  3  1  0  0  0  0
  8  4  1  0  0  0  0
 10 12  1  0  0  0  0
 10  2  1  0  0  0  0
 11 10  1  0  0  0  0
 13 18  1  0  0  0  0
 13 10  1  0  0  0  0
 14 13  2  0  0  0  0
 15 16  2  0  0  0  0
 15 14  1  0  0  0  0
 16 17  1  0  0  0  0
 17 21  1  0  0  0  0
 17 18  2  0  0  0  0
 19 14  1  0  0  0  0
 20 15  1  0  0  0  0
 22 23  1  0  0  0  0
 25 24  1  0  0  0  0
 25 26  1  0  0  0  0
 26 31  1  0  0  0  0
 27 26  2  0  0  0  0
 27 32  1  0  0  0  0
 28 27  1  0  0  0  0
 29 30  1  0  0  0  0
 29 28  2  0  0  0  0
 30 25  2  0  0  0  0
 33 34  1  0  0  0  0
 34 35  1  0  0  0  0
 35 36  2  0  0  0  0
 35 29  1  0  0  0  0
 36 37  1  0  0  0  0
 38 36  1  0  0  0  0
 39 38  2  0  0  0  0
 40 39  1  0  0  0  0
 41 39  1  0  0  0  0
 41 34  2  0  0  0  0
 42 41  1  0  0  0  0
M  END
>  <minimizedAffinity>
-6.38985538

$$$$

 OpenBabel03242512233D

 42 45  0  0  0  0  0  0  0  0999 V2000
   37.7310   28.6040   42.6610 C   0  0  0  0  0  0  0  0  0  0  0  0
   38.1000   27.2990   42.8620 C   0  0  0  0  0  0  0  0  0  0  0  0
   37.6350   26.3370   42.0160 C   0  0  0  0  0  0  0  0  0  0  0  0
   36.7950   26.6920   40.9660 C   0  0  0  0  0  0  0  0  0  0  0  0
   36.4450   28.0110   40.7930 C   0  0  0  0  0  0  0  0  0  0  0  0
   36.9160   29.0070   41.6560 C   0  0  0  0  0  0  0  0  0  0  0  0
   37.9660   25.3230   42.2320 H   0  0  0  0  0  0  0  0  0  0  0  0
   36.4460   25.9030   40.3180 H   0  0  0  0  0  0  0  0  0  0  0  0
   35.7890   28.2410   39.9630 H   0  0  0  0  0  0  0  0  0  0  0  0
   38.9920   27.0190   44.0000 C   0  0  0  0  0  0  0  0  0  0  0  0
   38.7640   26.0990   44.5140 H   0  0  0  0  0  0  0  0  0  0  0  0
   38.9270   27.9080   44.6680 H   0  0  0  0  0  0  0  0  0  0  0  0
   40.4260   26.8990   43.5280 C   0  0  0  0  0  0  0  0  0  0  0  0
   40.9990   25.6290   43.4990 C   0  0  0  0  0  0  0  0  0  0  0  0
   42.3030   25.5500   43.0640 C   0  0  0  0  0  0  0  0  0  0  0  0
   42.9430   26.6700   42.6990 N   0  0  0  0  0  0  0  0  0  0  0  0
   42.3530   27.9010   42.7380 C   0  0  0  0  0  0  0  0  0  0  0  0
   41.1000   27.9920   43.1550 N   0  0  0  0  0  0  0  0  0  0  0  0
   40.4790   24.7280   43.7960 H   0  0  0  0  0  0  0  0  0  0  0  0
   42.8620   24.6240   42.9950 H   0  0  0  0  0  0  0  0  0  0  0  0
   42.8380   28.8190   42.4520 H   0  0  0  0  0  0  0  0  0  0  0  0
   38.1570   29.6640   43.4760 O   0  0  0  0  0  0  0  0  0  0  0  0
   37.4320   30.0480   44.0880 H   0  0  0  0  0  0  0  0  0  0  0  0
   36.4930   30.3120   41.3820 O   0  0  0  0  0  0  0  0  0  0  0  0
   37.2830   30.9830   40.4540 C   0  0  0  0  0  0  0  0  0  0  0  0
   36.8720   31.0050   39.1370 C   0  0  0  0  0  0  0  0  0  0  0  0
   37.6010   31.6540   38.1330 C   0  0  0  0  0  0  0  0  0  0  0  0
   38.7290   32.2720   38.4620 N   0  0  0  0  0  0  0  0  0  0  0  0
   39.1340   32.2520   39.7460 C   0  0  0  0  0  0  0  0  0  0  0  0
   38.4280   31.6260   40.7020 N   0  0  0  0  0  0  0  0  0  0  0  0
   35.9650   30.5290   38.7760 H   0  0  0  0  0  0  0  0  0  0  0  0
   37.2710   31.6650   37.1060 H   0  0  0  0  0  0  0  0  0  0  0  0
   41.5120   30.3940   40.1500 Cl  0  0  0  0  0  0  0  0  0  0  0  0
   41.4950   32.1090   40.3780 C   0  0  0  0  0  0  0  0  0  0  0  0
   40.3800   32.9190   40.1810 C   0  0  0  0  0  0  0  0  0  0  0  0
   40.4660   34.2730   40.3900 C   0  0  0  0  0  0  0  0  0  0  0  0
   39.5750   34.8860   40.2270 H   0  0  0  0  0  0  0  0  0  0  0  0
   41.6190   34.9080   40.7940 C   0  0  0  0  0  3  0  0  0  0  0  0
   42.7320   34.1200   40.9940 C   0  0  0  0  0  0  0  0  0  0  0  0
   44.2100   34.9110   41.5100 Cl  0  0  0  0  0  0  0  0  0  0  0  0
   42.6670   32.7530   40.7890 C   0  0  0  0  0  0  0  0  0  0  0  0
   43.5920   32.2210   40.9720 H   0  0  0  0  0  0  0  0  0  0  0  0
  1  2  1  0  0  0  0
  1 22  1  0  0  0  0
  2 10  1  0  0  0  0
  3  7  1  0  0  0  0
  3  2  2  0  0  0  0
  4  3  1  0  0  0  0
  5  4  2  0  0  0  0
  5  6  1  0  0  0  0
  6  1  2  0  0  0  0
  8  4  1  0  0  0  0
  9  5  1  0  0  0  0
 10 11  1  0  0  0  0
 10 12  1  0  0  0  0
 13 10  1  0  0  0  0
 14 13  1  0  0  0  0
 14 19  1  0  0  0  0
 15 14  2  0  0  0  0
 16 17  2  0  0  0  0
 16 15  1  0  0  0  0
 17 18  1  0  0  0  0
 18 13  2  0  0  0  0
 20 15  1  0  0  0  0
 21 17  1  0  0  0  0
 22 23  1  0  0  0  0
 24  6  1  0  0  0  0
 25 30  1  0  0  0  0
 25 24  1  0  0  0  0
 26 25  2  0  0  0  0
 27 28  2  0  0  0  0
 27 26  1  0  0  0  0
 28 29  1  0  0  0  0
 29 35  1  0  0  0  0
 29 30  2  0  0  0  0
 31 26  1  0  0  0  0
 32 27  1  0  0  0  0
 33 34  1  0  0  0  0
 34 41  1  0  0  0  0
 35 34  2  0  0  0  0
 35 36  1  0  0  0  0
 36 38  2  0  0  0  0
 37 36  1  0  0  0  0
 38 39  1  0  0  0  0
 39 40  1  0  0  0  0
 41 42  1  0  0  0  0
 41 39  2  0  0  0  0
M  END
>  <minimizedAffinity>
-6.36102486

$$$$

 OpenBabel03242512233D

 42 45  0  0  0  0  0  0  0  0999 V2000
   37.8520   28.9040   42.4510 C   0  0  0  0  0  0  0  0  0  0  0  0
   38.1210   27.6150   42.8330 C   0  0  0  0  0  0  0  0  0  0  0  0
   39.4030   27.2630   43.1330 C   0  0  0  0  0  0  0  0  0  0  0  0
   40.4140   28.2130   43.0460 C   0  0  0  0  0  0  0  0  0  0  0  0
   40.1100   29.4970   42.6600 C   0  0  0  0  0  0  0  0  0  0  0  0
   38.7970   29.8690   42.3490 C   0  0  0  0  0  0  0  0  0  0  0  0
   39.5470   26.2260   43.4280 H   0  0  0  0  0  0  0  0  0  0  0  0
   41.4180   27.8970   43.2910 H   0  0  0  0  0  0  0  0  0  0  0  0
   40.9290   30.2030   42.6060 H   0  0  0  0  0  0  0  0  0  0  0  0
   36.9850   26.6800   42.8950 C   0  0  0  0  0  0  0  0  0  0  0  0
   36.0250   27.1540   42.7610 H   0  0  0  0  0  0  0  0  0  0  0  0
   37.0700   26.1560   43.8740 H   0  0  0  0  0  0  0  0  0  0  0  0
   37.1000   25.6380   41.8020 C   0  0  0  0  0  0  0  0  0  0  0  0
   36.8350   26.0330   40.4920 C   0  0  0  0  0  0  0  0  0  0  0  0
   36.9490   25.0650   39.5200 C   0  0  0  0  0  0  0  0  0  0  0  0
   37.3010   23.8200   39.8700 N   0  0  0  0  0  0  0  0  0  0  0  0
   37.5560   23.4630   41.1640 C   0  0  0  0  0  0  0  0  0  0  0  0
   37.4490   24.3840   42.1100 N   0  0  0  0  0  0  0  0  0  0  0  0
   36.5500   27.0400   40.2140 H   0  0  0  0  0  0  0  0  0  0  0  0
   36.7700   25.2430   38.4660 H   0  0  0  0  0  0  0  0  0  0  0  0
   37.8400   22.4740   41.4800 H   0  0  0  0  0  0  0  0  0  0  0  0
   36.5650   29.3620   42.1230 O   0  0  0  0  0  0  0  0  0  0  0  0
   36.4190   29.5370   41.1250 H   0  0  0  0  0  0  0  0  0  0  0  0
   38.6070   31.2030   41.9690 O   0  0  0  0  0  0  0  0  0  0  0  0
   38.6470   31.4130   40.5940 C   0  0  0  0  0  0  0  0  0  0  0  0
   37.5210   31.9180   39.9760 C   0  0  0  0  0  0  0  0  0  0  0  0
   37.4670   32.1620   38.5990 C   0  0  0  0  0  0  0  0  0  0  0  0
   38.5390   31.8990   37.8600 N   0  0  0  0  0  0  0  0  0  0  0  0
   39.6390   31.4050   38.4600 C   0  0  0  0  0  0  0  0  0  0  0  0
   39.6810   31.1740   39.7830 N   0  0  0  0  0  0  0  0  0  0  0  0
   36.6010   32.1630   40.4970 H   0  0  0  0  0  0  0  0  0  0  0  0
   36.5810   32.5570   38.1240 H   0  0  0  0  0  0  0  0  0  0  0  0
   41.5380   33.7500   38.0510 Cl  0  0  0  0  0  0  0  0  0  0  0  0
   41.7650   32.1310   37.4870 C   0  0  0  0  0  0  0  0  0  0  0  0
   40.8660   31.0890   37.6990 C   0  0  0  0  0  0  0  0  0  0  0  0
   41.1360   29.8350   37.2090 C   0  0  0  0  0  0  0  0  0  0  0  0
   40.4130   29.0340   37.3900 H   0  0  0  0  0  0  0  0  0  0  0  0
   42.2730   29.5250   36.4980 C   0  0  0  0  0  3  0  0  0  0  0  0
   43.1740   30.5450   36.2790 C   0  0  0  0  0  0  0  0  0  0  0  0
   44.6290   30.1700   35.3760 Cl  0  0  0  0  0  0  0  0  0  0  0  0
   42.9210   31.8170   36.7650 C   0  0  0  0  0  0  0  0  0  0  0  0
   43.6870   32.5490   36.5420 H   0  0  0  0  0  0  0  0  0  0  0  0
  1  2  1  0  0  0  0
  2 10  1  0  0  0  0
  2  3  2  0  0  0  0
  3  7  1  0  0  0  0
  4  3  1  0  0  0  0
  4  8  1  0  0  0  0
  5  4  2  0  0  0  0
  6  1  2  0  0  0  0
  6  5  1  0  0  0  0
  9  5  1  0  0  0  0
 10 12  1  0  0  0  0
 11 10  1  0  0  0  0
 13 18  1  0  0  0  0
 13 10  1  0  0  0  0
 14 13  2  0  0  0  0
 15 16  2  0  0  0  0
 15 14  1  0  0  0  0
 16 17  1  0  0  0  0
 17 21  1  0  0  0  0
 17 18  2  0  0  0  0
 19 14  1  0  0  0  0
 20 15  1  0  0  0  0
 22  1  1  0  0  0  0
 23 22  1  0  0  0  0
 24  6  1  0  0  0  0
 25 24  1  0  0  0  0
 26 31  1  0  0  0  0
 26 25  1  0  0  0  0
 27 26  2  0  0  0  0
 28 29  2  0  0  0  0
 28 27  1  0  0  0  0
 29 30  1  0  0  0  0
 30 25  2  0  0  0  0
 32 27  1  0  0  0  0
 34 35  1  0  0  0  0
 34 33  1  0  0  0  0
 35 29  1  0  0  0  0
 36 37  1  0  0  0  0
 36 35  2  0  0  0  0
 38 36  1  0  0  0  0
 39 38  2  0  0  0  0
 39 41  1  0  0  0  0
 40 39  1  0  0  0  0
 41 34  2  0  0  0  0
 42 41  1  0  0  0  0
M  END
>  <minimizedAffinity>
-6.34398127

$$$$

 OpenBabel03242512233D

 42 45  0  0  0  0  0  0  0  0999 V2000
   36.6900   28.9170   41.6300 C   0  0  0  0  0  0  0  0  0  0  0  0
   36.7700   27.5540   41.5000 C   0  0  0  0  0  0  0  0  0  0  0  0
   36.6350   26.9940   40.2650 C   0  0  0  0  0  0  0  0  0  0  0  0
   36.4170   27.8110   39.1600 C   0  0  0  0  0  0  0  0  0  0  0  0
   36.3410   29.1730   39.3270 C   0  0  0  0  0  0  0  0  0  0  0  0
   36.4790   29.7590   40.5910 C   0  0  0  0  0  0  0  0  0  0  0  0
   36.7090   25.9090   40.2310 H   0  0  0  0  0  0  0  0  0  0  0  0
   36.3130   27.3310   38.1980 H   0  0  0  0  0  0  0  0  0  0  0  0
   36.1700   29.7690   38.4400 H   0  0  0  0  0  0  0  0  0  0  0  0
   37.0030   26.7730   42.7260 C   0  0  0  0  0  0  0  0  0  0  0  0
   36.5390   25.8000   42.7150 H   0  0  0  0  0  0  0  0  0  0  0  0
   36.6450   27.4080   43.5690 H   0  0  0  0  0  0  0  0  0  0  0  0
   38.4860   26.5340   42.9250 C   0  0  0  0  0  0  0  0  0  0  0  0
   38.9850   25.2630   42.6460 C   0  0  0  0  0  0  0  0  0  0  0  0
   40.3350   25.0750   42.8340 C   0  0  0  0  0  0  0  0  0  0  0  0
   41.0870   26.0980   43.2650 N   0  0  0  0  0  0  0  0  0  0  0  0
   40.5680   27.3340   43.5290 C   0  0  0  0  0  0  0  0  0  0  0  0
   39.2710   27.5280   43.3540 N   0  0  0  0  0  0  0  0  0  0  0  0
   38.3740   24.4400   42.2990 H   0  0  0  0  0  0  0  0  0  0  0  0
   40.8470   24.1360   42.6540 H   0  0  0  0  0  0  0  0  0  0  0  0
   41.1430   28.1750   43.8770 H   0  0  0  0  0  0  0  0  0  0  0  0
   36.8180   29.5860   42.8580 O   0  0  0  0  0  0  0  0  0  0  0  0
   35.9440   29.9730   43.2230 H   0  0  0  0  0  0  0  0  0  0  0  0
   36.3840   31.1550   40.6380 O   0  0  0  0  0  0  0  0  0  0  0  0
   37.6120   31.8090   40.6120 C   0  0  0  0  0  0  0  0  0  0  0  0
   37.6590   33.0930   40.1080 C   0  0  0  0  0  0  0  0  0  0  0  0
   38.8470   33.8300   40.0410 C   0  0  0  0  0  0  0  0  0  0  0  0
   39.9700   33.2730   40.4810 N   0  0  0  0  0  0  0  0  0  0  0  0
   39.9270   32.0200   40.9730 C   0  0  0  0  0  0  0  0  0  0  0  0
   38.7820   31.3210   41.0330 N   0  0  0  0  0  0  0  0  0  0  0  0
   36.7940   33.6280   39.7270 H   0  0  0  0  0  0  0  0  0  0  0  0
   38.8740   34.8330   39.6440 H   0  0  0  0  0  0  0  0  0  0  0  0
   41.6720   30.7430   38.8300 Cl  0  0  0  0  0  0  0  0  0  0  0  0
   41.9680   30.7410   40.5340 C   0  0  0  0  0  0  0  0  0  0  0  0
   41.1390   31.3400   41.4780 C   0  0  0  0  0  0  0  0  0  0  0  0
   41.4600   31.2840   42.8120 C   0  0  0  0  0  0  0  0  0  0  0  0
   40.7910   31.7630   43.5330 H   0  0  0  0  0  0  0  0  0  0  0  0
   42.5840   30.6550   43.2970 C   0  0  0  0  0  3  0  0  0  0  0  0
   43.4160   30.0560   42.3750 C   0  0  0  0  0  0  0  0  0  0  0  0
   44.8530   29.2500   42.9740 Cl  0  0  0  0  0  0  0  0  0  0  0  0
   43.1110   30.1020   41.0260 C   0  0  0  0  0  0  0  0  0  0  0  0
   43.8240   29.6030   40.3820 H   0  0  0  0  0  0  0  0  0  0  0  0
  1 22  1  0  0  0  0
  2  1  1  0  0  0  0
  2 10  1  0  0  0  0
  3  2  2  0  0  0  0
  4  5  2  0  0  0  0
  4  3  1  0  0  0  0
  5  6  1  0  0  0  0
  6 24  1  0  0  0  0
  6  1  2  0  0  0  0
  7  3  1  0  0  0  0
  8  4  1  0  0  0  0
  9  5  1  0  0  0  0
 10 13  1  0  0  0  0
 10 12  1  0  0  0  0
 11 10  1  0  0  0  0
 13 18  1  0  0  0  0
 14 15  1  0  0  0  0
 14 13  2  0  0  0  0
 15 16  2  0  0  0  0
 16 17  1  0  0  0  0
 17 21  1  0  0  0  0
 18 17  2  0  0  0  0
 19 14  1  0  0  0  0
 20 15  1  0  0  0  0
 22 23  1  0  0  0  0
 25 24  1  0  0  0  0
 25 30  1  0  0  0  0
 26 25  2  0  0  0  0
 27 26  1  0  0  0  0
 27 28  2  0  0  0  0
 28 29  1  0  0  0  0
 29 30  2  0  0  0  0
 29 35  1  0  0  0  0
 31 26  1  0  0  0  0
 32 27  1  0  0  0  0
 33 34  1  0  0  0  0
 34 41  2  0  0  0  0
 34 35  1  0  0  0  0
 35 36  2  0  0  0  0
 36 38  1  0  0  0  0
 36 37  1  0  0  0  0
 39 40  1  0  0  0  0
 39 38  2  0  0  0  0
 41 39  1  0  0  0  0
 42 41  1  0  0  0  0
M  END
>  <minimizedAffinity>
-6.30825138

$$$$
