
 OpenBabel03242523403D

 38 42  0  0  1  0  0  0  0  0999 V2000
   46.7590   32.6180   45.1330 C   0  0  2  0  0  0  0  0  0  0  0  0
   47.3650   31.5050   45.0070 N   0  0  2  0  0  4  0  0  0  0  0  0
   47.3700   30.2790   44.7520 C   0  0  0  0  0  0  0  0  0  0  0  0
   47.8060   30.1320   46.0490 N   0  0  0  0  0  0  0  0  0  0  0  0
   47.0450   30.8810   46.9200 C   0  0  2  0  0  3  0  0  0  0  0  0
   46.8740   30.3210   48.2190 C   0  0  0  0  0  0  0  0  0  0  0  0
   46.0790   30.9900   49.0640 C   0  0  0  0  0  0  0  0  0  0  0  0
   45.4370   32.1430   48.7680 C   0  0  0  0  0  0  0  0  0  0  0  0
   45.6940   32.5810   47.4650 C   0  0  0  0  0  0  0  0  0  0  0  0
   46.4690   32.0710   46.4280 C   0  0  1  0  0  0  0  0  0  0  0  0
   47.6560   33.3480   45.5000 H   0  0  0  0  0  0  0  0  0  0  0  0
   48.1990   31.7770   44.3210 H   0  0  0  0  0  0  0  0  0  0  0  0
   48.0680   29.7010   44.0670 H   0  0  0  0  0  0  0  0  0  0  0  0
   46.4060   29.7560   44.5700 H   0  0  0  0  0  0  0  0  0  0  0  0
   48.6300   29.5130   46.3420 H   0  0  0  0  0  0  0  0  0  0  0  0
   47.3490   29.4170   48.5320 H   0  0  0  0  0  0  0  0  0  0  0  0
   45.9530   30.5490   50.0710 H   0  0  0  0  0  0  0  0  0  0  0  0
   44.8110   32.6420   49.4720 H   0  0  0  0  0  0  0  0  0  0  0  0
   45.1170   33.4990   47.3660 H   0  0  0  0  0  0  0  0  0  0  0  0
   44.4980   35.5380   45.2960 C   0  0  0  0  0  0  0  0  0  0  0  0
   44.2510   35.6240   43.9090 C   0  0  0  0  0  0  0  0  0  0  0  0
   44.8510   34.6830   43.0980 C   0  0  0  0  0  0  0  0  0  0  0  0
   45.6300   33.7550   43.7070 N   0  0  0  0  0  0  0  0  0  0  0  0
   45.8590   33.6900   45.0550 C   0  0  0  0  0  0  0  0  0  0  0  0
   45.2730   34.5840   45.7230 N   0  0  0  0  0  0  0  0  0  0  0  0
   44.0710   36.2330   46.0180 H   0  0  0  0  0  0  0  0  0  0  0  0
   43.6050   36.4290   43.5890 H   0  0  0  0  0  0  0  0  0  0  0  0
   44.5310   34.7750   41.3840 S   0  0  0  0  0  0  0  0  0  0  0  0
   43.3970   31.8910   41.3420 Cl  0  0  0  0  0  0  0  0  0  0  0  0
   42.2970   33.2280   41.0770 C   0  0  0  0  0  0  0  0  0  0  0  0
   42.7800   34.5330   41.0910 C   0  0  0  0  0  0  0  0  0  0  0  0
   41.8630   35.5610   40.8750 C   0  0  0  0  0  0  0  0  0  0  0  0
   42.2720   36.5760   40.8910 H   0  0  0  0  0  0  0  0  0  0  0  0
   40.5300   35.2640   40.6580 C   0  0  0  0  0  3  0  0  0  0  0  0
   40.0760   33.9590   40.6490 C   0  0  0  0  0  0  0  0  0  0  0  0
   38.3870   33.5800   40.3740 Cl  0  0  0  0  0  0  0  0  0  0  0  0
   40.9540   32.9150   40.8590 C   0  0  0  0  0  0  0  0  0  0  0  0
   40.6350   31.8690   40.8600 H   0  0  0  0  0  0  0  0  0  0  0  0
  1 11  1  1  0  0  0
  1 10  1  0  0  0  0
  2 12  1  1  0  0  0
  2  1  1  0  0  0  0
  2 10  1  0  0  0  0
  3  2  1  0  0  0  0
  3  4  1  0  0  0  0
  4 15  1  0  0  0  0
  4  5  1  0  0  0  0
  5  6  1  6  0  0  0
  6 16  1  0  0  0  0
  6  7  2  0  0  0  0
  7 17  1  0  0  0  0
  8  7  1  0  0  0  0
  8 18  1  0  0  0  0
  9  8  2  0  0  0  0
 10  5  1  0  0  0  0
 10  9  1  6  0  0  0
 13  3  1  0  0  0  0
 14  3  1  0  0  0  0
 19  9  1  0  0  0  0
 20 25  1  0  0  0  0
 20 26  1  0  0  0  0
 21 20  2  0  0  0  0
 22 23  2  0  0  0  0
 22 21  1  0  0  0  0
 23 24  1  0  0  0  0
 24  1  1  0  0  0  0
 24 25  2  0  0  0  0
 27 21  1  0  0  0  0
 28 22  1  0  0  0  0
 30 31  1  0  0  0  0
 30 29  1  0  0  0  0
 31 28  1  0  0  0  0
 32 33  1  0  0  0  0
 32 31  2  0  0  0  0
 34 32  1  0  0  0  0
 35 34  2  0  0  0  0
 35 37  1  0  0  0  0
 36 35  1  0  0  0  0
 37 38  1  0  0  0  0
 37 30  2  0  0  0  0
M  END
>  <minimizedAffinity>
-6.60229397

>  <minimizedRMSD>
1.06989455

$$$$
