
 OpenBabel03242523403D

 38 42  0  0  1  0  0  0  0  0999 V2000
   46.7510   32.5980   45.1090 C   0  0  2  0  0  0  0  0  0  0  0  0
   47.3460   31.4780   44.9890 N   0  0  2  0  0  0  0  0  0  0  0  0
   47.3360   30.2480   44.7480 C   0  0  0  0  0  0  0  0  0  0  0  0
   47.7830   30.1110   46.0420 N   0  0  0  0  0  0  0  0  0  0  0  0
   47.0360   30.8770   46.9120 C   0  0  2  0  0  0  0  0  0  0  0  0
   46.8720   30.3320   48.2180 C   0  0  0  0  0  0  0  0  0  0  0  0
   46.0900   31.0170   49.0630 C   0  0  0  0  0  0  0  0  0  0  0  0
   45.4580   32.1730   48.7600 C   0  0  0  0  0  0  0  0  0  0  0  0
   45.7070   32.5940   47.4510 C   0  0  0  0  0  0  0  0  0  0  0  0
   46.4680   32.0660   46.4120 C   0  0  1  0  0  0  0  0  0  0  0  0
   47.6590   33.3220   45.4610 H   0  0  0  0  0  0  0  0  0  0  0  0
   48.1760   31.7340   44.2940 H   0  0  0  0  0  0  0  0  0  0  0  0
   48.0230   29.6570   44.0620 H   0  0  0  0  0  0  0  0  0  0  0  0
   46.3660   29.7340   44.5790 H   0  0  0  0  0  0  0  0  0  0  0  0
   48.6030   29.4870   46.3340 H   0  0  0  0  0  0  0  0  0  0  0  0
   47.3410   29.4260   48.5360 H   0  0  0  0  0  0  0  0  0  0  0  0
   45.9700   30.5870   50.0750 H   0  0  0  0  0  0  0  0  0  0  0  0
   44.8420   32.6850   49.4650 H   0  0  0  0  0  0  0  0  0  0  0  0
   45.1390   33.5180   47.3480 H   0  0  0  0  0  0  0  0  0  0  0  0
   44.5070   35.5310   45.2690 C   0  0  0  0  0  0  0  0  0  0  0  0
   44.2980   35.6460   43.8770 C   0  0  0  0  0  0  0  0  0  0  0  0
   44.9150   34.7170   43.0650 C   0  0  0  0  0  0  0  0  0  0  0  0
   45.6700   33.7710   43.6760 N   0  0  0  0  0  0  0  0  0  0  0  0
   45.8610   33.6770   45.0280 C   0  0  0  0  0  0  0  0  0  0  0  0
   45.2640   34.5620   45.6980 N   0  0  0  0  0  0  0  0  0  0  0  0
   44.0650   36.2140   45.9920 H   0  0  0  0  0  0  0  0  0  0  0  0
   43.6670   36.4610   43.5560 H   0  0  0  0  0  0  0  0  0  0  0  0
   44.6420   34.8440   41.3450 S   0  0  0  0  0  0  0  0  0  0  0  0
   43.6770   32.7760   39.2490 Cl  0  0  0  0  0  0  0  0  0  0  0  0
   42.4820   33.7670   40.0600 C   0  0  0  0  0  0  0  0  0  0  0  0
   42.8890   34.7040   41.0070 C   0  0  0  0  0  0  0  0  0  0  0  0
   41.8980   35.4680   41.6230 C   0  0  0  0  0  0  0  0  0  0  0  0
   42.2480   36.1960   42.3620 H   0  0  0  0  0  0  0  0  0  0  0  0
   40.5690   35.2790   41.2870 C   0  0  0  0  0  0  0  0  0  0  0  0
   40.1920   34.3420   40.3440 C   0  0  0  0  0  0  0  0  0  0  0  0
   38.5110   34.1000   39.9170 Cl  0  0  0  0  0  0  0  0  0  0  0  0
   41.1440   33.5670   39.7130 C   0  0  0  0  0  0  0  0  0  0  0  0
   40.8870   32.8150   38.9620 H   0  0  0  0  0  0  0  0  0  0  0  0
  1 11  1  1  0  0  0
  1 10  1  0  0  0  0
  2 12  1  1  0  0  0
  2  1  1  0  0  0  0
  2 10  1  0  0  0  0
  3  2  1  0  0  0  0
  3  4  1  0  0  0  0
  4 15  1  0  0  0  0
  4  5  1  0  0  0  0
  5  6  1  6  0  0  0
  6 16  1  0  0  0  0
  6  7  2  0  0  0  0
  7 17  1  0  0  0  0
  8  7  1  0  0  0  0
  8 18  1  0  0  0  0
  9  8  2  0  0  0  0
 10  5  1  0  0  0  0
 10  9  1  6  0  0  0
 13  3  1  0  0  0  0
 14  3  1  0  0  0  0
 19  9  1  0  0  0  0
 20 25  1  0  0  0  0
 20 26  1  0  0  0  0
 21 20  2  0  0  0  0
 22 23  2  0  0  0  0
 22 21  1  0  0  0  0
 23 24  1  0  0  0  0
 24  1  1  0  0  0  0
 24 25  2  0  0  0  0
 27 21  1  0  0  0  0
 28 22  1  0  0  0  0
 29 30  1  0  0  0  0
 30 31  1  0  0  0  0
 31 28  1  0  0  0  0
 31 32  2  0  0  0  0
 32 33  1  0  0  0  0
 34 32  1  0  0  0  0
 35 34  2  0  0  0  0
 36 35  1  0  0  0  0
 37 30  2  0  0  0  0
 37 35  1  0  0  0  0
 38 37  1  0  0  0  0
M  END
>  <minimizedAffinity>
-6.7218399

>  <minimizedRMSD>
1.15058696

$$$$
