
 OpenBabel03252508143D

 38 41  0  0  1  0  0  0  0  0999 V2000
   46.2230   32.9820   45.8580 C   0  0  0  0  0  3  0  0  0  0  0  0
   46.8080   31.8890   45.5800 C   0  0  0  0  0  3  0  0  0  0  0  0
   44.7810   35.7620   43.9190 C   0  0  0  0  0  0  0  0  0  0  0  0
   45.3210   35.5880   42.6530 C   0  0  0  0  0  0  0  0  0  0  0  0
   46.1840   34.5180   42.5010 C   0  0  0  0  0  0  0  0  0  0  0  0
   46.4560   33.7130   43.5530 N   0  0  0  0  0  0  0  0  0  0  0  0
   45.9170   33.9070   44.7670 C   0  0  0  0  0  0  0  0  0  0  0  0
   45.0820   34.9400   44.9240 N   0  0  0  0  0  0  0  0  0  0  0  0
   44.0960   36.5380   44.2190 H   0  0  0  0  0  0  0  0  0  0  0  0
   44.9740   36.3350   41.9630 H   0  0  0  0  0  0  0  0  0  0  0  0
   48.8870   35.8230   41.8510 Cl  0  0  0  0  0  0  0  0  0  0  0  0
   47.9330   34.8630   40.7540 C   0  0  0  0  0  0  0  0  0  0  0  0
   46.7340   34.3360   41.1780 C   0  0  0  0  0  0  0  0  0  0  0  0
   46.1130   33.6010   40.1970 C   0  0  0  0  0  0  0  0  0  0  0  0
   45.1750   33.1230   40.3540 H   0  0  0  0  0  0  0  0  0  0  0  0
   46.6140   33.4040   38.9290 C   0  0  0  0  0  3  0  0  0  0  0  0
   47.8170   33.9570   38.5620 C   0  0  0  0  0  0  0  0  0  0  0  0
   48.4720   33.7210   36.9670 Cl  0  0  0  0  0  0  0  0  0  0  0  0
   48.4910   34.7070   39.5080 C   0  0  0  0  0  0  0  0  0  0  0  0
   49.4340   35.1340   39.2060 H   0  0  0  0  0  0  0  0  0  0  0  0
   47.0810   30.9720   46.7640 C   0  0  0  0  0  0  0  0  0  0  0  0
   46.3160   30.1490   46.7100 H   0  0  0  0  0  0  0  0  0  0  0  0
   48.0650   30.5080   46.7040 H   0  0  0  0  0  0  0  0  0  0  0  0
   46.8490   31.7230   48.0360 C   0  0  1  0  0  0  0  0  0  0  0  0
   46.2160   30.9680   49.1590 C   0  0  0  0  0  0  0  0  0  0  0  0
   47.6100   31.3550   49.2590 C   0  0  1  0  0  0  0  0  0  0  0  0
   46.5390   32.7930   47.9480 H   0  0  0  0  0  0  0  0  0  0  0  0
   45.4220   31.4540   49.7840 H   0  0  0  0  0  0  0  0  0  0  0  0
   46.0260   29.8660   49.0210 H   0  0  0  0  0  0  0  0  0  0  0  0
   47.8160   32.2070   49.9760 H   0  0  0  0  0  0  0  0  0  0  0  0
   48.7620   30.4430   49.1060 C   0  0  0  0  0  0  0  0  0  0  0  0
   49.6160   30.2760   50.3920 C   0  0  0  0  0  0  0  0  0  0  0  0
   50.1570   31.0910   49.2690 C   0  0  0  0  0  0  0  0  0  0  0  0
   48.7090   29.5720   48.4370 H   0  0  0  0  0  0  0  0  0  0  0  0
   50.0890   29.2760   50.4850 H   0  0  0  0  0  0  0  0  0  0  0  0
   49.2760   30.8070   51.2980 H   0  0  0  0  0  0  0  0  0  0  0  0
   50.9230   30.7120   48.5890 H   0  0  0  0  0  0  0  0  0  0  0  0
   50.1810   32.1990   49.3610 H   0  0  0  0  0  0  0  0  0  0  0  0
  2  1  2  0  0  0  0
  2 21  1  0  0  0  0
  3  9  1  0  0  0  0
  3  8  1  0  0  0  0
  4  3  2  0  0  0  0
  5  4  1  0  0  0  0
  5  6  2  0  0  0  0
  6  7  1  0  0  0  0
  7  8  2  0  0  0  0
  7  1  1  0  0  0  0
 10  4  1  0  0  0  0
 12 13  1  0  0  0  0
 12 11  1  0  0  0  0
 13  5  1  0  0  0  0
 14 15  1  0  0  0  0
 14 13  2  0  0  0  0
 16 14  1  0  0  0  0
 17 16  2  0  0  0  0
 17 19  1  0  0  0  0
 18 17  1  0  0  0  0
 19 12  2  0  0  0  0
 20 19  1  0  0  0  0
 21 24  1  0  0  0  0
 22 21  1  0  0  0  0
 23 21  1  0  0  0  0
 24 27  1  6  0  0  0
 24 25  1  0  0  0  0
 24 26  1  0  0  0  0
 25 26  1  0  0  0  0
 25 28  1  0  0  0  0
 26 30  1  1  0  0  0
 29 25  1  0  0  0  0
 31 26  1  0  0  0  0
 31 33  1  0  0  0  0
 31 32  1  0  0  0  0
 32 35  1  0  0  0  0
 32 36  1  0  0  0  0
 33 38  1  0  0  0  0
 33 32  1  0  0  0  0
 34 31  1  0  0  0  0
 37 33  1  0  0  0  0
M  END
>  <minimizedAffinity>
-6.1711421

>  <minimizedRMSD>
0.929253459

$$$$
