
 OpenBabel03242511393D

 25 26  0  0  0  0  0  0  0  0999 V2000
   45.7150   32.7340   46.8470 C   0  0  0  0  0  0  0  0  0  0  0  0
   44.7620   33.2670   46.6600 H   0  0  0  0  0  0  0  0  0  0  0  0
   46.0720   33.1470   47.8350 H   0  0  0  0  0  0  0  0  0  0  0  0
   45.6430   30.6580   44.5450 Cl  0  0  0  0  0  0  0  0  0  0  0  0
   45.4260   30.2430   46.2010 C   0  0  0  0  0  0  0  0  0  0  0  0
   45.4920   31.3080   47.0690 C   0  0  0  0  0  0  0  0  0  0  0  0
   45.3210   31.0300   48.4350 C   0  0  0  0  0  0  0  0  0  0  0  0
   45.3440   31.7580   49.2600 H   0  0  0  0  0  0  0  0  0  0  0  0
   45.0970   29.7140   48.8370 C   0  0  0  0  0  0  0  0  0  0  0  0
   45.0330   28.6650   47.9600 C   0  0  0  0  0  0  0  0  0  0  0  0
   44.7510   27.0130   48.4670 Cl  0  0  0  0  0  0  0  0  0  0  0  0
   45.2040   28.9630   46.6250 C   0  0  0  0  0  0  0  0  0  0  0  0
   45.1720   28.2100   45.8520 H   0  0  0  0  0  0  0  0  0  0  0  0
   46.7120   33.1290   45.8180 C   0  0  0  0  0  0  0  0  0  0  0  0
   46.9340   32.3210   45.0910 H   0  0  0  0  0  0  0  0  0  0  0  0
   47.5940   33.6620   46.2080 H   0  0  0  0  0  0  0  0  0  0  0  0
   44.4470   35.7950   44.5500 C   0  0  0  0  0  0  0  0  0  0  0  0
   44.9260   36.0010   43.2360 C   0  0  0  0  0  0  0  0  0  0  0  0
   46.0030   35.2160   42.8480 C   0  0  0  0  0  0  0  0  0  0  0  0
   46.5320   34.3200   43.7070 N   0  0  0  0  0  0  0  0  0  0  0  0
   46.0260   34.1640   44.9670 C   0  0  0  0  0  0  0  0  0  0  0  0
   44.9810   34.8960   45.4040 N   0  0  0  0  0  0  0  0  0  0  0  0
   43.6130   36.3420   44.9720 H   0  0  0  0  0  0  0  0  0  0  0  0
   44.4130   36.7520   42.6460 H   0  0  0  0  0  0  0  0  0  0  0  0
   46.3650   35.3720   41.8570 H   0  0  0  0  0  0  0  0  0  0  0  0
  1  6  1  0  0  0  0
  1  3  1  0  0  0  0
  2  1  1  0  0  0  0
  4  5  1  0  0  0  0
  5 12  2  0  0  0  0
  5  6  1  0  0  0  0
  6  7  2  0  0  0  0
  7  9  1  0  0  0  0
  7  8  1  0  0  0  0
 10 11  1  0  0  0  0
 10  9  2  0  0  0  0
 12 10  1  0  0  0  0
 13 12  1  0  0  0  0
 14 16  1  0  0  0  0
 14  1  1  0  0  0  0
 15 14  1  0  0  0  0
 17 23  1  0  0  0  0
 17 22  1  0  0  0  0
 18 17  2  0  0  0  0
 19 18  1  0  0  0  0
 19 20  2  0  0  0  0
 20 21  1  0  0  0  0
 21 22  2  0  0  0  0
 21 14  1  0  0  0  0
 24 18  1  0  0  0  0
 25 19  1  0  0  0  0
M  END
>  <minimizedAffinity>
-4.42076921

>  <minimizedRMSD>
2.53265834

$$$$
