
 OpenBabel03242514243D

 35 38  0  0  0  0  0  0  0  0999 V2000
   37.7430   27.7570   39.4020 Cl  0  0  0  0  0  0  0  0  0  0  0  0
   37.5040   27.7560   41.1410 C   0  0  0  0  0  0  0  0  0  0  0  0
   37.4120   26.5760   41.8090 C   0  0  0  0  0  0  0  0  0  0  0  0
   37.2230   26.5650   43.1920 C   0  0  0  0  0  0  0  0  0  0  0  0
   37.1360   27.7780   43.8290 C   0  0  0  0  0  0  0  0  0  0  0  0
   37.2320   28.9610   43.1250 C   0  0  0  0  0  0  0  0  0  0  0  0
   37.4160   28.9600   41.7860 C   0  0  0  0  0  0  0  0  0  0  0  0
   37.1490   25.6320   43.7290 H   0  0  0  0  0  0  0  0  0  0  0  0
   36.9900   27.8340   44.9010 H   0  0  0  0  0  0  0  0  0  0  0  0
   37.1650   29.9250   43.6230 H   0  0  0  0  0  0  0  0  0  0  0  0
   38.8240   23.5420   40.2670 C   0  0  0  0  0  0  0  0  0  0  0  0
   37.6880   22.9290   39.7420 C   0  0  0  0  0  0  0  0  0  0  0  0
   36.4550   23.5420   39.9110 C   0  0  0  0  0  0  0  0  0  0  0  0
   36.4130   24.7210   40.5860 N   0  0  0  0  0  0  0  0  0  0  0  0
   37.5110   25.3060   41.0890 C   0  0  0  0  0  0  0  0  0  0  0  0
   38.7290   24.7150   40.9310 N   0  0  0  0  0  0  0  0  0  0  0  0
   39.8450   23.1710   40.2070 H   0  0  0  0  0  0  0  0  0  0  0  0
   37.8450   21.9920   39.2250 H   0  0  0  0  0  0  0  0  0  0  0  0
   35.5830   23.0650   39.5050 H   0  0  0  0  0  0  0  0  0  0  0  0
   37.5210   30.2090   41.0200 C   0  0  0  0  0  0  0  0  0  0  0  0
   36.5260   31.0100   40.6230 N   0  0  0  0  0  0  0  0  0  0  0  0
   37.0420   32.0470   39.9490 C   0  0  0  0  0  0  0  0  0  0  0  0
   38.3780   31.9060   39.9150 N   0  0  0  0  0  0  0  0  0  0  0  0
   38.6570   30.7760   40.5740 N   0  0  0  0  0  0  0  0  0  0  0  0
   36.6160   32.9150   39.4610 H   0  0  0  0  0  0  0  0  0  0  0  0
   38.9580   34.6770   41.0190 Cl  0  0  0  0  0  0  0  0  0  0  0  0
   39.8880   33.8800   39.7750 C   0  0  0  0  0  0  0  0  0  0  0  0
   39.4900   32.6170   39.3840 C   0  0  0  0  0  0  0  0  0  0  0  0
   40.1720   31.9100   38.4020 C   0  0  0  0  0  0  0  0  0  0  0  0
   39.9110   30.9180   38.0510 H   0  0  0  0  0  0  0  0  0  0  0  0
   41.2890   32.4910   37.7930 C   0  0  0  0  0  3  0  0  0  0  0  0
   41.6760   33.7550   38.1920 C   0  0  0  0  0  0  0  0  0  0  0  0
   43.0850   34.5290   37.4480 Cl  0  0  0  0  0  0  0  0  0  0  0  0
   41.0030   34.4640   39.1690 C   0  0  0  0  0  0  0  0  0  0  0  0
   41.3080   35.4640   39.4860 H   0  0  0  0  0  0  0  0  0  0  0  0
  1  2  1  0  0  0  0
  2  7  2  0  0  0  0
  2  3  1  0  0  0  0
  3  4  2  0  0  0  0
  4  8  1  0  0  0  0
  4  5  1  0  0  0  0
  5  9  1  0  0  0  0
  6 10  1  0  0  0  0
  6  5  2  0  0  0  0
  7  6  1  0  0  0  0
 11 16  1  0  0  0  0
 12 13  1  0  0  0  0
 12 11  2  0  0  0  0
 13 14  2  0  0  0  0
 14 15  1  0  0  0  0
 15  3  1  0  0  0  0
 16 15  2  0  0  0  0
 17 11  1  0  0  0  0
 18 12  1  0  0  0  0
 19 13  1  0  0  0  0
 20  7  1  0  0  0  0
 21 20  1  0  0  0  0
 22 21  2  0  0  0  0
 23 22  1  0  0  0  0
 23 24  1  0  0  0  0
 24 20  2  0  0  0  0
 25 22  1  0  0  0  0
 27 26  1  0  0  0  0
 28 27  1  0  0  0  0
 28 23  1  0  0  0  0
 29 28  2  0  0  0  0
 30 29  1  0  0  0  0
 31 32  2  0  0  0  0
 31 29  1  0  0  0  0
 32 34  1  0  0  0  0
 33 32  1  0  0  0  0
 34 35  1  0  0  0  0
 34 27  2  0  0  0  0
M  END
>  <minimizedAffinity>
-6.20672083

$$$$

 OpenBabel03242514243D

 35 38  0  0  0  0  0  0  0  0999 V2000
   40.6530   30.4670   41.4520 Cl  0  0  0  0  0  0  0  0  0  0  0  0
   39.2690   31.3320   40.8050 C   0  0  0  0  0  0  0  0  0  0  0  0
   39.4570   32.4940   40.1260 C   0  0  0  0  0  0  0  0  0  0  0  0
   38.3620   33.1880   39.6070 C   0  0  0  0  0  0  0  0  0  0  0  0
   37.1160   32.6510   39.8120 C   0  0  0  0  0  0  0  0  0  0  0  0
   36.9550   31.4700   40.5060 C   0  0  0  0  0  0  0  0  0  0  0  0
   38.0210   30.8040   41.0040 C   0  0  0  0  0  0  0  0  0  0  0  0
   38.5040   34.1110   39.0670 H   0  0  0  0  0  0  0  0  0  0  0  0
   36.2290   33.1440   39.4340 H   0  0  0  0  0  0  0  0  0  0  0  0
   35.9710   31.0380   40.6730 H   0  0  0  0  0  0  0  0  0  0  0  0
   42.7740   33.1360   38.6590 C   0  0  0  0  0  0  0  0  0  0  0  0
   43.3240   34.0380   39.5700 C   0  0  0  0  0  0  0  0  0  0  0  0
   42.5730   34.4210   40.6710 C   0  0  0  0  0  0  0  0  0  0  0  0
   41.3260   33.8970   40.8110 N   0  0  0  0  0  0  0  0  0  0  0  0
   40.8040   33.0300   39.9300 C   0  0  0  0  0  0  0  0  0  0  0  0
   41.5300   32.6440   38.8440 N   0  0  0  0  0  0  0  0  0  0  0  0
   43.2520   32.7550   37.7590 H   0  0  0  0  0  0  0  0  0  0  0  0
   44.3240   34.3870   39.3530 H   0  0  0  0  0  0  0  0  0  0  0  0
   43.0000   35.1160   41.3690 H   0  0  0  0  0  0  0  0  0  0  0  0
   37.8690   29.5450   41.7450 C   0  0  0  0  0  0  0  0  0  0  0  0
   37.5930   29.3910   43.0450 N   0  0  0  0  0  0  0  0  0  0  0  0
   37.5390   28.0820   43.3270 C   0  0  0  0  0  0  0  0  0  0  0  0
   37.7840   27.3960   42.1980 N   0  0  0  0  0  0  0  0  0  0  0  0
   37.9850   28.3050   41.2370 N   0  0  0  0  0  0  0  0  0  0  0  0
   37.3490   27.5140   44.2290 H   0  0  0  0  0  0  0  0  0  0  0  0
   39.8280   25.6380   43.6010 Cl  0  0  0  0  0  0  0  0  0  0  0  0
   38.7470   25.1040   42.3390 C   0  0  0  0  0  0  0  0  0  0  0  0
   37.8750   26.0320   41.8040 C   0  0  0  0  0  0  0  0  0  0  0  0
   36.9810   25.6940   40.7960 C   0  0  0  0  0  0  0  0  0  0  0  0
   36.2730   26.3730   40.3350 H   0  0  0  0  0  0  0  0  0  0  0  0
   36.9620   24.3810   40.3100 C   0  0  0  0  0  3  0  0  0  0  0  0
   37.8400   23.4640   40.8540 C   0  0  0  0  0  0  0  0  0  0  0  0
   37.8500   21.7920   40.2700 Cl  0  0  0  0  0  0  0  0  0  0  0  0
   38.7320   23.7930   41.8570 C   0  0  0  0  0  0  0  0  0  0  0  0
   39.4260   23.0680   42.2870 H   0  0  0  0  0  0  0  0  0  0  0  0
  2  7  1  0  0  0  0
  2  1  1  0  0  0  0
  3  2  2  0  0  0  0
  4  5  2  0  0  0  0
  4  3  1  0  0  0  0
  5  6  1  0  0  0  0
  6 10  1  0  0  0  0
  6  7  2  0  0  0  0
  7 20  1  0  0  0  0
  8  4  1  0  0  0  0
  9  5  1  0  0  0  0
 11 16  2  0  0  0  0
 11 12  1  0  0  0  0
 12 13  2  0  0  0  0
 13 14  1  0  0  0  0
 13 19  1  0  0  0  0
 15  3  1  0  0  0  0
 15 14  2  0  0  0  0
 16 15  1  0  0  0  0
 17 11  1  0  0  0  0
 18 12  1  0  0  0  0
 20 21  1  0  0  0  0
 21 22  2  0  0  0  0
 22 25  1  0  0  0  0
 23 22  1  0  0  0  0
 24 20  2  0  0  0  0
 24 23  1  0  0  0  0
 27 26  1  0  0  0  0
 28 23  1  0  0  0  0
 28 27  2  0  0  0  0
 29 28  1  0  0  0  0
 30 29  1  0  0  0  0
 31 29  2  0  0  0  0
 31 32  1  0  0  0  0
 32 34  2  0  0  0  0
 33 32  1  0  0  0  0
 34 35  1  0  0  0  0
 34 27  1  0  0  0  0
M  END
>  <minimizedAffinity>
-6.18837595

$$$$

 OpenBabel03242514243D

 35 38  0  0  0  0  0  0  0  0999 V2000
   40.7930   31.0800   38.9210 Cl  0  0  0  0  0  0  0  0  0  0  0  0
   40.0450   32.5890   39.4150 C   0  0  0  0  0  0  0  0  0  0  0  0
   40.8070   33.7050   39.5580 C   0  0  0  0  0  0  0  0  0  0  0  0
   40.2200   34.9100   39.9500 C   0  0  0  0  0  0  0  0  0  0  0  0
   38.8670   34.9110   40.1790 C   0  0  0  0  0  0  0  0  0  0  0  0
   38.1180   33.7630   40.0270 C   0  0  0  0  0  0  0  0  0  0  0  0
   38.6950   32.6010   39.6460 C   0  0  0  0  0  0  0  0  0  0  0  0
   40.8190   35.8000   40.0650 H   0  0  0  0  0  0  0  0  0  0  0  0
   38.3550   35.8150   40.4850 H   0  0  0  0  0  0  0  0  0  0  0  0
   37.0450   33.7550   40.2060 H   0  0  0  0  0  0  0  0  0  0  0  0
   44.4410   33.4720   40.1150 C   0  0  0  0  0  0  0  0  0  0  0  0
   44.9400   33.5720   38.8160 C   0  0  0  0  0  0  0  0  0  0  0  0
   44.0480   33.7180   37.7640 C   0  0  0  0  0  0  0  0  0  0  0  0
   42.7190   33.7560   38.0500 N   0  0  0  0  0  0  0  0  0  0  0  0
   42.2470   33.6590   39.3030 C   0  0  0  0  0  0  0  0  0  0  0  0
   43.1110   33.5160   40.3460 N   0  0  0  0  0  0  0  0  0  0  0  0
   45.0260   33.3560   41.0240 H   0  0  0  0  0  0  0  0  0  0  0  0
   46.0150   33.5290   38.7120 H   0  0  0  0  0  0  0  0  0  0  0  0
   44.4360   33.7940   36.7660 H   0  0  0  0  0  0  0  0  0  0  0  0
   37.9140   31.3680   39.4790 C   0  0  0  0  0  0  0  0  0  0  0  0
   36.8160   31.1920   38.7370 N   0  0  0  0  0  0  0  0  0  0  0  0
   36.4080   29.9200   38.8550 C   0  0  0  0  0  0  0  0  0  0  0  0
   37.2540   29.2800   39.6800 N   0  0  0  0  0  0  0  0  0  0  0  0
   38.1710   30.1790   40.0550 N   0  0  0  0  0  0  0  0  0  0  0  0
   35.5850   29.3520   38.4410 H   0  0  0  0  0  0  0  0  0  0  0  0
   38.5750   27.1690   37.9390 Cl  0  0  0  0  0  0  0  0  0  0  0  0
   37.9770   26.9010   39.5580 C   0  0  0  0  0  0  0  0  0  0  0  0
   37.4010   27.9700   40.2150 C   0  0  0  0  0  0  0  0  0  0  0  0
   36.8980   27.8480   41.5040 C   0  0  0  0  0  0  0  0  0  0  0  0
   36.4360   28.6460   42.0730 H   0  0  0  0  0  0  0  0  0  0  0  0
   36.9770   26.6100   42.1530 C   0  0  0  0  0  3  0  0  0  0  0  0
   37.5550   25.5490   41.4840 C   0  0  0  0  0  0  0  0  0  0  0  0
   37.6760   23.9660   42.2680 Cl  0  0  0  0  0  0  0  0  0  0  0  0
   38.0570   25.6640   40.2010 C   0  0  0  0  0  0  0  0  0  0  0  0
   38.5140   24.8260   39.6720 H   0  0  0  0  0  0  0  0  0  0  0  0
  1  2  1  0  0  0  0
  2  3  2  0  0  0  0
  2  7  1  0  0  0  0
  3  4  1  0  0  0  0
  4  8  1  0  0  0  0
  4  5  2  0  0  0  0
  5  9  1  0  0  0  0
  6  5  1  0  0  0  0
  6 10  1  0  0  0  0
  7  6  2  0  0  0  0
 11 16  1  0  0  0  0
 11 17  1  0  0  0  0
 12 11  2  0  0  0  0
 13 14  2  0  0  0  0
 13 12  1  0  0  0  0
 14 15  1  0  0  0  0
 15  3  1  0  0  0  0
 15 16  2  0  0  0  0
 18 12  1  0  0  0  0
 19 13  1  0  0  0  0
 20  7  1  0  0  0  0
 20 24  2  0  0  0  0
 21 22  2  0  0  0  0
 21 20  1  0  0  0  0
 22 23  1  0  0  0  0
 23 24  1  0  0  0  0
 23 28  1  0  0  0  0
 25 22  1  0  0  0  0
 26 27  1  0  0  0  0
 27 34  2  0  0  0  0
 27 28  1  0  0  0  0
 28 29  2  0  0  0  0
 29 30  1  0  0  0  0
 29 31  1  0  0  0  0
 32 31  2  0  0  0  0
 32 33  1  0  0  0  0
 34 32  1  0  0  0  0
 35 34  1  0  0  0  0
M  END
>  <minimizedAffinity>
-5.7969017

$$$$

 OpenBabel03242514243D

 35 38  0  0  0  0  0  0  0  0999 V2000
   36.4950   26.9560   38.5200 Cl  0  0  0  0  0  0  0  0  0  0  0  0
   36.7180   26.3520   40.1530 C   0  0  0  0  0  0  0  0  0  0  0  0
   36.7370   25.0130   40.3800 C   0  0  0  0  0  0  0  0  0  0  0  0
   36.9140   24.5230   41.6750 C   0  0  0  0  0  0  0  0  0  0  0  0
   37.0650   25.4410   42.6840 C   0  0  0  0  0  0  0  0  0  0  0  0
   37.0420   26.7950   42.4250 C   0  0  0  0  0  0  0  0  0  0  0  0
   36.8700   27.2600   41.1660 C   0  0  0  0  0  0  0  0  0  0  0  0
   36.9300   23.4610   41.8630 H   0  0  0  0  0  0  0  0  0  0  0  0
   37.2070   25.1220   43.7100 H   0  0  0  0  0  0  0  0  0  0  0  0
   37.1610   27.5290   43.2190 H   0  0  0  0  0  0  0  0  0  0  0  0
   35.1670   22.7810   37.9050 C   0  0  0  0  0  0  0  0  0  0  0  0
   36.2730   22.3050   37.2010 C   0  0  0  0  0  0  0  0  0  0  0  0
   37.5380   22.7410   37.5660 C   0  0  0  0  0  0  0  0  0  0  0  0
   37.6420   23.6170   38.6010 N   0  0  0  0  0  0  0  0  0  0  0  0
   36.5720   24.0700   39.2730 C   0  0  0  0  0  0  0  0  0  0  0  0
   35.3230   23.6510   38.9260 N   0  0  0  0  0  0  0  0  0  0  0  0
   34.1260   22.5220   37.7240 H   0  0  0  0  0  0  0  0  0  0  0  0
   36.0670   21.6120   36.3970 H   0  0  0  0  0  0  0  0  0  0  0  0
   38.3870   22.3730   37.0210 H   0  0  0  0  0  0  0  0  0  0  0  0
   36.8420   28.6980   40.8710 C   0  0  0  0  0  0  0  0  0  0  0  0
   35.7880   29.5200   40.9130 N   0  0  0  0  0  0  0  0  0  0  0  0
   36.1840   30.7560   40.5730 C   0  0  0  0  0  0  0  0  0  0  0  0
   37.5020   30.7200   40.3120 N   0  0  0  0  0  0  0  0  0  0  0  0
   37.8920   29.4540   40.4980 N   0  0  0  0  0  0  0  0  0  0  0  0
   35.6780   31.7080   40.4770 H   0  0  0  0  0  0  0  0  0  0  0  0
   38.7770   30.3400   37.5800 Cl  0  0  0  0  0  0  0  0  0  0  0  0
   39.1890   31.6060   38.7100 C   0  0  0  0  0  0  0  0  0  0  0  0
   38.5130   31.6380   39.9140 C   0  0  0  0  0  0  0  0  0  0  0  0
   38.7760   32.6100   40.8710 C   0  0  0  0  0  0  0  0  0  0  0  0
   38.2820   32.6900   41.8320 H   0  0  0  0  0  0  0  0  0  0  0  0
   39.7510   33.5800   40.6100 C   0  0  0  0  0  3  0  0  0  0  0  0
   40.4190   33.5350   39.4030 C   0  0  0  0  0  0  0  0  0  0  0  0
   41.6600   34.7430   39.0300 Cl  0  0  0  0  0  0  0  0  0  0  0  0
   40.1620   32.5710   38.4460 C   0  0  0  0  0  0  0  0  0  0  0  0
   40.6910   32.5360   37.4900 H   0  0  0  0  0  0  0  0  0  0  0  0
  1  2  1  0  0  0  0
  2  3  2  0  0  0  0
  2  7  1  0  0  0  0
  3  4  1  0  0  0  0
  4  8  1  0  0  0  0
  4  5  2  0  0  0  0
  5  9  1  0  0  0  0
  6  5  1  0  0  0  0
  6 10  1  0  0  0  0
  7  6  2  0  0  0  0
 11 16  1  0  0  0  0
 12 13  1  0  0  0  0
 12 11  2  0  0  0  0
 13 14  2  0  0  0  0
 14 15  1  0  0  0  0
 15  3  1  0  0  0  0
 16 15  2  0  0  0  0
 17 11  1  0  0  0  0
 18 12  1  0  0  0  0
 19 13  1  0  0  0  0
 20 21  1  0  0  0  0
 20  7  1  0  0  0  0
 22 21  2  0  0  0  0
 23 24  1  0  0  0  0
 23 22  1  0  0  0  0
 24 20  2  0  0  0  0
 25 22  1  0  0  0  0
 26 27  1  0  0  0  0
 27 28  1  0  0  0  0
 28 23  1  0  0  0  0
 28 29  2  0  0  0  0
 29 30  1  0  0  0  0
 31 29  1  0  0  0  0
 32 31  2  0  0  0  0
 33 32  1  0  0  0  0
 34 27  2  0  0  0  0
 34 32  1  0  0  0  0
 35 34  1  0  0  0  0
M  END
>  <minimizedAffinity>
-5.61910963

$$$$

 OpenBabel03242514243D

 35 38  0  0  0  0  0  0  0  0999 V2000
   38.5060   28.1260   39.5530 Cl  0  0  0  0  0  0  0  0  0  0  0  0
   38.0400   28.1130   41.2450 C   0  0  0  0  0  0  0  0  0  0  0  0
   37.6700   26.9460   41.8340 C   0  0  0  0  0  0  0  0  0  0  0  0
   37.2980   26.9250   43.1790 C   0  0  0  0  0  0  0  0  0  0  0  0
   37.3230   28.1150   43.8620 C   0  0  0  0  0  0  0  0  0  0  0  0
   37.7020   29.2860   43.2390 C   0  0  0  0  0  0  0  0  0  0  0  0
   38.0620   29.2950   41.9350 C   0  0  0  0  0  0  0  0  0  0  0  0
   37.0040   26.0010   43.6540 H   0  0  0  0  0  0  0  0  0  0  0  0
   37.0460   28.1630   44.9080 H   0  0  0  0  0  0  0  0  0  0  0  0
   37.7250   30.2330   43.7730 H   0  0  0  0  0  0  0  0  0  0  0  0
   36.5600   24.2390   39.5960 C   0  0  0  0  0  0  0  0  0  0  0  0
   37.6450   23.3640   39.6370 C   0  0  0  0  0  0  0  0  0  0  0  0
   38.7420   23.6940   40.4190 C   0  0  0  0  0  0  0  0  0  0  0  0
   38.7070   24.8620   41.1130 N   0  0  0  0  0  0  0  0  0  0  0  0
   37.6590   25.6990   41.0680 C   0  0  0  0  0  0  0  0  0  0  0  0
   36.5740   25.3880   40.3040 N   0  0  0  0  0  0  0  0  0  0  0  0
   35.6420   24.1020   39.0270 H   0  0  0  0  0  0  0  0  0  0  0  0
   37.5590   22.4650   39.0430 H   0  0  0  0  0  0  0  0  0  0  0  0
   39.5760   23.0180   40.4480 H   0  0  0  0  0  0  0  0  0  0  0  0
   38.4680   30.5320   41.2540 C   0  0  0  0  0  0  0  0  0  0  0  0
   37.6830   31.5360   40.8490 N   0  0  0  0  0  0  0  0  0  0  0  0
   38.4430   32.4780   40.2700 C   0  0  0  0  0  0  0  0  0  0  0  0
   39.7220   32.0690   40.3070 N   0  0  0  0  0  0  0  0  0  0  0  0
   39.7230   30.8760   40.9120 N   0  0  0  0  0  0  0  0  0  0  0  0
   38.2340   33.4360   39.8130 H   0  0  0  0  0  0  0  0  0  0  0  0
   40.6530   31.4030   37.4920 Cl  0  0  0  0  0  0  0  0  0  0  0  0
   41.5560   32.3510   38.6470 C   0  0  0  0  0  0  0  0  0  0  0  0
   40.9890   32.5630   39.8880 C   0  0  0  0  0  0  0  0  0  0  0  0
   41.6370   33.3060   40.8670 C   0  0  0  0  0  0  0  0  0  0  0  0
   41.2470   33.5080   41.8580 H   0  0  0  0  0  0  0  0  0  0  0  0
   42.8940   33.8530   40.5890 C   0  0  0  0  0  3  0  0  0  0  0  0
   43.4500   33.6330   39.3440 C   0  0  0  0  0  0  0  0  0  0  0  0
   45.0390   34.3080   38.9500 Cl  0  0  0  0  0  0  0  0  0  0  0  0
   42.8110   32.8950   38.3660 C   0  0  0  0  0  0  0  0  0  0  0  0
   43.2490   32.7210   37.3800 H   0  0  0  0  0  0  0  0  0  0  0  0
  1  2  1  0  0  0  0
  2  3  2  0  0  0  0
  2  7  1  0  0  0  0
  3  4  1  0  0  0  0
  4  8  1  0  0  0  0
  4  5  2  0  0  0  0
  5  9  1  0  0  0  0
  6 10  1  0  0  0  0
  6  5  1  0  0  0  0
  7  6  2  0  0  0  0
 11 12  2  0  0  0  0
 11 16  1  0  0  0  0
 12 13  1  0  0  0  0
 13 19  1  0  0  0  0
 13 14  2  0  0  0  0
 15 14  1  0  0  0  0
 15  3  1  0  0  0  0
 16 15  2  0  0  0  0
 17 11  1  0  0  0  0
 18 12  1  0  0  0  0
 20  7  1  0  0  0  0
 21 20  1  0  0  0  0
 22 23  1  0  0  0  0
 22 21  2  0  0  0  0
 23 24  1  0  0  0  0
 24 20  2  0  0  0  0
 25 22  1  0  0  0  0
 26 27  1  0  0  0  0
 27 28  1  0  0  0  0
 28 23  1  0  0  0  0
 28 29  2  0  0  0  0
 29 30  1  0  0  0  0
 31 29  1  0  0  0  0
 32 31  2  0  0  0  0
 33 32  1  0  0  0  0
 34 27  2  0  0  0  0
 34 32  1  0  0  0  0
 35 34  1  0  0  0  0
M  END
>  <minimizedAffinity>
-5.59252119

$$$$

 OpenBabel03242514243D

 35 38  0  0  0  0  0  0  0  0999 V2000
   39.1230   29.0600   41.2470 Cl  0  0  0  0  0  0  0  0  0  0  0  0
   37.7970   29.1800   40.1020 C   0  0  0  0  0  0  0  0  0  0  0  0
   37.0570   28.0790   39.8090 C   0  0  0  0  0  0  0  0  0  0  0  0
   36.0010   28.1650   38.9000 C   0  0  0  0  0  0  0  0  0  0  0  0
   35.7520   29.3880   38.3310 C   0  0  0  0  0  0  0  0  0  0  0  0
   36.5200   30.4900   38.6470 C   0  0  0  0  0  0  0  0  0  0  0  0
   37.5410   30.3970   39.5290 C   0  0  0  0  0  0  0  0  0  0  0  0
   35.4090   27.2940   38.6630 H   0  0  0  0  0  0  0  0  0  0  0  0
   34.9460   29.5180   37.6190 H   0  0  0  0  0  0  0  0  0  0  0  0
   36.3290   31.4630   38.2000 H   0  0  0  0  0  0  0  0  0  0  0  0
   37.1260   25.3300   42.2610 C   0  0  0  0  0  0  0  0  0  0  0  0
   37.9220   24.3850   41.6140 C   0  0  0  0  0  0  0  0  0  0  0  0
   38.4280   24.6810   40.3570 C   0  0  0  0  0  0  0  0  0  0  0  0
   38.1230   25.8890   39.8110 N   0  0  0  0  0  0  0  0  0  0  0  0
   37.3570   26.7930   40.4400 C   0  0  0  0  0  0  0  0  0  0  0  0
   36.8520   26.5160   41.6750 N   0  0  0  0  0  0  0  0  0  0  0  0
   36.6690   25.2260   43.2420 H   0  0  0  0  0  0  0  0  0  0  0  0
   38.0960   23.4600   42.1470 H   0  0  0  0  0  0  0  0  0  0  0  0
   39.0400   23.9500   39.8630 H   0  0  0  0  0  0  0  0  0  0  0  0
   38.3690   31.5580   39.8780 C   0  0  0  0  0  0  0  0  0  0  0  0
   38.0070   32.6390   40.5780 N   0  0  0  0  0  0  0  0  0  0  0  0
   39.0560   33.4690   40.6750 C   0  0  0  0  0  0  0  0  0  0  0  0
   40.0950   32.9120   40.0300 N   0  0  0  0  0  0  0  0  0  0  0  0
   39.6600   31.7430   39.5460 N   0  0  0  0  0  0  0  0  0  0  0  0
   39.2120   34.4330   41.1410 H   0  0  0  0  0  0  0  0  0  0  0  0
   42.2020   32.0950   42.0620 Cl  0  0  0  0  0  0  0  0  0  0  0  0
   42.5250   32.9440   40.5710 C   0  0  0  0  0  0  0  0  0  0  0  0
   41.4520   33.2420   39.7550 C   0  0  0  0  0  0  0  0  0  0  0  0
   41.6170   33.9150   38.5510 C   0  0  0  0  0  0  0  0  0  0  0  0
   40.8180   34.1780   37.8670 H   0  0  0  0  0  0  0  0  0  0  0  0
   42.9020   34.3010   38.1550 C   0  0  0  0  0  3  0  0  0  0  0  0
   43.9670   33.9970   38.9800 C   0  0  0  0  0  0  0  0  0  0  0  0
   45.6110   34.4660   38.5180 Cl  0  0  0  0  0  0  0  0  0  0  0  0
   43.8100   33.3280   40.1800 C   0  0  0  0  0  0  0  0  0  0  0  0
   44.6510   33.0870   40.8330 H   0  0  0  0  0  0  0  0  0  0  0  0
  2  1  1  0  0  0  0
  3  2  1  0  0  0  0
  3 15  1  0  0  0  0
  4  3  2  0  0  0  0
  5  6  2  0  0  0  0
  5  4  1  0  0  0  0
  6  7  1  0  0  0  0
  7 20  1  0  0  0  0
  7  2  2  0  0  0  0
  8  4  1  0  0  0  0
  9  5  1  0  0  0  0
 10  6  1  0  0  0  0
 11 17  1  0  0  0  0
 12 18  1  0  0  0  0
 12 11  2  0  0  0  0
 13 12  1  0  0  0  0
 14 13  2  0  0  0  0
 14 15  1  0  0  0  0
 15 16  2  0  0  0  0
 16 11  1  0  0  0  0
 19 13  1  0  0  0  0
 20 21  1  0  0  0  0
 21 22  2  0  0  0  0
 22 25  1  0  0  0  0
 23 22  1  0  0  0  0
 24 20  2  0  0  0  0
 24 23  1  0  0  0  0
 27 26  1  0  0  0  0
 28 23  1  0  0  0  0
 28 27  2  0  0  0  0
 29 28  1  0  0  0  0
 30 29  1  0  0  0  0
 31 29  2  0  0  0  0
 31 32  1  0  0  0  0
 32 34  2  0  0  0  0
 33 32  1  0  0  0  0
 34 27  1  0  0  0  0
 34 35  1  0  0  0  0
M  END
>  <minimizedAffinity>
-5.58136797

$$$$

 OpenBabel03242514243D

 35 38  0  0  0  0  0  0  0  0999 V2000
   40.8630   31.0380   40.5430 Cl  0  0  0  0  0  0  0  0  0  0  0  0
   39.9710   32.5400   40.3680 C   0  0  0  0  0  0  0  0  0  0  0  0
   40.6430   33.7090   40.2070 C   0  0  0  0  0  0  0  0  0  0  0  0
   39.9420   34.9080   40.0670 C   0  0  0  0  0  0  0  0  0  0  0  0
   38.5720   34.8490   40.1010 C   0  0  0  0  0  0  0  0  0  0  0  0
   37.9140   33.6470   40.2670 C   0  0  0  0  0  0  0  0  0  0  0  0
   38.6030   32.4910   40.4010 C   0  0  0  0  0  0  0  0  0  0  0  0
   40.4700   35.8410   39.9380 H   0  0  0  0  0  0  0  0  0  0  0  0
   37.9730   35.7460   39.9980 H   0  0  0  0  0  0  0  0  0  0  0  0
   36.8290   33.5920   40.2950 H   0  0  0  0  0  0  0  0  0  0  0  0
   44.1520   33.8880   41.3140 C   0  0  0  0  0  0  0  0  0  0  0  0
   44.8430   33.7570   40.1100 C   0  0  0  0  0  0  0  0  0  0  0  0
   44.1210   33.6100   38.9350 C   0  0  0  0  0  0  0  0  0  0  0  0
   42.7640   33.6000   39.0130 N   0  0  0  0  0  0  0  0  0  0  0  0
   42.1060   33.7260   40.1760 C   0  0  0  0  0  0  0  0  0  0  0  0
   42.8020   33.8720   41.3380 N   0  0  0  0  0  0  0  0  0  0  0  0
   44.5920   34.0100   42.3010 H   0  0  0  0  0  0  0  0  0  0  0  0
   45.9220   33.7790   40.1720 H   0  0  0  0  0  0  0  0  0  0  0  0
   44.6570   33.5080   38.0100 H   0  0  0  0  0  0  0  0  0  0  0  0
   37.9210   31.2020   40.5790 C   0  0  0  0  0  0  0  0  0  0  0  0
   37.8080   30.4860   41.7030 N   0  0  0  0  0  0  0  0  0  0  0  0
   37.1110   29.3710   41.4420 C   0  0  0  0  0  0  0  0  0  0  0  0
   36.7770   29.3760   40.1410 N   0  0  0  0  0  0  0  0  0  0  0  0
   37.2800   30.5030   39.6240 N   0  0  0  0  0  0  0  0  0  0  0  0
   36.7900   28.5280   42.0400 H   0  0  0  0  0  0  0  0  0  0  0  0
   37.9910   26.6740   39.4620 Cl  0  0  0  0  0  0  0  0  0  0  0  0
   36.4800   27.2800   38.8310 C   0  0  0  0  0  0  0  0  0  0  0  0
   36.0680   28.5320   39.2410 C   0  0  0  0  0  0  0  0  0  0  0  0
   34.8800   29.0920   38.7890 C   0  0  0  0  0  0  0  0  0  0  0  0
   34.5010   30.0680   39.0720 H   0  0  0  0  0  0  0  0  0  0  0  0
   34.0800   28.3690   37.8970 C   0  0  0  0  0  3  0  0  0  0  0  0
   34.5050   27.1180   37.4940 C   0  0  0  0  0  0  0  0  0  0  0  0
   33.5240   26.1690   36.3660 Cl  0  0  0  0  0  0  0  0  0  0  0  0
   35.6860   26.5550   37.9400 C   0  0  0  0  0  0  0  0  0  0  0  0
   36.0220   25.5660   37.6220 H   0  0  0  0  0  0  0  0  0  0  0  0
  2  7  1  0  0  0  0
  2  1  1  0  0  0  0
  3  2  2  0  0  0  0
  4  5  2  0  0  0  0
  4  3  1  0  0  0  0
  5  6  1  0  0  0  0
  6 10  1  0  0  0  0
  6  7  2  0  0  0  0
  7 20  1  0  0  0  0
  8  4  1  0  0  0  0
  9  5  1  0  0  0  0
 11 16  1  0  0  0  0
 11 17  1  0  0  0  0
 12 18  1  0  0  0  0
 12 11  2  0  0  0  0
 13 14  2  0  0  0  0
 13 12  1  0  0  0  0
 14 15  1  0  0  0  0
 15  3  1  0  0  0  0
 15 16  2  0  0  0  0
 19 13  1  0  0  0  0
 20 21  1  0  0  0  0
 22 21  2  0  0  0  0
 22 25  1  0  0  0  0
 23 22  1  0  0  0  0
 24 23  1  0  0  0  0
 24 20  2  0  0  0  0
 27 28  1  0  0  0  0
 27 26  1  0  0  0  0
 28 23  1  0  0  0  0
 29 30  1  0  0  0  0
 29 28  2  0  0  0  0
 31 29  1  0  0  0  0
 32 31  2  0  0  0  0
 32 34  1  0  0  0  0
 33 32  1  0  0  0  0
 34 27  2  0  0  0  0
 35 34  1  0  0  0  0
M  END
>  <minimizedAffinity>
-5.48926449

$$$$

 OpenBabel03242514243D

 35 38  0  0  0  0  0  0  0  0999 V2000
   37.0070   30.6940   38.1210 Cl  0  0  0  0  0  0  0  0  0  0  0  0
   36.9640   29.9030   39.6880 C   0  0  0  0  0  0  0  0  0  0  0  0
   36.2560   28.7550   39.8450 C   0  0  0  0  0  0  0  0  0  0  0  0
   36.2170   28.1180   41.0870 C   0  0  0  0  0  0  0  0  0  0  0  0
   36.9140   28.6970   42.1170 C   0  0  0  0  0  0  0  0  0  0  0  0
   37.6250   29.8640   41.9300 C   0  0  0  0  0  0  0  0  0  0  0  0
   37.6570   30.4730   40.7230 C   0  0  0  0  0  0  0  0  0  0  0  0
   35.6560   27.2060   41.2190 H   0  0  0  0  0  0  0  0  0  0  0  0
   36.9210   28.2500   43.1040 H   0  0  0  0  0  0  0  0  0  0  0  0
   38.1790   30.3290   42.7410 H   0  0  0  0  0  0  0  0  0  0  0  0
   35.4350   26.6380   36.9440 C   0  0  0  0  0  0  0  0  0  0  0  0
   34.1580   27.0860   36.6100 C   0  0  0  0  0  0  0  0  0  0  0  0
   33.5830   28.0980   37.3650 C   0  0  0  0  0  0  0  0  0  0  0  0
   34.2980   28.6090   38.4030 N   0  0  0  0  0  0  0  0  0  0  0  0
   35.5270   28.1720   38.7170 C   0  0  0  0  0  0  0  0  0  0  0  0
   36.1040   27.1790   37.9850 N   0  0  0  0  0  0  0  0  0  0  0  0
   35.9980   25.8560   36.4380 H   0  0  0  0  0  0  0  0  0  0  0  0
   33.6860   26.6040   35.7650 H   0  0  0  0  0  0  0  0  0  0  0  0
   32.5990   28.4390   37.1050 H   0  0  0  0  0  0  0  0  0  0  0  0
   38.4080   31.7160   40.5040 C   0  0  0  0  0  0  0  0  0  0  0  0
   37.9420   32.9690   40.5410 N   0  0  0  0  0  0  0  0  0  0  0  0
   38.9490   33.8170   40.2870 C   0  0  0  0  0  0  0  0  0  0  0  0
   40.0660   33.0980   40.0860 N   0  0  0  0  0  0  0  0  0  0  0  0
   39.7200   31.8130   40.2200 N   0  0  0  0  0  0  0  0  0  0  0  0
   39.0260   34.8950   40.2190 H   0  0  0  0  0  0  0  0  0  0  0  0
   41.0160   32.6020   37.2420 Cl  0  0  0  0  0  0  0  0  0  0  0  0
   42.0210   33.1810   38.5470 C   0  0  0  0  0  0  0  0  0  0  0  0
   41.4330   33.3540   39.7830 C   0  0  0  0  0  0  0  0  0  0  0  0
   42.1570   33.8100   40.8770 C   0  0  0  0  0  0  0  0  0  0  0  0
   41.7550   33.9660   41.8720 H   0  0  0  0  0  0  0  0  0  0  0  0
   43.5170   34.1020   40.7220 C   0  0  0  0  0  3  0  0  0  0  0  0
   44.0930   33.9230   39.4800 C   0  0  0  0  0  0  0  0  0  0  0  0
   45.8110   34.2810   39.2390 Cl  0  0  0  0  0  0  0  0  0  0  0  0
   43.3780   33.4700   38.3880 C   0  0  0  0  0  0  0  0  0  0  0  0
   43.8330   33.3290   37.4040 H   0  0  0  0  0  0  0  0  0  0  0  0
  1  2  1  0  0  0  0
  2  3  2  0  0  0  0
  2  7  1  0  0  0  0
  3  4  1  0  0  0  0
  4  8  1  0  0  0  0
  4  5  2  0  0  0  0
  5  9  1  0  0  0  0
  6  5  1  0  0  0  0
  6 10  1  0  0  0  0
  7  6  2  0  0  0  0
 11 16  1  0  0  0  0
 12 11  2  0  0  0  0
 12 13  1  0  0  0  0
 13 14  2  0  0  0  0
 14 15  1  0  0  0  0
 15  3  1  0  0  0  0
 16 15  2  0  0  0  0
 17 11  1  0  0  0  0
 18 12  1  0  0  0  0
 19 13  1  0  0  0  0
 20 21  1  0  0  0  0
 20  7  1  0  0  0  0
 22 21  2  0  0  0  0
 23 24  1  0  0  0  0
 23 22  1  0  0  0  0
 24 20  2  0  0  0  0
 25 22  1  0  0  0  0
 26 27  1  0  0  0  0
 27 28  1  0  0  0  0
 28 23  1  0  0  0  0
 28 29  2  0  0  0  0
 29 30  1  0  0  0  0
 31 29  1  0  0  0  0
 32 31  2  0  0  0  0
 33 32  1  0  0  0  0
 34 27  2  0  0  0  0
 34 32  1  0  0  0  0
 35 34  1  0  0  0  0
M  END
>  <minimizedAffinity>
-5.46273422

$$$$

 OpenBabel03242514243D

 35 38  0  0  0  0  0  0  0  0999 V2000
   39.8260   26.6070   40.5810 Cl  0  0  0  0  0  0  0  0  0  0  0  0
   38.6740   27.0530   41.8290 C   0  0  0  0  0  0  0  0  0  0  0  0
   37.5470   26.3150   42.0000 C   0  0  0  0  0  0  0  0  0  0  0  0
   36.6250   26.6620   42.9900 C   0  0  0  0  0  0  0  0  0  0  0  0
   36.9090   27.7590   43.7630 C   0  0  0  0  0  0  0  0  0  0  0  0
   38.0620   28.4910   43.5670 C   0  0  0  0  0  0  0  0  0  0  0  0
   38.9480   28.1460   42.6050 C   0  0  0  0  0  0  0  0  0  0  0  0
   35.7270   26.0800   43.1320 H   0  0  0  0  0  0  0  0  0  0  0  0
   36.2320   28.0770   44.5480 H   0  0  0  0  0  0  0  0  0  0  0  0
   38.2940   29.3610   44.1750 H   0  0  0  0  0  0  0  0  0  0  0  0
   37.6120   22.8750   40.6830 C   0  0  0  0  0  0  0  0  0  0  0  0
   36.7880   22.9780   39.5630 C   0  0  0  0  0  0  0  0  0  0  0  0
   36.2170   24.2050   39.2610 C   0  0  0  0  0  0  0  0  0  0  0  0
   36.4900   25.2580   40.0770 N   0  0  0  0  0  0  0  0  0  0  0  0
   37.2840   25.1510   41.1530 C   0  0  0  0  0  0  0  0  0  0  0  0
   37.8520   23.9520   41.4620 N   0  0  0  0  0  0  0  0  0  0  0  0
   38.1200   21.9780   41.0310 H   0  0  0  0  0  0  0  0  0  0  0  0
   36.6440   22.0720   38.9900 H   0  0  0  0  0  0  0  0  0  0  0  0
   35.5830   24.2790   38.3970 H   0  0  0  0  0  0  0  0  0  0  0  0
   40.1810   28.9130   42.3810 C   0  0  0  0  0  0  0  0  0  0  0  0
   41.3670   28.7430   42.9750 N   0  0  0  0  0  0  0  0  0  0  0  0
   42.2310   29.6470   42.4910 C   0  0  0  0  0  0  0  0  0  0  0  0
   41.5900   30.3990   41.5810 N   0  0  0  0  0  0  0  0  0  0  0  0
   40.3350   29.9390   41.5240 N   0  0  0  0  0  0  0  0  0  0  0  0
   43.2740   29.8690   42.6810 H   0  0  0  0  0  0  0  0  0  0  0  0
   43.2940   32.6530   42.6980 Cl  0  0  0  0  0  0  0  0  0  0  0  0
   42.6580   32.5900   41.0740 C   0  0  0  0  0  0  0  0  0  0  0  0
   41.8990   31.4910   40.7230 C   0  0  0  0  0  0  0  0  0  0  0  0
   41.3540   31.3580   39.4520 C   0  0  0  0  0  0  0  0  0  0  0  0
   40.7510   30.5230   39.1150 H   0  0  0  0  0  0  0  0  0  0  0  0
   41.5800   32.3620   38.5030 C   0  0  0  0  0  3  0  0  0  0  0  0
   42.3400   33.4560   38.8680 C   0  0  0  0  0  0  0  0  0  0  0  0
   42.6510   34.7500   37.6990 Cl  0  0  0  0  0  0  0  0  0  0  0  0
   42.8850   33.5940   40.1300 C   0  0  0  0  0  0  0  0  0  0  0  0
   43.4880   34.4590   40.4190 H   0  0  0  0  0  0  0  0  0  0  0  0
  1  2  1  0  0  0  0
  2  3  2  0  0  0  0
  2  7  1  0  0  0  0
  3  4  1  0  0  0  0
  4  8  1  0  0  0  0
  4  5  2  0  0  0  0
  5  9  1  0  0  0  0
  6  5  1  0  0  0  0
  6 10  1  0  0  0  0
  7  6  2  0  0  0  0
 11 17  1  0  0  0  0
 11 16  1  0  0  0  0
 12 11  2  0  0  0  0
 13 12  1  0  0  0  0
 13 14  2  0  0  0  0
 14 15  1  0  0  0  0
 15 16  2  0  0  0  0
 15  3  1  0  0  0  0
 18 12  1  0  0  0  0
 19 13  1  0  0  0  0
 20  7  1  0  0  0  0
 20 21  1  0  0  0  0
 22 25  1  0  0  0  0
 22 21  2  0  0  0  0
 23 22  1  0  0  0  0
 24 23  1  0  0  0  0
 24 20  2  0  0  0  0
 27 26  1  0  0  0  0
 28 27  1  0  0  0  0
 28 23  1  0  0  0  0
 29 28  2  0  0  0  0
 30 29  1  0  0  0  0
 31 32  2  0  0  0  0
 31 29  1  0  0  0  0
 32 34  1  0  0  0  0
 33 32  1  0  0  0  0
 34 35  1  0  0  0  0
 34 27  2  0  0  0  0
M  END
>  <minimizedAffinity>
-5.45646477

$$$$
