
 OpenBabel03242515393D

 37 40  0  0  0  0  0  0  0  0999 V2000
   44.6880   34.7450   41.2010 C   0  0  0  0  0  0  0  0  0  0  0  0
   44.6380   33.9790   40.0500 C   0  0  0  0  0  0  0  0  0  0  0  0
   45.7810   33.2570   39.7070 C   0  0  0  0  0  0  0  0  0  0  0  0
   46.8670   33.3530   40.5240 N   0  0  0  0  0  0  0  0  0  0  0  0
   46.8820   34.1010   41.6250 C   0  0  0  0  0  0  0  0  0  0  0  0
   45.7930   34.7790   41.9390 N   0  0  0  0  0  0  0  0  0  0  0  0
   43.7480   33.9510   39.4540 H   0  0  0  0  0  0  0  0  0  0  0  0
   47.7100   34.1730   37.6610 Cl  0  0  0  0  0  0  0  0  0  0  0  0
   46.6860   32.7460   37.5050 C   0  0  0  0  0  0  0  0  0  0  0  0
   45.8300   32.4320   38.5320 C   0  0  0  0  0  0  0  0  0  0  0  0
   45.0730   31.3010   38.3180 C   0  0  0  0  0  0  0  0  0  0  0  0
   44.3770   30.9900   39.0810 H   0  0  0  0  0  0  0  0  0  0  0  0
   45.1660   30.5360   37.1510 C   0  0  0  0  0  3  0  0  0  0  0  0
   46.0580   30.9240   36.1580 C   0  0  0  0  0  0  0  0  0  0  0  0
   46.1320   29.9310   34.7230 Cl  0  0  0  0  0  0  0  0  0  0  0  0
   46.8370   32.0540   36.3370 C   0  0  0  0  0  0  0  0  0  0  0  0
   47.5290   32.3460   35.5540 H   0  0  0  0  0  0  0  0  0  0  0  0
   43.1880   35.6690   41.6150 S   0  0  0  0  0  0  0  0  0  0  0  0
   41.0320   35.4560   40.0050 C   0  0  0  0  0  0  0  0  0  0  0  0
   41.7440   34.8010   41.0150 C   0  0  0  0  0  0  0  0  0  0  0  0
   41.3320   33.5700   41.4900 C   0  0  0  0  0  0  0  0  0  0  0  0
   40.2060   32.9380   40.9930 C   0  0  0  0  0  0  0  0  0  0  0  0
   39.4900   33.6030   39.9750 C   0  0  0  0  0  0  0  0  0  0  0  0
   39.8960   34.8400   39.4890 C   0  0  0  0  0  0  0  0  0  0  0  0
   38.3980   32.7640   39.6400 O   0  0  0  0  0  0  0  0  0  0  0  0
   38.2780   31.8480   40.6980 C   0  0  0  0  0  0  0  0  0  0  0  0
   39.5740   31.7380   41.2700 O   0  0  0  0  0  0  0  0  0  0  0  0
   41.3180   36.4120   39.6090 H   0  0  0  0  0  0  0  0  0  0  0  0
   41.9220   33.1140   42.2700 H   0  0  0  0  0  0  0  0  0  0  0  0
   39.3550   35.3450   38.7180 H   0  0  0  0  0  0  0  0  0  0  0  0
   37.8530   30.8790   40.4050 H   0  0  0  0  0  0  0  0  0  0  0  0
   37.6470   32.3440   41.4820 H   0  0  0  0  0  0  0  0  0  0  0  0
   47.9610   34.2130   42.4610 O   0  0  0  0  0  0  0  0  0  0  0  0
   49.1790   34.6920   41.9750 C   0  0  0  0  0  0  0  0  0  0  0  0
   49.9550   33.7060   41.4280 F   0  0  0  0  0  0  0  0  0  0  0  0
   48.8430   35.6940   41.0520 F   0  0  0  0  0  0  0  0  0  0  0  0
   49.8740   35.2260   43.0490 F   0  0  0  0  0  0  0  0  0  0  0  0
  1 18  1  0  0  0  0
  1  6  1  0  0  0  0
  2  1  2  0  0  0  0
  3  2  1  0  0  0  0
  3  4  2  0  0  0  0
  4  5  1  0  0  0  0
  5  6  2  0  0  0  0
  5 33  1  0  0  0  0
  7  2  1  0  0  0  0
  9  8  1  0  0  0  0
  9 10  1  0  0  0  0
 10  3  1  0  0  0  0
 11 10  2  0  0  0  0
 11 12  1  0  0  0  0
 13 11  1  0  0  0  0
 14 16  1  0  0  0  0
 14 13  2  0  0  0  0
 15 14  1  0  0  0  0
 16  9  2  0  0  0  0
 17 16  1  0  0  0  0
 19 20  1  0  0  0  0
 20 21  2  0  0  0  0
 20 18  1  0  0  0  0
 21 29  1  0  0  0  0
 22 27  1  0  0  0  0
 22 21  1  0  0  0  0
 23 22  2  0  0  0  0
 24 23  1  0  0  0  0
 24 19  2  0  0  0  0
 25 23  1  0  0  0  0
 25 26  1  0  0  0  0
 26 27  1  0  0  0  0
 26 32  1  0  0  0  0
 28 19  1  0  0  0  0
 30 24  1  0  0  0  0
 31 26  1  0  0  0  0
 34 33  1  0  0  0  0
 34 37  1  0  0  0  0
 35 34  1  0  0  0  0
 36 34  1  0  0  0  0
M  END
>  <minimizedAffinity>
-5.92111158

>  <minimizedRMSD>
1.00721705

$$$$
