
 OpenBabel03242510573D

 37 39  0  0  0  0  0  0  0  0999 V2000
   45.6320   31.5940   47.1360 C   0  0  0  0  0  0  0  0  0  0  0  0
   45.5410   32.0700   48.4600 C   0  0  0  0  0  0  0  0  0  0  0  0
   45.3100   31.2480   49.5460 C   0  0  0  0  0  0  0  0  0  0  0  0
   45.1650   29.9020   49.3000 C   0  0  0  0  0  0  0  0  0  0  0  0
   45.2560   29.4260   47.9880 C   0  0  0  0  0  0  0  0  0  0  0  0
   45.4800   30.2790   46.9960 N   0  0  0  0  0  0  0  0  0  0  0  0
   45.6610   33.1340   48.5970 H   0  0  0  0  0  0  0  0  0  0  0  0
   45.2530   31.7040   50.5350 H   0  0  0  0  0  0  0  0  0  0  0  0
   44.9840   29.2660   50.1690 H   0  0  0  0  0  0  0  0  0  0  0  0
   44.7900   36.5550   43.8120 C   0  0  0  0  0  0  0  0  0  0  0  0
   45.6860   36.2440   42.7780 C   0  0  0  0  0  0  0  0  0  0  0  0
   46.3310   35.0080   42.8210 C   0  0  0  0  0  0  0  0  0  0  0  0
   46.0690   34.1640   43.8530 N   0  0  0  0  0  0  0  0  0  0  0  0
   45.1980   34.5050   44.8270 C   0  0  0  0  0  0  0  0  0  0  0  0
   44.5440   35.7150   44.8160 N   0  0  0  0  0  0  0  0  0  0  0  0
   45.8780   32.5320   46.0540 C   0  0  0  0  0  0  0  0  0  0  0  0
   46.8970   32.3490   45.3250 O   0  0  0  0  0  0  0  0  0  0  0  0
   44.9440   33.5950   45.8940 N   0  0  0  0  0  0  0  0  0  0  0  0
   44.3210   37.5250   43.7240 H   0  0  0  0  0  0  0  0  0  0  0  0
   45.9060   36.9140   41.9430 H   0  0  0  0  0  0  0  0  0  0  0  0
   47.0340   34.6640   42.0890 H   0  0  0  0  0  0  0  0  0  0  0  0
   44.1120   33.7390   46.4950 H   0  0  0  0  0  0  0  0  0  0  0  0
   45.1130   28.0060   47.7550 C   0  0  0  0  0  0  0  0  0  0  0  0
   44.4820   27.2540   48.6310 C   0  0  0  0  0  0  0  0  0  0  0  0
   44.2460   25.7950   48.5980 C   0  0  0  0  0  0  0  0  0  0  0  0
   45.0150   25.2290   49.1650 H   0  0  0  0  0  0  0  0  0  0  0  0
   43.2750   25.5760   49.0910 H   0  0  0  0  0  0  0  0  0  0  0  0
   41.5960   25.7640   47.0570 Cl  0  0  0  0  0  0  0  0  0  0  0  0
   43.1230   25.2190   46.4050 C   0  0  0  0  0  0  0  0  0  0  0  0
   44.2330   25.2930   47.2210 C   0  0  0  0  0  0  0  0  0  0  0  0
   45.4270   24.8450   46.6510 C   0  0  0  0  0  0  0  0  0  0  0  0
   46.3290   24.8920   47.2760 H   0  0  0  0  0  0  0  0  0  0  0  0
   45.5440   24.3520   45.3670 C   0  0  0  0  0  0  0  0  0  0  0  0
   44.4110   24.2920   44.5820 C   0  0  0  0  0  0  0  0  0  0  0  0
   44.5670   23.6660   42.9530 Cl  0  0  0  0  0  0  0  0  0  0  0  0
   43.1890   24.7300   45.1070 C   0  0  0  0  0  0  0  0  0  0  0  0
   42.3280   24.6670   44.4600 H   0  0  0  0  0  0  0  0  0  0  0  0
  1  2  1  0  0  0  0
  2  7  1  0  0  0  0
  2  3  2  0  0  0  0
  3  8  1  0  0  0  0
  4  3  1  0  0  0  0
  4  9  1  0  0  0  0
  5  4  2  0  0  0  0
  6  1  2  0  0  0  0
  6  5  1  0  0  0  0
 10 15  1  0  0  0  0
 11 12  1  0  0  0  0
 11 10  2  0  0  0  0
 12 13  2  0  0  0  0
 13 14  1  0  0  0  0
 14 18  1  0  0  0  0
 15 14  2  0  0  0  0
 16  1  1  0  0  0  0
 17 16  2  0  0  0  0
 18 16  1  0  0  0  0
 18 22  1  0  0  0  0
 19 10  1  0  0  0  0
 20 11  1  0  0  0  0
 21 12  1  0  0  0  0
 23  5  1  0  0  0  0
 23 24  2  0  0  0  0
 25 24  1  0  0  0  0
 25 27  1  0  0  0  0
 25 26  1  0  0  0  0
 29 28  1  0  0  0  0
 29 30  1  0  0  0  0
 30 25  1  0  0  0  0
 31 30  2  0  0  0  0
 31 32  1  0  0  0  0
 33 31  1  0  0  0  0
 34 36  1  0  0  0  0
 34 33  2  0  0  0  0
 35 34  1  0  0  0  0
 36 29  2  0  0  0  0
 37 36  1  0  0  0  0
M  END
>  <minimizedAffinity>
-5.64753199

>  <minimizedRMSD>
2.46633172

$$$$
