
 OpenBabel03252506493D

 30 32  0  0  0  0  0  0  0  0999 V2000
   38.7100   31.5730   40.7930 C   0  0  0  0  0  0  0  0  0  0  0  0
   38.5670   32.9600   40.7340 C   0  0  0  0  0  0  0  0  0  0  0  0
   37.7690   33.5030   39.7240 C   0  0  0  0  0  0  0  0  0  0  0  0
   37.1750   32.6680   38.8540 N   0  0  0  0  0  0  0  0  0  0  0  0
   37.3240   31.3210   38.9220 C   0  0  0  0  0  0  0  0  0  0  0  0
   38.0950   30.7600   39.8960 N   0  0  0  0  0  0  0  0  0  0  0  0
   39.0560   33.6200   41.4480 H   0  0  0  0  0  0  0  0  0  0  0  0
   37.6090   34.5620   39.6120 H   0  0  0  0  0  0  0  0  0  0  0  0
   35.1710   29.6300   40.1320 Cl  0  0  0  0  0  0  0  0  0  0  0  0
   35.6540   29.5980   38.4450 C   0  0  0  0  0  0  0  0  0  0  0  0
   36.6670   30.4190   37.9600 C   0  0  0  0  0  0  0  0  0  0  0  0
   37.0580   30.4000   36.6210 C   0  0  0  0  0  0  0  0  0  0  0  0
   37.8610   31.0810   36.3440 H   0  0  0  0  0  0  0  0  0  0  0  0
   36.4130   29.5370   35.7520 C   0  0  0  0  0  3  0  0  0  0  0  0
   35.4270   28.7530   36.2770 C   0  0  0  0  0  0  0  0  0  0  0  0
   34.6170   27.6610   35.1630 Cl  0  0  0  0  0  0  0  0  0  0  0  0
   35.0000   28.7240   37.5710 C   0  0  0  0  0  0  0  0  0  0  0  0
   34.1990   28.0600   37.9000 H   0  0  0  0  0  0  0  0  0  0  0  0
   39.7460   30.9530   42.1130 S   0  0  0  0  0  0  0  0  0  0  0  0
   41.7340   28.4950   42.6040 Cl  0  0  0  0  0  0  0  0  0  0  0  0
   40.0240   28.2820   42.9450 C   0  0  0  0  0  0  0  0  0  0  0  0
   39.2480   29.3700   42.7100 C   0  0  0  0  0  0  0  0  0  0  0  0
   37.8790   29.2670   42.9610 C   0  0  0  0  0  0  0  0  0  0  0  0
   37.3700   28.0500   43.4410 C   0  0  0  0  0  0  0  0  0  0  0  0
   38.1530   26.9450   43.6790 C   0  0  0  0  0  0  0  0  0  0  0  0
   39.5130   27.0890   43.4160 C   0  0  0  0  0  0  0  0  0  0  0  0
   40.6260   25.7510   43.6790 Cl  0  0  0  0  0  0  0  0  0  0  0  0
   37.1730   30.0430   42.8190 H   0  0  0  0  0  0  0  0  0  0  0  0
   36.2980   27.9610   43.6400 H   0  0  0  0  0  0  0  0  0  0  0  0
   37.7570   26.0240   44.0440 H   0  0  0  0  0  0  0  0  0  0  0  0
  1 19  1  0  0  0  0
  2  1  1  0  0  0  0
  2  7  1  0  0  0  0
  3  2  2  0  0  0  0
  4  5  2  0  0  0  0
  4  3  1  0  0  0  0
  5  6  1  0  0  0  0
  6  1  2  0  0  0  0
  8  3  1  0  0  0  0
 10  9  1  0  0  0  0
 11 10  1  0  0  0  0
 11  5  1  0  0  0  0
 12 11  2  0  0  0  0
 13 12  1  0  0  0  0
 14 15  2  0  0  0  0
 14 12  1  0  0  0  0
 15 17  1  0  0  0  0
 16 15  1  0  0  0  0
 17 18  1  0  0  0  0
 17 10  2  0  0  0  0
 19 22  1  0  0  0  0
 20 21  1  0  0  0  0
 21 26  1  0  0  0  0
 22 21  2  0  0  0  0
 22 23  1  0  0  0  0
 23 24  2  0  0  0  0
 24 29  1  0  0  0  0
 24 25  1  0  0  0  0
 25 30  1  0  0  0  0
 26 25  2  0  0  0  0
 26 27  1  0  0  0  0
 28 23  1  0  0  0  0
M  END
>  <minimizedAffinity>
-6.0258646

$$$$

 OpenBabel03252506493D

 30 32  0  0  0  0  0  0  0  0999 V2000
   38.2570   31.4720   39.5370 C   0  0  0  0  0  0  0  0  0  0  0  0
   37.3880   32.4730   39.9700 C   0  0  0  0  0  0  0  0  0  0  0  0
   37.8860   33.7720   40.1080 C   0  0  0  0  0  0  0  0  0  0  0  0
   39.1790   33.9980   39.8190 N   0  0  0  0  0  0  0  0  0  0  0  0
   40.0140   33.0150   39.3990 C   0  0  0  0  0  0  0  0  0  0  0  0
   39.5590   31.7390   39.2540 N   0  0  0  0  0  0  0  0  0  0  0  0
   36.3440   32.2700   40.1990 H   0  0  0  0  0  0  0  0  0  0  0  0
   37.2790   34.5980   40.4370 H   0  0  0  0  0  0  0  0  0  0  0  0
   41.8890   32.3390   41.6320 Cl  0  0  0  0  0  0  0  0  0  0  0  0
   42.3650   32.9920   40.0740 C   0  0  0  0  0  0  0  0  0  0  0  0
   41.4290   33.2790   39.0870 C   0  0  0  0  0  0  0  0  0  0  0  0
   41.7980   33.7990   37.8460 C   0  0  0  0  0  0  0  0  0  0  0  0
   40.9890   33.9890   37.1430 H   0  0  0  0  0  0  0  0  0  0  0  0
   43.1400   34.0310   37.5940 C   0  0  0  0  0  3  0  0  0  0  0  0
   44.0170   33.7330   38.5950 C   0  0  0  0  0  0  0  0  0  0  0  0
   45.7170   34.0330   38.2630 Cl  0  0  0  0  0  0  0  0  0  0  0  0
   43.7220   33.2250   39.8250 C   0  0  0  0  0  0  0  0  0  0  0  0
   44.4960   33.0170   40.5650 H   0  0  0  0  0  0  0  0  0  0  0  0
   37.5470   29.8370   39.3840 S   0  0  0  0  0  0  0  0  0  0  0  0
   36.7050   26.7610   39.6350 Cl  0  0  0  0  0  0  0  0  0  0  0  0
   37.2630   27.6060   41.0710 C   0  0  0  0  0  0  0  0  0  0  0  0
   37.6010   28.9060   40.8820 C   0  0  0  0  0  0  0  0  0  0  0  0
   38.0520   29.6350   41.9820 C   0  0  0  0  0  0  0  0  0  0  0  0
   38.1370   28.9940   43.2280 C   0  0  0  0  0  0  0  0  0  0  0  0
   37.7950   27.6760   43.4250 C   0  0  0  0  0  0  0  0  0  0  0  0
   37.3490   26.9840   42.3010 C   0  0  0  0  0  0  0  0  0  0  0  0
   36.8810   25.2910   42.4150 Cl  0  0  0  0  0  0  0  0  0  0  0  0
   38.3450   30.6520   41.9620 H   0  0  0  0  0  0  0  0  0  0  0  0
   38.4900   29.5580   44.0960 H   0  0  0  0  0  0  0  0  0  0  0  0
   37.8630   27.1970   44.3760 H   0  0  0  0  0  0  0  0  0  0  0  0
  1  2  1  0  0  0  0
  2  3  2  0  0  0  0
  2  7  1  0  0  0  0
  3  8  1  0  0  0  0
  4  3  1  0  0  0  0
  5  4  2  0  0  0  0
  6  5  1  0  0  0  0
  6  1  2  0  0  0  0
 10  9  1  0  0  0  0
 11  5  1  0  0  0  0
 11 10  2  0  0  0  0
 12 11  1  0  0  0  0
 13 12  1  0  0  0  0
 14 12  2  0  0  0  0
 14 15  1  0  0  0  0
 15 17  2  0  0  0  0
 16 15  1  0  0  0  0
 17 10  1  0  0  0  0
 17 18  1  0  0  0  0
 19  1  1  0  0  0  0
 19 22  1  0  0  0  0
 20 21  1  0  0  0  0
 21 26  1  0  0  0  0
 22 21  2  0  0  0  0
 22 23  1  0  0  0  0
 23 24  2  0  0  0  0
 24 25  1  0  0  0  0
 24 29  1  0  0  0  0
 25 30  1  0  0  0  0
 26 27  1  0  0  0  0
 26 25  2  0  0  0  0
 28 23  1  0  0  0  0
M  END
>  <minimizedAffinity>
-5.75993729

$$$$

 OpenBabel03252506493D

 30 32  0  0  0  0  0  0  0  0999 V2000
   37.7850   29.8340   41.7560 C   0  0  0  0  0  0  0  0  0  0  0  0
   36.4750   29.8230   41.2750 C   0  0  0  0  0  0  0  0  0  0  0  0
   36.1930   30.5220   40.0980 C   0  0  0  0  0  0  0  0  0  0  0  0
   37.1950   31.1720   39.4810 N   0  0  0  0  0  0  0  0  0  0  0  0
   38.4650   31.1750   39.9600 C   0  0  0  0  0  0  0  0  0  0  0  0
   38.7720   30.5030   41.1050 N   0  0  0  0  0  0  0  0  0  0  0  0
   35.6770   29.2900   41.7890 H   0  0  0  0  0  0  0  0  0  0  0  0
   35.2090   30.5620   39.6630 H   0  0  0  0  0  0  0  0  0  0  0  0
   38.8750   33.9700   40.9470 Cl  0  0  0  0  0  0  0  0  0  0  0  0
   39.8050   33.2000   39.6740 C   0  0  0  0  0  0  0  0  0  0  0  0
   39.5510   31.8940   39.2720 C   0  0  0  0  0  0  0  0  0  0  0  0
   40.2860   31.2740   38.2610 C   0  0  0  0  0  0  0  0  0  0  0  0
   40.0060   30.2480   38.0220 H   0  0  0  0  0  0  0  0  0  0  0  0
   41.2990   31.9860   37.6420 C   0  0  0  0  0  3  0  0  0  0  0  0
   41.5080   33.2640   38.0720 C   0  0  0  0  0  0  0  0  0  0  0  0
   42.7960   34.1570   37.2780 Cl  0  0  0  0  0  0  0  0  0  0  0  0
   40.8280   33.9250   39.0510 C   0  0  0  0  0  0  0  0  0  0  0  0
   41.0680   34.9520   39.3290 H   0  0  0  0  0  0  0  0  0  0  0  0
   38.0670   28.9170   43.2660 S   0  0  0  0  0  0  0  0  0  0  0  0
   36.9010   26.2930   41.8570 Cl  0  0  0  0  0  0  0  0  0  0  0  0
   38.5590   26.2770   42.4370 C   0  0  0  0  0  0  0  0  0  0  0  0
   38.9780   27.4270   43.0220 C   0  0  0  0  0  0  0  0  0  0  0  0
   40.2860   27.4800   43.5050 C   0  0  0  0  0  0  0  0  0  0  0  0
   41.1050   26.3490   43.3650 C   0  0  0  0  0  0  0  0  0  0  0  0
   40.6840   25.1810   42.7720 C   0  0  0  0  0  0  0  0  0  0  0  0
   39.3720   25.1680   42.3040 C   0  0  0  0  0  0  0  0  0  0  0  0
   38.7090   23.7360   41.5250 Cl  0  0  0  0  0  0  0  0  0  0  0  0
   40.7280   28.3170   43.9790 H   0  0  0  0  0  0  0  0  0  0  0  0
   42.1310   26.3820   43.7400 H   0  0  0  0  0  0  0  0  0  0  0  0
   41.3130   24.3260   42.6690 H   0  0  0  0  0  0  0  0  0  0  0  0
  1 19  1  0  0  0  0
  2  1  1  0  0  0  0
  2  7  1  0  0  0  0
  3  2  2  0  0  0  0
  4  5  2  0  0  0  0
  4  3  1  0  0  0  0
  5  6  1  0  0  0  0
  6  1  2  0  0  0  0
  8  3  1  0  0  0  0
 10  9  1  0  0  0  0
 11 10  1  0  0  0  0
 11  5  1  0  0  0  0
 12 11  2  0  0  0  0
 13 12  1  0  0  0  0
 14 15  2  0  0  0  0
 14 12  1  0  0  0  0
 15 17  1  0  0  0  0
 16 15  1  0  0  0  0
 17 18  1  0  0  0  0
 17 10  2  0  0  0  0
 20 21  1  0  0  0  0
 21 22  1  0  0  0  0
 22 19  1  0  0  0  0
 22 23  2  0  0  0  0
 23 28  1  0  0  0  0
 24 23  1  0  0  0  0
 24 29  1  0  0  0  0
 25 24  2  0  0  0  0
 26 21  2  0  0  0  0
 26 25  1  0  0  0  0
 27 26  1  0  0  0  0
 30 25  1  0  0  0  0
M  END
>  <minimizedAffinity>
-5.68493938

$$$$

 OpenBabel03252506493D

 30 32  0  0  0  0  0  0  0  0999 V2000
   34.2820   29.0000   36.1640 C   0  0  0  0  0  0  0  0  0  0  0  0
   35.2350   29.2620   35.1800 C   0  0  0  0  0  0  0  0  0  0  0  0
   36.5620   29.4570   35.5750 C   0  0  0  0  0  0  0  0  0  0  0  0
   36.8600   29.3820   36.8840 N   0  0  0  0  0  0  0  0  0  0  0  0
   35.9230   29.1280   37.8300 C   0  0  0  0  0  0  0  0  0  0  0  0
   34.6210   28.9330   37.4770 N   0  0  0  0  0  0  0  0  0  0  0  0
   34.9750   29.3180   34.1240 H   0  0  0  0  0  0  0  0  0  0  0  0
   37.3550   29.6630   34.8760 H   0  0  0  0  0  0  0  0  0  0  0  0
   36.4590   26.3460   38.7940 Cl  0  0  0  0  0  0  0  0  0  0  0  0
   36.5290   27.7900   39.7860 C   0  0  0  0  0  0  0  0  0  0  0  0
   36.2660   29.0510   39.2610 C   0  0  0  0  0  0  0  0  0  0  0  0
   36.3190   30.2050   40.0430 C   0  0  0  0  0  0  0  0  0  0  0  0
   36.0950   31.1420   39.5350 H   0  0  0  0  0  0  0  0  0  0  0  0
   36.6460   30.0860   41.3830 C   0  0  0  0  0  3  0  0  0  0  0  0
   36.8950   28.8280   41.8490 C   0  0  0  0  0  0  0  0  0  0  0  0
   37.3090   28.6920   43.5520 Cl  0  0  0  0  0  0  0  0  0  0  0  0
   36.8600   27.6650   41.1400 C   0  0  0  0  0  0  0  0  0  0  0  0
   37.0760   26.7000   41.6010 H   0  0  0  0  0  0  0  0  0  0  0  0
   32.6070   28.7630   35.5810 S   0  0  0  0  0  0  0  0  0  0  0  0
   31.1430   29.6900   38.2700 Cl  0  0  0  0  0  0  0  0  0  0  0  0
   30.9530   30.6670   36.8220 C   0  0  0  0  0  0  0  0  0  0  0  0
   31.6030   30.2070   35.7250 C   0  0  0  0  0  0  0  0  0  0  0  0
   31.4930   30.9360   34.5410 C   0  0  0  0  0  0  0  0  0  0  0  0
   30.7170   32.1070   34.5380 C   0  0  0  0  0  0  0  0  0  0  0  0
   30.0550   32.5760   35.6490 C   0  0  0  0  0  0  0  0  0  0  0  0
   30.1910   31.8190   36.8100 C   0  0  0  0  0  0  0  0  0  0  0  0
   29.3960   32.3100   38.3020 Cl  0  0  0  0  0  0  0  0  0  0  0  0
   31.9520   30.6820   33.6220 H   0  0  0  0  0  0  0  0  0  0  0  0
   30.6250   32.6850   33.6150 H   0  0  0  0  0  0  0  0  0  0  0  0
   29.4690   33.4670   35.6380 H   0  0  0  0  0  0  0  0  0  0  0  0
  1  6  1  0  0  0  0
  2  3  1  0  0  0  0
  2  1  2  0  0  0  0
  3  4  2  0  0  0  0
  4  5  1  0  0  0  0
  5 11  1  0  0  0  0
  6  5  2  0  0  0  0
  7  2  1  0  0  0  0
  8  3  1  0  0  0  0
  9 10  1  0  0  0  0
 10 17  1  0  0  0  0
 11 10  2  0  0  0  0
 11 12  1  0  0  0  0
 12 14  2  0  0  0  0
 13 12  1  0  0  0  0
 14 15  1  0  0  0  0
 15 16  1  0  0  0  0
 17 18  1  0  0  0  0
 17 15  2  0  0  0  0
 19 22  1  0  0  0  0
 19  1  1  0  0  0  0
 21 20  1  0  0  0  0
 22 21  2  0  0  0  0
 23 22  1  0  0  0  0
 24 23  2  0  0  0  0
 24 25  1  0  0  0  0
 25 26  2  0  0  0  0
 26 21  1  0  0  0  0
 26 27  1  0  0  0  0
 28 23  1  0  0  0  0
 29 24  1  0  0  0  0
 30 25  1  0  0  0  0
M  END
>  <minimizedAffinity>
-5.67456245

$$$$

 OpenBabel03252506493D

 30 32  0  0  0  0  0  0  0  0999 V2000
   33.8260   27.9130   36.6020 C   0  0  0  0  0  0  0  0  0  0  0  0
   34.4240   26.6520   36.5970 C   0  0  0  0  0  0  0  0  0  0  0  0
   35.6810   26.5100   37.1930 C   0  0  0  0  0  0  0  0  0  0  0  0
   36.2560   27.5930   37.7440 N   0  0  0  0  0  0  0  0  0  0  0  0
   35.6640   28.8130   37.7410 C   0  0  0  0  0  0  0  0  0  0  0  0
   34.4390   28.9850   37.1690 N   0  0  0  0  0  0  0  0  0  0  0  0
   33.9420   25.7870   36.1450 H   0  0  0  0  0  0  0  0  0  0  0  0
   36.2060   25.5710   37.2300 H   0  0  0  0  0  0  0  0  0  0  0  0
   35.1420   29.0940   40.6750 Cl  0  0  0  0  0  0  0  0  0  0  0  0
   36.1140   30.1910   39.7110 C   0  0  0  0  0  0  0  0  0  0  0  0
   36.3090   29.9900   38.3490 C   0  0  0  0  0  0  0  0  0  0  0  0
   37.0800   30.8570   37.5750 C   0  0  0  0  0  0  0  0  0  0  0  0
   37.1700   30.6100   36.5180 H   0  0  0  0  0  0  0  0  0  0  0  0
   37.6690   31.9510   38.1870 C   0  0  0  0  0  3  0  0  0  0  0  0
   37.4470   32.1040   39.5250 C   0  0  0  0  0  0  0  0  0  0  0  0
   38.1990   33.4960   40.2890 Cl  0  0  0  0  0  0  0  0  0  0  0  0
   36.7060   31.2950   40.3340 C   0  0  0  0  0  0  0  0  0  0  0  0
   36.5860   31.4990   41.4000 H   0  0  0  0  0  0  0  0  0  0  0  0
   32.2200   28.0160   35.8200 S   0  0  0  0  0  0  0  0  0  0  0  0
   31.0070   29.6630   38.2790 Cl  0  0  0  0  0  0  0  0  0  0  0  0
   31.0720   30.4260   36.6980 C   0  0  0  0  0  0  0  0  0  0  0  0
   31.5990   29.6630   35.7090 C   0  0  0  0  0  0  0  0  0  0  0  0
   31.6790   30.2100   34.4280 C   0  0  0  0  0  0  0  0  0  0  0  0
   31.2120   31.5180   34.2220 C   0  0  0  0  0  0  0  0  0  0  0  0
   30.6770   32.2950   35.2220 C   0  0  0  0  0  0  0  0  0  0  0  0
   30.6150   31.7130   36.4860 C   0  0  0  0  0  0  0  0  0  0  0  0
   29.9530   32.5990   37.8540 Cl  0  0  0  0  0  0  0  0  0  0  0  0
   32.0690   29.7160   33.5770 H   0  0  0  0  0  0  0  0  0  0  0  0
   31.2710   31.9550   33.2210 H   0  0  0  0  0  0  0  0  0  0  0  0
   30.3260   33.2890   35.0570 H   0  0  0  0  0  0  0  0  0  0  0  0
  1  6  1  0  0  0  0
  2  1  2  0  0  0  0
  2  3  1  0  0  0  0
  3  8  1  0  0  0  0
  3  4  2  0  0  0  0
  5  4  1  0  0  0  0
  5 11  1  0  0  0  0
  6  5  2  0  0  0  0
  7  2  1  0  0  0  0
 10 17  1  0  0  0  0
 10  9  1  0  0  0  0
 11 10  2  0  0  0  0
 12 14  2  0  0  0  0
 12 11  1  0  0  0  0
 13 12  1  0  0  0  0
 14 15  1  0  0  0  0
 15 16  1  0  0  0  0
 15 17  2  0  0  0  0
 17 18  1  0  0  0  0
 19  1  1  0  0  0  0
 21 20  1  0  0  0  0
 22 19  1  0  0  0  0
 22 21  2  0  0  0  0
 23 22  1  0  0  0  0
 24 23  2  0  0  0  0
 24 25  1  0  0  0  0
 25 26  2  0  0  0  0
 26 21  1  0  0  0  0
 26 27  1  0  0  0  0
 28 23  1  0  0  0  0
 29 24  1  0  0  0  0
 30 25  1  0  0  0  0
M  END
>  <minimizedAffinity>
-5.62797594

$$$$

 OpenBabel03252506493D

 30 32  0  0  0  0  0  0  0  0999 V2000
   33.6480   28.9080   36.3490 C   0  0  0  0  0  0  0  0  0  0  0  0
   34.5080   29.1740   35.2830 C   0  0  0  0  0  0  0  0  0  0  0  0
   35.8640   29.3780   35.5580 C   0  0  0  0  0  0  0  0  0  0  0  0
   36.2780   29.3090   36.8350 N   0  0  0  0  0  0  0  0  0  0  0  0
   35.4310   29.0510   37.8620 C   0  0  0  0  0  0  0  0  0  0  0  0
   34.1040   28.8460   37.6280 N   0  0  0  0  0  0  0  0  0  0  0  0
   34.1540   29.2250   34.2560 H   0  0  0  0  0  0  0  0  0  0  0  0
   36.5900   29.5880   34.7910 H   0  0  0  0  0  0  0  0  0  0  0  0
   36.2180   26.2970   38.7310 Cl  0  0  0  0  0  0  0  0  0  0  0  0
   36.2850   27.7330   39.7370 C   0  0  0  0  0  0  0  0  0  0  0  0
   35.9010   28.9800   39.2570 C   0  0  0  0  0  0  0  0  0  0  0  0
   35.9510   30.1270   40.0490 C   0  0  0  0  0  0  0  0  0  0  0  0
   35.6270   31.0530   39.5780 H   0  0  0  0  0  0  0  0  0  0  0  0
   36.4000   30.0140   41.3540 C   0  0  0  0  0  3  0  0  0  0  0  0
   36.7650   28.7700   41.7770 C   0  0  0  0  0  0  0  0  0  0  0  0
   37.3320   28.6410   43.4360 Cl  0  0  0  0  0  0  0  0  0  0  0  0
   36.7390   27.6140   41.0550 C   0  0  0  0  0  0  0  0  0  0  0  0
   37.0540   26.6600   41.4810 H   0  0  0  0  0  0  0  0  0  0  0  0
   31.9300   28.6570   35.9190 S   0  0  0  0  0  0  0  0  0  0  0  0
   30.7180   29.7680   33.1750 Cl  0  0  0  0  0  0  0  0  0  0  0  0
   30.4750   30.6970   34.6460 C   0  0  0  0  0  0  0  0  0  0  0  0
   31.0190   30.1600   35.7660 C   0  0  0  0  0  0  0  0  0  0  0  0
   30.8630   30.8500   36.9690 C   0  0  0  0  0  0  0  0  0  0  0  0
   30.1530   32.0610   36.9650 C   0  0  0  0  0  0  0  0  0  0  0  0
   29.6000   32.6100   35.8320 C   0  0  0  0  0  0  0  0  0  0  0  0
   29.7790   31.8910   34.6520 C   0  0  0  0  0  0  0  0  0  0  0  0
   29.1200   32.4810   33.1310 Cl  0  0  0  0  0  0  0  0  0  0  0  0
   31.2390   30.5340   37.9060 H   0  0  0  0  0  0  0  0  0  0  0  0
   30.0250   32.6080   37.9040 H   0  0  0  0  0  0  0  0  0  0  0  0
   29.0620   33.5300   35.8390 H   0  0  0  0  0  0  0  0  0  0  0  0
  1  6  1  0  0  0  0
  2  3  1  0  0  0  0
  2  1  2  0  0  0  0
  3  4  2  0  0  0  0
  4  5  1  0  0  0  0
  5 11  1  0  0  0  0
  6  5  2  0  0  0  0
  7  2  1  0  0  0  0
  8  3  1  0  0  0  0
  9 10  1  0  0  0  0
 10 17  1  0  0  0  0
 11 10  2  0  0  0  0
 11 12  1  0  0  0  0
 12 14  2  0  0  0  0
 13 12  1  0  0  0  0
 14 15  1  0  0  0  0
 15 16  1  0  0  0  0
 17 18  1  0  0  0  0
 17 15  2  0  0  0  0
 19  1  1  0  0  0  0
 20 21  1  0  0  0  0
 21 26  2  0  0  0  0
 21 22  1  0  0  0  0
 22 19  1  0  0  0  0
 22 23  2  0  0  0  0
 23 28  1  0  0  0  0
 24 23  1  0  0  0  0
 24 29  1  0  0  0  0
 25 30  1  0  0  0  0
 25 24  2  0  0  0  0
 26 25  1  0  0  0  0
 27 26  1  0  0  0  0
M  END
>  <minimizedAffinity>
-5.56366682

$$$$

 OpenBabel03252506493D

 30 32  0  0  0  0  0  0  0  0999 V2000
   38.3610   30.4330   40.9950 C   0  0  0  0  0  0  0  0  0  0  0  0
   38.3670   31.8200   41.1470 C   0  0  0  0  0  0  0  0  0  0  0  0
   37.6800   32.5950   40.2090 C   0  0  0  0  0  0  0  0  0  0  0  0
   37.0430   31.9710   39.2030 N   0  0  0  0  0  0  0  0  0  0  0  0
   37.0450   30.6210   39.0660 C   0  0  0  0  0  0  0  0  0  0  0  0
   37.7060   29.8380   39.9650 N   0  0  0  0  0  0  0  0  0  0  0  0
   38.8890   32.3070   41.9690 H   0  0  0  0  0  0  0  0  0  0  0  0
   37.6380   33.6700   40.2570 H   0  0  0  0  0  0  0  0  0  0  0  0
   34.5390   29.2140   39.9000 Cl  0  0  0  0  0  0  0  0  0  0  0  0
   35.1680   29.2750   38.2630 C   0  0  0  0  0  0  0  0  0  0  0  0
   36.3430   29.9520   37.9570 C   0  0  0  0  0  0  0  0  0  0  0  0
   36.8510   30.0050   36.6590 C   0  0  0  0  0  0  0  0  0  0  0  0
   37.7770   30.5610   36.5270 H   0  0  0  0  0  0  0  0  0  0  0  0
   36.1580   29.3630   35.6470 C   0  0  0  0  0  3  0  0  0  0  0  0
   35.0110   28.7130   35.9990 C   0  0  0  0  0  0  0  0  0  0  0  0
   34.1420   27.9010   34.7050 Cl  0  0  0  0  0  0  0  0  0  0  0  0
   34.4640   28.6240   37.2440 C   0  0  0  0  0  0  0  0  0  0  0  0
   33.5370   28.0790   37.4300 H   0  0  0  0  0  0  0  0  0  0  0  0
   39.2620   29.5100   42.2350 S   0  0  0  0  0  0  0  0  0  0  0  0
   36.6610   27.7080   42.7030 Cl  0  0  0  0  0  0  0  0  0  0  0  0
   38.1430   26.9320   42.1660 C   0  0  0  0  0  0  0  0  0  0  0  0
   39.2000   27.7640   41.9910 C   0  0  0  0  0  0  0  0  0  0  0  0
   40.4080   27.2110   41.5660 C   0  0  0  0  0  0  0  0  0  0  0  0
   40.4750   25.8270   41.3400 C   0  0  0  0  0  0  0  0  0  0  0  0
   39.4060   24.9800   41.5170 C   0  0  0  0  0  0  0  0  0  0  0  0
   38.2190   25.5710   41.9420 C   0  0  0  0  0  0  0  0  0  0  0  0
   36.7740   24.6010   42.2050 Cl  0  0  0  0  0  0  0  0  0  0  0  0
   41.3000   27.7540   41.3940 H   0  0  0  0  0  0  0  0  0  0  0  0
   41.4180   25.3850   41.0060 H   0  0  0  0  0  0  0  0  0  0  0  0
   39.4660   23.9300   41.3420 H   0  0  0  0  0  0  0  0  0  0  0  0
  1  2  1  0  0  0  0
  1 19  1  0  0  0  0
  2  7  1  0  0  0  0
  3  8  1  0  0  0  0
  3  2  2  0  0  0  0
  4  3  1  0  0  0  0
  5  4  2  0  0  0  0
  5  6  1  0  0  0  0
  6  1  2  0  0  0  0
 10  9  1  0  0  0  0
 11 10  1  0  0  0  0
 11  5  1  0  0  0  0
 12 11  2  0  0  0  0
 13 12  1  0  0  0  0
 14 15  2  0  0  0  0
 14 12  1  0  0  0  0
 15 17  1  0  0  0  0
 16 15  1  0  0  0  0
 17 18  1  0  0  0  0
 17 10  2  0  0  0  0
 21 20  1  0  0  0  0
 22 21  1  0  0  0  0
 22 19  1  0  0  0  0
 23 22  2  0  0  0  0
 24 25  2  0  0  0  0
 24 23  1  0  0  0  0
 25 26  1  0  0  0  0
 26 21  2  0  0  0  0
 26 27  1  0  0  0  0
 28 23  1  0  0  0  0
 29 24  1  0  0  0  0
 30 25  1  0  0  0  0
M  END
>  <minimizedAffinity>
-5.50932693

$$$$

 OpenBabel03252506493D

 30 32  0  0  0  0  0  0  0  0999 V2000
   38.1430   30.0340   40.4020 C   0  0  0  0  0  0  0  0  0  0  0  0
   36.9420   30.4100   39.8020 C   0  0  0  0  0  0  0  0  0  0  0  0
   36.9520   30.7410   38.4440 C   0  0  0  0  0  0  0  0  0  0  0  0
   38.1180   30.6830   37.7770 N   0  0  0  0  0  0  0  0  0  0  0  0
   39.2800   30.3170   38.3730 C   0  0  0  0  0  0  0  0  0  0  0  0
   39.3030   29.9880   39.6960 N   0  0  0  0  0  0  0  0  0  0  0  0
   36.0070   30.4510   40.3580 H   0  0  0  0  0  0  0  0  0  0  0  0
   36.0670   31.0410   37.9090 H   0  0  0  0  0  0  0  0  0  0  0  0
   40.7250   32.9350   38.2490 Cl  0  0  0  0  0  0  0  0  0  0  0  0
   41.2820   31.4370   37.5250 C   0  0  0  0  0  0  0  0  0  0  0  0
   40.5500   30.2600   37.6290 C   0  0  0  0  0  0  0  0  0  0  0  0
   40.9850   29.0640   37.0560 C   0  0  0  0  0  0  0  0  0  0  0  0
   40.3370   28.2000   37.1950 H   0  0  0  0  0  0  0  0  0  0  0  0
   42.1850   29.0560   36.3660 C   0  0  0  0  0  3  0  0  0  0  0  0
   42.8650   30.2360   36.2920 C   0  0  0  0  0  0  0  0  0  0  0  0
   44.3860   30.2110   35.4130 Cl  0  0  0  0  0  0  0  0  0  0  0  0
   42.4950   31.4340   36.8280 C   0  0  0  0  0  0  0  0  0  0  0  0
   43.1080   32.3300   36.7180 H   0  0  0  0  0  0  0  0  0  0  0  0
   38.0500   29.6250   42.1410 S   0  0  0  0  0  0  0  0  0  0  0  0
   36.6430   26.9580   41.0720 Cl  0  0  0  0  0  0  0  0  0  0  0  0
   38.0640   26.8140   42.0950 C   0  0  0  0  0  0  0  0  0  0  0  0
   38.6010   27.9900   42.5070 C   0  0  0  0  0  0  0  0  0  0  0  0
   39.7320   27.9460   43.3240 C   0  0  0  0  0  0  0  0  0  0  0  0
   40.2590   26.6940   43.6800 C   0  0  0  0  0  0  0  0  0  0  0  0
   39.7180   25.5000   43.2640 C   0  0  0  0  0  0  0  0  0  0  0  0
   38.5900   25.5880   42.4510 C   0  0  0  0  0  0  0  0  0  0  0  0
   37.8000   24.1350   41.8500 Cl  0  0  0  0  0  0  0  0  0  0  0  0
   40.2400   28.7910   43.7080 H   0  0  0  0  0  0  0  0  0  0  0  0
   41.1450   26.6500   44.3190 H   0  0  0  0  0  0  0  0  0  0  0  0
   40.1260   24.5540   43.5400 H   0  0  0  0  0  0  0  0  0  0  0  0
  1 19  1  0  0  0  0
  2  7  1  0  0  0  0
  2  1  1  0  0  0  0
  3  2  2  0  0  0  0
  4  5  2  0  0  0  0
  4  3  1  0  0  0  0
  5  6  1  0  0  0  0
  6  1  2  0  0  0  0
  8  3  1  0  0  0  0
 10 11  1  0  0  0  0
 10  9  1  0  0  0  0
 11  5  1  0  0  0  0
 12 13  1  0  0  0  0
 12 11  2  0  0  0  0
 14 12  1  0  0  0  0
 15 14  2  0  0  0  0
 15 17  1  0  0  0  0
 16 15  1  0  0  0  0
 17 10  2  0  0  0  0
 18 17  1  0  0  0  0
 19 22  1  0  0  0  0
 20 21  1  0  0  0  0
 21 26  2  0  0  0  0
 21 22  1  0  0  0  0
 22 23  2  0  0  0  0
 23 24  1  0  0  0  0
 23 28  1  0  0  0  0
 24 29  1  0  0  0  0
 25 30  1  0  0  0  0
 25 24  2  0  0  0  0
 26 25  1  0  0  0  0
 27 26  1  0  0  0  0
M  END
>  <minimizedAffinity>
-5.46984673

$$$$

 OpenBabel03252506493D

 30 32  0  0  0  0  0  0  0  0999 V2000
   37.6630   29.9100   41.8930 C   0  0  0  0  0  0  0  0  0  0  0  0
   36.4670   30.1390   41.2120 C   0  0  0  0  0  0  0  0  0  0  0  0
   36.4800   31.0170   40.1240 C   0  0  0  0  0  0  0  0  0  0  0  0
   37.6420   31.6010   39.7830 N   0  0  0  0  0  0  0  0  0  0  0  0
   38.7980   31.3700   40.4560 C   0  0  0  0  0  0  0  0  0  0  0  0
   38.8180   30.5190   41.5200 N   0  0  0  0  0  0  0  0  0  0  0  0
   35.5360   29.6570   41.5020 H   0  0  0  0  0  0  0  0  0  0  0  0
   35.6000   31.2460   39.5480 H   0  0  0  0  0  0  0  0  0  0  0  0
   40.4300   29.7750   38.5200 Cl  0  0  0  0  0  0  0  0  0  0  0  0
   40.8790   31.3400   39.1730 C   0  0  0  0  0  0  0  0  0  0  0  0
   40.0630   32.0190   40.0700 C   0  0  0  0  0  0  0  0  0  0  0  0
   40.4120   33.2630   40.5950 C   0  0  0  0  0  0  0  0  0  0  0  0
   39.7030   33.7100   41.2900 H   0  0  0  0  0  0  0  0  0  0  0  0
   41.6110   33.8370   40.2050 C   0  0  0  0  0  3  0  0  0  0  0  0
   42.3760   33.1310   39.3230 C   0  0  0  0  0  0  0  0  0  0  0  0
   43.8940   33.8690   38.8360 Cl  0  0  0  0  0  0  0  0  0  0  0  0
   42.0910   31.9150   38.7760 C   0  0  0  0  0  0  0  0  0  0  0  0
   42.7680   31.4250   38.0740 H   0  0  0  0  0  0  0  0  0  0  0  0
   37.5660   28.7740   43.2730 S   0  0  0  0  0  0  0  0  0  0  0  0
   40.6160   27.8180   43.4130 Cl  0  0  0  0  0  0  0  0  0  0  0  0
   39.3880   26.6640   42.9150 C   0  0  0  0  0  0  0  0  0  0  0  0
   38.1210   27.1460   42.8810 C   0  0  0  0  0  0  0  0  0  0  0  0
   37.0980   26.2810   42.4940 C   0  0  0  0  0  0  0  0  0  0  0  0
   37.4240   24.9570   42.1590 C   0  0  0  0  0  0  0  0  0  0  0  0
   38.7070   24.4630   42.1920 C   0  0  0  0  0  0  0  0  0  0  0  0
   39.6990   25.3590   42.5830 C   0  0  0  0  0  0  0  0  0  0  0  0
   41.3830   24.8550   42.6690 Cl  0  0  0  0  0  0  0  0  0  0  0  0
   36.0730   26.5370   42.4280 H   0  0  0  0  0  0  0  0  0  0  0  0
   36.6280   24.2710   41.8540 H   0  0  0  0  0  0  0  0  0  0  0  0
   38.9450   23.4550   41.9360 H   0  0  0  0  0  0  0  0  0  0  0  0
  1 19  1  0  0  0  0
  2  7  1  0  0  0  0
  2  1  2  0  0  0  0
  3  2  1  0  0  0  0
  4  3  2  0  0  0  0
  4  5  1  0  0  0  0
  5  6  2  0  0  0  0
  6  1  1  0  0  0  0
  8  3  1  0  0  0  0
  9 10  1  0  0  0  0
 10 11  1  0  0  0  0
 11  5  1  0  0  0  0
 11 12  2  0  0  0  0
 12 13  1  0  0  0  0
 14 12  1  0  0  0  0
 15 14  2  0  0  0  0
 16 15  1  0  0  0  0
 17 10  2  0  0  0  0
 17 15  1  0  0  0  0
 18 17  1  0  0  0  0
 21 20  1  0  0  0  0
 22 21  1  0  0  0  0
 22 19  1  0  0  0  0
 23 22  2  0  0  0  0
 24 25  2  0  0  0  0
 24 23  1  0  0  0  0
 25 26  1  0  0  0  0
 26 27  1  0  0  0  0
 26 21  2  0  0  0  0
 28 23  1  0  0  0  0
 29 24  1  0  0  0  0
 30 25  1  0  0  0  0
M  END
>  <minimizedAffinity>
-5.42422819

$$$$
