
 OpenBabel03242513353D

 22 23  0  0  0  0  0  0  0  0999 V2000
   39.1800   31.3120   40.4160 C   0  0  0  0  0  0  0  0  0  0  0  0
   38.0500   32.1400   40.3450 C   0  0  0  0  0  0  0  0  0  0  0  0
   36.8010   31.5470   40.4630 C   0  0  0  0  0  0  0  0  0  0  0  0
   36.7180   30.2040   40.6420 N   0  0  0  0  0  0  0  0  0  0  0  0
   37.8300   29.4430   40.7050 C   0  0  0  0  0  0  0  0  0  0  0  0
   39.0500   29.9760   40.5950 N   0  0  0  0  0  0  0  0  0  0  0  0
   40.1650   31.7460   40.3280 H   0  0  0  0  0  0  0  0  0  0  0  0
   35.9650   32.2240   40.4020 H   0  0  0  0  0  0  0  0  0  0  0  0
   37.5890   28.4310   43.5770 Cl  0  0  0  0  0  0  0  0  0  0  0  0
   37.5160   27.4340   42.1480 C   0  0  0  0  0  0  0  0  0  0  0  0
   37.6380   28.0140   40.8980 C   0  0  0  0  0  0  0  0  0  0  0  0
   37.5730   27.1890   39.7860 C   0  0  0  0  0  0  0  0  0  0  0  0
   37.6620   27.5760   38.7670 H   0  0  0  0  0  0  0  0  0  0  0  0
   37.3930   25.8090   39.8600 C   0  0  0  0  0  3  0  0  0  0  0  0
   37.2710   25.2430   41.1290 C   0  0  0  0  0  0  0  0  0  0  0  0
   37.0450   23.5170   41.2100 Cl  0  0  0  0  0  0  0  0  0  0  0  0
   37.3340   26.0600   42.2390 C   0  0  0  0  0  0  0  0  0  0  0  0
   37.2330   25.5630   43.2090 H   0  0  0  0  0  0  0  0  0  0  0  0
   38.3090   33.5970   40.1460 C   0  0  0  0  0  0  0  0  0  0  0  0
   39.3810   33.6940   39.2840 F   0  0  0  0  0  0  0  0  0  0  0  0
   38.5990   34.1550   41.3710 F   0  0  0  0  0  0  0  0  0  0  0  0
   37.1430   34.1610   39.6060 F   0  0  0  0  0  0  0  0  0  0  0  0
  1  6  1  0  0  0  0
  2  1  2  0  0  0  0
  2  3  1  0  0  0  0
  3  4  2  0  0  0  0
  4  5  1  0  0  0  0
  5 11  1  0  0  0  0
  6  5  2  0  0  0  0
  7  1  1  0  0  0  0
  8  3  1  0  0  0  0
 10 17  1  0  0  0  0
 10  9  1  0  0  0  0
 11 10  2  0  0  0  0
 12 14  2  0  0  0  0
 12 11  1  0  0  0  0
 13 12  1  0  0  0  0
 14 15  1  0  0  0  0
 15 16  1  0  0  0  0
 15 17  2  0  0  0  0
 17 18  1  0  0  0  0
 19  2  1  0  0  0  0
 19 21  1  0  0  0  0
 20 19  1  0  0  0  0
 22 19  1  0  0  0  0
M  END
>  <minimizedAffinity>
-4.90651894

$$$$

 OpenBabel03242513353D

 22 23  0  0  0  0  0  0  0  0999 V2000
   38.6030   26.1290   40.7590 C   0  0  0  0  0  0  0  0  0  0  0  0
   38.5900   25.7640   42.1140 C   0  0  0  0  0  0  0  0  0  0  0  0
   38.3890   26.7650   43.0540 C   0  0  0  0  0  0  0  0  0  0  0  0
   38.2150   28.0440   42.6350 N   0  0  0  0  0  0  0  0  0  0  0  0
   38.2340   28.3530   41.3220 C   0  0  0  0  0  0  0  0  0  0  0  0
   38.4240   27.4180   40.3860 N   0  0  0  0  0  0  0  0  0  0  0  0
   38.7570   25.3710   40.0050 H   0  0  0  0  0  0  0  0  0  0  0  0
   38.3880   26.4350   44.0800 H   0  0  0  0  0  0  0  0  0  0  0  0
   35.3880   29.2550   40.6750 Cl  0  0  0  0  0  0  0  0  0  0  0  0
   36.7990   30.2810   40.6590 C   0  0  0  0  0  0  0  0  0  0  0  0
   38.0380   29.7510   40.9720 C   0  0  0  0  0  0  0  0  0  0  0  0
   39.1350   30.5980   40.9500 C   0  0  0  0  0  0  0  0  0  0  0  0
   40.1440   30.2500   41.1850 H   0  0  0  0  0  0  0  0  0  0  0  0
   39.0570   31.9510   40.6280 C   0  0  0  0  0  3  0  0  0  0  0  0
   37.7990   32.4670   40.3160 C   0  0  0  0  0  0  0  0  0  0  0  0
   37.7130   34.1610   39.9160 Cl  0  0  0  0  0  0  0  0  0  0  0  0
   36.7040   31.6280   40.3380 C   0  0  0  0  0  0  0  0  0  0  0  0
   35.7420   32.0860   40.0840 H   0  0  0  0  0  0  0  0  0  0  0  0
   38.7970   24.3160   42.4110 C   0  0  0  0  0  0  0  0  0  0  0  0
   37.5460   23.7710   42.6110 F   0  0  0  0  0  0  0  0  0  0  0  0
   39.5730   24.2150   43.5440 F   0  0  0  0  0  0  0  0  0  0  0  0
   39.4520   23.7500   41.3080 F   0  0  0  0  0  0  0  0  0  0  0  0
  1  2  1  0  0  0  0
  2 19  1  0  0  0  0
  2  3  2  0  0  0  0
  3  8  1  0  0  0  0
  4  3  1  0  0  0  0
  5  4  2  0  0  0  0
  6  1  2  0  0  0  0
  6  5  1  0  0  0  0
  7  1  1  0  0  0  0
 10  9  1  0  0  0  0
 10 11  1  0  0  0  0
 11  5  1  0  0  0  0
 12 11  2  0  0  0  0
 12 13  1  0  0  0  0
 14 12  1  0  0  0  0
 15 17  1  0  0  0  0
 15 14  2  0  0  0  0
 16 15  1  0  0  0  0
 17 10  2  0  0  0  0
 18 17  1  0  0  0  0
 19 20  1  0  0  0  0
 19 21  1  0  0  0  0
 22 19  1  0  0  0  0
M  END
>  <minimizedAffinity>
-4.8412981

$$$$

 OpenBabel03242513353D

 22 23  0  0  0  0  0  0  0  0999 V2000
   37.4210   26.4870   42.2590 C   0  0  0  0  0  0  0  0  0  0  0  0
   38.5790   25.8170   41.8380 C   0  0  0  0  0  0  0  0  0  0  0  0
   39.4880   26.5170   41.0570 C   0  0  0  0  0  0  0  0  0  0  0  0
   39.2270   27.8090   40.7320 N   0  0  0  0  0  0  0  0  0  0  0  0
   38.1000   28.4170   41.1570 C   0  0  0  0  0  0  0  0  0  0  0  0
   37.2010   27.7770   41.9100 N   0  0  0  0  0  0  0  0  0  0  0  0
   36.6960   25.9670   42.8680 H   0  0  0  0  0  0  0  0  0  0  0  0
   40.3600   25.9590   40.7590 H   0  0  0  0  0  0  0  0  0  0  0  0
   39.6380   30.5530   42.7070 Cl  0  0  0  0  0  0  0  0  0  0  0  0
   38.5480   30.8590   41.3790 C   0  0  0  0  0  0  0  0  0  0  0  0
   37.9090   29.8020   40.7570 C   0  0  0  0  0  0  0  0  0  0  0  0
   37.0520   30.0860   39.7050 C   0  0  0  0  0  0  0  0  0  0  0  0
   36.5120   29.3020   39.1670 H   0  0  0  0  0  0  0  0  0  0  0  0
   36.7990   31.3760   39.2440 C   0  0  0  0  0  3  0  0  0  0  0  0
   37.4540   32.4280   39.8840 C   0  0  0  0  0  0  0  0  0  0  0  0
   37.1300   34.0370   39.2980 Cl  0  0  0  0  0  0  0  0  0  0  0  0
   38.3080   32.1510   40.9310 C   0  0  0  0  0  0  0  0  0  0  0  0
   38.7940   33.0140   41.3970 H   0  0  0  0  0  0  0  0  0  0  0  0
   38.7190   24.3970   42.2790 C   0  0  0  0  0  0  0  0  0  0  0  0
   39.5860   24.4000   43.3510 F   0  0  0  0  0  0  0  0  0  0  0  0
   39.2270   23.6670   41.2280 F   0  0  0  0  0  0  0  0  0  0  0  0
   37.4410   23.9390   42.6320 F   0  0  0  0  0  0  0  0  0  0  0  0
  1  7  1  0  0  0  0
  2  1  2  0  0  0  0
  2 19  1  0  0  0  0
  3  2  1  0  0  0  0
  4  3  2  0  0  0  0
  4  5  1  0  0  0  0
  5  6  2  0  0  0  0
  6  1  1  0  0  0  0
  8  3  1  0  0  0  0
 10  9  1  0  0  0  0
 11  5  1  0  0  0  0
 11 10  2  0  0  0  0
 12 11  1  0  0  0  0
 13 12  1  0  0  0  0
 14 12  2  0  0  0  0
 14 15  1  0  0  0  0
 15 17  2  0  0  0  0
 16 15  1  0  0  0  0
 17 10  1  0  0  0  0
 17 18  1  0  0  0  0
 19 22  1  0  0  0  0
 19 20  1  0  0  0  0
 21 19  1  0  0  0  0
M  END
>  <minimizedAffinity>
-4.78544188

$$$$

 OpenBabel03242513353D

 22 23  0  0  0  0  0  0  0  0999 V2000
   38.0300   26.0570   40.1120 C   0  0  0  0  0  0  0  0  0  0  0  0
   37.5840   25.5530   41.3420 C   0  0  0  0  0  0  0  0  0  0  0  0
   37.2570   26.4620   42.3380 C   0  0  0  0  0  0  0  0  0  0  0  0
   37.3800   27.7910   42.0900 N   0  0  0  0  0  0  0  0  0  0  0  0
   37.8140   28.2360   40.8920 C   0  0  0  0  0  0  0  0  0  0  0  0
   38.1370   27.3920   39.9080 N   0  0  0  0  0  0  0  0  0  0  0  0
   38.2900   25.3730   39.3180 H   0  0  0  0  0  0  0  0  0  0  0  0
   36.9200   26.0250   43.2640 H   0  0  0  0  0  0  0  0  0  0  0  0
   35.2740   29.7350   40.0970 Cl  0  0  0  0  0  0  0  0  0  0  0  0
   36.8350   30.4670   40.3640 C   0  0  0  0  0  0  0  0  0  0  0  0
   37.9130   29.6760   40.7230 C   0  0  0  0  0  0  0  0  0  0  0  0
   39.1360   30.2950   40.9270 C   0  0  0  0  0  0  0  0  0  0  0  0
   40.0310   29.7350   41.2110 H   0  0  0  0  0  0  0  0  0  0  0  0
   39.3380   31.6670   40.7910 C   0  0  0  0  0  3  0  0  0  0  0  0
   38.2400   32.4470   40.4290 C   0  0  0  0  0  0  0  0  0  0  0  0
   38.5050   34.1610   40.2620 Cl  0  0  0  0  0  0  0  0  0  0  0  0
   37.0200   31.8360   40.2260 C   0  0  0  0  0  0  0  0  0  0  0  0
   36.1930   32.4960   39.9430 H   0  0  0  0  0  0  0  0  0  0  0  0
   37.5030   24.0660   41.4570 C   0  0  0  0  0  0  0  0  0  0  0  0
   37.8790   23.7480   42.7450 F   0  0  0  0  0  0  0  0  0  0  0  0
   38.3650   23.5150   40.5350 F   0  0  0  0  0  0  0  0  0  0  0  0
   36.1780   23.6950   41.1850 F   0  0  0  0  0  0  0  0  0  0  0  0
  1  2  1  0  0  0  0
  2 19  1  0  0  0  0
  2  3  2  0  0  0  0
  3  8  1  0  0  0  0
  4  3  1  0  0  0  0
  5  4  2  0  0  0  0
  6  1  2  0  0  0  0
  6  5  1  0  0  0  0
  7  1  1  0  0  0  0
  9 10  1  0  0  0  0
 10 11  1  0  0  0  0
 11  5  1  0  0  0  0
 11 12  2  0  0  0  0
 12 13  1  0  0  0  0
 14 12  1  0  0  0  0
 15 14  2  0  0  0  0
 16 15  1  0  0  0  0
 17 10  2  0  0  0  0
 17 15  1  0  0  0  0
 18 17  1  0  0  0  0
 19 20  1  0  0  0  0
 21 19  1  0  0  0  0
 22 19  1  0  0  0  0
M  END
>  <minimizedAffinity>
-4.66379166

$$$$

 OpenBabel03242513353D

 22 23  0  0  0  0  0  0  0  0999 V2000
   38.4550   26.1030   40.3300 C   0  0  0  0  0  0  0  0  0  0  0  0
   37.7250   25.5940   41.4150 C   0  0  0  0  0  0  0  0  0  0  0  0
   37.0430   26.4960   42.2190 C   0  0  0  0  0  0  0  0  0  0  0  0
   37.1050   27.8210   41.9320 N   0  0  0  0  0  0  0  0  0  0  0  0
   37.8190   28.2700   40.8790 C   0  0  0  0  0  0  0  0  0  0  0  0
   38.4890   27.4340   40.0810 N   0  0  0  0  0  0  0  0  0  0  0  0
   38.9960   25.4250   39.6870 H   0  0  0  0  0  0  0  0  0  0  0  0
   36.4980   26.0570   43.0380 H   0  0  0  0  0  0  0  0  0  0  0  0
   39.9430   29.9130   42.3350 Cl  0  0  0  0  0  0  0  0  0  0  0  0
   38.7350   30.5580   41.2530 C   0  0  0  0  0  0  0  0  0  0  0  0
   37.8250   29.7060   40.6530 C   0  0  0  0  0  0  0  0  0  0  0  0
   36.8820   30.2570   39.7990 C   0  0  0  0  0  0  0  0  0  0  0  0
   36.1310   29.6460   39.2900 H   0  0  0  0  0  0  0  0  0  0  0  0
   36.8010   31.6180   39.5150 C   0  0  0  0  0  3  0  0  0  0  0  0
   37.7280   32.4600   40.1300 C   0  0  0  0  0  0  0  0  0  0  0  0
   37.6170   34.1610   39.7670 Cl  0  0  0  0  0  0  0  0  0  0  0  0
   38.6690   31.9170   40.9800 C   0  0  0  0  0  0  0  0  0  0  0  0
   39.3710   32.6240   41.4350 H   0  0  0  0  0  0  0  0  0  0  0  0
   37.7570   24.1120   41.5960 C   0  0  0  0  0  0  0  0  0  0  0  0
   36.5480   23.6320   41.1390 F   0  0  0  0  0  0  0  0  0  0  0  0
   37.9250   23.8460   42.9370 F   0  0  0  0  0  0  0  0  0  0  0  0
   38.8390   23.6210   40.8520 F   0  0  0  0  0  0  0  0  0  0  0  0
  1  2  1  0  0  0  0
  2 19  1  0  0  0  0
  2  3  2  0  0  0  0
  3  8  1  0  0  0  0
  4  3  1  0  0  0  0
  5  4  2  0  0  0  0
  6  1  2  0  0  0  0
  6  5  1  0  0  0  0
  7  1  1  0  0  0  0
 10  9  1  0  0  0  0
 11  5  1  0  0  0  0
 11 10  2  0  0  0  0
 12 11  1  0  0  0  0
 13 12  1  0  0  0  0
 14 12  2  0  0  0  0
 14 15  1  0  0  0  0
 15 17  2  0  0  0  0
 16 15  1  0  0  0  0
 17 10  1  0  0  0  0
 17 18  1  0  0  0  0
 19 21  1  0  0  0  0
 20 19  1  0  0  0  0
 22 19  1  0  0  0  0
M  END
>  <minimizedAffinity>
-4.5954814

$$$$

 OpenBabel03242513353D

 22 23  0  0  0  0  0  0  0  0999 V2000
   36.8000   27.3270   40.7010 C   0  0  0  0  0  0  0  0  0  0  0  0
   36.9560   28.4040   41.5870 C   0  0  0  0  0  0  0  0  0  0  0  0
   36.3690   29.6150   41.2490 C   0  0  0  0  0  0  0  0  0  0  0  0
   35.6740   29.7140   40.0870 N   0  0  0  0  0  0  0  0  0  0  0  0
   35.5470   28.6540   39.2620 C   0  0  0  0  0  0  0  0  0  0  0  0
   36.0970   27.4710   39.5530 N   0  0  0  0  0  0  0  0  0  0  0  0
   37.2450   26.3720   40.9390 H   0  0  0  0  0  0  0  0  0  0  0  0
   36.5180   30.4100   41.9610 H   0  0  0  0  0  0  0  0  0  0  0  0
   37.1170   29.0110   36.6670 Cl  0  0  0  0  0  0  0  0  0  0  0  0
   35.3780   29.0330   36.8040 C   0  0  0  0  0  0  0  0  0  0  0  0
   34.7840   28.8590   38.0410 C   0  0  0  0  0  0  0  0  0  0  0  0
   33.4000   28.8820   38.1090 C   0  0  0  0  0  0  0  0  0  0  0  0
   32.8620   28.7510   39.0520 H   0  0  0  0  0  0  0  0  0  0  0  0
   32.5770   29.0710   37.0010 C   0  0  0  0  0  3  0  0  0  0  0  0
   33.1950   29.2450   35.7620 C   0  0  0  0  0  0  0  0  0  0  0  0
   32.1560   29.4800   34.3840 Cl  0  0  0  0  0  0  0  0  0  0  0  0
   34.5720   29.2220   35.6890 C   0  0  0  0  0  0  0  0  0  0  0  0
   35.0040   29.3640   34.6930 H   0  0  0  0  0  0  0  0  0  0  0  0
   37.7490   28.1330   42.8230 C   0  0  0  0  0  0  0  0  0  0  0  0
   37.0290   27.2200   43.5640 F   0  0  0  0  0  0  0  0  0  0  0  0
   37.9020   29.3200   43.5050 F   0  0  0  0  0  0  0  0  0  0  0  0
   38.9930   27.6270   42.4210 F   0  0  0  0  0  0  0  0  0  0  0  0
  1  7  1  0  0  0  0
  1  2  1  0  0  0  0
  2 19  1  0  0  0  0
  3  2  2  0  0  0  0
  3  8  1  0  0  0  0
  4  3  1  0  0  0  0
  5  6  1  0  0  0  0
  5  4  2  0  0  0  0
  6  1  2  0  0  0  0
  9 10  1  0  0  0  0
 10 11  1  0  0  0  0
 11 12  2  0  0  0  0
 11  5  1  0  0  0  0
 12 13  1  0  0  0  0
 14 12  1  0  0  0  0
 15 14  2  0  0  0  0
 16 15  1  0  0  0  0
 17 15  1  0  0  0  0
 17 10  2  0  0  0  0
 18 17  1  0  0  0  0
 19 21  1  0  0  0  0
 19 20  1  0  0  0  0
 22 19  1  0  0  0  0
M  END
>  <minimizedAffinity>
-4.49799347

$$$$

 OpenBabel03242513353D

 22 23  0  0  0  0  0  0  0  0999 V2000
   35.8760   28.4190   41.2410 C   0  0  0  0  0  0  0  0  0  0  0  0
   36.8260   27.4120   41.4720 C   0  0  0  0  0  0  0  0  0  0  0  0
   37.5800   26.9700   40.3950 C   0  0  0  0  0  0  0  0  0  0  0  0
   37.3750   27.5200   39.1710 N   0  0  0  0  0  0  0  0  0  0  0  0
   36.4510   28.4870   38.9900 C   0  0  0  0  0  0  0  0  0  0  0  0
   35.7050   28.9390   40.0020 N   0  0  0  0  0  0  0  0  0  0  0  0
   35.2750   28.7830   42.0610 H   0  0  0  0  0  0  0  0  0  0  0  0
   38.2950   26.1970   40.6230 H   0  0  0  0  0  0  0  0  0  0  0  0
   34.2270   27.3140   37.2570 Cl  0  0  0  0  0  0  0  0  0  0  0  0
   35.3370   28.5650   36.7610 C   0  0  0  0  0  0  0  0  0  0  0  0
   36.3050   29.0130   37.6430 C   0  0  0  0  0  0  0  0  0  0  0  0
   37.1680   30.0090   37.2120 C   0  0  0  0  0  0  0  0  0  0  0  0
   37.9570   30.4120   37.8530 H   0  0  0  0  0  0  0  0  0  0  0  0
   37.1130   30.5800   35.9430 C   0  0  0  0  0  3  0  0  0  0  0  0
   36.1310   30.1140   35.0690 C   0  0  0  0  0  0  0  0  0  0  0  0
   36.0720   30.8360   33.4840 Cl  0  0  0  0  0  0  0  0  0  0  0  0
   35.2690   29.1240   35.4930 C   0  0  0  0  0  0  0  0  0  0  0  0
   34.5180   28.7970   34.7670 H   0  0  0  0  0  0  0  0  0  0  0  0
   36.9300   26.9110   42.8750 C   0  0  0  0  0  0  0  0  0  0  0  0
   36.8330   25.5370   42.8130 F   0  0  0  0  0  0  0  0  0  0  0  0
   35.8960   27.4530   43.6050 F   0  0  0  0  0  0  0  0  0  0  0  0
   38.1690   27.3320   43.3800 F   0  0  0  0  0  0  0  0  0  0  0  0
  1  2  1  0  0  0  0
  1  7  1  0  0  0  0
  2 19  1  0  0  0  0
  3  8  1  0  0  0  0
  3  2  2  0  0  0  0
  4  3  1  0  0  0  0
  5  4  2  0  0  0  0
  5  6  1  0  0  0  0
  6  1  2  0  0  0  0
 10  9  1  0  0  0  0
 10 11  1  0  0  0  0
 11  5  1  0  0  0  0
 12 11  2  0  0  0  0
 12 13  1  0  0  0  0
 14 12  1  0  0  0  0
 15 17  1  0  0  0  0
 15 14  2  0  0  0  0
 16 15  1  0  0  0  0
 17 10  2  0  0  0  0
 18 17  1  0  0  0  0
 19 22  1  0  0  0  0
 19 21  1  0  0  0  0
 20 19  1  0  0  0  0
M  END
>  <minimizedAffinity>
-4.48334694

$$$$

 OpenBabel03242513353D

 22 23  0  0  0  0  0  0  0  0999 V2000
   36.2810   25.8250   39.2240 C   0  0  0  0  0  0  0  0  0  0  0  0
   36.8940   25.2180   40.3300 C   0  0  0  0  0  0  0  0  0  0  0  0
   37.5730   26.0320   41.2250 C   0  0  0  0  0  0  0  0  0  0  0  0
   37.6200   27.3700   41.0020 N   0  0  0  0  0  0  0  0  0  0  0  0
   37.0160   27.9150   39.9260 C   0  0  0  0  0  0  0  0  0  0  0  0
   36.3530   27.1660   39.0410 N   0  0  0  0  0  0  0  0  0  0  0  0
   35.7450   25.2170   38.5110 H   0  0  0  0  0  0  0  0  0  0  0  0
   38.0260   25.5180   42.0570 H   0  0  0  0  0  0  0  0  0  0  0  0
   38.7000   28.9630   37.6020 Cl  0  0  0  0  0  0  0  0  0  0  0  0
   37.8540   29.9550   38.7620 C   0  0  0  0  0  0  0  0  0  0  0  0
   37.1220   29.3570   39.7730 C   0  0  0  0  0  0  0  0  0  0  0  0
   36.4640   30.1790   40.6740 C   0  0  0  0  0  0  0  0  0  0  0  0
   35.8670   29.7790   41.4980 H   0  0  0  0  0  0  0  0  0  0  0  0
   36.5010   31.5710   40.6170 C   0  0  0  0  0  3  0  0  0  0  0  0
   37.2440   32.1540   39.5910 C   0  0  0  0  0  0  0  0  0  0  0  0
   37.2820   33.8950   39.5300 Cl  0  0  0  0  0  0  0  0  0  0  0  0
   37.9000   31.3400   38.6910 C   0  0  0  0  0  0  0  0  0  0  0  0
   38.4690   31.8510   37.9070 H   0  0  0  0  0  0  0  0  0  0  0  0
   36.7520   23.7350   40.4330 C   0  0  0  0  0  0  0  0  0  0  0  0
   35.4070   23.4770   40.5950 F   0  0  0  0  0  0  0  0  0  0  0  0
   37.4780   23.3070   41.5220 F   0  0  0  0  0  0  0  0  0  0  0  0
   37.2590   23.1810   39.2490 F   0  0  0  0  0  0  0  0  0  0  0  0
  1  2  1  0  0  0  0
  2 19  1  0  0  0  0
  2  3  2  0  0  0  0
  3  8  1  0  0  0  0
  4  3  1  0  0  0  0
  5  4  2  0  0  0  0
  6  1  2  0  0  0  0
  6  5  1  0  0  0  0
  7  1  1  0  0  0  0
  9 10  1  0  0  0  0
 10 11  1  0  0  0  0
 11  5  1  0  0  0  0
 11 12  2  0  0  0  0
 12 13  1  0  0  0  0
 14 12  1  0  0  0  0
 15 14  2  0  0  0  0
 16 15  1  0  0  0  0
 17 10  2  0  0  0  0
 17 15  1  0  0  0  0
 18 17  1  0  0  0  0
 19 20  1  0  0  0  0
 19 21  1  0  0  0  0
 22 19  1  0  0  0  0
M  END
>  <minimizedAffinity>
-4.39110804

$$$$

 OpenBabel03242513353D

 22 23  0  0  0  0  0  0  0  0999 V2000
   36.5220   30.0370   37.6120 C   0  0  0  0  0  0  0  0  0  0  0  0
   35.6280   29.5410   38.5730 C   0  0  0  0  0  0  0  0  0  0  0  0
   35.8670   29.8510   39.9050 C   0  0  0  0  0  0  0  0  0  0  0  0
   36.9440   30.6140   40.2250 N   0  0  0  0  0  0  0  0  0  0  0  0
   37.7790   31.0710   39.2700 C   0  0  0  0  0  0  0  0  0  0  0  0
   37.5830   30.7940   37.9780 N   0  0  0  0  0  0  0  0  0  0  0  0
   36.3600   29.8120   36.5680 H   0  0  0  0  0  0  0  0  0  0  0  0
   35.1540   29.4480   40.6030 H   0  0  0  0  0  0  0  0  0  0  0  0
   37.3240   34.0780   39.5550 Cl  0  0  0  0  0  0  0  0  0  0  0  0
   38.8250   33.2500   39.8800 C   0  0  0  0  0  0  0  0  0  0  0  0
   38.9040   31.8790   39.7130 C   0  0  0  0  0  0  0  0  0  0  0  0
   40.1130   31.2580   39.9830 C   0  0  0  0  0  0  0  0  0  0  0  0
   40.2500   30.1790   39.8720 H   0  0  0  0  0  0  0  0  0  0  0  0
   41.2510   31.9390   40.4110 C   0  0  0  0  0  3  0  0  0  0  0  0
   41.1510   33.3200   40.5740 C   0  0  0  0  0  0  0  0  0  0  0  0
   42.5800   34.1610   41.1110 Cl  0  0  0  0  0  0  0  0  0  0  0  0
   39.9500   33.9430   40.3080 C   0  0  0  0  0  0  0  0  0  0  0  0
   39.9280   35.0290   40.4520 H   0  0  0  0  0  0  0  0  0  0  0  0
   34.4930   28.7180   38.0590 C   0  0  0  0  0  0  0  0  0  0  0  0
   34.2680   29.1210   36.7600 F   0  0  0  0  0  0  0  0  0  0  0  0
   33.3940   28.9550   38.8540 F   0  0  0  0  0  0  0  0  0  0  0  0
   34.8820   27.3720   38.1370 F   0  0  0  0  0  0  0  0  0  0  0  0
  1  6  2  0  0  0  0
  1  2  1  0  0  0  0
  2  3  2  0  0  0  0
  3  4  1  0  0  0  0
  3  8  1  0  0  0  0
  5 11  1  0  0  0  0
  5  4  2  0  0  0  0
  6  5  1  0  0  0  0
  7  1  1  0  0  0  0
  9 10  1  0  0  0  0
 10 17  1  0  0  0  0
 11 10  2  0  0  0  0
 11 12  1  0  0  0  0
 12 14  2  0  0  0  0
 13 12  1  0  0  0  0
 14 15  1  0  0  0  0
 15 16  1  0  0  0  0
 17 18  1  0  0  0  0
 17 15  2  0  0  0  0
 19 22  1  0  0  0  0
 19  2  1  0  0  0  0
 19 21  1  0  0  0  0
 20 19  1  0  0  0  0
M  END
>  <minimizedAffinity>
-4.3555479

$$$$
