
 OpenBabel03252503223D

 41 45  0  0  1  0  0  0  0  0999 V2000
   34.7170   29.2220   37.4940 C   0  0  1  0  0  0  0  0  0  0  0  0
   34.3020   28.2900   36.4640 C   0  0  0  0  0  0  0  0  0  0  0  0
   33.3410   28.6100   37.5790 C   0  0  2  0  0  0  0  0  0  0  0  0
   34.7840   30.3270   37.3290 H   0  0  0  0  0  0  0  0  0  0  0  0
   34.7260   27.2550   36.5300 H   0  0  0  0  0  0  0  0  0  0  0  0
   34.0160   28.5680   35.4420 H   0  0  0  0  0  0  0  0  0  0  0  0
   33.1700   27.8810   38.3700 H   0  0  0  0  0  0  0  0  0  0  0  0
   32.2210   29.5180   37.2290 C   0  0  0  0  0  0  0  0  0  0  0  0
   31.2350   29.9210   38.1220 C   0  0  0  0  0  0  0  0  0  0  0  0
   30.2240   30.7890   37.7310 C   0  0  0  0  0  0  0  0  0  0  0  0
   30.1810   31.2710   36.4420 C   0  0  0  0  0  0  0  0  0  0  0  0
   29.2100   32.1190   36.0220 N   0  0  0  0  0  0  0  0  0  0  0  0
   29.1890   32.5780   34.7510 C   0  0  0  0  0  0  0  0  0  0  0  0
   30.1350   32.2290   33.7930 C   0  0  0  0  0  0  0  0  0  0  0  0
   31.1420   31.3580   34.1990 C   0  0  0  0  0  0  0  0  0  0  0  0
   31.1480   30.8940   35.5160 C   0  0  0  0  0  0  0  0  0  0  0  0
   32.1390   30.0270   35.9420 C   0  0  0  0  0  0  0  0  0  0  0  0
   31.3020   29.5200   39.1330 H   0  0  0  0  0  0  0  0  0  0  0  0
   29.4750   31.0860   38.4320 H   0  0  0  0  0  0  0  0  0  0  0  0
   28.3700   33.2500   34.5220 H   0  0  0  0  0  0  0  0  0  0  0  0
   30.0760   32.6230   32.7860 H   0  0  0  0  0  0  0  0  0  0  0  0
   31.8880   31.0700   33.4830 H   0  0  0  0  0  0  0  0  0  0  0  0
   32.8340   29.7820   35.1470 H   0  0  0  0  0  0  0  0  0  0  0  0
   36.2240   29.8030   39.4310 C   0  0  0  0  0  0  0  0  0  0  0  0
   35.7080   28.8260   38.5310 C   0  0  0  0  0  0  0  0  0  0  0  0
   36.1700   27.5290   38.6440 C   0  0  0  0  0  0  0  0  0  0  0  0
   37.0930   27.2640   39.6080 N   0  0  0  0  0  0  0  0  0  0  0  0
   37.5700   28.2000   40.4480 C   0  0  0  0  0  0  0  0  0  0  0  0
   37.1340   29.4790   40.3620 N   0  0  0  0  0  0  0  0  0  0  0  0
   35.8860   30.8380   39.3790 H   0  0  0  0  0  0  0  0  0  0  0  0
   35.7950   26.7820   37.9810 H   0  0  0  0  0  0  0  0  0  0  0  0
   36.3990   27.4230   43.0550 Cl  0  0  0  0  0  0  0  0  0  0  0  0
   38.1190   27.4840   42.7280 C   0  0  0  0  0  0  0  0  0  0  0  0
   38.5700   27.8590   41.4730 C   0  0  0  0  0  0  0  0  0  0  0  0
   39.9340   27.9220   41.1640 C   0  0  0  0  0  0  0  0  0  0  0  0
   40.2350   28.2240   40.1620 H   0  0  0  0  0  0  0  0  0  0  0  0
   40.8630   27.5940   42.1580 C   0  0  0  0  0  3  0  0  0  0  0  0
   40.3870   27.2230   43.3990 C   0  0  0  0  0  0  0  0  0  0  0  0
   41.5770   26.8190   44.6190 Cl  0  0  0  0  0  0  0  0  0  0  0  0
   39.0460   27.1570   43.7170 C   0  0  0  0  0  0  0  0  0  0  0  0
   38.7230   26.8540   44.7200 H   0  0  0  0  0  0  0  0  0  0  0  0
  1  4  1  6  0  0  0
  1  3  1  0  0  0  0
  1 25  1  0  0  0  0
  2  5  1  0  0  0  0
  2  1  1  0  0  0  0
  2  3  1  0  0  0  0
  3  7  1  1  0  0  0
  6  2  1  0  0  0  0
  8  3  1  0  0  0  0
  8  9  1  0  0  0  0
  9 18  1  0  0  0  0
 10  9  2  0  0  0  0
 10 19  1  0  0  0  0
 11 10  1  0  0  0  0
 12 11  1  0  0  0  0
 13 12  2  0  0  0  0
 14 15  2  0  0  0  0
 14 13  1  0  0  0  0
 15 16  1  0  0  0  0
 16 17  1  0  0  0  0
 16 11  2  0  0  0  0
 17  8  2  0  0  0  0
 20 13  1  0  0  0  0
 21 14  1  0  0  0  0
 22 15  1  0  0  0  0
 23 17  1  0  0  0  0
 24 29  1  0  0  0  0
 25 26  1  0  0  0  0
 25 24  2  0  0  0  0
 26 27  2  0  0  0  0
 27 28  1  0  0  0  0
 28 34  1  0  0  0  0
 29 28  2  0  0  0  0
 30 24  1  0  0  0  0
 31 26  1  0  0  0  0
 33 32  1  0  0  0  0
 33 40  1  0  0  0  0
 34 33  2  0  0  0  0
 35 34  1  0  0  0  0
 35 37  2  0  0  0  0
 36 35  1  0  0  0  0
 37 38  1  0  0  0  0
 38 40  2  0  0  0  0
 38 39  1  0  0  0  0
 40 41  1  0  0  0  0
M  END
>  <minimizedAffinity>
-6.67654181

$$$$

 OpenBabel03252503223D

 41 45  0  0  1  0  0  0  0  0999 V2000
   33.5530   29.2920   37.0250 C   0  0  1  0  0  0  0  0  0  0  0  0
   32.9060   28.2860   36.2070 C   0  0  0  0  0  0  0  0  0  0  0  0
   32.0900   29.0020   37.2500 C   0  0  2  0  0  0  0  0  0  0  0  0
   33.8280   30.3080   36.6440 H   0  0  0  0  0  0  0  0  0  0  0  0
   33.1200   27.2180   36.4700 H   0  0  0  0  0  0  0  0  0  0  0  0
   32.6250   28.4160   35.1550 H   0  0  0  0  0  0  0  0  0  0  0  0
   31.8210   28.4890   38.1730 H   0  0  0  0  0  0  0  0  0  0  0  0
   31.1540   30.0370   36.7440 C   0  0  0  0  0  0  0  0  0  0  0  0
   30.3870   30.8610   37.5590 C   0  0  0  0  0  0  0  0  0  0  0  0
   29.5440   31.8220   37.0170 C   0  0  0  0  0  0  0  0  0  0  0  0
   29.4530   31.9780   35.6520 C   0  0  0  0  0  0  0  0  0  0  0  0
   28.6410   32.9030   35.0850 N   0  0  0  0  0  0  0  0  0  0  0  0
   28.5680   33.0360   33.7410 C   0  0  0  0  0  0  0  0  0  0  0  0
   29.3000   32.2560   32.8520 C   0  0  0  0  0  0  0  0  0  0  0  0
   30.1410   31.2970   33.4100 C   0  0  0  0  0  0  0  0  0  0  0  0
   30.2030   31.1740   34.7990 C   0  0  0  0  0  0  0  0  0  0  0  0
   31.0300   30.2270   35.3760 C   0  0  0  0  0  0  0  0  0  0  0  0
   30.4860   30.7100   38.6330 H   0  0  0  0  0  0  0  0  0  0  0  0
   28.9630   32.4460   37.6600 H   0  0  0  0  0  0  0  0  0  0  0  0
   27.8890   33.8060   33.3960 H   0  0  0  0  0  0  0  0  0  0  0  0
   29.2070   32.3990   31.7830 H   0  0  0  0  0  0  0  0  0  0  0  0
   30.7190   30.6780   32.7500 H   0  0  0  0  0  0  0  0  0  0  0  0
   31.5590   29.6420   34.6320 H   0  0  0  0  0  0  0  0  0  0  0  0
   35.6410   28.1080   37.8020 C   0  0  0  0  0  0  0  0  0  0  0  0
   34.5010   28.9080   38.1060 C   0  0  0  0  0  0  0  0  0  0  0  0
   34.3030   29.2860   39.4200 C   0  0  0  0  0  0  0  0  0  0  0  0
   35.2100   28.8690   40.3460 N   0  0  0  0  0  0  0  0  0  0  0  0
   36.2790   28.1130   40.0400 C   0  0  0  0  0  0  0  0  0  0  0  0
   36.4990   27.7290   38.7610 N   0  0  0  0  0  0  0  0  0  0  0  0
   35.8360   27.7880   36.7790 H   0  0  0  0  0  0  0  0  0  0  0  0
   33.4570   29.8860   39.6690 H   0  0  0  0  0  0  0  0  0  0  0  0
   38.2540   30.1910   40.7840 Cl  0  0  0  0  0  0  0  0  0  0  0  0
   38.1940   28.5920   41.4960 C   0  0  0  0  0  0  0  0  0  0  0  0
   37.2290   27.6880   41.0810 C   0  0  0  0  0  0  0  0  0  0  0  0
   37.1410   26.3990   41.6210 C   0  0  0  0  0  0  0  0  0  0  0  0
   36.3640   25.7280   41.2590 H   0  0  0  0  0  0  0  0  0  0  0  0
   38.0580   26.0210   42.6080 C   0  0  0  0  0  3  0  0  0  0  0  0
   39.0070   26.9410   43.0030 C   0  0  0  0  0  0  0  0  0  0  0  0
   40.1380   26.4340   44.2410 Cl  0  0  0  0  0  0  0  0  0  0  0  0
   39.1060   28.2130   42.4800 C   0  0  0  0  0  0  0  0  0  0  0  0
   39.8800   28.9050   42.8310 H   0  0  0  0  0  0  0  0  0  0  0  0
  1  4  1  6  0  0  0
  1  3  1  0  0  0  0
  1 25  1  0  0  0  0
  2  5  1  0  0  0  0
  2  1  1  0  0  0  0
  2  3  1  0  0  0  0
  3  7  1  1  0  0  0
  6  2  1  0  0  0  0
  8  3  1  0  0  0  0
  8  9  1  0  0  0  0
  9 18  1  0  0  0  0
 10  9  2  0  0  0  0
 10 19  1  0  0  0  0
 11 10  1  0  0  0  0
 12 11  1  0  0  0  0
 13 12  2  0  0  0  0
 14 15  2  0  0  0  0
 14 13  1  0  0  0  0
 15 16  1  0  0  0  0
 16 17  1  0  0  0  0
 16 11  2  0  0  0  0
 17  8  2  0  0  0  0
 20 13  1  0  0  0  0
 21 14  1  0  0  0  0
 22 15  1  0  0  0  0
 23 17  1  0  0  0  0
 24 25  2  0  0  0  0
 24 29  1  0  0  0  0
 25 26  1  0  0  0  0
 26 31  1  0  0  0  0
 26 27  2  0  0  0  0
 28 27  1  0  0  0  0
 28 34  1  0  0  0  0
 29 28  2  0  0  0  0
 30 24  1  0  0  0  0
 32 33  1  0  0  0  0
 33 40  1  0  0  0  0
 34 33  2  0  0  0  0
 34 35  1  0  0  0  0
 35 37  2  0  0  0  0
 36 35  1  0  0  0  0
 37 38  1  0  0  0  0
 38 39  1  0  0  0  0
 40 41  1  0  0  0  0
 40 38  2  0  0  0  0
M  END
>  <minimizedAffinity>
-6.60294628

$$$$

 OpenBabel03252503223D

 41 45  0  0  1  0  0  0  0  0999 V2000
   39.1850   26.7730   41.5800 C   0  0  1  0  0  0  0  0  0  0  0  0
   38.7840   26.2170   42.8570 C   0  0  0  0  0  0  0  0  0  0  0  0
   37.8030   26.1850   41.7150 C   0  0  2  0  0  0  0  0  0  0  0  0
   39.9010   26.2630   40.8860 H   0  0  0  0  0  0  0  0  0  0  0  0
   38.5090   26.9530   43.6550 H   0  0  0  0  0  0  0  0  0  0  0  0
   39.1330   25.2590   43.2620 H   0  0  0  0  0  0  0  0  0  0  0  0
   36.9640   26.8800   41.7030 H   0  0  0  0  0  0  0  0  0  0  0  0
   37.6090   24.8660   41.0620 C   0  0  0  0  0  0  0  0  0  0  0  0
   38.5340   23.8300   41.1070 C   0  0  0  0  0  0  0  0  0  0  0  0
   38.2790   22.6140   40.4880 C   0  0  0  0  0  0  0  0  0  0  0  0
   37.0950   22.4100   39.8160 C   0  0  0  0  0  0  0  0  0  0  0  0
   36.8090   21.2370   39.1990 N   0  0  0  0  0  0  0  0  0  0  0  0
   35.6390   21.0620   38.5430 C   0  0  0  0  0  0  0  0  0  0  0  0
   34.6580   22.0420   38.4500 C   0  0  0  0  0  0  0  0  0  0  0  0
   34.9270   23.2570   39.0750 C   0  0  0  0  0  0  0  0  0  0  0  0
   36.1400   23.4190   39.7470 C   0  0  0  0  0  0  0  0  0  0  0  0
   36.4310   24.6180   40.3740 C   0  0  0  0  0  0  0  0  0  0  0  0
   39.4580   24.0270   41.6480 H   0  0  0  0  0  0  0  0  0  0  0  0
   39.0030   21.8300   40.5330 H   0  0  0  0  0  0  0  0  0  0  0  0
   35.5150   20.0870   38.0870 H   0  0  0  0  0  0  0  0  0  0  0  0
   33.7360   21.8540   37.9140 H   0  0  0  0  0  0  0  0  0  0  0  0
   34.1890   24.0340   39.0210 H   0  0  0  0  0  0  0  0  0  0  0  0
   35.6350   25.3440   40.2510 H   0  0  0  0  0  0  0  0  0  0  0  0
   39.4100   28.7800   40.0670 C   0  0  0  0  0  0  0  0  0  0  0  0
   39.2870   28.2450   41.3830 C   0  0  0  0  0  0  0  0  0  0  0  0
   39.2880   29.1260   42.4470 C   0  0  0  0  0  0  0  0  0  0  0  0
   39.4080   30.4540   42.1720 N   0  0  0  0  0  0  0  0  0  0  0  0
   39.5250   30.9410   40.9240 C   0  0  0  0  0  0  0  0  0  0  0  0
   39.5240   30.1000   39.8620 N   0  0  0  0  0  0  0  0  0  0  0  0
   39.4120   28.1210   39.2000 H   0  0  0  0  0  0  0  0  0  0  0  0
   39.1950   28.7470   43.4390 H   0  0  0  0  0  0  0  0  0  0  0  0
   36.9530   32.2970   40.3580 Cl  0  0  0  0  0  0  0  0  0  0  0  0
   38.5040   33.1100   40.4080 C   0  0  0  0  0  0  0  0  0  0  0  0
   39.6530   32.3870   40.6830 C   0  0  0  0  0  0  0  0  0  0  0  0
   40.9140   32.9920   40.7350 C   0  0  0  0  0  0  0  0  0  0  0  0
   41.7860   32.3780   40.9540 H   0  0  0  0  0  0  0  0  0  0  0  0
   41.0080   34.3690   40.5010 C   0  0  0  0  0  3  0  0  0  0  0  0
   39.8480   35.0650   40.2300 C   0  0  0  0  0  0  0  0  0  0  0  0
   40.0020   36.7860   39.9420 Cl  0  0  0  0  0  0  0  0  0  0  0  0
   38.5990   34.4810   40.1760 C   0  0  0  0  0  0  0  0  0  0  0  0
   37.7090   35.0830   39.9570 H   0  0  0  0  0  0  0  0  0  0  0  0
  1  4  1  6  0  0  0
  1  3  1  0  0  0  0
  1  2  1  0  0  0  0
  2  6  1  0  0  0  0
  2  5  1  0  0  0  0
  3  7  1  1  0  0  0
  3  2  1  0  0  0  0
  8  9  1  0  0  0  0
  8  3  1  0  0  0  0
  9 18  1  0  0  0  0
 10 19  1  0  0  0  0
 10  9  2  0  0  0  0
 11 10  1  0  0  0  0
 12 11  2  0  0  0  0
 13 12  1  0  0  0  0
 14 13  2  0  0  0  0
 14 15  1  0  0  0  0
 15 16  2  0  0  0  0
 16 11  1  0  0  0  0
 16 17  1  0  0  0  0
 17  8  2  0  0  0  0
 20 13  1  0  0  0  0
 21 14  1  0  0  0  0
 22 15  1  0  0  0  0
 23 17  1  0  0  0  0
 24 25  1  0  0  0  0
 25  1  1  0  0  0  0
 25 26  2  0  0  0  0
 26 31  1  0  0  0  0
 27 26  1  0  0  0  0
 28 27  2  0  0  0  0
 29 24  2  0  0  0  0
 29 28  1  0  0  0  0
 30 24  1  0  0  0  0
 32 33  1  0  0  0  0
 33 34  1  0  0  0  0
 34 35  2  0  0  0  0
 34 28  1  0  0  0  0
 35 36  1  0  0  0  0
 37 35  1  0  0  0  0
 38 37  2  0  0  0  0
 39 38  1  0  0  0  0
 40 38  1  0  0  0  0
 40 33  2  0  0  0  0
 41 40  1  0  0  0  0
M  END
>  <minimizedAffinity>
-6.39702463

$$$$

 OpenBabel03252503223D

 41 45  0  0  1  0  0  0  0  0999 V2000
   36.1130   29.4170   39.4820 C   0  0  1  0  0  0  0  0  0  0  0  0
   35.8600   30.3550   40.5570 C   0  0  0  0  0  0  0  0  0  0  0  0
   35.6680   28.8850   40.8220 C   0  0  2  0  0  0  0  0  0  0  0  0
   37.1420   29.1470   39.1330 H   0  0  0  0  0  0  0  0  0  0  0  0
   34.8970   30.9230   40.5040 H   0  0  0  0  0  0  0  0  0  0  0  0
   36.6350   30.8830   41.1260 H   0  0  0  0  0  0  0  0  0  0  0  0
   34.6610   28.4740   40.8840 H   0  0  0  0  0  0  0  0  0  0  0  0
   36.7270   28.2260   41.6260 C   0  0  0  0  0  0  0  0  0  0  0  0
   37.3940   28.8320   42.6850 C   0  0  0  0  0  0  0  0  0  0  0  0
   38.3630   28.1490   43.4070 C   0  0  0  0  0  0  0  0  0  0  0  0
   38.6840   26.8500   43.0850 C   0  0  0  0  0  0  0  0  0  0  0  0
   39.6250   26.1500   43.7650 N   0  0  0  0  0  0  0  0  0  0  0  0
   39.9230   24.8740   43.4300 C   0  0  0  0  0  0  0  0  0  0  0  0
   39.3050   24.1910   42.3880 C   0  0  0  0  0  0  0  0  0  0  0  0
   38.3360   24.8880   41.6720 C   0  0  0  0  0  0  0  0  0  0  0  0
   38.0410   26.2040   42.0330 C   0  0  0  0  0  0  0  0  0  0  0  0
   37.0820   26.9170   41.3360 C   0  0  0  0  0  0  0  0  0  0  0  0
   37.1130   29.8600   42.9110 H   0  0  0  0  0  0  0  0  0  0  0  0
   38.8640   28.6320   44.2160 H   0  0  0  0  0  0  0  0  0  0  0  0
   40.6890   24.4100   44.0390 H   0  0  0  0  0  0  0  0  0  0  0  0
   39.5780   23.1690   42.1560 H   0  0  0  0  0  0  0  0  0  0  0  0
   37.8410   24.3880   40.8610 H   0  0  0  0  0  0  0  0  0  0  0  0
   36.6510   26.3360   40.5280 H   0  0  0  0  0  0  0  0  0  0  0  0
   33.7680   29.1400   38.5920 C   0  0  0  0  0  0  0  0  0  0  0  0
   35.1650   29.2820   38.3430 C   0  0  0  0  0  0  0  0  0  0  0  0
   35.5960   29.2680   37.0310 C   0  0  0  0  0  0  0  0  0  0  0  0
   34.6590   29.1170   36.0550 N   0  0  0  0  0  0  0  0  0  0  0  0
   33.3460   28.9830   36.3090 C   0  0  0  0  0  0  0  0  0  0  0  0
   32.8940   28.9950   37.5860 N   0  0  0  0  0  0  0  0  0  0  0  0
   33.3850   29.1470   39.6120 H   0  0  0  0  0  0  0  0  0  0  0  0
   36.6370   29.3740   36.8220 H   0  0  0  0  0  0  0  0  0  0  0  0
   32.9550   26.1750   35.4530 Cl  0  0  0  0  0  0  0  0  0  0  0  0
   32.1230   27.5440   34.7440 C   0  0  0  0  0  0  0  0  0  0  0  0
   32.3740   28.8220   35.2150 C   0  0  0  0  0  0  0  0  0  0  0  0
   31.7350   29.9480   34.6810 C   0  0  0  0  0  0  0  0  0  0  0  0
   31.9690   30.9300   35.0870 H   0  0  0  0  0  0  0  0  0  0  0  0
   30.8170   29.7660   33.6410 C   0  0  0  0  0  3  0  0  0  0  0  0
   30.5860   28.4830   33.1910 C   0  0  0  0  0  0  0  0  0  0  0  0
   29.4300   28.2930   31.8880 Cl  0  0  0  0  0  0  0  0  0  0  0  0
   31.2080   27.3660   33.7080 C   0  0  0  0  0  0  0  0  0  0  0  0
   30.9860   26.3680   33.3130 H   0  0  0  0  0  0  0  0  0  0  0  0
  1  4  1  6  0  0  0
  1  2  1  0  0  0  0
  1  3  1  0  0  0  0
  2  3  1  0  0  0  0
  2  6  1  0  0  0  0
  3  7  1  1  0  0  0
  3  8  1  0  0  0  0
  5  2  1  0  0  0  0
  8  9  1  0  0  0  0
  9 18  1  0  0  0  0
  9 10  2  0  0  0  0
 10 19  1  0  0  0  0
 11 10  1  0  0  0  0
 11 12  1  0  0  0  0
 13 12  2  0  0  0  0
 13 20  1  0  0  0  0
 14 13  1  0  0  0  0
 15 16  1  0  0  0  0
 15 14  2  0  0  0  0
 16 11  2  0  0  0  0
 17  8  2  0  0  0  0
 17 16  1  0  0  0  0
 21 14  1  0  0  0  0
 22 15  1  0  0  0  0
 23 17  1  0  0  0  0
 24 30  1  0  0  0  0
 25 24  1  0  0  0  0
 25  1  1  0  0  0  0
 26 25  2  0  0  0  0
 27 28  2  0  0  0  0
 27 26  1  0  0  0  0
 28 29  1  0  0  0  0
 29 24  2  0  0  0  0
 31 26  1  0  0  0  0
 33 34  1  0  0  0  0
 33 32  1  0  0  0  0
 34 28  1  0  0  0  0
 35 36  1  0  0  0  0
 35 34  2  0  0  0  0
 37 35  1  0  0  0  0
 38 37  2  0  0  0  0
 38 40  1  0  0  0  0
 39 38  1  0  0  0  0
 40 33  2  0  0  0  0
 41 40  1  0  0  0  0
M  END
>  <minimizedAffinity>
-6.07225657

$$$$

 OpenBabel03252503223D

 41 45  0  0  1  0  0  0  0  0999 V2000
   38.9930   27.7220   42.7440 C   0  0  1  0  0  0  0  0  0  0  0  0
   37.7360   27.9120   43.4400 C   0  0  0  0  0  0  0  0  0  0  0  0
   37.7220   27.8110   41.9370 C   0  0  2  0  0  0  0  0  0  0  0  0
   39.5470   26.7480   42.7340 H   0  0  0  0  0  0  0  0  0  0  0  0
   37.5270   28.9470   43.8140 H   0  0  0  0  0  0  0  0  0  0  0  0
   37.2110   27.1380   44.0120 H   0  0  0  0  0  0  0  0  0  0  0  0
   37.5770   28.7080   41.3360 H   0  0  0  0  0  0  0  0  0  0  0  0
   37.2350   26.5260   41.3780 C   0  0  0  0  0  0  0  0  0  0  0  0
   37.1540   25.3410   42.1000 C   0  0  0  0  0  0  0  0  0  0  0  0
   36.6700   24.1780   41.5180 C   0  0  0  0  0  0  0  0  0  0  0  0
   36.2580   24.1760   40.2040 C   0  0  0  0  0  0  0  0  0  0  0  0
   35.7810   23.0610   39.5990 N   0  0  0  0  0  0  0  0  0  0  0  0
   35.3830   23.0850   38.3070 C   0  0  0  0  0  0  0  0  0  0  0  0
   35.4280   24.2240   37.5110 C   0  0  0  0  0  0  0  0  0  0  0  0
   35.9160   25.3840   38.1080 C   0  0  0  0  0  0  0  0  0  0  0  0
   36.3220   25.3400   39.4440 C   0  0  0  0  0  0  0  0  0  0  0  0
   36.8110   26.4790   40.0580 C   0  0  0  0  0  0  0  0  0  0  0  0
   37.4870   25.3800   43.1360 H   0  0  0  0  0  0  0  0  0  0  0  0
   36.6160   23.2770   42.0890 H   0  0  0  0  0  0  0  0  0  0  0  0
   35.0190   22.1390   37.9250 H   0  0  0  0  0  0  0  0  0  0  0  0
   35.0990   24.1940   36.4800 H   0  0  0  0  0  0  0  0  0  0  0  0
   35.9630   26.2800   37.5200 H   0  0  0  0  0  0  0  0  0  0  0  0
   36.8360   27.3270   39.3820 H   0  0  0  0  0  0  0  0  0  0  0  0
   39.5660   30.1750   42.8810 C   0  0  0  0  0  0  0  0  0  0  0  0
   39.9700   28.8360   42.6080 C   0  0  0  0  0  0  0  0  0  0  0  0
   41.2720   28.6200   42.1990 C   0  0  0  0  0  0  0  0  0  0  0  0
   42.0890   29.7020   42.0800 N   0  0  0  0  0  0  0  0  0  0  0  0
   41.6890   30.9590   42.3410 C   0  0  0  0  0  0  0  0  0  0  0  0
   40.4200   31.2000   42.7460 N   0  0  0  0  0  0  0  0  0  0  0  0
   38.5490   30.3900   43.2080 H   0  0  0  0  0  0  0  0  0  0  0  0
   41.5960   27.6250   41.9900 H   0  0  0  0  0  0  0  0  0  0  0  0
   43.6990   31.1570   44.5070 Cl  0  0  0  0  0  0  0  0  0  0  0  0
   43.5920   32.2720   43.1610 C   0  0  0  0  0  0  0  0  0  0  0  0
   42.6150   32.0950   42.1950 C   0  0  0  0  0  0  0  0  0  0  0  0
   42.4890   32.9590   41.1010 C   0  0  0  0  0  0  0  0  0  0  0  0
   41.7030   32.7750   40.3700 H   0  0  0  0  0  0  0  0  0  0  0  0
   43.3810   34.0310   40.9870 C   0  0  0  0  0  3  0  0  0  0  0  0
   44.3440   34.1840   41.9630 C   0  0  0  0  0  0  0  0  0  0  0  0
   45.4440   35.5370   41.7890 Cl  0  0  0  0  0  0  0  0  0  0  0  0
   44.4790   33.3410   43.0450 C   0  0  0  0  0  0  0  0  0  0  0  0
   45.2650   33.5080   43.7920 H   0  0  0  0  0  0  0  0  0  0  0  0
  1  4  1  1  0  0  0
  1  2  1  0  0  0  0
  2  5  1  0  0  0  0
  2  6  1  0  0  0  0
  3  7  1  6  0  0  0
  3  1  1  0  0  0  0
  3  2  1  0  0  0  0
  8  3  1  0  0  0  0
  8  9  1  0  0  0  0
  9 18  1  0  0  0  0
 10 19  1  0  0  0  0
 10  9  2  0  0  0  0
 11 10  1  0  0  0  0
 12 11  1  0  0  0  0
 13 12  2  0  0  0  0
 14 15  2  0  0  0  0
 14 13  1  0  0  0  0
 15 16  1  0  0  0  0
 16 17  1  0  0  0  0
 16 11  2  0  0  0  0
 17  8  2  0  0  0  0
 20 13  1  0  0  0  0
 21 14  1  0  0  0  0
 22 15  1  0  0  0  0
 23 17  1  0  0  0  0
 24 30  1  0  0  0  0
 25  1  1  0  0  0  0
 25 24  2  0  0  0  0
 26 25  1  0  0  0  0
 27 26  2  0  0  0  0
 27 28  1  0  0  0  0
 28 29  2  0  0  0  0
 29 24  1  0  0  0  0
 31 26  1  0  0  0  0
 33 32  1  0  0  0  0
 34 28  1  0  0  0  0
 34 33  2  0  0  0  0
 35 34  1  0  0  0  0
 36 35  1  0  0  0  0
 37 35  2  0  0  0  0
 37 38  1  0  0  0  0
 38 40  2  0  0  0  0
 39 38  1  0  0  0  0
 40 33  1  0  0  0  0
 40 41  1  0  0  0  0
M  END
>  <minimizedAffinity>
-6.0493679

$$$$

 OpenBabel03252503223D

 41 45  0  0  1  0  0  0  0  0999 V2000
   39.3610   27.5870   43.3110 C   0  0  1  0  0  0  0  0  0  0  0  0
   39.7220   26.2530   43.7490 C   0  0  0  0  0  0  0  0  0  0  0  0
   40.7550   27.0830   43.0310 C   0  0  2  0  0  0  0  0  0  0  0  0
   39.2540   28.4540   44.0130 H   0  0  0  0  0  0  0  0  0  0  0  0
   39.3310   25.4050   43.1300 H   0  0  0  0  0  0  0  0  0  0  0  0
   39.9250   25.9650   44.7870 H   0  0  0  0  0  0  0  0  0  0  0  0
   41.0030   26.8590   41.9950 H   0  0  0  0  0  0  0  0  0  0  0  0
   41.8220   27.6670   43.8810 C   0  0  0  0  0  0  0  0  0  0  0  0
   42.3250   27.0630   45.0270 C   0  0  0  0  0  0  0  0  0  0  0  0
   43.3390   27.6570   45.7660 C   0  0  0  0  0  0  0  0  0  0  0  0
   43.8700   28.8650   45.3720 C   0  0  0  0  0  0  0  0  0  0  0  0
   44.8590   29.4780   46.0660 N   0  0  0  0  0  0  0  0  0  0  0  0
   45.3640   30.6650   45.6600 C   0  0  0  0  0  0  0  0  0  0  0  0
   44.9230   31.3380   44.5260 C   0  0  0  0  0  0  0  0  0  0  0  0
   43.9060   30.7300   43.7950 C   0  0  0  0  0  0  0  0  0  0  0  0
   43.3970   29.5050   44.2310 C   0  0  0  0  0  0  0  0  0  0  0  0
   42.3850   28.8820   43.5210 C   0  0  0  0  0  0  0  0  0  0  0  0
   41.8820   26.1080   45.3070 H   0  0  0  0  0  0  0  0  0  0  0  0
   43.7110   27.1780   46.6440 H   0  0  0  0  0  0  0  0  0  0  0  0
   46.1510   31.0650   46.2880 H   0  0  0  0  0  0  0  0  0  0  0  0
   45.3580   32.2880   44.2400 H   0  0  0  0  0  0  0  0  0  0  0  0
   43.5430   31.2250   42.9140 H   0  0  0  0  0  0  0  0  0  0  0  0
   42.0750   29.4630   42.6600 H   0  0  0  0  0  0  0  0  0  0  0  0
   38.2790   29.1020   41.6090 C   0  0  0  0  0  0  0  0  0  0  0  0
   38.4610   27.7940   42.1450 C   0  0  0  0  0  0  0  0  0  0  0  0
   37.7650   26.7500   41.5650 C   0  0  0  0  0  0  0  0  0  0  0  0
   36.9460   27.0370   40.5160 N   0  0  0  0  0  0  0  0  0  0  0  0
   36.7860   28.2790   40.0250 C   0  0  0  0  0  0  0  0  0  0  0  0
   37.4570   29.3200   40.5720 N   0  0  0  0  0  0  0  0  0  0  0  0
   38.8090   29.9530   42.0350 H   0  0  0  0  0  0  0  0  0  0  0  0
   37.8870   25.7630   41.9500 H   0  0  0  0  0  0  0  0  0  0  0  0
   38.1420   28.2590   37.3910 Cl  0  0  0  0  0  0  0  0  0  0  0  0
   36.4290   28.5460   37.6130 C   0  0  0  0  0  0  0  0  0  0  0  0
   35.8870   28.5340   38.8880 C   0  0  0  0  0  0  0  0  0  0  0  0
   34.5240   28.7580   39.1160 C   0  0  0  0  0  0  0  0  0  0  0  0
   34.1490   28.7380   40.1370 H   0  0  0  0  0  0  0  0  0  0  0  0
   33.6910   28.9990   38.0170 C   0  0  0  0  0  3  0  0  0  0  0  0
   34.2560   29.0040   36.7590 C   0  0  0  0  0  0  0  0  0  0  0  0
   33.1850   29.3100   35.4070 Cl  0  0  0  0  0  0  0  0  0  0  0  0
   35.5970   28.7860   36.5200 C   0  0  0  0  0  0  0  0  0  0  0  0
   35.9940   28.8010   35.4980 H   0  0  0  0  0  0  0  0  0  0  0  0
  1  2  1  0  0  0  0
  1  4  1  1  0  0  0
  2  6  1  0  0  0  0
  3  7  1  6  0  0  0
  3  1  1  0  0  0  0
  3  2  1  0  0  0  0
  3  8  1  0  0  0  0
  5  2  1  0  0  0  0
  8  9  1  0  0  0  0
  9 18  1  0  0  0  0
  9 10  2  0  0  0  0
 10 19  1  0  0  0  0
 11 10  1  0  0  0  0
 11 12  1  0  0  0  0
 13 12  2  0  0  0  0
 13 20  1  0  0  0  0
 14 13  1  0  0  0  0
 15 16  1  0  0  0  0
 15 14  2  0  0  0  0
 16 11  2  0  0  0  0
 17  8  2  0  0  0  0
 17 16  1  0  0  0  0
 21 14  1  0  0  0  0
 22 15  1  0  0  0  0
 23 17  1  0  0  0  0
 24 30  1  0  0  0  0
 24 25  1  0  0  0  0
 25  1  1  0  0  0  0
 26 31  1  0  0  0  0
 26 25  2  0  0  0  0
 27 26  1  0  0  0  0
 28 27  2  0  0  0  0
 28 29  1  0  0  0  0
 29 24  2  0  0  0  0
 32 33  1  0  0  0  0
 33 34  1  0  0  0  0
 34 35  2  0  0  0  0
 34 28  1  0  0  0  0
 35 36  1  0  0  0  0
 37 35  1  0  0  0  0
 38 37  2  0  0  0  0
 39 38  1  0  0  0  0
 40 38  1  0  0  0  0
 40 33  2  0  0  0  0
 41 40  1  0  0  0  0
M  END
>  <minimizedAffinity>
-5.99930429

$$$$

 OpenBabel03252503223D

 41 45  0  0  1  0  0  0  0  0999 V2000
   35.3980   29.2720   37.5210 C   0  0  1  0  0  0  0  0  0  0  0  0
   35.2130   28.3370   36.4290 C   0  0  0  0  0  0  0  0  0  0  0  0
   34.1260   28.4640   37.4640 C   0  0  2  0  0  0  0  0  0  0  0  0
   35.3130   30.3820   37.3970 H   0  0  0  0  0  0  0  0  0  0  0  0
   35.7790   27.3730   36.5000 H   0  0  0  0  0  0  0  0  0  0  0  0
   34.9740   28.6150   35.3960 H   0  0  0  0  0  0  0  0  0  0  0  0
   33.9990   27.6840   38.2140 H   0  0  0  0  0  0  0  0  0  0  0  0
   32.9160   29.2140   37.0460 C   0  0  0  0  0  0  0  0  0  0  0  0
   32.6690   29.6340   35.7440 C   0  0  0  0  0  0  0  0  0  0  0  0
   31.5050   30.3170   35.4190 C   0  0  0  0  0  0  0  0  0  0  0  0
   30.5670   30.5930   36.3870 C   0  0  0  0  0  0  0  0  0  0  0  0
   29.4190   31.2580   36.1100 N   0  0  0  0  0  0  0  0  0  0  0  0
   28.5120   31.5170   37.0790 C   0  0  0  0  0  0  0  0  0  0  0  0
   28.6760   31.1340   38.4060 C   0  0  0  0  0  0  0  0  0  0  0  0
   29.8480   30.4500   38.7170 C   0  0  0  0  0  0  0  0  0  0  0  0
   30.7720   30.1910   37.7030 C   0  0  0  0  0  0  0  0  0  0  0  0
   31.9450   29.5140   37.9890 C   0  0  0  0  0  0  0  0  0  0  0  0
   33.4330   29.3970   35.0040 H   0  0  0  0  0  0  0  0  0  0  0  0
   31.3340   30.6310   34.4130 H   0  0  0  0  0  0  0  0  0  0  0  0
   27.6310   32.0540   36.7470 H   0  0  0  0  0  0  0  0  0  0  0  0
   27.9210   31.3650   39.1470 H   0  0  0  0  0  0  0  0  0  0  0  0
   30.0040   30.1400   39.7330 H   0  0  0  0  0  0  0  0  0  0  0  0
   32.0200   29.2570   39.0400 H   0  0  0  0  0  0  0  0  0  0  0  0
   37.3540   27.9850   38.4600 C   0  0  0  0  0  0  0  0  0  0  0  0
   36.3460   28.9790   38.6290 C   0  0  0  0  0  0  0  0  0  0  0  0
   36.2730   29.6320   39.8450 C   0  0  0  0  0  0  0  0  0  0  0  0
   37.1690   29.2820   40.8090 N   0  0  0  0  0  0  0  0  0  0  0  0
   38.1110   28.3400   40.6320 C   0  0  0  0  0  0  0  0  0  0  0  0
   38.2080   27.6860   39.4500 N   0  0  0  0  0  0  0  0  0  0  0  0
   37.4480   27.4470   37.5170 H   0  0  0  0  0  0  0  0  0  0  0  0
   35.5280   30.3800   39.9920 H   0  0  0  0  0  0  0  0  0  0  0  0
   40.6390   29.8810   40.5460 Cl  0  0  0  0  0  0  0  0  0  0  0  0
   40.2680   28.6670   41.7530 C   0  0  0  0  0  0  0  0  0  0  0  0
   39.0550   27.9990   41.7090 C   0  0  0  0  0  0  0  0  0  0  0  0
   38.7120   27.0220   42.6510 C   0  0  0  0  0  0  0  0  0  0  0  0
   37.7460   26.5260   42.5710 H   0  0  0  0  0  0  0  0  0  0  0  0
   39.6280   26.7170   43.6650 C   0  0  0  0  0  3  0  0  0  0  0  0
   40.8280   27.3980   43.6850 C   0  0  0  0  0  0  0  0  0  0  0  0
   41.9510   26.9910   44.9670 Cl  0  0  0  0  0  0  0  0  0  0  0  0
   41.1780   28.3620   42.7640 C   0  0  0  0  0  0  0  0  0  0  0  0
   42.1460   28.8730   42.8280 H   0  0  0  0  0  0  0  0  0  0  0  0
  1  4  1  6  0  0  0
  1 25  1  0  0  0  0
  2  5  1  0  0  0  0
  2  3  1  0  0  0  0
  2  1  1  0  0  0  0
  3  1  1  0  0  0  0
  3  7  1  1  0  0  0
  6  2  1  0  0  0  0
  8  3  1  0  0  0  0
  8 17  1  0  0  0  0
  9  8  2  0  0  0  0
 10  9  1  0  0  0  0
 10 11  2  0  0  0  0
 11 16  1  0  0  0  0
 12 11  1  0  0  0  0
 12 13  2  0  0  0  0
 13 14  1  0  0  0  0
 14 15  2  0  0  0  0
 14 21  1  0  0  0  0
 15 22  1  0  0  0  0
 16 17  2  0  0  0  0
 16 15  1  0  0  0  0
 17 23  1  0  0  0  0
 18  9  1  0  0  0  0
 19 10  1  0  0  0  0
 20 13  1  0  0  0  0
 24 25  2  0  0  0  0
 24 29  1  0  0  0  0
 25 26  1  0  0  0  0
 26 31  1  0  0  0  0
 26 27  2  0  0  0  0
 28 27  1  0  0  0  0
 28 34  1  0  0  0  0
 29 28  2  0  0  0  0
 30 24  1  0  0  0  0
 32 33  1  0  0  0  0
 33 40  1  0  0  0  0
 34 33  2  0  0  0  0
 34 35  1  0  0  0  0
 35 37  2  0  0  0  0
 36 35  1  0  0  0  0
 37 38  1  0  0  0  0
 38 39  1  0  0  0  0
 40 41  1  0  0  0  0
 40 38  2  0  0  0  0
M  END
>  <minimizedAffinity>
-5.99341059

$$$$

 OpenBabel03252503223D

 41 45  0  0  1  0  0  0  0  0999 V2000
   38.8150   26.2800   40.8760 C   0  0  1  0  0  0  0  0  0  0  0  0
   38.6410   25.6030   42.1460 C   0  0  0  0  0  0  0  0  0  0  0  0
   37.4580   25.7210   41.2220 C   0  0  2  0  0  0  0  0  0  0  0  0
   39.3580   25.8240   40.0080 H   0  0  0  0  0  0  0  0  0  0  0  0
   38.5620   26.2580   43.0500 H   0  0  0  0  0  0  0  0  0  0  0  0
   39.0130   24.5980   42.3790 H   0  0  0  0  0  0  0  0  0  0  0  0
   36.6680   26.4370   41.4440 H   0  0  0  0  0  0  0  0  0  0  0  0
   37.0760   24.4850   40.4940 C   0  0  0  0  0  0  0  0  0  0  0  0
   36.0230   24.4040   39.5910 C   0  0  0  0  0  0  0  0  0  0  0  0
   35.7340   23.2180   38.9310 C   0  0  0  0  0  0  0  0  0  0  0  0
   36.4910   22.0910   39.1600 C   0  0  0  0  0  0  0  0  0  0  0  0
   36.2400   20.9140   38.5370 N   0  0  0  0  0  0  0  0  0  0  0  0
   36.9980   19.8210   38.7790 C   0  0  0  0  0  0  0  0  0  0  0  0
   38.0710   19.8130   39.6640 C   0  0  0  0  0  0  0  0  0  0  0  0
   38.3500   21.0090   40.3190 C   0  0  0  0  0  0  0  0  0  0  0  0
   37.5560   22.1270   40.0560 C   0  0  0  0  0  0  0  0  0  0  0  0
   37.8130   23.3270   40.6950 C   0  0  0  0  0  0  0  0  0  0  0  0
   35.4470   25.3150   39.4350 H   0  0  0  0  0  0  0  0  0  0  0  0
   34.9190   23.1750   38.2420 H   0  0  0  0  0  0  0  0  0  0  0  0
   36.7100   18.9350   38.2270 H   0  0  0  0  0  0  0  0  0  0  0  0
   38.6490   18.9120   39.8250 H   0  0  0  0  0  0  0  0  0  0  0  0
   39.1720   21.0350   41.0080 H   0  0  0  0  0  0  0  0  0  0  0  0
   38.6490   23.2510   41.3820 H   0  0  0  0  0  0  0  0  0  0  0  0
   39.0760   28.4060   39.5430 C   0  0  0  0  0  0  0  0  0  0  0  0
   38.9500   27.7600   40.8080 C   0  0  0  0  0  0  0  0  0  0  0  0
   38.9780   28.5440   41.9450 C   0  0  0  0  0  0  0  0  0  0  0  0
   39.1270   29.8880   41.7870 N   0  0  0  0  0  0  0  0  0  0  0  0
   39.2460   30.4800   40.5860 C   0  0  0  0  0  0  0  0  0  0  0  0
   39.2200   29.7370   39.4540 N   0  0  0  0  0  0  0  0  0  0  0  0
   39.0570   27.8260   38.6210 H   0  0  0  0  0  0  0  0  0  0  0  0
   38.8840   28.0810   42.9010 H   0  0  0  0  0  0  0  0  0  0  0  0
   36.6970   31.9440   40.2250 Cl  0  0  0  0  0  0  0  0  0  0  0  0
   38.2700   32.7110   40.2990 C   0  0  0  0  0  0  0  0  0  0  0  0
   39.4060   31.9390   40.4720 C   0  0  0  0  0  0  0  0  0  0  0  0
   40.6850   32.5060   40.5380 C   0  0  0  0  0  0  0  0  0  0  0  0
   41.5460   31.8540   40.6740 H   0  0  0  0  0  0  0  0  0  0  0  0
   40.8080   33.8960   40.4260 C   0  0  0  0  0  3  0  0  0  0  0  0
   39.6600   34.6410   40.2550 C   0  0  0  0  0  0  0  0  0  0  0  0
   39.8510   36.3770   40.1180 Cl  0  0  0  0  0  0  0  0  0  0  0  0
   38.3950   34.0950   40.1880 C   0  0  0  0  0  0  0  0  0  0  0  0
   37.5150   34.7350   40.0520 H   0  0  0  0  0  0  0  0  0  0  0  0
  1  4  1  6  0  0  0
  1  3  1  0  0  0  0
  1  2  1  0  0  0  0
  2  6  1  0  0  0  0
  2  5  1  0  0  0  0
  3  7  1  1  0  0  0
  3  2  1  0  0  0  0
  8 17  1  0  0  0  0
  8  3  1  0  0  0  0
  9  8  2  0  0  0  0
 10 11  2  0  0  0  0
 10  9  1  0  0  0  0
 11 16  1  0  0  0  0
 12 13  2  0  0  0  0
 12 11  1  0  0  0  0
 13 14  1  0  0  0  0
 14 21  1  0  0  0  0
 14 15  2  0  0  0  0
 15 22  1  0  0  0  0
 16 15  1  0  0  0  0
 16 17  2  0  0  0  0
 17 23  1  0  0  0  0
 18  9  1  0  0  0  0
 19 10  1  0  0  0  0
 20 13  1  0  0  0  0
 24 25  1  0  0  0  0
 25  1  1  0  0  0  0
 25 26  2  0  0  0  0
 26 31  1  0  0  0  0
 27 26  1  0  0  0  0
 28 27  2  0  0  0  0
 29 24  2  0  0  0  0
 29 28  1  0  0  0  0
 30 24  1  0  0  0  0
 32 33  1  0  0  0  0
 33 34  1  0  0  0  0
 34 35  2  0  0  0  0
 34 28  1  0  0  0  0
 35 36  1  0  0  0  0
 37 35  1  0  0  0  0
 38 37  2  0  0  0  0
 39 38  1  0  0  0  0
 40 38  1  0  0  0  0
 40 33  2  0  0  0  0
 41 40  1  0  0  0  0
M  END
>  <minimizedAffinity>
-5.94740248

$$$$

 OpenBabel03252503223D

 41 45  0  0  1  0  0  0  0  0999 V2000
   37.7090   30.2370   39.6770 C   0  0  1  0  0  0  0  0  0  0  0  0
   36.7690   31.0690   40.4020 C   0  0  0  0  0  0  0  0  0  0  0  0
   38.1540   30.8830   40.9650 C   0  0  2  0  0  0  0  0  0  0  0  0
   38.2150   30.5630   38.7320 H   0  0  0  0  0  0  0  0  0  0  0  0
   35.9790   30.5320   40.9860 H   0  0  0  0  0  0  0  0  0  0  0  0
   36.4660   32.0800   40.1050 H   0  0  0  0  0  0  0  0  0  0  0  0
   38.3050   30.2290   41.8230 H   0  0  0  0  0  0  0  0  0  0  0  0
   39.0770   32.0350   40.8110 C   0  0  0  0  0  0  0  0  0  0  0  0
   40.4610   31.9420   40.8900 C   0  0  0  0  0  0  0  0  0  0  0  0
   41.2660   33.0600   40.7170 C   0  0  0  0  0  0  0  0  0  0  0  0
   40.7040   34.2900   40.4610 C   0  0  0  0  0  0  0  0  0  0  0  0
   41.4550   35.4040   40.2880 N   0  0  0  0  0  0  0  0  0  0  0  0
   40.8790   36.6020   40.0390 C   0  0  0  0  0  0  0  0  0  0  0  0
   39.5040   36.7860   39.9420 C   0  0  0  0  0  0  0  0  0  0  0  0
   38.7090   35.6570   40.1170 C   0  0  0  0  0  0  0  0  0  0  0  0
   39.3220   34.4290   40.3740 C   0  0  0  0  0  0  0  0  0  0  0  0
   38.5520   33.2930   40.5530 C   0  0  0  0  0  0  0  0  0  0  0  0
   40.8710   30.9530   41.0920 H   0  0  0  0  0  0  0  0  0  0  0  0
   42.3280   32.9670   40.7820 H   0  0  0  0  0  0  0  0  0  0  0  0
   41.5730   37.4250   39.9160 H   0  0  0  0  0  0  0  0  0  0  0  0
   39.0890   37.7660   39.7410 H   0  0  0  0  0  0  0  0  0  0  0  0
   37.6430   35.7660   40.0480 H   0  0  0  0  0  0  0  0  0  0  0  0
   37.4920   33.5050   40.4820 H   0  0  0  0  0  0  0  0  0  0  0  0
   38.5920   27.9500   39.0810 C   0  0  0  0  0  0  0  0  0  0  0  0
   37.5720   28.7550   39.6670 C   0  0  0  0  0  0  0  0  0  0  0  0
   36.4640   28.1200   40.1940 C   0  0  0  0  0  0  0  0  0  0  0  0
   36.4140   26.7620   40.1190 N   0  0  0  0  0  0  0  0  0  0  0  0
   37.3860   26.0190   39.5610 C   0  0  0  0  0  0  0  0  0  0  0  0
   38.4840   26.6140   39.0390 N   0  0  0  0  0  0  0  0  0  0  0  0
   39.4840   28.4090   38.6550 H   0  0  0  0  0  0  0  0  0  0  0  0
   35.6890   28.7040   40.6370 H   0  0  0  0  0  0  0  0  0  0  0  0
   38.7000   24.6340   41.8260 Cl  0  0  0  0  0  0  0  0  0  0  0  0
   37.8650   23.8140   40.5220 C   0  0  0  0  0  0  0  0  0  0  0  0
   37.2810   24.5510   39.5060 C   0  0  0  0  0  0  0  0  0  0  0  0
   36.6030   23.9420   38.4430 C   0  0  0  0  0  0  0  0  0  0  0  0
   36.1620   24.5670   37.6690 H   0  0  0  0  0  0  0  0  0  0  0  0
   36.5190   22.5450   38.4150 C   0  0  0  0  0  3  0  0  0  0  0  0
   37.1100   21.8350   39.4400 C   0  0  0  0  0  0  0  0  0  0  0  0
   36.9860   20.0890   39.3730 Cl  0  0  0  0  0  0  0  0  0  0  0  0
   37.7800   22.4230   40.4920 C   0  0  0  0  0  0  0  0  0  0  0  0
   38.2310   21.8100   41.2820 H   0  0  0  0  0  0  0  0  0  0  0  0
  1  4  1  6  0  0  0
  1  2  1  0  0  0  0
  1  3  1  0  0  0  0
  2  3  1  0  0  0  0
  2  5  1  0  0  0  0
  3  7  1  1  0  0  0
  6  2  1  0  0  0  0
  8  9  1  0  0  0  0
  8  3  1  0  0  0  0
  9 18  1  0  0  0  0
 10 19  1  0  0  0  0
 10  9  2  0  0  0  0
 11 10  1  0  0  0  0
 12 11  2  0  0  0  0
 13 12  1  0  0  0  0
 14 13  2  0  0  0  0
 14 15  1  0  0  0  0
 15 16  2  0  0  0  0
 16 11  1  0  0  0  0
 16 17  1  0  0  0  0
 17  8  2  0  0  0  0
 20 13  1  0  0  0  0
 21 14  1  0  0  0  0
 22 15  1  0  0  0  0
 23 17  1  0  0  0  0
 24 25  1  0  0  0  0
 25  1  1  0  0  0  0
 25 26  2  0  0  0  0
 26 31  1  0  0  0  0
 27 26  1  0  0  0  0
 28 27  2  0  0  0  0
 29 24  2  0  0  0  0
 29 28  1  0  0  0  0
 30 24  1  0  0  0  0
 33 32  1  0  0  0  0
 34 28  1  0  0  0  0
 34 33  2  0  0  0  0
 35 34  1  0  0  0  0
 36 35  1  0  0  0  0
 37 35  2  0  0  0  0
 37 38  1  0  0  0  0
 38 40  2  0  0  0  0
 39 38  1  0  0  0  0
 40 33  1  0  0  0  0
 40 41  1  0  0  0  0
M  END
>  <minimizedAffinity>
-5.94560051

$$$$
