
 OpenBabel03242513273D

 31 33  0  0  0  0  0  0  0  0999 V2000
   46.5940   34.1170   41.0690 C   0  0  0  0  0  0  0  0  0  0  0  0
   46.9920   34.8960   42.1210 C   0  0  0  0  0  0  0  0  0  0  0  0
   48.1570   35.6050   41.9540 C   0  0  0  0  0  0  0  0  0  0  0  0
   48.8930   35.5380   40.7820 C   0  0  0  0  0  0  0  0  0  0  0  0
   48.4600   34.7450   39.7480 C   0  0  0  0  0  0  0  0  0  0  0  0
   47.2900   34.0110   39.8730 C   0  0  0  0  0  0  0  0  0  0  0  0
   48.5110   36.2340   42.7580 H   0  0  0  0  0  0  0  0  0  0  0  0
   49.8100   36.0820   40.6200 H   0  0  0  0  0  0  0  0  0  0  0  0
   48.9610   34.6210   38.7890 H   0  0  0  0  0  0  0  0  0  0  0  0
   44.4930   35.9210   44.7490 C   0  0  0  0  0  0  0  0  0  0  0  0
   45.2560   35.9340   43.5680 C   0  0  0  0  0  0  0  0  0  0  0  0
   46.1880   34.9260   43.3130 C   0  0  0  0  0  0  0  0  0  0  0  0
   46.2810   33.9810   44.2680 N   0  0  0  0  0  0  0  0  0  0  0  0
   45.5570   33.9600   45.3980 C   0  0  0  0  0  0  0  0  0  0  0  0
   44.6630   34.9300   45.6380 N   0  0  0  0  0  0  0  0  0  0  0  0
   43.7750   36.7100   44.9290 H   0  0  0  0  0  0  0  0  0  0  0  0
   45.1260   36.7220   42.8550 H   0  0  0  0  0  0  0  0  0  0  0  0
   45.6840   33.1680   46.1220 H   0  0  0  0  0  0  0  0  0  0  0  0
   45.4120   33.3750   41.1940 O   0  0  0  0  0  0  0  0  0  0  0  0
   44.7920   33.4940   41.9830 H   0  0  0  0  0  0  0  0  0  0  0  0
   46.8000   33.1970   38.8730 O   0  0  0  0  0  0  0  0  0  0  0  0
   48.2790   30.6610   39.5920 Cl  0  0  0  0  0  0  0  0  0  0  0  0
   48.3070   31.4230   38.0410 C   0  0  0  0  0  0  0  0  0  0  0  0
   47.5690   32.5760   37.8990 C   0  0  0  0  0  0  0  0  0  0  0  0
   47.5350   33.2590   36.6760 C   0  0  0  0  0  0  0  0  0  0  0  0
   46.9790   34.1700   36.4920 H   0  0  0  0  0  0  0  0  0  0  0  0
   48.2820   32.7080   35.6310 C   0  0  0  0  0  0  0  0  0  0  0  0
   49.0190   31.5480   35.7860 C   0  0  0  0  0  0  0  0  0  0  0  0
   49.9380   30.8940   34.4490 Cl  0  0  0  0  0  0  0  0  0  0  0  0
   49.0370   30.8890   37.0070 C   0  0  0  0  0  0  0  0  0  0  0  0
   49.5990   29.9800   37.1740 H   0  0  0  0  0  0  0  0  0  0  0  0
  1 19  1  0  0  0  0
  1  2  1  0  0  0  0
  2 12  1  0  0  0  0
  3  2  2  0  0  0  0
  3  7  1  0  0  0  0
  4  3  1  0  0  0  0
  5  6  1  0  0  0  0
  5  4  2  0  0  0  0
  6  1  2  0  0  0  0
  8  4  1  0  0  0  0
  9  5  1  0  0  0  0
 10 16  1  0  0  0  0
 10 15  1  0  0  0  0
 11 10  2  0  0  0  0
 12 11  1  0  0  0  0
 12 13  2  0  0  0  0
 13 14  1  0  0  0  0
 14 15  2  0  0  0  0
 14 18  1  0  0  0  0
 17 11  1  0  0  0  0
 19 20  1  0  0  0  0
 21  6  1  0  0  0  0
 23 22  1  0  0  0  0
 24 23  1  0  0  0  0
 24 21  1  0  0  0  0
 25 24  2  0  0  0  0
 26 25  1  0  0  0  0
 27 28  2  0  0  0  0
 27 25  1  0  0  0  0
 28 30  1  0  0  0  0
 29 28  1  0  0  0  0
 30 31  1  0  0  0  0
 30 23  2  0  0  0  0
M  END
>  <minimizedAffinity>
-5.59510851

>  <minimizedRMSD>
3.72624803

$$$$
