
 OpenBabel03252506523D

 32 35  0  0  0  0  0  0  0  0999 V2000
   46.1040   30.7660   45.3080 C   0  0  0  0  0  0  0  0  0  0  0  0
   46.5670   32.0660   45.3730 C   0  0  0  0  0  0  0  0  0  0  0  0
   46.5260   32.8310   46.5330 C   0  0  0  0  0  0  0  0  0  0  0  0
   45.9870   32.2510   47.6910 C   0  0  0  0  0  0  0  0  0  0  0  0
   45.7860   32.6800   48.9730 N   0  0  0  0  0  0  0  0  0  0  0  0
   45.2150   31.6640   49.6710 C   0  0  0  0  0  0  0  0  0  0  0  0
   45.0710   30.6310   48.8190 N   0  0  0  0  0  0  0  0  0  0  0  0
   45.5330   30.9590   47.6000 C   0  0  0  0  0  0  0  0  0  0  0  0
   45.5700   30.1980   46.4620 C   0  0  0  0  0  0  0  0  0  0  0  0
   46.1640   30.2210   44.3660 H   0  0  0  0  0  0  0  0  0  0  0  0
   46.8830   33.8330   46.5830 H   0  0  0  0  0  0  0  0  0  0  0  0
   46.0460   33.6340   49.3120 H   0  0  0  0  0  0  0  0  0  0  0  0
   44.9730   31.7870   50.7000 H   0  0  0  0  0  0  0  0  0  0  0  0
   47.4840   28.0300   47.2620 Cl  0  0  0  0  0  0  0  0  0  0  0  0
   45.8480   27.6990   46.6950 C   0  0  0  0  0  0  0  0  0  0  0  0
   45.0880   28.8230   46.3630 C   0  0  0  0  0  0  0  0  0  0  0  0
   43.7960   28.5810   45.9150 C   0  0  0  0  0  0  0  0  0  0  0  0
   43.1770   29.4340   45.6480 H   0  0  0  0  0  0  0  0  0  0  0  0
   43.2370   27.3230   45.7830 C   0  0  0  0  0  3  0  0  0  0  0  0
   44.0260   26.2610   46.1210 C   0  0  0  0  0  0  0  0  0  0  0  0
   43.3910   24.6450   45.9810 Cl  0  0  0  0  0  0  0  0  0  0  0  0
   45.3050   26.4390   46.5690 C   0  0  0  0  0  0  0  0  0  0  0  0
   45.9650   25.6190   46.8480 H   0  0  0  0  0  0  0  0  0  0  0  0
   47.3480   34.5400   42.7590 C   0  0  0  0  0  0  0  0  0  0  0  0
   48.2300   33.8150   41.9260 C   0  0  0  0  0  0  0  0  0  0  0  0
   48.5500   32.4800   42.2690 C   0  0  0  0  0  0  0  0  0  0  0  0
   47.9740   31.9730   43.4020 N   0  0  0  0  0  0  0  0  0  0  0  0
   47.1330   32.6930   44.1800 C   0  0  0  0  0  0  0  0  0  0  0  0
   46.8360   33.9480   43.8520 N   0  0  0  0  0  0  0  0  0  0  0  0
   47.1400   35.5480   42.4490 H   0  0  0  0  0  0  0  0  0  0  0  0
   48.6980   34.1890   41.0260 H   0  0  0  0  0  0  0  0  0  0  0  0
   49.2030   31.8550   41.7050 H   0  0  0  0  0  0  0  0  0  0  0  0
  1  2  2  0  0  0  0
  1  9  1  0  0  0  0
  2  3  1  0  0  0  0
  3 11  1  0  0  0  0
  3  4  2  0  0  0  0
  4  5  1  0  0  0  0
  5 12  1  0  0  0  0
  5  6  1  0  0  0  0
  6 13  1  0  0  0  0
  7  6  2  0  0  0  0
  8  4  1  0  0  0  0
  8  7  1  0  0  0  0
  9  8  2  0  0  0  0
 10  1  1  0  0  0  0
 15 14  1  0  0  0  0
 16  9  1  0  0  0  0
 16 15  2  0  0  0  0
 17 16  1  0  0  0  0
 18 17  1  0  0  0  0
 19 17  2  0  0  0  0
 19 20  1  0  0  0  0
 20 22  2  0  0  0  0
 21 20  1  0  0  0  0
 22 15  1  0  0  0  0
 22 23  1  0  0  0  0
 24 29  1  0  0  0  0
 25 26  1  0  0  0  0
 25 24  2  0  0  0  0
 26 27  2  0  0  0  0
 27 28  1  0  0  0  0
 28  2  1  0  0  0  0
 29 28  2  0  0  0  0
 30 24  1  0  0  0  0
 31 25  1  0  0  0  0
 32 26  1  0  0  0  0
M  END
>  <minimizedAffinity>
-5.45456886

>  <minimizedRMSD>
2.26306796

$$$$
