
 OpenBabel03242513343D

 22 23  0  0  0  0  0  0  0  0999 V2000
   45.0450   34.4790   45.6590 C   0  0  0  0  0  0  0  0  0  0  0  0
   45.5280   34.8330   44.3910 C   0  0  0  0  0  0  0  0  0  0  0  0
   46.5240   34.0450   43.8310 C   0  0  0  0  0  0  0  0  0  0  0  0
   46.9900   32.9740   44.5220 N   0  0  0  0  0  0  0  0  0  0  0  0
   46.4980   32.6670   45.7400 C   0  0  0  0  0  0  0  0  0  0  0  0
   45.5390   33.4000   46.3130 N   0  0  0  0  0  0  0  0  0  0  0  0
   44.2690   35.0730   46.1190 H   0  0  0  0  0  0  0  0  0  0  0  0
   46.8610   34.3580   42.8570 H   0  0  0  0  0  0  0  0  0  0  0  0
   46.1320   32.4530   48.7650 Cl  0  0  0  0  0  0  0  0  0  0  0  0
   46.9630   31.2890   47.7660 C   0  0  0  0  0  0  0  0  0  0  0  0
   47.0620   31.5010   46.4020 C   0  0  0  0  0  0  0  0  0  0  0  0
   47.7280   30.5540   45.6420 C   0  0  0  0  0  0  0  0  0  0  0  0
   47.8460   30.6540   44.5590 H   0  0  0  0  0  0  0  0  0  0  0  0
   48.3040   29.4030   46.1760 C   0  0  0  0  0  0  0  0  0  0  0  0
   48.1930   29.2070   47.5520 C   0  0  0  0  0  0  0  0  0  0  0  0
   48.9160   27.7640   48.2090 Cl  0  0  0  0  0  0  0  0  0  0  0  0
   47.5300   30.1470   48.3130 C   0  0  0  0  0  0  0  0  0  0  0  0
   47.4730   29.9430   49.3880 H   0  0  0  0  0  0  0  0  0  0  0  0
   44.9120   36.0390   43.7610 C   0  0  0  0  0  0  0  0  0  0  0  0
   44.8010   36.9900   44.7540 F   0  0  0  0  0  0  0  0  0  0  0  0
   43.6770   35.6850   43.2680 F   0  0  0  0  0  0  0  0  0  0  0  0
   45.7630   36.4520   42.7250 F   0  0  0  0  0  0  0  0  0  0  0  0
  1  7  1  0  0  0  0
  1  6  1  0  0  0  0
  2  1  2  0  0  0  0
  3  2  1  0  0  0  0
  3  4  2  0  0  0  0
  4  5  1  0  0  0  0
  5  6  2  0  0  0  0
  5 11  1  0  0  0  0
  8  3  1  0  0  0  0
 10 17  1  0  0  0  0
 10  9  1  0  0  0  0
 11 10  2  0  0  0  0
 12 14  2  0  0  0  0
 12 11  1  0  0  0  0
 13 12  1  0  0  0  0
 14 15  1  0  0  0  0
 15 16  1  0  0  0  0
 15 17  2  0  0  0  0
 17 18  1  0  0  0  0
 19  2  1  0  0  0  0
 19 20  1  0  0  0  0
 21 19  1  0  0  0  0
 22 19  1  0  0  0  0
M  END
>  <minimizedAffinity>
-4.98152542

>  <minimizedRMSD>
2.27328706

$$$$
