
 OpenBabel03252506373D

 45 48  0  0  1  0  0  0  0  0999 V2000
   44.5250   35.4770   45.1420 C   0  0  0  0  0  0  0  0  0  0  0  0
   45.1780   35.4740   43.9020 C   0  0  0  0  0  0  0  0  0  0  0  0
   46.1020   34.5210   43.6450 C   0  0  0  0  0  0  0  0  0  0  0  0
   46.3420   33.6110   44.6210 N   0  0  0  0  0  0  0  0  0  0  0  0
   45.7220   33.6180   45.7910 C   0  0  0  0  0  0  0  0  0  0  0  0
   44.8080   34.5440   46.0710 N   0  0  0  0  0  0  0  0  0  0  0  0
   46.0580   32.6070   46.7560 N   0  0  0  0  0  0  0  0  0  0  0  0
   45.3180   32.3530   47.9420 C   0  0  0  0  0  0  0  0  0  0  0  0
   46.3960   32.0060   48.9540 C   0  0  0  0  0  0  0  0  0  0  0  0
   47.6780   31.9210   48.1870 C   0  0  0  0  0  0  0  0  0  0  0  0
   47.1860   31.7040   46.7560 C   0  0  1  0  0  0  0  0  0  0  0  0
   43.7970   36.2380   45.3270 H   0  0  0  0  0  0  0  0  0  0  0  0
   46.6200   34.4950   42.7000 H   0  0  0  0  0  0  0  0  0  0  0  0
   44.4870   31.7270   48.0200 H   0  0  0  0  0  0  0  0  0  0  0  0
   44.9620   33.3710   48.3050 H   0  0  0  0  0  0  0  0  0  0  0  0
   46.4040   32.6210   49.8480 H   0  0  0  0  0  0  0  0  0  0  0  0
   46.1780   30.9500   49.2930 H   0  0  0  0  0  0  0  0  0  0  0  0
   48.3020   31.0880   48.5460 H   0  0  0  0  0  0  0  0  0  0  0  0
   48.1730   32.9110   48.2840 H   0  0  0  0  0  0  0  0  0  0  0  0
   47.9940   32.0130   46.0530 H   0  0  0  0  0  0  0  0  0  0  0  0
   44.8200   36.5040   42.9630 N   0  0  0  0  0  0  0  0  0  0  0  0
   44.8400   37.5000   43.2450 H   0  0  0  0  0  0  0  0  0  0  0  0
   44.5680   36.0630   42.0560 H   0  0  0  0  0  0  0  0  0  0  0  0
   46.6850   30.0090   46.5680 S   0  0  0  0  0  0  0  0  0  0  0  0
   45.5090   30.4340   43.4750 O   0  0  0  0  0  0  0  0  0  0  0  0
   44.9260   29.9170   44.4420 C   0  0  0  0  0  0  0  0  0  0  0  0
   45.0960   29.7190   45.9030 C   0  0  1  0  0  0  0  0  0  0  0  0
   44.5580   28.3230   46.0900 C   0  0  0  0  0  0  0  0  0  0  0  0
   43.2070   28.5290   45.3970 C   0  0  0  0  0  0  0  0  0  0  0  0
   43.6630   29.2610   44.2210 N   0  0  0  0  0  0  0  0  0  0  0  0
   44.2380   30.3340   46.2850 H   0  0  0  0  0  0  0  0  0  0  0  0
   45.1440   27.5670   45.5290 H   0  0  0  0  0  0  0  0  0  0  0  0
   44.4290   28.1090   47.1530 H   0  0  0  0  0  0  0  0  0  0  0  0
   42.7220   27.5790   45.1680 H   0  0  0  0  0  0  0  0  0  0  0  0
   42.5770   29.1700   46.0470 H   0  0  0  0  0  0  0  0  0  0  0  0
   44.2580   27.2200   42.0500 Cl  0  0  0  0  0  0  0  0  0  0  0  0
   42.9290   28.3580   42.0140 C   0  0  0  0  0  0  0  0  0  0  0  0
   42.7990   29.2090   43.0660 C   0  0  0  0  0  0  0  0  0  0  0  0
   41.7530   30.1070   43.0400 C   0  0  0  0  0  0  0  0  0  0  0  0
   41.5920   30.8230   43.8610 H   0  0  0  0  0  0  0  0  0  0  0  0
   40.8180   30.2050   42.0140 C   0  0  0  0  0  3  0  0  0  0  0  0
   40.9670   29.3240   40.9380 C   0  0  0  0  0  0  0  0  0  0  0  0
   39.8310   29.3860   39.6080 Cl  0  0  0  0  0  0  0  0  0  0  0  0
   42.0160   28.4350   40.9830 C   0  0  0  0  0  0  0  0  0  0  0  0
   42.1270   27.7460   40.1360 H   0  0  0  0  0  0  0  0  0  0  0  0
  1 12  1  0  0  0  0
  1  6  1  0  0  0  0
  2  1  2  0  0  0  0
  3  2  1  0  0  0  0
  3  4  2  0  0  0  0
  4  5  1  0  0  0  0
  5  6  2  0  0  0  0
  5  7  1  0  0  0  0
  7  8  1  0  0  0  0
  8 14  1  0  0  0  0
  8 15  1  0  0  0  0
  8  9  1  0  0  0  0
  9 17  1  0  0  0  0
  9 16  1  0  0  0  0
 10 19  1  0  0  0  0
 10 18  1  0  0  0  0
 10  9  1  0  0  0  0
 11 20  1  6  0  0  0
 11  7  1  0  0  0  0
 11 10  1  0  0  0  0
 13  3  1  0  0  0  0
 21 22  1  0  0  0  0
 21  2  1  0  0  0  0
 23 21  1  0  0  0  0
 24 11  1  0  0  0  0
 25 26  2  0  0  0  0
 26 27  1  0  0  0  0
 27 28  1  0  0  0  0
 27 31  1  1  0  0  0
 27 24  1  0  0  0  0
 28 33  1  0  0  0  0
 29 35  1  0  0  0  0
 29 28  1  0  0  0  0
 30 26  1  0  0  0  0
 30 29  1  0  0  0  0
 32 28  1  0  0  0  0
 34 29  1  0  0  0  0
 37 36  1  0  0  0  0
 37 38  1  0  0  0  0
 38 30  1  0  0  0  0
 39 38  2  0  0  0  0
 39 40  1  0  0  0  0
 41 39  1  0  0  0  0
 42 44  1  0  0  0  0
 42 41  2  0  0  0  0
 43 42  1  0  0  0  0
 44 37  2  0  0  0  0
 45 44  1  0  0  0  0
M  END
>  <minimizedAffinity>
-5.47459793

>  <minimizedRMSD>
0.921927989

$$$$
