
 OpenBabel03242515393D

 37 40  0  0  0  0  0  0  0  0999 V2000
   44.0780   34.8280   41.0740 C   0  0  0  0  0  0  0  0  0  0  0  0
   44.0390   34.0070   39.9610 C   0  0  0  0  0  0  0  0  0  0  0  0
   45.2420   33.4510   39.5280 C   0  0  0  0  0  0  0  0  0  0  0  0
   46.3730   33.7530   40.2260 N   0  0  0  0  0  0  0  0  0  0  0  0
   46.3760   34.5480   41.2940 C   0  0  0  0  0  0  0  0  0  0  0  0
   45.2290   35.0670   41.6930 N   0  0  0  0  0  0  0  0  0  0  0  0
   43.1110   33.8130   39.4610 H   0  0  0  0  0  0  0  0  0  0  0  0
   44.9760   30.5750   40.1640 Cl  0  0  0  0  0  0  0  0  0  0  0  0
   45.1980   31.2250   38.5400 C   0  0  0  0  0  0  0  0  0  0  0  0
   45.3080   32.5860   38.3830 C   0  0  0  0  0  0  0  0  0  0  0  0
   45.4790   32.9980   37.0800 C   0  0  0  0  0  0  0  0  0  0  0  0
   45.5730   34.0520   36.8760 H   0  0  0  0  0  0  0  0  0  0  0  0
   45.5350   32.1050   36.0040 C   0  0  0  0  0  3  0  0  0  0  0  0
   45.4160   30.7430   36.2490 C   0  0  0  0  0  0  0  0  0  0  0  0
   45.4940   29.6760   34.8690 Cl  0  0  0  0  0  0  0  0  0  0  0  0
   45.2440   30.2900   37.5460 C   0  0  0  0  0  0  0  0  0  0  0  0
   45.1520   29.2230   37.7240 H   0  0  0  0  0  0  0  0  0  0  0  0
   42.4980   35.5310   41.6060 S   0  0  0  0  0  0  0  0  0  0  0  0
   40.3700   35.0040   40.0320 C   0  0  0  0  0  0  0  0  0  0  0  0
   41.1470   34.4880   41.0730 C   0  0  0  0  0  0  0  0  0  0  0  0
   40.8620   33.2530   41.6270 C   0  0  0  0  0  0  0  0  0  0  0  0
   39.8040   32.4820   41.1790 C   0  0  0  0  0  0  0  0  0  0  0  0
   39.0230   33.0070   40.1280 C   0  0  0  0  0  0  0  0  0  0  0  0
   39.3000   34.2460   39.5640 C   0  0  0  0  0  0  0  0  0  0  0  0
   38.0190   32.0440   39.8550 O   0  0  0  0  0  0  0  0  0  0  0  0
   37.9950   31.1870   40.9680 C   0  0  0  0  0  0  0  0  0  0  0  0
   39.2960   31.2430   41.5340 O   0  0  0  0  0  0  0  0  0  0  0  0
   40.5570   35.9580   39.5750 H   0  0  0  0  0  0  0  0  0  0  0  0
   41.4970   32.9070   42.4280 H   0  0  0  0  0  0  0  0  0  0  0  0
   38.7090   34.6460   38.7690 H   0  0  0  0  0  0  0  0  0  0  0  0
   37.6680   30.1650   40.7390 H   0  0  0  0  0  0  0  0  0  0  0  0
   37.3190   31.6650   41.7260 H   0  0  0  0  0  0  0  0  0  0  0  0
   47.4990   34.8650   42.0110 O   0  0  0  0  0  0  0  0  0  0  0  0
   48.6780   35.2130   41.3500 C   0  0  0  0  0  0  0  0  0  0  0  0
   49.6900   34.3160   41.5650 F   0  0  0  0  0  0  0  0  0  0  0  0
   48.3280   35.3220   39.9960 F   0  0  0  0  0  0  0  0  0  0  0  0
   49.0900   36.4380   41.8520 F   0  0  0  0  0  0  0  0  0  0  0  0
  1 18  1  0  0  0  0
  1  6  1  0  0  0  0
  2  1  2  0  0  0  0
  3  2  1  0  0  0  0
  3  4  2  0  0  0  0
  4  5  1  0  0  0  0
  5  6  2  0  0  0  0
  5 33  1  0  0  0  0
  7  2  1  0  0  0  0
  9  8  1  0  0  0  0
 10  9  1  0  0  0  0
 10  3  1  0  0  0  0
 11 10  2  0  0  0  0
 12 11  1  0  0  0  0
 13 14  2  0  0  0  0
 13 11  1  0  0  0  0
 14 16  1  0  0  0  0
 15 14  1  0  0  0  0
 16 17  1  0  0  0  0
 16  9  2  0  0  0  0
 19 20  1  0  0  0  0
 20 18  1  0  0  0  0
 20 21  2  0  0  0  0
 21 29  1  0  0  0  0
 22 27  1  0  0  0  0
 22 21  1  0  0  0  0
 23 22  2  0  0  0  0
 24 19  2  0  0  0  0
 24 23  1  0  0  0  0
 25 23  1  0  0  0  0
 25 26  1  0  0  0  0
 26 27  1  0  0  0  0
 26 32  1  0  0  0  0
 28 19  1  0  0  0  0
 30 24  1  0  0  0  0
 31 26  1  0  0  0  0
 34 35  1  0  0  0  0
 34 37  1  0  0  0  0
 34 33  1  0  0  0  0
 36 34  1  0  0  0  0
M  END
>  <minimizedAffinity>
-6.09022951

>  <minimizedRMSD>
0.648346484

$$$$
