
 OpenBabel03252506523D

 32 35  0  0  0  0  0  0  0  0999 V2000
   46.7740   32.6540   44.8570 C   0  0  0  0  0  0  0  0  0  0  0  0
   45.8980   33.0430   45.8520 C   0  0  0  0  0  0  0  0  0  0  0  0
   45.1220   34.1930   45.7760 C   0  0  0  0  0  0  0  0  0  0  0  0
   45.2360   34.9960   44.6320 C   0  0  0  0  0  0  0  0  0  0  0  0
   44.6540   36.1610   44.2160 N   0  0  0  0  0  0  0  0  0  0  0  0
   45.1640   36.4740   42.9960 C   0  0  0  0  0  0  0  0  0  0  0  0
   46.0470   35.5070   42.6780 N   0  0  0  0  0  0  0  0  0  0  0  0
   46.1140   34.5890   43.6580 C   0  0  0  0  0  0  0  0  0  0  0  0
   46.8820   33.4580   43.7240 C   0  0  0  0  0  0  0  0  0  0  0  0
   47.3550   31.7410   44.9790 H   0  0  0  0  0  0  0  0  0  0  0  0
   44.4470   34.4910   46.5440 H   0  0  0  0  0  0  0  0  0  0  0  0
   43.9430   36.6850   44.7760 H   0  0  0  0  0  0  0  0  0  0  0  0
   44.8440   37.3510   42.4870 H   0  0  0  0  0  0  0  0  0  0  0  0
   45.7560   31.7830   41.5040 Cl  0  0  0  0  0  0  0  0  0  0  0  0
   47.4570   32.2400   41.5880 C   0  0  0  0  0  0  0  0  0  0  0  0
   47.8160   33.0230   42.6890 C   0  0  0  0  0  0  0  0  0  0  0  0
   49.1510   33.3940   42.7710 C   0  0  0  0  0  0  0  0  0  0  0  0
   49.4640   34.0020   43.6150 H   0  0  0  0  0  0  0  0  0  0  0  0
   50.1190   33.0380   41.8480 C   0  0  0  0  0  3  0  0  0  0  0  0
   49.7120   32.2730   40.7930 C   0  0  0  0  0  0  0  0  0  0  0  0
   50.8750   31.7880   39.5910 Cl  0  0  0  0  0  0  0  0  0  0  0  0
   48.4090   31.8790   40.6590 C   0  0  0  0  0  0  0  0  0  0  0  0
   48.0470   31.2690   39.8350 H   0  0  0  0  0  0  0  0  0  0  0  0
   45.6750   32.0270   49.3850 C   0  0  0  0  0  0  0  0  0  0  0  0
   45.4960   30.6290   49.2750 C   0  0  0  0  0  0  0  0  0  0  0  0
   45.4540   30.0460   47.9870 C   0  0  0  0  0  0  0  0  0  0  0  0
   45.5910   30.8880   46.9170 N   0  0  0  0  0  0  0  0  0  0  0  0
   45.7610   32.2230   47.0540 C   0  0  0  0  0  0  0  0  0  0  0  0
   45.8000   32.7660   48.2690 N   0  0  0  0  0  0  0  0  0  0  0  0
   45.6990   32.4140   50.3870 H   0  0  0  0  0  0  0  0  0  0  0  0
   45.3860   29.9410   50.1020 H   0  0  0  0  0  0  0  0  0  0  0  0
   45.3240   29.0050   47.8030 H   0  0  0  0  0  0  0  0  0  0  0  0
  1 10  1  0  0  0  0
  1  2  1  0  0  0  0
  2 28  1  0  0  0  0
  3  2  2  0  0  0  0
  3 11  1  0  0  0  0
  4  3  1  0  0  0  0
  5  4  1  0  0  0  0
  5 12  1  0  0  0  0
  6  5  1  0  0  0  0
  7  6  2  0  0  0  0
  7  8  1  0  0  0  0
  8  9  1  0  0  0  0
  8  4  2  0  0  0  0
  9  1  2  0  0  0  0
 13  6  1  0  0  0  0
 14 15  1  0  0  0  0
 15 16  1  0  0  0  0
 16 17  2  0  0  0  0
 16  9  1  0  0  0  0
 17 18  1  0  0  0  0
 19 17  1  0  0  0  0
 20 19  2  0  0  0  0
 21 20  1  0  0  0  0
 22 20  1  0  0  0  0
 22 15  2  0  0  0  0
 23 22  1  0  0  0  0
 24 30  1  0  0  0  0
 25 24  1  0  0  0  0
 25 31  1  0  0  0  0
 26 25  2  0  0  0  0
 27 28  2  0  0  0  0
 27 26  1  0  0  0  0
 28 29  1  0  0  0  0
 29 24  2  0  0  0  0
 32 26  1  0  0  0  0
M  END
>  <minimizedAffinity>
-6.28035784

>  <minimizedRMSD>
6.30943298

$$$$
