
 OpenBabel03242514283D

 29 31  0  0  0  0  0  0  0  0999 V2000
   36.9650   27.7890   43.8610 C   0  0  0  0  0  0  0  0  0  0  0  0
   36.9930   26.6100   43.0840 C   0  0  0  0  0  0  0  0  0  0  0  0
   37.4950   26.6890   41.7800 C   0  0  0  0  0  0  0  0  0  0  0  0
   37.9190   27.9010   41.3580 N   0  0  0  0  0  0  0  0  0  0  0  0
   37.8880   29.0090   42.1010 C   0  0  0  0  0  0  0  0  0  0  0  0
   37.4070   28.9630   43.3670 N   0  0  0  0  0  0  0  0  0  0  0  0
   36.5710   27.6870   44.8610 H   0  0  0  0  0  0  0  0  0  0  0  0
   36.6430   25.6930   43.4830 H   0  0  0  0  0  0  0  0  0  0  0  0
   35.9070   30.6930   40.5120 Cl  0  0  0  0  0  0  0  0  0  0  0  0
   37.5530   31.1330   40.8700 C   0  0  0  0  0  0  0  0  0  0  0  0
   38.3550   30.2850   41.6010 C   0  0  0  0  0  0  0  0  0  0  0  0
   39.6460   30.7440   41.8230 C   0  0  0  0  0  0  0  0  0  0  0  0
   40.1460   31.9450   41.3710 C   0  0  0  0  0  0  0  0  0  0  0  0
   39.3040   32.7510   40.6460 C   0  0  0  0  0  0  0  0  0  0  0  0
   40.0050   34.2660   40.1010 Cl  0  0  0  0  0  0  0  0  0  0  0  0
   38.0160   32.3560   40.3940 C   0  0  0  0  0  0  0  0  0  0  0  0
   40.2940   30.0850   42.4000 H   0  0  0  0  0  0  0  0  0  0  0  0
   41.1750   32.1770   41.6170 H   0  0  0  0  0  0  0  0  0  0  0  0
   37.3950   33.0300   39.8170 H   0  0  0  0  0  0  0  0  0  0  0  0
   39.9810   25.1450   42.0650 Cl  0  0  0  0  0  0  0  0  0  0  0  0
   38.6850   24.7290   40.9600 C   0  0  0  0  0  0  0  0  0  0  0  0
   37.5620   25.5240   40.9090 C   0  0  0  0  0  0  0  0  0  0  0  0
   36.5890   25.1490   40.0320 C   0  0  0  0  0  0  0  0  0  0  0  0
   35.6910   25.7390   39.9530 H   0  0  0  0  0  0  0  0  0  0  0  0
   36.7300   24.0250   39.2370 C   0  0  0  0  0  3  0  0  0  0  0  0
   37.8420   23.2260   39.2780 C   0  0  0  0  0  0  0  0  0  0  0  0
   37.9690   21.8180   38.2530 Cl  0  0  0  0  0  0  0  0  0  0  0  0
   38.8190   23.6100   40.1660 C   0  0  0  0  0  0  0  0  0  0  0  0
   39.7350   23.0040   40.2420 H   0  0  0  0  0  0  0  0  0  0  0  0
  1  7  1  0  0  0  0
  2  8  1  0  0  0  0
  2  1  2  0  0  0  0
  3  2  1  0  0  0  0
  4  3  2  0  0  0  0
  4  5  1  0  0  0  0
  5  6  2  0  0  0  0
  6  1  1  0  0  0  0
  9 10  1  0  0  0  0
 10 11  1  0  0  0  0
 11 12  2  0  0  0  0
 11  5  1  0  0  0  0
 12 17  1  0  0  0  0
 13 18  1  0  0  0  0
 13 12  1  0  0  0  0
 14 13  2  0  0  0  0
 15 14  1  0  0  0  0
 16 14  1  0  0  0  0
 16 10  2  0  0  0  0
 19 16  1  0  0  0  0
 21 20  1  0  0  0  0
 22 21  1  0  0  0  0
 22  3  1  0  0  0  0
 23 22  2  0  0  0  0
 24 23  1  0  0  0  0
 25 26  2  0  0  0  0
 25 23  1  0  0  0  0
 26 28  1  0  0  0  0
 27 26  1  0  0  0  0
 28 29  1  0  0  0  0
 28 21  2  0  0  0  0
M  END
>  <minimizedAffinity>
-5.51167393

$$$$

 OpenBabel03242514283D

 29 31  0  0  0  0  0  0  0  0999 V2000
   36.9390   27.6370   43.8540 C   0  0  0  0  0  0  0  0  0  0  0  0
   37.3880   28.9120   43.4430 C   0  0  0  0  0  0  0  0  0  0  0  0
   37.8960   29.0490   42.1470 C   0  0  0  0  0  0  0  0  0  0  0  0
   37.9190   27.9380   41.3760 N   0  0  0  0  0  0  0  0  0  0  0  0
   37.4920   26.7380   41.7740 C   0  0  0  0  0  0  0  0  0  0  0  0
   36.9950   26.5760   43.0250 N   0  0  0  0  0  0  0  0  0  0  0  0
   36.5550   27.5730   44.8610 H   0  0  0  0  0  0  0  0  0  0  0  0
   37.3390   29.7390   44.1040 H   0  0  0  0  0  0  0  0  0  0  0  0
   39.8540   24.8420   42.1100 Cl  0  0  0  0  0  0  0  0  0  0  0  0
   38.5550   24.6510   40.9660 C   0  0  0  0  0  0  0  0  0  0  0  0
   37.5390   25.5780   40.9090 C   0  0  0  0  0  0  0  0  0  0  0  0
   36.5610   25.3190   39.9590 C   0  0  0  0  0  0  0  0  0  0  0  0
   36.5540   24.2350   39.1080 C   0  0  0  0  0  0  0  0  0  0  0  0
   37.5910   23.3430   39.2070 C   0  0  0  0  0  0  0  0  0  0  0  0
   37.5200   21.9870   38.0940 Cl  0  0  0  0  0  0  0  0  0  0  0  0
   38.5890   23.5420   40.1270 C   0  0  0  0  0  0  0  0  0  0  0  0
   35.7480   26.0430   39.9000 H   0  0  0  0  0  0  0  0  0  0  0  0
   35.7260   24.1570   38.4130 H   0  0  0  0  0  0  0  0  0  0  0  0
   39.3830   22.8070   40.1620 H   0  0  0  0  0  0  0  0  0  0  0  0
   35.8810   30.5530   40.6230 Cl  0  0  0  0  0  0  0  0  0  0  0  0
   37.5170   31.1120   40.9100 C   0  0  0  0  0  0  0  0  0  0  0  0
   38.3800   30.3250   41.6390 C   0  0  0  0  0  0  0  0  0  0  0  0
   39.6380   30.8140   41.8300 C   0  0  0  0  0  0  0  0  0  0  0  0
   40.3510   30.2350   42.3940 H   0  0  0  0  0  0  0  0  0  0  0  0
   40.0200   32.0390   41.3130 C   0  0  0  0  0  3  0  0  0  0  0  0
   39.1720   32.8320   40.5870 C   0  0  0  0  0  0  0  0  0  0  0  0
   39.7060   34.3700   39.9580 Cl  0  0  0  0  0  0  0  0  0  0  0  0
   37.9050   32.3330   40.3990 C   0  0  0  0  0  0  0  0  0  0  0  0
   37.1800   32.9270   39.8220 H   0  0  0  0  0  0  0  0  0  0  0  0
  1  7  1  0  0  0  0
  2  1  1  0  0  0  0
  2  8  1  0  0  0  0
  3  2  2  0  0  0  0
  4  5  2  0  0  0  0
  4  3  1  0  0  0  0
  5  6  1  0  0  0  0
  6  1  2  0  0  0  0
 10  9  1  0  0  0  0
 11 10  1  0  0  0  0
 11  5  1  0  0  0  0
 12 11  2  0  0  0  0
 13 14  2  0  0  0  0
 13 12  1  0  0  0  0
 14 16  1  0  0  0  0
 15 14  1  0  0  0  0
 16 19  1  0  0  0  0
 16 10  2  0  0  0  0
 17 12  1  0  0  0  0
 18 13  1  0  0  0  0
 20 21  1  0  0  0  0
 21 22  1  0  0  0  0
 22 23  2  0  0  0  0
 22  3  1  0  0  0  0
 23 24  1  0  0  0  0
 25 23  1  0  0  0  0
 26 25  2  0  0  0  0
 27 26  1  0  0  0  0
 28 26  1  0  0  0  0
 28 21  2  0  0  0  0
 29 28  1  0  0  0  0
M  END
>  <minimizedAffinity>
-5.50227118

$$$$

 OpenBabel03242514283D

 29 31  0  0  0  0  0  0  0  0999 V2000
   35.8360   30.5870   40.8460 C   0  0  0  0  0  0  0  0  0  0  0  0
   36.9590   31.4110   40.6110 C   0  0  0  0  0  0  0  0  0  0  0  0
   38.2000   30.7960   40.4080 C   0  0  0  0  0  0  0  0  0  0  0  0
   38.2290   29.4450   40.4510 N   0  0  0  0  0  0  0  0  0  0  0  0
   37.1610   28.6760   40.6740 C   0  0  0  0  0  0  0  0  0  0  0  0
   35.9470   29.2450   40.8750 N   0  0  0  0  0  0  0  0  0  0  0  0
   34.8980   31.1000   40.9990 H   0  0  0  0  0  0  0  0  0  0  0  0
   36.8600   32.4660   40.5910 H   0  0  0  0  0  0  0  0  0  0  0  0
   37.0850   27.3460   43.4140 Cl  0  0  0  0  0  0  0  0  0  0  0  0
   37.2230   26.5180   41.8890 C   0  0  0  0  0  0  0  0  0  0  0  0
   37.2460   27.2310   40.7110 C   0  0  0  0  0  0  0  0  0  0  0  0
   37.3580   26.4620   39.5610 C   0  0  0  0  0  0  0  0  0  0  0  0
   37.4450   25.0890   39.5350 C   0  0  0  0  0  0  0  0  0  0  0  0
   37.4190   24.4280   40.7370 C   0  0  0  0  0  0  0  0  0  0  0  0
   37.5330   22.6780   40.6310 Cl  0  0  0  0  0  0  0  0  0  0  0  0
   37.3080   25.1290   41.9100 C   0  0  0  0  0  0  0  0  0  0  0  0
   37.3780   27.0120   38.6200 H   0  0  0  0  0  0  0  0  0  0  0  0
   37.5290   24.6160   38.5640 H   0  0  0  0  0  0  0  0  0  0  0  0
   37.2910   24.5580   42.8290 H   0  0  0  0  0  0  0  0  0  0  0  0
   39.9200   31.0860   42.7740 Cl  0  0  0  0  0  0  0  0  0  0  0  0
   40.2890   31.7630   41.2000 C   0  0  0  0  0  0  0  0  0  0  0  0
   39.4100   31.5650   40.1580 C   0  0  0  0  0  0  0  0  0  0  0  0
   39.7520   32.1150   38.9600 C   0  0  0  0  0  0  0  0  0  0  0  0
   39.0970   31.9890   38.1130 H   0  0  0  0  0  0  0  0  0  0  0  0
   40.9250   32.8340   38.8050 C   0  0  0  0  0  3  0  0  0  0  0  0
   41.8070   33.0390   39.8320 C   0  0  0  0  0  0  0  0  0  0  0  0
   43.2720   33.9540   39.5830 Cl  0  0  0  0  0  0  0  0  0  0  0  0
   41.4560   32.4810   41.0390 C   0  0  0  0  0  0  0  0  0  0  0  0
   42.1280   32.6130   41.9010 H   0  0  0  0  0  0  0  0  0  0  0  0
  1  6  1  0  0  0  0
  1  7  1  0  0  0  0
  2  1  2  0  0  0  0
  3  4  2  0  0  0  0
  3  2  1  0  0  0  0
  4  5  1  0  0  0  0
  5 11  1  0  0  0  0
  5  6  2  0  0  0  0
  8  2  1  0  0  0  0
 10 16  1  0  0  0  0
 10  9  1  0  0  0  0
 11 10  2  0  0  0  0
 12 11  1  0  0  0  0
 13 12  2  0  0  0  0
 13 14  1  0  0  0  0
 14 16  2  0  0  0  0
 15 14  1  0  0  0  0
 16 19  1  0  0  0  0
 17 12  1  0  0  0  0
 18 13  1  0  0  0  0
 21 20  1  0  0  0  0
 22  3  1  0  0  0  0
 22 21  2  0  0  0  0
 23 22  1  0  0  0  0
 24 23  1  0  0  0  0
 25 23  2  0  0  0  0
 25 26  1  0  0  0  0
 26 28  2  0  0  0  0
 27 26  1  0  0  0  0
 28 21  1  0  0  0  0
 28 29  1  0  0  0  0
M  END
>  <minimizedAffinity>
-5.49018145

$$$$

 OpenBabel03242514283D

 29 31  0  0  0  0  0  0  0  0999 V2000
   37.3300   32.6340   40.1030 C   0  0  0  0  0  0  0  0  0  0  0  0
   36.9610   31.3230   40.4760 C   0  0  0  0  0  0  0  0  0  0  0  0
   37.9180   30.3080   40.3580 C   0  0  0  0  0  0  0  0  0  0  0  0
   39.1360   30.6640   39.8910 N   0  0  0  0  0  0  0  0  0  0  0  0
   39.4730   31.9060   39.5420 C   0  0  0  0  0  0  0  0  0  0  0  0
   38.5670   32.9090   39.6450 N   0  0  0  0  0  0  0  0  0  0  0  0
   36.5640   33.3880   40.2090 H   0  0  0  0  0  0  0  0  0  0  0  0
   35.9850   31.1180   40.8350 H   0  0  0  0  0  0  0  0  0  0  0  0
   41.7080   32.1780   41.5960 Cl  0  0  0  0  0  0  0  0  0  0  0  0
   41.8810   32.3850   39.8760 C   0  0  0  0  0  0  0  0  0  0  0  0
   40.7930   32.2360   39.0460 C   0  0  0  0  0  0  0  0  0  0  0  0
   41.0540   32.4250   37.6960 C   0  0  0  0  0  0  0  0  0  0  0  0
   42.2860   32.7410   37.1670 C   0  0  0  0  0  0  0  0  0  0  0  0
   43.3350   32.8800   38.0390 C   0  0  0  0  0  0  0  0  0  0  0  0
   44.8760   33.2830   37.2980 Cl  0  0  0  0  0  0  0  0  0  0  0  0
   43.1430   32.7040   39.3860 C   0  0  0  0  0  0  0  0  0  0  0  0
   40.2030   32.3090   37.0240 H   0  0  0  0  0  0  0  0  0  0  0  0
   42.3470   32.8600   36.0920 H   0  0  0  0  0  0  0  0  0  0  0  0
   44.0060   32.8250   40.0290 H   0  0  0  0  0  0  0  0  0  0  0  0
   38.6660   29.6290   43.1200 Cl  0  0  0  0  0  0  0  0  0  0  0  0
   37.9360   28.5020   41.9920 C   0  0  0  0  0  0  0  0  0  0  0  0
   37.6260   28.9280   40.7200 C   0  0  0  0  0  0  0  0  0  0  0  0
   37.0600   28.0070   39.8910 C   0  0  0  0  0  0  0  0  0  0  0  0
   36.7980   28.2910   38.8840 H   0  0  0  0  0  0  0  0  0  0  0  0
   36.8140   26.7120   40.3130 C   0  0  0  0  0  3  0  0  0  0  0  0
   37.1180   26.2760   41.5740 C   0  0  0  0  0  0  0  0  0  0  0  0
   36.7870   24.6310   42.0560 Cl  0  0  0  0  0  0  0  0  0  0  0  0
   37.6880   27.2100   42.4060 C   0  0  0  0  0  0  0  0  0  0  0  0
   37.9540   26.9160   43.4330 H   0  0  0  0  0  0  0  0  0  0  0  0
  1  7  1  0  0  0  0
  1  2  1  0  0  0  0
  2  8  1  0  0  0  0
  3  2  2  0  0  0  0
  3 22  1  0  0  0  0
  4  3  1  0  0  0  0
  5  6  1  0  0  0  0
  5  4  2  0  0  0  0
  6  1  2  0  0  0  0
 10  9  1  0  0  0  0
 11  5  1  0  0  0  0
 11 10  2  0  0  0  0
 12 11  1  0  0  0  0
 13 12  2  0  0  0  0
 13 14  1  0  0  0  0
 14 16  2  0  0  0  0
 15 14  1  0  0  0  0
 16 10  1  0  0  0  0
 16 19  1  0  0  0  0
 17 12  1  0  0  0  0
 18 13  1  0  0  0  0
 21 28  1  0  0  0  0
 21 20  1  0  0  0  0
 22 21  2  0  0  0  0
 23 25  2  0  0  0  0
 23 22  1  0  0  0  0
 24 23  1  0  0  0  0
 25 26  1  0  0  0  0
 26 27  1  0  0  0  0
 26 28  2  0  0  0  0
 28 29  1  0  0  0  0
M  END
>  <minimizedAffinity>
-5.45543051

$$$$

 OpenBabel03242514283D

 29 31  0  0  0  0  0  0  0  0999 V2000
   37.6820   33.4540   39.9470 C   0  0  0  0  0  0  0  0  0  0  0  0
   37.2900   32.1730   40.3930 C   0  0  0  0  0  0  0  0  0  0  0  0
   38.2900   31.2310   40.6620 C   0  0  0  0  0  0  0  0  0  0  0  0
   39.5700   31.6240   40.4710 N   0  0  0  0  0  0  0  0  0  0  0  0
   39.9280   32.8370   40.0490 C   0  0  0  0  0  0  0  0  0  0  0  0
   38.9820   33.7690   39.7810 N   0  0  0  0  0  0  0  0  0  0  0  0
   36.8810   34.1510   39.7510 H   0  0  0  0  0  0  0  0  0  0  0  0
   36.2650   31.9360   40.5200 H   0  0  0  0  0  0  0  0  0  0  0  0
   41.1300   32.3830   37.2850 Cl  0  0  0  0  0  0  0  0  0  0  0  0
   41.9680   33.0500   38.6580 C   0  0  0  0  0  0  0  0  0  0  0  0
   41.3150   33.2080   39.8600 C   0  0  0  0  0  0  0  0  0  0  0  0
   42.0860   33.7490   40.8800 C   0  0  0  0  0  0  0  0  0  0  0  0
   43.4080   34.1180   40.7600 C   0  0  0  0  0  0  0  0  0  0  0  0
   44.0090   33.9370   39.5410 C   0  0  0  0  0  0  0  0  0  0  0  0
   45.6940   34.4280   39.4580 Cl  0  0  0  0  0  0  0  0  0  0  0  0
   43.3020   33.4080   38.4920 C   0  0  0  0  0  0  0  0  0  0  0  0
   41.5850   33.8820   41.8390 H   0  0  0  0  0  0  0  0  0  0  0  0
   43.8890   34.5280   41.6400 H   0  0  0  0  0  0  0  0  0  0  0  0
   43.8260   33.2880   37.5520 H   0  0  0  0  0  0  0  0  0  0  0  0
   37.9800   29.2750   38.4890 Cl  0  0  0  0  0  0  0  0  0  0  0  0
   37.8110   28.8900   40.1910 C   0  0  0  0  0  0  0  0  0  0  0  0
   37.9780   29.8870   41.1260 C   0  0  0  0  0  0  0  0  0  0  0  0
   37.8360   29.5260   42.4320 C   0  0  0  0  0  0  0  0  0  0  0  0
   37.9560   30.2700   43.2030 H   0  0  0  0  0  0  0  0  0  0  0  0
   37.5380   28.2230   42.7920 C   0  0  0  0  0  3  0  0  0  0  0  0
   37.3700   27.2230   41.8710 C   0  0  0  0  0  0  0  0  0  0  0  0
   36.9960   25.5950   42.3790 Cl  0  0  0  0  0  0  0  0  0  0  0  0
   37.5150   27.5940   40.5560 C   0  0  0  0  0  0  0  0  0  0  0  0
   37.3910   26.8310   39.7710 H   0  0  0  0  0  0  0  0  0  0  0  0
  1  2  1  0  0  0  0
  2  8  1  0  0  0  0
  2  3  2  0  0  0  0
  3 22  1  0  0  0  0
  4  3  1  0  0  0  0
  5  4  2  0  0  0  0
  6  1  2  0  0  0  0
  6  5  1  0  0  0  0
  7  1  1  0  0  0  0
  9 10  1  0  0  0  0
 10 11  1  0  0  0  0
 11  5  1  0  0  0  0
 11 12  2  0  0  0  0
 12 17  1  0  0  0  0
 13 12  1  0  0  0  0
 13 18  1  0  0  0  0
 14 13  2  0  0  0  0
 15 14  1  0  0  0  0
 16 10  2  0  0  0  0
 16 14  1  0  0  0  0
 19 16  1  0  0  0  0
 20 21  1  0  0  0  0
 21 28  2  0  0  0  0
 21 22  1  0  0  0  0
 22 23  2  0  0  0  0
 23 25  1  0  0  0  0
 23 24  1  0  0  0  0
 26 27  1  0  0  0  0
 26 25  2  0  0  0  0
 28 26  1  0  0  0  0
 29 28  1  0  0  0  0
M  END
>  <minimizedAffinity>
-5.44138765

$$$$

 OpenBabel03242514283D

 29 31  0  0  0  0  0  0  0  0999 V2000
   36.9980   32.2460   40.1130 C   0  0  0  0  0  0  0  0  0  0  0  0
   38.2300   32.6730   39.5720 C   0  0  0  0  0  0  0  0  0  0  0  0
   39.2540   31.7300   39.4320 C   0  0  0  0  0  0  0  0  0  0  0  0
   38.9830   30.4660   39.8280 N   0  0  0  0  0  0  0  0  0  0  0  0
   37.8140   30.0730   40.3380 C   0  0  0  0  0  0  0  0  0  0  0  0
   36.8040   30.9660   40.4860 N   0  0  0  0  0  0  0  0  0  0  0  0
   36.2340   33.0040   40.2050 H   0  0  0  0  0  0  0  0  0  0  0  0
   38.3710   33.6830   39.2820 H   0  0  0  0  0  0  0  0  0  0  0  0
   38.4000   29.3660   43.2440 Cl  0  0  0  0  0  0  0  0  0  0  0  0
   37.8010   28.2670   42.0340 C   0  0  0  0  0  0  0  0  0  0  0  0
   37.5730   28.7050   40.7490 C   0  0  0  0  0  0  0  0  0  0  0  0
   37.0970   27.7390   39.8740 C   0  0  0  0  0  0  0  0  0  0  0  0
   36.8520   26.4250   40.2070 C   0  0  0  0  0  0  0  0  0  0  0  0
   37.0970   26.0410   41.5000 C   0  0  0  0  0  0  0  0  0  0  0  0
   36.7640   24.3530   41.8560 Cl  0  0  0  0  0  0  0  0  0  0  0  0
   37.5680   26.9490   42.4140 C   0  0  0  0  0  0  0  0  0  0  0  0
   36.9110   28.0700   38.8520 H   0  0  0  0  0  0  0  0  0  0  0  0
   36.4810   25.7770   39.4220 H   0  0  0  0  0  0  0  0  0  0  0  0
   37.7440   26.5920   43.4210 H   0  0  0  0  0  0  0  0  0  0  0  0
   41.3320   32.1040   41.4780 Cl  0  0  0  0  0  0  0  0  0  0  0  0
   41.6040   32.2800   39.7550 C   0  0  0  0  0  0  0  0  0  0  0  0
   40.5560   32.0810   38.8840 C   0  0  0  0  0  0  0  0  0  0  0  0
   40.8300   32.2320   37.5570 C   0  0  0  0  0  0  0  0  0  0  0  0
   40.0430   32.0870   36.8350 H   0  0  0  0  0  0  0  0  0  0  0  0
   42.0990   32.5670   37.1170 C   0  0  0  0  0  3  0  0  0  0  0  0
   43.1480   32.7680   37.9730 C   0  0  0  0  0  0  0  0  0  0  0  0
   44.7290   33.1900   37.3640 Cl  0  0  0  0  0  0  0  0  0  0  0  0
   42.8660   32.6140   39.3090 C   0  0  0  0  0  0  0  0  0  0  0  0
   43.6720   32.7630   40.0440 H   0  0  0  0  0  0  0  0  0  0  0  0
  1  7  1  0  0  0  0
  1  6  1  0  0  0  0
  2  1  2  0  0  0  0
  3  2  1  0  0  0  0
  3  4  2  0  0  0  0
  4  5  1  0  0  0  0
  5  6  2  0  0  0  0
  5 11  1  0  0  0  0
  8  2  1  0  0  0  0
 10 16  1  0  0  0  0
 10  9  1  0  0  0  0
 11 10  2  0  0  0  0
 12 13  2  0  0  0  0
 12 11  1  0  0  0  0
 13 14  1  0  0  0  0
 14 15  1  0  0  0  0
 14 16  2  0  0  0  0
 16 19  1  0  0  0  0
 17 12  1  0  0  0  0
 18 13  1  0  0  0  0
 21 20  1  0  0  0  0
 22  3  1  0  0  0  0
 22 21  2  0  0  0  0
 23 22  1  0  0  0  0
 24 23  1  0  0  0  0
 25 23  2  0  0  0  0
 25 26  1  0  0  0  0
 26 28  2  0  0  0  0
 27 26  1  0  0  0  0
 28 21  1  0  0  0  0
 28 29  1  0  0  0  0
M  END
>  <minimizedAffinity>
-5.41905165

$$$$

 OpenBabel03242514283D

 29 31  0  0  0  0  0  0  0  0999 V2000
   37.8940   32.0250   40.5780 C   0  0  0  0  0  0  0  0  0  0  0  0
   37.0710   31.6150   39.5060 C   0  0  0  0  0  0  0  0  0  0  0  0
   37.0640   30.2590   39.1590 C   0  0  0  0  0  0  0  0  0  0  0  0
   37.8530   29.4360   39.8850 N   0  0  0  0  0  0  0  0  0  0  0  0
   38.6270   29.8350   40.8960 C   0  0  0  0  0  0  0  0  0  0  0  0
   38.6540   31.1410   41.2540 N   0  0  0  0  0  0  0  0  0  0  0  0
   37.8710   33.0790   40.8150 H   0  0  0  0  0  0  0  0  0  0  0  0
   36.4770   32.3190   38.9810 H   0  0  0  0  0  0  0  0  0  0  0  0
   37.4020   28.5510   43.3740 Cl  0  0  0  0  0  0  0  0  0  0  0  0
   39.0140   28.2710   42.7780 C   0  0  0  0  0  0  0  0  0  0  0  0
   39.4560   28.9110   41.6420 C   0  0  0  0  0  0  0  0  0  0  0  0
   40.7570   28.6080   41.2650 C   0  0  0  0  0  0  0  0  0  0  0  0
   41.5910   27.7410   41.9350 C   0  0  0  0  0  0  0  0  0  0  0  0
   41.1010   27.1310   43.0620 C   0  0  0  0  0  0  0  0  0  0  0  0
   42.2170   26.0390   43.8670 Cl  0  0  0  0  0  0  0  0  0  0  0  0
   39.8230   27.3870   43.4870 C   0  0  0  0  0  0  0  0  0  0  0  0
   41.1220   29.1070   40.3670 H   0  0  0  0  0  0  0  0  0  0  0  0
   42.5850   27.5980   41.5290 H   0  0  0  0  0  0  0  0  0  0  0  0
   39.4870   26.8780   44.3810 H   0  0  0  0  0  0  0  0  0  0  0  0
   34.4810   29.1620   40.0360 Cl  0  0  0  0  0  0  0  0  0  0  0  0
   35.0140   29.2100   38.3660 C   0  0  0  0  0  0  0  0  0  0  0  0
   36.2460   29.7470   38.0680 C   0  0  0  0  0  0  0  0  0  0  0  0
   36.6050   29.7570   36.7540 C   0  0  0  0  0  0  0  0  0  0  0  0
   37.5600   30.1670   36.4680 H   0  0  0  0  0  0  0  0  0  0  0  0
   35.7680   29.2500   35.7750 C   0  0  0  0  0  3  0  0  0  0  0  0
   34.5410   28.7130   36.0580 C   0  0  0  0  0  0  0  0  0  0  0  0
   33.5240   28.0860   34.7850 Cl  0  0  0  0  0  0  0  0  0  0  0  0
   34.1850   28.7060   37.3860 C   0  0  0  0  0  0  0  0  0  0  0  0
   33.2090   28.2860   37.6730 H   0  0  0  0  0  0  0  0  0  0  0  0
  1  7  1  0  0  0  0
  1  6  1  0  0  0  0
  2  1  2  0  0  0  0
  3  2  1  0  0  0  0
  3  4  2  0  0  0  0
  4  5  1  0  0  0  0
  5  6  2  0  0  0  0
  5 11  1  0  0  0  0
  8  2  1  0  0  0  0
 10  9  1  0  0  0  0
 10 16  1  0  0  0  0
 11 10  2  0  0  0  0
 12 11  1  0  0  0  0
 12 13  2  0  0  0  0
 13 14  1  0  0  0  0
 14 16  2  0  0  0  0
 14 15  1  0  0  0  0
 16 19  1  0  0  0  0
 17 12  1  0  0  0  0
 18 13  1  0  0  0  0
 21 20  1  0  0  0  0
 22 21  1  0  0  0  0
 22  3  1  0  0  0  0
 23 22  2  0  0  0  0
 24 23  1  0  0  0  0
 25 26  2  0  0  0  0
 25 23  1  0  0  0  0
 26 28  1  0  0  0  0
 27 26  1  0  0  0  0
 28 29  1  0  0  0  0
 28 21  2  0  0  0  0
M  END
>  <minimizedAffinity>
-5.35334826

$$$$

 OpenBabel03242514283D

 29 31  0  0  0  0  0  0  0  0999 V2000
   36.1690   30.7830   41.1670 C   0  0  0  0  0  0  0  0  0  0  0  0
   37.2310   31.5300   40.6120 C   0  0  0  0  0  0  0  0  0  0  0  0
   38.3120   30.8350   40.0590 C   0  0  0  0  0  0  0  0  0  0  0  0
   38.2580   29.4840   40.1000 N   0  0  0  0  0  0  0  0  0  0  0  0
   37.2490   28.7880   40.6270 C   0  0  0  0  0  0  0  0  0  0  0  0
   36.1890   29.4360   41.1690 N   0  0  0  0  0  0  0  0  0  0  0  0
   35.3540   31.3570   41.5830 H   0  0  0  0  0  0  0  0  0  0  0  0
   37.2050   32.5900   40.6150 H   0  0  0  0  0  0  0  0  0  0  0  0
   38.0020   27.4220   43.2460 Cl  0  0  0  0  0  0  0  0  0  0  0  0
   37.5610   26.6120   41.7690 C   0  0  0  0  0  0  0  0  0  0  0  0
   37.2390   27.3400   40.6460 C   0  0  0  0  0  0  0  0  0  0  0  0
   36.9040   26.5840   39.5310 C   0  0  0  0  0  0  0  0  0  0  0  0
   36.8800   25.2080   39.4890 C   0  0  0  0  0  0  0  0  0  0  0  0
   37.2110   24.5310   40.6360 C   0  0  0  0  0  0  0  0  0  0  0  0
   37.1590   22.7800   40.5130 Cl  0  0  0  0  0  0  0  0  0  0  0  0
   37.5500   25.2200   41.7720 C   0  0  0  0  0  0  0  0  0  0  0  0
   36.6460   27.1460   38.6340 H   0  0  0  0  0  0  0  0  0  0  0  0
   36.6000   24.7460   38.5500 H   0  0  0  0  0  0  0  0  0  0  0  0
   37.8020   24.6370   42.6480 H   0  0  0  0  0  0  0  0  0  0  0  0
   38.0420   31.2760   37.1650 Cl  0  0  0  0  0  0  0  0  0  0  0  0
   39.4280   31.7810   38.1130 C   0  0  0  0  0  0  0  0  0  0  0  0
   39.4490   31.5230   39.4650 C   0  0  0  0  0  0  0  0  0  0  0  0
   40.5520   31.9400   40.1480 C   0  0  0  0  0  0  0  0  0  0  0  0
   40.6170   31.7620   41.2090 H   0  0  0  0  0  0  0  0  0  0  0  0
   41.5930   32.5900   39.5070 C   0  0  0  0  0  3  0  0  0  0  0  0
   41.5840   32.8530   38.1630 C   0  0  0  0  0  0  0  0  0  0  0  0
   42.9240   33.6760   37.4050 Cl  0  0  0  0  0  0  0  0  0  0  0  0
   40.4680   32.4290   37.4810 C   0  0  0  0  0  0  0  0  0  0  0  0
   40.4060   32.6130   36.3970 H   0  0  0  0  0  0  0  0  0  0  0  0
  1  6  1  0  0  0  0
  1  7  1  0  0  0  0
  2  8  1  0  0  0  0
  2  1  2  0  0  0  0
  3  4  2  0  0  0  0
  3  2  1  0  0  0  0
  4  5  1  0  0  0  0
  5 11  1  0  0  0  0
  5  6  2  0  0  0  0
 10 16  1  0  0  0  0
 10  9  1  0  0  0  0
 11 10  2  0  0  0  0
 12 11  1  0  0  0  0
 13 12  2  0  0  0  0
 13 14  1  0  0  0  0
 14 16  2  0  0  0  0
 15 14  1  0  0  0  0
 16 19  1  0  0  0  0
 17 12  1  0  0  0  0
 18 13  1  0  0  0  0
 20 21  1  0  0  0  0
 21 22  1  0  0  0  0
 22  3  1  0  0  0  0
 22 23  2  0  0  0  0
 23 24  1  0  0  0  0
 25 23  1  0  0  0  0
 26 25  2  0  0  0  0
 27 26  1  0  0  0  0
 28 21  2  0  0  0  0
 28 26  1  0  0  0  0
 29 28  1  0  0  0  0
M  END
>  <minimizedAffinity>
-5.33694458

$$$$

 OpenBabel03242514283D

 29 31  0  0  0  0  0  0  0  0999 V2000
   35.8280   30.5280   40.8860 C   0  0  0  0  0  0  0  0  0  0  0  0
   35.8650   29.1160   40.8460 C   0  0  0  0  0  0  0  0  0  0  0  0
   37.0900   28.4940   40.5810 C   0  0  0  0  0  0  0  0  0  0  0  0
   38.1580   29.3000   40.3830 N   0  0  0  0  0  0  0  0  0  0  0  0
   38.1110   30.6330   40.4240 C   0  0  0  0  0  0  0  0  0  0  0  0
   36.9380   31.2620   40.6780 N   0  0  0  0  0  0  0  0  0  0  0  0
   34.8640   30.9690   41.0930 H   0  0  0  0  0  0  0  0  0  0  0  0
   34.9860   28.5480   41.0120 H   0  0  0  0  0  0  0  0  0  0  0  0
   39.9830   31.0530   42.7920 Cl  0  0  0  0  0  0  0  0  0  0  0  0
   40.2030   31.7130   41.1960 C   0  0  0  0  0  0  0  0  0  0  0  0
   39.2850   31.4510   40.2040 C   0  0  0  0  0  0  0  0  0  0  0  0
   39.5670   32.0320   38.9750 C   0  0  0  0  0  0  0  0  0  0  0  0
   40.6640   32.8200   38.7070 C   0  0  0  0  0  0  0  0  0  0  0  0
   41.5460   33.0500   39.7320 C   0  0  0  0  0  0  0  0  0  0  0  0
   42.9210   34.0630   39.3220 Cl  0  0  0  0  0  0  0  0  0  0  0  0
   41.3250   32.5040   40.9700 C   0  0  0  0  0  0  0  0  0  0  0  0
   38.8500   31.8340   38.1780 H   0  0  0  0  0  0  0  0  0  0  0  0
   40.7590   33.2100   37.7010 H   0  0  0  0  0  0  0  0  0  0  0  0
   42.0530   32.7180   41.7430 H   0  0  0  0  0  0  0  0  0  0  0  0
   37.8640   27.2730   43.1420 Cl  0  0  0  0  0  0  0  0  0  0  0  0
   37.5810   26.3690   41.6660 C   0  0  0  0  0  0  0  0  0  0  0  0
   37.2210   27.0450   40.5210 C   0  0  0  0  0  0  0  0  0  0  0  0
   37.0140   26.2890   39.4070 C   0  0  0  0  0  0  0  0  0  0  0  0
   36.7310   26.7700   38.4850 H   0  0  0  0  0  0  0  0  0  0  0  0
   37.1590   24.9120   39.4330 C   0  0  0  0  0  3  0  0  0  0  0  0
   37.5160   24.2290   40.5650 C   0  0  0  0  0  0  0  0  0  0  0  0
   37.6860   22.4910   40.5430 Cl  0  0  0  0  0  0  0  0  0  0  0  0
   37.7240   24.9980   41.6850 C   0  0  0  0  0  0  0  0  0  0  0  0
   38.0130   24.5020   42.6240 H   0  0  0  0  0  0  0  0  0  0  0  0
  1  7  1  0  0  0  0
  2  1  1  0  0  0  0
  2  8  1  0  0  0  0
  3  2  2  0  0  0  0
  4  5  2  0  0  0  0
  4  3  1  0  0  0  0
  5  6  1  0  0  0  0
  6  1  2  0  0  0  0
 10  9  1  0  0  0  0
 11  5  1  0  0  0  0
 11 10  2  0  0  0  0
 12 11  1  0  0  0  0
 13 12  2  0  0  0  0
 13 14  1  0  0  0  0
 14 16  2  0  0  0  0
 15 14  1  0  0  0  0
 16 10  1  0  0  0  0
 16 19  1  0  0  0  0
 17 12  1  0  0  0  0
 18 13  1  0  0  0  0
 21 28  1  0  0  0  0
 21 20  1  0  0  0  0
 22  3  1  0  0  0  0
 22 21  2  0  0  0  0
 23 25  2  0  0  0  0
 23 22  1  0  0  0  0
 24 23  1  0  0  0  0
 25 26  1  0  0  0  0
 26 28  2  0  0  0  0
 27 26  1  0  0  0  0
 28 29  1  0  0  0  0
M  END
>  <minimizedAffinity>
-5.33056402

$$$$
