
 OpenBabel03252503083D

 28 30  0  0  1  0  0  0  0  0999 V2000
   45.2470   35.9690   43.5650 C   0  0  0  0  0  0  0  0  0  0  0  0
   45.9080   34.7470   43.2740 C   0  0  0  0  0  0  0  0  0  0  0  0
   45.8470   33.8090   44.2950 C   0  0  0  0  0  0  0  0  0  0  0  0
   45.2160   34.0460   45.4540 N   0  0  0  0  0  0  0  0  0  0  0  0
   44.5960   35.2420   45.6800 C   0  0  0  0  0  0  0  0  0  0  0  0
   44.6240   36.1910   44.7210 N   0  0  0  0  0  0  0  0  0  0  0  0
   45.2620   36.7470   42.7970 H   0  0  0  0  0  0  0  0  0  0  0  0
   44.1050   35.3770   46.6300 H   0  0  0  0  0  0  0  0  0  0  0  0
   46.4510   32.5730   44.0920 C   0  0  0  0  0  0  0  0  0  0  0  0
   47.7240   32.1060   44.0980 C   0  0  0  0  0  0  0  0  0  0  0  0
   48.0750   30.8540   43.8500 C   0  0  0  0  0  0  0  0  0  0  0  0
   47.0480   29.9920   43.5700 C   0  0  0  0  0  0  0  0  0  0  0  0
   45.5720   31.0830   43.6870 S   0  0  0  0  0  0  0  0  0  0  0  0
   48.6290   32.6400   44.3340 H   0  0  0  0  0  0  0  0  0  0  0  0
   48.9540   30.2570   43.7920 H   0  0  0  0  0  0  0  0  0  0  0  0
   46.8160   28.9840   43.3250 H   0  0  0  0  0  0  0  0  0  0  0  0
   46.5390   34.5870   42.0190 C   0  0  2  0  0  3  0  0  0  0  0  0
   47.4410   35.5240   41.8180 O   0  0  0  0  0  1  0  0  0  0  0  0
   43.9500   35.1650   40.8090 Cl  0  0  0  0  0  0  0  0  0  0  0  0
   45.0810   33.8650   40.3640 C   0  0  0  0  0  0  0  0  0  0  0  0
   46.3430   33.5820   40.9290 C   0  0  0  0  0  0  0  0  0  0  0  0
   47.0060   32.5150   40.3910 C   0  0  0  0  0  0  0  0  0  0  0  0
   47.9410   32.3750   40.9030 H   0  0  0  0  0  0  0  0  0  0  0  0
   46.5020   31.7540   39.3680 C   0  0  0  0  0  3  0  0  0  0  0  0
   45.2720   32.0370   38.8220 C   0  0  0  0  0  0  0  0  0  0  0  0
   44.7660   30.9750   37.5250 Cl  0  0  0  0  0  0  0  0  0  0  0  0
   44.5480   33.0980   39.3170 C   0  0  0  0  0  0  0  0  0  0  0  0
   43.6010   33.2420   38.8300 H   0  0  0  0  0  0  0  0  0  0  0  0
  1  6  1  0  0  0  0
  2  1  2  0  0  0  0
  2  3  1  0  0  0  0
  3  4  2  0  0  0  0
  4  5  1  0  0  0  0
  5  8  1  0  0  0  0
  6  5  2  0  0  0  0
  7  1  1  0  0  0  0
  9 10  2  0  0  0  0
  9  3  1  0  0  0  0
 10 14  1  0  0  0  0
 11 10  1  0  0  0  0
 12 13  1  0  0  0  0
 12 11  2  0  0  0  0
 13  9  1  0  0  0  0
 15 11  1  0  0  0  0
 16 12  1  0  0  0  0
 17 18  1  6  0  0  0
 17  2  1  0  0  0  0
 20 19  1  0  0  0  0
 20 21  1  0  0  0  0
 21 17  1  0  0  0  0
 22 23  1  0  0  0  0
 22 21  2  0  0  0  0
 24 22  1  0  0  0  0
 25 27  1  0  0  0  0
 25 24  2  0  0  0  0
 26 25  1  0  0  0  0
 27 20  2  0  0  0  0
 28 27  1  0  0  0  0
M  END
>  <minimizedAffinity>
-4.39021635

>  <minimizedRMSD>
0.710700929

$$$$
