
 OpenBabel03242518373D

 36 39  0  0  1  0  0  0  0  0999 V2000
   40.2340   34.9390   40.6270 C   0  0  0  0  0  0  0  0  0  0  0  0
   39.0570   35.5410   40.1870 C   0  0  0  0  0  0  0  0  0  0  0  0
   38.1610   34.5500   39.8210 C   0  0  0  0  0  0  0  0  0  0  0  0
   38.8450   33.3860   40.0600 C   0  0  0  0  0  0  0  0  0  0  0  0
   40.0530   33.6300   40.5290 O   0  0  0  0  0  0  0  0  0  0  0  0
   38.9640   36.6380   40.1730 H   0  0  0  0  0  0  0  0  0  0  0  0
   37.1670   34.7450   39.4430 H   0  0  0  0  0  0  0  0  0  0  0  0
   38.3030   32.0370   39.8280 C   0  0  2  0  0  0  0  0  0  0  0  0
   36.8960   31.8750   39.4090 C   0  0  0  0  0  0  0  0  0  0  0  0
   37.2050   31.6280   40.8340 C   0  0  1  0  0  0  0  0  0  0  0  0
   39.0140   31.2300   39.5590 H   0  0  0  0  0  0  0  0  0  0  0  0
   36.5860   31.0410   38.7680 H   0  0  0  0  0  0  0  0  0  0  0  0
   36.2540   32.7960   39.2450 H   0  0  0  0  0  0  0  0  0  0  0  0
   36.9250   32.4000   41.6070 H   0  0  0  0  0  0  0  0  0  0  0  0
   39.5100   30.6500   42.7610 Cl  0  0  0  0  0  0  0  0  0  0  0  0
   38.2170   29.6370   42.1820 C   0  0  0  0  0  0  0  0  0  0  0  0
   37.3320   30.2510   41.3430 C   0  0  0  0  0  0  0  0  0  0  0  0
   36.2860   29.4700   40.8370 C   0  0  0  0  0  0  0  0  0  0  0  0
   35.4800   29.7780   40.1520 H   0  0  0  0  0  0  0  0  0  0  0  0
   36.1540   28.1190   41.1770 C   0  0  0  0  0  3  0  0  0  0  0  0
   37.0580   27.5180   42.0280 C   0  0  0  0  0  0  0  0  0  0  0  0
   36.9560   25.8350   42.4970 Cl  0  0  0  0  0  0  0  0  0  0  0  0
   38.0790   28.3070   42.5120 C   0  0  0  0  0  0  0  0  0  0  0  0
   38.8350   27.9200   43.1870 H   0  0  0  0  0  0  0  0  0  0  0  0
   41.4390   35.4970   41.1040 O   0  0  0  0  0  0  0  0  0  0  0  0
   42.6550   34.8060   40.8910 C   0  0  0  0  0  0  0  0  0  0  0  0
   42.8510   34.3560   39.7400 O   0  0  0  0  0  0  0  0  0  0  0  0
   43.5170   34.7060   42.0290 C   0  0  0  0  0  0  0  0  0  0  0  0
   43.8870   33.4290   42.3510 C   0  0  0  0  0  0  0  0  0  0  0  0
   44.7290   33.2450   43.4470 C   0  0  0  0  0  0  0  0  0  0  0  0
   45.1340   34.3380   44.1340 N   0  0  0  0  0  0  0  0  0  0  0  0
   44.7520   35.5670   43.7900 C   0  0  0  0  0  0  0  0  0  0  0  0
   43.9440   35.7340   42.7350 N   0  0  0  0  0  0  0  0  0  0  0  0
   43.5760   32.5290   41.8160 H   0  0  0  0  0  0  0  0  0  0  0  0
   45.0540   32.2550   43.7480 H   0  0  0  0  0  0  0  0  0  0  0  0
   45.1290   36.3760   44.4020 H   0  0  0  0  0  0  0  0  0  0  0  0
  1 25  1  0  0  0  0
  2  1  2  0  0  0  0
  3  4  2  0  0  0  0
  3  2  1  0  0  0  0
  4  5  1  0  0  0  0
  5  1  1  0  0  0  0
  6  2  1  0  0  0  0
  7  3  1  0  0  0  0
  8 11  1  6  0  0  0
  8  4  1  0  0  0  0
  8 10  1  0  0  0  0
  9  8  1  0  0  0  0
  9 10  1  0  0  0  0
 10 17  1  0  0  0  0
 10 14  1  1  0  0  0
 12  9  1  0  0  0  0
 13  9  1  0  0  0  0
 16 23  1  0  0  0  0
 16 15  1  0  0  0  0
 17 16  2  0  0  0  0
 18 20  2  0  0  0  0
 18 17  1  0  0  0  0
 19 18  1  0  0  0  0
 20 21  1  0  0  0  0
 21 22  1  0  0  0  0
 21 23  2  0  0  0  0
 23 24  1  0  0  0  0
 26 25  1  0  0  0  0
 26 28  1  0  0  0  0
 27 26  2  0  0  0  0
 28 29  2  0  0  0  0
 28 33  1  0  0  0  0
 29 30  1  0  0  0  0
 30 35  1  0  0  0  0
 30 31  2  0  0  0  0
 32 31  1  0  0  0  0
 32 36  1  0  0  0  0
 33 32  2  0  0  0  0
 34 29  1  0  0  0  0
M  END
>  <minimizedAffinity>
-6.32511616

$$$$

 OpenBabel03242518373D

 36 39  0  0  1  0  0  0  0  0999 V2000
   38.7730   34.0930   40.3600 C   0  0  0  0  0  0  0  0  0  0  0  0
   37.6180   34.2170   39.5910 C   0  0  0  0  0  0  0  0  0  0  0  0
   37.0330   32.9680   39.4630 C   0  0  0  0  0  0  0  0  0  0  0  0
   37.8690   32.1420   40.1680 C   0  0  0  0  0  0  0  0  0  0  0  0
   38.8800   32.8130   40.6850 O   0  0  0  0  0  0  0  0  0  0  0  0
   37.3130   35.2000   39.1980 H   0  0  0  0  0  0  0  0  0  0  0  0
   36.1220   32.7830   38.9130 H   0  0  0  0  0  0  0  0  0  0  0  0
   37.6670   30.6920   40.3330 C   0  0  2  0  0  0  0  0  0  0  0  0
   36.3430   30.1800   40.7400 C   0  0  0  0  0  0  0  0  0  0  0  0
   37.3800   30.2680   41.7890 C   0  0  1  0  0  0  0  0  0  0  0  0
   38.3300   30.0070   39.7680 H   0  0  0  0  0  0  0  0  0  0  0  0
   35.9870   29.1970   40.4080 H   0  0  0  0  0  0  0  0  0  0  0  0
   35.4870   30.9090   40.8960 H   0  0  0  0  0  0  0  0  0  0  0  0
   37.3340   31.0990   42.5510 H   0  0  0  0  0  0  0  0  0  0  0  0
   40.4300   30.2330   42.6170 Cl  0  0  0  0  0  0  0  0  0  0  0  0
   39.3900   28.8350   42.6350 C   0  0  0  0  0  0  0  0  0  0  0  0
   38.1090   29.0620   42.2230 C   0  0  0  0  0  0  0  0  0  0  0  0
   37.2410   27.9640   42.2040 C   0  0  0  0  0  0  0  0  0  0  0  0
   36.1810   27.9420   41.9050 H   0  0  0  0  0  0  0  0  0  0  0  0
   37.6700   26.6880   42.5890 C   0  0  0  0  0  3  0  0  0  0  0  0
   38.9690   26.4810   43.0040 C   0  0  0  0  0  0  0  0  0  0  0  0
   39.5760   24.9160   43.5000 Cl  0  0  0  0  0  0  0  0  0  0  0  0
   39.8040   27.5780   43.0140 C   0  0  0  0  0  0  0  0  0  0  0  0
   40.8410   27.5090   43.3250 H   0  0  0  0  0  0  0  0  0  0  0  0
   39.7160   35.0550   40.7790 O   0  0  0  0  0  0  0  0  0  0  0  0
   41.0210   35.0310   40.2310 C   0  0  0  0  0  0  0  0  0  0  0  0
   41.1180   35.2550   39.0030 O   0  0  0  0  0  0  0  0  0  0  0  0
   42.0760   34.7520   41.1570 C   0  0  0  0  0  0  0  0  0  0  0  0
   42.5510   35.8470   41.8230 C   0  0  0  0  0  0  0  0  0  0  0  0
   43.5800   35.6610   42.7460 C   0  0  0  0  0  0  0  0  0  0  0  0
   44.0530   34.4070   42.9310 N   0  0  0  0  0  0  0  0  0  0  0  0
   43.5650   33.3630   42.2620 C   0  0  0  0  0  0  0  0  0  0  0  0
   42.5760   33.5520   41.3790 N   0  0  0  0  0  0  0  0  0  0  0  0
   42.1890   36.8700   41.6940 H   0  0  0  0  0  0  0  0  0  0  0  0
   43.9950   36.4930   43.3030 H   0  0  0  0  0  0  0  0  0  0  0  0
   44.0090   32.4020   42.4820 H   0  0  0  0  0  0  0  0  0  0  0  0
  1  5  1  0  0  0  0
  1 25  1  0  0  0  0
  2  1  2  0  0  0  0
  3  2  1  0  0  0  0
  3  4  2  0  0  0  0
  4  8  1  0  0  0  0
  4  5  1  0  0  0  0
  6  2  1  0  0  0  0
  7  3  1  0  0  0  0
  8 11  1  6  0  0  0
  8  9  1  0  0  0  0
  8 10  1  0  0  0  0
  9 13  1  0  0  0  0
  9 10  1  0  0  0  0
 10 17  1  0  0  0  0
 10 14  1  1  0  0  0
 12  9  1  0  0  0  0
 15 16  1  0  0  0  0
 16 23  1  0  0  0  0
 17 16  2  0  0  0  0
 18 17  1  0  0  0  0
 18 20  2  0  0  0  0
 19 18  1  0  0  0  0
 20 21  1  0  0  0  0
 21 23  2  0  0  0  0
 21 22  1  0  0  0  0
 23 24  1  0  0  0  0
 26 25  1  0  0  0  0
 26 28  1  0  0  0  0
 27 26  2  0  0  0  0
 28 33  2  0  0  0  0
 28 29  1  0  0  0  0
 29 30  2  0  0  0  0
 30 31  1  0  0  0  0
 30 35  1  0  0  0  0
 32 36  1  0  0  0  0
 32 31  2  0  0  0  0
 33 32  1  0  0  0  0
 34 29  1  0  0  0  0
M  END
>  <minimizedAffinity>
-6.23772001

$$$$

 OpenBabel03242518373D

 36 39  0  0  1  0  0  0  0  0999 V2000
   38.2620   31.6750   41.1500 C   0  0  0  0  0  0  0  0  0  0  0  0
   37.0100   31.7020   40.5390 C   0  0  0  0  0  0  0  0  0  0  0  0
   36.3650   30.5030   40.7940 C   0  0  0  0  0  0  0  0  0  0  0  0
   37.2650   29.8020   41.5530 C   0  0  0  0  0  0  0  0  0  0  0  0
   38.3670   30.4990   41.7510 O   0  0  0  0  0  0  0  0  0  0  0  0
   36.6870   32.5880   39.9700 H   0  0  0  0  0  0  0  0  0  0  0  0
   35.3740   30.2630   40.4340 H   0  0  0  0  0  0  0  0  0  0  0  0
   37.0350   28.4480   42.0830 C   0  0  2  0  0  0  0  0  0  0  0  0
   37.8120   27.9780   43.2490 C   0  0  0  0  0  0  0  0  0  0  0  0
   38.2440   27.5020   41.9170 C   0  0  1  0  0  0  0  0  0  0  0  0
   36.0470   27.9800   41.9030 H   0  0  0  0  0  0  0  0  0  0  0  0
   37.3850   27.2670   43.9660 H   0  0  0  0  0  0  0  0  0  0  0  0
   38.5610   28.6760   43.7380 H   0  0  0  0  0  0  0  0  0  0  0  0
   39.1630   27.9480   41.4370 H   0  0  0  0  0  0  0  0  0  0  0  0
   39.4000   24.8430   43.1720 Cl  0  0  0  0  0  0  0  0  0  0  0  0
   38.2530   24.8940   41.8620 C   0  0  0  0  0  0  0  0  0  0  0  0
   37.8940   26.1470   41.4560 C   0  0  0  0  0  0  0  0  0  0  0  0
   36.9880   26.2380   40.3930 C   0  0  0  0  0  0  0  0  0  0  0  0
   36.5810   27.1490   39.9240 H   0  0  0  0  0  0  0  0  0  0  0  0
   36.4730   25.0930   39.7730 C   0  0  0  0  0  3  0  0  0  0  0  0
   36.8470   23.8360   40.2000 C   0  0  0  0  0  0  0  0  0  0  0  0
   36.2450   22.3620   39.4750 Cl  0  0  0  0  0  0  0  0  0  0  0  0
   37.7410   23.7730   41.2480 C   0  0  0  0  0  0  0  0  0  0  0  0
   38.0910   22.8280   41.6500 H   0  0  0  0  0  0  0  0  0  0  0  0
   39.2930   32.6360   41.1940 O   0  0  0  0  0  0  0  0  0  0  0  0
   39.3210   33.6700   40.2280 C   0  0  0  0  0  0  0  0  0  0  0  0
   38.5140   34.6130   40.3920 O   0  0  0  0  0  0  0  0  0  0  0  0
   40.2750   33.5070   39.1740 C   0  0  0  0  0  0  0  0  0  0  0  0
   41.2520   34.4620   39.1400 C   0  0  0  0  0  0  0  0  0  0  0  0
   42.2230   34.3750   38.1430 C   0  0  0  0  0  0  0  0  0  0  0  0
   42.1450   33.3510   37.2620 N   0  0  0  0  0  0  0  0  0  0  0  0
   41.1770   32.4380   37.3260 C   0  0  0  0  0  0  0  0  0  0  0  0
   40.2490   32.5300   38.2880 N   0  0  0  0  0  0  0  0  0  0  0  0
   41.3400   35.2990   39.8370 H   0  0  0  0  0  0  0  0  0  0  0  0
   43.0220   35.1050   38.0680 H   0  0  0  0  0  0  0  0  0  0  0  0
   41.2010   31.6580   36.5770 H   0  0  0  0  0  0  0  0  0  0  0  0
  1 25  1  0  0  0  0
  1  5  1  0  0  0  0
  2  3  1  0  0  0  0
  2  1  2  0  0  0  0
  3  4  2  0  0  0  0
  4  5  1  0  0  0  0
  4  8  1  0  0  0  0
  6  2  1  0  0  0  0
  7  3  1  0  0  0  0
  8 11  1  6  0  0  0
  8  9  1  0  0  0  0
  9 13  1  0  0  0  0
  9 12  1  0  0  0  0
 10 14  1  6  0  0  0
 10  8  1  0  0  0  0
 10  9  1  0  0  0  0
 16 15  1  0  0  0  0
 17 16  1  0  0  0  0
 17 10  1  0  0  0  0
 18 17  2  0  0  0  0
 19 18  1  0  0  0  0
 20 21  2  0  0  0  0
 20 18  1  0  0  0  0
 21 23  1  0  0  0  0
 22 21  1  0  0  0  0
 23 24  1  0  0  0  0
 23 16  2  0  0  0  0
 26 27  2  0  0  0  0
 26 25  1  0  0  0  0
 28 26  1  0  0  0  0
 29 28  1  0  0  0  0
 29 34  1  0  0  0  0
 30 29  2  0  0  0  0
 31 32  2  0  0  0  0
 31 30  1  0  0  0  0
 32 33  1  0  0  0  0
 33 28  2  0  0  0  0
 35 30  1  0  0  0  0
 36 32  1  0  0  0  0
M  END
>  <minimizedAffinity>
-6.13087559

$$$$

 OpenBabel03242518373D

 36 39  0  0  1  0  0  0  0  0999 V2000
   36.4050   28.7710   41.7750 C   0  0  0  0  0  0  0  0  0  0  0  0
   35.6170   28.8750   40.6310 C   0  0  0  0  0  0  0  0  0  0  0  0
   35.8550   30.1030   40.0370 C   0  0  0  0  0  0  0  0  0  0  0  0
   36.7860   30.6880   40.8560 C   0  0  0  0  0  0  0  0  0  0  0  0
   37.0960   29.8980   41.8650 O   0  0  0  0  0  0  0  0  0  0  0  0
   34.9450   28.0520   40.3410 H   0  0  0  0  0  0  0  0  0  0  0  0
   35.3710   30.4390   39.1310 H   0  0  0  0  0  0  0  0  0  0  0  0
   37.3690   32.0220   40.6390 C   0  0  2  0  0  0  0  0  0  0  0  0
   37.1830   32.6990   39.3390 C   0  0  0  0  0  0  0  0  0  0  0  0
   38.4880   32.0440   39.5740 C   0  0  1  0  0  0  0  0  0  0  0  0
   37.5560   32.6580   41.5270 H   0  0  0  0  0  0  0  0  0  0  0  0
   37.1290   33.7920   39.2710 H   0  0  0  0  0  0  0  0  0  0  0  0
   36.5690   32.1930   38.5300 H   0  0  0  0  0  0  0  0  0  0  0  0
   38.7160   31.0610   39.0710 H   0  0  0  0  0  0  0  0  0  0  0  0
   38.4740   35.1840   39.9300 Cl  0  0  0  0  0  0  0  0  0  0  0  0
   39.8710   34.1730   40.1750 C   0  0  0  0  0  0  0  0  0  0  0  0
   39.6680   32.8420   39.9520 C   0  0  0  0  0  0  0  0  0  0  0  0
   40.7680   31.9920   40.1190 C   0  0  0  0  0  0  0  0  0  0  0  0
   40.8070   30.8990   39.9860 H   0  0  0  0  0  0  0  0  0  0  0  0
   42.0210   32.4870   40.4980 C   0  0  0  0  0  3  0  0  0  0  0  0
   42.2050   33.8360   40.7200 C   0  0  0  0  0  0  0  0  0  0  0  0
   43.7410   34.5260   41.1960 Cl  0  0  0  0  0  0  0  0  0  0  0  0
   41.1070   34.6520   40.5490 C   0  0  0  0  0  0  0  0  0  0  0  0
   41.1570   35.7250   40.7020 H   0  0  0  0  0  0  0  0  0  0  0  0
   36.5350   27.7330   42.7210 O   0  0  0  0  0  0  0  0  0  0  0  0
   37.7840   27.0860   42.8750 C   0  0  0  0  0  0  0  0  0  0  0  0
   38.5550   27.5540   43.7430 O   0  0  0  0  0  0  0  0  0  0  0  0
   38.0130   25.9670   42.0120 C   0  0  0  0  0  0  0  0  0  0  0  0
   37.0520   24.9970   42.0740 C   0  0  0  0  0  0  0  0  0  0  0  0
   37.1990   23.8730   41.2620 C   0  0  0  0  0  0  0  0  0  0  0  0
   38.2850   23.8020   40.4580 N   0  0  0  0  0  0  0  0  0  0  0  0
   39.2010   24.7690   40.4250 C   0  0  0  0  0  0  0  0  0  0  0  0
   39.0500   25.8450   41.2070 N   0  0  0  0  0  0  0  0  0  0  0  0
   36.1660   25.0260   42.7130 H   0  0  0  0  0  0  0  0  0  0  0  0
   36.4680   23.0710   41.2710 H   0  0  0  0  0  0  0  0  0  0  0  0
   40.0320   24.6200   39.7480 H   0  0  0  0  0  0  0  0  0  0  0  0
  1  5  1  0  0  0  0
  1 25  1  0  0  0  0
  2  1  2  0  0  0  0
  3  2  1  0  0  0  0
  3  4  2  0  0  0  0
  4  5  1  0  0  0  0
  6  2  1  0  0  0  0
  7  3  1  0  0  0  0
  8  4  1  0  0  0  0
  8 11  1  1  0  0  0
  9 10  1  0  0  0  0
  9  8  1  0  0  0  0
 10 14  1  6  0  0  0
 10 17  1  0  0  0  0
 10  8  1  0  0  0  0
 12  9  1  0  0  0  0
 13  9  1  0  0  0  0
 15 16  1  0  0  0  0
 16 23  1  0  0  0  0
 17 18  1  0  0  0  0
 17 16  2  0  0  0  0
 18 20  2  0  0  0  0
 19 18  1  0  0  0  0
 20 21  1  0  0  0  0
 21 22  1  0  0  0  0
 23 24  1  0  0  0  0
 23 21  2  0  0  0  0
 25 26  1  0  0  0  0
 26 27  2  0  0  0  0
 28 29  1  0  0  0  0
 28 26  1  0  0  0  0
 29 34  1  0  0  0  0
 30 35  1  0  0  0  0
 30 29  2  0  0  0  0
 31 30  1  0  0  0  0
 32 31  2  0  0  0  0
 32 33  1  0  0  0  0
 33 28  2  0  0  0  0
 36 32  1  0  0  0  0
M  END
>  <minimizedAffinity>
-6.0834384

$$$$

 OpenBabel03242518373D

 36 39  0  0  1  0  0  0  0  0999 V2000
   36.6310   30.7950   40.6290 C   0  0  0  0  0  0  0  0  0  0  0  0
   35.5660   29.9060   40.4980 C   0  0  0  0  0  0  0  0  0  0  0  0
   35.9790   28.6520   40.9170 C   0  0  0  0  0  0  0  0  0  0  0  0
   37.2850   28.8450   41.2860 C   0  0  0  0  0  0  0  0  0  0  0  0
   37.6510   30.0990   41.1110 O   0  0  0  0  0  0  0  0  0  0  0  0
   34.5950   30.2530   40.1100 H   0  0  0  0  0  0  0  0  0  0  0  0
   35.3450   27.7770   40.9190 H   0  0  0  0  0  0  0  0  0  0  0  0
   38.1680   27.7910   41.8140 C   0  0  2  0  0  0  0  0  0  0  0  0
   37.7810   27.0560   43.0350 C   0  0  0  0  0  0  0  0  0  0  0  0
   38.7860   28.1300   43.1880 C   0  0  1  0  0  0  0  0  0  0  0  0
   38.8530   27.2840   41.1050 H   0  0  0  0  0  0  0  0  0  0  0  0
   38.0760   26.0110   43.1860 H   0  0  0  0  0  0  0  0  0  0  0  0
   36.7930   27.2940   43.5390 H   0  0  0  0  0  0  0  0  0  0  0  0
   38.4810   29.1170   43.6410 H   0  0  0  0  0  0  0  0  0  0  0  0
   41.1290   30.0690   42.3330 Cl  0  0  0  0  0  0  0  0  0  0  0  0
   41.3650   28.4870   43.0220 C   0  0  0  0  0  0  0  0  0  0  0  0
   40.2180   27.8030   43.3060 C   0  0  0  0  0  0  0  0  0  0  0  0
   40.3580   26.5180   43.8440 C   0  0  0  0  0  0  0  0  0  0  0  0
   39.5620   25.8140   44.1350 H   0  0  0  0  0  0  0  0  0  0  0  0
   41.6200   25.9600   44.0810 C   0  0  0  0  0  3  0  0  0  0  0  0
   42.7660   26.6690   43.7890 C   0  0  0  0  0  0  0  0  0  0  0  0
   44.3750   26.0360   44.0590 Cl  0  0  0  0  0  0  0  0  0  0  0  0
   42.6020   27.9310   43.2590 C   0  0  0  0  0  0  0  0  0  0  0  0
   43.4470   28.5600   43.0000 H   0  0  0  0  0  0  0  0  0  0  0  0
   36.7290   32.1720   40.3440 O   0  0  0  0  0  0  0  0  0  0  0  0
   37.5840   32.6060   39.3030 C   0  0  0  0  0  0  0  0  0  0  0  0
   37.3220   32.1910   38.1510 O   0  0  0  0  0  0  0  0  0  0  0  0
   38.6520   33.4730   39.6990 C   0  0  0  0  0  0  0  0  0  0  0  0
   39.9020   32.9940   39.4250 C   0  0  0  0  0  0  0  0  0  0  0  0
   40.9990   33.7800   39.7780 C   0  0  0  0  0  0  0  0  0  0  0  0
   40.7670   34.9720   40.3740 N   0  0  0  0  0  0  0  0  0  0  0  0
   39.5320   35.4050   40.6260 C   0  0  0  0  0  0  0  0  0  0  0  0
   38.4850   34.6440   40.2820 N   0  0  0  0  0  0  0  0  0  0  0  0
   40.1210   32.0370   38.9460 H   0  0  0  0  0  0  0  0  0  0  0  0
   42.0150   33.4500   39.5850 H   0  0  0  0  0  0  0  0  0  0  0  0
   39.4510   36.3720   41.1050 H   0  0  0  0  0  0  0  0  0  0  0  0
  1  5  1  0  0  0  0
  2  1  2  0  0  0  0
  2  3  1  0  0  0  0
  3  7  1  0  0  0  0
  3  4  2  0  0  0  0
  4  8  1  0  0  0  0
  5  4  1  0  0  0  0
  6  2  1  0  0  0  0
  8 11  1  6  0  0  0
  8  9  1  0  0  0  0
  8 10  1  0  0  0  0
  9 12  1  0  0  0  0
  9 10  1  0  0  0  0
  9 13  1  0  0  0  0
 10 17  1  0  0  0  0
 10 14  1  1  0  0  0
 15 16  1  0  0  0  0
 16 23  2  0  0  0  0
 16 17  1  0  0  0  0
 17 18  2  0  0  0  0
 18 20  1  0  0  0  0
 18 19  1  0  0  0  0
 21 22  1  0  0  0  0
 21 20  2  0  0  0  0
 23 21  1  0  0  0  0
 24 23  1  0  0  0  0
 25  1  1  0  0  0  0
 26 28  1  0  0  0  0
 26 25  1  0  0  0  0
 27 26  2  0  0  0  0
 28 33  1  0  0  0  0
 29 28  2  0  0  0  0
 29 30  1  0  0  0  0
 30 31  2  0  0  0  0
 31 32  1  0  0  0  0
 32 36  1  0  0  0  0
 33 32  2  0  0  0  0
 34 29  1  0  0  0  0
 35 30  1  0  0  0  0
M  END
>  <minimizedAffinity>
-5.9974575

$$$$

 OpenBabel03242518373D

 36 39  0  0  1  0  0  0  0  0999 V2000
   37.3130   25.9990   42.3480 C   0  0  0  0  0  0  0  0  0  0  0  0
   38.4960   26.4410   42.9370 C   0  0  0  0  0  0  0  0  0  0  0  0
   38.5400   27.8240   42.8620 C   0  0  0  0  0  0  0  0  0  0  0  0
   37.3720   28.1550   42.2270 C   0  0  0  0  0  0  0  0  0  0  0  0
   36.6670   27.0800   41.9330 O   0  0  0  0  0  0  0  0  0  0  0  0
   39.2100   25.7190   43.3620 H   0  0  0  0  0  0  0  0  0  0  0  0
   39.3530   28.4230   43.2470 H   0  0  0  0  0  0  0  0  0  0  0  0
   36.9510   29.5310   41.9150 C   0  0  2  0  0  0  0  0  0  0  0  0
   36.0050   29.7720   40.8060 C   0  0  0  0  0  0  0  0  0  0  0  0
   37.4350   30.0300   40.5360 C   0  0  1  0  0  0  0  0  0  0  0  0
   36.9930   30.2840   42.7260 H   0  0  0  0  0  0  0  0  0  0  0  0
   35.2980   30.6110   40.8350 H   0  0  0  0  0  0  0  0  0  0  0  0
   35.5920   28.8910   40.2230 H   0  0  0  0  0  0  0  0  0  0  0  0
   38.0270   29.2940   39.9190 H   0  0  0  0  0  0  0  0  0  0  0  0
   40.0420   30.9330   42.0760 Cl  0  0  0  0  0  0  0  0  0  0  0  0
   39.0560   31.9930   41.1080 C   0  0  0  0  0  0  0  0  0  0  0  0
   37.9620   31.4070   40.5410 C   0  0  0  0  0  0  0  0  0  0  0  0
   37.1280   32.2240   39.7680 C   0  0  0  0  0  0  0  0  0  0  0  0
   36.2060   31.9430   39.2350 H   0  0  0  0  0  0  0  0  0  0  0  0
   37.4060   33.5850   39.5870 C   0  0  0  0  0  3  0  0  0  0  0  0
   38.5180   34.1570   40.1680 C   0  0  0  0  0  0  0  0  0  0  0  0
   38.9280   35.8480   39.9840 Cl  0  0  0  0  0  0  0  0  0  0  0  0
   39.3220   33.3310   40.9240 C   0  0  0  0  0  0  0  0  0  0  0  0
   40.2170   33.6940   41.4180 H   0  0  0  0  0  0  0  0  0  0  0  0
   36.7950   24.7000   42.1700 O   0  0  0  0  0  0  0  0  0  0  0  0
   37.1630   23.9570   41.0230 C   0  0  0  0  0  0  0  0  0  0  0  0
   38.2620   23.3610   41.0690 O   0  0  0  0  0  0  0  0  0  0  0  0
   36.2240   23.9800   39.9430 C   0  0  0  0  0  0  0  0  0  0  0  0
   36.4290   24.9810   39.0340 C   0  0  0  0  0  0  0  0  0  0  0  0
   35.5570   25.0720   37.9490 C   0  0  0  0  0  0  0  0  0  0  0  0
   34.5560   24.1670   37.8550 N   0  0  0  0  0  0  0  0  0  0  0  0
   34.3880   23.2050   38.7610 C   0  0  0  0  0  0  0  0  0  0  0  0
   35.2300   23.1250   39.7990 N   0  0  0  0  0  0  0  0  0  0  0  0
   37.2270   25.7250   39.0840 H   0  0  0  0  0  0  0  0  0  0  0  0
   35.6720   25.8460   37.1970 H   0  0  0  0  0  0  0  0  0  0  0  0
   33.5580   22.5310   38.5970 H   0  0  0  0  0  0  0  0  0  0  0  0
  1  2  2  0  0  0  0
  2  6  1  0  0  0  0
  3  2  1  0  0  0  0
  3  7  1  0  0  0  0
  4  3  2  0  0  0  0
  5  4  1  0  0  0  0
  5  1  1  0  0  0  0
  8  4  1  0  0  0  0
  8 11  1  1  0  0  0
  9 12  1  0  0  0  0
  9  8  1  0  0  0  0
 10 14  1  6  0  0  0
 10 17  1  0  0  0  0
 10  9  1  0  0  0  0
 10  8  1  0  0  0  0
 13  9  1  0  0  0  0
 16 15  1  0  0  0  0
 17 16  2  0  0  0  0
 18 17  1  0  0  0  0
 19 18  1  0  0  0  0
 20 18  2  0  0  0  0
 20 21  1  0  0  0  0
 21 23  2  0  0  0  0
 22 21  1  0  0  0  0
 23 16  1  0  0  0  0
 23 24  1  0  0  0  0
 25  1  1  0  0  0  0
 26 27  2  0  0  0  0
 26 25  1  0  0  0  0
 28 26  1  0  0  0  0
 29 34  1  0  0  0  0
 29 28  2  0  0  0  0
 30 29  1  0  0  0  0
 31 30  2  0  0  0  0
 31 32  1  0  0  0  0
 32 33  2  0  0  0  0
 33 28  1  0  0  0  0
 35 30  1  0  0  0  0
 36 32  1  0  0  0  0
M  END
>  <minimizedAffinity>
-5.94121742

$$$$

 OpenBabel03242518373D

 36 39  0  0  1  0  0  0  0  0999 V2000
   38.1350   32.8610   40.3470 C   0  0  0  0  0  0  0  0  0  0  0  0
   37.4290   32.8220   39.1460 C   0  0  0  0  0  0  0  0  0  0  0  0
   36.9960   31.5250   38.9270 C   0  0  0  0  0  0  0  0  0  0  0  0
   37.4640   30.8350   40.0160 C   0  0  0  0  0  0  0  0  0  0  0  0
   38.1270   31.6290   40.8340 O   0  0  0  0  0  0  0  0  0  0  0  0
   37.2980   33.7360   38.5470 H   0  0  0  0  0  0  0  0  0  0  0  0
   36.4230   31.2170   38.0640 H   0  0  0  0  0  0  0  0  0  0  0  0
   37.2540   29.3970   40.2480 C   0  0  2  0  0  0  0  0  0  0  0  0
   35.9780   28.9290   40.8280 C   0  0  0  0  0  0  0  0  0  0  0  0
   37.1380   29.0200   41.7410 C   0  0  1  0  0  0  0  0  0  0  0  0
   37.8290   28.6800   39.6280 H   0  0  0  0  0  0  0  0  0  0  0  0
   35.5650   27.9460   40.5720 H   0  0  0  0  0  0  0  0  0  0  0  0
   35.1640   29.6820   41.0650 H   0  0  0  0  0  0  0  0  0  0  0  0
   37.2020   29.8730   42.4770 H   0  0  0  0  0  0  0  0  0  0  0  0
   40.1440   29.0220   42.7140 Cl  0  0  0  0  0  0  0  0  0  0  0  0
   39.1560   27.5940   42.5770 C   0  0  0  0  0  0  0  0  0  0  0  0
   37.8880   27.8090   42.1200 C   0  0  0  0  0  0  0  0  0  0  0  0
   37.0630   26.6880   41.9750 C   0  0  0  0  0  0  0  0  0  0  0  0
   36.0190   26.6540   41.6230 H   0  0  0  0  0  0  0  0  0  0  0  0
   37.5190   25.4010   42.2860 C   0  0  0  0  0  3  0  0  0  0  0  0
   38.8040   25.2050   42.7480 C   0  0  0  0  0  0  0  0  0  0  0  0
   39.4430   23.6280   43.1560 Cl  0  0  0  0  0  0  0  0  0  0  0  0
   39.5970   26.3250   42.8810 C   0  0  0  0  0  0  0  0  0  0  0  0
   40.6210   26.2670   43.2370 H   0  0  0  0  0  0  0  0  0  0  0  0
   38.7710   33.9290   41.0140 O   0  0  0  0  0  0  0  0  0  0  0  0
   39.5520   34.8450   40.2700 C   0  0  0  0  0  0  0  0  0  0  0  0
   38.9550   35.8400   39.8010 O   0  0  0  0  0  0  0  0  0  0  0  0
   40.9400   34.5160   40.1440 C   0  0  0  0  0  0  0  0  0  0  0  0
   41.3220   34.1390   38.8870 C   0  0  0  0  0  0  0  0  0  0  0  0
   42.6590   33.8040   38.6790 C   0  0  0  0  0  0  0  0  0  0  0  0
   43.5060   33.8680   39.7320 N   0  0  0  0  0  0  0  0  0  0  0  0
   43.0970   34.2400   40.9440 C   0  0  0  0  0  0  0  0  0  0  0  0
   41.8100   34.5620   41.1330 N   0  0  0  0  0  0  0  0  0  0  0  0
   40.6610   34.0770   38.0180 H   0  0  0  0  0  0  0  0  0  0  0  0
   43.0180   33.4970   37.7020 H   0  0  0  0  0  0  0  0  0  0  0  0
   43.8500   34.2610   41.7200 H   0  0  0  0  0  0  0  0  0  0  0  0
  1  5  1  0  0  0  0
  1 25  1  0  0  0  0
  2  1  2  0  0  0  0
  3  2  1  0  0  0  0
  3  4  2  0  0  0  0
  4  8  1  0  0  0  0
  4  5  1  0  0  0  0
  6  2  1  0  0  0  0
  7  3  1  0  0  0  0
  8 11  1  6  0  0  0
  8  9  1  0  0  0  0
  8 10  1  0  0  0  0
  9 13  1  0  0  0  0
  9 10  1  0  0  0  0
 10 17  1  0  0  0  0
 10 14  1  1  0  0  0
 12  9  1  0  0  0  0
 16 15  1  0  0  0  0
 16 23  1  0  0  0  0
 17 16  2  0  0  0  0
 18 17  1  0  0  0  0
 18 20  2  0  0  0  0
 19 18  1  0  0  0  0
 20 21  1  0  0  0  0
 21 23  2  0  0  0  0
 21 22  1  0  0  0  0
 23 24  1  0  0  0  0
 26 25  1  0  0  0  0
 27 26  2  0  0  0  0
 28 26  1  0  0  0  0
 28 33  1  0  0  0  0
 29 28  2  0  0  0  0
 30 29  1  0  0  0  0
 30 31  2  0  0  0  0
 31 32  1  0  0  0  0
 32 33  2  0  0  0  0
 32 36  1  0  0  0  0
 34 29  1  0  0  0  0
 35 30  1  0  0  0  0
M  END
>  <minimizedAffinity>
-5.89345551

$$$$

 OpenBabel03242518373D

 36 39  0  0  1  0  0  0  0  0999 V2000
   38.8020   33.8070   40.4990 C   0  0  0  0  0  0  0  0  0  0  0  0
   37.6520   33.9560   39.7270 C   0  0  0  0  0  0  0  0  0  0  0  0
   37.0440   32.7190   39.5920 C   0  0  0  0  0  0  0  0  0  0  0  0
   37.8620   31.8740   40.2950 C   0  0  0  0  0  0  0  0  0  0  0  0
   38.8840   32.5230   40.8180 O   0  0  0  0  0  0  0  0  0  0  0  0
   37.3680   34.9460   39.3370 H   0  0  0  0  0  0  0  0  0  0  0  0
   36.1310   32.5530   39.0380 H   0  0  0  0  0  0  0  0  0  0  0  0
   37.6320   30.4280   40.4540 C   0  0  2  0  0  0  0  0  0  0  0  0
   36.3280   29.9450   40.9530 C   0  0  0  0  0  0  0  0  0  0  0  0
   37.4450   29.9860   41.9220 C   0  0  1  0  0  0  0  0  0  0  0  0
   38.2300   29.7350   39.8290 H   0  0  0  0  0  0  0  0  0  0  0  0
   35.9210   28.9780   40.6350 H   0  0  0  0  0  0  0  0  0  0  0  0
   35.5080   30.6940   41.1860 H   0  0  0  0  0  0  0  0  0  0  0  0
   37.4800   30.8050   42.6960 H   0  0  0  0  0  0  0  0  0  0  0  0
   40.5250   29.8720   42.6150 Cl  0  0  0  0  0  0  0  0  0  0  0  0
   39.4630   28.4920   42.6280 C   0  0  0  0  0  0  0  0  0  0  0  0
   38.1690   28.7540   42.2810 C   0  0  0  0  0  0  0  0  0  0  0  0
   37.2820   27.6710   42.2590 C   0  0  0  0  0  0  0  0  0  0  0  0
   36.2100   27.6770   42.0050 H   0  0  0  0  0  0  0  0  0  0  0  0
   37.7040   26.3760   42.5800 C   0  0  0  0  0  3  0  0  0  0  0  0
   39.0160   26.1320   42.9300 C   0  0  0  0  0  0  0  0  0  0  0  0
   39.6150   24.5410   43.3440 Cl  0  0  0  0  0  0  0  0  0  0  0  0
   39.8700   27.2140   42.9440 C   0  0  0  0  0  0  0  0  0  0  0  0
   40.9180   27.1180   43.2070 H   0  0  0  0  0  0  0  0  0  0  0  0
   39.7620   34.7480   40.9240 O   0  0  0  0  0  0  0  0  0  0  0  0
   40.9440   34.9250   40.1660 C   0  0  0  0  0  0  0  0  0  0  0  0
   40.9350   35.8480   39.3200 O   0  0  0  0  0  0  0  0  0  0  0  0
   42.0120   34.0190   40.4620 C   0  0  0  0  0  0  0  0  0  0  0  0
   42.3580   33.1930   39.4300 C   0  0  0  0  0  0  0  0  0  0  0  0
   43.3910   32.2800   39.6370 C   0  0  0  0  0  0  0  0  0  0  0  0
   43.9960   32.2610   40.8480 N   0  0  0  0  0  0  0  0  0  0  0  0
   43.6300   33.0830   41.8300 C   0  0  0  0  0  0  0  0  0  0  0  0
   42.6370   33.9570   41.6220 N   0  0  0  0  0  0  0  0  0  0  0  0
   41.8890   33.1850   38.4430 H   0  0  0  0  0  0  0  0  0  0  0  0
   43.7080   31.5990   38.8540 H   0  0  0  0  0  0  0  0  0  0  0  0
   44.1750   32.9900   42.7610 H   0  0  0  0  0  0  0  0  0  0  0  0
  1  5  1  0  0  0  0
  1 25  1  0  0  0  0
  2  1  2  0  0  0  0
  3  2  1  0  0  0  0
  3  4  2  0  0  0  0
  4  8  1  0  0  0  0
  4  5  1  0  0  0  0
  6  2  1  0  0  0  0
  7  3  1  0  0  0  0
  8 11  1  6  0  0  0
  8  9  1  0  0  0  0
  8 10  1  0  0  0  0
  9 13  1  0  0  0  0
  9 10  1  0  0  0  0
 10 17  1  0  0  0  0
 10 14  1  1  0  0  0
 12  9  1  0  0  0  0
 15 16  1  0  0  0  0
 16 23  1  0  0  0  0
 17 16  2  0  0  0  0
 18 17  1  0  0  0  0
 18 20  2  0  0  0  0
 19 18  1  0  0  0  0
 20 21  1  0  0  0  0
 21 23  2  0  0  0  0
 21 22  1  0  0  0  0
 23 24  1  0  0  0  0
 26 28  1  0  0  0  0
 26 25  1  0  0  0  0
 27 26  2  0  0  0  0
 28 33  1  0  0  0  0
 29 30  1  0  0  0  0
 29 28  2  0  0  0  0
 30 31  2  0  0  0  0
 31 32  1  0  0  0  0
 32 36  1  0  0  0  0
 33 32  2  0  0  0  0
 34 29  1  0  0  0  0
 35 30  1  0  0  0  0
M  END
>  <minimizedAffinity>
-5.82793474

$$$$

 OpenBabel03242518373D

 36 39  0  0  1  0  0  0  0  0999 V2000
   38.7130   30.1210   41.4170 C   0  0  0  0  0  0  0  0  0  0  0  0
   38.8820   29.8930   42.7800 C   0  0  0  0  0  0  0  0  0  0  0  0
   38.2200   28.7250   43.1220 C   0  0  0  0  0  0  0  0  0  0  0  0
   37.6790   28.2980   41.9380 C   0  0  0  0  0  0  0  0  0  0  0  0
   37.9740   29.1220   40.9530 O   0  0  0  0  0  0  0  0  0  0  0  0
   39.4660   30.5960   43.3940 H   0  0  0  0  0  0  0  0  0  0  0  0
   38.1930   28.3180   44.1230 H   0  0  0  0  0  0  0  0  0  0  0  0
   36.8740   27.0740   41.7800 C   0  0  2  0  0  0  0  0  0  0  0  0
   37.3490   25.8060   42.3710 C   0  0  0  0  0  0  0  0  0  0  0  0
   37.5570   25.9890   40.9190 C   0  0  1  0  0  0  0  0  0  0  0  0
   35.7850   27.1870   41.6130 H   0  0  0  0  0  0  0  0  0  0  0  0
   36.6420   25.0460   42.7260 H   0  0  0  0  0  0  0  0  0  0  0  0
   38.3160   25.7940   42.9630 H   0  0  0  0  0  0  0  0  0  0  0  0
   38.5870   26.2370   40.5310 H   0  0  0  0  0  0  0  0  0  0  0  0
   36.5570   27.3340   38.2400 Cl  0  0  0  0  0  0  0  0  0  0  0  0
   36.1390   25.7200   38.7460 C   0  0  0  0  0  0  0  0  0  0  0  0
   36.6630   25.3370   39.9460 C   0  0  0  0  0  0  0  0  0  0  0  0
   36.3380   24.0540   40.4030 C   0  0  0  0  0  0  0  0  0  0  0  0
   36.6570   23.5650   41.3380 H   0  0  0  0  0  0  0  0  0  0  0  0
   35.5130   23.2020   39.6600 C   0  0  0  0  0  3  0  0  0  0  0  0
   34.9950   23.6090   38.4480 C   0  0  0  0  0  0  0  0  0  0  0  0
   33.9570   22.5990   37.4650 Cl  0  0  0  0  0  0  0  0  0  0  0  0
   35.3280   24.8760   38.0200 C   0  0  0  0  0  0  0  0  0  0  0  0
   34.9680   25.2800   37.0800 H   0  0  0  0  0  0  0  0  0  0  0  0
   39.1810   31.1580   40.5840 O   0  0  0  0  0  0  0  0  0  0  0  0
   38.4650   32.3770   40.5260 C   0  0  0  0  0  0  0  0  0  0  0  0
   37.2160   32.2970   40.5480 O   0  0  0  0  0  0  0  0  0  0  0  0
   39.2640   33.5620   40.4470 C   0  0  0  0  0  0  0  0  0  0  0  0
   40.6120   33.3420   40.5040 C   0  0  0  0  0  0  0  0  0  0  0  0
   41.4630   34.4440   40.4320 C   0  0  0  0  0  0  0  0  0  0  0  0
   40.9080   35.6730   40.3110 N   0  0  0  0  0  0  0  0  0  0  0  0
   39.5890   35.8480   40.2590 C   0  0  0  0  0  0  0  0  0  0  0  0
   38.7800   34.7830   40.3270 N   0  0  0  0  0  0  0  0  0  0  0  0
   41.0880   32.3630   40.6020 H   0  0  0  0  0  0  0  0  0  0  0  0
   42.5400   34.3290   40.4730 H   0  0  0  0  0  0  0  0  0  0  0  0
   39.2440   36.8690   40.1600 H   0  0  0  0  0  0  0  0  0  0  0  0
  1  2  2  0  0  0  0
  2  3  1  0  0  0  0
  2  6  1  0  0  0  0
  3  7  1  0  0  0  0
  4  3  2  0  0  0  0
  5  1  1  0  0  0  0
  5  4  1  0  0  0  0
  8 11  1  6  0  0  0
  8  4  1  0  0  0  0
  8  9  1  0  0  0  0
  9 12  1  0  0  0  0
  9 13  1  0  0  0  0
 10 14  1  6  0  0  0
 10  8  1  0  0  0  0
 10  9  1  0  0  0  0
 15 16  1  0  0  0  0
 16 17  1  0  0  0  0
 17 18  2  0  0  0  0
 17 10  1  0  0  0  0
 18 19  1  0  0  0  0
 20 18  1  0  0  0  0
 21 20  2  0  0  0  0
 22 21  1  0  0  0  0
 23 21  1  0  0  0  0
 23 16  2  0  0  0  0
 24 23  1  0  0  0  0
 25  1  1  0  0  0  0
 26 27  2  0  0  0  0
 26 25  1  0  0  0  0
 28 29  1  0  0  0  0
 28 26  1  0  0  0  0
 29 34  1  0  0  0  0
 30 35  1  0  0  0  0
 30 29  2  0  0  0  0
 31 30  1  0  0  0  0
 32 31  2  0  0  0  0
 32 33  1  0  0  0  0
 33 28  2  0  0  0  0
 36 32  1  0  0  0  0
M  END
>  <minimizedAffinity>
-5.79116201

$$$$
