
 OpenBabel03252501103D

 21 22  0  0  0  0  0  0  0  0999 V2000
   47.1820   34.7070   42.0770 C   0  0  0  0  0  0  0  0  0  0  0  0
   48.0600   35.5880   41.8050 O   0  0  0  0  0  0  0  0  0  0  0  0
   49.1850   32.4250   42.3980 Cl  0  0  0  0  0  0  0  0  0  0  0  0
   48.0790   32.6350   41.0500 C   0  0  0  0  0  0  0  0  0  0  0  0
   47.2070   33.7110   41.0030 C   0  0  0  0  0  0  0  0  0  0  0  0
   46.3930   33.7530   39.8830 C   0  0  0  0  0  0  0  0  0  0  0  0
   45.6870   34.5810   39.7970 H   0  0  0  0  0  0  0  0  0  0  0  0
   46.4550   32.7890   38.8980 C   0  0  0  0  0  3  0  0  0  0  0  0
   47.3320   31.7420   38.9850 C   0  0  0  0  0  0  0  0  0  0  0  0
   47.3550   30.5530   37.6920 Cl  0  0  0  0  0  0  0  0  0  0  0  0
   48.1550   31.6620   40.0740 C   0  0  0  0  0  0  0  0  0  0  0  0
   48.8420   30.8270   40.1260 H   0  0  0  0  0  0  0  0  0  0  0  0
   44.6030   35.9430   44.4180 C   0  0  0  0  0  0  0  0  0  0  0  0
   45.4370   35.8280   43.2920 C   0  0  0  0  0  0  0  0  0  0  0  0
   46.3610   34.7700   43.2530 C   0  0  0  0  0  0  0  0  0  0  0  0
   46.3760   33.9330   44.3180 N   0  0  0  0  0  0  0  0  0  0  0  0
   45.5730   34.0620   45.3830 C   0  0  0  0  0  0  0  0  0  0  0  0
   44.6680   35.0840   45.4380 N   0  0  0  0  0  0  0  0  0  0  0  0
   43.9000   36.7590   44.4350 H   0  0  0  0  0  0  0  0  0  0  0  0
   45.3260   36.5590   42.5090 H   0  0  0  0  0  0  0  0  0  0  0  0
   45.6670   33.3310   46.1890 H   0  0  0  0  0  0  0  0  0  0  0  0
  1 15  1  0  0  0  0
  2  1  2  0  0  0  0
  4  3  1  0  0  0  0
  5  4  1  0  0  0  0
  5  1  1  0  0  0  0
  6  5  2  0  0  0  0
  7  6  1  0  0  0  0
  8  9  2  0  0  0  0
  8  6  1  0  0  0  0
  9 11  1  0  0  0  0
 10  9  1  0  0  0  0
 11 12  1  0  0  0  0
 11  4  2  0  0  0  0
 13 19  1  0  0  0  0
 13 18  1  0  0  0  0
 14 13  2  0  0  0  0
 15 14  1  0  0  0  0
 15 16  2  0  0  0  0
 16 17  1  0  0  0  0
 17 18  2  0  0  0  0
 17 21  1  0  0  0  0
 20 14  1  0  0  0  0
M  END
>  <minimizedAffinity>
-4.16549349

>  <minimizedRMSD>
1.11691344

$$$$
