
 OpenBabel03252504533D

 22 23  0  0  0  0  0  0  0  0999 V2000
   45.5200   34.7940   41.6120 C   0  0  0  0  0  0  0  0  0  0  0  0
   44.6670   34.2390   41.1360 H   0  0  0  0  0  0  0  0  0  0  0  0
   45.5290   35.8300   41.2150 H   0  0  0  0  0  0  0  0  0  0  0  0
   45.0190   32.1020   40.4900 Cl  0  0  0  0  0  0  0  0  0  0  0  0
   46.6360   32.7810   40.6610 C   0  0  0  0  0  0  0  0  0  0  0  0
   46.7370   34.0620   41.2050 C   0  0  0  0  0  0  0  0  0  0  0  0
   48.0220   34.5970   41.3390 C   0  0  0  0  0  0  0  0  0  0  0  0
   48.1230   35.6040   41.7650 H   0  0  0  0  0  0  0  0  0  0  0  0
   49.1640   33.9160   40.9590 C   0  0  0  0  0  3  0  0  0  0  0  0
   49.0410   32.6330   40.4160 C   0  0  0  0  0  0  0  0  0  0  0  0
   50.4670   31.7360   39.9210 Cl  0  0  0  0  0  0  0  0  0  0  0  0
   47.7700   32.0800   40.2730 C   0  0  0  0  0  0  0  0  0  0  0  0
   47.6670   31.0770   39.8480 H   0  0  0  0  0  0  0  0  0  0  0  0
   44.4560   36.0440   44.9410 C   0  0  0  0  0  0  0  0  0  0  0  0
   44.6780   36.0020   43.5530 C   0  0  0  0  0  0  0  0  0  0  0  0
   45.2890   34.8410   43.0490 C   0  0  0  0  0  0  0  0  0  0  0  0
   45.6210   33.8490   43.9250 N   0  0  0  0  0  0  0  0  0  0  0  0
   45.3820   33.9460   45.2540 C   0  0  0  0  0  0  0  0  0  0  0  0
   44.7970   35.0500   45.7570 N   0  0  0  0  0  0  0  0  0  0  0  0
   43.9780   36.9610   45.3090 H   0  0  0  0  0  0  0  0  0  0  0  0
   44.4030   36.8070   42.8880 H   0  0  0  0  0  0  0  0  0  0  0  0
   45.6870   33.0950   45.8610 H   0  0  0  0  0  0  0  0  0  0  0  0
  1 16  1  0  0  0  0
  2  1  1  0  0  0  0
  3  1  1  0  0  0  0
  4  5  1  0  0  0  0
  5  6  1  0  0  0  0
  6  7  2  0  0  0  0
  6  1  1  0  0  0  0
  7  8  1  0  0  0  0
  9  7  1  0  0  0  0
 10  9  2  0  0  0  0
 11 10  1  0  0  0  0
 12 10  1  0  0  0  0
 12  5  2  0  0  0  0
 13 12  1  0  0  0  0
 14 20  1  0  0  0  0
 14 19  1  0  0  0  0
 15 14  2  0  0  0  0
 16 15  1  0  0  0  0
 16 17  2  0  0  0  0
 17 18  1  0  0  0  0
 18 19  2  0  0  0  0
 18 22  1  0  0  0  0
 21 15  1  0  0  0  0
M  END
>  <minimizedAffinity>
-3.91178393

>  <minimizedRMSD>
3.2784822

$$$$
