
 OpenBabel03252505403D

 29 31  0  0  1  0  0  0  0  0999 V2000
   45.8010   32.0720   45.4190 C   0  0  1  0  0  0  0  0  0  0  0  0
   46.7170   33.1510   46.0530 C   0  0  0  0  0  0  0  0  0  0  0  0
   45.9110   33.4120   44.8570 C   0  0  1  0  0  0  0  0  0  0  0  0
   44.9530   31.7540   46.0500 H   0  0  0  0  0  0  0  0  0  0  0  0
   46.3370   33.4700   47.0700 H   0  0  0  0  0  0  0  0  0  0  0  0
   47.7570   32.8530   46.1150 H   0  0  0  0  0  0  0  0  0  0  0  0
   44.9880   34.0660   45.1360 H   0  0  0  0  0  0  0  0  0  0  0  0
   44.0300   33.5570   42.3210 Cl  0  0  0  0  0  0  0  0  0  0  0  0
   45.7390   33.9050   42.3370 C   0  0  0  0  0  0  0  0  0  0  0  0
   46.3840   33.7940   43.5440 C   0  0  0  0  0  0  0  0  0  0  0  0
   47.7520   34.0960   43.4140 C   0  0  0  0  0  0  0  0  0  0  0  0
   48.4010   34.0520   44.2940 H   0  0  0  0  0  0  0  0  0  0  0  0
   48.3650   34.4580   42.2360 C   0  0  0  0  0  3  0  0  0  0  0  0
   47.6360   34.5450   41.0690 C   0  0  0  0  0  0  0  0  0  0  0  0
   48.4480   35.0010   39.6120 Cl  0  0  0  0  0  0  0  0  0  0  0  0
   46.2900   34.2590   41.1340 C   0  0  0  0  0  0  0  0  0  0  0  0
   45.7100   34.3210   40.2350 H   0  0  0  0  0  0  0  0  0  0  0  0
   46.5410   30.8970   44.8700 C   0  0  0  0  0  0  0  0  0  0  0  0
   45.9780   30.1830   43.8100 C   0  0  0  0  0  0  0  0  0  0  0  0
   46.6980   29.1280   43.3010 C   0  0  0  0  0  0  0  0  0  0  0  0
   47.9050   28.8330   43.8450 N   0  0  0  0  0  0  0  0  0  0  0  0
   48.4150   29.5410   44.8640 C   0  0  0  0  0  0  0  0  0  0  0  0
   47.7290   30.5870   45.3880 N   0  0  0  0  0  0  0  0  0  0  0  0
   45.0500   30.3380   43.3300 H   0  0  0  0  0  0  0  0  0  0  0  0
   46.3490   28.5090   42.4760 H   0  0  0  0  0  0  0  0  0  0  0  0
   49.7610   29.0620   45.3200 C   0  0  0  0  0  0  0  0  0  0  0  0
   50.0070   29.4000   46.6370 F   0  0  0  0  0  0  0  0  0  0  0  0
   50.7640   29.6330   44.5340 F   0  0  0  0  0  0  0  0  0  0  0  0
   49.8430   27.6880   45.1220 F   0  0  0  0  0  0  0  0  0  0  0  0
  1  4  1  1  0  0  0
  1  2  1  0  0  0  0
  2  6  1  0  0  0  0
  2  5  1  0  0  0  0
  3  7  1  1  0  0  0
  3  1  1  0  0  0  0
  3  2  1  0  0  0  0
  8  9  1  0  0  0  0
  9 10  1  0  0  0  0
 10  3  1  0  0  0  0
 11 10  2  0  0  0  0
 11 12  1  0  0  0  0
 13 11  1  0  0  0  0
 14 16  1  0  0  0  0
 14 13  2  0  0  0  0
 15 14  1  0  0  0  0
 16  9  2  0  0  0  0
 17 16  1  0  0  0  0
 18 23  1  0  0  0  0
 18  1  1  0  0  0  0
 19 18  2  0  0  0  0
 20 19  1  0  0  0  0
 20 21  2  0  0  0  0
 21 22  1  0  0  0  0
 22 26  1  0  0  0  0
 22 23  2  0  0  0  0
 24 19  1  0  0  0  0
 25 20  1  0  0  0  0
 26 27  1  0  0  0  0
 28 26  1  0  0  0  0
 29 26  1  0  0  0  0
M  END
>  <minimizedAffinity>
-3.79674935

>  <minimizedRMSD>
3.84618354

$$$$
