
 OpenBabel03242521293D

 36 38  0  0  1  0  0  0  0  0999 V2000
   36.1540   29.3240   40.7430 C   0  0  1  0  0  0  0  0  0  0  0  0
   36.7050   29.1320   39.3530 C   0  0  2  0  0  0  0  0  0  0  0  0
   36.8640   30.3220   38.6690 O   0  0  0  0  0  0  0  0  0  0  0  0
   37.9190   30.9750   39.2850 C   0  0  0  0  0  0  0  0  0  0  0  0
   37.4630   31.4810   40.6080 C   0  0  2  0  0  0  0  0  0  0  0  0
   36.7670   30.4710   41.4900 C   0  0  2  0  0  0  0  0  0  0  0  0
   36.3950   28.3850   41.3120 H   0  0  0  0  0  0  0  0  0  0  0  0
   37.6670   28.5750   39.4660 H   0  0  0  0  0  0  0  0  0  0  0  0
   38.1490   31.8550   38.6550 H   0  0  0  0  0  0  0  0  0  0  0  0
   38.8370   30.3600   39.3310 H   0  0  0  0  0  0  0  0  0  0  0  0
   38.3490   31.8840   41.1460 H   0  0  0  0  0  0  0  0  0  0  0  0
   35.9080   31.0380   41.9230 H   0  0  0  0  0  0  0  0  0  0  0  0
   35.2210   26.0520   37.7150 C   0  0  0  0  0  0  0  0  0  0  0  0
   36.0900   26.8490   38.4870 C   0  0  0  0  0  0  0  0  0  0  0  0
   35.8210   28.2420   38.5700 C   0  0  0  0  0  0  0  0  0  0  0  0
   34.7460   28.7270   37.9050 N   0  0  0  0  0  0  0  0  0  0  0  0
   33.9330   27.9310   37.1730 C   0  0  0  0  0  0  0  0  0  0  0  0
   34.1680   26.5930   37.0780 N   0  0  0  0  0  0  0  0  0  0  0  0
   35.4860   25.0030   37.6960 H   0  0  0  0  0  0  0  0  0  0  0  0
   36.9510   26.4890   39.0230 H   0  0  0  0  0  0  0  0  0  0  0  0
   33.0670   28.3300   36.6400 H   0  0  0  0  0  0  0  0  0  0  0  0
   34.7540   29.3790   40.7470 O   0  0  0  0  0  0  0  0  0  0  0  0
   34.4910   29.9530   39.9740 H   0  0  0  0  0  0  0  0  0  0  0  0
   36.6120   32.5720   40.3170 O   0  0  0  0  0  0  0  0  0  0  0  0
   36.9960   33.4200   40.6640 H   0  0  0  0  0  0  0  0  0  0  0  0
   37.5650   30.0570   42.5240 O   0  0  0  0  0  0  0  0  0  0  0  0
   36.3860   27.3770   43.6790 Cl  0  0  0  0  0  0  0  0  0  0  0  0
   38.0650   27.7230   43.3610 C   0  0  0  0  0  0  0  0  0  0  0  0
   38.2860   28.9830   42.8550 C   0  0  0  0  0  0  0  0  0  0  0  0
   39.6380   29.2700   42.5950 C   0  0  0  0  0  0  0  0  0  0  0  0
   40.0900   30.1870   42.1950 H   0  0  0  0  0  0  0  0  0  0  0  0
   40.6550   28.3380   42.8390 C   0  0  0  0  0  3  0  0  0  0  0  0
   40.3140   27.1140   43.3450 C   0  0  0  0  0  0  0  0  0  0  0  0
   41.5210   25.8890   43.6800 Cl  0  0  0  0  0  0  0  0  0  0  0  0
   39.0270   26.7800   43.6150 C   0  0  0  0  0  0  0  0  0  0  0  0
   38.6880   25.8340   44.0150 H   0  0  0  0  0  0  0  0  0  0  0  0
  1 22  1  0  0  0  0
  1  7  1  1  0  0  0
  1  6  1  0  0  0  0
  2  8  1  1  0  0  0
  2  1  1  0  0  0  0
  3  4  1  0  0  0  0
  3  2  1  0  0  0  0
  4 10  1  0  0  0  0
  4  5  1  0  0  0  0
  5 11  1  1  0  0  0
  5  6  1  0  0  0  0
  6 12  1  1  0  0  0
  6 26  1  0  0  0  0
  9  4  1  0  0  0  0
 13 14  1  0  0  0  0
 14 15  2  0  0  0  0
 14 20  1  0  0  0  0
 15  2  1  0  0  0  0
 16 15  1  0  0  0  0
 17 16  2  0  0  0  0
 18 17  1  0  0  0  0
 18 13  2  0  0  0  0
 19 13  1  0  0  0  0
 21 17  1  0  0  0  0
 23 22  1  0  0  0  0
 24  5  1  0  0  0  0
 24 25  1  0  0  0  0
 26 29  1  0  0  0  0
 28 35  1  0  0  0  0
 28 27  1  0  0  0  0
 29 28  2  0  0  0  0
 30 32  2  0  0  0  0
 30 29  1  0  0  0  0
 31 30  1  0  0  0  0
 32 33  1  0  0  0  0
 33 35  2  0  0  0  0
 33 34  1  0  0  0  0
 35 36  1  0  0  0  0
M  END
>  <minimizedAffinity>
-6.25640535

$$$$

 OpenBabel03242521293D

 36 38  0  0  1  0  0  0  0  0999 V2000
   39.2950   31.7520   38.1780 C   0  0  1  0  0  0  0  0  0  0  0  0
   40.1890   32.3970   39.2070 C   0  0  2  0  0  0  0  0  0  0  0  0
   39.6510   33.5540   39.7360 O   0  0  0  0  0  0  0  0  0  0  0  0
   38.5850   33.1530   40.5240 C   0  0  0  0  0  0  0  0  0  0  0  0
   37.4720   32.7160   39.6380 C   0  0  2  0  0  0  0  0  0  0  0  0
   37.8440   31.7270   38.5580 C   0  0  2  0  0  0  0  0  0  0  0  0
   39.6360   30.6860   38.0840 H   0  0  0  0  0  0  0  0  0  0  0  0
   40.3820   31.6230   39.9880 H   0  0  0  0  0  0  0  0  0  0  0  0
   38.2440   34.0540   41.0660 H   0  0  0  0  0  0  0  0  0  0  0  0
   38.8730   32.4040   41.2860 H   0  0  0  0  0  0  0  0  0  0  0  0
   36.6780   32.2730   40.2780 H   0  0  0  0  0  0  0  0  0  0  0  0
   37.2930   32.0920   37.6580 H   0  0  0  0  0  0  0  0  0  0  0  0
   43.8330   32.1530   38.1940 C   0  0  0  0  0  0  0  0  0  0  0  0
   42.5940   31.8000   38.7660 C   0  0  0  0  0  0  0  0  0  0  0  0
   41.5090   32.7050   38.6170 C   0  0  0  0  0  0  0  0  0  0  0  0
   41.7230   33.8550   37.9350 N   0  0  0  0  0  0  0  0  0  0  0  0
   42.9270   34.1610   37.3990 C   0  0  0  0  0  0  0  0  0  0  0  0
   43.9840   33.3100   37.5270 N   0  0  0  0  0  0  0  0  0  0  0  0
   44.6140   31.4180   38.3460 H   0  0  0  0  0  0  0  0  0  0  0  0
   42.3980   30.8950   39.3130 H   0  0  0  0  0  0  0  0  0  0  0  0
   43.0920   35.0910   36.8500 H   0  0  0  0  0  0  0  0  0  0  0  0
   39.4960   32.2920   36.9010 O   0  0  0  0  0  0  0  0  0  0  0  0
   39.5660   33.2800   37.0170 H   0  0  0  0  0  0  0  0  0  0  0  0
   36.9520   33.9060   39.0790 O   0  0  0  0  0  0  0  0  0  0  0  0
   36.0160   34.0550   39.3780 H   0  0  0  0  0  0  0  0  0  0  0  0
   37.3990   30.4630   38.8440 O   0  0  0  0  0  0  0  0  0  0  0  0
   34.6340   29.3150   39.8160 Cl  0  0  0  0  0  0  0  0  0  0  0  0
   36.1890   29.0620   40.5660 C   0  0  0  0  0  0  0  0  0  0  0  0
   37.2260   29.6900   39.9180 C   0  0  0  0  0  0  0  0  0  0  0  0
   38.4830   29.4910   40.5170 C   0  0  0  0  0  0  0  0  0  0  0  0
   39.4670   29.8710   40.2120 H   0  0  0  0  0  0  0  0  0  0  0  0
   38.6400   28.7160   41.6730 C   0  0  0  0  0  3  0  0  0  0  0  0
   37.5320   28.1400   42.2320 C   0  0  0  0  0  0  0  0  0  0  0  0
   37.6370   27.1560   43.6770 Cl  0  0  0  0  0  0  0  0  0  0  0  0
   36.2940   28.2960   41.6980 C   0  0  0  0  0  0  0  0  0  0  0  0
   35.3790   27.8710   42.0860 H   0  0  0  0  0  0  0  0  0  0  0  0
  1  7  1  6  0  0  0
  1  6  1  0  0  0  0
  1  2  1  0  0  0  0
  2  3  1  0  0  0  0
  2  8  1  1  0  0  0
  3  4  1  0  0  0  0
  4  9  1  0  0  0  0
  4 10  1  0  0  0  0
  5 11  1  1  0  0  0
  5  4  1  0  0  0  0
  6 12  1  6  0  0  0
  6 26  1  0  0  0  0
  6  5  1  0  0  0  0
 13 19  1  0  0  0  0
 13 14  1  0  0  0  0
 14 20  1  0  0  0  0
 15 14  2  0  0  0  0
 15  2  1  0  0  0  0
 16 15  1  0  0  0  0
 17 18  1  0  0  0  0
 17 16  2  0  0  0  0
 18 13  2  0  0  0  0
 21 17  1  0  0  0  0
 22 23  1  0  0  0  0
 22  1  1  0  0  0  0
 24 25  1  0  0  0  0
 24  5  1  0  0  0  0
 26 29  1  0  0  0  0
 27 28  1  0  0  0  0
 28 35  1  0  0  0  0
 29 30  1  0  0  0  0
 29 28  2  0  0  0  0
 30 32  2  0  0  0  0
 31 30  1  0  0  0  0
 32 33  1  0  0  0  0
 33 34  1  0  0  0  0
 35 36  1  0  0  0  0
 35 33  2  0  0  0  0
M  END
>  <minimizedAffinity>
-6.20462513

$$$$

 OpenBabel03242521293D

 36 38  0  0  1  0  0  0  0  0999 V2000
   35.7990   29.4440   40.2480 C   0  0  1  0  0  0  0  0  0  0  0  0
   36.5560   29.3790   38.9470 C   0  0  2  0  0  0  0  0  0  0  0  0
   36.9510   30.6220   38.4920 O   0  0  0  0  0  0  0  0  0  0  0  0
   37.9460   31.0450   39.3580 C   0  0  0  0  0  0  0  0  0  0  0  0
   37.3250   31.4160   40.6580 C   0  0  2  0  0  0  0  0  0  0  0  0
   36.3890   30.3900   41.2520 C   0  0  2  0  0  0  0  0  0  0  0  0
   35.8410   28.4130   40.6920 H   0  0  0  0  0  0  0  0  0  0  0  0
   37.4220   28.6950   39.1170 H   0  0  0  0  0  0  0  0  0  0  0  0
   38.3690   31.9670   38.9160 H   0  0  0  0  0  0  0  0  0  0  0  0
   38.7750   30.3170   39.4470 H   0  0  0  0  0  0  0  0  0  0  0  0
   38.1430   31.6250   41.3820 H   0  0  0  0  0  0  0  0  0  0  0  0
   35.5310   30.9960   41.6320 H   0  0  0  0  0  0  0  0  0  0  0  0
   34.7870   28.6530   35.6740 C   0  0  0  0  0  0  0  0  0  0  0  0
   35.5960   29.3130   36.6210 C   0  0  0  0  0  0  0  0  0  0  0  0
   35.7320   28.7250   37.9070 C   0  0  0  0  0  0  0  0  0  0  0  0
   35.0800   27.5650   38.1530 N   0  0  0  0  0  0  0  0  0  0  0  0
   34.3120   26.9590   37.2200 C   0  0  0  0  0  0  0  0  0  0  0  0
   34.1640   27.5010   35.9780 N   0  0  0  0  0  0  0  0  0  0  0  0
   34.7280   29.1560   34.7170 H   0  0  0  0  0  0  0  0  0  0  0  0
   36.1230   30.2360   36.4510 H   0  0  0  0  0  0  0  0  0  0  0  0
   33.7880   26.0220   37.4260 H   0  0  0  0  0  0  0  0  0  0  0  0
   34.4320   29.6760   40.0450 O   0  0  0  0  0  0  0  0  0  0  0  0
   34.3650   30.3800   39.3410 H   0  0  0  0  0  0  0  0  0  0  0  0
   36.6520   32.6360   40.4150 O   0  0  0  0  0  0  0  0  0  0  0  0
   37.0560   33.3720   40.9460 H   0  0  0  0  0  0  0  0  0  0  0  0
   36.9520   29.7380   42.3180 O   0  0  0  0  0  0  0  0  0  0  0  0
   40.0740   30.0310   42.5830 Cl  0  0  0  0  0  0  0  0  0  0  0  0
   39.1540   28.5520   42.6860 C   0  0  0  0  0  0  0  0  0  0  0  0
   37.8000   28.7290   42.5310 C   0  0  0  0  0  0  0  0  0  0  0  0
   37.0510   27.5420   42.6120 C   0  0  0  0  0  0  0  0  0  0  0  0
   35.9660   27.3960   42.5260 H   0  0  0  0  0  0  0  0  0  0  0  0
   37.6540   26.2970   42.8320 C   0  0  0  0  0  3  0  0  0  0  0  0
   39.0150   26.2430   42.9710 C   0  0  0  0  0  0  0  0  0  0  0  0
   39.8520   24.7300   43.2480 Cl  0  0  0  0  0  0  0  0  0  0  0  0
   39.7890   27.3560   42.9020 C   0  0  0  0  0  0  0  0  0  0  0  0
   40.8650   27.3860   43.0020 H   0  0  0  0  0  0  0  0  0  0  0  0
  1  7  1  1  0  0  0
  1  6  1  0  0  0  0
  2  8  1  1  0  0  0
  2  1  1  0  0  0  0
  3  2  1  0  0  0  0
  3  4  1  0  0  0  0
  4 10  1  0  0  0  0
  4  5  1  0  0  0  0
  5  6  1  0  0  0  0
  5 11  1  1  0  0  0
  6 12  1  1  0  0  0
  6 26  1  0  0  0  0
  9  4  1  0  0  0  0
 13 18  2  0  0  0  0
 13 14  1  0  0  0  0
 14 15  2  0  0  0  0
 15 16  1  0  0  0  0
 15  2  1  0  0  0  0
 17 21  1  0  0  0  0
 17 16  2  0  0  0  0
 18 17  1  0  0  0  0
 19 13  1  0  0  0  0
 20 14  1  0  0  0  0
 22  1  1  0  0  0  0
 23 22  1  0  0  0  0
 24  5  1  0  0  0  0
 24 25  1  0  0  0  0
 26 29  1  0  0  0  0
 27 28  1  0  0  0  0
 28 35  1  0  0  0  0
 29 30  1  0  0  0  0
 29 28  2  0  0  0  0
 30 32  2  0  0  0  0
 31 30  1  0  0  0  0
 32 33  1  0  0  0  0
 33 34  1  0  0  0  0
 35 33  2  0  0  0  0
 35 36  1  0  0  0  0
M  END
>  <minimizedAffinity>
-6.03590012

$$$$

 OpenBabel03242521293D

 36 38  0  0  1  0  0  0  0  0999 V2000
   39.1900   31.8080   38.0330 C   0  0  1  0  0  0  0  0  0  0  0  0
   40.0920   32.3460   39.1150 C   0  0  2  0  0  0  0  0  0  0  0  0
   39.5860   33.4810   39.7200 O   0  0  0  0  0  0  0  0  0  0  0  0
   38.4980   33.0600   40.4670 C   0  0  0  0  0  0  0  0  0  0  0  0
   37.3820   32.7250   39.5410 C   0  0  2  0  0  0  0  0  0  0  0  0
   37.7340   31.8040   38.3970 C   0  0  2  0  0  0  0  0  0  0  0  0
   39.4980   30.7400   37.8670 H   0  0  0  0  0  0  0  0  0  0  0  0
   40.2500   31.5130   39.8400 H   0  0  0  0  0  0  0  0  0  0  0  0
   38.1800   33.9310   41.0690 H   0  0  0  0  0  0  0  0  0  0  0  0
   38.7520   32.2500   41.1760 H   0  0  0  0  0  0  0  0  0  0  0  0
   36.5660   32.2650   40.1400 H   0  0  0  0  0  0  0  0  0  0  0  0
   37.2070   32.2500   37.5200 H   0  0  0  0  0  0  0  0  0  0  0  0
   43.7250   32.0340   38.0780 C   0  0  0  0  0  0  0  0  0  0  0  0
   42.4660   31.6830   38.6080 C   0  0  0  0  0  0  0  0  0  0  0  0
   41.4290   32.6520   38.5610 C   0  0  0  0  0  0  0  0  0  0  0  0
   41.7030   33.8580   38.0110 N   0  0  0  0  0  0  0  0  0  0  0  0
   42.9230   34.1610   37.5110 C   0  0  0  0  0  0  0  0  0  0  0  0
   43.9360   33.2500   37.5430 N   0  0  0  0  0  0  0  0  0  0  0  0
   44.4670   31.2490   38.1470 H   0  0  0  0  0  0  0  0  0  0  0  0
   42.2240   30.7330   39.0520 H   0  0  0  0  0  0  0  0  0  0  0  0
   43.1360   35.1370   37.0680 H   0  0  0  0  0  0  0  0  0  0  0  0
   39.4240   32.4300   36.8000 O   0  0  0  0  0  0  0  0  0  0  0  0
   39.5250   33.4040   36.9880 H   0  0  0  0  0  0  0  0  0  0  0  0
   36.9080   33.9690   39.0640 O   0  0  0  0  0  0  0  0  0  0  0  0
   35.9730   34.1270   39.3630 H   0  0  0  0  0  0  0  0  0  0  0  0
   37.2450   30.5380   38.5870 O   0  0  0  0  0  0  0  0  0  0  0  0
   35.1400   29.2480   40.5390 Cl  0  0  0  0  0  0  0  0  0  0  0  0
   35.1440   29.1470   38.7980 C   0  0  0  0  0  0  0  0  0  0  0  0
   36.1920   29.8120   38.2060 C   0  0  0  0  0  0  0  0  0  0  0  0
   36.2030   29.7350   36.8010 C   0  0  0  0  0  0  0  0  0  0  0  0
   36.9150   30.1680   36.0860 H   0  0  0  0  0  0  0  0  0  0  0  0
   35.2210   29.0350   36.0890 C   0  0  0  0  0  3  0  0  0  0  0  0
   34.2240   28.4100   36.7870 C   0  0  0  0  0  0  0  0  0  0  0  0
   32.9550   27.5140   35.9770 Cl  0  0  0  0  0  0  0  0  0  0  0  0
   34.1620   28.4500   38.1430 C   0  0  0  0  0  0  0  0  0  0  0  0
   33.4060   27.9810   38.7560 H   0  0  0  0  0  0  0  0  0  0  0  0
  1  7  1  6  0  0  0
  1  6  1  0  0  0  0
  1  2  1  0  0  0  0
  2  3  1  0  0  0  0
  2  8  1  1  0  0  0
  3  4  1  0  0  0  0
  4  9  1  0  0  0  0
  4 10  1  0  0  0  0
  5 11  1  1  0  0  0
  5  4  1  0  0  0  0
  6 12  1  6  0  0  0
  6 26  1  0  0  0  0
  6  5  1  0  0  0  0
 13 19  1  0  0  0  0
 13 14  1  0  0  0  0
 14 20  1  0  0  0  0
 15 14  2  0  0  0  0
 15  2  1  0  0  0  0
 16 15  1  0  0  0  0
 17 18  1  0  0  0  0
 17 16  2  0  0  0  0
 18 13  2  0  0  0  0
 21 17  1  0  0  0  0
 22 23  1  0  0  0  0
 22  1  1  0  0  0  0
 24 25  1  0  0  0  0
 24  5  1  0  0  0  0
 28 27  1  0  0  0  0
 29 26  1  0  0  0  0
 29 28  1  0  0  0  0
 30 29  2  0  0  0  0
 31 30  1  0  0  0  0
 32 33  2  0  0  0  0
 32 30  1  0  0  0  0
 33 35  1  0  0  0  0
 34 33  1  0  0  0  0
 35 36  1  0  0  0  0
 35 28  2  0  0  0  0
M  END
>  <minimizedAffinity>
-6.02013731

$$$$

 OpenBabel03242521293D

 36 38  0  0  1  0  0  0  0  0999 V2000
   38.7190   31.6750   37.9010 C   0  0  1  0  0  0  0  0  0  0  0  0
   39.7960   32.0180   38.8980 C   0  0  2  0  0  0  0  0  0  0  0  0
   39.5520   33.2030   39.5660 O   0  0  0  0  0  0  0  0  0  0  0  0
   38.4820   32.9510   40.4080 C   0  0  0  0  0  0  0  0  0  0  0  0
   37.2440   32.8400   39.5900 C   0  0  2  0  0  0  0  0  0  0  0  0
   37.3240   31.9090   38.4030 C   0  0  2  0  0  0  0  0  0  0  0  0
   38.8210   30.5760   37.6900 H   0  0  0  0  0  0  0  0  0  0  0  0
   39.8750   31.1480   39.5930 H   0  0  0  0  0  0  0  0  0  0  0  0
   38.3760   33.8450   41.0510 H   0  0  0  0  0  0  0  0  0  0  0  0
   38.6570   32.0880   41.0770 H   0  0  0  0  0  0  0  0  0  0  0  0
   36.4190   32.5080   40.2580 H   0  0  0  0  0  0  0  0  0  0  0  0
   36.8030   32.4660   37.5880 H   0  0  0  0  0  0  0  0  0  0  0  0
   43.1660   33.2900   37.7160 C   0  0  0  0  0  0  0  0  0  0  0  0
   41.9310   33.2540   38.3960 C   0  0  0  0  0  0  0  0  0  0  0  0
   41.1090   32.1080   38.2230 C   0  0  0  0  0  0  0  0  0  0  0  0
   41.5550   31.1150   37.4180 N   0  0  0  0  0  0  0  0  0  0  0  0
   42.7460   31.1840   36.7810 C   0  0  0  0  0  0  0  0  0  0  0  0
   43.5540   32.2710   36.9300 N   0  0  0  0  0  0  0  0  0  0  0  0
   43.7390   34.1910   37.8930 H   0  0  0  0  0  0  0  0  0  0  0  0
   41.5540   34.0290   39.0390 H   0  0  0  0  0  0  0  0  0  0  0  0
   43.0990   30.3780   36.1330 H   0  0  0  0  0  0  0  0  0  0  0  0
   38.9420   32.2860   36.6600 O   0  0  0  0  0  0  0  0  0  0  0  0
   39.2260   33.2230   36.8520 H   0  0  0  0  0  0  0  0  0  0  0  0
   36.9500   34.1610   39.1790 O   0  0  0  0  0  0  0  0  0  0  0  0
   36.0890   34.4670   39.5690 H   0  0  0  0  0  0  0  0  0  0  0  0
   36.6430   30.7400   38.6210 O   0  0  0  0  0  0  0  0  0  0  0  0
   38.2190   28.2760   37.4590 Cl  0  0  0  0  0  0  0  0  0  0  0  0
   37.4500   28.3780   39.0210 C   0  0  0  0  0  0  0  0  0  0  0  0
   36.8330   29.5830   39.2590 C   0  0  0  0  0  0  0  0  0  0  0  0
   36.2100   29.6730   40.5160 C   0  0  0  0  0  0  0  0  0  0  0  0
   35.6530   30.5090   40.9590 H   0  0  0  0  0  0  0  0  0  0  0  0
   36.2300   28.6130   41.4320 C   0  0  0  0  0  3  0  0  0  0  0  0
   36.8760   27.4580   41.0840 C   0  0  0  0  0  0  0  0  0  0  0  0
   36.9510   26.0840   42.1680 Cl  0  0  0  0  0  0  0  0  0  0  0  0
   37.4950   27.3140   39.8850 C   0  0  0  0  0  0  0  0  0  0  0  0
   38.0220   26.4330   39.5460 H   0  0  0  0  0  0  0  0  0  0  0  0
  1  7  1  6  0  0  0
  1  6  1  0  0  0  0
  1  2  1  0  0  0  0
  2  3  1  0  0  0  0
  2  8  1  1  0  0  0
  3  4  1  0  0  0  0
  4  9  1  0  0  0  0
  4 10  1  0  0  0  0
  5 11  1  1  0  0  0
  5  4  1  0  0  0  0
  6 12  1  6  0  0  0
  6 26  1  0  0  0  0
  6  5  1  0  0  0  0
 13 19  1  0  0  0  0
 13 14  1  0  0  0  0
 14 20  1  0  0  0  0
 15 14  2  0  0  0  0
 15  2  1  0  0  0  0
 16 15  1  0  0  0  0
 17 18  1  0  0  0  0
 17 16  2  0  0  0  0
 18 13  2  0  0  0  0
 21 17  1  0  0  0  0
 22 23  1  0  0  0  0
 22  1  1  0  0  0  0
 24 25  1  0  0  0  0
 24  5  1  0  0  0  0
 26 29  1  0  0  0  0
 27 28  1  0  0  0  0
 28 29  2  0  0  0  0
 28 35  1  0  0  0  0
 29 30  1  0  0  0  0
 30 31  1  0  0  0  0
 30 32  2  0  0  0  0
 33 32  1  0  0  0  0
 33 34  1  0  0  0  0
 35 33  2  0  0  0  0
 36 35  1  0  0  0  0
M  END
>  <minimizedAffinity>
-6.01611757

$$$$

 OpenBabel03242521293D

 36 38  0  0  1  0  0  0  0  0999 V2000
   37.2850   29.7150   41.4560 C   0  0  1  0  0  0  0  0  0  0  0  0
   37.6180   28.3880   40.8230 C   0  0  2  0  0  0  0  0  0  0  0  0
   36.5000   27.7100   40.3760 O   0  0  0  0  0  0  0  0  0  0  0  0
   36.0400   28.4200   39.2790 C   0  0  0  0  0  0  0  0  0  0  0  0
   35.4190   29.6860   39.7530 C   0  0  2  0  0  0  0  0  0  0  0  0
   36.2530   30.5060   40.7090 C   0  0  2  0  0  0  0  0  0  0  0  0
   38.2360   30.3140   41.4530 H   0  0  0  0  0  0  0  0  0  0  0  0
   38.3430   28.6010   40.0000 H   0  0  0  0  0  0  0  0  0  0  0  0
   35.2380   27.8050   38.8270 H   0  0  0  0  0  0  0  0  0  0  0  0
   36.8160   28.5620   38.5040 H   0  0  0  0  0  0  0  0  0  0  0  0
   35.1750   30.3030   38.8610 H   0  0  0  0  0  0  0  0  0  0  0  0
   35.5220   30.8470   41.4810 H   0  0  0  0  0  0  0  0  0  0  0  0
   38.7660   25.3820   42.8280 C   0  0  0  0  0  0  0  0  0  0  0  0
   38.0480   26.1470   41.8850 C   0  0  0  0  0  0  0  0  0  0  0  0
   38.3480   27.5310   41.7830 C   0  0  0  0  0  0  0  0  0  0  0  0
   39.3050   28.0410   42.5940 N   0  0  0  0  0  0  0  0  0  0  0  0
   39.9740   27.2780   43.4870 C   0  0  0  0  0  0  0  0  0  0  0  0
   39.7060   25.9470   43.6060 N   0  0  0  0  0  0  0  0  0  0  0  0
   38.4860   24.3370   42.8520 H   0  0  0  0  0  0  0  0  0  0  0  0
   37.2830   25.7660   41.2320 H   0  0  0  0  0  0  0  0  0  0  0  0
   40.7450   27.6970   44.1380 H   0  0  0  0  0  0  0  0  0  0  0  0
   36.9670   29.5810   42.8130 O   0  0  0  0  0  0  0  0  0  0  0  0
   36.3770   28.7800   42.8890 H   0  0  0  0  0  0  0  0  0  0  0  0
   34.1960   29.3010   40.3490 O   0  0  0  0  0  0  0  0  0  0  0  0
   33.4250   29.6750   39.8450 H   0  0  0  0  0  0  0  0  0  0  0  0
   36.7810   31.6180   40.1050 O   0  0  0  0  0  0  0  0  0  0  0  0
   38.3580   30.4000   37.6690 Cl  0  0  0  0  0  0  0  0  0  0  0  0
   38.8660   31.7280   38.6800 C   0  0  0  0  0  0  0  0  0  0  0  0
   37.9690   32.0450   39.6730 C   0  0  0  0  0  0  0  0  0  0  0  0
   38.3710   33.1140   40.4920 C   0  0  0  0  0  0  0  0  0  0  0  0
   37.8540   33.5680   41.3480 H   0  0  0  0  0  0  0  0  0  0  0  0
   39.5860   33.7840   40.2950 C   0  0  0  0  0  3  0  0  0  0  0  0
   40.4000   33.3790   39.2730 C   0  0  0  0  0  0  0  0  0  0  0  0
   41.9350   34.1610   38.9550 Cl  0  0  0  0  0  0  0  0  0  0  0  0
   40.0640   32.3540   38.4490 C   0  0  0  0  0  0  0  0  0  0  0  0
   40.6570   31.9830   37.6250 H   0  0  0  0  0  0  0  0  0  0  0  0
  1  7  1  6  0  0  0
  1 22  1  0  0  0  0
  2  8  1  6  0  0  0
  2  1  1  0  0  0  0
  2 15  1  0  0  0  0
  3  2  1  0  0  0  0
  4  5  1  0  0  0  0
  4  3  1  0  0  0  0
  5 11  1  6  0  0  0
  5 24  1  0  0  0  0
  5  6  1  0  0  0  0
  6  1  1  0  0  0  0
  6 12  1  1  0  0  0
  9  4  1  0  0  0  0
 10  4  1  0  0  0  0
 13 19  1  0  0  0  0
 13 18  1  0  0  0  0
 14 13  2  0  0  0  0
 15 14  1  0  0  0  0
 15 16  2  0  0  0  0
 16 17  1  0  0  0  0
 17 18  2  0  0  0  0
 17 21  1  0  0  0  0
 20 14  1  0  0  0  0
 22 23  1  0  0  0  0
 25 24  1  0  0  0  0
 26  6  1  0  0  0  0
 27 28  1  0  0  0  0
 28 29  1  0  0  0  0
 29 26  1  0  0  0  0
 29 30  2  0  0  0  0
 30 31  1  0  0  0  0
 32 30  1  0  0  0  0
 33 32  2  0  0  0  0
 34 33  1  0  0  0  0
 35 28  2  0  0  0  0
 35 33  1  0  0  0  0
 36 35  1  0  0  0  0
M  END
>  <minimizedAffinity>
-5.92383146

$$$$

 OpenBabel03242521293D

 36 38  0  0  1  0  0  0  0  0999 V2000
   38.2660   30.3010   38.9730 C   0  0  1  0  0  0  0  0  0  0  0  0
   39.5770   30.8900   39.4290 C   0  0  2  0  0  0  0  0  0  0  0  0
   39.4750   32.2250   39.7720 O   0  0  0  0  0  0  0  0  0  0  0  0
   38.7440   32.2610   40.9480 C   0  0  0  0  0  0  0  0  0  0  0  0
   37.3210   31.9510   40.6380 C   0  0  2  0  0  0  0  0  0  0  0  0
   37.0880   30.7110   39.8070 C   0  0  2  0  0  0  0  0  0  0  0  0
   38.3710   29.1860   39.0650 H   0  0  0  0  0  0  0  0  0  0  0  0
   39.9290   30.2590   40.2810 H   0  0  0  0  0  0  0  0  0  0  0  0
   38.7850   33.3070   41.3060 H   0  0  0  0  0  0  0  0  0  0  0  0
   39.1790   31.6270   41.7430 H   0  0  0  0  0  0  0  0  0  0  0  0
   36.7740   31.8520   41.6010 H   0  0  0  0  0  0  0  0  0  0  0  0
   36.3000   31.0180   39.0790 H   0  0  0  0  0  0  0  0  0  0  0  0
   42.2890   31.6680   36.8990 C   0  0  0  0  0  0  0  0  0  0  0  0
   41.3360   31.8680   37.9180 C   0  0  0  0  0  0  0  0  0  0  0  0
   40.6010   30.7410   38.3730 C   0  0  0  0  0  0  0  0  0  0  0  0
   40.8550   29.5380   37.8050 N   0  0  0  0  0  0  0  0  0  0  0  0
   41.7780   29.3840   36.8290 C   0  0  0  0  0  0  0  0  0  0  0  0
   42.4970   30.4480   36.3740 N   0  0  0  0  0  0  0  0  0  0  0  0
   42.8110   32.5690   36.6010 H   0  0  0  0  0  0  0  0  0  0  0  0
   41.1140   32.8120   38.3840 H   0  0  0  0  0  0  0  0  0  0  0  0
   41.9770   28.4100   36.3750 H   0  0  0  0  0  0  0  0  0  0  0  0
   38.0450   30.5150   37.6070 O   0  0  0  0  0  0  0  0  0  0  0  0
   38.3100   31.4580   37.4210 H   0  0  0  0  0  0  0  0  0  0  0  0
   36.8240   33.1010   39.9830 O   0  0  0  0  0  0  0  0  0  0  0  0
   36.1100   33.5320   40.5240 H   0  0  0  0  0  0  0  0  0  0  0  0
   36.5920   29.6770   40.5570 O   0  0  0  0  0  0  0  0  0  0  0  0
   38.3780   29.4520   43.1390 Cl  0  0  0  0  0  0  0  0  0  0  0  0
   37.7930   28.1330   42.1590 C   0  0  0  0  0  0  0  0  0  0  0  0
   37.0310   28.5330   41.0870 C   0  0  0  0  0  0  0  0  0  0  0  0
   36.5550   27.4750   40.2920 C   0  0  0  0  0  0  0  0  0  0  0  0
   35.9330   27.5090   39.3880 H   0  0  0  0  0  0  0  0  0  0  0  0
   36.8460   26.1360   40.5860 C   0  0  0  0  0  3  0  0  0  0  0  0
   37.6170   25.8580   41.6820 C   0  0  0  0  0  0  0  0  0  0  0  0
   38.0280   24.2140   42.1230 Cl  0  0  0  0  0  0  0  0  0  0  0  0
   38.1030   26.8380   42.4860 C   0  0  0  0  0  0  0  0  0  0  0  0
   38.7160   26.6900   43.3640 H   0  0  0  0  0  0  0  0  0  0  0  0
  1  7  1  1  0  0  0
  1  2  1  0  0  0  0
  1  6  1  0  0  0  0
  2  3  1  0  0  0  0
  2  8  1  1  0  0  0
  3  4  1  0  0  0  0
  4  9  1  0  0  0  0
  4 10  1  0  0  0  0
  5  4  1  0  0  0  0
  5 11  1  1  0  0  0
  6 12  1  6  0  0  0
  6 26  1  0  0  0  0
  6  5  1  0  0  0  0
 13 14  1  0  0  0  0
 14 15  2  0  0  0  0
 14 20  1  0  0  0  0
 15  2  1  0  0  0  0
 16 15  1  0  0  0  0
 17 16  2  0  0  0  0
 18 17  1  0  0  0  0
 18 13  2  0  0  0  0
 19 13  1  0  0  0  0
 21 17  1  0  0  0  0
 22  1  1  0  0  0  0
 23 22  1  0  0  0  0
 24 25  1  0  0  0  0
 24  5  1  0  0  0  0
 26 29  1  0  0  0  0
 28 35  1  0  0  0  0
 28 27  1  0  0  0  0
 29 28  2  0  0  0  0
 30 32  2  0  0  0  0
 30 29  1  0  0  0  0
 31 30  1  0  0  0  0
 32 33  1  0  0  0  0
 33 34  1  0  0  0  0
 33 35  2  0  0  0  0
 35 36  1  0  0  0  0
M  END
>  <minimizedAffinity>
-5.61176729

$$$$

 OpenBabel03242521293D

 36 38  0  0  1  0  0  0  0  0999 V2000
   38.4890   29.4350   41.6340 C   0  0  1  0  0  0  0  0  0  0  0  0
   37.8920   28.3470   40.7790 C   0  0  2  0  0  0  0  0  0  0  0  0
   36.5260   28.4760   40.6210 O   0  0  0  0  0  0  0  0  0  0  0  0
   36.3400   29.5830   39.8100 C   0  0  0  0  0  0  0  0  0  0  0  0
   36.6400   30.8100   40.5960 C   0  0  2  0  0  0  0  0  0  0  0  0
   37.9570   30.8060   41.3380 C   0  0  2  0  0  0  0  0  0  0  0  0
   39.5900   29.4470   41.4090 H   0  0  0  0  0  0  0  0  0  0  0  0
   38.4360   28.3740   39.8040 H   0  0  0  0  0  0  0  0  0  0  0  0
   35.2630   29.6050   39.5580 H   0  0  0  0  0  0  0  0  0  0  0  0
   36.8960   29.5130   38.8550 H   0  0  0  0  0  0  0  0  0  0  0  0
   36.6180   31.6770   39.9010 H   0  0  0  0  0  0  0  0  0  0  0  0
   37.7070   31.2500   42.3310 H   0  0  0  0  0  0  0  0  0  0  0  0
   37.4820   24.8270   42.1260 C   0  0  0  0  0  0  0  0  0  0  0  0
   37.1460   26.0720   41.5540 C   0  0  0  0  0  0  0  0  0  0  0  0
   38.1860   27.0190   41.3610 C   0  0  0  0  0  0  0  0  0  0  0  0
   39.4410   26.6780   41.7350 N   0  0  0  0  0  0  0  0  0  0  0  0
   39.7280   25.4750   42.2820 C   0  0  0  0  0  0  0  0  0  0  0  0
   38.7490   24.5470   42.4780 N   0  0  0  0  0  0  0  0  0  0  0  0
   36.6420   24.1550   42.2450 H   0  0  0  0  0  0  0  0  0  0  0  0
   36.1570   26.3670   41.2500 H   0  0  0  0  0  0  0  0  0  0  0  0
   40.7440   25.2070   42.5810 H   0  0  0  0  0  0  0  0  0  0  0  0
   38.4190   29.1250   42.9980 O   0  0  0  0  0  0  0  0  0  0  0  0
   37.5100   28.7470   43.1570 H   0  0  0  0  0  0  0  0  0  0  0  0
   35.5550   30.9550   41.4900 O   0  0  0  0  0  0  0  0  0  0  0  0
   35.0460   31.7860   41.2940 H   0  0  0  0  0  0  0  0  0  0  0  0
   38.8880   31.6120   40.7350 O   0  0  0  0  0  0  0  0  0  0  0  0
   37.9210   32.0020   37.7650 Cl  0  0  0  0  0  0  0  0  0  0  0  0
   39.5570   31.7150   38.2990 C   0  0  0  0  0  0  0  0  0  0  0  0
   39.6810   31.5830   39.6620 C   0  0  0  0  0  0  0  0  0  0  0  0
   40.9970   31.3510   40.1010 C   0  0  0  0  0  0  0  0  0  0  0  0
   41.3750   31.2100   41.1220 H   0  0  0  0  0  0  0  0  0  0  0  0
   42.0730   31.2660   39.2080 C   0  0  0  0  0  3  0  0  0  0  0  0
   41.8270   31.4130   37.8700 C   0  0  0  0  0  0  0  0  0  0  0  0
   43.1130   31.3210   36.6830 Cl  0  0  0  0  0  0  0  0  0  0  0  0
   40.5780   31.6390   37.3880 C   0  0  0  0  0  0  0  0  0  0  0  0
   40.3140   31.7640   36.3480 H   0  0  0  0  0  0  0  0  0  0  0  0
  1  7  1  6  0  0  0
  1 22  1  0  0  0  0
  2  8  1  6  0  0  0
  2 15  1  0  0  0  0
  2  1  1  0  0  0  0
  3  2  1  0  0  0  0
  4  5  1  0  0  0  0
  4  3  1  0  0  0  0
  5 11  1  6  0  0  0
  5  6  1  0  0  0  0
  5 24  1  0  0  0  0
  6  1  1  0  0  0  0
  6 12  1  1  0  0  0
  9  4  1  0  0  0  0
 10  4  1  0  0  0  0
 13 19  1  0  0  0  0
 13 18  1  0  0  0  0
 14 13  2  0  0  0  0
 15 14  1  0  0  0  0
 15 16  2  0  0  0  0
 16 17  1  0  0  0  0
 17 18  2  0  0  0  0
 17 21  1  0  0  0  0
 20 14  1  0  0  0  0
 22 23  1  0  0  0  0
 25 24  1  0  0  0  0
 26  6  1  0  0  0  0
 27 28  1  0  0  0  0
 28 29  1  0  0  0  0
 29 30  2  0  0  0  0
 29 26  1  0  0  0  0
 30 31  1  0  0  0  0
 32 30  1  0  0  0  0
 33 32  2  0  0  0  0
 34 33  1  0  0  0  0
 35 33  1  0  0  0  0
 35 28  2  0  0  0  0
 36 35  1  0  0  0  0
M  END
>  <minimizedAffinity>
-5.47205067

$$$$

 OpenBabel03242521293D

 36 38  0  0  1  0  0  0  0  0999 V2000
   39.0840   31.8720   38.1190 C   0  0  1  0  0  0  0  0  0  0  0  0
   40.0050   32.4690   39.1520 C   0  0  2  0  0  0  0  0  0  0  0  0
   39.5240   33.6510   39.6820 O   0  0  0  0  0  0  0  0  0  0  0  0
   38.4370   33.3000   40.4660 C   0  0  0  0  0  0  0  0  0  0  0  0
   37.3060   32.9210   39.5770 C   0  0  2  0  0  0  0  0  0  0  0  0
   37.6320   31.9170   38.4950 C   0  0  2  0  0  0  0  0  0  0  0  0
   39.3730   30.7900   38.0250 H   0  0  0  0  0  0  0  0  0  0  0  0
   40.1580   31.6850   39.9330 H   0  0  0  0  0  0  0  0  0  0  0  0
   38.1390   34.2160   41.0100 H   0  0  0  0  0  0  0  0  0  0  0  0
   38.6860   32.5370   41.2280 H   0  0  0  0  0  0  0  0  0  0  0  0
   36.4890   32.5160   40.2130 H   0  0  0  0  0  0  0  0  0  0  0  0
   37.1030   32.3100   37.5940 H   0  0  0  0  0  0  0  0  0  0  0  0
   43.5890   31.9860   38.0150 C   0  0  0  0  0  0  0  0  0  0  0  0
   42.3290   31.6920   38.5750 C   0  0  0  0  0  0  0  0  0  0  0  0
   41.3410   32.7130   38.5670 C   0  0  0  0  0  0  0  0  0  0  0  0
   41.6620   33.9110   38.0230 N   0  0  0  0  0  0  0  0  0  0  0  0
   42.8820   34.1580   37.4950 C   0  0  0  0  0  0  0  0  0  0  0  0
   43.8480   33.1960   37.4900 N   0  0  0  0  0  0  0  0  0  0  0  0
   44.2920   31.1640   38.0560 H   0  0  0  0  0  0  0  0  0  0  0  0
   42.0500   30.7510   39.0140 H   0  0  0  0  0  0  0  0  0  0  0  0
   43.1340   35.1270   37.0580 H   0  0  0  0  0  0  0  0  0  0  0  0
   39.3150   32.4030   36.8440 O   0  0  0  0  0  0  0  0  0  0  0  0
   39.4330   33.3870   36.9630 H   0  0  0  0  0  0  0  0  0  0  0  0
   36.8470   34.1360   39.0190 O   0  0  0  0  0  0  0  0  0  0  0  0
   35.9180   34.3310   39.3150 H   0  0  0  0  0  0  0  0  0  0  0  0
   37.1250   30.6760   38.7770 O   0  0  0  0  0  0  0  0  0  0  0  0
   38.2730   29.9920   41.6270 Cl  0  0  0  0  0  0  0  0  0  0  0  0
   38.1160   28.8980   40.2770 C   0  0  0  0  0  0  0  0  0  0  0  0
   37.5790   29.4780   39.1520 C   0  0  0  0  0  0  0  0  0  0  0  0
   37.4500   28.6030   38.0590 C   0  0  0  0  0  0  0  0  0  0  0  0
   37.0570   28.8000   37.0520 H   0  0  0  0  0  0  0  0  0  0  0  0
   37.8420   27.2600   38.1320 C   0  0  0  0  0  3  0  0  0  0  0  0
   38.3670   26.7940   39.3070 C   0  0  0  0  0  0  0  0  0  0  0  0
   38.8830   25.1300   39.4870 Cl  0  0  0  0  0  0  0  0  0  0  0  0
   38.5140   27.5920   40.3950 C   0  0  0  0  0  0  0  0  0  0  0  0
   38.9200   27.2900   41.3510 H   0  0  0  0  0  0  0  0  0  0  0  0
  1  7  1  6  0  0  0
  1  6  1  0  0  0  0
  1  2  1  0  0  0  0
  2  3  1  0  0  0  0
  2  8  1  1  0  0  0
  3  4  1  0  0  0  0
  4  9  1  0  0  0  0
  4 10  1  0  0  0  0
  5 11  1  1  0  0  0
  5  4  1  0  0  0  0
  6 12  1  6  0  0  0
  6 26  1  0  0  0  0
  6  5  1  0  0  0  0
 13 19  1  0  0  0  0
 13 14  1  0  0  0  0
 14 20  1  0  0  0  0
 15 14  2  0  0  0  0
 15  2  1  0  0  0  0
 16 15  1  0  0  0  0
 17 16  2  0  0  0  0
 18 17  1  0  0  0  0
 18 13  2  0  0  0  0
 21 17  1  0  0  0  0
 22 23  1  0  0  0  0
 22  1  1  0  0  0  0
 24 25  1  0  0  0  0
 24  5  1  0  0  0  0
 26 29  1  0  0  0  0
 28 35  1  0  0  0  0
 28 27  1  0  0  0  0
 29 28  2  0  0  0  0
 30 32  2  0  0  0  0
 30 29  1  0  0  0  0
 31 30  1  0  0  0  0
 32 33  1  0  0  0  0
 33 34  1  0  0  0  0
 33 35  2  0  0  0  0
 35 36  1  0  0  0  0
M  END
>  <minimizedAffinity>
-5.42837143

$$$$
