
 OpenBabel03242514573D

 26 27  0  0  0  0  0  0  0  0999 V2000
   42.2860   34.7110   41.2820 C   0  0  0  0  0  0  0  0  0  0  0  0
   41.9060   34.2120   42.1970 H   0  0  0  0  0  0  0  0  0  0  0  0
   42.4610   33.9100   40.5380 H   0  0  0  0  0  0  0  0  0  0  0  0
   41.2300   35.6880   40.8410 C   0  0  0  0  0  0  0  0  0  0  0  0
   41.6400   36.6360   40.4400 H   0  0  0  0  0  0  0  0  0  0  0  0
   40.6030   36.0120   41.7120 H   0  0  0  0  0  0  0  0  0  0  0  0
   42.0110   36.0260   37.9060 Cl  0  0  0  0  0  0  0  0  0  0  0  0
   40.6030   35.1790   38.4530 C   0  0  0  0  0  0  0  0  0  0  0  0
   40.3360   35.0830   39.8250 C   0  0  0  0  0  0  0  0  0  0  0  0
   39.1940   34.3920   40.1680 C   0  0  0  0  0  0  0  0  0  0  0  0
   38.9810   34.3160   41.2430 H   0  0  0  0  0  0  0  0  0  0  0  0
   38.2850   33.7860   39.3290 C   0  0  0  0  0  0  0  0  0  0  0  0
   38.5810   33.9010   37.9720 C   0  0  0  0  0  0  0  0  0  0  0  0
   37.4870   33.1640   36.7940 Cl  0  0  0  0  0  0  0  0  0  0  0  0
   39.7180   34.5840   37.5530 C   0  0  0  0  0  0  0  0  0  0  0  0
   39.9520   34.6760   36.5000 H   0  0  0  0  0  0  0  0  0  0  0  0
   43.8500   35.4820   41.6950 S   0  0  0  0  0  0  0  0  0  0  0  0
   44.4440   35.0120   43.3260 C   0  0  0  0  0  0  0  0  0  0  0  0
   45.1850   33.8150   43.3760 C   0  0  0  0  0  0  0  0  0  0  0  0
   45.6640   33.4170   44.6310 C   0  0  0  0  0  0  0  0  0  0  0  0
   45.3930   34.1890   45.7050 N   0  0  0  0  0  0  0  0  0  0  0  0
   44.6780   35.3370   45.6370 C   0  0  0  0  0  0  0  0  0  0  0  0
   44.2150   35.7260   44.4390 N   0  0  0  0  0  0  0  0  0  0  0  0
   45.3750   33.2350   42.4880 H   0  0  0  0  0  0  0  0  0  0  0  0
   46.2290   32.4970   44.6380 H   0  0  0  0  0  0  0  0  0  0  0  0
   44.5110   35.8850   46.5380 H   0  0  0  0  0  0  0  0  0  0  0  0
  1 17  1  0  0  0  0
  1  2  1  0  0  0  0
  3  1  1  0  0  0  0
  4  1  1  0  0  0  0
  4  6  1  0  0  0  0
  5  4  1  0  0  0  0
  7  8  1  0  0  0  0
  8  9  1  0  0  0  0
  9 10  2  0  0  0  0
  9  4  1  0  0  0  0
 10 11  1  0  0  0  0
 12 10  1  0  0  0  0
 13 12  2  0  0  0  0
 14 13  1  0  0  0  0
 15 13  1  0  0  0  0
 15  8  2  0  0  0  0
 16 15  1  0  0  0  0
 17 18  1  0  0  0  0
 18 19  2  0  0  0  0
 18 23  1  0  0  0  0
 19 20  1  0  0  0  0
 20 25  1  0  0  0  0
 20 21  2  0  0  0  0
 22 21  1  0  0  0  0
 22 26  1  0  0  0  0
 23 22  2  0  0  0  0
 24 19  1  0  0  0  0
M  END
>  <minimizedAffinity>
-5.5726738

>  <minimizedRMSD>
2.07601309

$$$$
