
 OpenBabel03242516233D

 30 32  0  0  0  0  0  0  0  0999 V2000
   38.2000   24.8590   41.8920 C   0  0  0  0  0  0  0  0  0  0  0  0
   37.6480   26.0680   42.2340 C   0  0  0  0  0  0  0  0  0  0  0  0
   38.2430   26.9500   43.1050 C   0  0  0  0  0  0  0  0  0  0  0  0
   39.4660   26.6120   43.6780 C   0  0  0  0  0  0  0  0  0  0  0  0
   40.0430   25.4220   43.3630 C   0  0  0  0  0  0  0  0  0  0  0  0
   39.3950   24.5790   42.4810 C   0  0  0  0  0  0  0  0  0  0  0  0
   36.6800   26.3400   41.7830 H   0  0  0  0  0  0  0  0  0  0  0  0
   39.9290   27.3180   44.3670 H   0  0  0  0  0  0  0  0  0  0  0  0
   40.9930   25.1440   43.7990 H   0  0  0  0  0  0  0  0  0  0  0  0
   39.8990   23.6430   42.2640 H   0  0  0  0  0  0  0  0  0  0  0  0
   37.6310   21.9760   39.7310 C   0  0  0  0  0  0  0  0  0  0  0  0
   36.3580   22.1890   39.2140 C   0  0  0  0  0  0  0  0  0  0  0  0
   35.6840   23.3350   39.6090 C   0  0  0  0  0  0  0  0  0  0  0  0
   36.2650   24.2250   40.4860 N   0  0  0  0  0  0  0  0  0  0  0  0
   37.5300   23.9540   40.9610 C   0  0  0  0  0  0  0  0  0  0  0  0
   38.2090   22.8400   40.5900 N   0  0  0  0  0  0  0  0  0  0  0  0
   38.1030   21.0670   39.3860 H   0  0  0  0  0  0  0  0  0  0  0  0
   35.8290   21.5600   38.5330 H   0  0  0  0  0  0  0  0  0  0  0  0
   34.7110   23.6720   39.3270 H   0  0  0  0  0  0  0  0  0  0  0  0
   37.4470   28.4990   43.4870 S   0  0  0  0  0  0  0  0  0  0  0  0
   39.9320   30.3520   42.6610 Cl  0  0  0  0  0  0  0  0  0  0  0  0
   38.4600   30.3420   41.7250 C   0  0  0  0  0  0  0  0  0  0  0  0
   37.3700   29.5640   42.0440 C   0  0  0  0  0  0  0  0  0  0  0  0
   36.2500   29.6300   41.2360 C   0  0  0  0  0  0  0  0  0  0  0  0
   35.3830   29.0290   41.4640 H   0  0  0  0  0  0  0  0  0  0  0  0
   36.2670   30.4840   40.1290 C   0  0  0  0  0  3  0  0  0  0  0  0
   37.3690   31.2700   39.8080 C   0  0  0  0  0  0  0  0  0  0  0  0
   37.3350   32.3260   38.4040 Cl  0  0  0  0  0  0  0  0  0  0  0  0
   38.4570   31.1680   40.6420 C   0  0  0  0  0  0  0  0  0  0  0  0
   39.3040   31.8040   40.3550 H   0  0  0  0  0  0  0  0  0  0  0  0
  1  2  2  0  0  0  0
  1  6  1  0  0  0  0
  2  3  1  0  0  0  0
  3 20  1  0  0  0  0
  3  4  2  0  0  0  0
  4  8  1  0  0  0  0
  5  4  1  0  0  0  0
  5  9  1  0  0  0  0
  6  5  2  0  0  0  0
  7  2  1  0  0  0  0
 10  6  1  0  0  0  0
 11 16  1  0  0  0  0
 12 13  1  0  0  0  0
 12 11  2  0  0  0  0
 13 14  2  0  0  0  0
 14 15  1  0  0  0  0
 15  1  1  0  0  0  0
 16 15  2  0  0  0  0
 17 11  1  0  0  0  0
 18 12  1  0  0  0  0
 19 13  1  0  0  0  0
 22 23  1  0  0  0  0
 22 21  1  0  0  0  0
 23 20  1  0  0  0  0
 24 25  1  0  0  0  0
 24 23  2  0  0  0  0
 26 24  1  0  0  0  0
 27 26  2  0  0  0  0
 27 29  1  0  0  0  0
 28 27  1  0  0  0  0
 29 22  2  0  0  0  0
 30 29  1  0  0  0  0
M  END
>  <minimizedAffinity>
-5.65699625

$$$$

 OpenBabel03242516233D

 30 32  0  0  0  0  0  0  0  0999 V2000
   38.2020   31.2290   38.4510 C   0  0  0  0  0  0  0  0  0  0  0  0
   37.6630   30.6290   39.5620 C   0  0  0  0  0  0  0  0  0  0  0  0
   36.6300   29.7230   39.5040 C   0  0  0  0  0  0  0  0  0  0  0  0
   36.0920   29.3920   38.2640 C   0  0  0  0  0  0  0  0  0  0  0  0
   36.5990   29.9660   37.1420 C   0  0  0  0  0  0  0  0  0  0  0  0
   37.6380   30.8680   37.2660 C   0  0  0  0  0  0  0  0  0  0  0  0
   38.0860   30.8890   40.5460 H   0  0  0  0  0  0  0  0  0  0  0  0
   35.2720   28.6730   38.2300 H   0  0  0  0  0  0  0  0  0  0  0  0
   36.1930   29.7190   36.1700 H   0  0  0  0  0  0  0  0  0  0  0  0
   38.0060   31.2960   36.3390 H   0  0  0  0  0  0  0  0  0  0  0  0
   41.3050   32.9820   37.6760 C   0  0  0  0  0  0  0  0  0  0  0  0
   41.4120   33.9380   38.6810 C   0  0  0  0  0  0  0  0  0  0  0  0
   40.4090   33.9840   39.6370 C   0  0  0  0  0  0  0  0  0  0  0  0
   39.3460   33.1080   39.5840 N   0  0  0  0  0  0  0  0  0  0  0  0
   39.3010   32.1850   38.5620 C   0  0  0  0  0  0  0  0  0  0  0  0
   40.2700   32.1210   37.6150 N   0  0  0  0  0  0  0  0  0  0  0  0
   42.1160   32.9970   36.9620 H   0  0  0  0  0  0  0  0  0  0  0  0
   42.1930   34.6550   38.8040 H   0  0  0  0  0  0  0  0  0  0  0  0
   40.3110   34.6370   40.4760 H   0  0  0  0  0  0  0  0  0  0  0  0
   35.9980   28.9960   41.0040 S   0  0  0  0  0  0  0  0  0  0  0  0
   38.3730   29.5470   43.0870 Cl  0  0  0  0  0  0  0  0  0  0  0  0
   38.0630   27.9450   42.4730 C   0  0  0  0  0  0  0  0  0  0  0  0
   37.0550   27.6640   41.5770 C   0  0  0  0  0  0  0  0  0  0  0  0
   36.8930   26.3580   41.1520 C   0  0  0  0  0  0  0  0  0  0  0  0
   36.1100   26.1130   40.4510 H   0  0  0  0  0  0  0  0  0  0  0  0
   37.7570   25.3760   41.6440 C   0  0  0  0  0  3  0  0  0  0  0  0
   38.7750   25.6620   42.5480 C   0  0  0  0  0  0  0  0  0  0  0  0
   39.8330   24.3870   43.1350 Cl  0  0  0  0  0  0  0  0  0  0  0  0
   38.8950   26.9730   42.9420 C   0  0  0  0  0  0  0  0  0  0  0  0
   39.7090   27.1560   43.6540 H   0  0  0  0  0  0  0  0  0  0  0  0
  1 15  1  0  0  0  0
  1  2  1  0  0  0  0
  2  7  1  0  0  0  0
  3  2  2  0  0  0  0
  3 20  1  0  0  0  0
  4  3  1  0  0  0  0
  5  6  1  0  0  0  0
  5  4  2  0  0  0  0
  6  1  2  0  0  0  0
  8  4  1  0  0  0  0
  9  5  1  0  0  0  0
 10  6  1  0  0  0  0
 11 12  1  0  0  0  0
 12 18  1  0  0  0  0
 12 13  2  0  0  0  0
 13 19  1  0  0  0  0
 14 13  1  0  0  0  0
 15 14  2  0  0  0  0
 16 11  2  0  0  0  0
 16 15  1  0  0  0  0
 17 11  1  0  0  0  0
 20 23  1  0  0  0  0
 22 29  1  0  0  0  0
 22 21  1  0  0  0  0
 23 22  2  0  0  0  0
 24 23  1  0  0  0  0
 24 26  2  0  0  0  0
 25 24  1  0  0  0  0
 26 27  1  0  0  0  0
 27 29  2  0  0  0  0
 27 28  1  0  0  0  0
 29 30  1  0  0  0  0
M  END
>  <minimizedAffinity>
-5.58732271

$$$$

 OpenBabel03242516233D

 30 32  0  0  0  0  0  0  0  0999 V2000
   38.2700   24.7100   41.8320 C   0  0  0  0  0  0  0  0  0  0  0  0
   37.7170   25.9060   42.2150 C   0  0  0  0  0  0  0  0  0  0  0  0
   38.3120   26.7590   43.1150 C   0  0  0  0  0  0  0  0  0  0  0  0
   39.5360   26.4030   43.6750 C   0  0  0  0  0  0  0  0  0  0  0  0
   40.1140   25.2250   43.3200 C   0  0  0  0  0  0  0  0  0  0  0  0
   39.4660   24.4120   42.4100 C   0  0  0  0  0  0  0  0  0  0  0  0
   36.7480   26.1920   41.7740 H   0  0  0  0  0  0  0  0  0  0  0  0
   39.9990   27.0860   44.3880 H   0  0  0  0  0  0  0  0  0  0  0  0
   41.0650   24.9330   43.7450 H   0  0  0  0  0  0  0  0  0  0  0  0
   39.9710   23.4840   42.1610 H   0  0  0  0  0  0  0  0  0  0  0  0
   37.7650   22.0050   39.4380 C   0  0  0  0  0  0  0  0  0  0  0  0
   36.4350   22.1390   39.0540 C   0  0  0  0  0  0  0  0  0  0  0  0
   35.7000   23.1690   39.6210 C   0  0  0  0  0  0  0  0  0  0  0  0
   36.2770   24.0250   40.5340 N   0  0  0  0  0  0  0  0  0  0  0  0
   37.6010   23.8370   40.8710 C   0  0  0  0  0  0  0  0  0  0  0  0
   38.3400   22.8360   40.3300 N   0  0  0  0  0  0  0  0  0  0  0  0
   38.2830   21.1850   38.9610 H   0  0  0  0  0  0  0  0  0  0  0  0
   35.9030   21.5290   38.3580 H   0  0  0  0  0  0  0  0  0  0  0  0
   34.6790   23.4340   39.4580 H   0  0  0  0  0  0  0  0  0  0  0  0
   37.5150   28.2930   43.5500 S   0  0  0  0  0  0  0  0  0  0  0  0
   35.7250   29.1160   41.0180 Cl  0  0  0  0  0  0  0  0  0  0  0  0
   37.2180   29.9430   41.3780 C   0  0  0  0  0  0  0  0  0  0  0  0
   38.0170   29.6210   42.4520 C   0  0  0  0  0  0  0  0  0  0  0  0
   39.1820   30.3390   42.6490 C   0  0  0  0  0  0  0  0  0  0  0  0
   39.8250   30.1070   43.4840 H   0  0  0  0  0  0  0  0  0  0  0  0
   39.5050   31.3600   41.7500 C   0  0  0  0  0  3  0  0  0  0  0  0
   38.6970   31.6830   40.6650 C   0  0  0  0  0  0  0  0  0  0  0  0
   39.1520   32.9770   39.5660 Cl  0  0  0  0  0  0  0  0  0  0  0  0
   37.5500   30.9420   40.5130 C   0  0  0  0  0  0  0  0  0  0  0  0
   36.9420   31.2270   39.6450 H   0  0  0  0  0  0  0  0  0  0  0  0
  1  2  2  0  0  0  0
  1  6  1  0  0  0  0
  2  3  1  0  0  0  0
  3 20  1  0  0  0  0
  3  4  2  0  0  0  0
  4  8  1  0  0  0  0
  5  4  1  0  0  0  0
  5  9  1  0  0  0  0
  6  5  2  0  0  0  0
  7  2  1  0  0  0  0
 10  6  1  0  0  0  0
 11 16  1  0  0  0  0
 12 11  2  0  0  0  0
 12 13  1  0  0  0  0
 13 14  2  0  0  0  0
 14 15  1  0  0  0  0
 15  1  1  0  0  0  0
 16 15  2  0  0  0  0
 17 11  1  0  0  0  0
 18 12  1  0  0  0  0
 19 13  1  0  0  0  0
 21 22  1  0  0  0  0
 22 23  1  0  0  0  0
 23 24  2  0  0  0  0
 23 20  1  0  0  0  0
 24 25  1  0  0  0  0
 26 24  1  0  0  0  0
 27 26  2  0  0  0  0
 28 27  1  0  0  0  0
 29 27  1  0  0  0  0
 29 22  2  0  0  0  0
 30 29  1  0  0  0  0
M  END
>  <minimizedAffinity>
-5.58036852

$$$$

 OpenBabel03242516233D

 30 32  0  0  0  0  0  0  0  0999 V2000
   38.0350   31.3320   38.4690 C   0  0  0  0  0  0  0  0  0  0  0  0
   37.4140   30.6580   39.4920 C   0  0  0  0  0  0  0  0  0  0  0  0
   36.4100   29.7410   39.2900 C   0  0  0  0  0  0  0  0  0  0  0  0
   35.9910   29.4740   37.9910 C   0  0  0  0  0  0  0  0  0  0  0  0
   36.5820   30.1220   36.9530 C   0  0  0  0  0  0  0  0  0  0  0  0
   37.5860   31.0320   37.2200 C   0  0  0  0  0  0  0  0  0  0  0  0
   37.7440   30.8670   40.5220 H   0  0  0  0  0  0  0  0  0  0  0  0
   35.1930   28.7450   37.8420 H   0  0  0  0  0  0  0  0  0  0  0  0
   36.2680   29.9260   35.9360 H   0  0  0  0  0  0  0  0  0  0  0  0
   38.0250   31.5210   36.3560 H   0  0  0  0  0  0  0  0  0  0  0  0
   39.8450   34.0960   40.0160 C   0  0  0  0  0  0  0  0  0  0  0  0
   41.0390   34.1550   39.3070 C   0  0  0  0  0  0  0  0  0  0  0  0
   41.2300   33.2370   38.2850 C   0  0  0  0  0  0  0  0  0  0  0  0
   40.2620   32.3010   37.9910 N   0  0  0  0  0  0  0  0  0  0  0  0
   39.1000   32.2980   38.7320 C   0  0  0  0  0  0  0  0  0  0  0  0
   38.8910   33.1850   39.7370 N   0  0  0  0  0  0  0  0  0  0  0  0
   39.7560   34.8370   40.7980 H   0  0  0  0  0  0  0  0  0  0  0  0
   41.8440   34.8400   39.4600 H   0  0  0  0  0  0  0  0  0  0  0  0
   42.0680   33.1220   37.6350 H   0  0  0  0  0  0  0  0  0  0  0  0
   35.6650   28.9160   40.6840 S   0  0  0  0  0  0  0  0  0  0  0  0
   36.6200   26.0820   39.5280 Cl  0  0  0  0  0  0  0  0  0  0  0  0
   37.2480   26.7030   41.0320 C   0  0  0  0  0  0  0  0  0  0  0  0
   36.8640   27.9130   41.5640 C   0  0  0  0  0  0  0  0  0  0  0  0
   37.4230   28.3150   42.7650 C   0  0  0  0  0  0  0  0  0  0  0  0
   37.1390   29.2590   43.2020 H   0  0  0  0  0  0  0  0  0  0  0  0
   38.3510   27.4770   43.3900 C   0  0  0  0  0  3  0  0  0  0  0  0
   38.7370   26.2540   42.8500 C   0  0  0  0  0  0  0  0  0  0  0  0
   39.9090   25.2410   43.6800 Cl  0  0  0  0  0  0  0  0  0  0  0  0
   38.1550   25.9010   41.6560 C   0  0  0  0  0  0  0  0  0  0  0  0
   38.4850   24.9300   41.2650 H   0  0  0  0  0  0  0  0  0  0  0  0
  1 15  1  0  0  0  0
  1  2  1  0  0  0  0
  2  7  1  0  0  0  0
  3  2  2  0  0  0  0
  3 20  1  0  0  0  0
  4  3  1  0  0  0  0
  5  6  1  0  0  0  0
  5  4  2  0  0  0  0
  6  1  2  0  0  0  0
  8  4  1  0  0  0  0
  9  5  1  0  0  0  0
 10  6  1  0  0  0  0
 11 17  1  0  0  0  0
 12 18  1  0  0  0  0
 12 11  2  0  0  0  0
 13 12  1  0  0  0  0
 14 13  2  0  0  0  0
 14 15  1  0  0  0  0
 15 16  2  0  0  0  0
 16 11  1  0  0  0  0
 19 13  1  0  0  0  0
 20 23  1  0  0  0  0
 21 22  1  0  0  0  0
 22 23  2  0  0  0  0
 22 29  1  0  0  0  0
 23 24  1  0  0  0  0
 24 25  1  0  0  0  0
 24 26  2  0  0  0  0
 27 26  1  0  0  0  0
 27 28  1  0  0  0  0
 29 27  2  0  0  0  0
 30 29  1  0  0  0  0
M  END
>  <minimizedAffinity>
-5.56275129

$$$$

 OpenBabel03242516233D

 30 32  0  0  0  0  0  0  0  0999 V2000
   38.4380   31.2880   40.9840 C   0  0  0  0  0  0  0  0  0  0  0  0
   38.5220   30.2340   41.8600 C   0  0  0  0  0  0  0  0  0  0  0  0
   37.4770   29.3740   42.1070 C   0  0  0  0  0  0  0  0  0  0  0  0
   36.2690   29.5720   41.4460 C   0  0  0  0  0  0  0  0  0  0  0  0
   36.1490   30.6060   40.5720 C   0  0  0  0  0  0  0  0  0  0  0  0
   37.2350   31.4350   40.3660 C   0  0  0  0  0  0  0  0  0  0  0  0
   39.4770   30.0740   42.3860 H   0  0  0  0  0  0  0  0  0  0  0  0
   35.4470   28.8840   41.6490 H   0  0  0  0  0  0  0  0  0  0  0  0
   35.2170   30.7730   40.0490 H   0  0  0  0  0  0  0  0  0  0  0  0
   37.0850   32.2440   39.6580 H   0  0  0  0  0  0  0  0  0  0  0  0
   40.3750   34.1200   39.7450 C   0  0  0  0  0  0  0  0  0  0  0  0
   41.6490   33.9070   40.2590 C   0  0  0  0  0  0  0  0  0  0  0  0
   41.8500   32.7790   41.0400 C   0  0  0  0  0  0  0  0  0  0  0  0
   40.8150   31.9050   41.2930 N   0  0  0  0  0  0  0  0  0  0  0  0
   39.5760   32.1750   40.7530 C   0  0  0  0  0  0  0  0  0  0  0  0
   39.3550   33.2720   39.9860 N   0  0  0  0  0  0  0  0  0  0  0  0
   40.2830   35.0140   39.1450 H   0  0  0  0  0  0  0  0  0  0  0  0
   42.5090   34.5230   40.1180 H   0  0  0  0  0  0  0  0  0  0  0  0
   42.7440   32.4450   41.5190 H   0  0  0  0  0  0  0  0  0  0  0  0
   37.6840   28.0320   43.2630 S   0  0  0  0  0  0  0  0  0  0  0  0
   40.2680   26.1800   43.6800 Cl  0  0  0  0  0  0  0  0  0  0  0  0
   38.9690   25.6960   42.6210 C   0  0  0  0  0  0  0  0  0  0  0  0
   37.8440   26.4600   42.4120 C   0  0  0  0  0  0  0  0  0  0  0  0
   36.8710   25.9850   41.5510 C   0  0  0  0  0  0  0  0  0  0  0  0
   35.9790   26.5650   41.3720 H   0  0  0  0  0  0  0  0  0  0  0  0
   37.0690   24.7500   40.9260 C   0  0  0  0  0  3  0  0  0  0  0  0
   38.2070   23.9790   41.1380 C   0  0  0  0  0  0  0  0  0  0  0  0
   38.4030   22.4330   40.3250 Cl  0  0  0  0  0  0  0  0  0  0  0  0
   39.1440   24.4940   42.0020 C   0  0  0  0  0  0  0  0  0  0  0  0
   40.0260   23.8570   42.1410 H   0  0  0  0  0  0  0  0  0  0  0  0
  1  2  1  0  0  0  0
  2  3  2  0  0  0  0
  2  7  1  0  0  0  0
  3 20  1  0  0  0  0
  4  8  1  0  0  0  0
  4  3  1  0  0  0  0
  5  4  2  0  0  0  0
  6  5  1  0  0  0  0
  6  1  2  0  0  0  0
  9  5  1  0  0  0  0
 10  6  1  0  0  0  0
 11 16  2  0  0  0  0
 11 12  1  0  0  0  0
 12 13  2  0  0  0  0
 13 14  1  0  0  0  0
 13 19  1  0  0  0  0
 15  1  1  0  0  0  0
 15 14  2  0  0  0  0
 16 15  1  0  0  0  0
 17 11  1  0  0  0  0
 18 12  1  0  0  0  0
 22 21  1  0  0  0  0
 23 22  1  0  0  0  0
 23 20  1  0  0  0  0
 24 23  2  0  0  0  0
 25 24  1  0  0  0  0
 26 27  2  0  0  0  0
 26 24  1  0  0  0  0
 27 29  1  0  0  0  0
 28 27  1  0  0  0  0
 29 30  1  0  0  0  0
 29 22  2  0  0  0  0
M  END
>  <minimizedAffinity>
-5.46163607

$$$$

 OpenBabel03242516233D

 30 32  0  0  0  0  0  0  0  0999 V2000
   35.8610   29.4970   39.3360 C   0  0  0  0  0  0  0  0  0  0  0  0
   35.9710   28.5470   40.3210 C   0  0  0  0  0  0  0  0  0  0  0  0
   36.5700   28.7850   41.5360 C   0  0  0  0  0  0  0  0  0  0  0  0
   37.0970   30.0460   41.7930 C   0  0  0  0  0  0  0  0  0  0  0  0
   37.0080   31.0130   40.8420 C   0  0  0  0  0  0  0  0  0  0  0  0
   36.3940   30.7120   39.6410 C   0  0  0  0  0  0  0  0  0  0  0  0
   35.5550   27.5460   40.1220 H   0  0  0  0  0  0  0  0  0  0  0  0
   37.5700   30.2240   42.7600 H   0  0  0  0  0  0  0  0  0  0  0  0
   37.4120   32.0000   41.0260 H   0  0  0  0  0  0  0  0  0  0  0  0
   36.3480   31.5190   38.9170 H   0  0  0  0  0  0  0  0  0  0  0  0
   33.3090   28.4310   36.9580 C   0  0  0  0  0  0  0  0  0  0  0  0
   33.9120   28.6050   35.7180 C   0  0  0  0  0  0  0  0  0  0  0  0
   35.2090   29.0930   35.6930 C   0  0  0  0  0  0  0  0  0  0  0  0
   35.8700   29.3940   36.8640 N   0  0  0  0  0  0  0  0  0  0  0  0
   35.2150   29.1980   38.0610 C   0  0  0  0  0  0  0  0  0  0  0  0
   33.9460   28.7220   38.1100 N   0  0  0  0  0  0  0  0  0  0  0  0
   32.3000   28.0480   36.9110 H   0  0  0  0  0  0  0  0  0  0  0  0
   33.4830   28.4010   34.7620 H   0  0  0  0  0  0  0  0  0  0  0  0
   35.8350   29.2930   34.8510 H   0  0  0  0  0  0  0  0  0  0  0  0
   36.6630   27.4840   42.7520 S   0  0  0  0  0  0  0  0  0  0  0  0
   37.4130   24.4260   42.1460 Cl  0  0  0  0  0  0  0  0  0  0  0  0
   38.6240   25.5680   42.6670 C   0  0  0  0  0  0  0  0  0  0  0  0
   38.3450   26.8880   42.9400 C   0  0  0  0  0  0  0  0  0  0  0  0
   39.3790   27.7120   43.3470 C   0  0  0  0  0  0  0  0  0  0  0  0
   39.1860   28.7510   43.5660 H   0  0  0  0  0  0  0  0  0  0  0  0
   40.6630   27.1730   43.4690 C   0  0  0  0  0  3  0  0  0  0  0  0
   40.9420   25.8390   43.1950 C   0  0  0  0  0  0  0  0  0  0  0  0
   42.5760   25.2140   43.3650 Cl  0  0  0  0  0  0  0  0  0  0  0  0
   39.8830   25.0610   42.7920 C   0  0  0  0  0  0  0  0  0  0  0  0
   40.1450   24.0160   42.5860 H   0  0  0  0  0  0  0  0  0  0  0  0
  1  6  2  0  0  0  0
  1  2  1  0  0  0  0
  2  3  2  0  0  0  0
  3  4  1  0  0  0  0
  3 20  1  0  0  0  0
  4  8  1  0  0  0  0
  5  9  1  0  0  0  0
  5  4  2  0  0  0  0
  6  5  1  0  0  0  0
  7  2  1  0  0  0  0
 10  6  1  0  0  0  0
 11 16  1  0  0  0  0
 12 11  2  0  0  0  0
 13 12  1  0  0  0  0
 13 14  2  0  0  0  0
 14 15  1  0  0  0  0
 15 16  2  0  0  0  0
 15  1  1  0  0  0  0
 17 11  1  0  0  0  0
 18 12  1  0  0  0  0
 19 13  1  0  0  0  0
 20 23  1  0  0  0  0
 21 22  1  0  0  0  0
 22 29  2  0  0  0  0
 22 23  1  0  0  0  0
 23 24  2  0  0  0  0
 24 26  1  0  0  0  0
 24 25  1  0  0  0  0
 27 28  1  0  0  0  0
 27 26  2  0  0  0  0
 29 27  1  0  0  0  0
 30 29  1  0  0  0  0
M  END
>  <minimizedAffinity>
-5.42008734

$$$$

 OpenBabel03242516233D

 30 32  0  0  0  0  0  0  0  0999 V2000
   37.2600   26.5280   41.6880 C   0  0  0  0  0  0  0  0  0  0  0  0
   36.8400   27.6830   41.0770 C   0  0  0  0  0  0  0  0  0  0  0  0
   36.9000   28.9190   41.6770 C   0  0  0  0  0  0  0  0  0  0  0  0
   37.4070   29.0180   42.9680 C   0  0  0  0  0  0  0  0  0  0  0  0
   37.8320   27.8960   43.6060 C   0  0  0  0  0  0  0  0  0  0  0  0
   37.7470   26.6830   42.9500 C   0  0  0  0  0  0  0  0  0  0  0  0
   36.4380   27.6080   40.0530 H   0  0  0  0  0  0  0  0  0  0  0  0
   37.4490   30.0030   43.4350 H   0  0  0  0  0  0  0  0  0  0  0  0
   38.2300   27.9550   44.6110 H   0  0  0  0  0  0  0  0  0  0  0  0
   38.1010   25.8190   43.5030 H   0  0  0  0  0  0  0  0  0  0  0  0
   36.2680   23.9930   39.2600 C   0  0  0  0  0  0  0  0  0  0  0  0
   36.9550   22.8530   39.6630 C   0  0  0  0  0  0  0  0  0  0  0  0
   37.7700   22.9520   40.7810 C   0  0  0  0  0  0  0  0  0  0  0  0
   37.8880   24.1440   41.4620 N   0  0  0  0  0  0  0  0  0  0  0  0
   37.1780   25.2360   41.0100 C   0  0  0  0  0  0  0  0  0  0  0  0
   36.3760   25.1640   39.9180 N   0  0  0  0  0  0  0  0  0  0  0  0
   35.6520   23.8520   38.3840 H   0  0  0  0  0  0  0  0  0  0  0  0
   36.9280   21.8910   39.2030 H   0  0  0  0  0  0  0  0  0  0  0  0
   38.3710   22.2000   41.2410 H   0  0  0  0  0  0  0  0  0  0  0  0
   36.3300   30.3630   40.8000 S   0  0  0  0  0  0  0  0  0  0  0  0
   33.9340   28.9750   39.1810 Cl  0  0  0  0  0  0  0  0  0  0  0  0
   35.3750   29.5260   38.3680 C   0  0  0  0  0  0  0  0  0  0  0  0
   36.4260   30.1250   39.0240 C   0  0  0  0  0  0  0  0  0  0  0  0
   37.5250   30.5270   38.2850 C   0  0  0  0  0  0  0  0  0  0  0  0
   38.3620   31.0000   38.7750 H   0  0  0  0  0  0  0  0  0  0  0  0
   37.5250   30.3080   36.9040 C   0  0  0  0  0  3  0  0  0  0  0  0
   36.4620   29.7010   36.2430 C   0  0  0  0  0  0  0  0  0  0  0  0
   36.5160   29.4510   34.5050 Cl  0  0  0  0  0  0  0  0  0  0  0  0
   35.3940   29.3220   37.0210 C   0  0  0  0  0  0  0  0  0  0  0  0
   34.5780   28.8470   36.4620 H   0  0  0  0  0  0  0  0  0  0  0  0
  1  6  1  0  0  0  0
  2  3  1  0  0  0  0
  2  1  2  0  0  0  0
  3  4  2  0  0  0  0
  4  8  1  0  0  0  0
  4  5  1  0  0  0  0
  5  9  1  0  0  0  0
  6 10  1  0  0  0  0
  6  5  2  0  0  0  0
  7  2  1  0  0  0  0
 11 12  2  0  0  0  0
 11 16  1  0  0  0  0
 12 13  1  0  0  0  0
 13 19  1  0  0  0  0
 13 14  2  0  0  0  0
 15 14  1  0  0  0  0
 15  1  1  0  0  0  0
 16 15  2  0  0  0  0
 17 11  1  0  0  0  0
 18 12  1  0  0  0  0
 20  3  1  0  0  0  0
 22 23  1  0  0  0  0
 22 21  1  0  0  0  0
 23 20  1  0  0  0  0
 24 25  1  0  0  0  0
 24 23  2  0  0  0  0
 26 24  1  0  0  0  0
 27 26  2  0  0  0  0
 27 29  1  0  0  0  0
 28 27  1  0  0  0  0
 29 22  2  0  0  0  0
 30 29  1  0  0  0  0
M  END
>  <minimizedAffinity>
-5.40904236

$$$$

 OpenBabel03242516233D

 30 32  0  0  0  0  0  0  0  0999 V2000
   37.1900   26.6580   41.6230 C   0  0  0  0  0  0  0  0  0  0  0  0
   36.8290   27.8800   41.1120 C   0  0  0  0  0  0  0  0  0  0  0  0
   36.9740   29.0600   41.8020 C   0  0  0  0  0  0  0  0  0  0  0  0
   37.5100   29.0290   43.0860 C   0  0  0  0  0  0  0  0  0  0  0  0
   37.8790   27.8380   43.6260 C   0  0  0  0  0  0  0  0  0  0  0  0
   37.7080   26.6860   42.8810 C   0  0  0  0  0  0  0  0  0  0  0  0
   36.4040   27.9090   40.0950 H   0  0  0  0  0  0  0  0  0  0  0  0
   37.6210   29.9710   43.6250 H   0  0  0  0  0  0  0  0  0  0  0  0
   38.2980   27.7960   44.6230 H   0  0  0  0  0  0  0  0  0  0  0  0
   38.0190   25.7630   43.3590 H   0  0  0  0  0  0  0  0  0  0  0  0
   36.1850   24.4290   38.9160 C   0  0  0  0  0  0  0  0  0  0  0  0
   36.6420   23.1800   39.3220 C   0  0  0  0  0  0  0  0  0  0  0  0
   37.3020   23.0980   40.5380 C   0  0  0  0  0  0  0  0  0  0  0  0
   37.4950   24.2220   41.3110 N   0  0  0  0  0  0  0  0  0  0  0  0
   37.0170   25.4300   40.8510 C   0  0  0  0  0  0  0  0  0  0  0  0
   36.3690   25.5360   39.6640 N   0  0  0  0  0  0  0  0  0  0  0  0
   35.6800   24.4270   37.9610 H   0  0  0  0  0  0  0  0  0  0  0  0
   36.5400   22.2570   38.7950 H   0  0  0  0  0  0  0  0  0  0  0  0
   37.7220   22.2410   41.0170 H   0  0  0  0  0  0  0  0  0  0  0  0
   36.4760   30.5980   41.0510 S   0  0  0  0  0  0  0  0  0  0  0  0
   36.8410   30.4210   37.8700 Cl  0  0  0  0  0  0  0  0  0  0  0  0
   37.9750   31.2990   38.8630 C   0  0  0  0  0  0  0  0  0  0  0  0
   37.8560   31.3990   40.2310 C   0  0  0  0  0  0  0  0  0  0  0  0
   38.8110   32.1200   40.9260 C   0  0  0  0  0  0  0  0  0  0  0  0
   38.7400   32.2140   41.9990 H   0  0  0  0  0  0  0  0  0  0  0  0
   39.8570   32.7150   40.2160 C   0  0  0  0  0  3  0  0  0  0  0  0
   39.9750   32.6120   38.8330 C   0  0  0  0  0  0  0  0  0  0  0  0
   41.3120   33.3810   37.9910 Cl  0  0  0  0  0  0  0  0  0  0  0  0
   39.0020   31.8860   38.1880 C   0  0  0  0  0  0  0  0  0  0  0  0
   39.1320   31.8290   37.1000 H   0  0  0  0  0  0  0  0  0  0  0  0
  1  6  1  0  0  0  0
  2  1  2  0  0  0  0
  2  3  1  0  0  0  0
  3  4  2  0  0  0  0
  4  8  1  0  0  0  0
  4  5  1  0  0  0  0
  5  9  1  0  0  0  0
  6 10  1  0  0  0  0
  6  5  2  0  0  0  0
  7  2  1  0  0  0  0
 11 12  2  0  0  0  0
 11 16  1  0  0  0  0
 12 13  1  0  0  0  0
 13 19  1  0  0  0  0
 13 14  2  0  0  0  0
 15 14  1  0  0  0  0
 15  1  1  0  0  0  0
 16 15  2  0  0  0  0
 17 11  1  0  0  0  0
 18 12  1  0  0  0  0
 20  3  1  0  0  0  0
 21 22  1  0  0  0  0
 22 23  1  0  0  0  0
 23 24  2  0  0  0  0
 23 20  1  0  0  0  0
 24 25  1  0  0  0  0
 26 24  1  0  0  0  0
 27 26  2  0  0  0  0
 28 27  1  0  0  0  0
 29 27  1  0  0  0  0
 29 22  2  0  0  0  0
 30 29  1  0  0  0  0
M  END
>  <minimizedAffinity>
-5.40239811

$$$$

 OpenBabel03242516233D

 30 32  0  0  0  0  0  0  0  0999 V2000
   36.9200   30.3630   37.4390 C   0  0  0  0  0  0  0  0  0  0  0  0
   36.5480   30.0820   38.7310 C   0  0  0  0  0  0  0  0  0  0  0  0
   36.9370   30.8410   39.8100 C   0  0  0  0  0  0  0  0  0  0  0  0
   37.7490   31.9510   39.5960 C   0  0  0  0  0  0  0  0  0  0  0  0
   38.1380   32.2600   38.3320 C   0  0  0  0  0  0  0  0  0  0  0  0
   37.7130   31.4580   37.2890 C   0  0  0  0  0  0  0  0  0  0  0  0
   35.9050   29.2040   38.9040 H   0  0  0  0  0  0  0  0  0  0  0  0
   38.0520   32.5450   40.4590 H   0  0  0  0  0  0  0  0  0  0  0  0
   38.7690   33.1190   38.1480 H   0  0  0  0  0  0  0  0  0  0  0  0
   38.0510   31.7500   36.3000 H   0  0  0  0  0  0  0  0  0  0  0  0
   36.2020   29.3200   34.0190 C   0  0  0  0  0  0  0  0  0  0  0  0
   35.6830   28.0380   34.1600 C   0  0  0  0  0  0  0  0  0  0  0  0
   35.5770   27.5210   35.4420 C   0  0  0  0  0  0  0  0  0  0  0  0
   35.9750   28.2620   36.5340 N   0  0  0  0  0  0  0  0  0  0  0  0
   36.4800   29.5270   36.3240 C   0  0  0  0  0  0  0  0  0  0  0  0
   36.5940   30.0540   35.0790 N   0  0  0  0  0  0  0  0  0  0  0  0
   36.2590   29.6650   32.9960 H   0  0  0  0  0  0  0  0  0  0  0  0
   35.3490   27.3910   33.3790 H   0  0  0  0  0  0  0  0  0  0  0  0
   35.2090   26.5690   35.7530 H   0  0  0  0  0  0  0  0  0  0  0  0
   36.4020   30.3960   41.4510 S   0  0  0  0  0  0  0  0  0  0  0  0
   39.3930   30.7040   42.5670 Cl  0  0  0  0  0  0  0  0  0  0  0  0
   38.5920   29.1540   42.5400 C   0  0  0  0  0  0  0  0  0  0  0  0
   37.3110   28.9770   42.0690 C   0  0  0  0  0  0  0  0  0  0  0  0
   36.7670   27.7050   42.0920 C   0  0  0  0  0  0  0  0  0  0  0  0
   35.7640   27.5410   41.7290 H   0  0  0  0  0  0  0  0  0  0  0  0
   37.5390   26.6510   42.5890 C   0  0  0  0  0  3  0  0  0  0  0  0
   38.8340   26.8320   43.0640 C   0  0  0  0  0  0  0  0  0  0  0  0
   39.7580   25.4700   43.6780 Cl  0  0  0  0  0  0  0  0  0  0  0  0
   39.3280   28.1140   43.0210 C   0  0  0  0  0  0  0  0  0  0  0  0
   40.3520   28.2130   43.4040 H   0  0  0  0  0  0  0  0  0  0  0  0
  1  2  1  0  0  0  0
  2  7  1  0  0  0  0
  2  3  2  0  0  0  0
  3 20  1  0  0  0  0
  4  3  1  0  0  0  0
  4  8  1  0  0  0  0
  5  4  2  0  0  0  0
  6  1  2  0  0  0  0
  6  5  1  0  0  0  0
  9  5  1  0  0  0  0
 10  6  1  0  0  0  0
 11 12  2  0  0  0  0
 11 16  1  0  0  0  0
 12 13  1  0  0  0  0
 13 19  1  0  0  0  0
 13 14  2  0  0  0  0
 15 14  1  0  0  0  0
 15  1  1  0  0  0  0
 16 15  2  0  0  0  0
 17 11  1  0  0  0  0
 18 12  1  0  0  0  0
 20 23  1  0  0  0  0
 22 21  1  0  0  0  0
 22 29  1  0  0  0  0
 23 24  1  0  0  0  0
 23 22  2  0  0  0  0
 24 26  2  0  0  0  0
 25 24  1  0  0  0  0
 26 27  1  0  0  0  0
 27 28  1  0  0  0  0
 29 27  2  0  0  0  0
 29 30  1  0  0  0  0
M  END
>  <minimizedAffinity>
-5.37997341

$$$$
