
 OpenBabel03252506373D

 45 48  0  0  1  0  0  0  0  0999 V2000
   44.4980   35.5110   45.1250 C   0  0  0  0  0  0  0  0  0  0  0  0
   45.1490   35.5040   43.8850 C   0  0  0  0  0  0  0  0  0  0  0  0
   46.0670   34.5460   43.6260 C   0  0  0  0  0  0  0  0  0  0  0  0
   46.3030   33.6340   44.6000 N   0  0  0  0  0  0  0  0  0  0  0  0
   45.6850   33.6440   45.7710 C   0  0  0  0  0  0  0  0  0  0  0  0
   44.7770   34.5760   46.0530 N   0  0  0  0  0  0  0  0  0  0  0  0
   46.0160   32.6310   46.7360 N   0  0  0  0  0  0  0  0  0  0  0  0
   45.2760   32.3810   47.9230 C   0  0  0  0  0  0  0  0  0  0  0  0
   46.3530   32.0270   48.9330 C   0  0  0  0  0  0  0  0  0  0  0  0
   47.6340   31.9340   48.1640 C   0  0  0  0  0  0  0  0  0  0  0  0
   47.1380   31.7210   46.7340 C   0  0  1  0  0  0  0  0  0  0  0  0
   43.7750   36.2770   45.3110 H   0  0  0  0  0  0  0  0  0  0  0  0
   46.5830   34.5170   42.6800 H   0  0  0  0  0  0  0  0  0  0  0  0
   44.4420   31.7600   48.0010 H   0  0  0  0  0  0  0  0  0  0  0  0
   44.9270   33.4010   48.2860 H   0  0  0  0  0  0  0  0  0  0  0  0
   46.3660   32.6410   49.8280 H   0  0  0  0  0  0  0  0  0  0  0  0
   46.1300   30.9720   49.2720 H   0  0  0  0  0  0  0  0  0  0  0  0
   48.2530   31.0970   48.5220 H   0  0  0  0  0  0  0  0  0  0  0  0
   48.1350   32.9210   48.2610 H   0  0  0  0  0  0  0  0  0  0  0  0
   47.9470   32.0250   46.0300 H   0  0  0  0  0  0  0  0  0  0  0  0
   44.7960   36.5370   42.9460 N   0  0  0  0  0  0  0  0  0  0  0  0
   44.8230   37.5320   43.2280 H   0  0  0  0  0  0  0  0  0  0  0  0
   44.5400   36.0980   42.0400 H   0  0  0  0  0  0  0  0  0  0  0  0
   46.6260   30.0290   46.5460 S   0  0  0  0  0  0  0  0  0  0  0  0
   45.6320   30.6330   43.4190 O   0  0  0  0  0  0  0  0  0  0  0  0
   45.0050   30.0370   44.3110 C   0  0  0  0  0  0  0  0  0  0  0  0
   45.0910   29.7460   45.7630 C   0  0  1  0  0  0  0  0  0  0  0  0
   44.5820   28.3270   45.8240 C   0  0  0  0  0  0  0  0  0  0  0  0
   43.2720   28.5460   45.0600 C   0  0  0  0  0  0  0  0  0  0  0  0
   43.7780   29.3670   43.9670 N   0  0  0  0  0  0  0  0  0  0  0  0
   44.1930   30.3110   46.1300 H   0  0  0  0  0  0  0  0  0  0  0  0
   45.2240   27.6250   45.2520 H   0  0  0  0  0  0  0  0  0  0  0  0
   44.3940   28.0380   46.8590 H   0  0  0  0  0  0  0  0  0  0  0  0
   42.8300   27.6020   44.7390 H   0  0  0  0  0  0  0  0  0  0  0  0
   42.5850   29.1250   45.7100 H   0  0  0  0  0  0  0  0  0  0  0  0
   40.8020   29.9500   44.1730 Cl  0  0  0  0  0  0  0  0  0  0  0  0
   41.6540   29.6120   42.6820 C   0  0  0  0  0  0  0  0  0  0  0  0
   42.9890   29.3710   42.7580 C   0  0  0  0  0  0  0  0  0  0  0  0
   43.6630   29.1050   41.5840 C   0  0  0  0  0  0  0  0  0  0  0  0
   44.7450   28.9010   41.5770 H   0  0  0  0  0  0  0  0  0  0  0  0
   43.0740   29.0650   40.3240 C   0  0  0  0  0  3  0  0  0  0  0  0
   41.6980   29.3150   40.2630 C   0  0  0  0  0  0  0  0  0  0  0  0
   40.8850   29.2830   38.7140 Cl  0  0  0  0  0  0  0  0  0  0  0  0
   41.0450   29.5790   41.4440 C   0  0  0  0  0  0  0  0  0  0  0  0
   39.9670   29.7740   41.3890 H   0  0  0  0  0  0  0  0  0  0  0  0
  1 12  1  0  0  0  0
  1  6  1  0  0  0  0
  2  1  2  0  0  0  0
  3  2  1  0  0  0  0
  3  4  2  0  0  0  0
  4  5  1  0  0  0  0
  5  6  2  0  0  0  0
  5  7  1  0  0  0  0
  7  8  1  0  0  0  0
  8 14  1  0  0  0  0
  8 15  1  0  0  0  0
  8  9  1  0  0  0  0
  9 17  1  0  0  0  0
  9 16  1  0  0  0  0
 10 19  1  0  0  0  0
 10 18  1  0  0  0  0
 10  9  1  0  0  0  0
 11 20  1  6  0  0  0
 11  7  1  0  0  0  0
 11 10  1  0  0  0  0
 13  3  1  0  0  0  0
 21 22  1  0  0  0  0
 21  2  1  0  0  0  0
 23 21  1  0  0  0  0
 24 11  1  0  0  0  0
 25 26  2  0  0  0  0
 26 27  1  0  0  0  0
 27 28  1  0  0  0  0
 27 31  1  1  0  0  0
 27 24  1  0  0  0  0
 28 33  1  0  0  0  0
 29 35  1  0  0  0  0
 29 28  1  0  0  0  0
 30 26  1  0  0  0  0
 30 29  1  0  0  0  0
 32 28  1  0  0  0  0
 34 29  1  0  0  0  0
 37 38  1  0  0  0  0
 37 36  1  0  0  0  0
 38 30  1  0  0  0  0
 39 38  2  0  0  0  0
 40 39  1  0  0  0  0
 41 39  1  0  0  0  0
 42 41  2  0  0  0  0
 42 44  1  0  0  0  0
 43 42  1  0  0  0  0
 44 37  2  0  0  0  0
 45 44  1  0  0  0  0
M  END
>  <minimizedAffinity>
-5.44385099

>  <minimizedRMSD>
0.171163261

$$$$
