
 OpenBabel03252502373D

 25 26  0  0  1  0  0  0  0  0999 V2000
   36.5690   27.6590   42.1880 C   0  0  1  0  0  0  0  0  0  0  0  0
   35.4870   27.4590   42.0480 H   0  0  0  0  0  0  0  0  0  0  0  0
   39.3670   28.8270   42.7810 Cl  0  0  0  0  0  0  0  0  0  0  0  0
   38.1290   29.6330   41.8770 C   0  0  0  0  0  0  0  0  0  0  0  0
   36.9230   29.0060   41.6790 C   0  0  0  0  0  0  0  0  0  0  0  0
   36.0280   29.7750   40.9340 C   0  0  0  0  0  0  0  0  0  0  0  0
   35.0360   29.3820   40.7110 H   0  0  0  0  0  0  0  0  0  0  0  0
   36.2600   31.0180   40.4270 C   0  0  0  0  0  3  0  0  0  0  0  0
   37.5050   31.5890   40.6670 C   0  0  0  0  0  0  0  0  0  0  0  0
   37.8620   33.1790   40.0430 Cl  0  0  0  0  0  0  0  0  0  0  0  0
   38.4390   30.8850   41.3970 C   0  0  0  0  0  0  0  0  0  0  0  0
   39.4050   31.3520   41.5730 H   0  0  0  0  0  0  0  0  0  0  0  0
   37.8740   25.5780   42.4280 C   0  0  0  0  0  0  0  0  0  0  0  0
   37.3130   26.5530   41.6070 C   0  0  0  0  0  0  0  0  0  0  0  0
   37.5010   26.4080   40.2070 C   0  0  0  0  0  0  0  0  0  0  0  0
   38.2090   25.3390   39.7630 N   0  0  0  0  0  0  0  0  0  0  0  0
   38.7260   24.4330   40.6160 C   0  0  0  0  0  0  0  0  0  0  0  0
   38.5650   24.5410   41.9400 N   0  0  0  0  0  0  0  0  0  0  0  0
   37.8020   25.5800   43.5070 H   0  0  0  0  0  0  0  0  0  0  0  0
   37.0820   27.1400   39.5300 H   0  0  0  0  0  0  0  0  0  0  0  0
   39.2670   23.6290   40.1530 H   0  0  0  0  0  0  0  0  0  0  0  0
   36.8380   27.6660   43.6790 C   0  0  0  0  0  0  0  0  0  0  0  0
   36.3850   26.7550   44.1680 H   0  0  0  0  0  0  0  0  0  0  0  0
   37.9200   27.7000   43.9160 H   0  0  0  0  0  0  0  0  0  0  0  0
   36.2690   28.5140   44.1270 H   0  0  0  0  0  0  0  0  0  0  0  0
  1  2  1  6  0  0  0
  1 22  1  0  0  0  0
  4  3  1  0  0  0  0
  5  4  1  0  0  0  0
  5  1  1  0  0  0  0
  6  5  2  0  0  0  0
  7  6  1  0  0  0  0
  8  9  2  0  0  0  0
  8  6  1  0  0  0  0
  9 11  1  0  0  0  0
 10  9  1  0  0  0  0
 11 12  1  0  0  0  0
 11  4  2  0  0  0  0
 13 19  1  0  0  0  0
 14  1  1  0  0  0  0
 14 13  2  0  0  0  0
 15 14  1  0  0  0  0
 16 15  2  0  0  0  0
 16 17  1  0  0  0  0
 17 18  2  0  0  0  0
 18 13  1  0  0  0  0
 20 15  1  0  0  0  0
 21 17  1  0  0  0  0
 22 24  1  0  0  0  0
 22 25  1  0  0  0  0
 22 23  1  0  0  0  0
M  END
>  <minimizedAffinity>
-4.7701478

$$$$

 OpenBabel03252502373D

 25 26  0  0  1  0  0  0  0  0999 V2000
   36.5870   27.7800   42.2050 C   0  0  1  0  0  0  0  0  0  0  0  0
   35.4960   27.5960   42.1270 H   0  0  0  0  0  0  0  0  0  0  0  0
   34.6630   29.1510   40.2140 Cl  0  0  0  0  0  0  0  0  0  0  0  0
   36.1670   29.8160   40.7530 C   0  0  0  0  0  0  0  0  0  0  0  0
   36.9370   29.1080   41.6440 C   0  0  0  0  0  0  0  0  0  0  0  0
   38.1170   29.7680   41.9860 C   0  0  0  0  0  0  0  0  0  0  0  0
   38.8100   29.3040   42.6880 H   0  0  0  0  0  0  0  0  0  0  0  0
   38.5250   30.9840   41.5260 C   0  0  0  0  0  3  0  0  0  0  0  0
   37.6930   31.6420   40.6260 C   0  0  0  0  0  0  0  0  0  0  0  0
   38.1600   33.2030   40.0000 Cl  0  0  0  0  0  0  0  0  0  0  0  0
   36.5100   31.0470   40.2420 C   0  0  0  0  0  0  0  0  0  0  0  0
   35.8770   31.5810   39.5370 H   0  0  0  0  0  0  0  0  0  0  0  0
   38.2700   25.9790   42.3330 C   0  0  0  0  0  0  0  0  0  0  0  0
   37.2800   26.6460   41.6150 C   0  0  0  0  0  0  0  0  0  0  0  0
   36.9930   26.1680   40.3100 C   0  0  0  0  0  0  0  0  0  0  0  0
   37.6940   25.1010   39.8490 N   0  0  0  0  0  0  0  0  0  0  0  0
   38.6400   24.5030   40.6000 C   0  0  0  0  0  0  0  0  0  0  0  0
   38.9340   24.9300   41.8340 N   0  0  0  0  0  0  0  0  0  0  0  0
   38.5790   26.2500   43.3330 H   0  0  0  0  0  0  0  0  0  0  0  0
   36.2320   26.6540   39.7150 H   0  0  0  0  0  0  0  0  0  0  0  0
   39.1300   23.6690   40.1340 H   0  0  0  0  0  0  0  0  0  0  0  0
   36.9340   27.8190   43.6800 C   0  0  0  0  0  0  0  0  0  0  0  0
   36.4910   26.9290   44.2150 H   0  0  0  0  0  0  0  0  0  0  0  0
   38.0260   27.8400   43.8590 H   0  0  0  0  0  0  0  0  0  0  0  0
   36.4040   28.6880   44.1340 H   0  0  0  0  0  0  0  0  0  0  0  0
  1  2  1  6  0  0  0
  1 22  1  0  0  0  0
  3  4  1  0  0  0  0
  4  5  1  0  0  0  0
  5  6  2  0  0  0  0
  5  1  1  0  0  0  0
  6  7  1  0  0  0  0
  8  6  1  0  0  0  0
  9  8  2  0  0  0  0
 10  9  1  0  0  0  0
 11  9  1  0  0  0  0
 11  4  2  0  0  0  0
 12 11  1  0  0  0  0
 13 19  1  0  0  0  0
 14  1  1  0  0  0  0
 14 13  2  0  0  0  0
 15 14  1  0  0  0  0
 16 15  2  0  0  0  0
 16 17  1  0  0  0  0
 17 18  2  0  0  0  0
 18 13  1  0  0  0  0
 20 15  1  0  0  0  0
 21 17  1  0  0  0  0
 22 24  1  0  0  0  0
 22 25  1  0  0  0  0
 22 23  1  0  0  0  0
M  END
>  <minimizedAffinity>
-4.76869202

$$$$

 OpenBabel03252502373D

 25 26  0  0  1  0  0  0  0  0999 V2000
   37.9260   27.3670   43.3320 C   0  0  1  0  0  0  0  0  0  0  0  0
   38.4880   27.3220   44.2870 H   0  0  0  0  0  0  0  0  0  0  0  0
   40.5140   25.7040   43.6150 Cl  0  0  0  0  0  0  0  0  0  0  0  0
   39.1630   25.2710   42.6230 C   0  0  0  0  0  0  0  0  0  0  0  0
   38.0650   26.0960   42.5810 C   0  0  0  0  0  0  0  0  0  0  0  0
   37.0590   25.6170   41.7420 C   0  0  0  0  0  0  0  0  0  0  0  0
   36.1360   26.1870   41.6280 H   0  0  0  0  0  0  0  0  0  0  0  0
   37.0940   24.4670   41.0140 C   0  0  0  0  0  3  0  0  0  0  0  0
   38.2390   23.6830   41.1060 C   0  0  0  0  0  0  0  0  0  0  0  0
   38.3450   22.1960   40.1970 Cl  0  0  0  0  0  0  0  0  0  0  0  0
   39.2750   24.0940   41.9170 C   0  0  0  0  0  0  0  0  0  0  0  0
   40.1600   23.4650   41.9720 H   0  0  0  0  0  0  0  0  0  0  0  0
   37.4190   29.2740   41.8490 C   0  0  0  0  0  0  0  0  0  0  0  0
   38.3380   28.5660   42.6200 C   0  0  0  0  0  0  0  0  0  0  0  0
   39.6650   29.0690   42.6720 C   0  0  0  0  0  0  0  0  0  0  0  0
   39.9510   30.1970   41.9740 N   0  0  0  0  0  0  0  0  0  0  0  0
   39.0100   30.8310   41.2460 C   0  0  0  0  0  0  0  0  0  0  0  0
   37.7510   30.3830   41.1780 N   0  0  0  0  0  0  0  0  0  0  0  0
   36.3830   28.9900   41.7290 H   0  0  0  0  0  0  0  0  0  0  0  0
   40.4120   28.5520   43.2590 H   0  0  0  0  0  0  0  0  0  0  0  0
   39.3490   31.7130   40.7360 H   0  0  0  0  0  0  0  0  0  0  0  0
   36.4580   27.5160   43.6790 C   0  0  0  0  0  0  0  0  0  0  0  0
   36.3110   28.3390   44.4370 H   0  0  0  0  0  0  0  0  0  0  0  0
   35.8310   27.7280   42.7910 H   0  0  0  0  0  0  0  0  0  0  0  0
   36.1390   26.5970   44.2240 H   0  0  0  0  0  0  0  0  0  0  0  0
  1 22  1  0  0  0  0
  1  2  1  1  0  0  0
  4  3  1  0  0  0  0
  5  4  1  0  0  0  0
  5  1  1  0  0  0  0
  6  5  2  0  0  0  0
  7  6  1  0  0  0  0
  8  9  2  0  0  0  0
  8  6  1  0  0  0  0
  9 11  1  0  0  0  0
 10  9  1  0  0  0  0
 11 12  1  0  0  0  0
 11  4  2  0  0  0  0
 13 14  1  0  0  0  0
 14 15  2  0  0  0  0
 14  1  1  0  0  0  0
 15 20  1  0  0  0  0
 16 15  1  0  0  0  0
 17 16  2  0  0  0  0
 18 17  1  0  0  0  0
 18 13  2  0  0  0  0
 19 13  1  0  0  0  0
 21 17  1  0  0  0  0
 22 25  1  0  0  0  0
 22 23  1  0  0  0  0
 24 22  1  0  0  0  0
M  END
>  <minimizedAffinity>
-4.76464033

$$$$

 OpenBabel03252502373D

 25 26  0  0  1  0  0  0  0  0999 V2000
   36.8970   26.9370   42.3400 C   0  0  1  0  0  0  0  0  0  0  0  0
   36.1940   26.1640   41.9700 H   0  0  0  0  0  0  0  0  0  0  0  0
   36.3580   26.5440   39.3240 Cl  0  0  0  0  0  0  0  0  0  0  0  0
   36.6870   28.0670   40.0810 C   0  0  0  0  0  0  0  0  0  0  0  0
   36.9100   28.1120   41.4350 C   0  0  0  0  0  0  0  0  0  0  0  0
   37.1600   29.4030   41.9010 C   0  0  0  0  0  0  0  0  0  0  0  0
   37.3510   29.5660   42.9620 H   0  0  0  0  0  0  0  0  0  0  0  0
   37.1940   30.5400   41.1510 C   0  0  0  0  0  3  0  0  0  0  0  0
   36.9590   30.4160   39.7860 C   0  0  0  0  0  0  0  0  0  0  0  0
   36.9880   31.8360   38.7710 Cl  0  0  0  0  0  0  0  0  0  0  0  0
   36.7050   29.1690   39.2560 C   0  0  0  0  0  0  0  0  0  0  0  0
   36.5240   29.0970   38.1860 H   0  0  0  0  0  0  0  0  0  0  0  0
   38.5660   25.1960   41.8160 C   0  0  0  0  0  0  0  0  0  0  0  0
   38.1870   26.3050   42.5680 C   0  0  0  0  0  0  0  0  0  0  0  0
   39.1070   26.7720   43.5430 C   0  0  0  0  0  0  0  0  0  0  0  0
   40.2860   26.1150   43.6790 N   0  0  0  0  0  0  0  0  0  0  0  0
   40.5880   25.0450   42.9150 C   0  0  0  0  0  0  0  0  0  0  0  0
   39.7420   24.5820   41.9880 N   0  0  0  0  0  0  0  0  0  0  0  0
   37.9520   24.7460   41.0480 H   0  0  0  0  0  0  0  0  0  0  0  0
   38.8560   27.6310   44.1510 H   0  0  0  0  0  0  0  0  0  0  0  0
   41.5480   24.6050   43.1090 H   0  0  0  0  0  0  0  0  0  0  0  0
   36.3750   27.4190   43.6800 C   0  0  0  0  0  0  0  0  0  0  0  0
   36.1270   26.5420   44.3470 H   0  0  0  0  0  0  0  0  0  0  0  0
   37.0930   28.0780   44.2040 H   0  0  0  0  0  0  0  0  0  0  0  0
   35.3860   27.9040   43.5070 H   0  0  0  0  0  0  0  0  0  0  0  0
  1  2  1  6  0  0  0
  1 14  1  0  0  0  0
  1 22  1  0  0  0  0
  3  4  1  0  0  0  0
  4  5  1  0  0  0  0
  5  6  2  0  0  0  0
  5  1  1  0  0  0  0
  6  7  1  0  0  0  0
  8  6  1  0  0  0  0
  9  8  2  0  0  0  0
 10  9  1  0  0  0  0
 11  9  1  0  0  0  0
 11  4  2  0  0  0  0
 12 11  1  0  0  0  0
 13 18  2  0  0  0  0
 13 14  1  0  0  0  0
 14 15  2  0  0  0  0
 15 16  1  0  0  0  0
 15 20  1  0  0  0  0
 17 21  1  0  0  0  0
 17 16  2  0  0  0  0
 18 17  1  0  0  0  0
 19 13  1  0  0  0  0
 22 24  1  0  0  0  0
 22 23  1  0  0  0  0
 25 22  1  0  0  0  0
M  END
>  <minimizedAffinity>
-4.7157402

$$$$

 OpenBabel03252502373D

 25 26  0  0  1  0  0  0  0  0999 V2000
   36.1330   29.2200   40.9550 C   0  0  1  0  0  0  0  0  0  0  0  0
   35.9280   29.6370   41.9620 H   0  0  0  0  0  0  0  0  0  0  0  0
   37.0150   28.0620   43.6790 Cl  0  0  0  0  0  0  0  0  0  0  0  0
   36.9510   27.1680   42.1980 C   0  0  0  0  0  0  0  0  0  0  0  0
   36.5390   27.7970   41.0480 C   0  0  0  0  0  0  0  0  0  0  0  0
   36.5380   26.9530   39.9380 C   0  0  0  0  0  0  0  0  0  0  0  0
   36.2290   27.3390   38.9660 H   0  0  0  0  0  0  0  0  0  0  0  0
   36.8940   25.6380   39.9240 C   0  0  0  0  0  3  0  0  0  0  0  0
   37.3000   25.0690   41.1260 C   0  0  0  0  0  0  0  0  0  0  0  0
   37.7680   23.3880   41.1720 Cl  0  0  0  0  0  0  0  0  0  0  0  0
   37.3260   25.8450   42.2650 C   0  0  0  0  0  0  0  0  0  0  0  0
   37.6480   25.3780   43.1920 H   0  0  0  0  0  0  0  0  0  0  0  0
   36.6680   30.8590   39.1880 C   0  0  0  0  0  0  0  0  0  0  0  0
   37.0750   30.1010   40.2840 C   0  0  0  0  0  0  0  0  0  0  0  0
   38.4270   30.2340   40.6980 C   0  0  0  0  0  0  0  0  0  0  0  0
   39.2280   31.0830   40.0080 N   0  0  0  0  0  0  0  0  0  0  0  0
   38.7670   31.7870   38.9550 C   0  0  0  0  0  0  0  0  0  0  0  0
   37.4990   31.6840   38.5400 N   0  0  0  0  0  0  0  0  0  0  0  0
   35.6680   30.8420   38.7780 H   0  0  0  0  0  0  0  0  0  0  0  0
   38.7880   29.6650   41.5440 H   0  0  0  0  0  0  0  0  0  0  0  0
   39.4890   32.4280   38.4840 H   0  0  0  0  0  0  0  0  0  0  0  0
   34.8310   29.2570   40.1780 C   0  0  0  0  0  0  0  0  0  0  0  0
   34.3490   30.2740   40.2600 H   0  0  0  0  0  0  0  0  0  0  0  0
   34.9680   29.0090   39.1080 H   0  0  0  0  0  0  0  0  0  0  0  0
   34.1070   28.5820   40.6910 H   0  0  0  0  0  0  0  0  0  0  0  0
  1  5  1  0  0  0  0
  1  2  1  1  0  0  0
  4 11  1  0  0  0  0
  4  3  1  0  0  0  0
  5  4  2  0  0  0  0
  6  5  1  0  0  0  0
  7  6  1  0  0  0  0
  8  6  2  0  0  0  0
  8  9  1  0  0  0  0
  9 10  1  0  0  0  0
  9 11  2  0  0  0  0
 11 12  1  0  0  0  0
 13 14  1  0  0  0  0
 14 15  2  0  0  0  0
 14  1  1  0  0  0  0
 15 20  1  0  0  0  0
 16 15  1  0  0  0  0
 17 16  2  0  0  0  0
 18 17  1  0  0  0  0
 18 13  2  0  0  0  0
 19 13  1  0  0  0  0
 21 17  1  0  0  0  0
 22 23  1  0  0  0  0
 22 25  1  0  0  0  0
 22  1  1  0  0  0  0
 24 22  1  0  0  0  0
M  END
>  <minimizedAffinity>
-4.6776967

$$$$

 OpenBabel03252502373D

 25 26  0  0  1  0  0  0  0  0999 V2000
   35.8310   29.5300   40.7760 C   0  0  1  0  0  0  0  0  0  0  0  0
   35.4000   30.0260   41.6690 H   0  0  0  0  0  0  0  0  0  0  0  0
   36.6040   27.5610   38.5240 Cl  0  0  0  0  0  0  0  0  0  0  0  0
   36.7390   27.2300   40.2180 C   0  0  0  0  0  0  0  0  0  0  0  0
   36.3620   28.1900   41.1250 C   0  0  0  0  0  0  0  0  0  0  0  0
   36.5280   27.7820   42.4490 C   0  0  0  0  0  0  0  0  0  0  0  0
   36.2630   28.4600   43.2600 H   0  0  0  0  0  0  0  0  0  0  0  0
   37.0060   26.5760   42.8680 C   0  0  0  0  0  3  0  0  0  0  0  0
   37.3670   25.6540   41.8920 C   0  0  0  0  0  0  0  0  0  0  0  0
   37.9860   24.0920   42.3650 Cl  0  0  0  0  0  0  0  0  0  0  0  0
   37.2300   25.9900   40.5620 C   0  0  0  0  0  0  0  0  0  0  0  0
   37.5180   25.2530   39.8170 H   0  0  0  0  0  0  0  0  0  0  0  0
   37.9520   30.7910   40.8370 C   0  0  0  0  0  0  0  0  0  0  0  0
   36.7820   30.4440   40.1650 C   0  0  0  0  0  0  0  0  0  0  0  0
   36.5770   31.0170   38.8820 C   0  0  0  0  0  0  0  0  0  0  0  0
   37.5250   31.8580   38.3970 N   0  0  0  0  0  0  0  0  0  0  0  0
   38.6350   32.1500   39.1030 C   0  0  0  0  0  0  0  0  0  0  0  0
   38.8570   31.6260   40.3140 N   0  0  0  0  0  0  0  0  0  0  0  0
   38.2180   30.4230   41.8170 H   0  0  0  0  0  0  0  0  0  0  0  0
   35.6830   30.7760   38.3230 H   0  0  0  0  0  0  0  0  0  0  0  0
   39.3160   32.8260   38.6210 H   0  0  0  0  0  0  0  0  0  0  0  0
   34.6990   29.3120   39.7910 C   0  0  0  0  0  0  0  0  0  0  0  0
   34.1050   30.2620   39.6540 H   0  0  0  0  0  0  0  0  0  0  0  0
   35.0570   28.9660   38.8020 H   0  0  0  0  0  0  0  0  0  0  0  0
   33.9680   28.6110   40.2580 H   0  0  0  0  0  0  0  0  0  0  0  0
  1  5  1  0  0  0  0
  1  2  1  1  0  0  0
  3  4  1  0  0  0  0
  4 11  2  0  0  0  0
  4  5  1  0  0  0  0
  5  6  2  0  0  0  0
  6  8  1  0  0  0  0
  6  7  1  0  0  0  0
  9 10  1  0  0  0  0
  9  8  2  0  0  0  0
 11  9  1  0  0  0  0
 12 11  1  0  0  0  0
 13 19  1  0  0  0  0
 14  1  1  0  0  0  0
 14 13  2  0  0  0  0
 15 14  1  0  0  0  0
 16 15  2  0  0  0  0
 16 17  1  0  0  0  0
 17 18  2  0  0  0  0
 18 13  1  0  0  0  0
 20 15  1  0  0  0  0
 21 17  1  0  0  0  0
 22 25  1  0  0  0  0
 22  1  1  0  0  0  0
 23 22  1  0  0  0  0
 24 22  1  0  0  0  0
M  END
>  <minimizedAffinity>
-4.62900829

$$$$

 OpenBabel03252502373D

 25 26  0  0  1  0  0  0  0  0999 V2000
   37.2270   31.1560   39.0450 C   0  0  1  0  0  0  0  0  0  0  0  0
   36.2760   31.6710   38.8020 H   0  0  0  0  0  0  0  0  0  0  0  0
   34.7440   29.3200   38.9610 Cl  0  0  0  0  0  0  0  0  0  0  0  0
   35.9610   29.2830   40.1920 C   0  0  0  0  0  0  0  0  0  0  0  0
   37.0210   30.1530   40.1180 C   0  0  0  0  0  0  0  0  0  0  0  0
   37.9180   30.0060   41.1760 C   0  0  0  0  0  0  0  0  0  0  0  0
   38.8020   30.6420   41.2260 H   0  0  0  0  0  0  0  0  0  0  0  0
   37.8150   29.1190   42.2050 C   0  0  0  0  0  3  0  0  0  0  0  0
   36.7140   28.2700   42.2140 C   0  0  0  0  0  0  0  0  0  0  0  0
   36.5250   27.1100   43.5040 Cl  0  0  0  0  0  0  0  0  0  0  0  0
   35.7860   28.3590   41.1980 C   0  0  0  0  0  0  0  0  0  0  0  0
   34.9330   27.6850   41.2260 H   0  0  0  0  0  0  0  0  0  0  0  0
   37.9670   33.2000   40.2150 C   0  0  0  0  0  0  0  0  0  0  0  0
   38.2340   32.1690   39.3170 C   0  0  0  0  0  0  0  0  0  0  0  0
   39.5120   32.1620   38.6990 C   0  0  0  0  0  0  0  0  0  0  0  0
   40.3850   33.1510   39.0200 N   0  0  0  0  0  0  0  0  0  0  0  0
   40.0590   34.1190   39.8990 C   0  0  0  0  0  0  0  0  0  0  0  0
   38.8630   34.1530   40.4980 N   0  0  0  0  0  0  0  0  0  0  0  0
   37.0320   33.3140   40.7450 H   0  0  0  0  0  0  0  0  0  0  0  0
   39.7650   31.3810   37.9950 H   0  0  0  0  0  0  0  0  0  0  0  0
   40.8260   34.8490   40.0760 H   0  0  0  0  0  0  0  0  0  0  0  0
   37.6580   30.3950   37.8070 C   0  0  0  0  0  0  0  0  0  0  0  0
   37.6160   31.0620   36.8970 H   0  0  0  0  0  0  0  0  0  0  0  0
   38.6790   29.9760   37.8990 H   0  0  0  0  0  0  0  0  0  0  0  0
   36.8870   29.6170   37.5970 H   0  0  0  0  0  0  0  0  0  0  0  0
  1  2  1  6  0  0  0
  1 14  1  0  0  0  0
  1  5  1  0  0  0  0
  3  4  1  0  0  0  0
  4 11  1  0  0  0  0
  5  4  2  0  0  0  0
  5  6  1  0  0  0  0
  6  7  1  0  0  0  0
  6  8  2  0  0  0  0
  8  9  1  0  0  0  0
  9 10  1  0  0  0  0
 11 12  1  0  0  0  0
 11  9  2  0  0  0  0
 13 18  1  0  0  0  0
 13 19  1  0  0  0  0
 14 13  2  0  0  0  0
 15 16  2  0  0  0  0
 15 14  1  0  0  0  0
 16 17  1  0  0  0  0
 17 21  1  0  0  0  0
 17 18  2  0  0  0  0
 20 15  1  0  0  0  0
 22 24  1  0  0  0  0
 22  1  1  0  0  0  0
 23 22  1  0  0  0  0
 25 22  1  0  0  0  0
M  END
>  <minimizedAffinity>
-4.60232067

$$$$

 OpenBabel03252502373D

 25 26  0  0  1  0  0  0  0  0999 V2000
   36.1750   30.4330   40.4690 C   0  0  1  0  0  0  0  0  0  0  0  0
   35.1140   30.5620   40.7670 H   0  0  0  0  0  0  0  0  0  0  0  0
   33.7770   29.0570   39.0910 Cl  0  0  0  0  0  0  0  0  0  0  0  0
   35.2810   29.4290   38.3190 C   0  0  0  0  0  0  0  0  0  0  0  0
   36.2740   30.0460   39.0410 C   0  0  0  0  0  0  0  0  0  0  0  0
   37.4250   30.2830   38.2890 C   0  0  0  0  0  0  0  0  0  0  0  0
   38.2830   30.7690   38.7540 H   0  0  0  0  0  0  0  0  0  0  0  0
   37.6120   29.9640   36.9770 C   0  0  0  0  0  3  0  0  0  0  0  0
   36.5620   29.3410   36.3110 C   0  0  0  0  0  0  0  0  0  0  0  0
   36.7390   28.9090   34.6300 Cl  0  0  0  0  0  0  0  0  0  0  0  0
   35.3930   29.0760   36.9940 C   0  0  0  0  0  0  0  0  0  0  0  0
   34.5870   28.5880   36.4520 H   0  0  0  0  0  0  0  0  0  0  0  0
   36.2530   28.2640   41.6450 C   0  0  0  0  0  0  0  0  0  0  0  0
   36.8030   29.5220   41.4130 C   0  0  0  0  0  0  0  0  0  0  0  0
   37.9820   29.8570   42.1300 C   0  0  0  0  0  0  0  0  0  0  0  0
   38.4940   28.9380   42.9870 N   0  0  0  0  0  0  0  0  0  0  0  0
   37.9080   27.7360   43.1630 C   0  0  0  0  0  0  0  0  0  0  0  0
   36.7970   27.3910   42.5020 N   0  0  0  0  0  0  0  0  0  0  0  0
   35.3580   27.8960   41.1630 H   0  0  0  0  0  0  0  0  0  0  0  0
   38.4450   30.8230   41.9810 H   0  0  0  0  0  0  0  0  0  0  0  0
   38.3990   27.0900   43.8650 H   0  0  0  0  0  0  0  0  0  0  0  0
   36.8500   31.7830   40.6080 C   0  0  0  0  0  0  0  0  0  0  0  0
   36.6180   32.2400   41.6140 H   0  0  0  0  0  0  0  0  0  0  0  0
   37.9490   31.7230   40.4850 H   0  0  0  0  0  0  0  0  0  0  0  0
   36.3700   32.4820   39.8850 H   0  0  0  0  0  0  0  0  0  0  0  0
  1 22  1  0  0  0  0
  1  2  1  1  0  0  0
  1 14  1  0  0  0  0
  4  5  1  0  0  0  0
  4  3  1  0  0  0  0
  5  1  1  0  0  0  0
  6  7  1  0  0  0  0
  6  5  2  0  0  0  0
  8  6  1  0  0  0  0
  9  8  2  0  0  0  0
  9 11  1  0  0  0  0
 10  9  1  0  0  0  0
 11  4  2  0  0  0  0
 12 11  1  0  0  0  0
 13 18  1  0  0  0  0
 14 13  2  0  0  0  0
 14 15  1  0  0  0  0
 15 16  2  0  0  0  0
 16 17  1  0  0  0  0
 17 21  1  0  0  0  0
 18 17  2  0  0  0  0
 19 13  1  0  0  0  0
 20 15  1  0  0  0  0
 22 23  1  0  0  0  0
 24 22  1  0  0  0  0
 25 22  1  0  0  0  0
M  END
>  <minimizedAffinity>
-4.53845024

$$$$

 OpenBabel03252502373D

 25 26  0  0  1  0  0  0  0  0999 V2000
   37.9310   26.9210   43.1710 C   0  0  1  0  0  0  0  0  0  0  0  0
   38.3800   26.4070   44.0440 H   0  0  0  0  0  0  0  0  0  0  0  0
   36.4860   27.8920   40.6190 Cl  0  0  0  0  0  0  0  0  0  0  0  0
   36.9560   26.2540   40.9270 C   0  0  0  0  0  0  0  0  0  0  0  0
   37.5960   25.9470   42.1040 C   0  0  0  0  0  0  0  0  0  0  0  0
   37.9140   24.5930   42.2110 C   0  0  0  0  0  0  0  0  0  0  0  0
   38.4250   24.2280   43.1020 H   0  0  0  0  0  0  0  0  0  0  0  0
   37.6480   23.6260   41.2890 C   0  0  0  0  0  3  0  0  0  0  0  0
   36.9970   24.0120   40.1220 C   0  0  0  0  0  0  0  0  0  0  0  0
   36.6290   22.8190   38.9020 Cl  0  0  0  0  0  0  0  0  0  0  0  0
   36.6530   25.3360   39.9480 C   0  0  0  0  0  0  0  0  0  0  0  0
   36.1440   25.6130   39.0280 H   0  0  0  0  0  0  0  0  0  0  0  0
   38.4870   29.3240   43.0780 C   0  0  0  0  0  0  0  0  0  0  0  0
   38.8170   28.0050   42.7770 C   0  0  0  0  0  0  0  0  0  0  0  0
   40.0360   27.7830   42.0850 C   0  0  0  0  0  0  0  0  0  0  0  0
   40.7960   28.8610   41.7640 N   0  0  0  0  0  0  0  0  0  0  0  0
   40.4140   30.1130   42.0860 C   0  0  0  0  0  0  0  0  0  0  0  0
   39.2710   30.3540   42.7390 N   0  0  0  0  0  0  0  0  0  0  0  0
   37.5860   29.6200   43.5980 H   0  0  0  0  0  0  0  0  0  0  0  0
   40.3340   26.7750   41.8310 H   0  0  0  0  0  0  0  0  0  0  0  0
   41.0930   30.8870   41.7820 H   0  0  0  0  0  0  0  0  0  0  0  0
   36.6240   27.5360   43.6320 C   0  0  0  0  0  0  0  0  0  0  0  0
   36.7750   28.1160   44.5890 H   0  0  0  0  0  0  0  0  0  0  0  0
   36.1770   28.2050   42.8720 H   0  0  0  0  0  0  0  0  0  0  0  0
   35.9430   26.7070   43.9340 H   0  0  0  0  0  0  0  0  0  0  0  0
  1 22  1  0  0  0  0
  1  2  1  1  0  0  0
  3  4  1  0  0  0  0
  4  5  1  0  0  0  0
  5  6  2  0  0  0  0
  5  1  1  0  0  0  0
  6  7  1  0  0  0  0
  8  6  1  0  0  0  0
  9  8  2  0  0  0  0
 10  9  1  0  0  0  0
 11  9  1  0  0  0  0
 11  4  2  0  0  0  0
 12 11  1  0  0  0  0
 13 19  1  0  0  0  0
 14 13  1  0  0  0  0
 14  1  1  0  0  0  0
 15 14  2  0  0  0  0
 16 15  1  0  0  0  0
 16 17  2  0  0  0  0
 17 18  1  0  0  0  0
 18 13  2  0  0  0  0
 20 15  1  0  0  0  0
 21 17  1  0  0  0  0
 22 25  1  0  0  0  0
 22 23  1  0  0  0  0
 24 22  1  0  0  0  0
M  END
>  <minimizedAffinity>
-4.52423859

$$$$
