
 OpenBabel03252508483D

 46 48  0  0  0  0  0  0  0  0999 V2000
   37.7080   29.4350   42.1760 N   0  0  0  0  0  0  0  0  0  0  0  0
   38.4210   30.0820   42.6070 H   0  0  0  0  0  0  0  0  0  0  0  0
   36.5900   30.1720   41.6760 C   0  0  0  0  0  0  0  0  0  0  0  0
   35.6980   29.9380   42.2880 H   0  0  0  0  0  0  0  0  0  0  0  0
   36.7440   31.2770   41.7670 H   0  0  0  0  0  0  0  0  0  0  0  0
   36.8170   30.6240   39.2180 C   0  0  0  0  0  0  0  0  0  0  0  0
   36.2470   29.8730   40.2540 C   0  0  0  0  0  0  0  0  0  0  0  0
   35.3700   28.8620   39.9220 C   0  0  0  0  0  0  0  0  0  0  0  0
   35.0680   28.6030   38.6180 C   0  0  0  0  0  0  0  0  0  0  0  0
   35.6160   29.3280   37.5820 C   0  0  0  0  0  0  0  0  0  0  0  0
   36.4950   30.3390   37.9470 C   0  0  0  0  0  0  0  0  0  0  0  0
   34.9590   28.3140   40.7620 H   0  0  0  0  0  0  0  0  0  0  0  0
   34.3710   27.7950   38.4410 H   0  0  0  0  0  0  0  0  0  0  0  0
   35.3530   29.0930   36.5640 H   0  0  0  0  0  0  0  0  0  0  0  0
   36.9480   30.9320   37.1610 H   0  0  0  0  0  0  0  0  0  0  0  0
   38.3610   33.9490   40.1130 C   0  0  0  0  0  0  0  0  0  0  0  0
   37.3800   33.0190   39.7120 C   0  0  0  0  0  0  0  0  0  0  0  0
   37.7320   31.6760   39.6180 C   0  0  0  0  0  0  0  0  0  0  0  0
   39.0220   31.3490   39.9250 N   0  0  0  0  0  0  0  0  0  0  0  0
   39.9480   32.2610   40.3090 C   0  0  0  0  0  0  0  0  0  0  0  0
   39.6040   33.5510   40.3970 N   0  0  0  0  0  0  0  0  0  0  0  0
   37.9570   34.9390   40.1400 H   0  0  0  0  0  0  0  0  0  0  0  0
   36.3710   33.2390   39.4650 H   0  0  0  0  0  0  0  0  0  0  0  0
   40.9600   32.0170   40.5500 H   0  0  0  0  0  0  0  0  0  0  0  0
   37.2670   28.3190   43.4070 S   0  0  0  0  0  0  0  0  0  0  0  0
   36.1130   27.4530   42.9600 O   0  0  0  0  0  0  0  0  0  0  0  0
   36.2130   26.7010   42.3070 H   0  0  0  0  0  0  0  0  0  0  0  0
   36.9540   29.0080   44.6800 O   0  0  0  0  0  0  0  0  0  0  0  0
   36.8070   29.9650   44.8640 H   0  0  0  0  0  0  0  0  0  0  0  0
   38.6100   27.3360   43.6580 O   0  0  0  0  0  0  0  0  0  0  0  0
   39.5770   27.6460   42.7360 C   0  0  0  0  0  0  0  0  0  0  0  0
   40.4540   28.0310   43.2970 H   0  0  0  0  0  0  0  0  0  0  0  0
   39.3130   28.4110   41.9940 H   0  0  0  0  0  0  0  0  0  0  0  0
   40.0080   26.3590   42.0070 C   0  0  0  0  0  0  0  0  0  0  0  0
   40.4530   25.7230   42.7730 H   0  0  0  0  0  0  0  0  0  0  0  0
   40.7840   26.6460   41.3020 H   0  0  0  0  0  0  0  0  0  0  0  0
   38.9430   27.6220   39.4210 Cl  0  0  0  0  0  0  0  0  0  0  0  0
   38.2520   26.2080   40.1900 C   0  0  0  0  0  0  0  0  0  0  0  0
   38.8340   25.7390   41.3450 C   0  0  0  0  0  0  0  0  0  0  0  0
   38.2940   24.6080   41.9690 C   0  0  0  0  0  0  0  0  0  0  0  0
   38.7390   24.2210   42.8770 H   0  0  0  0  0  0  0  0  0  0  0  0
   37.1940   23.9540   41.4530 C   0  0  0  0  0  3  0  0  0  0  0  0
   36.6440   24.4540   40.3010 C   0  0  0  0  0  0  0  0  0  0  0  0
   35.2350   23.6020   39.6630 Cl  0  0  0  0  0  0  0  0  0  0  0  0
   37.1400   25.5730   39.6420 C   0  0  0  0  0  0  0  0  0  0  0  0
   36.6680   25.9390   38.7180 H   0  0  0  0  0  0  0  0  0  0  0  0
  1  2  1  0  0  0  0
  1 25  1  0  0  0  0
  3  5  1  0  0  0  0
  3  1  1  0  0  0  0
  3  4  1  0  0  0  0
  6 18  1  0  0  0  0
  6  7  1  0  0  0  0
  7  3  1  0  0  0  0
  8  7  2  0  0  0  0
  8 12  1  0  0  0  0
  9  8  1  0  0  0  0
 10 11  1  0  0  0  0
 10  9  2  0  0  0  0
 11  6  2  0  0  0  0
 13  9  1  0  0  0  0
 14 10  1  0  0  0  0
 15 11  1  0  0  0  0
 16 22  1  0  0  0  0
 16 21  1  0  0  0  0
 17 16  2  0  0  0  0
 18 17  1  0  0  0  0
 18 19  2  0  0  0  0
 19 20  1  0  0  0  0
 20 21  2  0  0  0  0
 20 24  1  0  0  0  0
 23 17  1  0  0  0  0
 25 30  1  0  0  0  0
 25 28  1  0  0  0  0
 26 25  1  0  0  0  0
 27 26  1  0  0  0  0
 28 29  1  0  0  0  0
 31 32  1  0  0  0  0
 31 30  1  0  0  0  0
 33 31  1  0  0  0  0
 34 31  1  0  0  0  0
 34 35  1  0  0  0  0
 36 34  1  0  0  0  0
 37 38  1  0  0  0  0
 38 39  1  0  0  0  0
 39 40  2  0  0  0  0
 39 34  1  0  0  0  0
 40 41  1  0  0  0  0
 42 40  1  0  0  0  0
 43 42  2  0  0  0  0
 44 43  1  0  0  0  0
 45 38  2  0  0  0  0
 45 43  1  0  0  0  0
 46 45  1  0  0  0  0
M  END
>  <minimizedAffinity>
-6.11692715

$$$$

 OpenBabel03252508483D

 46 48  0  0  0  0  0  0  0  0999 V2000
   36.8610   29.1520   43.0790 N   0  0  0  0  0  0  0  0  0  0  0  0
   36.6750   29.8710   43.8290 H   0  0  0  0  0  0  0  0  0  0  0  0
   38.0940   28.4710   43.3220 C   0  0  0  0  0  0  0  0  0  0  0  0
   38.9050   28.9760   42.7630 H   0  0  0  0  0  0  0  0  0  0  0  0
   38.3900   28.5170   44.4000 H   0  0  0  0  0  0  0  0  0  0  0  0
   39.2970   26.3300   42.8040 C   0  0  0  0  0  0  0  0  0  0  0  0
   38.0920   27.0370   42.9080 C   0  0  0  0  0  0  0  0  0  0  0  0
   36.9190   26.3720   42.6200 C   0  0  0  0  0  0  0  0  0  0  0  0
   36.9350   25.0620   42.2430 C   0  0  0  0  0  0  0  0  0  0  0  0
   38.1080   24.3470   42.1340 C   0  0  0  0  0  0  0  0  0  0  0  0
   39.2730   25.0420   42.4300 C   0  0  0  0  0  0  0  0  0  0  0  0
   36.0170   26.9660   42.7160 H   0  0  0  0  0  0  0  0  0  0  0  0
   35.9730   24.6140   42.0330 H   0  0  0  0  0  0  0  0  0  0  0  0
   38.0800   23.3120   41.8340 H   0  0  0  0  0  0  0  0  0  0  0  0
   40.2160   24.5150   42.3570 H   0  0  0  0  0  0  0  0  0  0  0  0
   42.2360   28.6950   42.7010 C   0  0  0  0  0  0  0  0  0  0  0  0
   41.0580   28.0410   42.2860 C   0  0  0  0  0  0  0  0  0  0  0  0
   40.5030   27.0730   43.1160 C   0  0  0  0  0  0  0  0  0  0  0  0
   41.1500   26.8200   44.2930 N   0  0  0  0  0  0  0  0  0  0  0  0
   42.2820   27.4620   44.6720 C   0  0  0  0  0  0  0  0  0  0  0  0
   42.8100   28.3930   43.8680 N   0  0  0  0  0  0  0  0  0  0  0  0
   42.5520   29.4090   41.9700 H   0  0  0  0  0  0  0  0  0  0  0  0
   40.5330   28.2120   41.3790 H   0  0  0  0  0  0  0  0  0  0  0  0
   42.7960   27.2710   45.5890 H   0  0  0  0  0  0  0  0  0  0  0  0
   36.8610   30.0060   41.5860 S   0  0  0  0  0  0  0  0  0  0  0  0
   38.1790   30.7140   41.3710 O   0  0  0  0  0  0  0  0  0  0  0  0
   39.0190   30.2390   41.1050 H   0  0  0  0  0  0  0  0  0  0  0  0
   35.7280   30.9560   41.5020 O   0  0  0  0  0  0  0  0  0  0  0  0
   35.1100   31.2700   42.2030 H   0  0  0  0  0  0  0  0  0  0  0  0
   36.6700   28.8500   40.3780 O   0  0  0  0  0  0  0  0  0  0  0  0
   35.6330   29.2180   39.5580 C   0  0  0  0  0  0  0  0  0  0  0  0
   35.9900   30.0690   38.9410 H   0  0  0  0  0  0  0  0  0  0  0  0
   34.7150   29.5520   40.0580 H   0  0  0  0  0  0  0  0  0  0  0  0
   35.3010   28.0500   38.6110 C   0  0  0  0  0  0  0  0  0  0  0  0
   34.2260   27.8960   38.7020 H   0  0  0  0  0  0  0  0  0  0  0  0
   35.8110   27.1760   39.0050 H   0  0  0  0  0  0  0  0  0  0  0  0
   38.1440   27.3080   37.7260 Cl  0  0  0  0  0  0  0  0  0  0  0  0
   36.9710   28.1200   36.7090 C   0  0  0  0  0  0  0  0  0  0  0  0
   35.7250   28.3870   37.2300 C   0  0  0  0  0  0  0  0  0  0  0  0
   34.7770   29.0320   36.4280 C   0  0  0  0  0  0  0  0  0  0  0  0
   33.7900   29.2490   36.8170 H   0  0  0  0  0  0  0  0  0  0  0  0
   35.0610   29.4060   35.1310 C   0  0  0  0  0  3  0  0  0  0  0  0
   36.3140   29.1220   34.6510 C   0  0  0  0  0  0  0  0  0  0  0  0
   36.6540   29.6120   32.9890 Cl  0  0  0  0  0  0  0  0  0  0  0  0
   37.2920   28.4830   35.4040 C   0  0  0  0  0  0  0  0  0  0  0  0
   38.2840   28.2720   34.9790 H   0  0  0  0  0  0  0  0  0  0  0  0
  1  3  1  0  0  0  0
  1  2  1  0  0  0  0
  3  5  1  0  0  0  0
  4  3  1  0  0  0  0
  6  7  1  0  0  0  0
  6 18  1  0  0  0  0
  7  3  1  0  0  0  0
  8 12  1  0  0  0  0
  8  7  2  0  0  0  0
  9  8  1  0  0  0  0
 10  9  2  0  0  0  0
 10 11  1  0  0  0  0
 11  6  2  0  0  0  0
 13  9  1  0  0  0  0
 14 10  1  0  0  0  0
 15 11  1  0  0  0  0
 16 21  1  0  0  0  0
 17 16  2  0  0  0  0
 17 18  1  0  0  0  0
 18 19  2  0  0  0  0
 19 20  1  0  0  0  0
 20 24  1  0  0  0  0
 21 20  2  0  0  0  0
 22 16  1  0  0  0  0
 23 17  1  0  0  0  0
 25  1  1  0  0  0  0
 26 25  1  0  0  0  0
 27 26  1  0  0  0  0
 28 25  1  0  0  0  0
 28 29  1  0  0  0  0
 30 25  1  0  0  0  0
 31 33  1  0  0  0  0
 31 30  1  0  0  0  0
 32 31  1  0  0  0  0
 34 35  1  0  0  0  0
 34 36  1  0  0  0  0
 34 31  1  0  0  0  0
 38 39  1  0  0  0  0
 38 37  1  0  0  0  0
 39 34  1  0  0  0  0
 40 41  1  0  0  0  0
 40 39  2  0  0  0  0
 42 40  1  0  0  0  0
 43 42  2  0  0  0  0
 43 45  1  0  0  0  0
 44 43  1  0  0  0  0
 45 38  2  0  0  0  0
 46 45  1  0  0  0  0
M  END
>  <minimizedAffinity>
-6.08311987

$$$$

 OpenBabel03252508483D

 46 48  0  0  0  0  0  0  0  0999 V2000
   36.8890   31.5580   40.3360 N   0  0  0  0  0  0  0  0  0  0  0  0
   36.8070   31.7890   41.3630 H   0  0  0  0  0  0  0  0  0  0  0  0
   37.6240   30.3470   40.1450 C   0  0  0  0  0  0  0  0  0  0  0  0
   37.2870   29.8610   39.2100 H   0  0  0  0  0  0  0  0  0  0  0  0
   38.7190   30.5400   40.0150 H   0  0  0  0  0  0  0  0  0  0  0  0
   36.8030   28.1400   41.0150 C   0  0  0  0  0  0  0  0  0  0  0  0
   37.4630   29.3540   41.2480 C   0  0  0  0  0  0  0  0  0  0  0  0
   37.9530   29.5980   42.5140 C   0  0  0  0  0  0  0  0  0  0  0  0
   37.7970   28.6790   43.5100 C   0  0  0  0  0  0  0  0  0  0  0  0
   37.1510   27.4790   43.3030 C   0  0  0  0  0  0  0  0  0  0  0  0
   36.6700   27.2610   42.0190 C   0  0  0  0  0  0  0  0  0  0  0  0
   38.4530   30.5500   42.6390 H   0  0  0  0  0  0  0  0  0  0  0  0
   38.2080   28.9470   44.4740 H   0  0  0  0  0  0  0  0  0  0  0  0
   37.0490   26.7780   44.1150 H   0  0  0  0  0  0  0  0  0  0  0  0
   36.1560   26.3290   41.8160 H   0  0  0  0  0  0  0  0  0  0  0  0
   34.7340   28.1820   37.8590 C   0  0  0  0  0  0  0  0  0  0  0  0
   35.1100   28.4570   39.1900 C   0  0  0  0  0  0  0  0  0  0  0  0
   36.3060   27.9310   39.6680 C   0  0  0  0  0  0  0  0  0  0  0  0
   37.0420   27.1740   38.8010 N   0  0  0  0  0  0  0  0  0  0  0  0
   36.6600   26.9240   37.5250 C   0  0  0  0  0  0  0  0  0  0  0  0
   35.5080   27.4320   37.0720 N   0  0  0  0  0  0  0  0  0  0  0  0
   33.7970   28.6430   37.6260 H   0  0  0  0  0  0  0  0  0  0  0  0
   34.5610   29.0380   39.8890 H   0  0  0  0  0  0  0  0  0  0  0  0
   37.2270   26.3310   36.8400 H   0  0  0  0  0  0  0  0  0  0  0  0
   37.6460   32.9140   39.5990 S   0  0  0  0  0  0  0  0  0  0  0  0
   36.7370   34.1210   39.6300 O   0  0  0  0  0  0  0  0  0  0  0  0
   36.5680   34.6590   40.4570 H   0  0  0  0  0  0  0  0  0  0  0  0
   38.0810   32.6100   38.2160 O   0  0  0  0  0  0  0  0  0  0  0  0
   37.8600   31.8440   37.6350 H   0  0  0  0  0  0  0  0  0  0  0  0
   39.0160   33.2500   40.5180 O   0  0  0  0  0  0  0  0  0  0  0  0
   39.0140   34.5780   40.8650 C   0  0  0  0  0  0  0  0  0  0  0  0
   39.4160   34.6480   41.8970 H   0  0  0  0  0  0  0  0  0  0  0  0
   38.0370   35.0770   40.8690 H   0  0  0  0  0  0  0  0  0  0  0  0
   39.9710   35.3420   39.9310 C   0  0  0  0  0  0  0  0  0  0  0  0
   39.7630   36.3990   40.1000 H   0  0  0  0  0  0  0  0  0  0  0  0
   39.6820   35.0900   38.9150 H   0  0  0  0  0  0  0  0  0  0  0  0
   41.4830   33.5600   37.9430 Cl  0  0  0  0  0  0  0  0  0  0  0  0
   42.1620   34.1720   39.4370 C   0  0  0  0  0  0  0  0  0  0  0  0
   41.3750   34.9710   40.2360 C   0  0  0  0  0  0  0  0  0  0  0  0
   41.9050   35.4700   41.4310 C   0  0  0  0  0  0  0  0  0  0  0  0
   41.3040   36.1020   42.0720 H   0  0  0  0  0  0  0  0  0  0  0  0
   43.1950   35.1810   41.8270 C   0  0  0  0  0  3  0  0  0  0  0  0
   43.9450   34.3810   41.0030 C   0  0  0  0  0  0  0  0  0  0  0  0
   45.5910   34.0230   41.5320 Cl  0  0  0  0  0  0  0  0  0  0  0  0
   43.4680   33.8600   39.8060 C   0  0  0  0  0  0  0  0  0  0  0  0
   44.1050   33.2240   39.1730 H   0  0  0  0  0  0  0  0  0  0  0  0
  1  2  1  0  0  0  0
  3  1  1  0  0  0  0
  3  7  1  0  0  0  0
  4  3  1  0  0  0  0
  5  3  1  0  0  0  0
  6  7  2  0  0  0  0
  6 11  1  0  0  0  0
  7  8  1  0  0  0  0
  8 12  1  0  0  0  0
  8  9  2  0  0  0  0
  9 13  1  0  0  0  0
 10  9  1  0  0  0  0
 10 14  1  0  0  0  0
 11 10  2  0  0  0  0
 15 11  1  0  0  0  0
 16 17  1  0  0  0  0
 17 18  2  0  0  0  0
 17 23  1  0  0  0  0
 18  6  1  0  0  0  0
 19 18  1  0  0  0  0
 20 19  2  0  0  0  0
 21 20  1  0  0  0  0
 21 16  2  0  0  0  0
 22 16  1  0  0  0  0
 24 20  1  0  0  0  0
 25 26  1  0  0  0  0
 25  1  1  0  0  0  0
 25 30  1  0  0  0  0
 26 27  1  0  0  0  0
 28 25  1  0  0  0  0
 29 28  1  0  0  0  0
 30 31  1  0  0  0  0
 31 33  1  0  0  0  0
 31 32  1  0  0  0  0
 34 35  1  0  0  0  0
 34 39  1  0  0  0  0
 34 31  1  0  0  0  0
 36 34  1  0  0  0  0
 37 38  1  0  0  0  0
 38 45  2  0  0  0  0
 38 39  1  0  0  0  0
 39 40  2  0  0  0  0
 40 42  1  0  0  0  0
 40 41  1  0  0  0  0
 43 44  1  0  0  0  0
 43 42  2  0  0  0  0
 45 43  1  0  0  0  0
 46 45  1  0  0  0  0
M  END
>  <minimizedAffinity>
-6.03910971

$$$$

 OpenBabel03252508483D

 46 48  0  0  0  0  0  0  0  0999 V2000
   36.9350   28.5180   40.6450 N   0  0  0  0  0  0  0  0  0  0  0  0
   36.7440   28.0060   39.7430 H   0  0  0  0  0  0  0  0  0  0  0  0
   36.6550   27.6850   41.7720 C   0  0  0  0  0  0  0  0  0  0  0  0
   36.2050   28.2990   42.5760 H   0  0  0  0  0  0  0  0  0  0  0  0
   35.9000   26.8960   41.5300 H   0  0  0  0  0  0  0  0  0  0  0  0
   38.2460   25.7470   41.8810 C   0  0  0  0  0  0  0  0  0  0  0  0
   37.8560   27.0090   42.3460 C   0  0  0  0  0  0  0  0  0  0  0  0
   38.6090   27.6010   43.3380 C   0  0  0  0  0  0  0  0  0  0  0  0
   39.7040   26.9690   43.8520 C   0  0  0  0  0  0  0  0  0  0  0  0
   40.1050   25.7270   43.4100 C   0  0  0  0  0  0  0  0  0  0  0  0
   39.3290   25.1570   42.4100 C   0  0  0  0  0  0  0  0  0  0  0  0
   38.2640   28.5750   43.6610 H   0  0  0  0  0  0  0  0  0  0  0  0
   40.2400   27.4980   44.6280 H   0  0  0  0  0  0  0  0  0  0  0  0
   40.9770   25.2600   43.8400 H   0  0  0  0  0  0  0  0  0  0  0  0
   39.6120   24.1810   42.0360 H   0  0  0  0  0  0  0  0  0  0  0  0
   35.7280   23.6940   39.9600 C   0  0  0  0  0  0  0  0  0  0  0  0
   36.4680   24.1790   41.0580 C   0  0  0  0  0  0  0  0  0  0  0  0
   37.4210   25.1670   40.8380 C   0  0  0  0  0  0  0  0  0  0  0  0
   37.5770   25.6050   39.5530 N   0  0  0  0  0  0  0  0  0  0  0  0
   36.8530   25.1240   38.5120 C   0  0  0  0  0  0  0  0  0  0  0  0
   35.9370   24.1730   38.7320 N   0  0  0  0  0  0  0  0  0  0  0  0
   35.0360   22.9400   40.2710 H   0  0  0  0  0  0  0  0  0  0  0  0
   36.3740   23.8600   42.0670 H   0  0  0  0  0  0  0  0  0  0  0  0
   36.9680   25.4570   37.5040 H   0  0  0  0  0  0  0  0  0  0  0  0
   35.9570   29.9320   40.6090 S   0  0  0  0  0  0  0  0  0  0  0  0
   35.9820   30.6380   41.9450 O   0  0  0  0  0  0  0  0  0  0  0  0
   36.7610   31.1790   42.2650 H   0  0  0  0  0  0  0  0  0  0  0  0
   34.5680   29.6230   40.1970 O   0  0  0  0  0  0  0  0  0  0  0  0
   34.1110   28.7540   40.1090 H   0  0  0  0  0  0  0  0  0  0  0  0
   36.6360   30.9490   39.4520 O   0  0  0  0  0  0  0  0  0  0  0  0
   37.8150   31.4580   39.9330 C   0  0  0  0  0  0  0  0  0  0  0  0
   38.6390   30.9120   39.4280 H   0  0  0  0  0  0  0  0  0  0  0  0
   37.9830   31.3570   41.0140 H   0  0  0  0  0  0  0  0  0  0  0  0
   37.9190   32.9440   39.5400 C   0  0  0  0  0  0  0  0  0  0  0  0
   37.5440   33.5020   40.3990 H   0  0  0  0  0  0  0  0  0  0  0  0
   37.2390   33.0930   38.7060 H   0  0  0  0  0  0  0  0  0  0  0  0
   39.2240   35.3660   40.8980 Cl  0  0  0  0  0  0  0  0  0  0  0  0
   40.0250   34.3380   39.7280 C   0  0  0  0  0  0  0  0  0  0  0  0
   39.3240   33.2760   39.2000 C   0  0  0  0  0  0  0  0  0  0  0  0
   39.9520   32.4450   38.2660 C   0  0  0  0  0  0  0  0  0  0  0  0
   39.4200   31.6030   37.8410 H   0  0  0  0  0  0  0  0  0  0  0  0
   41.2530   32.6630   37.8620 C   0  0  0  0  0  3  0  0  0  0  0  0
   41.9150   33.7320   38.4110 C   0  0  0  0  0  0  0  0  0  0  0  0
   43.5770   33.9920   37.8760 Cl  0  0  0  0  0  0  0  0  0  0  0  0
   41.3390   34.5880   39.3420 C   0  0  0  0  0  0  0  0  0  0  0  0
   41.9070   35.4320   39.7590 H   0  0  0  0  0  0  0  0  0  0  0  0
  1  3  1  0  0  0  0
  2  1  1  0  0  0  0
  3  7  1  0  0  0  0
  3  4  1  0  0  0  0
  5  3  1  0  0  0  0
  6  7  2  0  0  0  0
  6 11  1  0  0  0  0
  7  8  1  0  0  0  0
  8 12  1  0  0  0  0
  8  9  2  0  0  0  0
  9 13  1  0  0  0  0
 10 14  1  0  0  0  0
 10  9  1  0  0  0  0
 11 10  2  0  0  0  0
 15 11  1  0  0  0  0
 16 22  1  0  0  0  0
 16 17  1  0  0  0  0
 17 23  1  0  0  0  0
 18 17  2  0  0  0  0
 18  6  1  0  0  0  0
 19 18  1  0  0  0  0
 20 21  1  0  0  0  0
 20 19  2  0  0  0  0
 21 16  2  0  0  0  0
 24 20  1  0  0  0  0
 25  1  1  0  0  0  0
 25 26  1  0  0  0  0
 26 27  1  0  0  0  0
 28 25  1  0  0  0  0
 29 28  1  0  0  0  0
 30 31  1  0  0  0  0
 30 25  1  0  0  0  0
 31 33  1  0  0  0  0
 32 31  1  0  0  0  0
 34 31  1  0  0  0  0
 34 35  1  0  0  0  0
 36 34  1  0  0  0  0
 38 37  1  0  0  0  0
 39 34  1  0  0  0  0
 39 38  2  0  0  0  0
 40 39  1  0  0  0  0
 41 40  1  0  0  0  0
 42 40  2  0  0  0  0
 42 43  1  0  0  0  0
 43 45  2  0  0  0  0
 44 43  1  0  0  0  0
 45 38  1  0  0  0  0
 45 46  1  0  0  0  0
M  END
>  <minimizedAffinity>
-6.02866793

$$$$

 OpenBabel03252508483D

 46 48  0  0  0  0  0  0  0  0999 V2000
   37.8960   30.2070   41.5560 N   0  0  0  0  0  0  0  0  0  0  0  0
   38.3940   30.8600   42.2180 H   0  0  0  0  0  0  0  0  0  0  0  0
   36.8300   30.8810   40.8830 C   0  0  0  0  0  0  0  0  0  0  0  0
   35.8620   30.4850   41.2460 H   0  0  0  0  0  0  0  0  0  0  0  0
   36.8190   31.9760   41.1120 H   0  0  0  0  0  0  0  0  0  0  0  0
   37.6090   31.5920   38.6050 C   0  0  0  0  0  0  0  0  0  0  0  0
   36.8480   30.7240   39.3980 C   0  0  0  0  0  0  0  0  0  0  0  0
   36.1250   29.7320   38.7710 C   0  0  0  0  0  0  0  0  0  0  0  0
   36.1530   29.6030   37.4130 C   0  0  0  0  0  0  0  0  0  0  0  0
   36.8940   30.4460   36.6130 C   0  0  0  0  0  0  0  0  0  0  0  0
   37.6110   31.4340   37.2730 C   0  0  0  0  0  0  0  0  0  0  0  0
   35.5550   29.0890   39.4310 H   0  0  0  0  0  0  0  0  0  0  0  0
   35.5570   28.8000   36.9980 H   0  0  0  0  0  0  0  0  0  0  0  0
   36.8910   30.3110   35.5440 H   0  0  0  0  0  0  0  0  0  0  0  0
   38.2070   32.1170   36.6800 H   0  0  0  0  0  0  0  0  0  0  0  0
   38.6530   34.7830   40.3310 C   0  0  0  0  0  0  0  0  0  0  0  0
   37.8310   33.8680   39.6410 C   0  0  0  0  0  0  0  0  0  0  0  0
   38.3500   32.6200   39.3130 C   0  0  0  0  0  0  0  0  0  0  0  0
   39.6400   32.3660   39.6860 N   0  0  0  0  0  0  0  0  0  0  0  0
   40.4110   33.2610   40.3500 C   0  0  0  0  0  0  0  0  0  0  0  0
   39.9050   34.4600   40.6620 N   0  0  0  0  0  0  0  0  0  0  0  0
   38.1300   35.6980   40.5160 H   0  0  0  0  0  0  0  0  0  0  0  0
   36.8280   34.0330   39.3350 H   0  0  0  0  0  0  0  0  0  0  0  0
   41.4210   33.0740   40.6450 H   0  0  0  0  0  0  0  0  0  0  0  0
   37.3450   28.8860   42.5090 S   0  0  0  0  0  0  0  0  0  0  0  0
   36.0140   28.3770   42.0060 O   0  0  0  0  0  0  0  0  0  0  0  0
   35.9170   27.8250   41.1770 H   0  0  0  0  0  0  0  0  0  0  0  0
   37.2690   29.2450   43.9440 O   0  0  0  0  0  0  0  0  0  0  0  0
   37.3240   30.1270   44.3810 H   0  0  0  0  0  0  0  0  0  0  0  0
   38.4890   27.6650   42.3320 O   0  0  0  0  0  0  0  0  0  0  0  0
   38.7720   27.4990   41.0000 C   0  0  0  0  0  0  0  0  0  0  0  0
   39.7310   28.0210   40.8010 H   0  0  0  0  0  0  0  0  0  0  0  0
   38.0360   27.9040   40.2930 H   0  0  0  0  0  0  0  0  0  0  0  0
   38.9800   26.0000   40.7120 C   0  0  0  0  0  0  0  0  0  0  0  0
   39.1210   25.5310   41.6870 H   0  0  0  0  0  0  0  0  0  0  0  0
   39.9060   25.9170   40.1510 H   0  0  0  0  0  0  0  0  0  0  0  0
   38.3780   22.9970   40.8980 Cl  0  0  0  0  0  0  0  0  0  0  0  0
   37.4350   24.1390   39.9630 C   0  0  0  0  0  0  0  0  0  0  0  0
   37.8110   25.4630   39.9730 C   0  0  0  0  0  0  0  0  0  0  0  0
   37.0650   26.3880   39.2330 C   0  0  0  0  0  0  0  0  0  0  0  0
   37.3420   27.4340   39.2300 H   0  0  0  0  0  0  0  0  0  0  0  0
   35.9640   26.0040   38.4950 C   0  0  0  0  0  3  0  0  0  0  0  0
   35.6240   24.6750   38.5110 C   0  0  0  0  0  0  0  0  0  0  0  0
   34.2140   24.2080   37.5570 Cl  0  0  0  0  0  0  0  0  0  0  0  0
   36.3300   23.7160   39.2280 C   0  0  0  0  0  0  0  0  0  0  0  0
   36.0210   22.6610   39.2160 H   0  0  0  0  0  0  0  0  0  0  0  0
  1  2  1  0  0  0  0
  1 25  1  0  0  0  0
  3  5  1  0  0  0  0
  3  4  1  0  0  0  0
  3  1  1  0  0  0  0
  6 18  1  0  0  0  0
  6  7  1  0  0  0  0
  7  3  1  0  0  0  0
  8  7  2  0  0  0  0
  8 12  1  0  0  0  0
  9  8  1  0  0  0  0
 10 11  1  0  0  0  0
 10  9  2  0  0  0  0
 11  6  2  0  0  0  0
 13  9  1  0  0  0  0
 14 10  1  0  0  0  0
 15 11  1  0  0  0  0
 16 22  1  0  0  0  0
 16 21  1  0  0  0  0
 17 16  2  0  0  0  0
 18 17  1  0  0  0  0
 18 19  2  0  0  0  0
 19 20  1  0  0  0  0
 20 24  1  0  0  0  0
 20 21  2  0  0  0  0
 23 17  1  0  0  0  0
 25 28  1  0  0  0  0
 26 25  1  0  0  0  0
 27 26  1  0  0  0  0
 28 29  1  0  0  0  0
 30 25  1  0  0  0  0
 31 30  1  0  0  0  0
 32 31  1  0  0  0  0
 33 31  1  0  0  0  0
 34 31  1  0  0  0  0
 34 35  1  0  0  0  0
 36 34  1  0  0  0  0
 38 39  1  0  0  0  0
 38 37  1  0  0  0  0
 39 34  1  0  0  0  0
 40 39  2  0  0  0  0
 41 40  1  0  0  0  0
 42 43  2  0  0  0  0
 42 40  1  0  0  0  0
 43 45  1  0  0  0  0
 44 43  1  0  0  0  0
 45 38  2  0  0  0  0
 46 45  1  0  0  0  0
M  END
>  <minimizedAffinity>
-5.96740437

$$$$

 OpenBabel03252508483D

 46 48  0  0  0  0  0  0  0  0999 V2000
   38.7680   29.6990   36.9170 N   0  0  0  0  0  0  0  0  0  0  0  0
   38.9020   29.9490   35.9000 H   0  0  0  0  0  0  0  0  0  0  0  0
   38.0020   30.7010   37.5890 C   0  0  0  0  0  0  0  0  0  0  0  0
   38.6820   31.3420   38.1830 H   0  0  0  0  0  0  0  0  0  0  0  0
   37.4860   31.3850   36.8690 H   0  0  0  0  0  0  0  0  0  0  0  0
   36.7440   30.7750   39.7600 C   0  0  0  0  0  0  0  0  0  0  0  0
   36.9710   30.1590   38.5240 C   0  0  0  0  0  0  0  0  0  0  0  0
   36.2200   29.0480   38.2000 C   0  0  0  0  0  0  0  0  0  0  0  0
   35.2830   28.5660   39.0660 C   0  0  0  0  0  0  0  0  0  0  0  0
   35.0430   29.1560   40.2880 C   0  0  0  0  0  0  0  0  0  0  0  0
   35.8130   30.2720   40.5850 C   0  0  0  0  0  0  0  0  0  0  0  0
   36.4360   28.6110   37.2330 H   0  0  0  0  0  0  0  0  0  0  0  0
   34.7370   27.6910   38.7390 H   0  0  0  0  0  0  0  0  0  0  0  0
   34.2930   28.7460   40.9440 H   0  0  0  0  0  0  0  0  0  0  0  0
   35.6550   30.7650   41.5360 H   0  0  0  0  0  0  0  0  0  0  0  0
   38.1360   34.2770   39.9700 C   0  0  0  0  0  0  0  0  0  0  0  0
   37.2640   33.2270   39.6190 C   0  0  0  0  0  0  0  0  0  0  0  0
   37.5600   31.9390   40.0540 C   0  0  0  0  0  0  0  0  0  0  0  0
   38.6930   31.7810   40.8010 N   0  0  0  0  0  0  0  0  0  0  0  0
   39.5170   32.8070   41.1270 C   0  0  0  0  0  0  0  0  0  0  0  0
   39.2260   34.0430   40.7050 N   0  0  0  0  0  0  0  0  0  0  0  0
   37.7910   35.2080   39.5700 H   0  0  0  0  0  0  0  0  0  0  0  0
   36.3780   33.3140   39.0400 H   0  0  0  0  0  0  0  0  0  0  0  0
   40.4060   32.6940   41.7080 H   0  0  0  0  0  0  0  0  0  0  0  0
   40.3440   29.5170   37.5780 S   0  0  0  0  0  0  0  0  0  0  0  0
   40.4840   30.3050   38.8600 O   0  0  0  0  0  0  0  0  0  0  0  0
   40.0810   30.0150   39.7290 H   0  0  0  0  0  0  0  0  0  0  0  0
   41.3910   29.8990   36.6030 O   0  0  0  0  0  0  0  0  0  0  0  0
   41.3140   30.3720   35.7410 H   0  0  0  0  0  0  0  0  0  0  0  0
   40.5250   27.8820   37.9310 O   0  0  0  0  0  0  0  0  0  0  0  0
   40.2490   27.6720   39.2590 C   0  0  0  0  0  0  0  0  0  0  0  0
   40.1030   28.6680   39.7250 H   0  0  0  0  0  0  0  0  0  0  0  0
   41.0260   27.1590   39.8400 H   0  0  0  0  0  0  0  0  0  0  0  0
   38.9260   26.8930   39.3810 C   0  0  0  0  0  0  0  0  0  0  0  0
   39.1830   25.8480   39.2040 H   0  0  0  0  0  0  0  0  0  0  0  0
   38.2880   27.2340   38.5710 H   0  0  0  0  0  0  0  0  0  0  0  0
   36.7020   25.0100   40.3420 Cl  0  0  0  0  0  0  0  0  0  0  0  0
   37.3200   26.3630   41.2650 C   0  0  0  0  0  0  0  0  0  0  0  0
   38.3280   27.1250   40.7180 C   0  0  0  0  0  0  0  0  0  0  0  0
   38.8330   28.2080   41.4460 C   0  0  0  0  0  0  0  0  0  0  0  0
   39.6280   28.8180   41.0360 H   0  0  0  0  0  0  0  0  0  0  0  0
   38.3460   28.5300   42.6960 C   0  0  0  0  0  3  0  0  0  0  0  0
   37.3410   27.7460   43.2050 C   0  0  0  0  0  0  0  0  0  0  0  0
   36.7320   28.1800   44.8040 Cl  0  0  0  0  0  0  0  0  0  0  0  0
   36.8040   26.6600   42.5250 C   0  0  0  0  0  0  0  0  0  0  0  0
   36.0000   26.0560   42.9700 H   0  0  0  0  0  0  0  0  0  0  0  0
  1 25  1  0  0  0  0
  1  3  1  0  0  0  0
  2  1  1  0  0  0  0
  3  4  1  0  0  0  0
  3  7  1  0  0  0  0
  5  3  1  0  0  0  0
  6 18  1  0  0  0  0
  6 11  1  0  0  0  0
  7  6  2  0  0  0  0
  8  7  1  0  0  0  0
  8  9  2  0  0  0  0
  9 10  1  0  0  0  0
 10 11  2  0  0  0  0
 10 14  1  0  0  0  0
 11 15  1  0  0  0  0
 12  8  1  0  0  0  0
 13  9  1  0  0  0  0
 16 21  1  0  0  0  0
 17 16  2  0  0  0  0
 17 18  1  0  0  0  0
 18 19  2  0  0  0  0
 19 20  1  0  0  0  0
 20 24  1  0  0  0  0
 21 20  2  0  0  0  0
 22 16  1  0  0  0  0
 23 17  1  0  0  0  0
 25 30  1  0  0  0  0
 25 26  1  0  0  0  0
 26 27  1  0  0  0  0
 28 25  1  0  0  0  0
 29 28  1  0  0  0  0
 30 31  1  0  0  0  0
 31 34  1  0  0  0  0
 31 32  1  0  0  0  0
 31 33  1  0  0  0  0
 34 39  1  0  0  0  0
 35 34  1  0  0  0  0
 36 34  1  0  0  0  0
 37 38  1  0  0  0  0
 38 45  1  0  0  0  0
 39 38  2  0  0  0  0
 39 40  1  0  0  0  0
 40 42  2  0  0  0  0
 41 40  1  0  0  0  0
 42 43  1  0  0  0  0
 43 44  1  0  0  0  0
 45 46  1  0  0  0  0
 45 43  2  0  0  0  0
M  END
>  <minimizedAffinity>
-5.95906496

$$$$

 OpenBabel03252508483D

 46 48  0  0  0  0  0  0  0  0999 V2000
   37.8900   29.1000   42.2630 N   0  0  0  0  0  0  0  0  0  0  0  0
   38.7230   29.6350   42.6290 H   0  0  0  0  0  0  0  0  0  0  0  0
   36.8620   29.9940   41.8310 C   0  0  0  0  0  0  0  0  0  0  0  0
   35.9790   29.8790   42.4880 H   0  0  0  0  0  0  0  0  0  0  0  0
   37.1750   31.0650   41.9220 H   0  0  0  0  0  0  0  0  0  0  0  0
   36.9010   30.5660   39.3870 C   0  0  0  0  0  0  0  0  0  0  0  0
   36.4060   29.7690   40.4270 C   0  0  0  0  0  0  0  0  0  0  0  0
   35.4960   28.7810   40.1160 C   0  0  0  0  0  0  0  0  0  0  0  0
   35.0900   28.5890   38.8280 C   0  0  0  0  0  0  0  0  0  0  0  0
   35.5630   29.3620   37.7890 C   0  0  0  0  0  0  0  0  0  0  0  0
   36.4780   30.3470   38.1330 C   0  0  0  0  0  0  0  0  0  0  0  0
   35.1460   28.1950   40.9570 H   0  0  0  0  0  0  0  0  0  0  0  0
   34.3730   27.7950   38.6670 H   0  0  0  0  0  0  0  0  0  0  0  0
   35.2190   29.1790   36.7840 H   0  0  0  0  0  0  0  0  0  0  0  0
   36.8740   30.9760   37.3450 H   0  0  0  0  0  0  0  0  0  0  0  0
   38.5520   33.8400   40.2830 C   0  0  0  0  0  0  0  0  0  0  0  0
   37.5340   32.9380   39.9110 C   0  0  0  0  0  0  0  0  0  0  0  0
   37.8550   31.5920   39.7660 C   0  0  0  0  0  0  0  0  0  0  0  0
   39.1530   31.2340   39.9970 N   0  0  0  0  0  0  0  0  0  0  0  0
   40.1150   32.1200   40.3560 C   0  0  0  0  0  0  0  0  0  0  0  0
   39.7990   33.4130   40.4930 N   0  0  0  0  0  0  0  0  0  0  0  0
   38.1690   34.8360   40.3550 H   0  0  0  0  0  0  0  0  0  0  0  0
   36.5180   33.1820   39.7210 H   0  0  0  0  0  0  0  0  0  0  0  0
   41.1330   31.8510   40.5370 H   0  0  0  0  0  0  0  0  0  0  0  0
   37.3780   28.0740   43.5440 S   0  0  0  0  0  0  0  0  0  0  0  0
   36.4470   26.9990   43.0330 O   0  0  0  0  0  0  0  0  0  0  0  0
   36.7620   26.2030   42.5150 H   0  0  0  0  0  0  0  0  0  0  0  0
   36.7480   28.8450   44.6410 O   0  0  0  0  0  0  0  0  0  0  0  0
   36.4470   29.7840   44.6650 H   0  0  0  0  0  0  0  0  0  0  0  0
   38.7670   27.3400   44.1470 O   0  0  0  0  0  0  0  0  0  0  0  0
   39.5830   26.9880   43.1030 C   0  0  0  0  0  0  0  0  0  0  0  0
   40.5920   27.3950   43.3230 H   0  0  0  0  0  0  0  0  0  0  0  0
   39.2960   27.3670   42.1130 H   0  0  0  0  0  0  0  0  0  0  0  0
   39.6930   25.4530   43.0450 C   0  0  0  0  0  0  0  0  0  0  0  0
   38.7760   25.0760   43.5000 H   0  0  0  0  0  0  0  0  0  0  0  0
   40.5320   25.1770   43.6780 H   0  0  0  0  0  0  0  0  0  0  0  0
   37.3980   23.9360   41.6860 Cl  0  0  0  0  0  0  0  0  0  0  0  0
   38.9240   24.3190   40.9160 C   0  0  0  0  0  0  0  0  0  0  0  0
   39.8670   25.0140   41.6390 C   0  0  0  0  0  0  0  0  0  0  0  0
   41.0900   25.3300   41.0350 C   0  0  0  0  0  0  0  0  0  0  0  0
   41.8440   25.8780   41.5850 H   0  0  0  0  0  0  0  0  0  0  0  0
   41.3710   24.9620   39.7360 C   0  0  0  0  0  3  0  0  0  0  0  0
   40.4050   24.2710   39.0510 C   0  0  0  0  0  0  0  0  0  0  0  0
   40.7890   23.8090   37.3900 Cl  0  0  0  0  0  0  0  0  0  0  0  0
   39.1750   23.9320   39.6020 C   0  0  0  0  0  0  0  0  0  0  0  0
   38.4270   23.3780   39.0160 H   0  0  0  0  0  0  0  0  0  0  0  0
  1  2  1  0  0  0  0
  1 25  1  0  0  0  0
  3  5  1  0  0  0  0
  3  1  1  0  0  0  0
  3  4  1  0  0  0  0
  6 18  1  0  0  0  0
  6  7  1  0  0  0  0
  7  3  1  0  0  0  0
  8  7  2  0  0  0  0
  8 12  1  0  0  0  0
  9  8  1  0  0  0  0
 10 11  1  0  0  0  0
 10  9  2  0  0  0  0
 11  6  2  0  0  0  0
 13  9  1  0  0  0  0
 14 10  1  0  0  0  0
 15 11  1  0  0  0  0
 16 22  1  0  0  0  0
 16 21  1  0  0  0  0
 17 16  2  0  0  0  0
 18 17  1  0  0  0  0
 18 19  2  0  0  0  0
 19 20  1  0  0  0  0
 20 21  2  0  0  0  0
 20 24  1  0  0  0  0
 23 17  1  0  0  0  0
 25 30  1  0  0  0  0
 25 28  1  0  0  0  0
 26 25  1  0  0  0  0
 27 26  1  0  0  0  0
 28 29  1  0  0  0  0
 31 32  1  0  0  0  0
 31 30  1  0  0  0  0
 33 31  1  0  0  0  0
 34 31  1  0  0  0  0
 34 35  1  0  0  0  0
 34 36  1  0  0  0  0
 38 39  1  0  0  0  0
 38 37  1  0  0  0  0
 39 34  1  0  0  0  0
 40 41  1  0  0  0  0
 40 39  2  0  0  0  0
 42 40  1  0  0  0  0
 43 45  1  0  0  0  0
 43 42  2  0  0  0  0
 44 43  1  0  0  0  0
 45 38  2  0  0  0  0
 46 45  1  0  0  0  0
M  END
>  <minimizedAffinity>
-5.94066

$$$$

 OpenBabel03252508483D

 46 48  0  0  0  0  0  0  0  0999 V2000
   35.8010   30.8710   41.0860 N   0  0  0  0  0  0  0  0  0  0  0  0
   36.2420   30.6690   42.0230 H   0  0  0  0  0  0  0  0  0  0  0  0
   35.3540   29.6640   40.4640 C   0  0  0  0  0  0  0  0  0  0  0  0
   34.2810   29.5130   40.6920 H   0  0  0  0  0  0  0  0  0  0  0  0
   35.4260   29.7180   39.3490 H   0  0  0  0  0  0  0  0  0  0  0  0
   36.5430   27.5090   39.9720 C   0  0  0  0  0  0  0  0  0  0  0  0
   36.0820   28.4400   40.9120 C   0  0  0  0  0  0  0  0  0  0  0  0
   36.3200   28.1910   42.2470 C   0  0  0  0  0  0  0  0  0  0  0  0
   36.9870   27.0680   42.6380 C   0  0  0  0  0  0  0  0  0  0  0  0
   37.4490   26.1390   41.7310 C   0  0  0  0  0  0  0  0  0  0  0  0
   37.1960   26.4160   40.3940 C   0  0  0  0  0  0  0  0  0  0  0  0
   35.9420   28.9420   42.9300 H   0  0  0  0  0  0  0  0  0  0  0  0
   37.1320   26.9450   43.7030 H   0  0  0  0  0  0  0  0  0  0  0  0
   37.9730   25.2640   42.0790 H   0  0  0  0  0  0  0  0  0  0  0  0
   37.5440   25.7100   39.6500 H   0  0  0  0  0  0  0  0  0  0  0  0
   34.9390   27.8260   36.5700 C   0  0  0  0  0  0  0  0  0  0  0  0
   35.0880   27.4730   37.9270 C   0  0  0  0  0  0  0  0  0  0  0  0
   36.2680   27.8150   38.5800 C   0  0  0  0  0  0  0  0  0  0  0  0
   37.2120   28.4800   37.8500 N   0  0  0  0  0  0  0  0  0  0  0  0
   37.0450   28.8090   36.5450 C   0  0  0  0  0  0  0  0  0  0  0  0
   35.9080   28.4760   35.9230 N   0  0  0  0  0  0  0  0  0  0  0  0
   33.9910   27.5010   36.1950 H   0  0  0  0  0  0  0  0  0  0  0  0
   34.3770   26.9560   38.5230 H   0  0  0  0  0  0  0  0  0  0  0  0
   37.7780   29.3270   35.9650 H   0  0  0  0  0  0  0  0  0  0  0  0
   36.9970   31.6880   40.1590 S   0  0  0  0  0  0  0  0  0  0  0  0
   36.9800   33.1710   40.4470 O   0  0  0  0  0  0  0  0  0  0  0  0
   37.3500   33.5710   41.2870 H   0  0  0  0  0  0  0  0  0  0  0  0
   36.8360   31.4250   38.7110 O   0  0  0  0  0  0  0  0  0  0  0  0
   36.0880   31.0120   38.2200 H   0  0  0  0  0  0  0  0  0  0  0  0
   38.4820   31.0630   40.6460 O   0  0  0  0  0  0  0  0  0  0  0  0
   39.4640   31.5230   39.8060 C   0  0  0  0  0  0  0  0  0  0  0  0
   38.9870   32.2380   39.1040 H   0  0  0  0  0  0  0  0  0  0  0  0
   39.9710   30.7670   39.1930 H   0  0  0  0  0  0  0  0  0  0  0  0
   40.5110   32.2940   40.6300 C   0  0  0  0  0  0  0  0  0  0  0  0
   40.7760   31.6360   41.4580 H   0  0  0  0  0  0  0  0  0  0  0  0
   40.0090   33.1700   41.0310 H   0  0  0  0  0  0  0  0  0  0  0  0
   40.7260   35.1550   39.5410 Cl  0  0  0  0  0  0  0  0  0  0  0  0
   41.8830   33.8810   39.2120 C   0  0  0  0  0  0  0  0  0  0  0  0
   41.6700   32.6420   39.7720 C   0  0  0  0  0  0  0  0  0  0  0  0
   42.5880   31.6150   39.5200 C   0  0  0  0  0  0  0  0  0  0  0  0
   42.4410   30.6340   39.9530 H   0  0  0  0  0  0  0  0  0  0  0  0
   43.6980   31.8160   38.7250 C   0  0  0  0  0  3  0  0  0  0  0  0
   43.8720   33.0650   38.1860 C   0  0  0  0  0  0  0  0  0  0  0  0
   45.2980   33.2970   37.1710 Cl  0  0  0  0  0  0  0  0  0  0  0  0
   42.9920   34.1190   38.4040 C   0  0  0  0  0  0  0  0  0  0  0  0
   43.1710   35.1060   37.9540 H   0  0  0  0  0  0  0  0  0  0  0  0
  1  2  1  0  0  0  0
  3  4  1  0  0  0  0
  3  7  1  0  0  0  0
  3  1  1  0  0  0  0
  5  3  1  0  0  0  0
  6 11  2  0  0  0  0
  6  7  1  0  0  0  0
  7  8  2  0  0  0  0
  8  9  1  0  0  0  0
  8 12  1  0  0  0  0
  9 13  1  0  0  0  0
 10 14  1  0  0  0  0
 10  9  2  0  0  0  0
 11 10  1  0  0  0  0
 15 11  1  0  0  0  0
 16 17  1  0  0  0  0
 17 23  1  0  0  0  0
 17 18  2  0  0  0  0
 18  6  1  0  0  0  0
 19 18  1  0  0  0  0
 20 19  2  0  0  0  0
 21 20  1  0  0  0  0
 21 16  2  0  0  0  0
 22 16  1  0  0  0  0
 24 20  1  0  0  0  0
 25 26  1  0  0  0  0
 25 30  1  0  0  0  0
 25  1  1  0  0  0  0
 26 27  1  0  0  0  0
 28 25  1  0  0  0  0
 29 28  1  0  0  0  0
 31 34  1  0  0  0  0
 31 30  1  0  0  0  0
 32 31  1  0  0  0  0
 33 31  1  0  0  0  0
 34 36  1  0  0  0  0
 34 35  1  0  0  0  0
 38 37  1  0  0  0  0
 38 39  1  0  0  0  0
 39 34  1  0  0  0  0
 40 39  2  0  0  0  0
 40 41  1  0  0  0  0
 42 40  1  0  0  0  0
 43 45  1  0  0  0  0
 43 42  2  0  0  0  0
 44 43  1  0  0  0  0
 45 38  2  0  0  0  0
 46 45  1  0  0  0  0
M  END
>  <minimizedAffinity>
-5.86490154

$$$$

 OpenBabel03252508483D

 46 48  0  0  0  0  0  0  0  0999 V2000
   39.7490   30.2270   41.0230 N   0  0  0  0  0  0  0  0  0  0  0  0
   39.7210   29.1920   40.8210 H   0  0  0  0  0  0  0  0  0  0  0  0
   39.9360   30.9750   39.8190 C   0  0  0  0  0  0  0  0  0  0  0  0
   41.0140   30.9980   39.5690 H   0  0  0  0  0  0  0  0  0  0  0  0
   39.4280   30.4940   38.9460 H   0  0  0  0  0  0  0  0  0  0  0  0
   38.1040   32.6900   39.7860 C   0  0  0  0  0  0  0  0  0  0  0  0
   39.4670   32.3910   39.9000 C   0  0  0  0  0  0  0  0  0  0  0  0
   40.3510   33.4320   40.0870 C   0  0  0  0  0  0  0  0  0  0  0  0
   39.9050   34.7190   40.1580 C   0  0  0  0  0  0  0  0  0  0  0  0
   38.5690   35.0370   40.0480 C   0  0  0  0  0  0  0  0  0  0  0  0
   37.7030   33.9680   39.8610 C   0  0  0  0  0  0  0  0  0  0  0  0
   41.3920   33.1440   40.1680 H   0  0  0  0  0  0  0  0  0  0  0  0
   40.6620   35.4790   40.3040 H   0  0  0  0  0  0  0  0  0  0  0  0
   38.2550   36.0670   40.1100 H   0  0  0  0  0  0  0  0  0  0  0  0
   36.6440   34.1770   39.7710 H   0  0  0  0  0  0  0  0  0  0  0  0
   36.0510   29.9000   38.2870 C   0  0  0  0  0  0  0  0  0  0  0  0
   36.9330   30.9980   38.3490 C   0  0  0  0  0  0  0  0  0  0  0  0
   37.2150   31.5600   39.5890 C   0  0  0  0  0  0  0  0  0  0  0  0
   36.6060   31.0010   40.6770 N   0  0  0  0  0  0  0  0  0  0  0  0
   35.7610   29.9440   40.5940 C   0  0  0  0  0  0  0  0  0  0  0  0
   35.4950   29.4080   39.3970 N   0  0  0  0  0  0  0  0  0  0  0  0
   35.9230   29.5710   37.2770 H   0  0  0  0  0  0  0  0  0  0  0  0
   37.4200   31.4580   37.5240 H   0  0  0  0  0  0  0  0  0  0  0  0
   35.2790   29.5000   41.4370 H   0  0  0  0  0  0  0  0  0  0  0  0
   41.0260   30.4610   42.1510 S   0  0  0  0  0  0  0  0  0  0  0  0
   40.6760   31.5460   43.1430 O   0  0  0  0  0  0  0  0  0  0  0  0
   40.0290   31.4140   43.8950 H   0  0  0  0  0  0  0  0  0  0  0  0
   42.3080   30.7550   41.4700 O   0  0  0  0  0  0  0  0  0  0  0  0
   42.4870   30.9890   40.5290 H   0  0  0  0  0  0  0  0  0  0  0  0
   41.1940   29.0070   42.9830 O   0  0  0  0  0  0  0  0  0  0  0  0
   40.5320   28.0170   42.3030 C   0  0  0  0  0  0  0  0  0  0  0  0
   41.2950   27.2870   41.9600 H   0  0  0  0  0  0  0  0  0  0  0  0
   39.9700   28.3310   41.4140 H   0  0  0  0  0  0  0  0  0  0  0  0
   39.5820   27.2890   43.2730 C   0  0  0  0  0  0  0  0  0  0  0  0
   38.9020   28.0540   43.6470 H   0  0  0  0  0  0  0  0  0  0  0  0
   40.1930   26.9340   44.0990 H   0  0  0  0  0  0  0  0  0  0  0  0
   36.5140   27.2730   43.2440 Cl  0  0  0  0  0  0  0  0  0  0  0  0
   37.5170   26.0570   42.4800 C   0  0  0  0  0  0  0  0  0  0  0  0
   38.8850   26.1890   42.5630 C   0  0  0  0  0  0  0  0  0  0  0  0
   39.6990   25.2260   41.9540 C   0  0  0  0  0  0  0  0  0  0  0  0
   40.7760   25.3130   42.0040 H   0  0  0  0  0  0  0  0  0  0  0  0
   39.1630   24.1510   41.2760 C   0  0  0  0  0  3  0  0  0  0  0  0
   37.7960   24.0560   41.2180 C   0  0  0  0  0  0  0  0  0  0  0  0
   37.1350   22.6700   40.3470 Cl  0  0  0  0  0  0  0  0  0  0  0  0
   36.9420   24.9830   41.8040 C   0  0  0  0  0  0  0  0  0  0  0  0
   35.8510   24.8710   41.7320 H   0  0  0  0  0  0  0  0  0  0  0  0
  1 25  1  0  0  0  0
  2  1  1  0  0  0  0
  3  7  1  0  0  0  0
  3  1  1  0  0  0  0
  4  3  1  0  0  0  0
  5  3  1  0  0  0  0
  6 11  2  0  0  0  0
  6  7  1  0  0  0  0
  7  8  2  0  0  0  0
  8  9  1  0  0  0  0
  8 12  1  0  0  0  0
  9 13  1  0  0  0  0
 10 14  1  0  0  0  0
 10  9  2  0  0  0  0
 11 10  1  0  0  0  0
 15 11  1  0  0  0  0
 16 17  2  0  0  0  0
 16 21  1  0  0  0  0
 17 18  1  0  0  0  0
 18  6  1  0  0  0  0
 18 19  2  0  0  0  0
 20 19  1  0  0  0  0
 20 24  1  0  0  0  0
 21 20  2  0  0  0  0
 22 16  1  0  0  0  0
 23 17  1  0  0  0  0
 25 30  1  0  0  0  0
 25 26  1  0  0  0  0
 26 27  1  0  0  0  0
 28 25  1  0  0  0  0
 29 28  1  0  0  0  0
 31 30  1  0  0  0  0
 31 34  1  0  0  0  0
 32 31  1  0  0  0  0
 33 31  1  0  0  0  0
 34 35  1  0  0  0  0
 34 36  1  0  0  0  0
 38 39  1  0  0  0  0
 38 37  1  0  0  0  0
 39 34  1  0  0  0  0
 40 41  1  0  0  0  0
 40 39  2  0  0  0  0
 42 40  1  0  0  0  0
 43 42  2  0  0  0  0
 43 45  1  0  0  0  0
 44 43  1  0  0  0  0
 45 38  2  0  0  0  0
 46 45  1  0  0  0  0
M  END
>  <minimizedAffinity>
-5.82849979

$$$$
