
 OpenBabel03252506373D

 45 48  0  0  1  0  0  0  0  0999 V2000
   44.5020   35.5830   45.1080 C   0  0  0  0  0  0  0  0  0  0  0  0
   45.1370   35.5500   43.8600 C   0  0  0  0  0  0  0  0  0  0  0  0
   46.0350   34.5730   43.6010 C   0  0  0  0  0  0  0  0  0  0  0  0
   46.2680   33.6690   44.5850 N   0  0  0  0  0  0  0  0  0  0  0  0
   45.6650   33.7050   45.7630 C   0  0  0  0  0  0  0  0  0  0  0  0
   44.7770   34.6550   46.0440 N   0  0  0  0  0  0  0  0  0  0  0  0
   45.9920   32.6980   46.7360 N   0  0  0  0  0  0  0  0  0  0  0  0
   45.2630   32.4750   47.9350 C   0  0  0  0  0  0  0  0  0  0  0  0
   46.3460   32.1160   48.9360 C   0  0  0  0  0  0  0  0  0  0  0  0
   47.6150   31.9910   48.1530 C   0  0  0  0  0  0  0  0  0  0  0  0
   47.0980   31.7690   46.7310 C   0  0  1  0  0  0  0  0  0  0  0  0
   43.7940   36.3630   45.2940 H   0  0  0  0  0  0  0  0  0  0  0  0
   46.5390   34.5240   42.6500 H   0  0  0  0  0  0  0  0  0  0  0  0
   44.4190   31.8700   48.0320 H   0  0  0  0  0  0  0  0  0  0  0  0
   44.9350   33.5060   48.2900 H   0  0  0  0  0  0  0  0  0  0  0  0
   46.3810   32.7410   49.8230 H   0  0  0  0  0  0  0  0  0  0  0  0
   46.1090   31.0690   49.2910 H   0  0  0  0  0  0  0  0  0  0  0  0
   48.2250   31.1490   48.5140 H   0  0  0  0  0  0  0  0  0  0  0  0
   48.1340   32.9700   48.2300 H   0  0  0  0  0  0  0  0  0  0  0  0
   47.9030   32.0500   46.0140 H   0  0  0  0  0  0  0  0  0  0  0  0
   44.7900   36.5760   42.9130 N   0  0  0  0  0  0  0  0  0  0  0  0
   44.8370   37.5750   43.1820 H   0  0  0  0  0  0  0  0  0  0  0  0
   44.5150   36.1310   42.0150 H   0  0  0  0  0  0  0  0  0  0  0  0
   46.5550   30.0830   46.5720 S   0  0  0  0  0  0  0  0  0  0  0  0
   46.1770   30.1740   43.2580 O   0  0  0  0  0  0  0  0  0  0  0  0
   45.3440   29.8130   44.1050 C   0  0  0  0  0  0  0  0  0  0  0  0
   45.1500   29.7930   45.5760 C   0  0  1  0  0  0  0  0  0  0  0  0
   44.4730   28.4600   45.7810 C   0  0  0  0  0  0  0  0  0  0  0  0
   43.3450   28.6450   44.7620 C   0  0  0  0  0  0  0  0  0  0  0  0
   44.1200   29.1990   43.6580 N   0  0  0  0  0  0  0  0  0  0  0  0
   44.2770   30.4930   45.6690 H   0  0  0  0  0  0  0  0  0  0  0  0
   45.1140   27.6100   45.4660 H   0  0  0  0  0  0  0  0  0  0  0  0
   44.0820   28.3890   46.7970 H   0  0  0  0  0  0  0  0  0  0  0  0
   42.8530   27.6990   44.5280 H   0  0  0  0  0  0  0  0  0  0  0  0
   42.6320   29.3930   45.1640 H   0  0  0  0  0  0  0  0  0  0  0  0
   42.9170   31.6360   42.2960 Cl  0  0  0  0  0  0  0  0  0  0  0  0
   42.9760   30.0300   41.6020 C   0  0  0  0  0  0  0  0  0  0  0  0
   43.5500   29.0450   42.3410 C   0  0  0  0  0  0  0  0  0  0  0  0
   43.5990   27.7780   41.7960 C   0  0  0  0  0  0  0  0  0  0  0  0
   44.0500   26.9350   42.3430 H   0  0  0  0  0  0  0  0  0  0  0  0
   43.1020   27.4350   40.5430 C   0  0  0  0  0  3  0  0  0  0  0  0
   42.5150   28.4610   39.7950 C   0  0  0  0  0  0  0  0  0  0  0  0
   41.8660   28.1100   38.2070 Cl  0  0  0  0  0  0  0  0  0  0  0  0
   42.4750   29.7170   40.3560 C   0  0  0  0  0  0  0  0  0  0  0  0
   42.0140   30.5170   39.7640 H   0  0  0  0  0  0  0  0  0  0  0  0
  1 12  1  0  0  0  0
  1  6  1  0  0  0  0
  2  1  2  0  0  0  0
  3  2  1  0  0  0  0
  3  4  2  0  0  0  0
  4  5  1  0  0  0  0
  5  6  2  0  0  0  0
  5  7  1  0  0  0  0
  7  8  1  0  0  0  0
  8 14  1  0  0  0  0
  8 15  1  0  0  0  0
  8  9  1  0  0  0  0
  9 17  1  0  0  0  0
  9 16  1  0  0  0  0
 10 19  1  0  0  0  0
 10 18  1  0  0  0  0
 10  9  1  0  0  0  0
 11 20  1  6  0  0  0
 11  7  1  0  0  0  0
 11 10  1  0  0  0  0
 13  3  1  0  0  0  0
 21 22  1  0  0  0  0
 21  2  1  0  0  0  0
 23 21  1  0  0  0  0
 24 11  1  0  0  0  0
 25 26  2  0  0  0  0
 26 27  1  0  0  0  0
 27 31  1  1  0  0  0
 27 28  1  0  0  0  0
 27 24  1  0  0  0  0
 28 33  1  0  0  0  0
 29 35  1  0  0  0  0
 29 28  1  0  0  0  0
 30 26  1  0  0  0  0
 30 29  1  0  0  0  0
 32 28  1  0  0  0  0
 34 29  1  0  0  0  0
 37 36  1  0  0  0  0
 37 38  1  0  0  0  0
 38 30  1  0  0  0  0
 39 38  2  0  0  0  0
 39 40  1  0  0  0  0
 41 39  1  0  0  0  0
 42 44  1  0  0  0  0
 42 41  2  0  0  0  0
 43 42  1  0  0  0  0
 44 37  2  0  0  0  0
 45 44  1  0  0  0  0
M  END
>  <minimizedAffinity>
-5.22001505

>  <minimizedRMSD>
0.721371293

$$$$
