
 OpenBabel03252505403D

 29 31  0  0  1  0  0  0  0  0999 V2000
   44.6370   34.6070   43.9220 C   0  0  1  0  0  0  0  0  0  0  0  0
   45.3620   35.9700   43.7670 C   0  0  0  0  0  0  0  0  0  0  0  0
   44.9000   35.1930   42.6130 C   0  0  1  0  0  0  0  0  0  0  0  0
   43.6510   34.6590   44.4150 H   0  0  0  0  0  0  0  0  0  0  0  0
   44.7300   36.8210   44.1630 H   0  0  0  0  0  0  0  0  0  0  0  0
   46.3470   35.9890   44.2180 H   0  0  0  0  0  0  0  0  0  0  0  0
   43.9400   35.6800   42.1660 H   0  0  0  0  0  0  0  0  0  0  0  0
   43.7440   33.2470   40.4060 Cl  0  0  0  0  0  0  0  0  0  0  0  0
   45.3960   33.8010   40.5070 C   0  0  0  0  0  0  0  0  0  0  0  0
   45.7030   34.6530   41.5380 C   0  0  0  0  0  0  0  0  0  0  0  0
   47.0610   35.0170   41.5050 C   0  0  0  0  0  0  0  0  0  0  0  0
   47.4600   35.6950   42.2640 H   0  0  0  0  0  0  0  0  0  0  0  0
   47.9650   34.5780   40.5620 C   0  0  0  0  0  3  0  0  0  0  0  0
   47.5660   33.7210   39.5600 C   0  0  0  0  0  0  0  0  0  0  0  0
   48.7350   33.1960   38.3990 Cl  0  0  0  0  0  0  0  0  0  0  0  0
   46.2450   33.3280   39.5420 C   0  0  0  0  0  0  0  0  0  0  0  0
   45.9190   32.6630   38.7680 H   0  0  0  0  0  0  0  0  0  0  0  0
   45.4880   33.5340   44.5170 C   0  0  0  0  0  0  0  0  0  0  0  0
   46.1320   32.6370   43.6650 C   0  0  0  0  0  0  0  0  0  0  0  0
   46.9370   31.6810   44.2380 C   0  0  0  0  0  0  0  0  0  0  0  0
   47.0660   31.6550   45.5880 N   0  0  0  0  0  0  0  0  0  0  0  0
   46.4300   32.5340   46.3780 C   0  0  0  0  0  0  0  0  0  0  0  0
   45.6290   33.4880   45.8410 N   0  0  0  0  0  0  0  0  0  0  0  0
   46.0880   32.5800   42.6110 H   0  0  0  0  0  0  0  0  0  0  0  0
   47.4840   30.9350   43.6630 H   0  0  0  0  0  0  0  0  0  0  0  0
   46.7050   32.3430   47.8400 C   0  0  0  0  0  0  0  0  0  0  0  0
   45.7130   32.9000   48.6250 F   0  0  0  0  0  0  0  0  0  0  0  0
   47.9150   32.9500   48.1820 F   0  0  0  0  0  0  0  0  0  0  0  0
   46.8590   30.9860   48.0980 F   0  0  0  0  0  0  0  0  0  0  0  0
  1  4  1  1  0  0  0
  1 18  1  0  0  0  0
  2  1  1  0  0  0  0
  2  5  1  0  0  0  0
  2  6  1  0  0  0  0
  3  7  1  6  0  0  0
  3  2  1  0  0  0  0
  3  1  1  0  0  0  0
  8  9  1  0  0  0  0
  9 10  1  0  0  0  0
 10  3  1  0  0  0  0
 11 10  2  0  0  0  0
 11 12  1  0  0  0  0
 13 11  1  0  0  0  0
 14 13  2  0  0  0  0
 15 14  1  0  0  0  0
 16 14  1  0  0  0  0
 16  9  2  0  0  0  0
 17 16  1  0  0  0  0
 18 23  1  0  0  0  0
 19 20  1  0  0  0  0
 19 18  2  0  0  0  0
 20 21  2  0  0  0  0
 21 22  1  0  0  0  0
 22 26  1  0  0  0  0
 23 22  2  0  0  0  0
 24 19  1  0  0  0  0
 25 20  1  0  0  0  0
 26 29  1  0  0  0  0
 26 28  1  0  0  0  0
 26 27  1  0  0  0  0
M  END
>  <minimizedAffinity>
-5.26844835

>  <minimizedRMSD>
1.73239315

$$$$
