
 OpenBabel03252506053D

 44 48  0  0  0  0  0  0  0  0999 V2000
   44.7910   35.9920   43.2610 Cl  0  0  0  0  0  0  0  0  0  0  0  0
   45.5370   34.7510   44.2160 C   0  0  0  0  0  0  0  0  0  0  0  0
   46.6300   34.0590   43.7240 C   0  0  0  0  0  0  0  0  0  0  0  0
   47.1450   33.0910   44.5700 C   0  0  0  0  0  0  0  0  0  0  0  0
   46.6640   32.7850   45.8190 C   0  0  0  0  0  0  0  0  0  0  0  0
   45.5800   33.4940   46.2710 C   0  0  0  0  0  0  0  0  0  0  0  0
   44.9870   33.0840   47.8670 Cl  0  0  0  0  0  0  0  0  0  0  0  0
   45.0230   34.4650   45.4840 C   0  0  0  0  0  0  0  0  0  0  0  0
   48.0100   32.5510   44.1650 H   0  0  0  0  0  0  0  0  0  0  0  0
   44.1690   35.0180   45.8510 H   0  0  0  0  0  0  0  0  0  0  0  0
   47.3500   31.7310   46.5520 C   0  0  0  0  0  0  0  0  0  0  0  0
   47.4590   30.4340   46.0750 C   0  0  0  0  0  0  0  0  0  0  0  0
   48.1020   29.4140   46.7450 C   0  0  0  0  0  0  0  0  0  0  0  0
   48.6800   29.6790   47.9660 C   0  0  0  0  0  0  0  0  0  0  0  0
   49.3020   28.6770   48.6060 N   0  0  0  0  0  0  0  0  0  0  0  0
   49.8980   28.8540   49.8160 C   0  0  0  0  0  0  0  0  0  0  0  0
   49.8300   30.1230   50.3550 C   0  0  0  0  0  0  0  0  0  0  0  0
   49.1940   31.1480   49.7020 C   0  0  0  0  0  0  0  0  0  0  0  0
   48.5950   30.9470   48.4720 C   0  0  0  0  0  0  0  0  0  0  0  0
   47.9450   31.9570   47.7870 C   0  0  0  0  0  0  0  0  0  0  0  0
   47.0050   30.2050   45.1040 H   0  0  0  0  0  0  0  0  0  0  0  0
   48.1560   28.4140   46.3200 H   0  0  0  0  0  0  0  0  0  0  0  0
   50.3800   28.0010   50.2720 H   0  0  0  0  0  0  0  0  0  0  0  0
   50.3070   30.2720   51.3270 H   0  0  0  0  0  0  0  0  0  0  0  0
   49.1620   32.1220   50.1510 H   0  0  0  0  0  0  0  0  0  0  0  0
   47.9010   32.9390   48.2190 H   0  0  0  0  0  0  0  0  0  0  0  0
   48.7650   35.4300   41.1180 C   0  0  0  0  0  0  0  0  0  0  0  0
   48.2640   34.8420   39.9470 C   0  0  0  0  0  0  0  0  0  0  0  0
   47.1720   33.9580   40.0600 C   0  0  0  0  0  0  0  0  0  0  0  0
   46.7050   33.7580   41.3070 N   0  0  0  0  0  0  0  0  0  0  0  0
   47.1940   34.3280   42.4120 C   0  0  0  0  0  0  0  0  0  0  0  0
   48.2280   35.1680   42.3280 N   0  0  0  0  0  0  0  0  0  0  0  0
   49.5960   36.0980   40.9980 H   0  0  0  0  0  0  0  0  0  0  0  0
   48.6920   35.0540   39.0000 H   0  0  0  0  0  0  0  0  0  0  0  0
   48.5500   34.6170   37.5450 Cl  0  0  0  0  0  0  0  0  0  0  0  0
   47.1550   33.5410   37.6710 C   0  0  0  0  0  0  0  0  0  0  0  0
   46.5850   33.3010   38.9020 C   0  0  0  0  0  0  0  0  0  0  0  0
   45.5110   32.4630   38.9490 C   0  0  0  0  0  0  0  0  0  0  0  0
   45.0360   32.2500   39.8950 H   0  0  0  0  0  0  0  0  0  0  0  0
   45.0240   31.8820   37.7720 C   0  0  0  0  0  3  0  0  0  0  0  0
   45.6170   32.1440   36.5640 C   0  0  0  0  0  0  0  0  0  0  0  0
   44.9970   31.4080   35.0910 Cl  0  0  0  0  0  0  0  0  0  0  0  0
   46.7050   32.9890   36.5000 C   0  0  0  0  0  0  0  0  0  0  0  0
   47.1680   33.1930   35.5500 H   0  0  0  0  0  0  0  0  0  0  0  0
  1  2  1  0  0  0  0
  2  8  1  0  0  0  0
  3  2  2  0  0  0  0
  3  4  1  0  0  0  0
  4  5  2  0  0  0  0
  5  6  1  0  0  0  0
  5 11  1  0  0  0  0
  6  7  1  0  0  0  0
  8 10  1  0  0  0  0
  8  6  2  0  0  0  0
  9  4  1  0  0  0  0
 11 20  1  0  0  0  0
 12 11  2  0  0  0  0
 12 13  1  0  0  0  0
 13 14  2  0  0  0  0
 14 19  1  0  0  0  0
 14 15  1  0  0  0  0
 15 16  2  0  0  0  0
 16 23  1  0  0  0  0
 16 17  1  0  0  0  0
 17 24  1  0  0  0  0
 18 25  1  0  0  0  0
 18 17  2  0  0  0  0
 19 18  1  0  0  0  0
 20 26  1  0  0  0  0
 20 19  2  0  0  0  0
 21 12  1  0  0  0  0
 22 13  1  0  0  0  0
 27 32  1  0  0  0  0
 28 29  1  0  0  0  0
 28 27  2  0  0  0  0
 29 30  2  0  0  0  0
 30 31  1  0  0  0  0
 31  3  1  0  0  0  0
 32 31  2  0  0  0  0
 33 27  1  0  0  0  0
 34 28  1  0  0  0  0
 35 36  1  0  0  0  0
 36 37  1  0  0  0  0
 37 38  2  0  0  0  0
 37 29  1  0  0  0  0
 38 39  1  0  0  0  0
 40 38  1  0  0  0  0
 41 40  2  0  0  0  0
 42 41  1  0  0  0  0
 43 41  1  0  0  0  0
 43 36  2  0  0  0  0
 44 43  1  0  0  0  0
M  END
>  <minimizedAffinity>
-7.79274797

>  <minimizedRMSD>
0.191330537

$$$$
