
 OpenBabel03242515393D

 37 40  0  0  0  0  0  0  0  0999 V2000
   44.0240   34.6820   40.8660 C   0  0  0  0  0  0  0  0  0  0  0  0
   43.9910   33.6780   39.9140 C   0  0  0  0  0  0  0  0  0  0  0  0
   45.1840   33.0090   39.6430 C   0  0  0  0  0  0  0  0  0  0  0  0
   46.2990   33.3860   40.3290 N   0  0  0  0  0  0  0  0  0  0  0  0
   46.2970   34.3590   41.2380 C   0  0  0  0  0  0  0  0  0  0  0  0
   45.1610   34.9840   41.4860 N   0  0  0  0  0  0  0  0  0  0  0  0
   43.0760   33.4340   39.4130 H   0  0  0  0  0  0  0  0  0  0  0  0
   46.7420   33.6840   37.2200 Cl  0  0  0  0  0  0  0  0  0  0  0  0
   45.9500   32.1340   37.5030 C   0  0  0  0  0  0  0  0  0  0  0  0
   45.2550   31.9510   38.6730 C   0  0  0  0  0  0  0  0  0  0  0  0
   44.6720   30.7090   38.8030 C   0  0  0  0  0  0  0  0  0  0  0  0
   44.1100   30.4900   39.6970 H   0  0  0  0  0  0  0  0  0  0  0  0
   44.7770   29.7170   37.8220 C   0  0  0  0  0  3  0  0  0  0  0  0
   45.4980   29.9830   36.6650 C   0  0  0  0  0  0  0  0  0  0  0  0
   45.5950   28.7080   35.4770 Cl  0  0  0  0  0  0  0  0  0  0  0  0
   46.0990   31.2200   36.4990 C   0  0  0  0  0  0  0  0  0  0  0  0
   46.6590   31.4160   35.5900 H   0  0  0  0  0  0  0  0  0  0  0  0
   42.4590   35.5290   41.1910 S   0  0  0  0  0  0  0  0  0  0  0  0
   40.0230   34.9190   40.2030 C   0  0  0  0  0  0  0  0  0  0  0  0
   41.0880   34.4070   40.9490 C   0  0  0  0  0  0  0  0  0  0  0  0
   41.0510   33.1170   41.4470 C   0  0  0  0  0  0  0  0  0  0  0  0
   39.9660   32.2860   41.2330 C   0  0  0  0  0  0  0  0  0  0  0  0
   38.8930   32.8080   40.4800 C   0  0  0  0  0  0  0  0  0  0  0  0
   38.9200   34.1020   39.9740 C   0  0  0  0  0  0  0  0  0  0  0  0
   37.9210   31.7790   40.4010 O   0  0  0  0  0  0  0  0  0  0  0  0
   38.2610   30.8520   41.4000 C   0  0  0  0  0  0  0  0  0  0  0  0
   39.6600   30.9860   41.6000 O   0  0  0  0  0  0  0  0  0  0  0  0
   40.0120   35.9150   39.7990 H   0  0  0  0  0  0  0  0  0  0  0  0
   41.9030   32.7780   42.0150 H   0  0  0  0  0  0  0  0  0  0  0  0
   38.1070   34.4990   39.4040 H   0  0  0  0  0  0  0  0  0  0  0  0
   37.9550   29.8220   41.1770 H   0  0  0  0  0  0  0  0  0  0  0  0
   37.7880   31.2160   42.3510 H   0  0  0  0  0  0  0  0  0  0  0  0
   47.4040   34.7560   41.9400 O   0  0  0  0  0  0  0  0  0  0  0  0
   48.5810   35.0870   41.2660 C   0  0  0  0  0  0  0  0  0  0  0  0
   49.5790   34.1720   41.4600 F   0  0  0  0  0  0  0  0  0  0  0  0
   48.2140   35.2120   39.9170 F   0  0  0  0  0  0  0  0  0  0  0  0
   49.0200   36.3020   41.7700 F   0  0  0  0  0  0  0  0  0  0  0  0
  1 18  1  0  0  0  0
  1  6  1  0  0  0  0
  2  1  2  0  0  0  0
  3  2  1  0  0  0  0
  3  4  2  0  0  0  0
  4  5  1  0  0  0  0
  5  6  2  0  0  0  0
  5 33  1  0  0  0  0
  7  2  1  0  0  0  0
  8  9  1  0  0  0  0
  9 10  1  0  0  0  0
 10 11  2  0  0  0  0
 10  3  1  0  0  0  0
 11 12  1  0  0  0  0
 13 11  1  0  0  0  0
 14 13  2  0  0  0  0
 15 14  1  0  0  0  0
 16 14  1  0  0  0  0
 16  9  2  0  0  0  0
 17 16  1  0  0  0  0
 19 20  1  0  0  0  0
 20 18  1  0  0  0  0
 20 21  2  0  0  0  0
 21 29  1  0  0  0  0
 22 21  1  0  0  0  0
 22 27  1  0  0  0  0
 23 22  2  0  0  0  0
 24 19  2  0  0  0  0
 24 23  1  0  0  0  0
 25 23  1  0  0  0  0
 25 26  1  0  0  0  0
 26 27  1  0  0  0  0
 26 32  1  0  0  0  0
 28 19  1  0  0  0  0
 30 24  1  0  0  0  0
 31 26  1  0  0  0  0
 34 35  1  0  0  0  0
 34 37  1  0  0  0  0
 34 33  1  0  0  0  0
 36 34  1  0  0  0  0
M  END
>  <minimizedAffinity>
-6.02559042

>  <minimizedRMSD>
0.236259401

$$$$
