
 OpenBabel03242514313D

 39 42  0  0  0  0  0  0  0  0999 V2000
   39.9450   29.1010   39.7830 Cl  0  0  0  0  0  0  0  0  0  0  0  0
   38.4340   29.9270   40.1130 C   0  0  0  0  0  0  0  0  0  0  0  0
   38.3890   31.2780   40.0480 C   0  0  0  0  0  0  0  0  0  0  0  0
   37.1850   31.8320   40.4510 C   0  0  0  0  0  0  0  0  0  0  0  0
   36.0860   31.1280   40.8860 C   0  0  0  0  0  0  0  0  0  0  0  0
   36.1760   29.7450   40.9300 C   0  0  0  0  0  0  0  0  0  0  0  0
   37.3680   29.1490   40.5360 C   0  0  0  0  0  0  0  0  0  0  0  0
   37.1840   32.9370   40.3890 H   0  0  0  0  0  0  0  0  0  0  0  0
   35.2690   31.7460   41.1450 H   0  0  0  0  0  0  0  0  0  0  0  0
   35.2910   29.2320   41.2740 H   0  0  0  0  0  0  0  0  0  0  0  0
   38.2630   28.1770   43.1560 Cl  0  0  0  0  0  0  0  0  0  0  0  0
   37.8480   27.1350   41.7840 C   0  0  0  0  0  0  0  0  0  0  0  0
   37.4370   27.6920   40.5910 C   0  0  0  0  0  0  0  0  0  0  0  0
   37.1280   26.8310   39.5570 C   0  0  0  0  0  0  0  0  0  0  0  0
   36.8070   27.2820   38.6290 H   0  0  0  0  0  0  0  0  0  0  0  0
   37.2310   25.4570   39.7260 C   0  0  0  0  0  3  0  0  0  0  0  0
   37.6540   24.9560   40.9610 C   0  0  0  0  0  0  0  0  0  0  0  0
   37.8010   23.2170   41.2250 Cl  0  0  0  0  0  0  0  0  0  0  0  0
   37.9750   25.7890   42.0280 C   0  0  0  0  0  0  0  0  0  0  0  0
   38.3000   25.3870   42.9780 H   0  0  0  0  0  0  0  0  0  0  0  0
   40.9730   32.7800   37.8150 C   0  0  0  0  0  0  0  0  0  0  0  0
   39.8510   32.0420   38.2260 C   0  0  0  0  0  0  0  0  0  0  0  0
   39.5010   32.0530   39.5710 C   0  0  0  0  0  0  0  0  0  0  0  0
   40.2650   32.7900   40.4070 N   0  0  0  0  0  0  0  0  0  0  0  0
   41.3340   33.5000   40.0080 C   0  0  0  0  0  0  0  0  0  0  0  0
   41.6930   33.4940   38.7110 N   0  0  0  0  0  0  0  0  0  0  0  0
   41.3700   32.8630   36.8110 H   0  0  0  0  0  0  0  0  0  0  0  0
   39.4460   31.6240   37.3620 H   0  0  0  0  0  0  0  0  0  0  0  0
   40.2900   36.3390   40.4400 Cl  0  0  0  0  0  0  0  0  0  0  0  0
   41.6950   35.6380   41.2090 C   0  0  0  0  0  0  0  0  0  0  0  0
   42.0760   34.3250   40.9350 C   0  0  0  0  0  0  0  0  0  0  0  0
   43.1770   33.8820   41.5920 C   0  0  0  0  0  0  0  0  0  0  0  0
   43.9080   34.6490   42.4890 C   0  0  0  0  0  0  0  0  0  0  0  0
   43.5100   35.9360   42.7390 C   0  0  0  0  0  0  0  0  0  0  0  0
   44.5060   36.7850   43.8980 Cl  0  0  0  0  0  0  0  0  0  0  0  0
   42.4120   36.4320   42.1070 C   0  0  0  0  0  0  0  0  0  0  0  0
   43.4800   32.8630   41.3840 H   0  0  0  0  0  0  0  0  0  0  0  0
   44.7810   34.1670   42.9540 H   0  0  0  0  0  0  0  0  0  0  0  0
   42.1360   37.4470   42.3330 H   0  0  0  0  0  0  0  0  0  0  0  0
  1  2  1  0  0  0  0
  2  7  1  0  0  0  0
  3  2  2  0  0  0  0
  3  4  1  0  0  0  0
  4  5  2  0  0  0  0
  5  6  1  0  0  0  0
  5  9  1  0  0  0  0
  6 10  1  0  0  0  0
  7 13  1  0  0  0  0
  7  6  2  0  0  0  0
  8  4  1  0  0  0  0
 12 19  1  0  0  0  0
 12 11  1  0  0  0  0
 13 12  2  0  0  0  0
 14 16  2  0  0  0  0
 14 13  1  0  0  0  0
 15 14  1  0  0  0  0
 16 17  1  0  0  0  0
 17 18  1  0  0  0  0
 17 19  2  0  0  0  0
 19 20  1  0  0  0  0
 21 22  2  0  0  0  0
 21 26  1  0  0  0  0
 22 23  1  0  0  0  0
 23  3  1  0  0  0  0
 23 24  2  0  0  0  0
 25 24  1  0  0  0  0
 25 31  1  0  0  0  0
 26 25  2  0  0  0  0
 27 21  1  0  0  0  0
 28 22  1  0  0  0  0
 29 30  1  0  0  0  0
 30 36  1  0  0  0  0
 31 30  2  0  0  0  0
 31 32  1  0  0  0  0
 32 33  2  0  0  0  0
 33 34  1  0  0  0  0
 33 38  1  0  0  0  0
 34 35  1  0  0  0  0
 36 39  1  0  0  0  0
 36 34  2  0  0  0  0
 37 32  1  0  0  0  0
M  END
>  <minimizedAffinity>
-7.35412502

$$$$

 OpenBabel03242514313D

 39 42  0  0  0  0  0  0  0  0999 V2000
   37.4520   26.6360   38.4980 Cl  0  0  0  0  0  0  0  0  0  0  0  0
   37.0880   26.9820   40.1780 C   0  0  0  0  0  0  0  0  0  0  0  0
   37.0110   28.2700   40.5870 C   0  0  0  0  0  0  0  0  0  0  0  0
   36.8460   28.4290   41.9530 C   0  0  0  0  0  0  0  0  0  0  0  0
   36.7540   27.4090   42.8720 C   0  0  0  0  0  0  0  0  0  0  0  0
   36.8320   26.1060   42.4060 C   0  0  0  0  0  0  0  0  0  0  0  0
   37.0000   25.9030   41.0420 C   0  0  0  0  0  0  0  0  0  0  0  0
   36.7910   29.4920   42.2540 H   0  0  0  0  0  0  0  0  0  0  0  0
   36.6310   27.7500   43.8640 H   0  0  0  0  0  0  0  0  0  0  0  0
   36.7530   25.3360   43.1590 H   0  0  0  0  0  0  0  0  0  0  0  0
   39.6830   24.7640   41.3840 Cl  0  0  0  0  0  0  0  0  0  0  0  0
   38.3010   23.8950   40.6940 C   0  0  0  0  0  0  0  0  0  0  0  0
   37.0780   24.5210   40.5760 C   0  0  0  0  0  0  0  0  0  0  0  0
   36.0380   23.7950   40.0310 C   0  0  0  0  0  0  0  0  0  0  0  0
   35.0870   24.2990   39.9450 H   0  0  0  0  0  0  0  0  0  0  0  0
   36.2300   22.4820   39.6210 C   0  0  0  0  0  3  0  0  0  0  0  0
   37.4950   21.9050   39.7690 C   0  0  0  0  0  0  0  0  0  0  0  0
   37.7910   20.2400   39.2640 Cl  0  0  0  0  0  0  0  0  0  0  0  0
   38.5690   22.6020   40.3130 C   0  0  0  0  0  0  0  0  0  0  0  0
   39.5420   22.1420   40.4210 H   0  0  0  0  0  0  0  0  0  0  0  0
   36.5170   30.3900   37.5570 C   0  0  0  0  0  0  0  0  0  0  0  0
   36.3920   29.3130   38.4500 C   0  0  0  0  0  0  0  0  0  0  0  0
   37.0700   29.3670   39.6610 C   0  0  0  0  0  0  0  0  0  0  0  0
   37.8090   30.4710   39.9120 N   0  0  0  0  0  0  0  0  0  0  0  0
   37.9210   31.5020   39.0570 C   0  0  0  0  0  0  0  0  0  0  0  0
   37.2760   31.4630   37.8760 N   0  0  0  0  0  0  0  0  0  0  0  0
   36.0560   30.4900   36.5820 H   0  0  0  0  0  0  0  0  0  0  0  0
   35.7280   28.6430   38.0050 H   0  0  0  0  0  0  0  0  0  0  0  0
   40.8990   31.4780   38.3720 Cl  0  0  0  0  0  0  0  0  0  0  0  0
   40.0380   32.7890   39.1430 C   0  0  0  0  0  0  0  0  0  0  0  0
   38.6710   32.6880   39.4060 C   0  0  0  0  0  0  0  0  0  0  0  0
   38.1040   33.7660   40.0000 C   0  0  0  0  0  0  0  0  0  0  0  0
   38.7980   34.9190   40.3440 C   0  0  0  0  0  0  0  0  0  0  0  0
   40.1390   34.9910   40.0750 C   0  0  0  0  0  0  0  0  0  0  0  0
   40.8880   36.5000   40.5420 Cl  0  0  0  0  0  0  0  0  0  0  0  0
   40.7600   33.9370   39.4790 C   0  0  0  0  0  0  0  0  0  0  0  0
   37.0430   33.6950   40.2080 H   0  0  0  0  0  0  0  0  0  0  0  0
   38.2160   35.7210   40.8230 H   0  0  0  0  0  0  0  0  0  0  0  0
   41.8130   34.0370   39.2860 H   0  0  0  0  0  0  0  0  0  0  0  0
  1  2  1  0  0  0  0
  2  3  2  0  0  0  0
  2  7  1  0  0  0  0
  3  4  1  0  0  0  0
  4  8  1  0  0  0  0
  4  5  2  0  0  0  0
  5  9  1  0  0  0  0
  6  5  1  0  0  0  0
  6 10  1  0  0  0  0
  7  6  2  0  0  0  0
 12 11  1  0  0  0  0
 13 12  1  0  0  0  0
 13  7  1  0  0  0  0
 14 13  2  0  0  0  0
 15 14  1  0  0  0  0
 16 17  2  0  0  0  0
 16 14  1  0  0  0  0
 17 19  1  0  0  0  0
 18 17  1  0  0  0  0
 19 20  1  0  0  0  0
 19 12  2  0  0  0  0
 21 26  2  0  0  0  0
 21 22  1  0  0  0  0
 22 23  2  0  0  0  0
 23 24  1  0  0  0  0
 23  3  1  0  0  0  0
 25 31  1  0  0  0  0
 25 24  2  0  0  0  0
 26 25  1  0  0  0  0
 27 21  1  0  0  0  0
 28 22  1  0  0  0  0
 29 30  1  0  0  0  0
 30 31  2  0  0  0  0
 30 36  1  0  0  0  0
 31 32  1  0  0  0  0
 32 37  1  0  0  0  0
 32 33  2  0  0  0  0
 33 38  1  0  0  0  0
 34 33  1  0  0  0  0
 34 35  1  0  0  0  0
 36 34  2  0  0  0  0
 39 36  1  0  0  0  0
M  END
>  <minimizedAffinity>
-7.08720589

$$$$

 OpenBabel03242514313D

 39 42  0  0  0  0  0  0  0  0999 V2000
   39.7640   32.0640   41.9150 Cl  0  0  0  0  0  0  0  0  0  0  0  0
   39.9610   32.2030   40.1780 C   0  0  0  0  0  0  0  0  0  0  0  0
   39.1720   31.4660   39.3600 C   0  0  0  0  0  0  0  0  0  0  0  0
   39.4960   31.5560   38.0170 C   0  0  0  0  0  0  0  0  0  0  0  0
   40.5160   32.3140   37.4880 C   0  0  0  0  0  0  0  0  0  0  0  0
   41.2940   33.0570   38.3630 C   0  0  0  0  0  0  0  0  0  0  0  0
   41.0030   32.9930   39.7200 C   0  0  0  0  0  0  0  0  0  0  0  0
   38.8360   30.9400   37.3780 H   0  0  0  0  0  0  0  0  0  0  0  0
   40.5900   32.2390   36.4370 H   0  0  0  0  0  0  0  0  0  0  0  0
   42.0800   33.6390   37.9070 H   0  0  0  0  0  0  0  0  0  0  0  0
   39.9960   35.7300   40.0490 Cl  0  0  0  0  0  0  0  0  0  0  0  0
   41.4450   35.0890   40.8410 C   0  0  0  0  0  0  0  0  0  0  0  0
   41.8360   33.7850   40.6200 C   0  0  0  0  0  0  0  0  0  0  0  0
   42.9730   33.3400   41.2650 C   0  0  0  0  0  0  0  0  0  0  0  0
   43.2660   32.3170   41.0820 H   0  0  0  0  0  0  0  0  0  0  0  0
   43.6880   34.1870   42.1020 C   0  0  0  0  0  3  0  0  0  0  0  0
   43.2390   35.4980   42.2840 C   0  0  0  0  0  0  0  0  0  0  0  0
   44.1120   36.6120   43.3380 Cl  0  0  0  0  0  0  0  0  0  0  0  0
   42.0980   35.9840   41.6540 C   0  0  0  0  0  0  0  0  0  0  0  0
   41.7620   37.0020   41.8040 H   0  0  0  0  0  0  0  0  0  0  0  0
   35.8640   30.4910   40.7830 C   0  0  0  0  0  0  0  0  0  0  0  0
   36.8900   31.2920   40.2550 C   0  0  0  0  0  0  0  0  0  0  0  0
   38.0760   30.6840   39.8630 C   0  0  0  0  0  0  0  0  0  0  0  0
   38.1670   29.3440   40.0080 N   0  0  0  0  0  0  0  0  0  0  0  0
   37.1800   28.5800   40.5080 C   0  0  0  0  0  0  0  0  0  0  0  0
   36.0260   29.1530   40.8990 N   0  0  0  0  0  0  0  0  0  0  0  0
   34.8930   30.8180   41.1330 H   0  0  0  0  0  0  0  0  0  0  0  0
   36.5140   32.2640   40.2250 H   0  0  0  0  0  0  0  0  0  0  0  0
   38.1070   27.4230   43.1790 Cl  0  0  0  0  0  0  0  0  0  0  0  0
   37.7230   26.5020   41.7440 C   0  0  0  0  0  0  0  0  0  0  0  0
   37.3050   27.1420   40.5770 C   0  0  0  0  0  0  0  0  0  0  0  0
   37.0270   26.3300   39.5270 C   0  0  0  0  0  0  0  0  0  0  0  0
   37.1360   24.9460   39.5650 C   0  0  0  0  0  0  0  0  0  0  0  0
   37.5480   24.3440   40.7240 C   0  0  0  0  0  0  0  0  0  0  0  0
   37.6260   22.6000   40.6420 Cl  0  0  0  0  0  0  0  0  0  0  0  0
   37.8410   25.1110   41.8090 C   0  0  0  0  0  0  0  0  0  0  0  0
   36.7030   26.8190   38.6170 H   0  0  0  0  0  0  0  0  0  0  0  0
   36.8790   24.4060   38.6410 H   0  0  0  0  0  0  0  0  0  0  0  0
   38.1610   24.5970   42.6980 H   0  0  0  0  0  0  0  0  0  0  0  0
  2  1  1  0  0  0  0
  3 23  1  0  0  0  0
  3  2  2  0  0  0  0
  4  3  1  0  0  0  0
  5  4  2  0  0  0  0
  5  6  1  0  0  0  0
  6  7  2  0  0  0  0
  7  2  1  0  0  0  0
  7 13  1  0  0  0  0
  8  4  1  0  0  0  0
  9  5  1  0  0  0  0
 10  6  1  0  0  0  0
 11 12  1  0  0  0  0
 12 19  1  0  0  0  0
 13 12  2  0  0  0  0
 13 14  1  0  0  0  0
 14 16  2  0  0  0  0
 15 14  1  0  0  0  0
 16 17  1  0  0  0  0
 17 18  1  0  0  0  0
 19 20  1  0  0  0  0
 19 17  2  0  0  0  0
 21 26  1  0  0  0  0
 21 27  1  0  0  0  0
 22 21  2  0  0  0  0
 23 24  2  0  0  0  0
 23 22  1  0  0  0  0
 24 25  1  0  0  0  0
 25 31  1  0  0  0  0
 25 26  2  0  0  0  0
 28 22  1  0  0  0  0
 30 36  1  0  0  0  0
 30 29  1  0  0  0  0
 31 30  2  0  0  0  0
 32 33  2  0  0  0  0
 32 31  1  0  0  0  0
 33 34  1  0  0  0  0
 34 36  2  0  0  0  0
 35 34  1  0  0  0  0
 36 39  1  0  0  0  0
 37 32  1  0  0  0  0
 38 33  1  0  0  0  0
M  END
>  <minimizedAffinity>
-7.01590252

$$$$

 OpenBabel03242514313D

 39 42  0  0  0  0  0  0  0  0999 V2000
   38.1800   27.6760   39.3880 Cl  0  0  0  0  0  0  0  0  0  0  0  0
   37.7810   27.9570   41.0720 C   0  0  0  0  0  0  0  0  0  0  0  0
   37.8040   29.2200   41.5580 C   0  0  0  0  0  0  0  0  0  0  0  0
   37.5990   29.3130   42.9240 C   0  0  0  0  0  0  0  0  0  0  0  0
   37.3780   28.2540   43.7750 C   0  0  0  0  0  0  0  0  0  0  0  0
   37.3570   26.9780   43.2320 C   0  0  0  0  0  0  0  0  0  0  0  0
   37.5610   26.8410   41.8640 C   0  0  0  0  0  0  0  0  0  0  0  0
   37.6280   30.3570   43.2880 H   0  0  0  0  0  0  0  0  0  0  0  0
   37.2460   28.5470   44.7810 H   0  0  0  0  0  0  0  0  0  0  0  0
   37.1790   26.1770   43.9330 H   0  0  0  0  0  0  0  0  0  0  0  0
   40.1770   25.5200   42.0310 Cl  0  0  0  0  0  0  0  0  0  0  0  0
   38.7180   24.7810   41.3490 C   0  0  0  0  0  0  0  0  0  0  0  0
   37.5340   25.4880   41.3160 C   0  0  0  0  0  0  0  0  0  0  0  0
   36.4300   24.8610   40.7730 C   0  0  0  0  0  0  0  0  0  0  0  0
   35.5100   25.4270   40.7550 H   0  0  0  0  0  0  0  0  0  0  0  0
   36.5220   23.5660   40.2810 C   0  0  0  0  0  3  0  0  0  0  0  0
   37.7520   22.9040   40.3440 C   0  0  0  0  0  0  0  0  0  0  0  0
   37.9220   21.2570   39.7330 Cl  0  0  0  0  0  0  0  0  0  0  0  0
   38.8880   23.4990   40.8840 C   0  0  0  0  0  0  0  0  0  0  0  0
   39.8330   22.9750   40.9260 H   0  0  0  0  0  0  0  0  0  0  0  0
   37.1660   32.0550   39.2180 C   0  0  0  0  0  0  0  0  0  0  0  0
   36.9210   30.9740   40.0800 C   0  0  0  0  0  0  0  0  0  0  0  0
   37.9990   30.3590   40.7030 C   0  0  0  0  0  0  0  0  0  0  0  0
   39.2310   30.8520   40.4470 N   0  0  0  0  0  0  0  0  0  0  0  0
   39.4610   31.8920   39.6260 C   0  0  0  0  0  0  0  0  0  0  0  0
   38.4280   32.4940   39.0080 N   0  0  0  0  0  0  0  0  0  0  0  0
   36.4350   32.6270   38.6610 H   0  0  0  0  0  0  0  0  0  0  0  0
   35.8860   30.8570   40.1130 H   0  0  0  0  0  0  0  0  0  0  0  0
   41.1600   30.5700   37.4570 Cl  0  0  0  0  0  0  0  0  0  0  0  0
   41.6590   31.8960   38.4820 C   0  0  0  0  0  0  0  0  0  0  0  0
   40.7930   32.4220   39.4400 C   0  0  0  0  0  0  0  0  0  0  0  0
   41.2820   33.4520   40.1740 C   0  0  0  0  0  0  0  0  0  0  0  0
   42.5550   33.9830   40.0160 C   0  0  0  0  0  0  0  0  0  0  0  0
   43.3850   33.4470   39.0670 C   0  0  0  0  0  0  0  0  0  0  0  0
   44.9500   34.2170   38.9620 Cl  0  0  0  0  0  0  0  0  0  0  0  0
   42.9450   32.4110   38.3020 C   0  0  0  0  0  0  0  0  0  0  0  0
   40.6150   33.8660   40.9210 H   0  0  0  0  0  0  0  0  0  0  0  0
   42.8260   34.8200   40.6780 H   0  0  0  0  0  0  0  0  0  0  0  0
   43.6300   32.0210   37.5700 H   0  0  0  0  0  0  0  0  0  0  0  0
  1  2  1  0  0  0  0
  2  3  2  0  0  0  0
  2  7  1  0  0  0  0
  3  4  1  0  0  0  0
  4  8  1  0  0  0  0
  4  5  2  0  0  0  0
  5  9  1  0  0  0  0
  6  5  1  0  0  0  0
  6 10  1  0  0  0  0
  7  6  2  0  0  0  0
 12 11  1  0  0  0  0
 13 12  1  0  0  0  0
 13  7  1  0  0  0  0
 14 13  2  0  0  0  0
 15 14  1  0  0  0  0
 16 17  2  0  0  0  0
 16 14  1  0  0  0  0
 17 19  1  0  0  0  0
 18 17  1  0  0  0  0
 19 20  1  0  0  0  0
 19 12  2  0  0  0  0
 21 22  1  0  0  0  0
 22 28  1  0  0  0  0
 22 23  2  0  0  0  0
 23  3  1  0  0  0  0
 24 23  1  0  0  0  0
 25 24  2  0  0  0  0
 26 21  2  0  0  0  0
 26 25  1  0  0  0  0
 27 21  1  0  0  0  0
 29 30  1  0  0  0  0
 30 31  1  0  0  0  0
 31 25  1  0  0  0  0
 31 32  2  0  0  0  0
 32 37  1  0  0  0  0
 33 32  1  0  0  0  0
 33 38  1  0  0  0  0
 34 33  2  0  0  0  0
 35 34  1  0  0  0  0
 36 30  2  0  0  0  0
 36 34  1  0  0  0  0
 39 36  1  0  0  0  0
M  END
>  <minimizedAffinity>
-6.55580139

$$$$

 OpenBabel03242514313D

 39 42  0  0  0  0  0  0  0  0999 V2000
   33.0570   29.4730   35.1060 Cl  0  0  0  0  0  0  0  0  0  0  0  0
   32.0490   29.8450   36.4920 C   0  0  0  0  0  0  0  0  0  0  0  0
   32.4010   29.3760   37.7120 C   0  0  0  0  0  0  0  0  0  0  0  0
   31.4720   29.6180   38.7100 C   0  0  0  0  0  0  0  0  0  0  0  0
   30.2750   30.2780   38.5460 C   0  0  0  0  0  0  0  0  0  0  0  0
   29.9600   30.7460   37.2800 C   0  0  0  0  0  0  0  0  0  0  0  0
   30.8640   30.5220   36.2500 C   0  0  0  0  0  0  0  0  0  0  0  0
   31.7880   29.2190   39.6920 H   0  0  0  0  0  0  0  0  0  0  0  0
   29.7150   30.3550   39.4390 H   0  0  0  0  0  0  0  0  0  0  0  0
   29.0140   31.2600   37.1960 H   0  0  0  0  0  0  0  0  0  0  0  0
   29.4570   28.5140   34.6380 Cl  0  0  0  0  0  0  0  0  0  0  0  0
   29.8420   30.1540   34.0900 C   0  0  0  0  0  0  0  0  0  0  0  0
   30.5090   31.0250   34.9260 C   0  0  0  0  0  0  0  0  0  0  0  0
   30.7830   32.2890   34.4450 C   0  0  0  0  0  0  0  0  0  0  0  0
   31.3050   32.9600   35.1110 H   0  0  0  0  0  0  0  0  0  0  0  0
   30.3940   32.6580   33.1640 C   0  0  0  0  0  3  0  0  0  0  0  0
   29.7210   31.7290   32.3660 C   0  0  0  0  0  0  0  0  0  0  0  0
   29.2060   32.1490   30.7310 Cl  0  0  0  0  0  0  0  0  0  0  0  0
   29.4260   30.4450   32.8130 C   0  0  0  0  0  0  0  0  0  0  0  0
   28.9040   29.7360   32.1850 H   0  0  0  0  0  0  0  0  0  0  0  0
   35.1600   26.8670   37.5940 C   0  0  0  0  0  0  0  0  0  0  0  0
   33.9420   27.5050   37.3070 C   0  0  0  0  0  0  0  0  0  0  0  0
   33.6540   28.7080   37.9380 C   0  0  0  0  0  0  0  0  0  0  0  0
   34.5790   29.2020   38.7910 N   0  0  0  0  0  0  0  0  0  0  0  0
   35.7460   28.5920   39.0570 C   0  0  0  0  0  0  0  0  0  0  0  0
   36.0390   27.4210   38.4610 N   0  0  0  0  0  0  0  0  0  0  0  0
   35.5200   25.9300   37.1880 H   0  0  0  0  0  0  0  0  0  0  0  0
   33.4690   26.9170   36.5880 H   0  0  0  0  0  0  0  0  0  0  0  0
   37.4780   30.7910   37.8310 Cl  0  0  0  0  0  0  0  0  0  0  0  0
   37.5760   30.2100   39.4770 C   0  0  0  0  0  0  0  0  0  0  0  0
   36.7290   29.1980   39.9280 C   0  0  0  0  0  0  0  0  0  0  0  0
   36.8880   28.8300   41.2230 C   0  0  0  0  0  0  0  0  0  0  0  0
   37.8200   29.3950   42.0830 C   0  0  0  0  0  0  0  0  0  0  0  0
   38.6400   30.3870   41.6130 C   0  0  0  0  0  0  0  0  0  0  0  0
   39.7540   31.0230   42.8000 Cl  0  0  0  0  0  0  0  0  0  0  0  0
   38.5230   30.7960   40.3200 C   0  0  0  0  0  0  0  0  0  0  0  0
   36.2330   28.0450   41.5810 H   0  0  0  0  0  0  0  0  0  0  0  0
   37.8440   29.0040   43.1110 H   0  0  0  0  0  0  0  0  0  0  0  0
   39.1870   31.5760   39.9940 H   0  0  0  0  0  0  0  0  0  0  0  0
  1  2  1  0  0  0  0
  2  3  1  0  0  0  0
  3 23  1  0  0  0  0
  3  4  2  0  0  0  0
  4  8  1  0  0  0  0
  5  4  1  0  0  0  0
  5  9  1  0  0  0  0
  6  5  2  0  0  0  0
  7  2  2  0  0  0  0
  7  6  1  0  0  0  0
 10  6  1  0  0  0  0
 12 11  1  0  0  0  0
 12 13  1  0  0  0  0
 13  7  1  0  0  0  0
 14 13  2  0  0  0  0
 14 15  1  0  0  0  0
 16 14  1  0  0  0  0
 17 19  1  0  0  0  0
 17 16  2  0  0  0  0
 18 17  1  0  0  0  0
 19 12  2  0  0  0  0
 20 19  1  0  0  0  0
 21 26  1  0  0  0  0
 22 21  2  0  0  0  0
 22 23  1  0  0  0  0
 23 24  2  0  0  0  0
 24 25  1  0  0  0  0
 25 31  1  0  0  0  0
 26 25  2  0  0  0  0
 27 21  1  0  0  0  0
 28 22  1  0  0  0  0
 29 30  1  0  0  0  0
 30 31  2  0  0  0  0
 30 36  1  0  0  0  0
 31 32  1  0  0  0  0
 32 37  1  0  0  0  0
 32 33  2  0  0  0  0
 33 38  1  0  0  0  0
 34 33  1  0  0  0  0
 34 35  1  0  0  0  0
 36 34  2  0  0  0  0
 39 36  1  0  0  0  0
M  END
>  <minimizedAffinity>
-6.45780134

$$$$

 OpenBabel03242514313D

 39 42  0  0  0  0  0  0  0  0999 V2000
   36.7180   30.8870   37.8520 Cl  0  0  0  0  0  0  0  0  0  0  0  0
   36.7590   30.0380   39.3860 C   0  0  0  0  0  0  0  0  0  0  0  0
   35.9300   28.9870   39.5840 C   0  0  0  0  0  0  0  0  0  0  0  0
   35.9530   28.4730   40.8700 C   0  0  0  0  0  0  0  0  0  0  0  0
   36.7320   28.9380   41.9050 C   0  0  0  0  0  0  0  0  0  0  0  0
   37.5710   30.0140   41.6530 C   0  0  0  0  0  0  0  0  0  0  0  0
   37.5760   30.5610   40.3760 C   0  0  0  0  0  0  0  0  0  0  0  0
   35.2630   27.6180   40.9990 H   0  0  0  0  0  0  0  0  0  0  0  0
   36.5960   28.4020   42.8040 H   0  0  0  0  0  0  0  0  0  0  0  0
   38.1650   30.3450   42.4910 H   0  0  0  0  0  0  0  0  0  0  0  0
   40.1990   29.7160   39.3660 Cl  0  0  0  0  0  0  0  0  0  0  0  0
   39.7280   31.3990   39.6590 C   0  0  0  0  0  0  0  0  0  0  0  0
   38.4670   31.6920   40.1370 C   0  0  0  0  0  0  0  0  0  0  0  0
   38.1560   33.0210   40.3470 C   0  0  0  0  0  0  0  0  0  0  0  0
   37.1660   33.2350   40.7210 H   0  0  0  0  0  0  0  0  0  0  0  0
   39.0890   34.0160   40.0820 C   0  0  0  0  0  3  0  0  0  0  0  0
   40.3490   33.6510   39.5990 C   0  0  0  0  0  0  0  0  0  0  0  0
   41.5680   34.8780   39.2470 Cl  0  0  0  0  0  0  0  0  0  0  0  0
   40.7020   32.3250   39.3740 C   0  0  0  0  0  0  0  0  0  0  0  0
   41.6810   32.0580   39.0000 H   0  0  0  0  0  0  0  0  0  0  0  0
   34.4880   26.6550   37.0540 C   0  0  0  0  0  0  0  0  0  0  0  0
   35.2680   27.1240   38.1240 C   0  0  0  0  0  0  0  0  0  0  0  0
   35.1220   28.4460   38.5260 C   0  0  0  0  0  0  0  0  0  0  0  0
   34.2200   29.2030   37.8620 N   0  0  0  0  0  0  0  0  0  0  0  0
   33.4710   28.7470   36.8440 C   0  0  0  0  0  0  0  0  0  0  0  0
   33.6050   27.4720   36.4360 N   0  0  0  0  0  0  0  0  0  0  0  0
   34.4940   25.6590   36.6280 H   0  0  0  0  0  0  0  0  0  0  0  0
   35.8260   26.3090   38.4570 H   0  0  0  0  0  0  0  0  0  0  0  0
   31.2220   29.7730   38.6410 Cl  0  0  0  0  0  0  0  0  0  0  0  0
   31.4000   30.1060   36.9340 C   0  0  0  0  0  0  0  0  0  0  0  0
   32.4730   29.5820   36.2130 C   0  0  0  0  0  0  0  0  0  0  0  0
   32.5160   29.9090   34.8980 C   0  0  0  0  0  0  0  0  0  0  0  0
   31.5740   30.7100   34.2660 C   0  0  0  0  0  0  0  0  0  0  0  0
   30.5300   31.2110   34.9970 C   0  0  0  0  0  0  0  0  0  0  0  0
   29.4280   32.2150   34.0860 Cl  0  0  0  0  0  0  0  0  0  0  0  0
   30.4380   30.9140   36.3220 C   0  0  0  0  0  0  0  0  0  0  0  0
   33.3470   29.5060   34.3320 H   0  0  0  0  0  0  0  0  0  0  0  0
   31.7270   30.8980   33.1920 H   0  0  0  0  0  0  0  0  0  0  0  0
   29.6020   31.3280   36.8580 H   0  0  0  0  0  0  0  0  0  0  0  0
  1  2  1  0  0  0  0
  2  3  2  0  0  0  0
  2  7  1  0  0  0  0
  3  4  1  0  0  0  0
  4  8  1  0  0  0  0
  4  5  2  0  0  0  0
  5  9  1  0  0  0  0
  6  5  1  0  0  0  0
  6 10  1  0  0  0  0
  7  6  2  0  0  0  0
 11 12  1  0  0  0  0
 12 13  1  0  0  0  0
 13 14  2  0  0  0  0
 13  7  1  0  0  0  0
 14 15  1  0  0  0  0
 16 14  1  0  0  0  0
 17 16  2  0  0  0  0
 18 17  1  0  0  0  0
 19 17  1  0  0  0  0
 19 12  2  0  0  0  0
 20 19  1  0  0  0  0
 21 22  1  0  0  0  0
 22 28  1  0  0  0  0
 22 23  2  0  0  0  0
 23  3  1  0  0  0  0
 24 23  1  0  0  0  0
 25 24  2  0  0  0  0
 26 25  1  0  0  0  0
 26 21  2  0  0  0  0
 27 21  1  0  0  0  0
 30 29  1  0  0  0  0
 31 25  1  0  0  0  0
 31 30  2  0  0  0  0
 32 31  1  0  0  0  0
 33 32  2  0  0  0  0
 33 34  1  0  0  0  0
 34 36  2  0  0  0  0
 35 34  1  0  0  0  0
 36 39  1  0  0  0  0
 36 30  1  0  0  0  0
 37 32  1  0  0  0  0
 38 33  1  0  0  0  0
M  END
>  <minimizedAffinity>
-6.43889523

$$$$

 OpenBabel03242514313D

 39 42  0  0  0  0  0  0  0  0999 V2000
   38.4840   28.1000   39.6640 Cl  0  0  0  0  0  0  0  0  0  0  0  0
   38.0600   27.9530   41.3600 C   0  0  0  0  0  0  0  0  0  0  0  0
   37.5960   26.7700   41.8270 C   0  0  0  0  0  0  0  0  0  0  0  0
   37.1730   26.8000   43.1450 C   0  0  0  0  0  0  0  0  0  0  0  0
   37.1990   27.9020   43.9690 C   0  0  0  0  0  0  0  0  0  0  0  0
   37.6890   29.0910   43.4500 C   0  0  0  0  0  0  0  0  0  0  0  0
   38.1220   29.1040   42.1290 C   0  0  0  0  0  0  0  0  0  0  0  0
   36.7960   25.8200   43.4940 H   0  0  0  0  0  0  0  0  0  0  0  0
   36.8300   27.7070   44.9400 H   0  0  0  0  0  0  0  0  0  0  0  0
   37.6940   29.9290   44.1300 H   0  0  0  0  0  0  0  0  0  0  0  0
   36.0220   30.7120   40.8580 Cl  0  0  0  0  0  0  0  0  0  0  0  0
   37.7210   31.1970   40.9880 C   0  0  0  0  0  0  0  0  0  0  0  0
   38.6330   30.3670   41.6060 C   0  0  0  0  0  0  0  0  0  0  0  0
   39.9430   30.7970   41.6770 C   0  0  0  0  0  0  0  0  0  0  0  0
   40.6450   30.1360   42.1640 H   0  0  0  0  0  0  0  0  0  0  0  0
   40.3150   32.0230   41.1420 C   0  0  0  0  0  3  0  0  0  0  0  0
   39.3420   32.8180   40.5290 C   0  0  0  0  0  0  0  0  0  0  0  0
   39.7650   34.3840   39.8350 Cl  0  0  0  0  0  0  0  0  0  0  0  0
   38.0120   32.4210   40.4360 C   0  0  0  0  0  0  0  0  0  0  0  0
   37.2700   33.0470   39.9590 H   0  0  0  0  0  0  0  0  0  0  0  0
   38.6740   23.7040   39.9950 C   0  0  0  0  0  0  0  0  0  0  0  0
   38.7290   24.8270   40.8360 C   0  0  0  0  0  0  0  0  0  0  0  0
   37.5790   25.5860   41.0130 C   0  0  0  0  0  0  0  0  0  0  0  0
   36.4630   25.1850   40.3650 N   0  0  0  0  0  0  0  0  0  0  0  0
   36.4130   24.1050   39.5660 C   0  0  0  0  0  0  0  0  0  0  0  0
   37.5200   23.3630   39.3770 N   0  0  0  0  0  0  0  0  0  0  0  0
   39.4830   23.0250   39.7570 H   0  0  0  0  0  0  0  0  0  0  0  0
   39.6970   24.8530   41.2240 H   0  0  0  0  0  0  0  0  0  0  0  0
   35.5930   25.5710   37.0130 Cl  0  0  0  0  0  0  0  0  0  0  0  0
   34.6990   24.2810   37.7840 C   0  0  0  0  0  0  0  0  0  0  0  0
   35.1750   23.6830   38.9510 C   0  0  0  0  0  0  0  0  0  0  0  0
   34.4050   22.6890   39.4590 C   0  0  0  0  0  0  0  0  0  0  0  0
   33.2130   22.2600   38.8890 C   0  0  0  0  0  0  0  0  0  0  0  0
   32.7700   22.8660   37.7430 C   0  0  0  0  0  0  0  0  0  0  0  0
   31.2690   22.2220   37.1230 Cl  0  0  0  0  0  0  0  0  0  0  0  0
   33.5040   23.8690   37.1900 C   0  0  0  0  0  0  0  0  0  0  0  0
   34.7670   22.2190   40.3650 H   0  0  0  0  0  0  0  0  0  0  0  0
   32.6860   21.4430   39.4040 H   0  0  0  0  0  0  0  0  0  0  0  0
   33.1180   24.3170   36.2910 H   0  0  0  0  0  0  0  0  0  0  0  0
  1  2  1  0  0  0  0
  2  3  2  0  0  0  0
  2  7  1  0  0  0  0
  3  4  1  0  0  0  0
  4  8  1  0  0  0  0
  4  5  2  0  0  0  0
  5  9  1  0  0  0  0
  6  5  1  0  0  0  0
  6 10  1  0  0  0  0
  7  6  2  0  0  0  0
 11 12  1  0  0  0  0
 12 13  1  0  0  0  0
 13 14  2  0  0  0  0
 13  7  1  0  0  0  0
 14 15  1  0  0  0  0
 16 14  1  0  0  0  0
 17 16  2  0  0  0  0
 18 17  1  0  0  0  0
 19 17  1  0  0  0  0
 19 12  2  0  0  0  0
 20 19  1  0  0  0  0
 21 22  1  0  0  0  0
 22 23  2  0  0  0  0
 22 28  1  0  0  0  0
 23  3  1  0  0  0  0
 24 23  1  0  0  0  0
 25 24  2  0  0  0  0
 26 25  1  0  0  0  0
 26 21  2  0  0  0  0
 27 21  1  0  0  0  0
 29 30  1  0  0  0  0
 30 31  1  0  0  0  0
 31 32  2  0  0  0  0
 31 25  1  0  0  0  0
 32 37  1  0  0  0  0
 33 38  1  0  0  0  0
 33 32  1  0  0  0  0
 34 33  2  0  0  0  0
 35 34  1  0  0  0  0
 36 34  1  0  0  0  0
 36 30  2  0  0  0  0
 39 36  1  0  0  0  0
M  END
>  <minimizedAffinity>
-6.39548492

$$$$

 OpenBabel03242514313D

 39 42  0  0  0  0  0  0  0  0999 V2000
   40.4760   29.3600   40.1430 Cl  0  0  0  0  0  0  0  0  0  0  0  0
   39.2530   30.6160   40.1010 C   0  0  0  0  0  0  0  0  0  0  0  0
   38.0580   30.3980   40.6990 C   0  0  0  0  0  0  0  0  0  0  0  0
   37.1240   31.4000   40.4970 C   0  0  0  0  0  0  0  0  0  0  0  0
   37.3280   32.5480   39.7670 C   0  0  0  0  0  0  0  0  0  0  0  0
   38.5690   32.7320   39.1770 C   0  0  0  0  0  0  0  0  0  0  0  0
   39.5340   31.7480   39.3540 C   0  0  0  0  0  0  0  0  0  0  0  0
   36.1590   31.1880   40.9950 H   0  0  0  0  0  0  0  0  0  0  0  0
   36.4820   33.1810   39.7390 H   0  0  0  0  0  0  0  0  0  0  0  0
   38.6870   33.6470   38.6160 H   0  0  0  0  0  0  0  0  0  0  0  0
   41.4640   32.9910   41.1830 Cl  0  0  0  0  0  0  0  0  0  0  0  0
   41.8120   32.5460   39.5030 C   0  0  0  0  0  0  0  0  0  0  0  0
   40.8330   31.9650   38.7240 C   0  0  0  0  0  0  0  0  0  0  0  0
   41.1620   31.6390   37.4230 C   0  0  0  0  0  0  0  0  0  0  0  0
   40.3850   31.1850   36.8250 H   0  0  0  0  0  0  0  0  0  0  0  0
   42.4350   31.8930   36.9300 C   0  0  0  0  0  3  0  0  0  0  0  0
   43.3820   32.4840   37.7720 C   0  0  0  0  0  0  0  0  0  0  0  0
   45.0140   32.8260   37.1940 Cl  0  0  0  0  0  0  0  0  0  0  0  0
   43.0910   32.8270   39.0890 C   0  0  0  0  0  0  0  0  0  0  0  0
   43.8340   33.2840   39.7290 H   0  0  0  0  0  0  0  0  0  0  0  0
   37.5320   28.1380   43.6210 C   0  0  0  0  0  0  0  0  0  0  0  0
   37.7310   29.3150   42.8810 C   0  0  0  0  0  0  0  0  0  0  0  0
   37.8100   29.2280   41.4970 C   0  0  0  0  0  0  0  0  0  0  0  0
   37.6790   28.0030   40.9420 N   0  0  0  0  0  0  0  0  0  0  0  0
   37.4820   26.8800   41.6540 C   0  0  0  0  0  0  0  0  0  0  0  0
   37.4110   26.9450   42.9960 N   0  0  0  0  0  0  0  0  0  0  0  0
   37.4550   28.0470   44.6980 H   0  0  0  0  0  0  0  0  0  0  0  0
   37.7460   30.0950   43.5730 H   0  0  0  0  0  0  0  0  0  0  0  0
   35.8840   26.9170   39.0490 Cl  0  0  0  0  0  0  0  0  0  0  0  0
   36.5660   25.4980   39.8110 C   0  0  0  0  0  0  0  0  0  0  0  0
   37.2810   25.6040   41.0040 C   0  0  0  0  0  0  0  0  0  0  0  0
   37.7710   24.4420   41.5020 C   0  0  0  0  0  0  0  0  0  0  0  0
   37.5970   23.2040   40.9000 C   0  0  0  0  0  0  0  0  0  0  0  0
   36.8890   23.1290   39.7290 C   0  0  0  0  0  0  0  0  0  0  0  0
   36.7580   21.5160   39.0680 Cl  0  0  0  0  0  0  0  0  0  0  0  0
   36.3760   24.2650   39.1840 C   0  0  0  0  0  0  0  0  0  0  0  0
   38.3280   24.5160   42.4290 H   0  0  0  0  0  0  0  0  0  0  0  0
   38.0470   22.3390   41.4100 H   0  0  0  0  0  0  0  0  0  0  0  0
   35.8270   24.1600   38.2650 H   0  0  0  0  0  0  0  0  0  0  0  0
  2  1  1  0  0  0  0
  2  3  1  0  0  0  0
  3 23  1  0  0  0  0
  4  3  2  0  0  0  0
  4  8  1  0  0  0  0
  5  4  1  0  0  0  0
  6  7  1  0  0  0  0
  6  5  2  0  0  0  0
  7  2  2  0  0  0  0
  9  5  1  0  0  0  0
 10  6  1  0  0  0  0
 12 11  1  0  0  0  0
 13  7  1  0  0  0  0
 13 12  2  0  0  0  0
 14 13  1  0  0  0  0
 15 14  1  0  0  0  0
 16 14  2  0  0  0  0
 16 17  1  0  0  0  0
 17 19  2  0  0  0  0
 18 17  1  0  0  0  0
 19 12  1  0  0  0  0
 19 20  1  0  0  0  0
 21 27  1  0  0  0  0
 22 28  1  0  0  0  0
 22 21  2  0  0  0  0
 23 22  1  0  0  0  0
 24 23  2  0  0  0  0
 24 25  1  0  0  0  0
 25 26  2  0  0  0  0
 26 21  1  0  0  0  0
 29 30  1  0  0  0  0
 30 31  1  0  0  0  0
 31 32  2  0  0  0  0
 31 25  1  0  0  0  0
 32 37  1  0  0  0  0
 33 38  1  0  0  0  0
 33 32  1  0  0  0  0
 34 33  2  0  0  0  0
 35 34  1  0  0  0  0
 36 34  1  0  0  0  0
 36 30  2  0  0  0  0
 39 36  1  0  0  0  0
M  END
>  <minimizedAffinity>
-6.38758326

$$$$

 OpenBabel03242514313D

 39 42  0  0  0  0  0  0  0  0999 V2000
   40.4210   28.9670   41.0080 Cl  0  0  0  0  0  0  0  0  0  0  0  0
   39.1500   28.4640   42.1050 C   0  0  0  0  0  0  0  0  0  0  0  0
   37.8990   28.9550   41.9410 C   0  0  0  0  0  0  0  0  0  0  0  0
   37.0060   28.5940   42.9360 C   0  0  0  0  0  0  0  0  0  0  0  0
   37.2950   27.8010   44.0220 C   0  0  0  0  0  0  0  0  0  0  0  0
   38.5880   27.3150   44.1460 C   0  0  0  0  0  0  0  0  0  0  0  0
   39.5160   27.6560   43.1700 C   0  0  0  0  0  0  0  0  0  0  0  0
   35.9960   29.0150   42.7730 H   0  0  0  0  0  0  0  0  0  0  0  0
   36.4670   27.6490   44.6610 H   0  0  0  0  0  0  0  0  0  0  0  0
   38.7710   26.6960   45.0110 H   0  0  0  0  0  0  0  0  0  0  0  0
   39.8500   25.0440   41.8750 Cl  0  0  0  0  0  0  0  0  0  0  0  0
   41.1300   25.9060   42.7470 C   0  0  0  0  0  0  0  0  0  0  0  0
   40.8700   27.1320   43.3230 C   0  0  0  0  0  0  0  0  0  0  0  0
   41.9050   27.7560   43.9900 C   0  0  0  0  0  0  0  0  0  0  0  0
   41.6880   28.7160   44.4350 H   0  0  0  0  0  0  0  0  0  0  0  0
   43.1570   27.1600   44.0700 C   0  0  0  0  0  3  0  0  0  0  0  0
   43.3540   25.9160   43.4650 C   0  0  0  0  0  0  0  0  0  0  0  0
   44.9260   25.1160   43.5380 Cl  0  0  0  0  0  0  0  0  0  0  0  0
   42.3380   25.2530   42.7830 C   0  0  0  0  0  0  0  0  0  0  0  0
   42.5060   24.2900   42.3190 H   0  0  0  0  0  0  0  0  0  0  0  0
   37.1910   31.8930   39.7540 C   0  0  0  0  0  0  0  0  0  0  0  0
   37.5930   31.1480   40.8740 C   0  0  0  0  0  0  0  0  0  0  0  0
   37.5420   29.7610   40.8060 C   0  0  0  0  0  0  0  0  0  0  0  0
   37.1140   29.2090   39.6490 N   0  0  0  0  0  0  0  0  0  0  0  0
   36.7360   29.9270   38.5770 C   0  0  0  0  0  0  0  0  0  0  0  0
   36.7710   31.2710   38.6280 N   0  0  0  0  0  0  0  0  0  0  0  0
   37.1700   32.9720   39.6580 H   0  0  0  0  0  0  0  0  0  0  0  0
   37.9110   31.8400   41.5850 H   0  0  0  0  0  0  0  0  0  0  0  0
   33.8590   28.9090   38.4140 Cl  0  0  0  0  0  0  0  0  0  0  0  0
   35.0640   28.7780   37.1540 C   0  0  0  0  0  0  0  0  0  0  0  0
   36.3500   29.2840   37.3410 C   0  0  0  0  0  0  0  0  0  0  0  0
   37.2000   29.1330   36.2960 C   0  0  0  0  0  0  0  0  0  0  0  0
   36.8580   28.5220   35.0970 C   0  0  0  0  0  0  0  0  0  0  0  0
   35.5880   28.0340   34.9400 C   0  0  0  0  0  0  0  0  0  0  0  0
   35.2830   27.3060   33.3810 Cl  0  0  0  0  0  0  0  0  0  0  0  0
   34.6930   28.1590   35.9570 C   0  0  0  0  0  0  0  0  0  0  0  0
   38.2020   29.5230   36.4340 H   0  0  0  0  0  0  0  0  0  0  0  0
   37.6450   28.4660   34.3300 H   0  0  0  0  0  0  0  0  0  0  0  0
   33.7070   27.7620   35.7910 H   0  0  0  0  0  0  0  0  0  0  0  0
  1  2  1  0  0  0  0
  2  7  1  0  0  0  0
  3  2  2  0  0  0  0
  3  4  1  0  0  0  0
  4  5  2  0  0  0  0
  5  6  1  0  0  0  0
  5  9  1  0  0  0  0
  6 10  1  0  0  0  0
  7 13  1  0  0  0  0
  7  6  2  0  0  0  0
  8  4  1  0  0  0  0
 11 12  1  0  0  0  0
 12 19  2  0  0  0  0
 12 13  1  0  0  0  0
 13 14  2  0  0  0  0
 14 16  1  0  0  0  0
 14 15  1  0  0  0  0
 17 18  1  0  0  0  0
 17 16  2  0  0  0  0
 19 17  1  0  0  0  0
 20 19  1  0  0  0  0
 21 22  1  0  0  0  0
 22 28  1  0  0  0  0
 23 22  2  0  0  0  0
 23  3  1  0  0  0  0
 24 23  1  0  0  0  0
 25 26  1  0  0  0  0
 25 24  2  0  0  0  0
 26 21  2  0  0  0  0
 27 21  1  0  0  0  0
 30 31  1  0  0  0  0
 30 29  1  0  0  0  0
 31 25  1  0  0  0  0
 32 37  1  0  0  0  0
 32 31  2  0  0  0  0
 33 32  1  0  0  0  0
 34 33  2  0  0  0  0
 34 36  1  0  0  0  0
 35 34  1  0  0  0  0
 36 30  2  0  0  0  0
 38 33  1  0  0  0  0
 39 36  1  0  0  0  0
M  END
>  <minimizedAffinity>
-6.37844896

$$$$
