
 OpenBabel03242523533D

 46 49  0  0  1  0  0  0  0  0999 V2000
   42.6750   34.4910   38.8550 C   0  0  1  0  0  0  0  0  0  0  0  0
   43.0000   35.2000   40.1600 C   0  0  1  0  0  0  0  0  0  0  0  0
   41.7820   35.5560   40.7800 O   0  0  0  0  0  0  0  0  0  0  0  0
   40.7990   35.9290   39.8600 C   0  0  0  0  0  0  0  0  0  0  0  0
   40.3170   34.7540   39.0330 C   0  0  2  0  0  0  0  0  0  0  0  0
   41.4520   33.6760   39.1140 C   0  0  1  0  0  0  0  0  0  0  0  0
   43.5410   33.8890   38.5080 H   0  0  0  0  0  0  0  0  0  0  0  0
   43.6530   36.0700   40.0330 H   0  0  0  0  0  0  0  0  0  0  0  0
   41.1210   36.7780   39.2230 H   0  0  0  0  0  0  0  0  0  0  0  0
   39.9490   36.2630   40.4700 H   0  0  0  0  0  0  0  0  0  0  0  0
   39.3780   34.3040   39.4120 H   0  0  0  0  0  0  0  0  0  0  0  0
   41.3170   33.4870   40.2280 H   0  0  0  0  0  0  0  0  0  0  0  0
   42.4460   35.4190   37.8270 O   0  0  0  0  0  0  0  0  0  0  0  0
   43.1440   36.1220   37.8410 H   0  0  0  0  0  0  0  0  0  0  0  0
   40.2490   35.1120   37.6980 O   0  0  0  0  0  0  0  0  0  0  0  0
   39.4340   35.6430   37.5490 H   0  0  0  0  0  0  0  0  0  0  0  0
   43.5220   34.2050   41.0010 O   0  0  0  0  0  0  0  0  0  0  0  0
   44.6330   34.3320   41.7350 C   0  0  0  0  0  0  0  0  0  0  0  0
   45.8900   34.4620   41.1260 C   0  0  0  0  0  0  0  0  0  0  0  0
   47.0110   34.5900   41.9260 C   0  0  0  0  0  0  0  0  0  0  0  0
   46.8610   34.5880   43.3000 N   0  0  0  0  0  0  0  0  0  0  0  0
   45.6330   34.4600   43.8560 C   0  0  0  0  0  0  0  0  0  0  0  0
   44.5290   34.3330   43.0750 N   0  0  0  0  0  0  0  0  0  0  0  0
   46.0150   34.4640   40.0430 H   0  0  0  0  0  0  0  0  0  0  0  0
   45.5610   34.4630   44.9340 H   0  0  0  0  0  0  0  0  0  0  0  0
   48.3850   34.7100   41.3430 C   0  0  0  0  0  0  0  0  0  0  0  0
   49.0890   36.0530   41.5220 C   0  0  0  0  0  0  0  0  0  0  0  0
   49.5390   34.7370   42.1850 C   0  0  0  0  0  0  0  0  0  0  0  0
   48.4510   34.2720   40.3120 H   0  0  0  0  0  0  0  0  0  0  0  0
   49.7400   36.3410   40.6750 H   0  0  0  0  0  0  0  0  0  0  0  0
   48.5920   36.8140   42.1400 H   0  0  0  0  0  0  0  0  0  0  0  0
   50.5280   34.3400   41.9260 H   0  0  0  0  0  0  0  0  0  0  0  0
   49.3750   34.7550   43.2940 H   0  0  0  0  0  0  0  0  0  0  0  0
   41.1550   32.7050   38.2340 O   0  0  0  0  0  0  0  0  0  0  0  0
   40.3340   31.6550   38.3100 C   0  0  0  0  0  0  0  0  0  0  0  0
   39.3980   31.4500   37.3850 O   0  0  0  0  0  0  0  0  0  0  0  0
   41.9340   29.1350   37.8040 Cl  0  0  0  0  0  0  0  0  0  0  0  0
   40.8870   29.3250   39.2090 C   0  0  0  0  0  0  0  0  0  0  0  0
   40.2150   30.5240   39.3040 C   0  0  0  0  0  0  0  0  0  0  0  0
   39.4230   30.5930   40.4220 C   0  0  0  0  0  0  0  0  0  0  0  0
   38.8320   31.4830   40.6300 H   0  0  0  0  0  0  0  0  0  0  0  0
   39.3170   29.5900   41.3320 C   0  0  0  0  0  3  0  0  0  0  0  0
   40.0150   28.4330   41.1660 C   0  0  0  0  0  0  0  0  0  0  0  0
   39.8760   27.1520   42.3320 Cl  0  0  0  0  0  0  0  0  0  0  0  0
   40.8390   28.2630   40.0760 C   0  0  0  0  0  0  0  0  0  0  0  0
   41.4060   27.3780   39.9010 H   0  0  0  0  0  0  0  0  0  0  0  0
  1  7  1  6  0  0  0
  1  6  1  0  0  0  0
  1  2  1  0  0  0  0
  2  8  1  6  0  0  0
  2  3  1  0  0  0  0
  2 17  1  0  0  0  0
  4 10  1  0  0  0  0
  4  3  1  0  0  0  0
  5  6  1  0  0  0  0
  5 11  1  1  0  0  0
  5  4  1  0  0  0  0
  6 12  1  1  0  0  0
  9  4  1  0  0  0  0
 13 14  1  0  0  0  0
 13  1  1  0  0  0  0
 15  5  1  0  0  0  0
 16 15  1  0  0  0  0
 17 18  1  0  0  0  0
 18 23  1  0  0  0  0
 19 18  2  0  0  0  0
 19 20  1  0  0  0  0
 20 21  2  0  0  0  0
 21 22  1  0  0  0  0
 22 25  1  0  0  0  0
 23 22  2  0  0  0  0
 24 19  1  0  0  0  0
 26 27  1  0  0  0  0
 26 20  1  0  0  0  0
 26 28  1  0  0  0  0
 27 31  1  0  0  0  0
 27 28  1  0  0  0  0
 28 33  1  0  0  0  0
 29 26  1  0  0  0  0
 30 27  1  0  0  0  0
 32 28  1  0  0  0  0
 34 35  1  0  0  0  0
 34  6  1  0  0  0  0
 35 39  1  0  0  0  0
 36 35  2  0  0  0  0
 37 38  1  0  0  0  0
 38 39  2  0  0  0  0
 38 45  1  0  0  0  0
 39 40  1  0  0  0  0
 40 41  1  0  0  0  0
 40 42  2  0  0  0  0
 43 42  1  0  0  0  0
 43 44  1  0  0  0  0
 45 43  2  0  0  0  0
 46 45  1  0  0  0  0
M  END
>  <minimizedAffinity>
-5.98175335

>  <minimizedRMSD>
1.62441313

$$$$
