
 OpenBabel03252500163D

 39 42  0  0  0  0  0  0  0  0999 V2000
   41.0270   31.7970   40.5170 Cl  0  0  0  0  0  0  0  0  0  0  0  0
   40.2350   33.3200   40.3600 C   0  0  0  0  0  0  0  0  0  0  0  0
   40.9470   34.4950   40.4090 C   0  0  0  0  0  0  0  0  0  0  0  0
   40.3410   35.7410   40.2850 C   0  0  0  0  0  0  0  0  0  0  0  0
   38.9670   35.7340   40.1090 C   0  0  0  0  0  0  0  0  0  0  0  0
   38.2530   34.5550   40.0600 C   0  0  0  0  0  0  0  0  0  0  0  0
   38.8740   33.3570   40.1840 C   0  0  0  0  0  0  0  0  0  0  0  0
   40.8700   36.6700   40.3190 H   0  0  0  0  0  0  0  0  0  0  0  0
   38.3940   36.6500   40.0020 H   0  0  0  0  0  0  0  0  0  0  0  0
   37.1660   34.5400   39.9210 H   0  0  0  0  0  0  0  0  0  0  0  0
   44.5400   34.0400   39.7490 C   0  0  0  0  0  0  0  0  0  0  0  0
   45.1250   34.3560   41.0040 C   0  0  0  0  0  0  0  0  0  0  0  0
   44.2740   34.7180   42.0480 C   0  0  0  0  0  0  0  0  0  0  0  0
   42.9320   34.7480   41.8070 N   0  0  0  0  0  0  0  0  0  0  0  0
   42.4050   34.4410   40.5970 C   0  0  0  0  0  0  0  0  0  0  0  0
   43.2120   34.0930   39.5930 N   0  0  0  0  0  0  0  0  0  0  0  0
   45.2310   33.7620   38.9570 H   0  0  0  0  0  0  0  0  0  0  0  0
   46.1950   34.3320   41.1960 H   0  0  0  0  0  0  0  0  0  0  0  0
   44.7710   35.0740   43.4170 C   0  0  0  0  0  0  0  0  0  0  0  0
   45.0100   33.9370   44.1490 F   0  0  0  0  0  0  0  0  0  0  0  0
   45.9480   35.7930   43.2840 F   0  0  0  0  0  0  0  0  0  0  0  0
   43.8010   35.8480   43.9960 F   0  0  0  0  0  0  0  0  0  0  0  0
   38.1230   32.1020   40.1320 C   0  0  0  0  0  0  0  0  0  0  0  0
   36.9310   31.9360   39.4200 C   0  0  0  0  0  0  0  0  0  0  0  0
   36.5090   30.6310   39.5990 C   0  0  0  0  0  0  0  0  0  0  0  0
   37.4700   30.0680   40.4160 C   0  0  0  0  0  0  0  0  0  0  0  0
   38.4000   30.9650   40.7050 O   0  0  0  0  0  0  0  0  0  0  0  0
   36.3740   32.6520   38.8120 H   0  0  0  0  0  0  0  0  0  0  0  0
   35.6290   30.1210   39.2070 H   0  0  0  0  0  0  0  0  0  0  0  0
   38.8660   28.1170   38.5800 Cl  0  0  0  0  0  0  0  0  0  0  0  0
   38.1320   27.7360   40.1290 C   0  0  0  0  0  0  0  0  0  0  0  0
   37.5080   28.6850   40.9180 C   0  0  0  0  0  0  0  0  0  0  0  0
   36.9320   28.3860   42.1370 C   0  0  0  0  0  0  0  0  0  0  0  0
   36.4450   29.1150   42.7550 H   0  0  0  0  0  0  0  0  0  0  0  0
   36.9880   27.0830   42.5740 C   0  0  0  0  0  3  0  0  0  0  0  0
   37.6090   26.1410   41.7860 C   0  0  0  0  0  0  0  0  0  0  0  0
   37.6680   24.5000   42.3590 Cl  0  0  0  0  0  0  0  0  0  0  0  0
   38.2010   26.4090   40.5530 C   0  0  0  0  0  0  0  0  0  0  0  0
   38.6670   25.6150   39.9990 H   0  0  0  0  0  0  0  0  0  0  0  0
  2  3  1  0  0  0  0
  2  1  1  0  0  0  0
  3 15  1  0  0  0  0
  4  8  1  0  0  0  0
  4  3  2  0  0  0  0
  5  4  1  0  0  0  0
  6  5  2  0  0  0  0
  6  7  1  0  0  0  0
  7  2  2  0  0  0  0
  9  5  1  0  0  0  0
 10  6  1  0  0  0  0
 11 12  1  0  0  0  0
 12 18  1  0  0  0  0
 12 13  2  0  0  0  0
 13 19  1  0  0  0  0
 14 13  1  0  0  0  0
 15 14  2  0  0  0  0
 16 11  2  0  0  0  0
 16 15  1  0  0  0  0
 17 11  1  0  0  0  0
 19 22  1  0  0  0  0
 19 20  1  0  0  0  0
 21 19  1  0  0  0  0
 23  7  1  0  0  0  0
 23 27  1  0  0  0  0
 24 25  1  0  0  0  0
 24 23  2  0  0  0  0
 25 26  2  0  0  0  0
 26 27  1  0  0  0  0
 26 32  1  0  0  0  0
 28 24  1  0  0  0  0
 29 25  1  0  0  0  0
 30 31  1  0  0  0  0
 31 38  2  0  0  0  0
 31 32  1  0  0  0  0
 32 33  2  0  0  0  0
 33 35  1  0  0  0  0
 33 34  1  0  0  0  0
 36 37  1  0  0  0  0
 36 35  2  0  0  0  0
 38 36  1  0  0  0  0
 39 38  1  0  0  0  0
M  END
>  <minimizedAffinity>
-7.36995983

$$$$

 OpenBabel03252500163D

 39 42  0  0  0  0  0  0  0  0999 V2000
   40.5340   31.1050   40.6390 Cl  0  0  0  0  0  0  0  0  0  0  0  0
   39.7260   32.6040   40.3740 C   0  0  0  0  0  0  0  0  0  0  0  0
   40.4340   33.7690   40.2070 C   0  0  0  0  0  0  0  0  0  0  0  0
   39.8150   34.9960   39.9920 C   0  0  0  0  0  0  0  0  0  0  0  0
   38.4310   34.9790   39.9540 C   0  0  0  0  0  0  0  0  0  0  0  0
   37.7200   33.8090   40.1200 C   0  0  0  0  0  0  0  0  0  0  0  0
   38.3540   32.6300   40.3290 C   0  0  0  0  0  0  0  0  0  0  0  0
   40.3420   35.9170   39.8590 H   0  0  0  0  0  0  0  0  0  0  0  0
   37.8470   35.8810   39.7910 H   0  0  0  0  0  0  0  0  0  0  0  0
   36.6240   33.7870   40.0910 H   0  0  0  0  0  0  0  0  0  0  0  0
   43.9380   33.0250   39.3570 C   0  0  0  0  0  0  0  0  0  0  0  0
   44.6520   33.6760   40.3980 C   0  0  0  0  0  0  0  0  0  0  0  0
   43.9150   34.3550   41.3680 C   0  0  0  0  0  0  0  0  0  0  0  0
   42.5560   34.3560   41.2640 N   0  0  0  0  0  0  0  0  0  0  0  0
   41.9040   33.7260   40.2580 C   0  0  0  0  0  0  0  0  0  0  0  0
   42.6020   33.0730   39.3250 N   0  0  0  0  0  0  0  0  0  0  0  0
   44.5420   32.5060   38.6160 H   0  0  0  0  0  0  0  0  0  0  0  0
   45.7360   33.6750   40.4800 H   0  0  0  0  0  0  0  0  0  0  0  0
   44.5540   35.0800   42.5150 C   0  0  0  0  0  0  0  0  0  0  0  0
   43.6250   35.8490   43.1710 F   0  0  0  0  0  0  0  0  0  0  0  0
   45.0780   34.1420   43.3910 F   0  0  0  0  0  0  0  0  0  0  0  0
   45.5550   35.8490   41.9830 F   0  0  0  0  0  0  0  0  0  0  0  0
   37.6050   31.3850   40.5060 C   0  0  0  0  0  0  0  0  0  0  0  0
   36.2130   31.3210   40.6070 C   0  0  0  0  0  0  0  0  0  0  0  0
   35.8600   29.9930   40.7660 C   0  0  0  0  0  0  0  0  0  0  0  0
   37.0630   29.3150   40.7550 C   0  0  0  0  0  0  0  0  0  0  0  0
   38.0630   30.1680   40.5990 O   0  0  0  0  0  0  0  0  0  0  0  0
   35.4710   32.1220   40.5760 H   0  0  0  0  0  0  0  0  0  0  0  0
   34.8740   29.5410   40.8790 H   0  0  0  0  0  0  0  0  0  0  0  0
   37.4540   28.3720   43.5980 Cl  0  0  0  0  0  0  0  0  0  0  0  0
   37.4500   27.3590   42.1630 C   0  0  0  0  0  0  0  0  0  0  0  0
   37.2640   27.8630   40.8890 C   0  0  0  0  0  0  0  0  0  0  0  0
   37.2610   27.0660   39.7600 C   0  0  0  0  0  0  0  0  0  0  0  0
   37.1180   27.4490   38.7690 H   0  0  0  0  0  0  0  0  0  0  0  0
   37.4510   25.7140   39.9250 C   0  0  0  0  0  3  0  0  0  0  0  0
   37.6360   25.2160   41.1950 C   0  0  0  0  0  0  0  0  0  0  0  0
   37.8750   23.5030   41.3790 Cl  0  0  0  0  0  0  0  0  0  0  0  0
   37.6450   25.9910   42.3530 C   0  0  0  0  0  0  0  0  0  0  0  0
   37.7960   25.5230   43.3090 H   0  0  0  0  0  0  0  0  0  0  0  0
  2  1  1  0  0  0  0
  3 15  1  0  0  0  0
  3  2  2  0  0  0  0
  4  3  1  0  0  0  0
  5  4  2  0  0  0  0
  5  6  1  0  0  0  0
  6  7  2  0  0  0  0
  7  2  1  0  0  0  0
  7 23  1  0  0  0  0
  8  4  1  0  0  0  0
  9  5  1  0  0  0  0
 10  6  1  0  0  0  0
 11 12  1  0  0  0  0
 12 18  1  0  0  0  0
 12 13  2  0  0  0  0
 13 19  1  0  0  0  0
 14 13  1  0  0  0  0
 15 14  2  0  0  0  0
 16 11  2  0  0  0  0
 16 15  1  0  0  0  0
 17 11  1  0  0  0  0
 19 20  1  0  0  0  0
 19 21  1  0  0  0  0
 22 19  1  0  0  0  0
 23 27  1  0  0  0  0
 23 24  2  0  0  0  0
 24 25  1  0  0  0  0
 25 29  1  0  0  0  0
 26 25  2  0  0  0  0
 26 32  1  0  0  0  0
 27 26  1  0  0  0  0
 28 24  1  0  0  0  0
 31 38  1  0  0  0  0
 31 30  1  0  0  0  0
 32 31  2  0  0  0  0
 33 35  2  0  0  0  0
 33 32  1  0  0  0  0
 34 33  1  0  0  0  0
 35 36  1  0  0  0  0
 36 37  1  0  0  0  0
 36 38  2  0  0  0  0
 38 39  1  0  0  0  0
M  END
>  <minimizedAffinity>
-7.08336449

$$$$

 OpenBabel03252500163D

 39 42  0  0  0  0  0  0  0  0999 V2000
   40.8740   31.5070   40.9150 Cl  0  0  0  0  0  0  0  0  0  0  0  0
   40.0590   32.9770   40.5340 C   0  0  0  0  0  0  0  0  0  0  0  0
   40.7570   34.1480   40.3600 C   0  0  0  0  0  0  0  0  0  0  0  0
   40.1320   35.3520   40.0520 C   0  0  0  0  0  0  0  0  0  0  0  0
   38.7530   35.3060   39.9290 C   0  0  0  0  0  0  0  0  0  0  0  0
   38.0530   34.1310   40.1040 C   0  0  0  0  0  0  0  0  0  0  0  0
   38.6920   32.9750   40.4030 C   0  0  0  0  0  0  0  0  0  0  0  0
   40.6500   36.2770   39.9110 H   0  0  0  0  0  0  0  0  0  0  0  0
   38.1650   36.1880   39.6910 H   0  0  0  0  0  0  0  0  0  0  0  0
   36.9620   34.0870   40.0080 H   0  0  0  0  0  0  0  0  0  0  0  0
   44.1250   34.3530   41.8310 C   0  0  0  0  0  0  0  0  0  0  0  0
   44.9650   34.1010   40.7140 C   0  0  0  0  0  0  0  0  0  0  0  0
   44.3560   33.8660   39.4810 C   0  0  0  0  0  0  0  0  0  0  0  0
   42.9950   33.8930   39.4170 N   0  0  0  0  0  0  0  0  0  0  0  0
   42.2210   34.1360   40.5020 C   0  0  0  0  0  0  0  0  0  0  0  0
   42.7950   34.3620   41.6860 N   0  0  0  0  0  0  0  0  0  0  0  0
   44.6310   34.5310   42.7780 H   0  0  0  0  0  0  0  0  0  0  0  0
   46.0510   34.0800   40.7660 H   0  0  0  0  0  0  0  0  0  0  0  0
   45.1340   33.5880   38.2300 C   0  0  0  0  0  0  0  0  0  0  0  0
   45.9490   34.6510   37.9280 F   0  0  0  0  0  0  0  0  0  0  0  0
   45.9080   32.4560   38.4350 F   0  0  0  0  0  0  0  0  0  0  0  0
   44.2150   33.3650   37.2390 F   0  0  0  0  0  0  0  0  0  0  0  0
   37.9550   31.7240   40.5890 C   0  0  0  0  0  0  0  0  0  0  0  0
   36.5610   31.6440   40.6560 C   0  0  0  0  0  0  0  0  0  0  0  0
   36.2210   30.3160   40.8360 C   0  0  0  0  0  0  0  0  0  0  0  0
   37.4330   29.6530   40.8710 C   0  0  0  0  0  0  0  0  0  0  0  0
   38.4260   30.5160   40.7210 O   0  0  0  0  0  0  0  0  0  0  0  0
   35.8110   32.4350   40.5880 H   0  0  0  0  0  0  0  0  0  0  0  0
   35.2390   29.8530   40.9340 H   0  0  0  0  0  0  0  0  0  0  0  0
   37.5460   28.7470   43.7500 Cl  0  0  0  0  0  0  0  0  0  0  0  0
   37.7120   27.7200   42.3350 C   0  0  0  0  0  0  0  0  0  0  0  0
   37.6490   28.2070   41.0420 C   0  0  0  0  0  0  0  0  0  0  0  0
   37.7790   27.4000   39.9290 C   0  0  0  0  0  0  0  0  0  0  0  0
   37.7330   27.7690   38.9240 H   0  0  0  0  0  0  0  0  0  0  0  0
   37.9790   26.0540   40.1290 C   0  0  0  0  0  3  0  0  0  0  0  0
   38.0420   25.5720   41.4170 C   0  0  0  0  0  0  0  0  0  0  0  0
   38.2950   23.8670   41.6460 Cl  0  0  0  0  0  0  0  0  0  0  0  0
   37.9130   26.3590   42.5610 C   0  0  0  0  0  0  0  0  0  0  0  0
   37.9740   25.9040   43.5330 H   0  0  0  0  0  0  0  0  0  0  0  0
  2  1  1  0  0  0  0
  3 15  1  0  0  0  0
  3  2  2  0  0  0  0
  4  3  1  0  0  0  0
  5  4  2  0  0  0  0
  5  6  1  0  0  0  0
  6  7  2  0  0  0  0
  7  2  1  0  0  0  0
  7 23  1  0  0  0  0
  8  4  1  0  0  0  0
  9  5  1  0  0  0  0
 10  6  1  0  0  0  0
 11 17  1  0  0  0  0
 12 18  1  0  0  0  0
 12 11  2  0  0  0  0
 13 12  1  0  0  0  0
 14 13  2  0  0  0  0
 14 15  1  0  0  0  0
 15 16  2  0  0  0  0
 16 11  1  0  0  0  0
 19 21  1  0  0  0  0
 19 13  1  0  0  0  0
 20 19  1  0  0  0  0
 22 19  1  0  0  0  0
 23 24  2  0  0  0  0
 23 27  1  0  0  0  0
 24 25  1  0  0  0  0
 25 26  2  0  0  0  0
 25 29  1  0  0  0  0
 26 32  1  0  0  0  0
 27 26  1  0  0  0  0
 28 24  1  0  0  0  0
 31 38  1  0  0  0  0
 31 30  1  0  0  0  0
 32 31  2  0  0  0  0
 33 35  2  0  0  0  0
 33 32  1  0  0  0  0
 34 33  1  0  0  0  0
 35 36  1  0  0  0  0
 36 37  1  0  0  0  0
 36 38  2  0  0  0  0
 38 39  1  0  0  0  0
M  END
>  <minimizedAffinity>
-6.89790726

$$$$

 OpenBabel03252500163D

 39 42  0  0  0  0  0  0  0  0999 V2000
   41.3620   30.5190   41.4310 Cl  0  0  0  0  0  0  0  0  0  0  0  0
   40.0390   31.5040   40.9320 C   0  0  0  0  0  0  0  0  0  0  0  0
   40.2510   32.7480   40.3870 C   0  0  0  0  0  0  0  0  0  0  0  0
   39.2070   33.5700   39.9730 C   0  0  0  0  0  0  0  0  0  0  0  0
   37.9300   33.0620   40.1430 C   0  0  0  0  0  0  0  0  0  0  0  0
   37.7180   31.8140   40.6900 C   0  0  0  0  0  0  0  0  0  0  0  0
   38.7570   31.0370   41.0830 C   0  0  0  0  0  0  0  0  0  0  0  0
   39.3430   34.5410   39.5460 H   0  0  0  0  0  0  0  0  0  0  0  0
   37.0430   33.6190   39.8540 H   0  0  0  0  0  0  0  0  0  0  0  0
   36.7110   31.4040   40.8270 H   0  0  0  0  0  0  0  0  0  0  0  0
   43.5510   33.4860   38.9320 C   0  0  0  0  0  0  0  0  0  0  0  0
   44.2080   34.1680   39.9910 C   0  0  0  0  0  0  0  0  0  0  0  0
   43.5040   34.3580   41.1800 C   0  0  0  0  0  0  0  0  0  0  0  0
   42.2300   33.8810   41.2600 N   0  0  0  0  0  0  0  0  0  0  0  0
   41.6300   33.2350   40.2310 C   0  0  0  0  0  0  0  0  0  0  0  0
   42.2970   33.0480   39.0890 N   0  0  0  0  0  0  0  0  0  0  0  0
   44.1270   33.3550   38.0190 H   0  0  0  0  0  0  0  0  0  0  0  0
   45.2250   34.5470   39.9270 H   0  0  0  0  0  0  0  0  0  0  0  0
   44.0890   35.0620   42.3680 C   0  0  0  0  0  0  0  0  0  0  0  0
   44.5410   34.1500   43.2890 F   0  0  0  0  0  0  0  0  0  0  0  0
   45.1470   35.8470   41.9370 F   0  0  0  0  0  0  0  0  0  0  0  0
   43.0930   35.8460   42.8870 F   0  0  0  0  0  0  0  0  0  0  0  0
   38.5390   29.7120   41.6640 C   0  0  0  0  0  0  0  0  0  0  0  0
   38.3420   29.4820   43.0280 C   0  0  0  0  0  0  0  0  0  0  0  0
   38.1710   28.1210   43.2080 C   0  0  0  0  0  0  0  0  0  0  0  0
   38.2740   27.5910   41.9370 C   0  0  0  0  0  0  0  0  0  0  0  0
   38.4890   28.5590   41.0590 O   0  0  0  0  0  0  0  0  0  0  0  0
   38.3140   30.1890   43.8600 H   0  0  0  0  0  0  0  0  0  0  0  0
   37.9940   27.5540   44.1220 H   0  0  0  0  0  0  0  0  0  0  0  0
   40.8720   26.3520   41.0210 Cl  0  0  0  0  0  0  0  0  0  0  0  0
   39.3190   25.5390   41.1250 C   0  0  0  0  0  0  0  0  0  0  0  0
   38.1670   26.1740   41.5550 C   0  0  0  0  0  0  0  0  0  0  0  0
   36.9450   25.5350   41.6370 C   0  0  0  0  0  0  0  0  0  0  0  0
   36.0480   26.0190   41.9680 H   0  0  0  0  0  0  0  0  0  0  0  0
   36.8840   24.2100   41.2720 C   0  0  0  0  0  3  0  0  0  0  0  0
   38.0320   23.5820   40.8440 C   0  0  0  0  0  0  0  0  0  0  0  0
   37.9310   21.9070   40.3890 Cl  0  0  0  0  0  0  0  0  0  0  0  0
   39.2800   24.1970   40.7510 C   0  0  0  0  0  0  0  0  0  0  0  0
   40.1290   23.6340   40.4060 H   0  0  0  0  0  0  0  0  0  0  0  0
  2  7  1  0  0  0  0
  2  1  1  0  0  0  0
  3  2  2  0  0  0  0
  4  5  2  0  0  0  0
  4  3  1  0  0  0  0
  5  6  1  0  0  0  0
  6 10  1  0  0  0  0
  6  7  2  0  0  0  0
  7 23  1  0  0  0  0
  8  4  1  0  0  0  0
  9  5  1  0  0  0  0
 11 16  2  0  0  0  0
 11 12  1  0  0  0  0
 12 13  2  0  0  0  0
 13 14  1  0  0  0  0
 13 19  1  0  0  0  0
 15  3  1  0  0  0  0
 15 14  2  0  0  0  0
 16 15  1  0  0  0  0
 17 11  1  0  0  0  0
 18 12  1  0  0  0  0
 19 22  1  0  0  0  0
 19 20  1  0  0  0  0
 21 19  1  0  0  0  0
 23 24  2  0  0  0  0
 24 25  1  0  0  0  0
 24 28  1  0  0  0  0
 25 29  1  0  0  0  0
 26 25  2  0  0  0  0
 27 23  1  0  0  0  0
 27 26  1  0  0  0  0
 30 31  1  0  0  0  0
 31 32  1  0  0  0  0
 32 33  2  0  0  0  0
 32 26  1  0  0  0  0
 33 34  1  0  0  0  0
 35 33  1  0  0  0  0
 36 35  2  0  0  0  0
 37 36  1  0  0  0  0
 38 36  1  0  0  0  0
 38 31  2  0  0  0  0
 39 38  1  0  0  0  0
M  END
>  <minimizedAffinity>
-6.74307442

$$$$

 OpenBabel03252500163D

 39 42  0  0  0  0  0  0  0  0999 V2000
   37.7640   27.5240   39.6000 Cl  0  0  0  0  0  0  0  0  0  0  0  0
   37.3990   27.5630   41.2840 C   0  0  0  0  0  0  0  0  0  0  0  0
   37.1940   26.4020   41.9900 C   0  0  0  0  0  0  0  0  0  0  0  0
   36.8980   26.3950   43.3490 C   0  0  0  0  0  0  0  0  0  0  0  0
   36.8190   27.6370   43.9590 C   0  0  0  0  0  0  0  0  0  0  0  0
   37.0250   28.8020   43.2510 C   0  0  0  0  0  0  0  0  0  0  0  0
   37.3120   28.7730   41.9260 C   0  0  0  0  0  0  0  0  0  0  0  0
   36.7340   25.5070   43.9210 H   0  0  0  0  0  0  0  0  0  0  0  0
   36.5940   27.7470   45.0160 H   0  0  0  0  0  0  0  0  0  0  0  0
   36.9660   29.7880   43.7260 H   0  0  0  0  0  0  0  0  0  0  0  0
   38.5330   23.2450   40.6520 C   0  0  0  0  0  0  0  0  0  0  0  0
   37.4160   22.7040   39.9610 C   0  0  0  0  0  0  0  0  0  0  0  0
   36.2280   23.4360   39.9690 C   0  0  0  0  0  0  0  0  0  0  0  0
   36.2070   24.6240   40.6370 N   0  0  0  0  0  0  0  0  0  0  0  0
   37.2900   25.1120   41.2880 C   0  0  0  0  0  0  0  0  0  0  0  0
   38.4310   24.4190   41.2840 N   0  0  0  0  0  0  0  0  0  0  0  0
   39.4440   22.6490   40.6260 H   0  0  0  0  0  0  0  0  0  0  0  0
   37.4350   21.7570   39.4280 H   0  0  0  0  0  0  0  0  0  0  0  0
   34.9820   22.9720   39.2770 C   0  0  0  0  0  0  0  0  0  0  0  0
   34.6890   23.7940   38.2180 F   0  0  0  0  0  0  0  0  0  0  0  0
   35.1900   21.6810   38.8160 F   0  0  0  0  0  0  0  0  0  0  0  0
   33.9840   22.9890   40.2160 F   0  0  0  0  0  0  0  0  0  0  0  0
   37.5320   30.0060   41.1690 C   0  0  0  0  0  0  0  0  0  0  0  0
   36.5070   30.8660   40.7650 C   0  0  0  0  0  0  0  0  0  0  0  0
   37.0830   31.9180   40.0770 C   0  0  0  0  0  0  0  0  0  0  0  0
   38.4360   31.6420   40.0980 C   0  0  0  0  0  0  0  0  0  0  0  0
   38.6580   30.5110   40.7500 O   0  0  0  0  0  0  0  0  0  0  0  0
   35.4290   30.7920   40.9230 H   0  0  0  0  0  0  0  0  0  0  0  0
   36.6170   32.7860   39.6100 H   0  0  0  0  0  0  0  0  0  0  0  0
   39.7260   30.3950   37.6680 Cl  0  0  0  0  0  0  0  0  0  0  0  0
   40.1530   31.9390   38.3870 C   0  0  0  0  0  0  0  0  0  0  0  0
   39.5150   32.4480   39.5050 C   0  0  0  0  0  0  0  0  0  0  0  0
   39.8510   33.6630   40.0710 C   0  0  0  0  0  0  0  0  0  0  0  0
   39.3630   34.0640   40.9370 H   0  0  0  0  0  0  0  0  0  0  0  0
   40.8640   34.3870   39.4880 C   0  0  0  0  0  3  0  0  0  0  0  0
   41.4960   33.8770   38.3770 C   0  0  0  0  0  0  0  0  0  0  0  0
   42.7740   34.8120   37.6570 Cl  0  0  0  0  0  0  0  0  0  0  0  0
   41.1820   32.6580   37.7810 C   0  0  0  0  0  0  0  0  0  0  0  0
   41.7250   32.3310   36.9120 H   0  0  0  0  0  0  0  0  0  0  0  0
  1  2  1  0  0  0  0
  2  7  2  0  0  0  0
  2  3  1  0  0  0  0
  3  4  2  0  0  0  0
  4  8  1  0  0  0  0
  4  5  1  0  0  0  0
  5  9  1  0  0  0  0
  6 10  1  0  0  0  0
  6  5  2  0  0  0  0
  7  6  1  0  0  0  0
 11 16  1  0  0  0  0
 12 13  1  0  0  0  0
 12 11  2  0  0  0  0
 13 14  2  0  0  0  0
 14 15  1  0  0  0  0
 15  3  1  0  0  0  0
 16 15  2  0  0  0  0
 17 11  1  0  0  0  0
 18 12  1  0  0  0  0
 19 13  1  0  0  0  0
 19 22  1  0  0  0  0
 20 19  1  0  0  0  0
 21 19  1  0  0  0  0
 23  7  1  0  0  0  0
 24 28  1  0  0  0  0
 24 23  2  0  0  0  0
 25 26  2  0  0  0  0
 25 24  1  0  0  0  0
 26 27  1  0  0  0  0
 27 23  1  0  0  0  0
 29 25  1  0  0  0  0
 30 31  1  0  0  0  0
 31 32  1  0  0  0  0
 32 33  2  0  0  0  0
 32 26  1  0  0  0  0
 33 34  1  0  0  0  0
 35 33  1  0  0  0  0
 36 35  2  0  0  0  0
 37 36  1  0  0  0  0
 38 36  1  0  0  0  0
 38 31  2  0  0  0  0
 39 38  1  0  0  0  0
M  END
>  <minimizedAffinity>
-6.57470417

$$$$

 OpenBabel03252500163D

 39 42  0  0  0  0  0  0  0  0999 V2000
   38.1500   30.3810   40.7350 Cl  0  0  0  0  0  0  0  0  0  0  0  0
   39.6160   30.1550   41.6130 C   0  0  0  0  0  0  0  0  0  0  0  0
   40.5540   31.1560   41.6920 C   0  0  0  0  0  0  0  0  0  0  0  0
   41.7470   31.0090   42.3910 C   0  0  0  0  0  0  0  0  0  0  0  0
   41.9410   29.7850   43.0110 C   0  0  0  0  0  0  0  0  0  0  0  0
   40.9990   28.7810   42.9320 C   0  0  0  0  0  0  0  0  0  0  0  0
   39.8460   28.9570   42.2420 C   0  0  0  0  0  0  0  0  0  0  0  0
   42.4940   31.7700   42.4690 H   0  0  0  0  0  0  0  0  0  0  0  0
   42.8370   29.5630   43.5840 H   0  0  0  0  0  0  0  0  0  0  0  0
   41.1430   27.8100   43.4200 H   0  0  0  0  0  0  0  0  0  0  0  0
   38.9470   34.3100   40.6800 C   0  0  0  0  0  0  0  0  0  0  0  0
   39.8550   34.8220   39.7150 C   0  0  0  0  0  0  0  0  0  0  0  0
   40.9990   34.0740   39.4340 C   0  0  0  0  0  0  0  0  0  0  0  0
   41.1790   32.8970   40.0980 N   0  0  0  0  0  0  0  0  0  0  0  0
   40.2940   32.4350   41.0130 C   0  0  0  0  0  0  0  0  0  0  0  0
   39.1970   33.1450   41.2880 N   0  0  0  0  0  0  0  0  0  0  0  0
   38.0660   34.9170   40.8760 H   0  0  0  0  0  0  0  0  0  0  0  0
   39.7100   35.7610   39.1870 H   0  0  0  0  0  0  0  0  0  0  0  0
   42.0310   34.5090   38.4380 C   0  0  0  0  0  0  0  0  0  0  0  0
   41.9250   33.7690   37.2860 F   0  0  0  0  0  0  0  0  0  0  0  0
   41.8240   35.8490   38.1470 F   0  0  0  0  0  0  0  0  0  0  0  0
   43.2510   34.3330   39.0360 F   0  0  0  0  0  0  0  0  0  0  0  0
   38.8420   27.8950   42.1550 C   0  0  0  0  0  0  0  0  0  0  0  0
   37.7920   27.7400   43.0640 C   0  0  0  0  0  0  0  0  0  0  0  0
   37.0500   26.6410   42.6710 C   0  0  0  0  0  0  0  0  0  0  0  0
   37.6920   26.1820   41.5370 C   0  0  0  0  0  0  0  0  0  0  0  0
   38.7380   26.9460   41.2680 O   0  0  0  0  0  0  0  0  0  0  0  0
   37.5350   28.3320   43.9450 H   0  0  0  0  0  0  0  0  0  0  0  0
   36.1590   26.2020   43.1200 H   0  0  0  0  0  0  0  0  0  0  0  0
   36.1050   26.8850   39.0650 Cl  0  0  0  0  0  0  0  0  0  0  0  0
   36.5840   25.2700   39.5610 C   0  0  0  0  0  0  0  0  0  0  0  0
   37.3130   25.0240   40.7110 C   0  0  0  0  0  0  0  0  0  0  0  0
   37.6910   23.7540   41.1020 C   0  0  0  0  0  0  0  0  0  0  0  0
   38.2540   23.5530   41.9910 H   0  0  0  0  0  0  0  0  0  0  0  0
   37.3190   22.6970   40.3040 C   0  0  0  0  0  3  0  0  0  0  0  0
   36.5940   22.9460   39.1610 C   0  0  0  0  0  0  0  0  0  0  0  0
   36.1360   21.5940   38.1670 Cl  0  0  0  0  0  0  0  0  0  0  0  0
   36.1980   24.2130   38.7380 C   0  0  0  0  0  0  0  0  0  0  0  0
   35.6320   24.3220   37.8300 H   0  0  0  0  0  0  0  0  0  0  0  0
  1  2  1  0  0  0  0
  2  3  2  0  0  0  0
  2  7  1  0  0  0  0
  3  4  1  0  0  0  0
  4  8  1  0  0  0  0
  4  5  2  0  0  0  0
  5  9  1  0  0  0  0
  6  5  1  0  0  0  0
  6 10  1  0  0  0  0
  7  6  2  0  0  0  0
 11 17  1  0  0  0  0
 11 16  1  0  0  0  0
 12 11  2  0  0  0  0
 13 12  1  0  0  0  0
 13 14  2  0  0  0  0
 14 15  1  0  0  0  0
 15 16  2  0  0  0  0
 15  3  1  0  0  0  0
 18 12  1  0  0  0  0
 19 22  1  0  0  0  0
 19 13  1  0  0  0  0
 20 19  1  0  0  0  0
 21 19  1  0  0  0  0
 23  7  1  0  0  0  0
 23 24  2  0  0  0  0
 24 28  1  0  0  0  0
 25 24  1  0  0  0  0
 25 29  1  0  0  0  0
 26 25  2  0  0  0  0
 27 26  1  0  0  0  0
 27 23  1  0  0  0  0
 30 31  1  0  0  0  0
 31 32  1  0  0  0  0
 32 33  2  0  0  0  0
 32 26  1  0  0  0  0
 33 34  1  0  0  0  0
 35 33  1  0  0  0  0
 36 35  2  0  0  0  0
 37 36  1  0  0  0  0
 38 36  1  0  0  0  0
 38 31  2  0  0  0  0
 39 38  1  0  0  0  0
M  END
>  <minimizedAffinity>
-6.46697998

$$$$

 OpenBabel03252500163D

 39 42  0  0  0  0  0  0  0  0999 V2000
   38.7440   29.4300   41.1920 Cl  0  0  0  0  0  0  0  0  0  0  0  0
   37.5510   29.4650   39.9490 C   0  0  0  0  0  0  0  0  0  0  0  0
   36.6910   28.4090   39.7650 C   0  0  0  0  0  0  0  0  0  0  0  0
   35.7160   28.4030   38.7720 C   0  0  0  0  0  0  0  0  0  0  0  0
   35.6590   29.5320   37.9700 C   0  0  0  0  0  0  0  0  0  0  0  0
   36.5220   30.5910   38.1560 C   0  0  0  0  0  0  0  0  0  0  0  0
   37.4610   30.5650   39.1330 C   0  0  0  0  0  0  0  0  0  0  0  0
   35.0350   27.5960   38.6070 H   0  0  0  0  0  0  0  0  0  0  0  0
   34.9360   29.6320   37.1660 H   0  0  0  0  0  0  0  0  0  0  0  0
   36.4820   31.4880   37.5270 H   0  0  0  0  0  0  0  0  0  0  0  0
   36.8940   26.3210   42.7890 C   0  0  0  0  0  0  0  0  0  0  0  0
   37.0020   25.0100   42.2520 C   0  0  0  0  0  0  0  0  0  0  0  0
   37.0020   24.8730   40.8630 C   0  0  0  0  0  0  0  0  0  0  0  0
   36.9000   26.0000   40.1030 N   0  0  0  0  0  0  0  0  0  0  0  0
   36.7980   27.2370   40.6470 C   0  0  0  0  0  0  0  0  0  0  0  0
   36.7980   27.3770   41.9740 N   0  0  0  0  0  0  0  0  0  0  0  0
   36.8960   26.3930   43.8750 H   0  0  0  0  0  0  0  0  0  0  0  0
   37.0830   24.1120   42.8590 H   0  0  0  0  0  0  0  0  0  0  0  0
   37.1100   23.5450   40.1780 C   0  0  0  0  0  0  0  0  0  0  0  0
   37.8190   22.6620   40.9540 F   0  0  0  0  0  0  0  0  0  0  0  0
   35.8310   23.0520   39.9690 F   0  0  0  0  0  0  0  0  0  0  0  0
   37.7350   23.7730   38.9800 F   0  0  0  0  0  0  0  0  0  0  0  0
   38.3790   31.6870   39.3350 C   0  0  0  0  0  0  0  0  0  0  0  0
   38.0060   32.9060   39.9060 C   0  0  0  0  0  0  0  0  0  0  0  0
   39.1230   33.7200   39.9370 C   0  0  0  0  0  0  0  0  0  0  0  0
   40.1240   32.9490   39.3780 C   0  0  0  0  0  0  0  0  0  0  0  0
   39.6460   31.7620   39.0390 O   0  0  0  0  0  0  0  0  0  0  0  0
   37.0340   33.2340   40.2840 H   0  0  0  0  0  0  0  0  0  0  0  0
   39.2360   34.7400   40.3060 H   0  0  0  0  0  0  0  0  0  0  0  0
   41.9640   32.2310   41.6640 Cl  0  0  0  0  0  0  0  0  0  0  0  0
   42.4300   33.0370   40.1750 C   0  0  0  0  0  0  0  0  0  0  0  0
   41.5290   33.3350   39.1680 C   0  0  0  0  0  0  0  0  0  0  0  0
   41.8950   33.9690   37.9970 C   0  0  0  0  0  0  0  0  0  0  0  0
   41.2040   34.2050   37.2130 H   0  0  0  0  0  0  0  0  0  0  0  0
   43.2170   34.3140   37.8370 C   0  0  0  0  0  3  0  0  0  0  0  0
   44.1110   34.0160   38.8410 C   0  0  0  0  0  0  0  0  0  0  0  0
   45.7770   34.4620   38.6150 Cl  0  0  0  0  0  0  0  0  0  0  0  0
   43.7750   33.3780   40.0330 C   0  0  0  0  0  0  0  0  0  0  0  0
   44.5350   33.1810   40.7670 H   0  0  0  0  0  0  0  0  0  0  0  0
  2  1  1  0  0  0  0
  3  2  1  0  0  0  0
  3 15  1  0  0  0  0
  4  3  2  0  0  0  0
  5  6  2  0  0  0  0
  5  4  1  0  0  0  0
  6  7  1  0  0  0  0
  7 23  1  0  0  0  0
  7  2  2  0  0  0  0
  8  4  1  0  0  0  0
  9  5  1  0  0  0  0
 10  6  1  0  0  0  0
 11 17  1  0  0  0  0
 12 11  1  0  0  0  0
 12 18  1  0  0  0  0
 13 12  2  0  0  0  0
 14 15  2  0  0  0  0
 14 13  1  0  0  0  0
 15 16  1  0  0  0  0
 16 11  2  0  0  0  0
 19 13  1  0  0  0  0
 19 20  1  0  0  0  0
 21 19  1  0  0  0  0
 22 19  1  0  0  0  0
 23 24  2  0  0  0  0
 24 25  1  0  0  0  0
 24 28  1  0  0  0  0
 25 29  1  0  0  0  0
 26 25  2  0  0  0  0
 27 23  1  0  0  0  0
 27 26  1  0  0  0  0
 31 30  1  0  0  0  0
 32 26  1  0  0  0  0
 32 31  2  0  0  0  0
 33 32  1  0  0  0  0
 34 33  1  0  0  0  0
 35 33  2  0  0  0  0
 35 36  1  0  0  0  0
 36 38  2  0  0  0  0
 37 36  1  0  0  0  0
 38 31  1  0  0  0  0
 38 39  1  0  0  0  0
M  END
>  <minimizedAffinity>
-6.44368076

$$$$

 OpenBabel03252500163D

 39 42  0  0  0  0  0  0  0  0999 V2000
   40.1050   29.5660   40.8090 Cl  0  0  0  0  0  0  0  0  0  0  0  0
   41.3330   29.9730   41.9480 C   0  0  0  0  0  0  0  0  0  0  0  0
   41.9780   31.1850   41.8900 C   0  0  0  0  0  0  0  0  0  0  0  0
   42.9730   31.5460   42.7920 C   0  0  0  0  0  0  0  0  0  0  0  0
   43.2820   30.6080   43.7640 C   0  0  0  0  0  0  0  0  0  0  0  0
   42.6340   29.3920   43.8230 C   0  0  0  0  0  0  0  0  0  0  0  0
   41.6690   29.0710   42.9270 C   0  0  0  0  0  0  0  0  0  0  0  0
   43.4910   32.4820   42.7690 H   0  0  0  0  0  0  0  0  0  0  0  0
   44.0430   30.7870   44.5180 H   0  0  0  0  0  0  0  0  0  0  0  0
   42.8720   28.6450   44.5880 H   0  0  0  0  0  0  0  0  0  0  0  0
   42.0030   33.1010   38.7470 C   0  0  0  0  0  0  0  0  0  0  0  0
   40.8720   33.9480   38.8940 C   0  0  0  0  0  0  0  0  0  0  0  0
   40.1270   33.8420   40.0680 C   0  0  0  0  0  0  0  0  0  0  0  0
   40.5240   32.9360   41.0060 N   0  0  0  0  0  0  0  0  0  0  0  0
   41.6080   32.1420   40.8350 C   0  0  0  0  0  0  0  0  0  0  0  0
   42.3270   32.2360   39.7140 N   0  0  0  0  0  0  0  0  0  0  0  0
   42.5610   33.2080   37.8190 H   0  0  0  0  0  0  0  0  0  0  0  0
   40.5560   34.6700   38.1450 H   0  0  0  0  0  0  0  0  0  0  0  0
   38.9140   34.6800   40.3400 C   0  0  0  0  0  0  0  0  0  0  0  0
   38.8360   34.9890   41.6750 F   0  0  0  0  0  0  0  0  0  0  0  0
   39.0120   35.8490   39.6010 F   0  0  0  0  0  0  0  0  0  0  0  0
   37.8320   33.9460   39.9320 F   0  0  0  0  0  0  0  0  0  0  0  0
   40.9770   27.7820   42.9850 C   0  0  0  0  0  0  0  0  0  0  0  0
   41.0810   26.8890   44.0550 C   0  0  0  0  0  0  0  0  0  0  0  0
   40.2980   25.7870   43.7650 C   0  0  0  0  0  0  0  0  0  0  0  0
   39.7560   26.0680   42.5260 C   0  0  0  0  0  0  0  0  0  0  0  0
   40.1790   27.2490   42.1040 O   0  0  0  0  0  0  0  0  0  0  0  0
   41.6520   26.9720   44.9830 H   0  0  0  0  0  0  0  0  0  0  0  0
   40.1190   24.8830   44.3480 H   0  0  0  0  0  0  0  0  0  0  0  0
   36.8330   26.7390   42.8910 Cl  0  0  0  0  0  0  0  0  0  0  0  0
   37.4820   25.4720   41.8640 C   0  0  0  0  0  0  0  0  0  0  0  0
   38.8380   25.2210   41.7460 C   0  0  0  0  0  0  0  0  0  0  0  0
   39.3490   24.2240   40.9380 C   0  0  0  0  0  0  0  0  0  0  0  0
   40.3980   24.0230   40.8420 H   0  0  0  0  0  0  0  0  0  0  0  0
   38.4610   23.4540   40.2250 C   0  0  0  0  0  3  0  0  0  0  0  0
   37.1130   23.7060   40.3440 C   0  0  0  0  0  0  0  0  0  0  0  0
   36.0090   22.7190   39.4320 Cl  0  0  0  0  0  0  0  0  0  0  0  0
   36.5650   24.7030   41.1490 C   0  0  0  0  0  0  0  0  0  0  0  0
   35.4980   24.8350   41.1860 H   0  0  0  0  0  0  0  0  0  0  0  0
  1  2  1  0  0  0  0
  2  7  1  0  0  0  0
  3  2  2  0  0  0  0
  3  4  1  0  0  0  0
  4  5  2  0  0  0  0
  5  6  1  0  0  0  0
  5  9  1  0  0  0  0
  6 10  1  0  0  0  0
  7 23  1  0  0  0  0
  7  6  2  0  0  0  0
  8  4  1  0  0  0  0
 11 12  2  0  0  0  0
 11 16  1  0  0  0  0
 12 13  1  0  0  0  0
 13 19  1  0  0  0  0
 13 14  2  0  0  0  0
 15 14  1  0  0  0  0
 15  3  1  0  0  0  0
 16 15  2  0  0  0  0
 17 11  1  0  0  0  0
 18 12  1  0  0  0  0
 19 20  1  0  0  0  0
 21 19  1  0  0  0  0
 22 19  1  0  0  0  0
 23 24  2  0  0  0  0
 24 28  1  0  0  0  0
 25 24  1  0  0  0  0
 25 29  1  0  0  0  0
 26 25  2  0  0  0  0
 27 26  1  0  0  0  0
 27 23  1  0  0  0  0
 31 30  1  0  0  0  0
 32 31  1  0  0  0  0
 32 26  1  0  0  0  0
 33 32  2  0  0  0  0
 34 33  1  0  0  0  0
 35 36  2  0  0  0  0
 35 33  1  0  0  0  0
 36 38  1  0  0  0  0
 37 36  1  0  0  0  0
 38 39  1  0  0  0  0
 38 31  2  0  0  0  0
M  END
>  <minimizedAffinity>
-6.44270372

$$$$

 OpenBabel03252500163D

 39 42  0  0  0  0  0  0  0  0999 V2000
   39.7270   29.8580   41.3190 Cl  0  0  0  0  0  0  0  0  0  0  0  0
   38.5360   30.1700   40.1120 C   0  0  0  0  0  0  0  0  0  0  0  0
   37.4050   29.3940   40.0180 C   0  0  0  0  0  0  0  0  0  0  0  0
   36.4240   29.6160   39.0580 C   0  0  0  0  0  0  0  0  0  0  0  0
   36.6510   30.6730   38.1910 C   0  0  0  0  0  0  0  0  0  0  0  0
   37.7850   31.4520   38.2860 C   0  0  0  0  0  0  0  0  0  0  0  0
   38.7220   31.2080   39.2340 C   0  0  0  0  0  0  0  0  0  0  0  0
   35.5360   29.0290   38.9630 H   0  0  0  0  0  0  0  0  0  0  0  0
   35.9500   30.9350   37.4040 H   0  0  0  0  0  0  0  0  0  0  0  0
   37.9720   32.2900   37.6050 H   0  0  0  0  0  0  0  0  0  0  0  0
   36.5320   27.5020   43.0530 C   0  0  0  0  0  0  0  0  0  0  0  0
   36.8890   26.1730   42.7010 C   0  0  0  0  0  0  0  0  0  0  0  0
   37.4210   25.9570   41.4300 C   0  0  0  0  0  0  0  0  0  0  0  0
   37.5690   27.0280   40.6000 N   0  0  0  0  0  0  0  0  0  0  0  0
   37.2180   28.2840   40.9660 C   0  0  0  0  0  0  0  0  0  0  0  0
   36.7090   28.5010   42.1810 N   0  0  0  0  0  0  0  0  0  0  0  0
   36.1200   27.6370   44.0510 H   0  0  0  0  0  0  0  0  0  0  0  0
   36.7710   25.3200   43.3640 H   0  0  0  0  0  0  0  0  0  0  0  0
   37.8360   24.6010   40.9420 C   0  0  0  0  0  0  0  0  0  0  0  0
   38.7810   24.7170   39.9540 F   0  0  0  0  0  0  0  0  0  0  0  0
   38.3670   23.8930   42.0090 F   0  0  0  0  0  0  0  0  0  0  0  0
   36.7010   23.9880   40.4800 F   0  0  0  0  0  0  0  0  0  0  0  0
   39.9280   32.0310   39.3400 C   0  0  0  0  0  0  0  0  0  0  0  0
   40.6980   32.4300   38.2440 C   0  0  0  0  0  0  0  0  0  0  0  0
   41.7510   33.1900   38.7200 C   0  0  0  0  0  0  0  0  0  0  0  0
   41.5670   33.2120   40.0890 C   0  0  0  0  0  0  0  0  0  0  0  0
   40.4850   32.5210   40.4120 O   0  0  0  0  0  0  0  0  0  0  0  0
   40.5610   32.2240   37.1800 H   0  0  0  0  0  0  0  0  0  0  0  0
   42.5620   33.6770   38.1780 H   0  0  0  0  0  0  0  0  0  0  0  0
   43.5130   31.3890   41.5090 Cl  0  0  0  0  0  0  0  0  0  0  0  0
   43.3280   33.1150   41.7770 C   0  0  0  0  0  0  0  0  0  0  0  0
   42.4120   33.8880   41.0870 C   0  0  0  0  0  0  0  0  0  0  0  0
   42.2660   35.2460   41.2970 C   0  0  0  0  0  0  0  0  0  0  0  0
   41.5580   35.8520   40.7680 H   0  0  0  0  0  0  0  0  0  0  0  0
   43.0740   35.8420   42.2380 C   0  0  0  0  0  3  0  0  0  0  0  0
   43.9840   35.0700   42.9230 C   0  0  0  0  0  0  0  0  0  0  0  0
   44.9940   35.8460   44.1070 Cl  0  0  0  0  0  0  0  0  0  0  0  0
   44.1570   33.7000   42.7340 C   0  0  0  0  0  0  0  0  0  0  0  0
   44.8920   33.1680   43.3110 H   0  0  0  0  0  0  0  0  0  0  0  0
  2  1  1  0  0  0  0
  3  2  1  0  0  0  0
  3 15  1  0  0  0  0
  4  3  2  0  0  0  0
  5  6  2  0  0  0  0
  5  4  1  0  0  0  0
  6  7  1  0  0  0  0
  7 23  1  0  0  0  0
  7  2  2  0  0  0  0
  8  4  1  0  0  0  0
  9  5  1  0  0  0  0
 10  6  1  0  0  0  0
 11 17  1  0  0  0  0
 12 11  1  0  0  0  0
 12 18  1  0  0  0  0
 13 12  2  0  0  0  0
 14 15  2  0  0  0  0
 14 13  1  0  0  0  0
 15 16  1  0  0  0  0
 16 11  2  0  0  0  0
 19 13  1  0  0  0  0
 19 21  1  0  0  0  0
 20 19  1  0  0  0  0
 22 19  1  0  0  0  0
 23 27  1  0  0  0  0
 24 25  1  0  0  0  0
 24 23  2  0  0  0  0
 25 26  2  0  0  0  0
 26 27  1  0  0  0  0
 26 32  1  0  0  0  0
 28 24  1  0  0  0  0
 29 25  1  0  0  0  0
 30 31  1  0  0  0  0
 31 38  1  0  0  0  0
 32 33  1  0  0  0  0
 32 31  2  0  0  0  0
 33 35  2  0  0  0  0
 34 33  1  0  0  0  0
 35 36  1  0  0  0  0
 36 37  1  0  0  0  0
 38 36  2  0  0  0  0
 38 39  1  0  0  0  0
M  END
>  <minimizedAffinity>
-6.39416885

$$$$
