
 OpenBabel03242523203D

 38 41  0  0  0  0  0  0  0  0999 V2000
   44.5100   31.8160   42.8890 Cl  0  0  0  0  0  0  0  0  0  0  0  0
   44.5820   33.5770   42.7960 C   0  0  0  0  0  0  0  0  0  0  0  0
   45.4500   34.1940   43.7190 C   0  0  0  0  0  0  0  0  0  0  0  0
   45.4310   35.5700   43.5560 C   0  0  0  0  0  0  0  0  0  0  0  0
   44.7390   36.3250   42.6910 C   0  0  0  0  0  0  0  0  0  0  0  0
   43.9220   35.6480   41.8320 C   0  0  0  0  0  0  0  0  0  0  0  0
   43.8310   34.3020   41.8670 C   0  0  0  0  0  0  0  0  0  0  0  0
   46.0370   36.2130   44.2290 H   0  0  0  0  0  0  0  0  0  0  0  0
   44.7650   37.3990   42.6080 H   0  0  0  0  0  0  0  0  0  0  0  0
   43.2940   36.0900   41.0700 H   0  0  0  0  0  0  0  0  0  0  0  0
   45.3380   33.4150   39.5100 Cl  0  0  0  0  0  0  0  0  0  0  0  0
   43.6580   33.0120   39.8750 C   0  0  0  0  0  0  0  0  0  0  0  0
   42.9840   33.4500   40.9960 C   0  0  0  0  0  0  0  0  0  0  0  0
   41.6690   33.1000   41.2240 C   0  0  0  0  0  0  0  0  0  0  0  0
   41.2370   33.4980   42.1340 H   0  0  0  0  0  0  0  0  0  0  0  0
   41.0410   32.2920   40.2920 C   0  0  0  0  0  0  0  0  0  0  0  0
   41.7300   31.8570   39.1660 C   0  0  0  0  0  0  0  0  0  0  0  0
   40.8640   30.8370   38.0340 Cl  0  0  0  0  0  0  0  0  0  0  0  0
   43.0560   32.2070   38.9300 C   0  0  0  0  0  0  0  0  0  0  0  0
   43.5480   31.8410   38.0370 H   0  0  0  0  0  0  0  0  0  0  0  0
   46.3050   33.5150   44.7340 C   0  0  0  0  0  0  0  0  0  0  0  0
   45.7260   33.8900   45.7230 O   0  0  0  0  0  0  0  0  0  0  0  0
   47.3630   32.7730   44.0330 C   0  0  0  0  0  0  0  0  0  0  0  0
   48.2100   33.2630   43.1190 C   0  0  0  0  0  0  0  0  0  0  0  0
   49.0450   32.3270   42.5410 C   0  0  0  0  0  0  0  0  0  0  0  0
   48.9370   30.9870   42.9500 N   0  0  0  0  0  0  0  0  0  0  0  0
   48.0790   30.5810   43.8590 C   0  0  0  0  0  0  0  0  0  0  0  0
   47.2280   31.4890   44.4560 N   0  0  0  0  0  0  0  0  0  0  0  0
   49.7860   32.5470   41.7840 H   0  0  0  0  0  0  0  0  0  0  0  0
   48.1110   29.5170   44.0770 H   0  0  0  0  0  0  0  0  0  0  0  0
   48.3970   34.6360   42.7940 C   0  0  0  0  0  0  0  0  0  0  0  0
   49.4190   35.2220   42.1160 C   0  0  0  0  0  0  0  0  0  0  0  0
   48.1830   35.0420   41.2760 C   0  0  0  0  0  0  0  0  0  0  0  0
   47.9470   35.3260   43.5300 H   0  0  0  0  0  0  0  0  0  0  0  0
   49.7750   36.2770   42.1370 H   0  0  0  0  0  0  0  0  0  0  0  0
   50.2800   34.5900   41.7410 H   0  0  0  0  0  0  0  0  0  0  0  0
   47.4310   35.8420   41.1890 H   0  0  0  0  0  0  0  0  0  0  0  0
   48.1070   34.1630   40.6130 H   0  0  0  0  0  0  0  0  0  0  0  0
  2  1  1  0  0  0  0
  2  3  1  0  0  0  0
  3 21  1  0  0  0  0
  4  3  2  0  0  0  0
  4  8  1  0  0  0  0
  5  4  1  0  0  0  0
  6  7  1  0  0  0  0
  6  5  2  0  0  0  0
  7  2  2  0  0  0  0
  9  5  1  0  0  0  0
 10  6  1  0  0  0  0
 11 12  1  0  0  0  0
 12 13  1  0  0  0  0
 13 14  2  0  0  0  0
 13  7  1  0  0  0  0
 14 15  1  0  0  0  0
 16 14  1  0  0  0  0
 17 16  2  0  0  0  0
 18 17  1  0  0  0  0
 19 17  1  0  0  0  0
 19 12  2  0  0  0  0
 20 19  1  0  0  0  0
 21 22  2  0  0  0  0
 23 28  1  0  0  0  0
 23 21  1  0  0  0  0
 24 23  2  0  0  0  0
 25 26  2  0  0  0  0
 25 24  1  0  0  0  0
 26 27  1  0  0  0  0
 27 30  1  0  0  0  0
 27 28  2  0  0  0  0
 29 25  1  0  0  0  0
 31 24  1  0  0  0  0
 31 34  1  0  0  0  0
 32 35  1  0  0  0  0
 32 31  1  0  0  0  0
 33 32  1  0  0  0  0
 33 31  1  0  0  0  0
 36 32  1  0  0  0  0
 37 33  1  0  0  0  0
 38 33  1  0  0  0  0
M  END
>  <minimizedAffinity>
-5.74644327

>  <minimizedRMSD>
0.361809939

$$$$
