
 OpenBabel03252502473D

 46 49  0  0  1  0  0  0  0  0999 V2000
   48.2610   35.6530   41.6740 C   0  0  0  0  0  0  0  0  0  0  0  0
   48.2990   36.1250   42.6810 H   0  0  0  0  0  0  0  0  0  0  0  0
   48.2560   36.5210   40.9670 H   0  0  0  0  0  0  0  0  0  0  0  0
   49.4400   34.7560   41.4780 C   0  0  1  0  0  0  0  0  0  0  0  0
   50.3580   34.5350   42.6450 C   0  0  0  0  0  0  0  0  0  0  0  0
   49.4310   33.4710   42.1600 C   0  0  2  0  0  0  0  0  0  0  0  0
   49.9480   34.9000   40.5300 H   0  0  0  0  0  0  0  0  0  0  0  0
   51.4530   34.4700   42.5130 H   0  0  0  0  0  0  0  0  0  0  0  0
   50.0960   35.0950   43.5850 H   0  0  0  0  0  0  0  0  0  0  0  0
   48.7010   33.1470   42.8980 H   0  0  0  0  0  0  0  0  0  0  0  0
   50.1160   32.4160   41.4240 N   0  0  0  0  0  0  0  0  0  0  0  0
   49.5390   32.1120   40.1700 C   0  0  0  0  0  0  0  0  0  0  0  0
   50.3880   31.0020   39.5770 C   0  0  0  0  0  0  0  0  0  0  0  0
   50.3540   29.8260   40.3740 N   0  0  0  0  0  0  0  0  0  0  0  0
   50.0910   30.0610   41.7810 C   0  0  0  0  0  0  0  0  0  0  0  0
   50.7040   31.4010   42.1850 C   0  0  0  0  0  0  0  0  0  0  0  0
   49.4820   32.9720   39.5060 H   0  0  0  0  0  0  0  0  0  0  0  0
   48.5300   31.6860   40.3250 H   0  0  0  0  0  0  0  0  0  0  0  0
   51.3940   31.4250   39.3850 H   0  0  0  0  0  0  0  0  0  0  0  0
   49.9430   30.7990   38.5770 H   0  0  0  0  0  0  0  0  0  0  0  0
   51.2170   29.2540   40.2250 H   0  0  0  0  0  0  0  0  0  0  0  0
   50.6490   29.2460   42.3230 H   0  0  0  0  0  0  0  0  0  0  0  0
   49.0130   30.0450   41.9530 H   0  0  0  0  0  0  0  0  0  0  0  0
   50.6760   31.5610   43.2600 H   0  0  0  0  0  0  0  0  0  0  0  0
   51.7850   31.3070   41.8780 H   0  0  0  0  0  0  0  0  0  0  0  0
   47.0340   34.8010   41.5470 C   0  0  0  0  0  0  0  0  0  0  0  0
   47.1630   33.7880   41.2010 H   0  0  0  0  0  0  0  0  0  0  0  0
   46.3840   35.2900   40.7640 H   0  0  0  0  0  0  0  0  0  0  0  0
   44.6090   36.1060   44.0950 C   0  0  0  0  0  0  0  0  0  0  0  0
   45.3580   35.9970   42.8950 C   0  0  0  0  0  0  0  0  0  0  0  0
   46.2240   34.9460   42.8010 C   0  0  0  0  0  0  0  0  0  0  0  0
   46.3320   34.0680   43.8310 N   0  0  0  0  0  0  0  0  0  0  0  0
   45.6320   34.1820   44.9370 C   0  0  0  0  0  0  0  0  0  0  0  0
   44.7650   35.2010   45.0800 N   0  0  0  0  0  0  0  0  0  0  0  0
   43.9310   36.9270   44.1730 H   0  0  0  0  0  0  0  0  0  0  0  0
   45.2730   36.6910   42.0800 H   0  0  0  0  0  0  0  0  0  0  0  0
   47.3680   31.7310   44.4560 Cl  0  0  0  0  0  0  0  0  0  0  0  0
   46.5170   32.0860   45.9340 C   0  0  0  0  0  0  0  0  0  0  0  0
   45.7560   33.2330   46.0390 C   0  0  0  0  0  0  0  0  0  0  0  0
   45.1210   33.4260   47.2480 C   0  0  0  0  0  0  0  0  0  0  0  0
   44.5040   34.3170   47.3910 H   0  0  0  0  0  0  0  0  0  0  0  0
   45.1990   32.5650   48.3270 C   0  0  0  0  0  3  0  0  0  0  0  0
   45.9770   31.4380   48.1530 C   0  0  0  0  0  0  0  0  0  0  0  0
   46.0680   30.3490   49.5350 Cl  0  0  0  0  0  0  0  0  0  0  0  0
   46.6560   31.1640   46.9620 C   0  0  0  0  0  0  0  0  0  0  0  0
   47.2300   30.2690   46.9260 H   0  0  0  0  0  0  0  0  0  0  0  0
  1  2  1  0  0  0  0
  3  1  1  0  0  0  0
  4  7  1  6  0  0  0
  4  1  1  0  0  0  0
  4  6  1  0  0  0  0
  4  5  1  0  0  0  0
  5  9  1  0  0  0  0
  6  5  1  0  0  0  0
  6 10  1  1  0  0  0
  8  5  1  0  0  0  0
 11  6  1  0  0  0  0
 11 16  1  0  0  0  0
 12 18  1  0  0  0  0
 12 11  1  0  0  0  0
 13 12  1  0  0  0  0
 13 14  1  0  0  0  0
 14 15  1  0  0  0  0
 15 23  1  0  0  0  0
 15 16  1  0  0  0  0
 15 22  1  0  0  0  0
 16 24  1  0  0  0  0
 17 12  1  0  0  0  0
 19 13  1  0  0  0  0
 20 13  1  0  0  0  0
 21 14  1  0  0  0  0
 25 16  1  0  0  0  0
 26  1  1  0  0  0  0
 26 31  1  0  0  0  0
 27 26  1  0  0  0  0
 28 26  1  0  0  0  0
 29 35  1  0  0  0  0
 29 34  1  0  0  0  0
 30 29  2  0  0  0  0
 31 30  1  0  0  0  0
 31 32  2  0  0  0  0
 32 33  1  0  0  0  0
 33 34  2  0  0  0  0
 33 39  1  0  0  0  0
 36 30  1  0  0  0  0
 37 38  1  0  0  0  0
 38 39  2  0  0  0  0
 38 45  1  0  0  0  0
 39 40  1  0  0  0  0
 40 41  1  0  0  0  0
 40 42  2  0  0  0  0
 43 42  1  0  0  0  0
 43 44  1  0  0  0  0
 45 43  2  0  0  0  0
 46 45  1  0  0  0  0
M  END
>  <minimizedAffinity>
-5.5354557

>  <minimizedRMSD>
1.03496015

$$$$
