
 OpenBabel03252506423D

 41 44  0  0  1  0  0  0  0  0999 V2000
   49.2930   33.2660   41.3500 N   0  0  1  0  0  0  0  0  0  0  0  0
   50.5950   33.0370   41.9170 C   0  0  0  0  0  0  0  0  0  0  0  0
   51.2030   31.7160   41.6130 C   0  0  0  0  0  0  0  0  0  0  0  0
   50.3670   30.6130   42.2210 C   0  0  0  0  0  0  0  0  0  0  0  0
   48.9290   30.9750   42.1740 C   0  0  0  0  0  0  0  0  0  0  0  0
   48.6200   31.9990   41.1370 C   0  0  2  0  0  0  0  0  0  0  0  0
   50.5440   33.1190   43.0330 H   0  0  0  0  0  0  0  0  0  0  0  0
   51.2910   33.8760   41.6300 H   0  0  0  0  0  0  0  0  0  0  0  0
   52.1760   31.6970   42.1940 H   0  0  0  0  0  0  0  0  0  0  0  0
   51.4840   31.5010   40.5900 H   0  0  0  0  0  0  0  0  0  0  0  0
   50.5400   29.7020   41.5900 H   0  0  0  0  0  0  0  0  0  0  0  0
   50.7270   30.3190   43.2380 H   0  0  0  0  0  0  0  0  0  0  0  0
   48.6660   31.4390   43.1600 H   0  0  0  0  0  0  0  0  0  0  0  0
   48.2410   30.1270   42.0700 H   0  0  0  0  0  0  0  0  0  0  0  0
   47.5370   32.2770   41.3730 H   0  0  0  0  0  0  0  0  0  0  0  0
   47.7240   29.1220   40.1870 Cl  0  0  0  0  0  0  0  0  0  0  0  0
   48.1910   30.3950   39.1180 C   0  0  0  0  0  0  0  0  0  0  0  0
   48.5800   31.5580   39.7450 C   0  0  0  0  0  0  0  0  0  0  0  0
   49.0040   32.5950   38.9000 C   0  0  0  0  0  0  0  0  0  0  0  0
   49.3610   33.6040   39.1450 H   0  0  0  0  0  0  0  0  0  0  0  0
   49.0150   32.4170   37.5100 C   0  0  0  0  0  3  0  0  0  0  0  0
   48.6120   31.2280   36.9370 C   0  0  0  0  0  0  0  0  0  0  0  0
   48.6090   30.9630   35.2050 Cl  0  0  0  0  0  0  0  0  0  0  0  0
   48.1990   30.2160   37.7700 C   0  0  0  0  0  0  0  0  0  0  0  0
   47.8680   29.2540   37.3990 H   0  0  0  0  0  0  0  0  0  0  0  0
   47.2100   34.6670   41.9680 C   0  0  1  0  0  0  0  0  0  0  0  0
   48.3510   35.5200   41.7160 C   0  0  0  0  0  0  0  0  0  0  0  0
   48.6080   34.1450   42.2580 C   0  0  2  0  0  0  0  0  0  0  0  0
   46.7260   34.0380   41.1620 H   0  0  0  0  0  0  0  0  0  0  0  0
   48.5600   35.7310   40.6360 H   0  0  0  0  0  0  0  0  0  0  0  0
   48.4850   36.4170   42.3470 H   0  0  0  0  0  0  0  0  0  0  0  0
   48.8810   34.0840   43.3260 H   0  0  0  0  0  0  0  0  0  0  0  0
   45.5020   36.0650   43.1710 C   0  0  0  0  0  0  0  0  0  0  0  0
   46.3040   34.8910   43.1140 C   0  0  0  0  0  0  0  0  0  0  0  0
   46.2010   33.9910   44.1580 C   0  0  0  0  0  0  0  0  0  0  0  0
   45.3410   34.2800   45.1750 N   0  0  0  0  0  0  0  0  0  0  0  0
   44.5880   35.3950   45.2140 C   0  0  0  0  0  0  0  0  0  0  0  0
   44.6580   36.3070   44.2090 N   0  0  0  0  0  0  0  0  0  0  0  0
   45.6270   36.7400   42.3180 H   0  0  0  0  0  0  0  0  0  0  0  0
   46.7900   33.0820   44.1630 H   0  0  0  0  0  0  0  0  0  0  0  0
   43.9110   35.6000   46.0350 H   0  0  0  0  0  0  0  0  0  0  0  0
  1  2  1  1  0  0  0
  1 28  1  0  0  0  0
  2  7  1  0  0  0  0
  3  2  1  0  0  0  0
  3  9  1  0  0  0  0
  3  4  1  0  0  0  0
  4 12  1  0  0  0  0
  5  4  1  0  0  0  0
  5 13  1  0  0  0  0
  6  1  1  0  0  0  0
  6 15  1  1  0  0  0
  6  5  1  0  0  0  0
  8  2  1  0  0  0  0
 10  3  1  0  0  0  0
 11  4  1  0  0  0  0
 14  5  1  0  0  0  0
 17 18  1  0  0  0  0
 17 16  1  0  0  0  0
 18  6  1  0  0  0  0
 19 20  1  0  0  0  0
 19 18  2  0  0  0  0
 21 19  1  0  0  0  0
 22 21  2  0  0  0  0
 22 24  1  0  0  0  0
 23 22  1  0  0  0  0
 24 17  2  0  0  0  0
 25 24  1  0  0  0  0
 26 29  1  6  0  0  0
 26 28  1  0  0  0  0
 26 34  1  0  0  0  0
 27 26  1  0  0  0  0
 27 28  1  0  0  0  0
 27 31  1  0  0  0  0
 28 32  1  1  0  0  0
 30 27  1  0  0  0  0
 33 38  1  0  0  0  0
 34 33  2  0  0  0  0
 34 35  1  0  0  0  0
 35 40  1  0  0  0  0
 35 36  2  0  0  0  0
 36 37  1  0  0  0  0
 37 41  1  0  0  0  0
 38 37  2  0  0  0  0
 39 33  1  0  0  0  0
M  END
>  <minimizedAffinity>
-5.03138828

>  <minimizedRMSD>
0.715325832

$$$$
