
 OpenBabel03242523543D

 46 49  0  0  1  0  0  0  0  0999 V2000
   42.7920   34.4900   38.7200 C   0  0  1  0  0  0  0  0  0  0  0  0
   42.9860   35.1730   40.0650 C   0  0  1  0  0  0  0  0  0  0  0  0
   41.7110   35.4470   40.6060 O   0  0  0  0  0  0  0  0  0  0  0  0
   40.7760   35.7990   39.6290 C   0  0  0  0  0  0  0  0  0  0  0  0
   40.4160   34.6280   38.7360 C   0  0  2  0  0  0  0  0  0  0  0  0
   41.5980   33.6070   38.8670 C   0  0  1  0  0  0  0  0  0  0  0  0
   43.7110   33.9450   38.4200 H   0  0  0  0  0  0  0  0  0  0  0  0
   43.5990   36.0790   40.0100 H   0  0  0  0  0  0  0  0  0  0  0  0
   41.0970   36.6820   39.0420 H   0  0  0  0  0  0  0  0  0  0  0  0
   39.8690   36.0690   40.1850 H   0  0  0  0  0  0  0  0  0  0  0  0
   39.4790   34.1190   39.0330 H   0  0  0  0  0  0  0  0  0  0  0  0
   41.3960   33.3760   39.9630 H   0  0  0  0  0  0  0  0  0  0  0  0
   42.5870   35.4390   37.7050 O   0  0  0  0  0  0  0  0  0  0  0  0
   43.2440   36.1750   37.7900 H   0  0  0  0  0  0  0  0  0  0  0  0
   40.4230   35.0250   37.4100 O   0  0  0  0  0  0  0  0  0  0  0  0
   39.5940   35.5190   37.2190 H   0  0  0  0  0  0  0  0  0  0  0  0
   43.5000   34.1790   40.9130 O   0  0  0  0  0  0  0  0  0  0  0  0
   44.5960   34.3120   41.6680 C   0  0  0  0  0  0  0  0  0  0  0  0
   45.8660   34.4290   41.0830 C   0  0  0  0  0  0  0  0  0  0  0  0
   46.9700   34.5640   41.9050 C   0  0  0  0  0  0  0  0  0  0  0  0
   46.7920   34.5810   43.2750 N   0  0  0  0  0  0  0  0  0  0  0  0
   45.5520   34.4640   43.8070 C   0  0  0  0  0  0  0  0  0  0  0  0
   44.4640   34.3310   43.0050 N   0  0  0  0  0  0  0  0  0  0  0  0
   46.0140   34.4170   40.0030 H   0  0  0  0  0  0  0  0  0  0  0  0
   45.4590   34.4820   44.8830 H   0  0  0  0  0  0  0  0  0  0  0  0
   48.3570   34.6710   41.3480 C   0  0  0  0  0  0  0  0  0  0  0  0
   49.0600   36.0160   41.5210 C   0  0  0  0  0  0  0  0  0  0  0  0
   49.4930   34.7100   42.2140 C   0  0  0  0  0  0  0  0  0  0  0  0
   48.4430   34.2170   40.3260 H   0  0  0  0  0  0  0  0  0  0  0  0
   49.7290   36.2880   40.6830 H   0  0  0  0  0  0  0  0  0  0  0  0
   48.5520   36.7870   42.1150 H   0  0  0  0  0  0  0  0  0  0  0  0
   50.4860   34.3060   41.9830 H   0  0  0  0  0  0  0  0  0  0  0  0
   49.3060   34.7460   43.3190 H   0  0  0  0  0  0  0  0  0  0  0  0
   41.4160   32.6510   37.9400 O   0  0  0  0  0  0  0  0  0  0  0  0
   40.7130   31.5160   37.9580 C   0  0  0  0  0  0  0  0  0  0  0  0
   39.4920   31.4600   37.4280 O   0  0  0  0  0  0  0  0  0  0  0  0
   42.2080   29.5910   36.1630 Cl  0  0  0  0  0  0  0  0  0  0  0  0
   41.6950   29.1610   37.7940 C   0  0  0  0  0  0  0  0  0  0  0  0
   41.0180   30.1360   38.4910 C   0  0  0  0  0  0  0  0  0  0  0  0
   40.6550   29.7240   39.7470 C   0  0  0  0  0  0  0  0  0  0  0  0
   40.1120   30.3920   40.4160 H   0  0  0  0  0  0  0  0  0  0  0  0
   40.9330   28.4920   40.2450 C   0  0  0  0  0  3  0  0  0  0  0  0
   41.6090   27.5810   39.4920 C   0  0  0  0  0  0  0  0  0  0  0  0
   41.9640   26.0050   40.1330 Cl  0  0  0  0  0  0  0  0  0  0  0  0
   42.0180   27.8960   38.2160 C   0  0  0  0  0  0  0  0  0  0  0  0
   42.5500   27.2200   37.5860 H   0  0  0  0  0  0  0  0  0  0  0  0
  1  7  1  6  0  0  0
  1  6  1  0  0  0  0
  1  2  1  0  0  0  0
  2  8  1  6  0  0  0
  2  3  1  0  0  0  0
  2 17  1  0  0  0  0
  4 10  1  0  0  0  0
  4  3  1  0  0  0  0
  5  6  1  0  0  0  0
  5 11  1  1  0  0  0
  5  4  1  0  0  0  0
  6 12  1  1  0  0  0
  9  4  1  0  0  0  0
 13 14  1  0  0  0  0
 13  1  1  0  0  0  0
 15  5  1  0  0  0  0
 16 15  1  0  0  0  0
 17 18  1  0  0  0  0
 18 23  1  0  0  0  0
 19 18  2  0  0  0  0
 19 20  1  0  0  0  0
 20 21  2  0  0  0  0
 21 22  1  0  0  0  0
 22 25  1  0  0  0  0
 23 22  2  0  0  0  0
 24 19  1  0  0  0  0
 26 27  1  0  0  0  0
 26 20  1  0  0  0  0
 26 28  1  0  0  0  0
 27 31  1  0  0  0  0
 27 28  1  0  0  0  0
 28 33  1  0  0  0  0
 29 26  1  0  0  0  0
 30 27  1  0  0  0  0
 32 28  1  0  0  0  0
 34 35  1  0  0  0  0
 34  6  1  0  0  0  0
 35 39  1  0  0  0  0
 36 35  2  0  0  0  0
 37 38  1  0  0  0  0
 38 45  2  0  0  0  0
 38 39  1  0  0  0  0
 39 40  2  0  0  0  0
 40 42  1  0  0  0  0
 40 41  1  0  0  0  0
 43 44  1  0  0  0  0
 43 42  2  0  0  0  0
 45 43  1  0  0  0  0
 46 45  1  0  0  0  0
M  END
>  <minimizedAffinity>
-5.77967787

>  <minimizedRMSD>
0.707434893

$$$$
