
 OpenBabel03252508333D

 33 35  0  0  1  0  0  0  0  0999 V2000
   44.8580   33.7550   41.6940 N   0  0  0  0  0  0  0  0  0  0  0  0
   45.3480   32.4760   41.3320 C   0  0  1  0  0  0  0  0  0  0  0  0
   45.1800   32.1170   39.8990 C   0  0  0  0  0  0  0  0  0  0  0  0
   44.0470   32.5950   39.2430 N   0  0  0  0  0  0  0  0  0  0  0  0
   43.4070   33.7360   39.7360 C   0  0  0  0  0  0  0  0  0  0  0  0
   44.3750   34.5350   40.5950 C   0  0  0  0  0  0  0  0  0  0  0  0
   44.8250   31.7050   41.9430 H   0  0  0  0  0  0  0  0  0  0  0  0
   46.0920   32.4780   39.3380 H   0  0  0  0  0  0  0  0  0  0  0  0
   45.2400   31.0000   39.7950 H   0  0  0  0  0  0  0  0  0  0  0  0
   43.4970   31.9470   38.6810 H   0  0  0  0  0  0  0  0  0  0  0  0
   42.5760   33.4060   40.4200 H   0  0  0  0  0  0  0  0  0  0  0  0
   42.9410   34.4110   39.0120 H   0  0  0  0  0  0  0  0  0  0  0  0
   45.2500   34.8470   39.9520 H   0  0  0  0  0  0  0  0  0  0  0  0
   43.8500   35.4590   40.8420 H   0  0  0  0  0  0  0  0  0  0  0  0
   47.3340   34.4210   40.1180 Cl  0  0  0  0  0  0  0  0  0  0  0  0
   47.8590   33.1110   41.1590 C   0  0  0  0  0  0  0  0  0  0  0  0
   46.8170   32.3180   41.6260 C   0  0  0  0  0  0  0  0  0  0  0  0
   47.1600   31.2530   42.4610 C   0  0  0  0  0  0  0  0  0  0  0  0
   46.4880   30.5410   42.9120 H   0  0  0  0  0  0  0  0  0  0  0  0
   48.4740   31.0000   42.8080 C   0  0  0  0  0  3  0  0  0  0  0  0
   49.4910   31.8000   42.3330 C   0  0  0  0  0  0  0  0  0  0  0  0
   51.1910   31.5930   42.6910 Cl  0  0  0  0  0  0  0  0  0  0  0  0
   49.1450   32.8450   41.5110 C   0  0  0  0  0  0  0  0  0  0  0  0
   49.8370   33.5630   41.0590 H   0  0  0  0  0  0  0  0  0  0  0  0
   44.4550   35.4250   43.3590 C   0  0  0  0  0  0  0  0  0  0  0  0
   44.8980   34.1190   43.0710 C   0  0  0  0  0  0  0  0  0  0  0  0
   45.3200   33.3220   44.1210 C   0  0  0  0  0  0  0  0  0  0  0  0
   45.2930   33.8260   45.3760 N   0  0  0  0  0  0  0  0  0  0  0  0
   44.8630   35.0870   45.6370 C   0  0  0  0  0  0  0  0  0  0  0  0
   44.4480   35.8750   44.6260 N   0  0  0  0  0  0  0  0  0  0  0  0
   44.0920   36.1860   42.6860 H   0  0  0  0  0  0  0  0  0  0  0  0
   45.6500   32.3280   43.8750 H   0  0  0  0  0  0  0  0  0  0  0  0
   44.9040   35.3360   46.6920 H   0  0  0  0  0  0  0  0  0  0  0  0
  1 26  1  0  0  0  0
  2 17  1  0  0  0  0
  2  1  1  0  0  0  0
  2  7  1  1  0  0  0
  3  2  1  0  0  0  0
  4  5  1  0  0  0  0
  4  3  1  0  0  0  0
  5 11  1  0  0  0  0
  5  6  1  0  0  0  0
  6 14  1  0  0  0  0
  6  1  1  0  0  0  0
  8  3  1  0  0  0  0
  9  3  1  0  0  0  0
 10  4  1  0  0  0  0
 12  5  1  0  0  0  0
 13  6  1  0  0  0  0
 15 16  1  0  0  0  0
 16 23  2  0  0  0  0
 16 17  1  0  0  0  0
 17 18  2  0  0  0  0
 18 20  1  0  0  0  0
 18 19  1  0  0  0  0
 21 22  1  0  0  0  0
 21 20  2  0  0  0  0
 23 21  1  0  0  0  0
 24 23  1  0  0  0  0
 25 30  1  0  0  0  0
 26 25  2  0  0  0  0
 26 27  1  0  0  0  0
 27 28  2  0  0  0  0
 28 29  1  0  0  0  0
 29 33  1  0  0  0  0
 30 29  2  0  0  0  0
 31 25  1  0  0  0  0
 32 27  1  0  0  0  0
M  END
>  <minimizedAffinity>
-4.19734335

>  <minimizedRMSD>
1.84073782

$$$$
