
 OpenBabel03252500363D

 47 50  0  0  1  0  0  0  0  0999 V2000
   45.7710   34.8810   44.2700 C   0  0  1  0  0  0  0  0  0  0  0  0
   44.8280   34.7810   45.2980 C   0  0  0  0  0  0  0  0  0  0  0  0
   46.0420   33.9710   45.5030 C   0  0  1  0  0  0  0  0  0  0  0  0
   46.4350   35.7840   44.1930 H   0  0  0  0  0  0  0  0  0  0  0  0
   44.6300   35.6140   45.9860 H   0  0  0  0  0  0  0  0  0  0  0  0
   43.8920   34.1770   45.1270 H   0  0  0  0  0  0  0  0  0  0  0  0
   46.9310   34.3300   46.0440 H   0  0  0  0  0  0  0  0  0  0  0  0
   44.4310   33.8270   42.4490 C   0  0  0  0  0  0  0  0  0  0  0  0
   45.7230   34.1950   42.9430 C   0  0  0  0  0  0  0  0  0  0  0  0
   46.8310   33.9150   42.2100 C   0  0  0  0  0  0  0  0  0  0  0  0
   46.6440   33.2800   41.0100 N   0  0  0  0  0  0  0  0  0  0  0  0
   45.4210   32.9360   40.5510 C   0  0  0  0  0  0  0  0  0  0  0  0
   44.2700   33.2000   41.2610 N   0  0  0  0  0  0  0  0  0  0  0  0
   43.5600   34.0640   43.0600 H   0  0  0  0  0  0  0  0  0  0  0  0
   47.8120   34.1870   42.5710 H   0  0  0  0  0  0  0  0  0  0  0  0
   45.5610   29.9210   40.6460 Cl  0  0  0  0  0  0  0  0  0  0  0  0
   45.3890   30.8810   39.1810 C   0  0  0  0  0  0  0  0  0  0  0  0
   45.3350   32.2610   39.2560 C   0  0  0  0  0  0  0  0  0  0  0  0
   45.2010   33.0490   38.1440 C   0  0  0  0  0  0  0  0  0  0  0  0
   45.1530   34.1340   38.1330 H   0  0  0  0  0  0  0  0  0  0  0  0
   45.1170   32.4410   36.8950 C   0  0  0  0  0  3  0  0  0  0  0  0
   45.1730   31.0550   36.8460 C   0  0  0  0  0  0  0  0  0  0  0  0
   45.0680   30.2900   35.2880 Cl  0  0  0  0  0  0  0  0  0  0  0  0
   45.3080   30.2390   37.9570 C   0  0  0  0  0  0  0  0  0  0  0  0
   45.3490   29.1740   37.8940 H   0  0  0  0  0  0  0  0  0  0  0  0
   45.9960   32.4970   45.3390 C   0  0  0  0  0  0  0  0  0  0  0  0
   45.1620   32.2290   44.6380 H   0  0  0  0  0  0  0  0  0  0  0  0
   46.9540   32.0690   44.9750 H   0  0  0  0  0  0  0  0  0  0  0  0
   45.7310   31.9400   46.6180 N   0  0  0  0  0  0  0  0  0  0  0  0
   46.2260   32.6090   47.7440 C   0  0  0  0  0  0  0  0  0  0  0  0
   47.6310   32.0970   48.1250 C   0  0  0  0  0  0  0  0  0  0  0  0
   47.4470   30.6860   48.6090 C   0  0  0  0  0  0  0  0  0  0  0  0
   46.8930   29.9090   47.4360 C   0  0  0  0  0  0  0  0  0  0  0  0
   45.7080   30.5490   46.7700 C   0  0  2  0  0  0  0  0  0  0  0  0
   45.5950   32.2440   48.6130 H   0  0  0  0  0  0  0  0  0  0  0  0
   46.1340   33.6900   47.8140 H   0  0  0  0  0  0  0  0  0  0  0  0
   48.0120   32.7020   48.9720 H   0  0  0  0  0  0  0  0  0  0  0  0
   48.3180   32.1660   47.2600 H   0  0  0  0  0  0  0  0  0  0  0  0
   46.6750   30.7160   49.4080 H   0  0  0  0  0  0  0  0  0  0  0  0
   48.3680   30.1910   48.9190 H   0  0  0  0  0  0  0  0  0  0  0  0
   46.5920   28.8840   47.7660 H   0  0  0  0  0  0  0  0  0  0  0  0
   47.6870   29.7810   46.6740 H   0  0  0  0  0  0  0  0  0  0  0  0
   44.8170   30.2740   47.3750 H   0  0  0  0  0  0  0  0  0  0  0  0
   45.5230   29.8300   45.4420 C   0  0  0  0  0  0  0  0  0  0  0  0
   45.3930   28.7610   45.6290 H   0  0  0  0  0  0  0  0  0  0  0  0
   44.6120   30.2500   44.9280 H   0  0  0  0  0  0  0  0  0  0  0  0
   46.4260   29.9590   44.8000 H   0  0  0  0  0  0  0  0  0  0  0  0
  1  4  1  1  0  0  0
  1  2  1  0  0  0  0
  1  3  1  0  0  0  0
  2  3  1  0  0  0  0
  2  5  1  0  0  0  0
  3  7  1  1  0  0  0
  6  2  1  0  0  0  0
  8  9  1  0  0  0  0
  8 14  1  0  0  0  0
  9  1  1  0  0  0  0
 10 15  1  0  0  0  0
 10  9  2  0  0  0  0
 11 10  1  0  0  0  0
 12 11  2  0  0  0  0
 12 13  1  0  0  0  0
 13  8  2  0  0  0  0
 17 18  1  0  0  0  0
 17 16  1  0  0  0  0
 18 12  1  0  0  0  0
 19 18  2  0  0  0  0
 20 19  1  0  0  0  0
 21 19  1  0  0  0  0
 22 21  2  0  0  0  0
 22 24  1  0  0  0  0
 23 22  1  0  0  0  0
 24 17  2  0  0  0  0
 25 24  1  0  0  0  0
 26  3  1  0  0  0  0
 26 29  1  0  0  0  0
 27 26  1  0  0  0  0
 28 26  1  0  0  0  0
 29 34  1  0  0  0  0
 29 30  1  0  0  0  0
 30 36  1  0  0  0  0
 30 31  1  0  0  0  0
 30 35  1  0  0  0  0
 31 32  1  0  0  0  0
 31 37  1  0  0  0  0
 32 40  1  0  0  0  0
 32 39  1  0  0  0  0
 33 41  1  0  0  0  0
 33 32  1  0  0  0  0
 34 43  1  1  0  0  0
 34 33  1  0  0  0  0
 38 31  1  0  0  0  0
 42 33  1  0  0  0  0
 44 45  1  0  0  0  0
 44 34  1  0  0  0  0
 46 44  1  0  0  0  0
 47 44  1  0  0  0  0
M  END
>  <minimizedAffinity>
-4.16647148

>  <minimizedRMSD>
0.889726162

$$$$
