
 OpenBabel03252509113D

 32 35  0  0  0  0  0  0  0  0999 V2000
   44.9240   30.9160   42.1270 C   0  0  0  0  0  0  0  0  0  0  0  0
   45.7470   31.1510   43.2060 C   0  0  0  0  0  0  0  0  0  0  0  0
   45.5170   30.5620   44.4320 C   0  0  0  0  0  0  0  0  0  0  0  0
   44.4440   29.7040   44.6340 C   0  0  0  0  0  0  0  0  0  0  0  0
   43.9350   28.9790   45.6640 N   0  0  0  0  0  0  0  0  0  0  0  0
   42.8300   28.3220   45.2150 C   0  0  0  0  0  0  0  0  0  0  0  0
   42.6660   28.6510   43.9020 N   0  0  0  0  0  0  0  0  0  0  0  0
   43.6480   29.4970   43.5350 C   0  0  0  0  0  0  0  0  0  0  0  0
   43.8350   30.0600   42.2920 C   0  0  0  0  0  0  0  0  0  0  0  0
   45.0800   31.3660   41.1480 H   0  0  0  0  0  0  0  0  0  0  0  0
   44.3720   28.9740   46.6150 H   0  0  0  0  0  0  0  0  0  0  0  0
   42.2700   27.6780   45.8940 H   0  0  0  0  0  0  0  0  0  0  0  0
   43.1710   29.8590   41.4540 H   0  0  0  0  0  0  0  0  0  0  0  0
   47.8080   28.5850   44.8570 Cl  0  0  0  0  0  0  0  0  0  0  0  0
   47.4560   29.9560   45.8860 C   0  0  0  0  0  0  0  0  0  0  0  0
   46.3800   30.7980   45.5990 C   0  0  0  0  0  0  0  0  0  0  0  0
   46.1600   31.8660   46.4580 C   0  0  0  0  0  0  0  0  0  0  0  0
   45.3300   32.5570   46.2790 H   0  0  0  0  0  0  0  0  0  0  0  0
   46.9520   32.1180   47.5660 C   0  0  0  0  0  3  0  0  0  0  0  0
   48.0090   31.2760   47.8340 C   0  0  0  0  0  0  0  0  0  0  0  0
   48.9730   31.6470   49.2500 Cl  0  0  0  0  0  0  0  0  0  0  0  0
   48.2380   30.2140   46.9900 C   0  0  0  0  0  0  0  0  0  0  0  0
   49.0790   29.5810   47.2410 H   0  0  0  0  0  0  0  0  0  0  0  0
   47.8140   34.1940   43.1870 C   0  0  0  0  0  0  0  0  0  0  0  0
   49.0700   33.6950   42.8160 C   0  0  0  0  0  0  0  0  0  0  0  0
   49.1970   32.3220   42.5760 C   0  0  0  0  0  0  0  0  0  0  0  0
   48.0820   31.5350   42.7170 N   0  0  0  0  0  0  0  0  0  0  0  0
   46.8910   32.0390   43.0730 C   0  0  0  0  0  0  0  0  0  0  0  0
   46.7590   33.3550   43.3050 N   0  0  0  0  0  0  0  0  0  0  0  0
   47.7470   35.2610   43.3660 H   0  0  0  0  0  0  0  0  0  0  0  0
   49.9570   34.2890   42.7000 H   0  0  0  0  0  0  0  0  0  0  0  0
   50.1350   31.8620   42.2850 H   0  0  0  0  0  0  0  0  0  0  0  0
  1  9  2  0  0  0  0
  1  2  1  0  0  0  0
  2  3  2  0  0  0  0
  3  4  1  0  0  0  0
  3 16  1  0  0  0  0
  4  5  1  0  0  0  0
  5 11  1  0  0  0  0
  6  5  1  0  0  0  0
  6 12  1  0  0  0  0
  7  6  2  0  0  0  0
  8  7  1  0  0  0  0
  8  4  2  0  0  0  0
  9  8  1  0  0  0  0
 10  1  1  0  0  0  0
 13  9  1  0  0  0  0
 14 15  1  0  0  0  0
 15 22  1  0  0  0  0
 16 15  2  0  0  0  0
 16 17  1  0  0  0  0
 17 19  2  0  0  0  0
 18 17  1  0  0  0  0
 19 20  1  0  0  0  0
 20 21  1  0  0  0  0
 22 23  1  0  0  0  0
 22 20  2  0  0  0  0
 24 29  1  0  0  0  0
 24 30  1  0  0  0  0
 25 24  2  0  0  0  0
 26 27  2  0  0  0  0
 26 25  1  0  0  0  0
 27 28  1  0  0  0  0
 28  2  1  0  0  0  0
 28 29  2  0  0  0  0
 31 25  1  0  0  0  0
 32 26  1  0  0  0  0
M  END
>  <minimizedAffinity>
-3.92004609

>  <minimizedRMSD>
4.89353895

$$$$
