
 OpenBabel03252508323D

 33 35  0  0  1  0  0  0  0  0999 V2000
   44.2620   34.3760   41.9520 N   0  0  0  0  0  0  0  0  0  0  0  0
   44.3190   33.3670   40.9590 C   0  0  1  0  0  0  0  0  0  0  0  0
   43.6940   33.7230   39.6590 C   0  0  0  0  0  0  0  0  0  0  0  0
   42.5740   34.5520   39.6880 N   0  0  0  0  0  0  0  0  0  0  0  0
   42.3790   35.3940   40.7870 C   0  0  0  0  0  0  0  0  0  0  0  0
   43.7020   35.6150   41.5030 C   0  0  0  0  0  0  0  0  0  0  0  0
   43.8110   32.4540   41.3470 H   0  0  0  0  0  0  0  0  0  0  0  0
   44.4800   34.2160   39.0140 H   0  0  0  0  0  0  0  0  0  0  0  0
   43.4560   32.7790   39.0980 H   0  0  0  0  0  0  0  0  0  0  0  0
   41.7550   34.2890   39.1400 H   0  0  0  0  0  0  0  0  0  0  0  0
   41.7070   34.8650   41.5200 H   0  0  0  0  0  0  0  0  0  0  0  0
   41.9090   36.3650   40.6080 H   0  0  0  0  0  0  0  0  0  0  0  0
   44.4210   36.1040   40.7820 H   0  0  0  0  0  0  0  0  0  0  0  0
   43.4970   36.3660   42.2670 H   0  0  0  0  0  0  0  0  0  0  0  0
   45.0600   30.4240   40.9500 Cl  0  0  0  0  0  0  0  0  0  0  0  0
   46.2440   31.6650   40.5880 C   0  0  0  0  0  0  0  0  0  0  0  0
   45.7330   32.9560   40.6370 C   0  0  0  0  0  0  0  0  0  0  0  0
   46.6190   33.9980   40.3600 C   0  0  0  0  0  0  0  0  0  0  0  0
   46.3990   35.0530   40.3530 H   0  0  0  0  0  0  0  0  0  0  0  0
   47.9460   33.7560   40.0500 C   0  0  0  0  0  3  0  0  0  0  0  0
   48.4320   32.4660   40.0070 C   0  0  0  0  0  0  0  0  0  0  0  0
   50.0800   32.0200   39.6300 Cl  0  0  0  0  0  0  0  0  0  0  0  0
   47.5510   31.4470   40.2820 C   0  0  0  0  0  0  0  0  0  0  0  0
   47.7870   30.3790   40.2860 H   0  0  0  0  0  0  0  0  0  0  0  0
   44.6850   35.1110   44.1890 C   0  0  0  0  0  0  0  0  0  0  0  0
   44.7540   34.0610   43.2520 C   0  0  0  0  0  0  0  0  0  0  0  0
   45.2780   32.8470   43.6620 C   0  0  0  0  0  0  0  0  0  0  0  0
   45.7020   32.7170   44.9400 N   0  0  0  0  0  0  0  0  0  0  0  0
   45.6290   33.7390   45.8310 C   0  0  0  0  0  0  0  0  0  0  0  0
   45.1210   34.9260   45.4470 N   0  0  0  0  0  0  0  0  0  0  0  0
   44.3150   36.1160   44.0610 H   0  0  0  0  0  0  0  0  0  0  0  0
   45.3150   32.0620   42.9280 H   0  0  0  0  0  0  0  0  0  0  0  0
   46.0100   33.4700   46.8110 H   0  0  0  0  0  0  0  0  0  0  0  0
  1 26  1  0  0  0  0
  2  7  1  1  0  0  0
  2  1  1  0  0  0  0
  3  4  1  0  0  0  0
  3  2  1  0  0  0  0
  4  5  1  0  0  0  0
  5  6  1  0  0  0  0
  5 11  1  0  0  0  0
  6  1  1  0  0  0  0
  6 14  1  0  0  0  0
  8  3  1  0  0  0  0
  9  3  1  0  0  0  0
 10  4  1  0  0  0  0
 12  5  1  0  0  0  0
 13  6  1  0  0  0  0
 16 17  1  0  0  0  0
 16 15  1  0  0  0  0
 17  2  1  0  0  0  0
 18 17  2  0  0  0  0
 19 18  1  0  0  0  0
 20 18  1  0  0  0  0
 21 20  2  0  0  0  0
 21 23  1  0  0  0  0
 22 21  1  0  0  0  0
 23 24  1  0  0  0  0
 23 16  2  0  0  0  0
 25 30  1  0  0  0  0
 26 27  1  0  0  0  0
 26 25  2  0  0  0  0
 27 28  2  0  0  0  0
 28 29  1  0  0  0  0
 29 33  1  0  0  0  0
 30 29  2  0  0  0  0
 31 25  1  0  0  0  0
 32 27  1  0  0  0  0
M  END
>  <minimizedAffinity>
-4.32392597

>  <minimizedRMSD>
0.683042109

$$$$
