
 OpenBabel03252506423D

 41 44  0  0  1  0  0  0  0  0999 V2000
   49.5110   33.5050   41.3340 N   0  0  1  0  0  0  0  0  0  0  0  0
   50.7030   33.0780   42.0170 C   0  0  0  0  0  0  0  0  0  0  0  0
   51.2520   31.7650   41.5900 C   0  0  0  0  0  0  0  0  0  0  0  0
   50.2640   30.6660   41.9110 C   0  0  0  0  0  0  0  0  0  0  0  0
   48.8760   31.1610   41.7410 C   0  0  0  0  0  0  0  0  0  0  0  0
   48.7860   32.3470   40.8450 C   0  0  2  0  0  0  0  0  0  0  0  0
   50.5050   33.0030   43.1170 H   0  0  0  0  0  0  0  0  0  0  0  0
   51.4900   33.8830   41.9530 H   0  0  0  0  0  0  0  0  0  0  0  0
   52.1330   31.5740   42.2790 H   0  0  0  0  0  0  0  0  0  0  0  0
   51.6560   31.6760   40.5910 H   0  0  0  0  0  0  0  0  0  0  0  0
   50.4580   29.8440   41.1730 H   0  0  0  0  0  0  0  0  0  0  0  0
   50.4600   30.1970   42.9070 H   0  0  0  0  0  0  0  0  0  0  0  0
   48.5130   31.4990   42.7460 H   0  0  0  0  0  0  0  0  0  0  0  0
   48.1500   30.4020   41.4210 H   0  0  0  0  0  0  0  0  0  0  0  0
   47.7040   32.6860   40.9830 H   0  0  0  0  0  0  0  0  0  0  0  0
   48.3210   34.5500   38.6280 Cl  0  0  0  0  0  0  0  0  0  0  0  0
   48.7950   32.9220   38.2940 C   0  0  0  0  0  0  0  0  0  0  0  0
   48.9070   32.1180   39.4080 C   0  0  0  0  0  0  0  0  0  0  0  0
   49.2500   30.7800   39.1600 C   0  0  0  0  0  0  0  0  0  0  0  0
   49.3970   29.9480   39.8620 H   0  0  0  0  0  0  0  0  0  0  0  0
   49.4580   30.3320   37.8490 C   0  0  0  0  0  0  0  0  0  0  0  0
   49.3330   31.1840   36.7720 C   0  0  0  0  0  0  0  0  0  0  0  0
   49.5850   30.6690   35.1160 Cl  0  0  0  0  0  0  0  0  0  0  0  0
   48.9970   32.4950   37.0210 C   0  0  0  0  0  0  0  0  0  0  0  0
   48.8790   33.2250   36.2310 H   0  0  0  0  0  0  0  0  0  0  0  0
   47.3740   34.8140   41.9670 C   0  0  1  0  0  0  0  0  0  0  0  0
   48.5040   35.7070   41.8220 C   0  0  0  0  0  0  0  0  0  0  0  0
   48.7730   34.3010   42.2750 C   0  0  2  0  0  0  0  0  0  0  0  0
   46.9370   34.2350   41.1000 H   0  0  0  0  0  0  0  0  0  0  0  0
   48.7500   35.9980   40.7700 H   0  0  0  0  0  0  0  0  0  0  0  0
   48.5940   36.5570   42.5210 H   0  0  0  0  0  0  0  0  0  0  0  0
   49.0050   34.1690   43.3460 H   0  0  0  0  0  0  0  0  0  0  0  0
   45.5430   36.0530   43.1610 C   0  0  0  0  0  0  0  0  0  0  0  0
   46.4210   34.9370   43.0900 C   0  0  0  0  0  0  0  0  0  0  0  0
   46.3430   33.9920   44.0960 C   0  0  0  0  0  0  0  0  0  0  0  0
   45.4350   34.1870   45.0940 N   0  0  0  0  0  0  0  0  0  0  0  0
   44.6100   35.2500   45.1470 C   0  0  0  0  0  0  0  0  0  0  0  0
   44.6530   36.2020   44.1780 N   0  0  0  0  0  0  0  0  0  0  0  0
   45.6500   36.7670   42.3380 H   0  0  0  0  0  0  0  0  0  0  0  0
   46.9890   33.1230   44.0880 H   0  0  0  0  0  0  0  0  0  0  0  0
   43.8960   35.3800   45.9510 H   0  0  0  0  0  0  0  0  0  0  0  0
  1  2  1  1  0  0  0
  1 28  1  0  0  0  0
  2  7  1  0  0  0  0
  3  4  1  0  0  0  0
  3  2  1  0  0  0  0
  3  9  1  0  0  0  0
  4 12  1  0  0  0  0
  5  4  1  0  0  0  0
  5 13  1  0  0  0  0
  6 15  1  1  0  0  0
  6  1  1  0  0  0  0
  6  5  1  0  0  0  0
  8  2  1  0  0  0  0
 10  3  1  0  0  0  0
 11  4  1  0  0  0  0
 14  5  1  0  0  0  0
 17 16  1  0  0  0  0
 17 18  1  0  0  0  0
 18  6  1  0  0  0  0
 19 18  2  0  0  0  0
 19 20  1  0  0  0  0
 21 19  1  0  0  0  0
 22 24  1  0  0  0  0
 22 21  2  0  0  0  0
 23 22  1  0  0  0  0
 24 17  2  0  0  0  0
 25 24  1  0  0  0  0
 26 29  1  6  0  0  0
 26 28  1  0  0  0  0
 26 34  1  0  0  0  0
 27 26  1  0  0  0  0
 27 28  1  0  0  0  0
 27 31  1  0  0  0  0
 28 32  1  1  0  0  0
 30 27  1  0  0  0  0
 33 38  1  0  0  0  0
 34 33  2  0  0  0  0
 34 35  1  0  0  0  0
 35 36  2  0  0  0  0
 36 37  1  0  0  0  0
 37 41  1  0  0  0  0
 38 37  2  0  0  0  0
 39 33  1  0  0  0  0
 40 35  1  0  0  0  0
M  END
>  <minimizedAffinity>
-5.41002321

>  <minimizedRMSD>
1.18102968

$$$$
