
 OpenBabel03252506423D

 41 44  0  0  1  0  0  0  0  0999 V2000
   49.2260   33.1820   41.5120 N   0  0  1  0  0  0  0  0  0  0  0  0
   50.5980   33.1930   41.9420 C   0  0  0  0  0  0  0  0  0  0  0  0
   51.3380   31.9180   41.7590 C   0  0  0  0  0  0  0  0  0  0  0  0
   50.7210   30.8370   42.6170 C   0  0  0  0  0  0  0  0  0  0  0  0
   49.2510   31.0230   42.6940 C   0  0  0  0  0  0  0  0  0  0  0  0
   48.7050   31.8290   41.5670 C   0  0  2  0  0  0  0  0  0  0  0  0
   50.6530   33.4440   43.0330 H   0  0  0  0  0  0  0  0  0  0  0  0
   51.1460   34.0500   41.4550 H   0  0  0  0  0  0  0  0  0  0  0  0
   52.3610   32.1010   42.2140 H   0  0  0  0  0  0  0  0  0  0  0  0
   51.5380   31.5790   40.7510 H   0  0  0  0  0  0  0  0  0  0  0  0
   50.9450   29.8640   42.1070 H   0  0  0  0  0  0  0  0  0  0  0  0
   51.2200   30.7500   43.6140 H   0  0  0  0  0  0  0  0  0  0  0  0
   49.0330   31.6030   43.6280 H   0  0  0  0  0  0  0  0  0  0  0  0
   48.6720   30.0960   42.7980 H   0  0  0  0  0  0  0  0  0  0  0  0
   47.6260   32.0170   41.8900 H   0  0  0  0  0  0  0  0  0  0  0  0
   48.4510   33.3440   38.8060 Cl  0  0  0  0  0  0  0  0  0  0  0  0
   48.5020   31.6250   38.9680 C   0  0  0  0  0  0  0  0  0  0  0  0
   48.5800   31.1730   40.2680 C   0  0  0  0  0  0  0  0  0  0  0  0
   48.5790   29.7800   40.4300 C   0  0  0  0  0  0  0  0  0  0  0  0
   48.6300   29.1760   41.3450 H   0  0  0  0  0  0  0  0  0  0  0  0
   48.5050   28.9370   39.3140 C   0  0  0  0  0  3  0  0  0  0  0  0
   48.4300   29.4460   38.0340 C   0  0  0  0  0  0  0  0  0  0  0  0
   48.3360   28.4300   36.6090 Cl  0  0  0  0  0  0  0  0  0  0  0  0
   48.4300   30.8130   37.8820 C   0  0  0  0  0  0  0  0  0  0  0  0
   48.3740   31.2910   36.9130 H   0  0  0  0  0  0  0  0  0  0  0  0
   47.1100   34.5620   42.0610 C   0  0  1  0  0  0  0  0  0  0  0  0
   48.2170   35.4280   41.7170 C   0  0  0  0  0  0  0  0  0  0  0  0
   48.5310   34.1100   42.3620 C   0  0  2  0  0  0  0  0  0  0  0  0
   46.6320   33.8550   41.3200 H   0  0  0  0  0  0  0  0  0  0  0  0
   48.3990   35.5570   40.6190 H   0  0  0  0  0  0  0  0  0  0  0  0
   48.3340   36.3760   42.2700 H   0  0  0  0  0  0  0  0  0  0  0  0
   48.8260   34.1440   43.4250 H   0  0  0  0  0  0  0  0  0  0  0  0
   45.4460   36.0430   43.2250 C   0  0  0  0  0  0  0  0  0  0  0  0
   46.2200   34.8500   43.2050 C   0  0  0  0  0  0  0  0  0  0  0  0
   46.1060   33.9920   44.2830 C   0  0  0  0  0  0  0  0  0  0  0  0
   45.2620   34.3390   45.2960 N   0  0  0  0  0  0  0  0  0  0  0  0
   44.5350   35.4720   45.2980 C   0  0  0  0  0  0  0  0  0  0  0  0
   44.6160   36.3430   44.2590 N   0  0  0  0  0  0  0  0  0  0  0  0
   45.5780   36.6830   42.3460 H   0  0  0  0  0  0  0  0  0  0  0  0
   46.6740   33.0700   44.3170 H   0  0  0  0  0  0  0  0  0  0  0  0
   43.8700   35.7230   46.1160 H   0  0  0  0  0  0  0  0  0  0  0  0
  1  6  1  0  0  0  0
  1  2  1  1  0  0  0
  1 28  1  0  0  0  0
  2  7  1  0  0  0  0
  3  2  1  0  0  0  0
  3  9  1  0  0  0  0
  3  4  1  0  0  0  0
  4  5  1  0  0  0  0
  4 12  1  0  0  0  0
  5 14  1  0  0  0  0
  5 13  1  0  0  0  0
  6 15  1  1  0  0  0
  6  5  1  0  0  0  0
  8  2  1  0  0  0  0
 10  3  1  0  0  0  0
 11  4  1  0  0  0  0
 16 17  1  0  0  0  0
 17 18  1  0  0  0  0
 18 19  2  0  0  0  0
 18  6  1  0  0  0  0
 19 20  1  0  0  0  0
 21 19  1  0  0  0  0
 22 21  2  0  0  0  0
 23 22  1  0  0  0  0
 24 22  1  0  0  0  0
 24 17  2  0  0  0  0
 25 24  1  0  0  0  0
 26 29  1  6  0  0  0
 26 28  1  0  0  0  0
 26 34  1  0  0  0  0
 27 26  1  0  0  0  0
 27 31  1  0  0  0  0
 27 28  1  0  0  0  0
 28 32  1  1  0  0  0
 30 27  1  0  0  0  0
 33 38  1  0  0  0  0
 34 33  2  0  0  0  0
 34 35  1  0  0  0  0
 35 40  1  0  0  0  0
 35 36  2  0  0  0  0
 36 37  1  0  0  0  0
 37 41  1  0  0  0  0
 38 37  2  0  0  0  0
 39 33  1  0  0  0  0
M  END
>  <minimizedAffinity>
-4.7837348

>  <minimizedRMSD>
0.50817889

$$$$
