
 OpenBabel03242523533D

 46 49  0  0  1  0  0  0  0  0999 V2000
   42.8090   34.5270   38.7270 C   0  0  1  0  0  0  0  0  0  0  0  0
   42.9680   35.1800   40.0900 C   0  0  1  0  0  0  0  0  0  0  0  0
   41.6800   35.4100   40.6200 O   0  0  0  0  0  0  0  0  0  0  0  0
   40.7500   35.7640   39.6380 C   0  0  0  0  0  0  0  0  0  0  0  0
   40.4310   34.6070   38.7110 C   0  0  2  0  0  0  0  0  0  0  0  0
   41.6350   33.6120   38.8350 C   0  0  1  0  0  0  0  0  0  0  0  0
   43.7450   34.0120   38.4260 H   0  0  0  0  0  0  0  0  0  0  0  0
   43.5600   36.1020   40.0660 H   0  0  0  0  0  0  0  0  0  0  0  0
   41.0570   36.6690   39.0770 H   0  0  0  0  0  0  0  0  0  0  0  0
   39.8290   35.9980   40.1880 H   0  0  0  0  0  0  0  0  0  0  0  0
   39.5020   34.0680   38.9830 H   0  0  0  0  0  0  0  0  0  0  0  0
   41.4240   33.3490   39.9220 H   0  0  0  0  0  0  0  0  0  0  0  0
   42.5950   35.4950   37.7320 O   0  0  0  0  0  0  0  0  0  0  0  0
   43.2330   36.2450   37.8440 H   0  0  0  0  0  0  0  0  0  0  0  0
   40.4460   35.0370   37.3970 O   0  0  0  0  0  0  0  0  0  0  0  0
   39.6080   35.5150   37.2050 H   0  0  0  0  0  0  0  0  0  0  0  0
   43.4940   34.1790   40.9210 O   0  0  0  0  0  0  0  0  0  0  0  0
   44.5930   34.3090   41.6720 C   0  0  0  0  0  0  0  0  0  0  0  0
   45.8610   34.4290   41.0830 C   0  0  0  0  0  0  0  0  0  0  0  0
   46.9680   34.5620   41.9010 C   0  0  0  0  0  0  0  0  0  0  0  0
   46.7950   34.5730   43.2720 N   0  0  0  0  0  0  0  0  0  0  0  0
   45.5580   34.4540   43.8080 C   0  0  0  0  0  0  0  0  0  0  0  0
   44.4670   34.3230   43.0100 N   0  0  0  0  0  0  0  0  0  0  0  0
   46.0040   34.4220   40.0020 H   0  0  0  0  0  0  0  0  0  0  0  0
   45.4680   34.4670   44.8840 H   0  0  0  0  0  0  0  0  0  0  0  0
   48.3520   34.6730   41.3390 C   0  0  0  0  0  0  0  0  0  0  0  0
   49.0600   36.0130   41.5240 C   0  0  0  0  0  0  0  0  0  0  0  0
   49.4920   34.6980   42.2000 C   0  0  0  0  0  0  0  0  0  0  0  0
   48.4330   34.2300   40.3110 H   0  0  0  0  0  0  0  0  0  0  0  0
   49.7260   36.2940   40.6860 H   0  0  0  0  0  0  0  0  0  0  0  0
   48.5570   36.7790   42.1300 H   0  0  0  0  0  0  0  0  0  0  0  0
   50.4840   34.2950   41.9590 H   0  0  0  0  0  0  0  0  0  0  0  0
   49.3110   34.7220   43.3060 H   0  0  0  0  0  0  0  0  0  0  0  0
   41.4890   32.6750   37.8830 O   0  0  0  0  0  0  0  0  0  0  0  0
   40.8420   31.5070   37.8750 C   0  0  0  0  0  0  0  0  0  0  0  0
   39.5620   31.4370   37.5160 O   0  0  0  0  0  0  0  0  0  0  0  0
   42.1040   29.8460   35.6800 Cl  0  0  0  0  0  0  0  0  0  0  0  0
   41.8710   29.2320   37.3170 C   0  0  0  0  0  0  0  0  0  0  0  0
   41.2770   30.0990   38.2070 C   0  0  0  0  0  0  0  0  0  0  0  0
   41.1310   29.5480   39.4540 C   0  0  0  0  0  0  0  0  0  0  0  0
   40.6770   30.1180   40.2630 H   0  0  0  0  0  0  0  0  0  0  0  0
   41.5290   28.2880   39.7720 C   0  0  0  0  0  3  0  0  0  0  0  0
   42.1090   27.4930   38.8330 C   0  0  0  0  0  0  0  0  0  0  0  0
   42.6160   25.8810   39.2440 Cl  0  0  0  0  0  0  0  0  0  0  0  0
   42.3000   27.9520   37.5490 C   0  0  0  0  0  0  0  0  0  0  0  0
   42.7500   27.3680   36.7770 H   0  0  0  0  0  0  0  0  0  0  0  0
  1  7  1  6  0  0  0
  1  6  1  0  0  0  0
  1  2  1  0  0  0  0
  2  8  1  6  0  0  0
  2  3  1  0  0  0  0
  2 17  1  0  0  0  0
  4 10  1  0  0  0  0
  4  3  1  0  0  0  0
  5  6  1  0  0  0  0
  5 11  1  1  0  0  0
  5  4  1  0  0  0  0
  6 12  1  1  0  0  0
  9  4  1  0  0  0  0
 13 14  1  0  0  0  0
 13  1  1  0  0  0  0
 15  5  1  0  0  0  0
 16 15  1  0  0  0  0
 17 18  1  0  0  0  0
 18 23  1  0  0  0  0
 19 18  2  0  0  0  0
 19 20  1  0  0  0  0
 20 21  2  0  0  0  0
 21 22  1  0  0  0  0
 22 25  1  0  0  0  0
 23 22  2  0  0  0  0
 24 19  1  0  0  0  0
 26 27  1  0  0  0  0
 26 20  1  0  0  0  0
 26 28  1  0  0  0  0
 27 31  1  0  0  0  0
 27 28  1  0  0  0  0
 28 33  1  0  0  0  0
 29 26  1  0  0  0  0
 30 27  1  0  0  0  0
 32 28  1  0  0  0  0
 34  6  1  0  0  0  0
 35 34  1  0  0  0  0
 35 39  1  0  0  0  0
 36 35  2  0  0  0  0
 37 38  1  0  0  0  0
 38 45  2  0  0  0  0
 38 39  1  0  0  0  0
 39 40  2  0  0  0  0
 40 42  1  0  0  0  0
 40 41  1  0  0  0  0
 43 44  1  0  0  0  0
 43 42  2  0  0  0  0
 45 43  1  0  0  0  0
 46 45  1  0  0  0  0
M  END
>  <minimizedAffinity>
-5.77615547

>  <minimizedRMSD>
0.200244337

$$$$
