
 OpenBabel03242520163D

 26 28  0  0  0  0  0  0  0  0999 V2000
   45.4590   34.4390   44.2440 C   0  0  0  0  0  0  0  0  0  0  0  0
   46.4170   33.9030   43.3560 C   0  0  0  0  0  0  0  0  0  0  0  0
   47.3600   32.9770   43.8410 C   0  0  0  0  0  0  0  0  0  0  0  0
   47.2750   32.6570   45.1630 N   0  0  0  0  0  0  0  0  0  0  0  0
   46.3530   33.1870   45.9730 C   0  0  0  0  0  0  0  0  0  0  0  0
   45.4380   34.0800   45.5250 N   0  0  0  0  0  0  0  0  0  0  0  0
   46.4150   34.2060   42.3400 H   0  0  0  0  0  0  0  0  0  0  0  0
   46.3590   32.8740   47.0180 H   0  0  0  0  0  0  0  0  0  0  0  0
   49.4750   34.9440   42.8600 Cl  0  0  0  0  0  0  0  0  0  0  0  0
   49.3570   33.2240   42.4920 C   0  0  0  0  0  0  0  0  0  0  0  0
   48.3700   32.3920   42.9710 C   0  0  0  0  0  0  0  0  0  0  0  0
   48.4280   31.0700   42.5820 C   0  0  0  0  0  0  0  0  0  0  0  0
   47.6600   30.4060   42.9510 H   0  0  0  0  0  0  0  0  0  0  0  0
   49.3840   30.5440   41.7670 C   0  0  0  0  0  0  0  0  0  0  0  0
   50.3700   31.4070   41.2970 C   0  0  0  0  0  0  0  0  0  0  0  0
   51.5980   30.7100   40.2450 Cl  0  0  0  0  0  0  0  0  0  0  0  0
   50.3500   32.7340   41.6600 C   0  0  0  0  0  0  0  0  0  0  0  0
   51.1580   33.3240   41.2440 H   0  0  0  0  0  0  0  0  0  0  0  0
   44.4840   35.4020   43.6900 C   0  0  0  0  0  0  0  0  0  0  0  0
   45.1220   36.7620   43.3100 C   0  0  0  0  0  0  0  0  0  0  0  0
   44.4630   35.8520   42.3180 C   0  0  0  0  0  0  0  0  0  0  0  0
   43.5660   35.4840   44.3250 H   0  0  0  0  0  0  0  0  0  0  0  0
   44.5520   37.6300   43.6840 H   0  0  0  0  0  0  0  0  0  0  0  0
   46.2080   36.8510   43.3150 H   0  0  0  0  0  0  0  0  0  0  0  0
   43.4880   36.1270   41.8510 H   0  0  0  0  0  0  0  0  0  0  0  0
   45.1830   35.3900   41.5830 H   0  0  0  0  0  0  0  0  0  0  0  0
  1  6  1  0  0  0  0
  2  3  1  0  0  0  0
  2  1  2  0  0  0  0
  3  4  2  0  0  0  0
  4  5  1  0  0  0  0
  5  8  1  0  0  0  0
  6  5  2  0  0  0  0
  7  2  1  0  0  0  0
 10  9  1  0  0  0  0
 10 11  1  0  0  0  0
 11  3  1  0  0  0  0
 12 13  1  0  0  0  0
 12 11  2  0  0  0  0
 14 12  1  0  0  0  0
 15 17  1  0  0  0  0
 15 14  2  0  0  0  0
 16 15  1  0  0  0  0
 17 10  2  0  0  0  0
 18 17  1  0  0  0  0
 19  1  1  0  0  0  0
 19 22  1  0  0  0  0
 20 24  1  0  0  0  0
 20 23  1  0  0  0  0
 20 19  1  0  0  0  0
 21 20  1  0  0  0  0
 21 19  1  0  0  0  0
 25 21  1  0  0  0  0
 26 21  1  0  0  0  0
M  END
>  <minimizedAffinity>
-4.45960474

>  <minimizedRMSD>
1.22105348

$$$$
