
 OpenBabel03252502443D

 32 34  0  0  1  0  0  0  0  0999 V2000
   48.6560   34.6400   41.2540 C   0  0  1  0  0  0  0  0  0  0  0  0
   49.8080   34.2180   42.0980 C   0  0  0  0  0  0  0  0  0  0  0  0
   48.8800   33.2190   41.4950 C   0  0  2  0  0  0  0  0  0  0  0  0
   48.8360   35.1020   40.2440 H   0  0  0  0  0  0  0  0  0  0  0  0
   49.8590   34.4170   43.1880 H   0  0  0  0  0  0  0  0  0  0  0  0
   50.7820   34.4760   41.6360 H   0  0  0  0  0  0  0  0  0  0  0  0
   48.2850   32.4640   41.9600 H   0  0  0  0  0  0  0  0  0  0  0  0
   51.3130   31.2960   41.9510 Cl  0  0  0  0  0  0  0  0  0  0  0  0
   50.6090   31.6830   40.3970 C   0  0  0  0  0  0  0  0  0  0  0  0
   49.5270   32.5270   40.3380 C   0  0  0  0  0  0  0  0  0  0  0  0
   48.9050   32.8630   39.1560 C   0  0  0  0  0  0  0  0  0  0  0  0
   48.0570   33.5130   39.0190 H   0  0  0  0  0  0  0  0  0  0  0  0
   49.3660   32.3440   37.9430 C   0  0  0  0  0  3  0  0  0  0  0  0
   50.4640   31.4850   37.9880 C   0  0  0  0  0  0  0  0  0  0  0  0
   51.2080   30.7200   36.5860 Cl  0  0  0  0  0  0  0  0  0  0  0  0
   51.0600   31.1730   39.1970 C   0  0  0  0  0  0  0  0  0  0  0  0
   51.9280   30.5010   39.2800 H   0  0  0  0  0  0  0  0  0  0  0  0
   47.4910   35.2800   41.9470 C   0  0  0  0  0  0  0  0  0  0  0  0
   47.0470   36.1060   41.3950 H   0  0  0  0  0  0  0  0  0  0  0  0
   47.9300   35.6560   42.9250 H   0  0  0  0  0  0  0  0  0  0  0  0
   46.5210   34.1460   42.2610 C   0  0  0  0  0  0  0  0  0  0  0  0
   45.8750   33.8570   41.4450 H   0  0  0  0  0  0  0  0  0  0  0  0
   47.1480   33.3070   42.6940 H   0  0  0  0  0  0  0  0  0  0  0  0
   44.4650   35.9110   44.8640 C   0  0  0  0  0  0  0  0  0  0  0  0
   45.0740   35.6080   43.6160 C   0  0  0  0  0  0  0  0  0  0  0  0
   45.8280   34.4690   43.5420 C   0  0  0  0  0  0  0  0  0  0  0  0
   45.9600   33.6860   44.6500 N   0  0  0  0  0  0  0  0  0  0  0  0
   45.3880   33.9810   45.8040 C   0  0  0  0  0  0  0  0  0  0  0  0
   44.6430   35.0850   45.9220 N   0  0  0  0  0  0  0  0  0  0  0  0
   43.8520   36.7860   45.0260 H   0  0  0  0  0  0  0  0  0  0  0  0
   44.8330   36.3440   42.8720 H   0  0  0  0  0  0  0  0  0  0  0  0
   45.5920   33.2590   46.5770 H   0  0  0  0  0  0  0  0  0  0  0  0
  1  4  1  6  0  0  0
  1  3  1  0  0  0  0
  1 18  1  0  0  0  0
  1  2  1  0  0  0  0
  2  5  1  0  0  0  0
  3  7  1  1  0  0  0
  3  2  1  0  0  0  0
  6  2  1  0  0  0  0
  9  8  1  0  0  0  0
 10  9  1  0  0  0  0
 10  3  1  0  0  0  0
 11 10  2  0  0  0  0
 12 11  1  0  0  0  0
 13 14  2  0  0  0  0
 13 11  1  0  0  0  0
 14 16  1  0  0  0  0
 15 14  1  0  0  0  0
 16 17  1  0  0  0  0
 16  9  2  0  0  0  0
 18 21  1  0  0  0  0
 18 20  1  0  0  0  0
 19 18  1  0  0  0  0
 21 23  1  0  0  0  0
 21 26  1  0  0  0  0
 22 21  1  0  0  0  0
 24 30  1  0  0  0  0
 24 29  1  0  0  0  0
 25 24  2  0  0  0  0
 26 25  1  0  0  0  0
 26 27  2  0  0  0  0
 27 28  1  0  0  0  0
 28 29  2  0  0  0  0
 28 32  1  0  0  0  0
 31 25  1  0  0  0  0
M  END
>  <minimizedAffinity>
-4.72852325

>  <minimizedRMSD>
1.78840709

$$$$
