
 OpenBabel03252502473D

 46 49  0  0  1  0  0  0  0  0999 V2000
   48.2660   35.6500   41.6750 C   0  0  0  0  0  0  0  0  0  0  0  0
   48.3040   36.1210   42.6820 H   0  0  0  0  0  0  0  0  0  0  0  0
   48.2620   36.5180   40.9690 H   0  0  0  0  0  0  0  0  0  0  0  0
   49.4440   34.7520   41.4790 C   0  0  1  0  0  0  0  0  0  0  0  0
   50.3620   34.5300   42.6460 C   0  0  0  0  0  0  0  0  0  0  0  0
   49.4350   33.4670   42.1610 C   0  0  2  0  0  0  0  0  0  0  0  0
   49.9530   34.8970   40.5310 H   0  0  0  0  0  0  0  0  0  0  0  0
   51.4570   34.4640   42.5150 H   0  0  0  0  0  0  0  0  0  0  0  0
   50.1000   35.0900   43.5860 H   0  0  0  0  0  0  0  0  0  0  0  0
   48.7040   33.1430   42.8980 H   0  0  0  0  0  0  0  0  0  0  0  0
   50.1190   32.4120   41.4240 N   0  0  0  0  0  0  0  0  0  0  0  0
   49.5420   32.1090   40.1700 C   0  0  0  0  0  0  0  0  0  0  0  0
   50.3900   30.9990   39.5770 C   0  0  0  0  0  0  0  0  0  0  0  0
   50.3560   29.8230   40.3730 N   0  0  0  0  0  0  0  0  0  0  0  0
   50.0930   30.0570   41.7800 C   0  0  0  0  0  0  0  0  0  0  0  0
   50.7060   31.3970   42.1840 C   0  0  0  0  0  0  0  0  0  0  0  0
   49.4860   32.9690   39.5060 H   0  0  0  0  0  0  0  0  0  0  0  0
   48.5330   31.6830   40.3240 H   0  0  0  0  0  0  0  0  0  0  0  0
   51.3970   31.4210   39.3840 H   0  0  0  0  0  0  0  0  0  0  0  0
   49.9460   30.7960   38.5760 H   0  0  0  0  0  0  0  0  0  0  0  0
   51.2180   29.2500   40.2240 H   0  0  0  0  0  0  0  0  0  0  0  0
   50.6500   29.2420   42.3220 H   0  0  0  0  0  0  0  0  0  0  0  0
   49.0150   30.0410   41.9520 H   0  0  0  0  0  0  0  0  0  0  0  0
   50.6780   31.5550   43.2600 H   0  0  0  0  0  0  0  0  0  0  0  0
   51.7870   31.3020   41.8780 H   0  0  0  0  0  0  0  0  0  0  0  0
   47.0380   34.7990   41.5470 C   0  0  0  0  0  0  0  0  0  0  0  0
   47.1670   33.7850   41.2010 H   0  0  0  0  0  0  0  0  0  0  0  0
   46.3890   35.2880   40.7630 H   0  0  0  0  0  0  0  0  0  0  0  0
   44.6120   36.1050   44.0930 C   0  0  0  0  0  0  0  0  0  0  0  0
   45.3610   35.9960   42.8930 C   0  0  0  0  0  0  0  0  0  0  0  0
   46.2270   34.9440   42.8000 C   0  0  0  0  0  0  0  0  0  0  0  0
   46.3340   34.0670   43.8300 N   0  0  0  0  0  0  0  0  0  0  0  0
   45.6340   34.1810   44.9360 C   0  0  0  0  0  0  0  0  0  0  0  0
   44.7660   35.2000   45.0780 N   0  0  0  0  0  0  0  0  0  0  0  0
   43.9340   36.9260   44.1700 H   0  0  0  0  0  0  0  0  0  0  0  0
   45.2770   36.6890   42.0780 H   0  0  0  0  0  0  0  0  0  0  0  0
   47.3670   31.7280   44.4570 Cl  0  0  0  0  0  0  0  0  0  0  0  0
   46.5160   32.0850   45.9340 C   0  0  0  0  0  0  0  0  0  0  0  0
   45.7560   33.2320   46.0380 C   0  0  0  0  0  0  0  0  0  0  0  0
   45.1200   33.4270   47.2470 C   0  0  0  0  0  0  0  0  0  0  0  0
   44.5040   34.3180   47.3890 H   0  0  0  0  0  0  0  0  0  0  0  0
   45.1980   32.5660   48.3270 C   0  0  0  0  0  3  0  0  0  0  0  0
   45.9750   31.4390   48.1520 C   0  0  0  0  0  0  0  0  0  0  0  0
   46.0650   30.3490   49.5370 Cl  0  0  0  0  0  0  0  0  0  0  0  0
   46.6530   31.1630   46.9630 C   0  0  0  0  0  0  0  0  0  0  0  0
   47.2270   30.2670   46.9270 H   0  0  0  0  0  0  0  0  0  0  0  0
  1  2  1  0  0  0  0
  3  1  1  0  0  0  0
  4  7  1  6  0  0  0
  4  1  1  0  0  0  0
  4  6  1  0  0  0  0
  4  5  1  0  0  0  0
  5  9  1  0  0  0  0
  6  5  1  0  0  0  0
  6 10  1  1  0  0  0
  8  5  1  0  0  0  0
 11  6  1  0  0  0  0
 11 16  1  0  0  0  0
 12 18  1  0  0  0  0
 12 11  1  0  0  0  0
 13 12  1  0  0  0  0
 13 14  1  0  0  0  0
 14 15  1  0  0  0  0
 15 23  1  0  0  0  0
 15 16  1  0  0  0  0
 15 22  1  0  0  0  0
 16 24  1  0  0  0  0
 17 12  1  0  0  0  0
 19 13  1  0  0  0  0
 20 13  1  0  0  0  0
 21 14  1  0  0  0  0
 25 16  1  0  0  0  0
 26  1  1  0  0  0  0
 26 31  1  0  0  0  0
 27 26  1  0  0  0  0
 28 26  1  0  0  0  0
 29 35  1  0  0  0  0
 29 34  1  0  0  0  0
 30 29  2  0  0  0  0
 31 30  1  0  0  0  0
 31 32  2  0  0  0  0
 32 33  1  0  0  0  0
 33 34  2  0  0  0  0
 33 39  1  0  0  0  0
 36 30  1  0  0  0  0
 37 38  1  0  0  0  0
 38 39  2  0  0  0  0
 38 45  1  0  0  0  0
 39 40  1  0  0  0  0
 40 41  1  0  0  0  0
 40 42  2  0  0  0  0
 43 42  1  0  0  0  0
 43 44  1  0  0  0  0
 45 43  2  0  0  0  0
 46 45  1  0  0  0  0
M  END
>  <minimizedAffinity>
-5.53235149

>  <minimizedRMSD>
0.913572967

$$$$
