
 OpenBabel03252509123D

 32 35  0  0  0  0  0  0  0  0999 V2000
   39.4860   30.1630   42.2320 C   0  0  0  0  0  0  0  0  0  0  0  0
   38.4920   29.6210   41.4480 C   0  0  0  0  0  0  0  0  0  0  0  0
   37.7700   30.3930   40.5610 C   0  0  0  0  0  0  0  0  0  0  0  0
   38.0120   31.7520   40.4190 C   0  0  0  0  0  0  0  0  0  0  0  0
   37.5150   32.7760   39.6770 N   0  0  0  0  0  0  0  0  0  0  0  0
   38.1950   33.9090   40.0070 C   0  0  0  0  0  0  0  0  0  0  0  0
   39.1120   33.5710   40.9570 N   0  0  0  0  0  0  0  0  0  0  0  0
   39.0100   32.2530   41.2190 C   0  0  0  0  0  0  0  0  0  0  0  0
   39.7580   31.5260   42.1180 C   0  0  0  0  0  0  0  0  0  0  0  0
   40.0730   29.5800   42.9400 H   0  0  0  0  0  0  0  0  0  0  0  0
   36.7400   32.6410   38.9860 H   0  0  0  0  0  0  0  0  0  0  0  0
   37.9460   34.8510   39.5170 H   0  0  0  0  0  0  0  0  0  0  0  0
   40.5390   31.9770   42.7270 H   0  0  0  0  0  0  0  0  0  0  0  0
   38.5580   29.6080   37.7150 Cl  0  0  0  0  0  0  0  0  0  0  0  0
   36.9530   29.4460   38.3970 C   0  0  0  0  0  0  0  0  0  0  0  0
   36.7030   29.8380   39.7140 C   0  0  0  0  0  0  0  0  0  0  0  0
   35.4070   29.6810   40.1900 C   0  0  0  0  0  0  0  0  0  0  0  0
   35.1570   29.9720   41.2150 H   0  0  0  0  0  0  0  0  0  0  0  0
   34.3810   29.1630   39.4210 C   0  0  0  0  0  3  0  0  0  0  0  0
   34.6460   28.7830   38.1240 C   0  0  0  0  0  0  0  0  0  0  0  0
   33.3030   28.1340   37.2020 Cl  0  0  0  0  0  0  0  0  0  0  0  0
   35.9250   28.9320   37.6410 C   0  0  0  0  0  0  0  0  0  0  0  0
   36.0860   28.6210   36.6170 H   0  0  0  0  0  0  0  0  0  0  0  0
   38.4560   26.0070   40.7660 C   0  0  0  0  0  0  0  0  0  0  0  0
   37.5670   25.5310   41.7420 C   0  0  0  0  0  0  0  0  0  0  0  0
   36.9900   26.4530   42.6230 C   0  0  0  0  0  0  0  0  0  0  0  0
   37.3250   27.7770   42.4850 N   0  0  0  0  0  0  0  0  0  0  0  0
   38.1780   28.2040   41.5410 C   0  0  0  0  0  0  0  0  0  0  0  0
   38.7370   27.3280   40.6920 N   0  0  0  0  0  0  0  0  0  0  0  0
   38.8860   25.2690   40.0990 H   0  0  0  0  0  0  0  0  0  0  0  0
   37.2900   24.5020   41.8700 H   0  0  0  0  0  0  0  0  0  0  0  0
   36.2950   26.1630   43.4020 H   0  0  0  0  0  0  0  0  0  0  0  0
  1 10  1  0  0  0  0
  2 28  1  0  0  0  0
  2  1  2  0  0  0  0
  3  2  1  0  0  0  0
  4  3  2  0  0  0  0
  4  8  1  0  0  0  0
  5  6  1  0  0  0  0
  5  4  1  0  0  0  0
  6  7  2  0  0  0  0
  7  8  1  0  0  0  0
  8  9  2  0  0  0  0
  9  1  1  0  0  0  0
  9 13  1  0  0  0  0
 11  5  1  0  0  0  0
 12  6  1  0  0  0  0
 14 15  1  0  0  0  0
 15 16  1  0  0  0  0
 16 17  2  0  0  0  0
 16  3  1  0  0  0  0
 17 18  1  0  0  0  0
 19 17  1  0  0  0  0
 20 19  2  0  0  0  0
 21 20  1  0  0  0  0
 22 20  1  0  0  0  0
 22 15  2  0  0  0  0
 23 22  1  0  0  0  0
 24 25  1  0  0  0  0
 25 31  1  0  0  0  0
 25 26  2  0  0  0  0
 26 32  1  0  0  0  0
 27 26  1  0  0  0  0
 28 27  2  0  0  0  0
 29 24  2  0  0  0  0
 29 28  1  0  0  0  0
 30 24  1  0  0  0  0
M  END
>  <minimizedAffinity>
-5.6892333

$$$$

 OpenBabel03252509123D

 32 35  0  0  0  0  0  0  0  0999 V2000
   38.2530   29.2610   42.6940 C   0  0  0  0  0  0  0  0  0  0  0  0
   38.0030   29.4830   41.3580 C   0  0  0  0  0  0  0  0  0  0  0  0
   37.5550   28.4740   40.5300 C   0  0  0  0  0  0  0  0  0  0  0  0
   37.3370   27.1890   41.0060 C   0  0  0  0  0  0  0  0  0  0  0  0
   36.9180   26.0000   40.4970 N   0  0  0  0  0  0  0  0  0  0  0  0
   36.9160   25.0840   41.5050 C   0  0  0  0  0  0  0  0  0  0  0  0
   37.3370   25.7200   42.6340 N   0  0  0  0  0  0  0  0  0  0  0  0
   37.5980   27.0100   42.3420 C   0  0  0  0  0  0  0  0  0  0  0  0
   38.0450   27.9820   43.2090 C   0  0  0  0  0  0  0  0  0  0  0  0
   38.6060   30.0360   43.3720 H   0  0  0  0  0  0  0  0  0  0  0  0
   36.6570   25.8840   39.4900 H   0  0  0  0  0  0  0  0  0  0  0  0
   36.6070   24.0580   41.3020 H   0  0  0  0  0  0  0  0  0  0  0  0
   38.2350   27.7830   44.2610 H   0  0  0  0  0  0  0  0  0  0  0  0
   34.6870   29.2160   39.7830 Cl  0  0  0  0  0  0  0  0  0  0  0  0
   36.0070   29.0280   38.6490 C   0  0  0  0  0  0  0  0  0  0  0  0
   37.2830   28.6850   39.1000 C   0  0  0  0  0  0  0  0  0  0  0  0
   38.2830   28.5520   38.1440 C   0  0  0  0  0  0  0  0  0  0  0  0
   39.3010   28.2860   38.4440 H   0  0  0  0  0  0  0  0  0  0  0  0
   38.0620   28.7440   36.7920 C   0  0  0  0  0  3  0  0  0  0  0  0
   36.7960   29.0800   36.3650 C   0  0  0  0  0  0  0  0  0  0  0  0
   36.5800   29.3080   34.6400 Cl  0  0  0  0  0  0  0  0  0  0  0  0
   35.7970   29.2160   37.3010 C   0  0  0  0  0  0  0  0  0  0  0  0
   34.8200   29.4800   36.9190 H   0  0  0  0  0  0  0  0  0  0  0  0
   37.3580   32.8850   40.1180 C   0  0  0  0  0  0  0  0  0  0  0  0
   38.6320   33.2930   39.6980 C   0  0  0  0  0  0  0  0  0  0  0  0
   39.6990   32.3990   39.8430 C   0  0  0  0  0  0  0  0  0  0  0  0
   39.4410   31.1670   40.3920 N   0  0  0  0  0  0  0  0  0  0  0  0
   38.2110   30.8030   40.7850 C   0  0  0  0  0  0  0  0  0  0  0  0
   37.1820   31.6530   40.6490 N   0  0  0  0  0  0  0  0  0  0  0  0
   36.5520   33.5990   39.9920 H   0  0  0  0  0  0  0  0  0  0  0  0
   38.8600   34.2490   39.2670 H   0  0  0  0  0  0  0  0  0  0  0  0
   40.7120   32.6400   39.5420 H   0  0  0  0  0  0  0  0  0  0  0  0
  1  9  1  0  0  0  0
  1 10  1  0  0  0  0
  2  1  2  0  0  0  0
  3  4  2  0  0  0  0
  3  2  1  0  0  0  0
  4  8  1  0  0  0  0
  5  4  1  0  0  0  0
  5  6  1  0  0  0  0
  6  7  2  0  0  0  0
  8  7  1  0  0  0  0
  8  9  2  0  0  0  0
  9 13  1  0  0  0  0
 11  5  1  0  0  0  0
 12  6  1  0  0  0  0
 15 16  1  0  0  0  0
 15 14  1  0  0  0  0
 16  3  1  0  0  0  0
 17 18  1  0  0  0  0
 17 16  2  0  0  0  0
 19 17  1  0  0  0  0
 20 19  2  0  0  0  0
 20 22  1  0  0  0  0
 21 20  1  0  0  0  0
 22 15  2  0  0  0  0
 23 22  1  0  0  0  0
 24 29  1  0  0  0  0
 25 26  1  0  0  0  0
 25 24  2  0  0  0  0
 26 27  2  0  0  0  0
 27 28  1  0  0  0  0
 28  2  1  0  0  0  0
 29 28  2  0  0  0  0
 30 24  1  0  0  0  0
 31 25  1  0  0  0  0
 32 26  1  0  0  0  0
M  END
>  <minimizedAffinity>
-5.52574825

$$$$

 OpenBabel03252509123D

 32 35  0  0  0  0  0  0  0  0999 V2000
   36.9500   25.2400   41.0820 C   0  0  0  0  0  0  0  0  0  0  0  0
   37.3580   26.5410   40.8860 C   0  0  0  0  0  0  0  0  0  0  0  0
   38.5520   27.0080   41.3950 C   0  0  0  0  0  0  0  0  0  0  0  0
   39.3970   26.1880   42.1300 C   0  0  0  0  0  0  0  0  0  0  0  0
   40.5970   26.3070   42.7570 N   0  0  0  0  0  0  0  0  0  0  0  0
   40.9040   25.1040   43.3190 C   0  0  0  0  0  0  0  0  0  0  0  0
   39.8830   24.2480   43.0300 N   0  0  0  0  0  0  0  0  0  0  0  0
   38.9540   24.9000   42.3040 C   0  0  0  0  0  0  0  0  0  0  0  0
   37.7730   24.3860   41.8160 C   0  0  0  0  0  0  0  0  0  0  0  0
   36.0140   24.8430   40.6930 H   0  0  0  0  0  0  0  0  0  0  0  0
   41.1370   27.2030   42.7650 H   0  0  0  0  0  0  0  0  0  0  0  0
   41.8360   24.9880   43.8730 H   0  0  0  0  0  0  0  0  0  0  0  0
   37.4720   23.3540   41.9840 H   0  0  0  0  0  0  0  0  0  0  0  0
   37.8320   29.0040   43.5940 Cl  0  0  0  0  0  0  0  0  0  0  0  0
   38.7360   29.3850   42.1440 C   0  0  0  0  0  0  0  0  0  0  0  0
   39.0100   28.3930   41.2010 C   0  0  0  0  0  0  0  0  0  0  0  0
   39.7320   28.7650   40.0740 C   0  0  0  0  0  0  0  0  0  0  0  0
   39.9740   28.0260   39.3040 H   0  0  0  0  0  0  0  0  0  0  0  0
   40.1780   30.0580   39.8590 C   0  0  0  0  0  3  0  0  0  0  0  0
   39.8970   31.0240   40.8000 C   0  0  0  0  0  0  0  0  0  0  0  0
   40.4880   32.6410   40.4700 Cl  0  0  0  0  0  0  0  0  0  0  0  0
   39.1840   30.6670   41.9210 C   0  0  0  0  0  0  0  0  0  0  0  0
   38.9870   31.4600   42.6310 H   0  0  0  0  0  0  0  0  0  0  0  0
   34.9520   29.2010   40.0720 C   0  0  0  0  0  0  0  0  0  0  0  0
   34.9650   29.1920   38.6700 C   0  0  0  0  0  0  0  0  0  0  0  0
   35.7970   28.2750   38.0180 C   0  0  0  0  0  0  0  0  0  0  0  0
   36.5590   27.4320   38.7870 N   0  0  0  0  0  0  0  0  0  0  0  0
   36.5260   27.4620   40.1280 C   0  0  0  0  0  0  0  0  0  0  0  0
   35.7320   28.3380   40.7620 N   0  0  0  0  0  0  0  0  0  0  0  0
   34.2980   29.9230   40.5480 H   0  0  0  0  0  0  0  0  0  0  0  0
   34.3800   29.8420   38.0460 H   0  0  0  0  0  0  0  0  0  0  0  0
   35.8620   28.2080   36.9380 H   0  0  0  0  0  0  0  0  0  0  0  0
  1  9  1  0  0  0  0
  2  1  2  0  0  0  0
  2  3  1  0  0  0  0
  3  4  2  0  0  0  0
  4  8  1  0  0  0  0
  4  5  1  0  0  0  0
  5 11  1  0  0  0  0
  5  6  1  0  0  0  0
  6 12  1  0  0  0  0
  7  6  2  0  0  0  0
  8  7  1  0  0  0  0
  9 13  1  0  0  0  0
  9  8  2  0  0  0  0
 10  1  1  0  0  0  0
 15 14  1  0  0  0  0
 16  3  1  0  0  0  0
 16 15  2  0  0  0  0
 17 16  1  0  0  0  0
 18 17  1  0  0  0  0
 19 17  2  0  0  0  0
 19 20  1  0  0  0  0
 20 22  2  0  0  0  0
 21 20  1  0  0  0  0
 22 15  1  0  0  0  0
 22 23  1  0  0  0  0
 24 30  1  0  0  0  0
 24 29  1  0  0  0  0
 25 24  2  0  0  0  0
 26 25  1  0  0  0  0
 26 27  2  0  0  0  0
 27 28  1  0  0  0  0
 28 29  2  0  0  0  0
 28  2  1  0  0  0  0
 31 25  1  0  0  0  0
 32 26  1  0  0  0  0
M  END
>  <minimizedAffinity>
-5.46378899

$$$$

 OpenBabel03252509123D

 32 35  0  0  0  0  0  0  0  0999 V2000
   37.3110   33.0250   39.6980 C   0  0  0  0  0  0  0  0  0  0  0  0
   37.6140   31.6830   39.7320 C   0  0  0  0  0  0  0  0  0  0  0  0
   38.8840   31.2350   40.0340 C   0  0  0  0  0  0  0  0  0  0  0  0
   39.9160   32.1210   40.3170 C   0  0  0  0  0  0  0  0  0  0  0  0
   41.2330   32.0380   40.6400 N   0  0  0  0  0  0  0  0  0  0  0  0
   41.7120   33.3030   40.7970 C   0  0  0  0  0  0  0  0  0  0  0  0
   40.6780   34.1610   40.5670 N   0  0  0  0  0  0  0  0  0  0  0  0
   39.5720   33.4500   40.2710 C   0  0  0  0  0  0  0  0  0  0  0  0
   38.3220   33.9450   39.9770 C   0  0  0  0  0  0  0  0  0  0  0  0
   36.3190   33.4080   39.4640 H   0  0  0  0  0  0  0  0  0  0  0  0
   41.7290   31.1210   40.7350 H   0  0  0  0  0  0  0  0  0  0  0  0
   42.7590   33.4560   41.0610 H   0  0  0  0  0  0  0  0  0  0  0  0
   38.1070   35.0110   39.9560 H   0  0  0  0  0  0  0  0  0  0  0  0
   38.5990   29.8390   42.7360 Cl  0  0  0  0  0  0  0  0  0  0  0  0
   39.1390   29.0720   41.2580 C   0  0  0  0  0  0  0  0  0  0  0  0
   39.2330   29.8070   40.0750 C   0  0  0  0  0  0  0  0  0  0  0  0
   39.6690   29.1350   38.9390 C   0  0  0  0  0  0  0  0  0  0  0  0
   39.7600   29.6640   37.9860 H   0  0  0  0  0  0  0  0  0  0  0  0
   40.0050   27.7930   38.9430 C   0  0  0  0  0  3  0  0  0  0  0  0
   39.9070   27.0840   40.1200 C   0  0  0  0  0  0  0  0  0  0  0  0
   40.3470   25.3880   40.0580 Cl  0  0  0  0  0  0  0  0  0  0  0  0
   39.4760   27.7380   41.2510 C   0  0  0  0  0  0  0  0  0  0  0  0
   39.4150   27.1410   42.1510 H   0  0  0  0  0  0  0  0  0  0  0  0
   34.8830   29.2600   40.1860 C   0  0  0  0  0  0  0  0  0  0  0  0
   34.6520   28.8270   38.8720 C   0  0  0  0  0  0  0  0  0  0  0  0
   35.4330   29.3680   37.8450 C   0  0  0  0  0  0  0  0  0  0  0  0
   36.3870   30.2970   38.1780 N   0  0  0  0  0  0  0  0  0  0  0  0
   36.5870   30.6940   39.4450 C   0  0  0  0  0  0  0  0  0  0  0  0
   35.8430   30.1800   40.4360 N   0  0  0  0  0  0  0  0  0  0  0  0
   34.2630   28.8230   40.9590 H   0  0  0  0  0  0  0  0  0  0  0  0
   33.9130   28.1030   38.5860 H   0  0  0  0  0  0  0  0  0  0  0  0
   35.3150   29.0830   36.8060 H   0  0  0  0  0  0  0  0  0  0  0  0
  1  2  2  0  0  0  0
  1  9  1  0  0  0  0
  2  3  1  0  0  0  0
  3 16  1  0  0  0  0
  3  4  2  0  0  0  0
  4  5  1  0  0  0  0
  5 11  1  0  0  0  0
  5  6  1  0  0  0  0
  6 12  1  0  0  0  0
  7  6  2  0  0  0  0
  8  4  1  0  0  0  0
  8  7  1  0  0  0  0
  9  8  2  0  0  0  0
 10  1  1  0  0  0  0
 13  9  1  0  0  0  0
 15 14  1  0  0  0  0
 16 15  2  0  0  0  0
 17 19  2  0  0  0  0
 17 16  1  0  0  0  0
 18 17  1  0  0  0  0
 19 20  1  0  0  0  0
 20 22  2  0  0  0  0
 21 20  1  0  0  0  0
 22 15  1  0  0  0  0
 22 23  1  0  0  0  0
 24 29  1  0  0  0  0
 24 30  1  0  0  0  0
 25 24  2  0  0  0  0
 26 27  2  0  0  0  0
 26 25  1  0  0  0  0
 27 28  1  0  0  0  0
 28  2  1  0  0  0  0
 28 29  2  0  0  0  0
 31 25  1  0  0  0  0
 32 26  1  0  0  0  0
M  END
>  <minimizedAffinity>
-5.44461107

$$$$

 OpenBabel03252509123D

 32 35  0  0  0  0  0  0  0  0999 V2000
   39.7560   28.5270   41.8820 C   0  0  0  0  0  0  0  0  0  0  0  0
   38.6890   28.8230   41.0640 C   0  0  0  0  0  0  0  0  0  0  0  0
   37.6960   27.9000   40.8080 C   0  0  0  0  0  0  0  0  0  0  0  0
   37.7280   26.6290   41.3660 C   0  0  0  0  0  0  0  0  0  0  0  0
   36.9550   25.5120   41.3330 N   0  0  0  0  0  0  0  0  0  0  0  0
   37.5430   24.5650   42.1150 C   0  0  0  0  0  0  0  0  0  0  0  0
   38.6830   25.1100   42.6260 N   0  0  0  0  0  0  0  0  0  0  0  0
   38.8080   26.3740   42.1740 C   0  0  0  0  0  0  0  0  0  0  0  0
   39.8230   27.2600   42.4600 C   0  0  0  0  0  0  0  0  0  0  0  0
   40.5540   29.2340   42.1020 H   0  0  0  0  0  0  0  0  0  0  0  0
   36.0680   25.4620   40.7790 H   0  0  0  0  0  0  0  0  0  0  0  0
   37.0750   23.5860   42.2240 H   0  0  0  0  0  0  0  0  0  0  0  0
   40.6560   27.0030   43.1100 H   0  0  0  0  0  0  0  0  0  0  0  0
   37.9750   27.1030   37.8720 Cl  0  0  0  0  0  0  0  0  0  0  0  0
   36.5680   27.8690   38.5790 C   0  0  0  0  0  0  0  0  0  0  0  0
   36.5470   28.1910   39.9370 C   0  0  0  0  0  0  0  0  0  0  0  0
   35.3980   28.7970   40.4320 C   0  0  0  0  0  0  0  0  0  0  0  0
   35.3300   29.0700   41.4890 H   0  0  0  0  0  0  0  0  0  0  0  0
   34.3000   29.0850   39.6410 C   0  0  0  0  0  3  0  0  0  0  0  0
   34.3390   28.7600   38.3030 C   0  0  0  0  0  0  0  0  0  0  0  0
   32.9170   29.1510   37.3550 Cl  0  0  0  0  0  0  0  0  0  0  0  0
   35.4700   28.1590   37.8010 C   0  0  0  0  0  0  0  0  0  0  0  0
   35.4550   27.9240   36.7460 H   0  0  0  0  0  0  0  0  0  0  0  0
   37.8830   32.3710   40.5210 C   0  0  0  0  0  0  0  0  0  0  0  0
   38.4080   32.6000   39.2410 C   0  0  0  0  0  0  0  0  0  0  0  0
   39.0310   31.5380   38.5760 C   0  0  0  0  0  0  0  0  0  0  0  0
   39.0970   30.3250   39.2150 N   0  0  0  0  0  0  0  0  0  0  0  0
   38.5870   30.1340   40.4410 C   0  0  0  0  0  0  0  0  0  0  0  0
   37.9870   31.1460   41.0860 N   0  0  0  0  0  0  0  0  0  0  0  0
   37.4070   33.2130   41.0100 H   0  0  0  0  0  0  0  0  0  0  0  0
   38.3700   33.5390   38.7200 H   0  0  0  0  0  0  0  0  0  0  0  0
   39.4600   31.6370   37.5860 H   0  0  0  0  0  0  0  0  0  0  0  0
  1 10  1  0  0  0  0
  1  9  1  0  0  0  0
  2  1  2  0  0  0  0
  3  2  1  0  0  0  0
  3  4  2  0  0  0  0
  4  8  1  0  0  0  0
  5  4  1  0  0  0  0
  5  6  1  0  0  0  0
  6 12  1  0  0  0  0
  6  7  2  0  0  0  0
  8  9  2  0  0  0  0
  8  7  1  0  0  0  0
  9 13  1  0  0  0  0
 11  5  1  0  0  0  0
 14 15  1  0  0  0  0
 15 16  1  0  0  0  0
 16 17  2  0  0  0  0
 16  3  1  0  0  0  0
 17 18  1  0  0  0  0
 19 17  1  0  0  0  0
 20 19  2  0  0  0  0
 21 20  1  0  0  0  0
 22 20  1  0  0  0  0
 22 15  2  0  0  0  0
 23 22  1  0  0  0  0
 24 30  1  0  0  0  0
 24 29  1  0  0  0  0
 25 24  2  0  0  0  0
 26 27  2  0  0  0  0
 26 25  1  0  0  0  0
 27 28  1  0  0  0  0
 28  2  1  0  0  0  0
 28 29  2  0  0  0  0
 31 25  1  0  0  0  0
 32 26  1  0  0  0  0
M  END
>  <minimizedAffinity>
-5.29206228

$$$$

 OpenBabel03252509123D

 32 35  0  0  0  0  0  0  0  0999 V2000
   40.7090   32.2830   37.3160 C   0  0  0  0  0  0  0  0  0  0  0  0
   39.9950   31.4920   38.1890 C   0  0  0  0  0  0  0  0  0  0  0  0
   40.1310   31.6200   39.5560 C   0  0  0  0  0  0  0  0  0  0  0  0
   40.9950   32.5520   40.1140 C   0  0  0  0  0  0  0  0  0  0  0  0
   41.3670   32.9360   41.3630 N   0  0  0  0  0  0  0  0  0  0  0  0
   42.2850   33.9350   41.2450 C   0  0  0  0  0  0  0  0  0  0  0  0
   42.4720   34.1600   39.9130 N   0  0  0  0  0  0  0  0  0  0  0  0
   41.6880   33.3190   39.2100 C   0  0  0  0  0  0  0  0  0  0  0  0
   41.5880   33.2310   37.8400 C   0  0  0  0  0  0  0  0  0  0  0  0
   40.6230   32.2050   36.2330 H   0  0  0  0  0  0  0  0  0  0  0  0
   40.9720   32.4930   42.2260 H   0  0  0  0  0  0  0  0  0  0  0  0
   42.7120   34.3860   42.1410 H   0  0  0  0  0  0  0  0  0  0  0  0
   42.1630   33.8660   37.1700 H   0  0  0  0  0  0  0  0  0  0  0  0
   37.3240   32.5790   40.2900 Cl  0  0  0  0  0  0  0  0  0  0  0  0
   38.0900   31.1320   40.9120 C   0  0  0  0  0  0  0  0  0  0  0  0
   39.3810   30.7870   40.5090 C   0  0  0  0  0  0  0  0  0  0  0  0
   39.9270   29.6260   41.0420 C   0  0  0  0  0  0  0  0  0  0  0  0
   40.9350   29.3100   40.7580 H   0  0  0  0  0  0  0  0  0  0  0  0
   39.2500   28.8200   41.9400 C   0  0  0  0  0  3  0  0  0  0  0  0
   37.9770   29.1770   42.3270 C   0  0  0  0  0  0  0  0  0  0  0  0
   37.1720   28.1150   43.4670 Cl  0  0  0  0  0  0  0  0  0  0  0  0
   37.4250   30.3240   41.8060 C   0  0  0  0  0  0  0  0  0  0  0  0
   36.4240   30.5640   42.1390 H   0  0  0  0  0  0  0  0  0  0  0  0
   38.6160   28.2730   37.0630 C   0  0  0  0  0  0  0  0  0  0  0  0
   37.3020   28.6200   36.7170 C   0  0  0  0  0  0  0  0  0  0  0  0
   36.9010   29.9520   36.8730 C   0  0  0  0  0  0  0  0  0  0  0  0
   37.8190   30.8510   37.3570 N   0  0  0  0  0  0  0  0  0  0  0  0
   39.0710   30.4920   37.6800 C   0  0  0  0  0  0  0  0  0  0  0  0
   39.4630   29.2160   37.5340 N   0  0  0  0  0  0  0  0  0  0  0  0
   38.8950   27.2350   36.9320 H   0  0  0  0  0  0  0  0  0  0  0  0
   36.5660   27.9370   36.3380 H   0  0  0  0  0  0  0  0  0  0  0  0
   35.9040   30.2970   36.6270 H   0  0  0  0  0  0  0  0  0  0  0  0
  1  9  2  0  0  0  0
  1  2  1  0  0  0  0
  2  3  2  0  0  0  0
  3  4  1  0  0  0  0
  3 16  1  0  0  0  0
  4  5  1  0  0  0  0
  5 11  1  0  0  0  0
  6  5  1  0  0  0  0
  6 12  1  0  0  0  0
  7  6  2  0  0  0  0
  8  7  1  0  0  0  0
  8  4  2  0  0  0  0
  9  8  1  0  0  0  0
 10  1  1  0  0  0  0
 13  9  1  0  0  0  0
 14 15  1  0  0  0  0
 15 22  1  0  0  0  0
 16 15  2  0  0  0  0
 16 17  1  0  0  0  0
 17 19  2  0  0  0  0
 18 17  1  0  0  0  0
 19 20  1  0  0  0  0
 20 21  1  0  0  0  0
 22 23  1  0  0  0  0
 22 20  2  0  0  0  0
 24 29  1  0  0  0  0
 25 26  1  0  0  0  0
 25 24  2  0  0  0  0
 26 27  2  0  0  0  0
 27 28  1  0  0  0  0
 28  2  1  0  0  0  0
 29 28  2  0  0  0  0
 30 24  1  0  0  0  0
 31 25  1  0  0  0  0
 32 26  1  0  0  0  0
M  END
>  <minimizedAffinity>
-5.28717518

$$$$

 OpenBabel03252509123D

 32 35  0  0  0  0  0  0  0  0999 V2000
   36.2730   26.3630   39.0390 C   0  0  0  0  0  0  0  0  0  0  0  0
   36.7930   27.5420   39.5220 C   0  0  0  0  0  0  0  0  0  0  0  0
   36.8160   28.6900   38.7560 C   0  0  0  0  0  0  0  0  0  0  0  0
   36.3160   28.7070   37.4610 C   0  0  0  0  0  0  0  0  0  0  0  0
   36.1820   29.6170   36.4610 N   0  0  0  0  0  0  0  0  0  0  0  0
   35.5950   28.9990   35.3990 C   0  0  0  0  0  0  0  0  0  0  0  0
   35.3700   27.7020   35.7570 N   0  0  0  0  0  0  0  0  0  0  0  0
   35.8070   27.5110   37.0170 C   0  0  0  0  0  0  0  0  0  0  0  0
   35.7610   26.3400   37.7420 C   0  0  0  0  0  0  0  0  0  0  0  0
   36.2410   25.4420   39.6190 H   0  0  0  0  0  0  0  0  0  0  0  0
   36.4990   30.6090   36.5620 H   0  0  0  0  0  0  0  0  0  0  0  0
   35.3970   29.5620   34.4870 H   0  0  0  0  0  0  0  0  0  0  0  0
   35.3450   25.4200   37.3380 H   0  0  0  0  0  0  0  0  0  0  0  0
   39.7870   29.1800   38.2400 Cl  0  0  0  0  0  0  0  0  0  0  0  0
   38.7120   30.2880   39.0660 C   0  0  0  0  0  0  0  0  0  0  0  0
   37.3670   29.9620   39.2490 C   0  0  0  0  0  0  0  0  0  0  0  0
   36.5710   30.8870   39.9130 C   0  0  0  0  0  0  0  0  0  0  0  0
   35.5090   30.6810   40.0820 H   0  0  0  0  0  0  0  0  0  0  0  0
   37.0560   32.0920   40.3890 C   0  0  0  0  0  3  0  0  0  0  0  0
   38.3860   32.3960   40.2010 C   0  0  0  0  0  0  0  0  0  0  0  0
   38.9390   33.9370   40.8280 Cl  0  0  0  0  0  0  0  0  0  0  0  0
   39.1850   31.4890   39.5440 C   0  0  0  0  0  0  0  0  0  0  0  0
   40.2220   31.7710   39.4200 H   0  0  0  0  0  0  0  0  0  0  0  0
   39.1660   27.4300   42.3310 C   0  0  0  0  0  0  0  0  0  0  0  0
   38.3420   27.7280   43.4250 C   0  0  0  0  0  0  0  0  0  0  0  0
   36.9820   27.9640   43.1910 C   0  0  0  0  0  0  0  0  0  0  0  0
   36.5270   27.8920   41.8980 N   0  0  0  0  0  0  0  0  0  0  0  0
   37.3380   27.6040   40.8690 C   0  0  0  0  0  0  0  0  0  0  0  0
   38.6430   27.3760   41.0840 N   0  0  0  0  0  0  0  0  0  0  0  0
   40.2130   27.2520   42.5450 H   0  0  0  0  0  0  0  0  0  0  0  0
   38.6730   27.7910   44.4450 H   0  0  0  0  0  0  0  0  0  0  0  0
   36.2830   28.2000   43.9840 H   0  0  0  0  0  0  0  0  0  0  0  0
  1  2  1  0  0  0  0
  1 10  1  0  0  0  0
  2 28  1  0  0  0  0
  3 16  1  0  0  0  0
  3  2  2  0  0  0  0
  4  3  1  0  0  0  0
  5 11  1  0  0  0  0
  5  4  1  0  0  0  0
  6  7  2  0  0  0  0
  6  5  1  0  0  0  0
  7  8  1  0  0  0  0
  8  4  2  0  0  0  0
  8  9  1  0  0  0  0
  9  1  2  0  0  0  0
 12  6  1  0  0  0  0
 13  9  1  0  0  0  0
 14 15  1  0  0  0  0
 15 16  2  0  0  0  0
 15 22  1  0  0  0  0
 16 17  1  0  0  0  0
 17 18  1  0  0  0  0
 17 19  2  0  0  0  0
 20 19  1  0  0  0  0
 20 21  1  0  0  0  0
 22 20  2  0  0  0  0
 23 22  1  0  0  0  0
 24 30  1  0  0  0  0
 24 25  1  0  0  0  0
 25 31  1  0  0  0  0
 26 25  2  0  0  0  0
 26 32  1  0  0  0  0
 27 26  1  0  0  0  0
 28 29  1  0  0  0  0
 28 27  2  0  0  0  0
 29 24  2  0  0  0  0
M  END
>  <minimizedAffinity>
-5.26947689

$$$$

 OpenBabel03252509123D

 32 35  0  0  0  0  0  0  0  0999 V2000
   36.9790   24.9160   40.1840 C   0  0  0  0  0  0  0  0  0  0  0  0
   37.1900   26.2720   40.2950 C   0  0  0  0  0  0  0  0  0  0  0  0
   36.5850   27.1700   39.4390 C   0  0  0  0  0  0  0  0  0  0  0  0
   35.7350   26.7460   38.4270 C   0  0  0  0  0  0  0  0  0  0  0  0
   35.0000   27.3250   37.4420 N   0  0  0  0  0  0  0  0  0  0  0  0
   34.3600   26.3390   36.7540 C   0  0  0  0  0  0  0  0  0  0  0  0
   34.7100   25.1520   37.3250 N   0  0  0  0  0  0  0  0  0  0  0  0
   35.5520   25.3870   38.3500 C   0  0  0  0  0  0  0  0  0  0  0  0
   36.1320   24.4520   39.1790 C   0  0  0  0  0  0  0  0  0  0  0  0
   37.4420   24.1840   40.8440 H   0  0  0  0  0  0  0  0  0  0  0  0
   34.9760   28.3610   37.2970 H   0  0  0  0  0  0  0  0  0  0  0  0
   33.7110   26.5970   35.9160 H   0  0  0  0  0  0  0  0  0  0  0  0
   35.9490   23.3850   39.0720 H   0  0  0  0  0  0  0  0  0  0  0  0
   38.7830   28.3500   37.6750 Cl  0  0  0  0  0  0  0  0  0  0  0  0
   37.7730   29.2650   38.7740 C   0  0  0  0  0  0  0  0  0  0  0  0
   36.7950   28.6230   39.5360 C   0  0  0  0  0  0  0  0  0  0  0  0
   36.0300   29.4110   40.3870 C   0  0  0  0  0  0  0  0  0  0  0  0
   35.2490   28.9570   41.0060 H   0  0  0  0  0  0  0  0  0  0  0  0
   36.2000   30.7790   40.5020 C   0  0  0  0  0  3  0  0  0  0  0  0
   37.1710   31.3960   39.7430 C   0  0  0  0  0  0  0  0  0  0  0  0
   37.3380   33.1300   39.9350 Cl  0  0  0  0  0  0  0  0  0  0  0  0
   37.9350   30.6270   38.8960 C   0  0  0  0  0  0  0  0  0  0  0  0
   38.6840   31.1540   38.3210 H   0  0  0  0  0  0  0  0  0  0  0  0
   40.1980   27.5000   42.0200 C   0  0  0  0  0  0  0  0  0  0  0  0
   39.7080   27.7820   43.3040 C   0  0  0  0  0  0  0  0  0  0  0  0
   38.3530   27.5490   43.5650 C   0  0  0  0  0  0  0  0  0  0  0  0
   37.5730   27.0560   42.5480 N   0  0  0  0  0  0  0  0  0  0  0  0
   38.0690   26.7940   41.3290 C   0  0  0  0  0  0  0  0  0  0  0  0
   39.3670   27.0140   41.0700 N   0  0  0  0  0  0  0  0  0  0  0  0
   41.2510   27.6900   41.8490 H   0  0  0  0  0  0  0  0  0  0  0  0
   40.2960   28.1680   44.1150 H   0  0  0  0  0  0  0  0  0  0  0  0
   37.9000   27.7410   44.5310 H   0  0  0  0  0  0  0  0  0  0  0  0
  1  2  1  0  0  0  0
  1 10  1  0  0  0  0
  2 28  1  0  0  0  0
  3 16  1  0  0  0  0
  3  2  2  0  0  0  0
  4  3  1  0  0  0  0
  5  4  1  0  0  0  0
  6  7  2  0  0  0  0
  6  5  1  0  0  0  0
  7  8  1  0  0  0  0
  8  4  2  0  0  0  0
  8  9  1  0  0  0  0
  9  1  2  0  0  0  0
 11  5  1  0  0  0  0
 12  6  1  0  0  0  0
 13  9  1  0  0  0  0
 14 15  1  0  0  0  0
 15 22  2  0  0  0  0
 15 16  1  0  0  0  0
 16 17  2  0  0  0  0
 17 19  1  0  0  0  0
 17 18  1  0  0  0  0
 20 21  1  0  0  0  0
 20 19  2  0  0  0  0
 22 20  1  0  0  0  0
 23 22  1  0  0  0  0
 24 25  1  0  0  0  0
 25 26  2  0  0  0  0
 25 31  1  0  0  0  0
 26 32  1  0  0  0  0
 27 26  1  0  0  0  0
 28 27  2  0  0  0  0
 29 28  1  0  0  0  0
 29 24  2  0  0  0  0
 30 24  1  0  0  0  0
M  END
>  <minimizedAffinity>
-5.22846556

$$$$

 OpenBabel03252509123D

 32 35  0  0  0  0  0  0  0  0999 V2000
   36.5900   25.7490   39.8960 C   0  0  0  0  0  0  0  0  0  0  0  0
   36.6260   27.1050   39.6590 C   0  0  0  0  0  0  0  0  0  0  0  0
   37.3320   27.9630   40.4780 C   0  0  0  0  0  0  0  0  0  0  0  0
   38.0380   27.4970   41.5790 C   0  0  0  0  0  0  0  0  0  0  0  0
   38.8090   28.0310   42.5610 N   0  0  0  0  0  0  0  0  0  0  0  0
   39.2280   27.0200   43.3710 C   0  0  0  0  0  0  0  0  0  0  0  0
   38.7070   25.8610   42.8770 N   0  0  0  0  0  0  0  0  0  0  0  0
   37.9760   26.1400   41.7800 C   0  0  0  0  0  0  0  0  0  0  0  0
   37.2870   25.2430   40.9930 C   0  0  0  0  0  0  0  0  0  0  0  0
   36.0420   25.0480   39.2680 H   0  0  0  0  0  0  0  0  0  0  0  0
   39.0060   29.0580   42.6220 H   0  0  0  0  0  0  0  0  0  0  0  0
   39.8650   27.2410   44.2280 H   0  0  0  0  0  0  0  0  0  0  0  0
   37.2730   24.1760   41.2000 H   0  0  0  0  0  0  0  0  0  0  0  0
   39.5470   28.9700   38.6300 Cl  0  0  0  0  0  0  0  0  0  0  0  0
   38.3560   29.9810   39.4210 C   0  0  0  0  0  0  0  0  0  0  0  0
   37.3850   29.4140   40.2480 C   0  0  0  0  0  0  0  0  0  0  0  0
   36.4720   30.2760   40.8430 C   0  0  0  0  0  0  0  0  0  0  0  0
   35.6900   29.8840   41.5000 H   0  0  0  0  0  0  0  0  0  0  0  0
   36.4930   31.6460   40.6480 C   0  0  0  0  0  3  0  0  0  0  0  0
   37.4590   32.1880   39.8290 C   0  0  0  0  0  0  0  0  0  0  0  0
   37.4330   33.9290   39.6230 Cl  0  0  0  0  0  0  0  0  0  0  0  0
   38.3690   31.3450   39.2330 C   0  0  0  0  0  0  0  0  0  0  0  0
   39.1080   31.8160   38.6000 H   0  0  0  0  0  0  0  0  0  0  0  0
   35.8230   28.2160   36.2460 C   0  0  0  0  0  0  0  0  0  0  0  0
   34.5320   28.7410   36.4030 C   0  0  0  0  0  0  0  0  0  0  0  0
   33.9500   28.7090   37.6750 C   0  0  0  0  0  0  0  0  0  0  0  0
   34.6750   28.1640   38.7050 N   0  0  0  0  0  0  0  0  0  0  0  0
   35.9100   27.6690   38.5270 C   0  0  0  0  0  0  0  0  0  0  0  0
   36.4760   27.6950   37.3100 N   0  0  0  0  0  0  0  0  0  0  0  0
   36.2460   28.2550   35.2500 H   0  0  0  0  0  0  0  0  0  0  0  0
   33.9440   29.1710   35.6150 H   0  0  0  0  0  0  0  0  0  0  0  0
   32.9570   29.0950   37.8760 H   0  0  0  0  0  0  0  0  0  0  0  0
  1  9  1  0  0  0  0
  2  1  2  0  0  0  0
  2  3  1  0  0  0  0
  3  4  2  0  0  0  0
  4  8  1  0  0  0  0
  4  5  1  0  0  0  0
  5 11  1  0  0  0  0
  5  6  1  0  0  0  0
  6 12  1  0  0  0  0
  7  6  2  0  0  0  0
  8  7  1  0  0  0  0
  9 13  1  0  0  0  0
  9  8  2  0  0  0  0
 10  1  1  0  0  0  0
 14 15  1  0  0  0  0
 15 16  1  0  0  0  0
 16  3  1  0  0  0  0
 16 17  2  0  0  0  0
 17 18  1  0  0  0  0
 19 17  1  0  0  0  0
 20 19  2  0  0  0  0
 21 20  1  0  0  0  0
 22 15  2  0  0  0  0
 22 20  1  0  0  0  0
 23 22  1  0  0  0  0
 24 25  2  0  0  0  0
 24 29  1  0  0  0  0
 25 26  1  0  0  0  0
 26 32  1  0  0  0  0
 26 27  2  0  0  0  0
 28 27  1  0  0  0  0
 28  2  1  0  0  0  0
 29 28  2  0  0  0  0
 30 24  1  0  0  0  0
 31 25  1  0  0  0  0
M  END
>  <minimizedAffinity>
-5.22572374

$$$$
