
 OpenBabel03242523543D

 46 49  0  0  1  0  0  0  0  0999 V2000
   42.7800   34.4320   38.8630 C   0  0  1  0  0  0  0  0  0  0  0  0
   42.9770   35.1980   40.1620 C   0  0  1  0  0  0  0  0  0  0  0  0
   41.7040   35.5540   40.6590 O   0  0  0  0  0  0  0  0  0  0  0  0
   40.7990   35.8710   39.6420 C   0  0  0  0  0  0  0  0  0  0  0  0
   40.4110   34.6550   38.8240 C   0  0  2  0  0  0  0  0  0  0  0  0
   41.5520   33.6040   39.0470 C   0  0  1  0  0  0  0  0  0  0  0  0
   43.6830   33.8350   38.6180 H   0  0  0  0  0  0  0  0  0  0  0  0
   43.6240   36.0760   40.0570 H   0  0  0  0  0  0  0  0  0  0  0  0
   41.1620   36.7000   39.0020 H   0  0  0  0  0  0  0  0  0  0  0  0
   39.8930   36.2110   40.1610 H   0  0  0  0  0  0  0  0  0  0  0  0
   39.4500   34.2010   39.1380 H   0  0  0  0  0  0  0  0  0  0  0  0
   41.3240   33.4560   40.1530 H   0  0  0  0  0  0  0  0  0  0  0  0
   42.6270   35.3150   37.7830 O   0  0  0  0  0  0  0  0  0  0  0  0
   43.3090   36.0320   37.8300 H   0  0  0  0  0  0  0  0  0  0  0  0
   40.4550   34.9600   37.4750 O   0  0  0  0  0  0  0  0  0  0  0  0
   39.6470   35.4680   37.2350 H   0  0  0  0  0  0  0  0  0  0  0  0
   43.4390   34.2470   41.0850 O   0  0  0  0  0  0  0  0  0  0  0  0
   44.5700   34.3570   41.7920 C   0  0  0  0  0  0  0  0  0  0  0  0
   45.8120   34.4780   41.1530 C   0  0  0  0  0  0  0  0  0  0  0  0
   46.9540   34.5880   41.9260 C   0  0  0  0  0  0  0  0  0  0  0  0
   46.8380   34.5770   43.3030 N   0  0  0  0  0  0  0  0  0  0  0  0
   45.6230   34.4580   43.8890 C   0  0  0  0  0  0  0  0  0  0  0  0
   44.4990   34.3490   43.1340 N   0  0  0  0  0  0  0  0  0  0  0  0
   45.9110   34.4870   40.0670 H   0  0  0  0  0  0  0  0  0  0  0  0
   45.5780   34.4530   44.9680 H   0  0  0  0  0  0  0  0  0  0  0  0
   48.3150   34.6980   41.3100 C   0  0  0  0  0  0  0  0  0  0  0  0
   49.0550   36.0170   41.5170 C   0  0  0  0  0  0  0  0  0  0  0  0
   49.4910   34.6680   42.1200 C   0  0  0  0  0  0  0  0  0  0  0  0
   48.3420   34.2960   40.2620 H   0  0  0  0  0  0  0  0  0  0  0  0
   49.6890   36.3210   40.6630 H   0  0  0  0  0  0  0  0  0  0  0  0
   48.5930   36.7660   42.1750 H   0  0  0  0  0  0  0  0  0  0  0  0
   50.4630   34.2590   41.8200 H   0  0  0  0  0  0  0  0  0  0  0  0
   49.3580   34.6500   43.2330 H   0  0  0  0  0  0  0  0  0  0  0  0
   41.3510   32.5940   38.1850 O   0  0  0  0  0  0  0  0  0  0  0  0
   40.6440   31.4650   38.2850 C   0  0  0  0  0  0  0  0  0  0  0  0
   39.8380   31.0740   37.2990 O   0  0  0  0  0  0  0  0  0  0  0  0
   43.0110   29.6280   38.7200 Cl  0  0  0  0  0  0  0  0  0  0  0  0
   41.5400   29.5210   39.6850 C   0  0  0  0  0  0  0  0  0  0  0  0
   40.5430   30.4180   39.3680 C   0  0  0  0  0  0  0  0  0  0  0  0
   39.4350   30.2700   40.1630 C   0  0  0  0  0  0  0  0  0  0  0  0
   38.5670   30.9110   40.0280 H   0  0  0  0  0  0  0  0  0  0  0  0
   39.3350   29.3430   41.1490 C   0  0  0  0  0  3  0  0  0  0  0  0
   40.3670   28.4900   41.4010 C   0  0  0  0  0  0  0  0  0  0  0  0
   40.2350   27.3040   42.6650 Cl  0  0  0  0  0  0  0  0  0  0  0  0
   41.5250   28.5570   40.6590 C   0  0  0  0  0  0  0  0  0  0  0  0
   42.3610   27.9130   40.8160 H   0  0  0  0  0  0  0  0  0  0  0  0
  1  7  1  6  0  0  0
  1  6  1  0  0  0  0
  1  2  1  0  0  0  0
  2  8  1  6  0  0  0
  2  3  1  0  0  0  0
  2 17  1  0  0  0  0
  4 10  1  0  0  0  0
  4  3  1  0  0  0  0
  5  6  1  0  0  0  0
  5 11  1  1  0  0  0
  5  4  1  0  0  0  0
  6 12  1  1  0  0  0
  9  4  1  0  0  0  0
 13 14  1  0  0  0  0
 13  1  1  0  0  0  0
 15  5  1  0  0  0  0
 16 15  1  0  0  0  0
 17 18  1  0  0  0  0
 18 23  1  0  0  0  0
 19 18  2  0  0  0  0
 19 20  1  0  0  0  0
 20 21  2  0  0  0  0
 21 22  1  0  0  0  0
 22 25  1  0  0  0  0
 23 22  2  0  0  0  0
 24 19  1  0  0  0  0
 26 27  1  0  0  0  0
 26 20  1  0  0  0  0
 26 28  1  0  0  0  0
 27 28  1  0  0  0  0
 27 31  1  0  0  0  0
 28 33  1  0  0  0  0
 29 26  1  0  0  0  0
 30 27  1  0  0  0  0
 32 28  1  0  0  0  0
 34 35  1  0  0  0  0
 34  6  1  0  0  0  0
 35 39  1  0  0  0  0
 36 35  2  0  0  0  0
 37 38  1  0  0  0  0
 38 45  1  0  0  0  0
 39 38  2  0  0  0  0
 39 40  1  0  0  0  0
 40 42  2  0  0  0  0
 41 40  1  0  0  0  0
 42 43  1  0  0  0  0
 43 44  1  0  0  0  0
 45 46  1  0  0  0  0
 45 43  2  0  0  0  0
M  END
>  <minimizedAffinity>
-5.97997427

>  <minimizedRMSD>
1.37816489

$$$$
