
 OpenBabel03252502473D

 46 49  0  0  1  0  0  0  0  0999 V2000
   48.4010   35.5300   41.8430 C   0  0  0  0  0  0  0  0  0  0  0  0
   48.4730   35.8570   42.9040 H   0  0  0  0  0  0  0  0  0  0  0  0
   48.5400   36.4740   41.2580 H   0  0  0  0  0  0  0  0  0  0  0  0
   49.4460   34.5060   41.5430 C   0  0  1  0  0  0  0  0  0  0  0  0
   50.5180   34.2740   42.5680 C   0  0  0  0  0  0  0  0  0  0  0  0
   49.4330   33.2790   42.3240 C   0  0  2  0  0  0  0  0  0  0  0  0
   49.8050   34.5320   40.5180 H   0  0  0  0  0  0  0  0  0  0  0  0
   51.5670   34.0880   42.2740 H   0  0  0  0  0  0  0  0  0  0  0  0
   50.4640   34.9210   43.4860 H   0  0  0  0  0  0  0  0  0  0  0  0
   48.8060   33.0830   43.1910 H   0  0  0  0  0  0  0  0  0  0  0  0
   49.8920   32.1110   41.5820 N   0  0  0  0  0  0  0  0  0  0  0  0
   49.5540   32.1240   40.2100 C   0  0  0  0  0  0  0  0  0  0  0  0
   50.1120   30.8370   39.6300 C   0  0  0  0  0  0  0  0  0  0  0  0
   49.5170   29.6890   40.2190 N   0  0  0  0  0  0  0  0  0  0  0  0
   49.0270   29.8920   41.5690 C   0  0  0  0  0  0  0  0  0  0  0  0
   49.9280   30.9010   42.2800 C   0  0  0  0  0  0  0  0  0  0  0  0
   49.9320   32.9980   39.6840 H   0  0  0  0  0  0  0  0  0  0  0  0
   48.4540   32.0650   40.1030 H   0  0  0  0  0  0  0  0  0  0  0  0
   51.2170   30.8960   39.6990 H   0  0  0  0  0  0  0  0  0  0  0  0
   49.8700   30.8780   38.5440 H   0  0  0  0  0  0  0  0  0  0  0  0
   50.1590   28.8650   40.1540 H   0  0  0  0  0  0  0  0  0  0  0  0
   49.1500   28.8950   42.0790 H   0  0  0  0  0  0  0  0  0  0  0  0
   47.9920   30.2390   41.5270 H   0  0  0  0  0  0  0  0  0  0  0  0
   49.7050   30.9770   43.3410 H   0  0  0  0  0  0  0  0  0  0  0  0
   50.9610   30.4600   42.1750 H   0  0  0  0  0  0  0  0  0  0  0  0
   47.0700   34.8880   41.5890 C   0  0  0  0  0  0  0  0  0  0  0  0
   47.0670   33.9090   41.1360 H   0  0  0  0  0  0  0  0  0  0  0  0
   46.5310   35.5480   40.8470 H   0  0  0  0  0  0  0  0  0  0  0  0
   44.6300   36.1870   44.1250 C   0  0  0  0  0  0  0  0  0  0  0  0
   45.4030   36.0930   42.9390 C   0  0  0  0  0  0  0  0  0  0  0  0
   46.2360   35.0170   42.8280 C   0  0  0  0  0  0  0  0  0  0  0  0
   46.2910   34.1020   43.8290 N   0  0  0  0  0  0  0  0  0  0  0  0
   45.5690   34.2020   44.9230 C   0  0  0  0  0  0  0  0  0  0  0  0
   44.7320   35.2440   45.0810 N   0  0  0  0  0  0  0  0  0  0  0  0
   43.9780   37.0270   44.2160 H   0  0  0  0  0  0  0  0  0  0  0  0
   45.3600   36.8170   42.1470 H   0  0  0  0  0  0  0  0  0  0  0  0
   46.8980   31.5460   44.2660 Cl  0  0  0  0  0  0  0  0  0  0  0  0
   46.2150   31.9740   45.8110 C   0  0  0  0  0  0  0  0  0  0  0  0
   45.6350   33.2130   45.9940 C   0  0  0  0  0  0  0  0  0  0  0  0
   45.1240   33.4580   47.2500 C   0  0  0  0  0  0  0  0  0  0  0  0
   44.6520   34.4210   47.4570 H   0  0  0  0  0  0  0  0  0  0  0  0
   45.1560   32.5630   48.3050 C   0  0  0  0  0  3  0  0  0  0  0  0
   45.7500   31.3440   48.0510 C   0  0  0  0  0  0  0  0  0  0  0  0
   45.7860   30.2120   49.4020 Cl  0  0  0  0  0  0  0  0  0  0  0  0
   46.2950   31.0120   46.8070 C   0  0  0  0  0  0  0  0  0  0  0  0
   46.7320   30.0460   46.7100 H   0  0  0  0  0  0  0  0  0  0  0  0
  1  2  1  0  0  0  0
  3  1  1  0  0  0  0
  4  7  1  6  0  0  0
  4  1  1  0  0  0  0
  4  6  1  0  0  0  0
  4  5  1  0  0  0  0
  5  9  1  0  0  0  0
  6  5  1  0  0  0  0
  6 10  1  1  0  0  0
  8  5  1  0  0  0  0
 11 16  1  0  0  0  0
 11  6  1  0  0  0  0
 12 11  1  0  0  0  0
 13 19  1  0  0  0  0
 13 12  1  0  0  0  0
 13 14  1  0  0  0  0
 14 15  1  0  0  0  0
 15 22  1  0  0  0  0
 15 16  1  0  0  0  0
 16 24  1  0  0  0  0
 17 12  1  0  0  0  0
 18 12  1  0  0  0  0
 20 13  1  0  0  0  0
 21 14  1  0  0  0  0
 23 15  1  0  0  0  0
 25 16  1  0  0  0  0
 26  1  1  0  0  0  0
 26 31  1  0  0  0  0
 27 26  1  0  0  0  0
 28 26  1  0  0  0  0
 29 35  1  0  0  0  0
 29 34  1  0  0  0  0
 30 29  2  0  0  0  0
 31 30  1  0  0  0  0
 31 32  2  0  0  0  0
 32 33  1  0  0  0  0
 33 34  2  0  0  0  0
 33 39  1  0  0  0  0
 36 30  1  0  0  0  0
 37 38  1  0  0  0  0
 38 39  2  0  0  0  0
 38 45  1  0  0  0  0
 39 40  1  0  0  0  0
 40 41  1  0  0  0  0
 40 42  2  0  0  0  0
 43 42  1  0  0  0  0
 43 44  1  0  0  0  0
 45 43  2  0  0  0  0
 46 45  1  0  0  0  0
M  END
>  <minimizedAffinity>
-5.49590826

>  <minimizedRMSD>
0.909138441

$$$$
