
 OpenBabel03242512373D

 35 38  0  0  0  0  0  0  0  0999 V2000
   46.8930   34.7610   42.8750 C   0  0  0  0  0  0  0  0  0  0  0  0
   45.7100   35.4940   43.0480 C   0  0  0  0  0  0  0  0  0  0  0  0
   44.9220   35.1640   44.1600 C   0  0  0  0  0  0  0  0  0  0  0  0
   45.3500   34.1630   44.9920 N   0  0  0  0  0  0  0  0  0  0  0  0
   46.4990   33.4940   44.7700 C   0  0  0  0  0  0  0  0  0  0  0  0
   47.2670   33.8030   43.7040 N   0  0  0  0  0  0  0  0  0  0  0  0
   45.3370   36.2840   42.4230 H   0  0  0  0  0  0  0  0  0  0  0  0
   43.9950   35.6760   44.3720 H   0  0  0  0  0  0  0  0  0  0  0  0
   47.1590   30.9180   43.3920 Cl  0  0  0  0  0  0  0  0  0  0  0  0
   47.2810   31.1870   45.1150 C   0  0  0  0  0  0  0  0  0  0  0  0
   46.9510   32.4250   45.6640 C   0  0  0  0  0  0  0  0  0  0  0  0
   47.0500   32.6320   47.0360 C   0  0  0  0  0  0  0  0  0  0  0  0
   46.7810   33.6110   47.4080 H   0  0  0  0  0  0  0  0  0  0  0  0
   47.4820   31.5900   47.8320 C   0  0  0  0  0  0  0  0  0  0  0  0
   47.8220   30.3470   47.3420 C   0  0  0  0  0  0  0  0  0  0  0  0
   48.3600   29.0740   48.4050 Cl  0  0  0  0  0  0  0  0  0  0  0  0
   47.7110   30.1760   45.9780 C   0  0  0  0  0  0  0  0  0  0  0  0
   47.9800   29.1950   45.5950 H   0  0  0  0  0  0  0  0  0  0  0  0
   47.6800   35.1110   41.7390 C   0  0  0  0  0  0  0  0  0  0  0  0
   48.5920   35.9760   41.7010 O   0  0  0  0  0  0  0  0  0  0  0  0
   46.3290   33.6890   40.1510 C   0  0  0  0  0  0  0  0  0  0  0  0
   47.4720   34.4460   40.4450 C   0  0  0  0  0  0  0  0  0  0  0  0
   48.4310   34.5650   39.4730 C   0  0  0  0  0  0  0  0  0  0  0  0
   48.3550   33.9930   38.2160 C   0  0  0  0  0  0  0  0  0  0  0  0
   49.1570   33.9850   37.1400 N   0  0  0  0  0  0  0  0  0  0  0  0
   48.5930   33.2660   36.1710 C   0  0  0  0  0  0  0  0  0  0  0  0
   47.3690   32.7860   36.6440 C   0  0  0  0  0  0  0  0  0  0  0  0
   47.2200   33.2500   37.9430 C   0  0  0  0  0  0  0  0  0  0  0  0
   46.2340   33.1040   38.8900 C   0  0  0  0  0  0  0  0  0  0  0  0
   45.5830   33.6020   40.9200 H   0  0  0  0  0  0  0  0  0  0  0  0
   49.3630   35.1390   39.6110 H   0  0  0  0  0  0  0  0  0  0  0  0
   50.0900   34.4660   37.0540 H   0  0  0  0  0  0  0  0  0  0  0  0
   48.9320   33.0370   35.1800 H   0  0  0  0  0  0  0  0  0  0  0  0
   46.6290   32.1700   36.1490 H   0  0  0  0  0  0  0  0  0  0  0  0
   45.3500   32.5230   38.6730 H   0  0  0  0  0  0  0  0  0  0  0  0
  1  2  2  0  0  0  0
  1  6  1  0  0  0  0
  2  3  1  0  0  0  0
  3  8  1  0  0  0  0
  3  4  2  0  0  0  0
  5  4  1  0  0  0  0
  5 11  1  0  0  0  0
  6  5  2  0  0  0  0
  7  2  1  0  0  0  0
  9 10  1  0  0  0  0
 10 11  2  0  0  0  0
 10 17  1  0  0  0  0
 11 12  1  0  0  0  0
 12 13  1  0  0  0  0
 12 14  2  0  0  0  0
 15 14  1  0  0  0  0
 15 16  1  0  0  0  0
 17 15  2  0  0  0  0
 18 17  1  0  0  0  0
 19  1  1  0  0  0  0
 20 19  2  0  0  0  0
 21 22  1  0  0  0  0
 21 30  1  0  0  0  0
 22 19  1  0  0  0  0
 23 31  1  0  0  0  0
 23 22  2  0  0  0  0
 24 23  1  0  0  0  0
 25 24  1  0  0  0  0
 26 27  2  0  0  0  0
 26 25  1  0  0  0  0
 27 28  1  0  0  0  0
 28 24  2  0  0  0  0
 28 29  1  0  0  0  0
 29 21  2  0  0  0  0
 32 25  1  0  0  0  0
 33 26  1  0  0  0  0
 34 27  1  0  0  0  0
 35 29  1  0  0  0  0
M  END
>  <minimizedAffinity>
-6.50663185

>  <minimizedRMSD>
0.700498998

$$$$
