
 OpenBabel03252504493D

 25 26  0  0  0  0  0  0  0  0999 V2000
   46.8510   34.8750   42.6980 C   0  0  0  0  0  0  0  0  0  0  0  0
   48.0560   34.5520   42.0760 C   0  0  0  0  0  0  0  0  0  0  0  0
   48.7640   33.4680   42.6020 C   0  0  0  0  0  0  0  0  0  0  0  0
   48.2390   32.8060   43.6720 N   0  0  0  0  0  0  0  0  0  0  0  0
   47.0760   33.1520   44.2390 C   0  0  0  0  0  0  0  0  0  0  0  0
   46.3760   34.1920   43.7500 N   0  0  0  0  0  0  0  0  0  0  0  0
   46.2360   35.7130   42.3450 H   0  0  0  0  0  0  0  0  0  0  0  0
   49.6850   33.2230   42.1250 H   0  0  0  0  0  0  0  0  0  0  0  0
   45.9840   30.3740   43.5990 Cl  0  0  0  0  0  0  0  0  0  0  0  0
   46.0540   31.1290   45.1920 C   0  0  0  0  0  0  0  0  0  0  0  0
   46.5700   32.4000   45.3840 C   0  0  0  0  0  0  0  0  0  0  0  0
   46.6150   32.9710   46.6410 C   0  0  0  0  0  0  0  0  0  0  0  0
   47.0230   33.9790   46.8010 H   0  0  0  0  0  0  0  0  0  0  0  0
   46.1330   32.2480   47.7260 C   0  0  0  0  0  3  0  0  0  0  0  0
   45.6270   30.9870   47.4940 C   0  0  0  0  0  0  0  0  0  0  0  0
   45.0270   30.1030   48.8820 Cl  0  0  0  0  0  0  0  0  0  0  0  0
   45.5680   30.3920   46.2530 C   0  0  0  0  0  0  0  0  0  0  0  0
   45.1680   29.4030   46.1000 H   0  0  0  0  0  0  0  0  0  0  0  0
   48.5040   35.3340   40.9450 C   0  0  0  0  0  0  0  0  0  0  0  0
   47.9470   36.3050   40.8950 H   0  0  0  0  0  0  0  0  0  0  0  0
   49.5850   35.4680   40.9630 H   0  0  0  0  0  0  0  0  0  0  0  0
   48.1560   34.5870   39.6700 C   0  0  0  0  0  0  0  0  0  0  0  0
   47.1170   34.7870   39.3550 H   0  0  0  0  0  0  0  0  0  0  0  0
   48.8650   34.9270   38.8970 H   0  0  0  0  0  0  0  0  0  0  0  0
   48.3180   33.5000   39.8310 H   0  0  0  0  0  0  0  0  0  0  0  0
  1  6  1  0  0  0  0
  2  3  1  0  0  0  0
  2  1  2  0  0  0  0
  3  4  2  0  0  0  0
  4  5  1  0  0  0  0
  5 11  1  0  0  0  0
  6  5  2  0  0  0  0
  7  1  1  0  0  0  0
  8  3  1  0  0  0  0
  9 10  1  0  0  0  0
 10 11  2  0  0  0  0
 10 17  1  0  0  0  0
 11 12  1  0  0  0  0
 12 13  1  0  0  0  0
 12 14  2  0  0  0  0
 15 14  1  0  0  0  0
 15 16  1  0  0  0  0
 17 15  2  0  0  0  0
 18 17  1  0  0  0  0
 19 21  1  0  0  0  0
 19  2  1  0  0  0  0
 20 19  1  0  0  0  0
 22 25  1  0  0  0  0
 22 19  1  0  0  0  0
 23 22  1  0  0  0  0
 24 22  1  0  0  0  0
M  END
>  <minimizedAffinity>
-4.56642342

>  <minimizedRMSD>
2.71038032

$$$$
