
 OpenBabel03252507263D

 28 30  0  0  0  0  0  0  0  0999 V2000
   45.5330   34.3120   45.0530 C   0  0  0  0  0  0  0  0  0  0  0  0
   44.6950   35.4160   45.2170 C   0  0  0  0  0  0  0  0  0  0  0  0
   44.5790   36.3170   44.1320 C   0  0  0  0  0  0  0  0  0  0  0  0
   45.2890   36.0670   42.9770 N   0  0  0  0  0  0  0  0  0  0  0  0
   46.0860   34.9710   42.8910 C   0  0  0  0  0  0  0  0  0  0  0  0
   46.2000   34.1250   43.9000 N   0  0  0  0  0  0  0  0  0  0  0  0
   44.1410   35.6220   46.0970 H   0  0  0  0  0  0  0  0  0  0  0  0
   43.9570   37.1990   44.1590 H   0  0  0  0  0  0  0  0  0  0  0  0
   46.8050   34.7440   41.6510 C   0  0  0  0  0  0  0  0  0  0  0  0
   48.0230   35.3250   41.4240 C   0  0  0  0  0  0  0  0  0  0  0  0
   48.7810   35.1830   40.2830 C   0  0  0  0  0  0  0  0  0  0  0  0
   48.2030   34.3690   39.3200 C   0  0  0  0  0  0  0  0  0  0  0  0
   46.9530   33.7520   39.5140 C   0  0  0  0  0  0  0  0  0  0  0  0
   46.2760   33.9550   40.6830 N   0  0  0  0  0  0  0  0  0  0  0  0
   48.4130   35.9480   42.2220 H   0  0  0  0  0  0  0  0  0  0  0  0
   49.7300   35.6330   40.1000 H   0  0  0  0  0  0  0  0  0  0  0  0
   48.7150   34.1900   38.3810 H   0  0  0  0  0  0  0  0  0  0  0  0
   46.5100   33.1180   38.7570 H   0  0  0  0  0  0  0  0  0  0  0  0
   47.4020   32.0390   44.4650 Cl  0  0  0  0  0  0  0  0  0  0  0  0
   46.5280   32.2650   45.9780 C   0  0  0  0  0  0  0  0  0  0  0  0
   45.6920   33.3600   46.1260 C   0  0  0  0  0  0  0  0  0  0  0  0
   45.0700   33.4190   47.3520 C   0  0  0  0  0  0  0  0  0  0  0  0
   44.4040   34.2380   47.5490 H   0  0  0  0  0  0  0  0  0  0  0  0
   45.2420   32.4940   48.3600 C   0  0  0  0  0  0  0  0  0  0  0  0
   46.0880   31.4240   48.1530 C   0  0  0  0  0  0  0  0  0  0  0  0
   46.2750   30.2740   49.4590 Cl  0  0  0  0  0  0  0  0  0  0  0  0
   46.7420   31.3060   46.9460 C   0  0  0  0  0  0  0  0  0  0  0  0
   47.4070   30.4670   46.7800 H   0  0  0  0  0  0  0  0  0  0  0  0
  1  2  1  0  0  0  0
  1 21  1  0  0  0  0
  2  7  1  0  0  0  0
  3  8  1  0  0  0  0
  3  2  2  0  0  0  0
  4  3  1  0  0  0  0
  5  4  2  0  0  0  0
  5  6  1  0  0  0  0
  6  1  2  0  0  0  0
  9  5  1  0  0  0  0
 10  9  1  0  0  0  0
 10 15  1  0  0  0  0
 11 10  2  0  0  0  0
 12 13  2  0  0  0  0
 12 11  1  0  0  0  0
 13 14  1  0  0  0  0
 14  9  2  0  0  0  0
 16 11  1  0  0  0  0
 17 12  1  0  0  0  0
 18 13  1  0  0  0  0
 19 20  1  0  0  0  0
 20 21  2  0  0  0  0
 20 27  1  0  0  0  0
 21 22  1  0  0  0  0
 22 23  1  0  0  0  0
 22 24  2  0  0  0  0
 25 24  1  0  0  0  0
 25 26  1  0  0  0  0
 27 25  2  0  0  0  0
 28 27  1  0  0  0  0
M  END
>  <minimizedAffinity>
-5.72770023

>  <minimizedRMSD>
0.843193948

$$$$
