
 OpenBabel03242523533D

 46 49  0  0  1  0  0  0  0  0999 V2000
   42.7830   34.4710   38.7130 C   0  0  1  0  0  0  0  0  0  0  0  0
   42.9960   35.1640   40.0500 C   0  0  1  0  0  0  0  0  0  0  0  0
   41.7280   35.4570   40.5980 O   0  0  0  0  0  0  0  0  0  0  0  0
   40.7890   35.8100   39.6250 C   0  0  0  0  0  0  0  0  0  0  0  0
   40.4090   34.6340   38.7460 C   0  0  2  0  0  0  0  0  0  0  0  0
   41.5810   33.6020   38.8780 C   0  0  1  0  0  0  0  0  0  0  0  0
   43.6940   33.9130   38.4110 H   0  0  0  0  0  0  0  0  0  0  0  0
   43.6180   36.0630   39.9810 H   0  0  0  0  0  0  0  0  0  0  0  0
   41.1150   36.6840   39.0260 H   0  0  0  0  0  0  0  0  0  0  0  0
   39.8890   36.0950   40.1850 H   0  0  0  0  0  0  0  0  0  0  0  0
   39.4690   34.1380   39.0560 H   0  0  0  0  0  0  0  0  0  0  0  0
   41.3860   33.3840   39.9780 H   0  0  0  0  0  0  0  0  0  0  0  0
   42.5810   35.4110   37.6910 O   0  0  0  0  0  0  0  0  0  0  0  0
   43.2460   36.1420   37.7630 H   0  0  0  0  0  0  0  0  0  0  0  0
   40.4100   35.0190   37.4170 O   0  0  0  0  0  0  0  0  0  0  0  0
   39.5840   35.5190   37.2270 H   0  0  0  0  0  0  0  0  0  0  0  0
   43.5050   34.1730   40.9030 O   0  0  0  0  0  0  0  0  0  0  0  0
   44.5990   34.3080   41.6610 C   0  0  0  0  0  0  0  0  0  0  0  0
   45.8700   34.4240   41.0810 C   0  0  0  0  0  0  0  0  0  0  0  0
   46.9720   34.5610   41.9060 C   0  0  0  0  0  0  0  0  0  0  0  0
   46.7890   34.5810   43.2760 N   0  0  0  0  0  0  0  0  0  0  0  0
   45.5480   34.4650   43.8040 C   0  0  0  0  0  0  0  0  0  0  0  0
   44.4620   34.3300   42.9980 N   0  0  0  0  0  0  0  0  0  0  0  0
   46.0220   34.4100   40.0010 H   0  0  0  0  0  0  0  0  0  0  0  0
   45.4500   34.4850   44.8790 H   0  0  0  0  0  0  0  0  0  0  0  0
   48.3610   34.6680   41.3540 C   0  0  0  0  0  0  0  0  0  0  0  0
   49.0610   36.0150   41.5210 C   0  0  0  0  0  0  0  0  0  0  0  0
   49.4930   34.7130   42.2240 C   0  0  0  0  0  0  0  0  0  0  0  0
   48.4510   34.2070   40.3350 H   0  0  0  0  0  0  0  0  0  0  0  0
   49.7330   36.2830   40.6840 H   0  0  0  0  0  0  0  0  0  0  0  0
   48.5500   36.7890   42.1090 H   0  0  0  0  0  0  0  0  0  0  0  0
   50.4880   34.3110   41.9980 H   0  0  0  0  0  0  0  0  0  0  0  0
   49.3020   34.7560   43.3280 H   0  0  0  0  0  0  0  0  0  0  0  0
   41.3820   32.6390   37.9620 O   0  0  0  0  0  0  0  0  0  0  0  0
   40.5930   31.5610   37.9610 C   0  0  0  0  0  0  0  0  0  0  0  0
   39.3850   31.5980   37.4030 O   0  0  0  0  0  0  0  0  0  0  0  0
   42.2170   29.6060   36.3170 Cl  0  0  0  0  0  0  0  0  0  0  0  0
   41.4980   29.1710   37.8660 C   0  0  0  0  0  0  0  0  0  0  0  0
   40.7790   30.1610   38.4980 C   0  0  0  0  0  0  0  0  0  0  0  0
   40.2530   29.7440   39.6930 C   0  0  0  0  0  0  0  0  0  0  0  0
   39.6620   30.4220   40.3060 H   0  0  0  0  0  0  0  0  0  0  0  0
   40.4230   28.4940   40.1950 C   0  0  0  0  0  3  0  0  0  0  0  0
   41.1490   27.5690   39.5090 C   0  0  0  0  0  0  0  0  0  0  0  0
   41.3640   25.9700   40.1540 Cl  0  0  0  0  0  0  0  0  0  0  0  0
   41.7190   27.8880   38.2970 C   0  0  0  0  0  0  0  0  0  0  0  0
   42.2960   27.2010   37.7200 H   0  0  0  0  0  0  0  0  0  0  0  0
  1  7  1  6  0  0  0
  1  6  1  0  0  0  0
  1  2  1  0  0  0  0
  2  8  1  6  0  0  0
  2  3  1  0  0  0  0
  2 17  1  0  0  0  0
  4 10  1  0  0  0  0
  4  3  1  0  0  0  0
  5  6  1  0  0  0  0
  5 11  1  1  0  0  0
  5  4  1  0  0  0  0
  6 12  1  1  0  0  0
  9  4  1  0  0  0  0
 13 14  1  0  0  0  0
 13  1  1  0  0  0  0
 15  5  1  0  0  0  0
 16 15  1  0  0  0  0
 17 18  1  0  0  0  0
 18 23  1  0  0  0  0
 19 18  2  0  0  0  0
 19 20  1  0  0  0  0
 20 21  2  0  0  0  0
 21 22  1  0  0  0  0
 22 25  1  0  0  0  0
 23 22  2  0  0  0  0
 24 19  1  0  0  0  0
 26 27  1  0  0  0  0
 26 20  1  0  0  0  0
 26 28  1  0  0  0  0
 27 31  1  0  0  0  0
 27 28  1  0  0  0  0
 28 33  1  0  0  0  0
 29 26  1  0  0  0  0
 30 27  1  0  0  0  0
 32 28  1  0  0  0  0
 34  6  1  0  0  0  0
 35 34  1  0  0  0  0
 35 39  1  0  0  0  0
 36 35  2  0  0  0  0
 37 38  1  0  0  0  0
 38 45  2  0  0  0  0
 38 39  1  0  0  0  0
 39 40  2  0  0  0  0
 40 42  1  0  0  0  0
 40 41  1  0  0  0  0
 43 44  1  0  0  0  0
 43 42  2  0  0  0  0
 45 43  1  0  0  0  0
 46 45  1  0  0  0  0
M  END
>  <minimizedAffinity>
-5.80240679

>  <minimizedRMSD>
0.63357228

$$$$
