
 OpenBabel03252508263D

 42 46  0  0  1  0  0  0  0  0999 V2000
   46.4970   32.4980   45.6550 C   0  0  1  0  0  0  0  0  0  0  0  0
   46.9580   32.7770   47.0240 C   0  0  0  0  0  0  0  0  0  0  0  0
   45.5670   32.1020   46.6940 C   0  0  2  0  0  0  0  0  0  0  0  0
   47.3130   31.8280   45.2000 H   0  0  0  0  0  0  0  0  0  0  0  0
   47.5640   32.0840   47.6290 H   0  0  0  0  0  0  0  0  0  0  0  0
   46.9420   33.7930   47.4530 H   0  0  0  0  0  0  0  0  0  0  0  0
   44.8600   32.8230   47.2110 H   0  0  0  0  0  0  0  0  0  0  0  0
   45.3150   30.7230   47.1190 C   0  0  0  0  0  0  0  0  0  0  0  0
   45.1960   30.2610   48.3940 C   0  0  0  0  0  0  0  0  0  0  0  0
   45.0840   28.9280   48.7690 C   0  0  0  0  0  0  0  0  0  0  0  0
   45.0940   27.9860   47.7230 C   0  0  0  0  0  0  0  0  0  0  0  0
   45.2100   28.4300   46.4040 C   0  0  0  0  0  0  0  0  0  0  0  0
   45.1580   27.4710   45.4080 C   0  0  0  0  0  0  0  0  0  0  0  0
   45.2050   27.8780   44.0850 C   0  0  0  0  0  0  0  0  0  0  0  0
   45.3000   29.2170   43.7610 C   0  0  0  0  0  0  0  0  0  0  0  0
   45.3500   30.1260   44.7900 C   0  0  0  0  0  0  0  0  0  0  0  0
   45.3150   29.7730   46.1250 C   0  0  0  0  0  0  0  0  0  0  0  0
   45.1930   31.0180   49.1660 H   0  0  0  0  0  0  0  0  0  0  0  0
   44.9940   28.6410   49.7950 H   0  0  0  0  0  0  0  0  0  0  0  0
   45.0090   26.9710   48.0360 H   0  0  0  0  0  0  0  0  0  0  0  0
   45.0810   26.4270   45.6990 H   0  0  0  0  0  0  0  0  0  0  0  0
   45.1590   27.0290   43.3840 H   0  0  0  0  0  0  0  0  0  0  0  0
   45.3190   29.3260   42.6960 H   0  0  0  0  0  0  0  0  0  0  0  0
   45.3320   31.0560   44.2990 H   0  0  0  0  0  0  0  0  0  0  0  0
   44.9510   35.5650   44.3130 C   0  0  0  0  0  0  0  0  0  0  0  0
   45.4440   35.5940   42.9630 C   0  0  0  0  0  0  0  0  0  0  0  0
   46.2960   34.5520   42.5660 C   0  0  0  0  0  0  0  0  0  0  0  0
   46.6010   33.6020   43.4540 N   0  0  0  0  0  0  0  0  0  0  0  0
   46.1220   33.6000   44.7270 C   0  0  0  0  0  0  0  0  0  0  0  0
   45.3120   34.5650   45.1440 N   0  0  0  0  0  0  0  0  0  0  0  0
   44.2970   36.3560   44.6310 H   0  0  0  0  0  0  0  0  0  0  0  0
   45.1770   36.3840   42.3130 H   0  0  0  0  0  0  0  0  0  0  0  0
   49.0360   35.9360   41.8150 Cl  0  0  0  0  0  0  0  0  0  0  0  0
   48.0730   34.9240   40.7780 C   0  0  0  0  0  0  0  0  0  0  0  0
   46.9030   34.4140   41.2810 C   0  0  0  0  0  0  0  0  0  0  0  0
   46.2450   33.6650   40.3190 C   0  0  0  0  0  0  0  0  0  0  0  0
   45.2810   33.1630   40.5120 H   0  0  0  0  0  0  0  0  0  0  0  0
   46.6860   33.4490   39.0330 C   0  0  0  0  0  3  0  0  0  0  0  0
   47.8750   34.0030   38.6220 C   0  0  0  0  0  0  0  0  0  0  0  0
   48.4460   33.7350   36.9920 Cl  0  0  0  0  0  0  0  0  0  0  0  0
   48.5830   34.7610   39.5250 C   0  0  0  0  0  0  0  0  0  0  0  0
   49.5050   35.1850   39.1880 H   0  0  0  0  0  0  0  0  0  0  0  0
  1  4  1  6  0  0  0
  1  3  1  0  0  0  0
  1  2  1  0  0  0  0
  2  6  1  0  0  0  0
  2  5  1  0  0  0  0
  3  2  1  0  0  0  0
  3  8  1  0  0  0  0
  3  7  1  1  0  0  0
  8  9  1  0  0  0  0
  9 10  2  0  0  0  0
  9 18  1  0  0  0  0
 10 19  1  0  0  0  0
 11 20  1  0  0  0  0
 11 10  1  0  0  0  0
 12 11  2  0  0  0  0
 13 21  1  0  0  0  0
 13 12  1  0  0  0  0
 14 13  2  0  0  0  0
 15 14  1  0  0  0  0
 15 16  2  0  0  0  0
 16 17  1  0  0  0  0
 17 12  1  0  0  0  0
 17  8  2  0  0  0  0
 22 14  1  0  0  0  0
 23 15  1  0  0  0  0
 24 16  1  0  0  0  0
 25 31  1  0  0  0  0
 25 30  1  0  0  0  0
 26 25  2  0  0  0  0
 27 26  1  0  0  0  0
 27 28  2  0  0  0  0
 28 29  1  0  0  0  0
 29 30  2  0  0  0  0
 29  1  1  0  0  0  0
 32 26  1  0  0  0  0
 34 35  1  0  0  0  0
 34 33  1  0  0  0  0
 35 27  1  0  0  0  0
 36 37  1  0  0  0  0
 36 35  2  0  0  0  0
 38 36  1  0  0  0  0
 39 38  2  0  0  0  0
 39 41  1  0  0  0  0
 40 39  1  0  0  0  0
 41 34  2  0  0  0  0
 42 41  1  0  0  0  0
M  END
>  <minimizedAffinity>
-6.3819747

>  <minimizedRMSD>
0.703478754

$$$$
