
 OpenBabel03242523533D

 46 49  0  0  1  0  0  0  0  0999 V2000
   42.8030   34.5360   38.7200 C   0  0  1  0  0  0  0  0  0  0  0  0
   42.9610   35.1890   40.0840 C   0  0  1  0  0  0  0  0  0  0  0  0
   41.6720   35.4110   40.6160 O   0  0  0  0  0  0  0  0  0  0  0  0
   40.7380   35.7600   39.6370 C   0  0  0  0  0  0  0  0  0  0  0  0
   40.4240   34.6020   38.7100 C   0  0  2  0  0  0  0  0  0  0  0  0
   41.6350   33.6140   38.8300 C   0  0  1  0  0  0  0  0  0  0  0  0
   43.7410   34.0270   38.4170 H   0  0  0  0  0  0  0  0  0  0  0  0
   43.5470   36.1140   40.0600 H   0  0  0  0  0  0  0  0  0  0  0  0
   41.0390   36.6670   39.0760 H   0  0  0  0  0  0  0  0  0  0  0  0
   39.8170   35.9880   40.1890 H   0  0  0  0  0  0  0  0  0  0  0  0
   39.4990   34.0580   38.9830 H   0  0  0  0  0  0  0  0  0  0  0  0
   41.4270   33.3480   39.9170 H   0  0  0  0  0  0  0  0  0  0  0  0
   42.5810   35.5040   37.7270 O   0  0  0  0  0  0  0  0  0  0  0  0
   43.2140   36.2570   37.8390 H   0  0  0  0  0  0  0  0  0  0  0  0
   40.4340   35.0340   37.3950 O   0  0  0  0  0  0  0  0  0  0  0  0
   39.5920   35.5070   37.2060 H   0  0  0  0  0  0  0  0  0  0  0  0
   43.4950   34.1890   40.9120 O   0  0  0  0  0  0  0  0  0  0  0  0
   44.5910   34.3270   41.6660 C   0  0  0  0  0  0  0  0  0  0  0  0
   45.8610   34.4350   41.0800 C   0  0  0  0  0  0  0  0  0  0  0  0
   46.9660   34.5760   41.8990 C   0  0  0  0  0  0  0  0  0  0  0  0
   46.7890   34.6080   43.2690 N   0  0  0  0  0  0  0  0  0  0  0  0
   45.5490   34.5000   43.8030 C   0  0  0  0  0  0  0  0  0  0  0  0
   44.4600   34.3610   43.0030 N   0  0  0  0  0  0  0  0  0  0  0  0
   46.0080   34.4110   39.9990 H   0  0  0  0  0  0  0  0  0  0  0  0
   45.4550   34.5290   44.8790 H   0  0  0  0  0  0  0  0  0  0  0  0
   48.3530   34.6740   41.3410 C   0  0  0  0  0  0  0  0  0  0  0  0
   49.0650   36.0140   41.5140 C   0  0  0  0  0  0  0  0  0  0  0  0
   49.4900   34.7040   42.2060 C   0  0  0  0  0  0  0  0  0  0  0  0
   48.4340   34.2200   40.3190 H   0  0  0  0  0  0  0  0  0  0  0  0
   49.7360   36.2820   40.6750 H   0  0  0  0  0  0  0  0  0  0  0  0
   48.5640   36.7890   42.1090 H   0  0  0  0  0  0  0  0  0  0  0  0
   50.4800   34.2950   41.9730 H   0  0  0  0  0  0  0  0  0  0  0  0
   49.3050   34.7420   43.3110 H   0  0  0  0  0  0  0  0  0  0  0  0
   41.4920   32.6770   37.8770 O   0  0  0  0  0  0  0  0  0  0  0  0
   41.0320   31.4240   37.9220 C   0  0  0  0  0  0  0  0  0  0  0  0
   39.8520   31.1100   37.3900 O   0  0  0  0  0  0  0  0  0  0  0  0
   43.3480   30.1270   36.4660 Cl  0  0  0  0  0  0  0  0  0  0  0  0
   42.6610   29.4530   37.9420 C   0  0  0  0  0  0  0  0  0  0  0  0
   41.6060   30.1480   38.4900 C   0  0  0  0  0  0  0  0  0  0  0  0
   41.1290   29.5600   39.6320 C   0  0  0  0  0  0  0  0  0  0  0  0
   40.2950   29.9980   40.1760 H   0  0  0  0  0  0  0  0  0  0  0  0
   41.6430   28.4190   40.1630 C   0  0  0  0  0  3  0  0  0  0  0  0
   42.6900   27.7900   39.5610 C   0  0  0  0  0  0  0  0  0  0  0  0
   43.3440   26.3310   40.2420 Cl  0  0  0  0  0  0  0  0  0  0  0  0
   43.2410   28.3000   38.4070 C   0  0  0  0  0  0  0  0  0  0  0  0
   44.0600   27.8470   37.8970 H   0  0  0  0  0  0  0  0  0  0  0  0
  1  7  1  6  0  0  0
  1  6  1  0  0  0  0
  1  2  1  0  0  0  0
  2  8  1  6  0  0  0
  2  3  1  0  0  0  0
  2 17  1  0  0  0  0
  4 10  1  0  0  0  0
  4  3  1  0  0  0  0
  5  6  1  0  0  0  0
  5 11  1  1  0  0  0
  5  4  1  0  0  0  0
  6 12  1  1  0  0  0
  9  4  1  0  0  0  0
 13 14  1  0  0  0  0
 13  1  1  0  0  0  0
 15  5  1  0  0  0  0
 16 15  1  0  0  0  0
 17 18  1  0  0  0  0
 18 23  1  0  0  0  0
 19 18  2  0  0  0  0
 19 20  1  0  0  0  0
 20 21  2  0  0  0  0
 21 22  1  0  0  0  0
 22 25  1  0  0  0  0
 23 22  2  0  0  0  0
 24 19  1  0  0  0  0
 26 27  1  0  0  0  0
 26 20  1  0  0  0  0
 26 28  1  0  0  0  0
 27 31  1  0  0  0  0
 27 28  1  0  0  0  0
 28 33  1  0  0  0  0
 29 26  1  0  0  0  0
 30 27  1  0  0  0  0
 32 28  1  0  0  0  0
 34 35  1  0  0  0  0
 34  6  1  0  0  0  0
 35 39  1  0  0  0  0
 36 35  2  0  0  0  0
 37 38  1  0  0  0  0
 38 45  2  0  0  0  0
 38 39  1  0  0  0  0
 39 40  2  0  0  0  0
 40 42  1  0  0  0  0
 40 41  1  0  0  0  0
 43 42  2  0  0  0  0
 43 44  1  0  0  0  0
 45 43  1  0  0  0  0
 46 45  1  0  0  0  0
M  END
>  <minimizedAffinity>
-5.71506977

>  <minimizedRMSD>
0.40956074

$$$$
