
 OpenBabel03252508263D

 42 46  0  0  1  0  0  0  0  0999 V2000
   46.3650   32.3380   46.0560 C   0  0  1  0  0  0  0  0  0  0  0  0
   46.8350   32.5510   47.4340 C   0  0  0  0  0  0  0  0  0  0  0  0
   45.4440   31.8860   47.0810 C   0  0  2  0  0  0  0  0  0  0  0  0
   47.1800   31.6950   45.5630 H   0  0  0  0  0  0  0  0  0  0  0  0
   47.4490   31.8320   47.9990 H   0  0  0  0  0  0  0  0  0  0  0  0
   46.8170   33.5450   47.9120 H   0  0  0  0  0  0  0  0  0  0  0  0
   44.7380   32.5780   47.6380 H   0  0  0  0  0  0  0  0  0  0  0  0
   45.2020   30.4870   47.4390 C   0  0  0  0  0  0  0  0  0  0  0  0
   45.1000   29.9610   48.6910 C   0  0  0  0  0  0  0  0  0  0  0  0
   44.9960   28.6110   49.0000 C   0  0  0  0  0  0  0  0  0  0  0  0
   44.9970   27.7220   47.9090 C   0  0  0  0  0  0  0  0  0  0  0  0
   45.0960   28.2320   46.6120 C   0  0  0  0  0  0  0  0  0  0  0  0
   45.0340   27.3240   45.5700 C   0  0  0  0  0  0  0  0  0  0  0  0
   45.0640   27.7960   44.2690 C   0  0  0  0  0  0  0  0  0  0  0  0
   45.1500   29.1500   44.0110 C   0  0  0  0  0  0  0  0  0  0  0  0
   45.2100   30.0070   45.0830 C   0  0  0  0  0  0  0  0  0  0  0  0
   45.1930   29.5880   46.3990 C   0  0  0  0  0  0  0  0  0  0  0  0
   45.1040   30.6790   49.5000 H   0  0  0  0  0  0  0  0  0  0  0  0
   44.9200   28.2730   50.0120 H   0  0  0  0  0  0  0  0  0  0  0  0
   44.9190   26.6930   48.1710 H   0  0  0  0  0  0  0  0  0  0  0  0
   44.9640   26.2660   45.8090 H   0  0  0  0  0  0  0  0  0  0  0  0
   45.0120   26.9830   43.5260 H   0  0  0  0  0  0  0  0  0  0  0  0
   45.1570   29.3120   42.9520 H   0  0  0  0  0  0  0  0  0  0  0  0
   45.1840   30.9610   44.6390 H   0  0  0  0  0  0  0  0  0  0  0  0
   44.8270   35.4800   44.8910 C   0  0  0  0  0  0  0  0  0  0  0  0
   45.2750   35.5560   43.5280 C   0  0  0  0  0  0  0  0  0  0  0  0
   46.0960   34.5180   43.0600 C   0  0  0  0  0  0  0  0  0  0  0  0
   46.4140   33.5280   43.8990 N   0  0  0  0  0  0  0  0  0  0  0  0
   45.9780   33.4820   45.1860 C   0  0  0  0  0  0  0  0  0  0  0  0
   45.1990   34.4410   45.6680 N   0  0  0  0  0  0  0  0  0  0  0  0
   44.1980   36.2670   45.2630 H   0  0  0  0  0  0  0  0  0  0  0  0
   45.0010   36.3760   42.9190 H   0  0  0  0  0  0  0  0  0  0  0  0
   44.7820   32.8010   40.7550 Cl  0  0  0  0  0  0  0  0  0  0  0  0
   46.2370   33.7460   40.6350 C   0  0  0  0  0  0  0  0  0  0  0  0
   46.6570   34.4230   41.7510 C   0  0  0  0  0  0  0  0  0  0  0  0
   47.8450   35.0930   41.4950 C   0  0  0  0  0  0  0  0  0  0  0  0
   48.3600   35.7010   42.2570 H   0  0  0  0  0  0  0  0  0  0  0  0
   48.5220   35.0910   40.2960 C   0  0  0  0  0  3  0  0  0  0  0  0
   48.0170   34.3800   39.2340 C   0  0  0  0  0  0  0  0  0  0  0  0
   48.8670   34.3710   37.7070 Cl  0  0  0  0  0  0  0  0  0  0  0  0
   46.8420   33.6900   39.4160 C   0  0  0  0  0  0  0  0  0  0  0  0
   46.4630   33.1420   38.5800 H   0  0  0  0  0  0  0  0  0  0  0  0
  1  4  1  6  0  0  0
  1  3  1  0  0  0  0
  1  2  1  0  0  0  0
  2  6  1  0  0  0  0
  2  5  1  0  0  0  0
  3  2  1  0  0  0  0
  3  8  1  0  0  0  0
  3  7  1  1  0  0  0
  8  9  1  0  0  0  0
  9 10  2  0  0  0  0
  9 18  1  0  0  0  0
 10 19  1  0  0  0  0
 11 20  1  0  0  0  0
 11 10  1  0  0  0  0
 12 11  2  0  0  0  0
 13 21  1  0  0  0  0
 13 12  1  0  0  0  0
 14 13  2  0  0  0  0
 15 14  1  0  0  0  0
 15 16  2  0  0  0  0
 16 17  1  0  0  0  0
 17 12  1  0  0  0  0
 17  8  2  0  0  0  0
 22 14  1  0  0  0  0
 23 15  1  0  0  0  0
 24 16  1  0  0  0  0
 25 31  1  0  0  0  0
 25 30  1  0  0  0  0
 26 25  2  0  0  0  0
 27 26  1  0  0  0  0
 27 28  2  0  0  0  0
 28 29  1  0  0  0  0
 29 30  2  0  0  0  0
 29  1  1  0  0  0  0
 32 26  1  0  0  0  0
 34 33  1  0  0  0  0
 34 35  1  0  0  0  0
 35 27  1  0  0  0  0
 36 35  2  0  0  0  0
 36 37  1  0  0  0  0
 38 36  1  0  0  0  0
 39 41  1  0  0  0  0
 39 38  2  0  0  0  0
 40 39  1  0  0  0  0
 41 34  2  0  0  0  0
 42 41  1  0  0  0  0
M  END
>  <minimizedAffinity>
-6.22449398

>  <minimizedRMSD>
0.636739612

$$$$
