
 OpenBabel03252508333D

 33 35  0  0  1  0  0  0  0  0999 V2000
   44.4690   34.0340   42.2060 N   0  0  0  0  0  0  0  0  0  0  0  0
   44.3470   33.3300   40.9810 C   0  0  1  0  0  0  0  0  0  0  0  0
   43.6180   34.0540   39.9070 C   0  0  0  0  0  0  0  0  0  0  0  0
   42.5720   34.8920   40.2880 N   0  0  0  0  0  0  0  0  0  0  0  0
   42.5560   35.4120   41.5860 C   0  0  0  0  0  0  0  0  0  0  0  0
   43.9600   35.3720   42.1700 C   0  0  0  0  0  0  0  0  0  0  0  0
   43.8150   32.3700   41.1720 H   0  0  0  0  0  0  0  0  0  0  0  0
   44.3680   34.6670   39.3250 H   0  0  0  0  0  0  0  0  0  0  0  0
   43.2540   33.3080   39.1490 H   0  0  0  0  0  0  0  0  0  0  0  0
   41.6840   34.8240   39.7930 H   0  0  0  0  0  0  0  0  0  0  0  0
   41.9260   34.7340   42.2290 H   0  0  0  0  0  0  0  0  0  0  0  0
   42.1450   36.4150   41.7280 H   0  0  0  0  0  0  0  0  0  0  0  0
   44.6340   36.0060   41.5240 H   0  0  0  0  0  0  0  0  0  0  0  0
   43.8920   35.8960   43.1250 H   0  0  0  0  0  0  0  0  0  0  0  0
   44.8760   30.4610   40.1510 Cl  0  0  0  0  0  0  0  0  0  0  0  0
   46.0980   31.7060   39.9640 C   0  0  0  0  0  0  0  0  0  0  0  0
   45.6840   32.9610   40.3950 C   0  0  0  0  0  0  0  0  0  0  0  0
   46.6050   34.0040   40.2760 C   0  0  0  0  0  0  0  0  0  0  0  0
   46.4580   35.0340   40.5580 H   0  0  0  0  0  0  0  0  0  0  0  0
   47.8690   33.7980   39.7540 C   0  0  0  0  0  3  0  0  0  0  0  0
   48.2560   32.5430   39.3320 C   0  0  0  0  0  0  0  0  0  0  0  0
   49.8190   32.1430   38.6550 Cl  0  0  0  0  0  0  0  0  0  0  0  0
   47.3440   31.5230   39.4530 C   0  0  0  0  0  0  0  0  0  0  0  0
   47.5050   30.4800   39.1640 H   0  0  0  0  0  0  0  0  0  0  0  0
   45.6670   34.1930   44.2690 C   0  0  0  0  0  0  0  0  0  0  0  0
   45.0680   33.3570   43.3060 C   0  0  0  0  0  0  0  0  0  0  0  0
   45.1110   31.9880   43.5070 C   0  0  0  0  0  0  0  0  0  0  0  0
   45.7230   31.5090   44.6140 N   0  0  0  0  0  0  0  0  0  0  0  0
   46.2960   32.3280   45.5330 C   0  0  0  0  0  0  0  0  0  0  0  0
   46.2630   33.6630   45.3520 N   0  0  0  0  0  0  0  0  0  0  0  0
   45.7370   35.2700   44.2900 H   0  0  0  0  0  0  0  0  0  0  0  0
   44.6430   31.3730   42.7590 H   0  0  0  0  0  0  0  0  0  0  0  0
   46.7430   31.7850   46.3590 H   0  0  0  0  0  0  0  0  0  0  0  0
  1 26  1  0  0  0  0
  2  7  1  1  0  0  0
  2  1  1  0  0  0  0
  3  4  1  0  0  0  0
  3  2  1  0  0  0  0
  4  5  1  0  0  0  0
  5 12  1  0  0  0  0
  5  6  1  0  0  0  0
  5 11  1  0  0  0  0
  6  1  1  0  0  0  0
  6 14  1  0  0  0  0
  8  3  1  0  0  0  0
  9  3  1  0  0  0  0
 10  4  1  0  0  0  0
 13  6  1  0  0  0  0
 16 15  1  0  0  0  0
 16 17  1  0  0  0  0
 17  2  1  0  0  0  0
 18 17  2  0  0  0  0
 18 19  1  0  0  0  0
 20 18  1  0  0  0  0
 21 23  1  0  0  0  0
 21 20  2  0  0  0  0
 22 21  1  0  0  0  0
 23 16  2  0  0  0  0
 24 23  1  0  0  0  0
 25 31  1  0  0  0  0
 25 30  1  0  0  0  0
 26 27  1  0  0  0  0
 26 25  2  0  0  0  0
 27 28  2  0  0  0  0
 28 29  1  0  0  0  0
 29 33  1  0  0  0  0
 30 29  2  0  0  0  0
 32 27  1  0  0  0  0
M  END
>  <minimizedAffinity>
-3.97688174

>  <minimizedRMSD>
1.2846992

$$$$
