
 OpenBabel03252508333D

 33 35  0  0  1  0  0  0  0  0999 V2000
   44.2620   34.3770   41.9520 N   0  0  0  0  0  0  0  0  0  0  0  0
   44.3200   33.3680   40.9590 C   0  0  1  0  0  0  0  0  0  0  0  0
   43.6940   33.7240   39.6590 C   0  0  0  0  0  0  0  0  0  0  0  0
   42.5740   34.5520   39.6880 N   0  0  0  0  0  0  0  0  0  0  0  0
   42.3780   35.3940   40.7870 C   0  0  0  0  0  0  0  0  0  0  0  0
   43.7010   35.6150   41.5030 C   0  0  0  0  0  0  0  0  0  0  0  0
   43.8120   32.4540   41.3460 H   0  0  0  0  0  0  0  0  0  0  0  0
   44.4800   34.2170   39.0140 H   0  0  0  0  0  0  0  0  0  0  0  0
   43.4570   32.7800   39.0980 H   0  0  0  0  0  0  0  0  0  0  0  0
   41.7550   34.2890   39.1400 H   0  0  0  0  0  0  0  0  0  0  0  0
   41.7060   34.8640   41.5200 H   0  0  0  0  0  0  0  0  0  0  0  0
   41.9080   36.3650   40.6080 H   0  0  0  0  0  0  0  0  0  0  0  0
   44.4200   36.1050   40.7820 H   0  0  0  0  0  0  0  0  0  0  0  0
   43.4960   36.3660   42.2680 H   0  0  0  0  0  0  0  0  0  0  0  0
   45.0590   30.4260   40.9480 Cl  0  0  0  0  0  0  0  0  0  0  0  0
   46.2440   31.6670   40.5870 C   0  0  0  0  0  0  0  0  0  0  0  0
   45.7330   32.9580   40.6360 C   0  0  0  0  0  0  0  0  0  0  0  0
   46.6200   34.0000   40.3600 C   0  0  0  0  0  0  0  0  0  0  0  0
   46.4000   35.0550   40.3530 H   0  0  0  0  0  0  0  0  0  0  0  0
   47.9460   33.7580   40.0510 C   0  0  0  0  0  3  0  0  0  0  0  0
   48.4320   32.4670   40.0080 C   0  0  0  0  0  0  0  0  0  0  0  0
   50.0810   32.0210   39.6320 Cl  0  0  0  0  0  0  0  0  0  0  0  0
   47.5520   31.4490   40.2820 C   0  0  0  0  0  0  0  0  0  0  0  0
   47.7880   30.3800   40.2860 H   0  0  0  0  0  0  0  0  0  0  0  0
   44.6850   35.1120   44.1880 C   0  0  0  0  0  0  0  0  0  0  0  0
   44.7540   34.0620   43.2510 C   0  0  0  0  0  0  0  0  0  0  0  0
   45.2770   32.8480   43.6620 C   0  0  0  0  0  0  0  0  0  0  0  0
   45.7020   32.7180   44.9400 N   0  0  0  0  0  0  0  0  0  0  0  0
   45.6280   33.7400   45.8310 C   0  0  0  0  0  0  0  0  0  0  0  0
   45.1210   34.9270   45.4470 N   0  0  0  0  0  0  0  0  0  0  0  0
   44.3150   36.1170   44.0610 H   0  0  0  0  0  0  0  0  0  0  0  0
   45.3150   32.0630   42.9280 H   0  0  0  0  0  0  0  0  0  0  0  0
   46.0090   33.4710   46.8100 H   0  0  0  0  0  0  0  0  0  0  0  0
  1 26  1  0  0  0  0
  2  7  1  1  0  0  0
  2  1  1  0  0  0  0
  3  4  1  0  0  0  0
  3  2  1  0  0  0  0
  4  5  1  0  0  0  0
  5  6  1  0  0  0  0
  5 11  1  0  0  0  0
  6  1  1  0  0  0  0
  6 14  1  0  0  0  0
  8  3  1  0  0  0  0
  9  3  1  0  0  0  0
 10  4  1  0  0  0  0
 12  5  1  0  0  0  0
 13  6  1  0  0  0  0
 16 17  1  0  0  0  0
 16 15  1  0  0  0  0
 17  2  1  0  0  0  0
 18 17  2  0  0  0  0
 19 18  1  0  0  0  0
 20 18  1  0  0  0  0
 21 20  2  0  0  0  0
 21 23  1  0  0  0  0
 22 21  1  0  0  0  0
 23 24  1  0  0  0  0
 23 16  2  0  0  0  0
 25 30  1  0  0  0  0
 26 27  1  0  0  0  0
 26 25  2  0  0  0  0
 27 28  2  0  0  0  0
 28 29  1  0  0  0  0
 29 33  1  0  0  0  0
 30 29  2  0  0  0  0
 31 25  1  0  0  0  0
 32 27  1  0  0  0  0
M  END
>  <minimizedAffinity>
-4.3241868

>  <minimizedRMSD>
0.230566189

$$$$
