
 OpenBabel03242523533D

 46 49  0  0  1  0  0  0  0  0999 V2000
   42.8070   34.5340   38.7170 C   0  0  1  0  0  0  0  0  0  0  0  0
   42.9740   35.1840   40.0810 C   0  0  1  0  0  0  0  0  0  0  0  0
   41.6890   35.4160   40.6170 O   0  0  0  0  0  0  0  0  0  0  0  0
   40.7550   35.7740   39.6410 C   0  0  0  0  0  0  0  0  0  0  0  0
   40.4280   34.6200   38.7140 C   0  0  2  0  0  0  0  0  0  0  0  0
   41.6310   33.6210   38.8290 C   0  0  1  0  0  0  0  0  0  0  0  0
   43.7400   34.0170   38.4110 H   0  0  0  0  0  0  0  0  0  0  0  0
   43.5680   36.1050   40.0560 H   0  0  0  0  0  0  0  0  0  0  0  0
   41.0620   36.6800   39.0800 H   0  0  0  0  0  0  0  0  0  0  0  0
   39.8370   36.0100   40.1950 H   0  0  0  0  0  0  0  0  0  0  0  0
   39.4990   34.0830   38.9890 H   0  0  0  0  0  0  0  0  0  0  0  0
   41.4240   33.3570   39.9170 H   0  0  0  0  0  0  0  0  0  0  0  0
   42.5900   35.5040   37.7260 O   0  0  0  0  0  0  0  0  0  0  0  0
   43.2300   36.2520   37.8360 H   0  0  0  0  0  0  0  0  0  0  0  0
   40.4390   35.0520   37.4000 O   0  0  0  0  0  0  0  0  0  0  0  0
   39.6000   35.5330   37.2130 H   0  0  0  0  0  0  0  0  0  0  0  0
   43.5020   34.1800   40.9070 O   0  0  0  0  0  0  0  0  0  0  0  0
   44.5970   34.3110   41.6640 C   0  0  0  0  0  0  0  0  0  0  0  0
   45.8680   34.4280   41.0810 C   0  0  0  0  0  0  0  0  0  0  0  0
   46.9710   34.5610   41.9050 C   0  0  0  0  0  0  0  0  0  0  0  0
   46.7910   34.5760   43.2750 N   0  0  0  0  0  0  0  0  0  0  0  0
   45.5500   34.4600   43.8050 C   0  0  0  0  0  0  0  0  0  0  0  0
   44.4630   34.3280   43.0010 N   0  0  0  0  0  0  0  0  0  0  0  0
   46.0170   34.4170   40.0010 H   0  0  0  0  0  0  0  0  0  0  0  0
   45.4550   34.4760   44.8810 H   0  0  0  0  0  0  0  0  0  0  0  0
   48.3580   34.6680   41.3500 C   0  0  0  0  0  0  0  0  0  0  0  0
   49.0610   36.0130   41.5220 C   0  0  0  0  0  0  0  0  0  0  0  0
   49.4930   34.7090   42.2180 C   0  0  0  0  0  0  0  0  0  0  0  0
   48.4460   34.2120   40.3290 H   0  0  0  0  0  0  0  0  0  0  0  0
   49.7310   36.2840   40.6840 H   0  0  0  0  0  0  0  0  0  0  0  0
   48.5520   36.7860   42.1140 H   0  0  0  0  0  0  0  0  0  0  0  0
   50.4870   34.3050   41.9890 H   0  0  0  0  0  0  0  0  0  0  0  0
   49.3040   34.7470   43.3220 H   0  0  0  0  0  0  0  0  0  0  0  0
   41.4780   32.6870   37.8760 O   0  0  0  0  0  0  0  0  0  0  0  0
   40.7560   31.5640   37.8380 C   0  0  0  0  0  0  0  0  0  0  0  0
   39.4540   31.5980   37.5570 O   0  0  0  0  0  0  0  0  0  0  0  0
   40.6220   30.4670   40.6550 Cl  0  0  0  0  0  0  0  0  0  0  0  0
   41.0910   29.4760   39.2760 C   0  0  0  0  0  0  0  0  0  0  0  0
   41.1140   30.1130   38.0550 C   0  0  0  0  0  0  0  0  0  0  0  0
   41.4890   29.2760   37.0360 C   0  0  0  0  0  0  0  0  0  0  0  0
   41.5520   29.6410   36.0120 H   0  0  0  0  0  0  0  0  0  0  0  0
   41.8010   27.9670   37.2140 C   0  0  0  0  0  3  0  0  0  0  0  0
   41.7550   27.4090   38.4550 C   0  0  0  0  0  0  0  0  0  0  0  0
   42.1550   25.7330   38.6790 Cl  0  0  0  0  0  0  0  0  0  0  0  0
   41.3900   28.1650   39.5470 C   0  0  0  0  0  0  0  0  0  0  0  0
   41.3370   27.7780   40.5390 H   0  0  0  0  0  0  0  0  0  0  0  0
  1  7  1  6  0  0  0
  1  6  1  0  0  0  0
  1  2  1  0  0  0  0
  2  8  1  6  0  0  0
  2  3  1  0  0  0  0
  2 17  1  0  0  0  0
  4 10  1  0  0  0  0
  4  3  1  0  0  0  0
  5  6  1  0  0  0  0
  5 11  1  1  0  0  0
  5  4  1  0  0  0  0
  6 12  1  1  0  0  0
  9  4  1  0  0  0  0
 13 14  1  0  0  0  0
 13  1  1  0  0  0  0
 15  5  1  0  0  0  0
 16 15  1  0  0  0  0
 17 18  1  0  0  0  0
 18 23  1  0  0  0  0
 19 18  2  0  0  0  0
 19 20  1  0  0  0  0
 20 21  2  0  0  0  0
 21 22  1  0  0  0  0
 22 25  1  0  0  0  0
 23 22  2  0  0  0  0
 24 19  1  0  0  0  0
 26 27  1  0  0  0  0
 26 20  1  0  0  0  0
 26 28  1  0  0  0  0
 27 31  1  0  0  0  0
 27 28  1  0  0  0  0
 28 33  1  0  0  0  0
 29 26  1  0  0  0  0
 30 27  1  0  0  0  0
 32 28  1  0  0  0  0
 34  6  1  0  0  0  0
 35 34  1  0  0  0  0
 35 39  1  0  0  0  0
 36 35  2  0  0  0  0
 38 45  1  0  0  0  0
 38 37  1  0  0  0  0
 39 38  2  0  0  0  0
 40 42  2  0  0  0  0
 40 39  1  0  0  0  0
 41 40  1  0  0  0  0
 42 43  1  0  0  0  0
 43 44  1  0  0  0  0
 43 45  2  0  0  0  0
 45 46  1  0  0  0  0
M  END
>  <minimizedAffinity>
-5.79374886

>  <minimizedRMSD>
0.544396341

$$$$
