
 OpenBabel03252509163D

 26 28  0  0  0  0  0  0  0  0999 V2000
   46.6930   31.4350   45.7740 C   0  0  0  0  0  0  0  0  0  0  0  0
   47.6190   30.5790   45.1150 C   0  0  0  0  0  0  0  0  0  0  0  0
   48.0740   30.9260   43.8910 C   0  0  0  0  0  0  0  0  0  0  0  0
   47.6200   32.1220   43.3030 C   0  0  0  0  0  0  0  0  0  0  0  0
   46.4900   32.7640   44.5790 S   0  0  0  0  0  0  0  0  0  0  0  0
   47.9150   29.6670   45.6560 H   0  0  0  0  0  0  0  0  0  0  0  0
   48.7690   30.2820   43.3970 H   0  0  0  0  0  0  0  0  0  0  0  0
   46.9990   30.7500   40.6240 Cl  0  0  0  0  0  0  0  0  0  0  0  0
   47.6380   32.3660   40.8220 C   0  0  0  0  0  0  0  0  0  0  0  0
   47.8440   32.7910   42.1150 C   0  0  0  0  0  0  0  0  0  0  0  0
   48.3560   34.0940   42.1270 C   0  0  0  0  0  0  0  0  0  0  0  0
   48.5880   34.6120   43.0700 H   0  0  0  0  0  0  0  0  0  0  0  0
   48.6160   34.8460   41.0110 C   0  0  0  0  0  3  0  0  0  0  0  0
   48.3670   34.3090   39.7710 C   0  0  0  0  0  0  0  0  0  0  0  0
   48.6970   35.2630   38.3530 Cl  0  0  0  0  0  0  0  0  0  0  0  0
   47.8650   33.0350   39.6580 C   0  0  0  0  0  0  0  0  0  0  0  0
   47.6780   32.6360   38.6850 H   0  0  0  0  0  0  0  0  0  0  0  0
   45.0340   29.9830   48.7560 C   0  0  0  0  0  0  0  0  0  0  0  0
   45.1380   31.0780   49.6510 C   0  0  0  0  0  0  0  0  0  0  0  0
   45.7660   32.2520   49.1970 C   0  0  0  0  0  0  0  0  0  0  0  0
   46.2440   32.2690   47.9050 N   0  0  0  0  0  0  0  0  0  0  0  0
   46.1160   31.1930   47.0970 C   0  0  0  0  0  0  0  0  0  0  0  0
   45.5130   30.0490   47.5110 N   0  0  0  0  0  0  0  0  0  0  0  0
   44.5560   29.0840   49.0960 H   0  0  0  0  0  0  0  0  0  0  0  0
   44.7590   31.0480   50.6570 H   0  0  0  0  0  0  0  0  0  0  0  0
   45.8880   33.1330   49.8110 H   0  0  0  0  0  0  0  0  0  0  0  0
  1 22  1  0  0  0  0
  2  6  1  0  0  0  0
  2  1  2  0  0  0  0
  3  2  1  0  0  0  0
  4  3  2  0  0  0  0
  4  5  1  0  0  0  0
  5  1  1  0  0  0  0
  7  3  1  0  0  0  0
  8  9  1  0  0  0  0
  9 10  1  0  0  0  0
 10 11  2  0  0  0  0
 10  4  1  0  0  0  0
 11 12  1  0  0  0  0
 13 11  1  0  0  0  0
 14 13  2  0  0  0  0
 15 14  1  0  0  0  0
 16 14  1  0  0  0  0
 16  9  2  0  0  0  0
 17 16  1  0  0  0  0
 18 24  1  0  0  0  0
 18 19  1  0  0  0  0
 19 25  1  0  0  0  0
 20 19  2  0  0  0  0
 20 26  1  0  0  0  0
 21 20  1  0  0  0  0
 22 23  1  0  0  0  0
 22 21  2  0  0  0  0
 23 18  2  0  0  0  0
M  END
>  <minimizedAffinity>
-4.23250961

>  <minimizedRMSD>
7.96877384

$$$$
