
 OpenBabel03242521403D

 22 23  0  0  0  0  0  0  0  0999 V2000
   40.5140   32.6910   38.8760 C   0  0  0  0  0  0  0  0  0  0  0  0
   39.9470   31.5980   39.5260 C   0  0  0  0  0  0  0  0  0  0  0  0
   39.1800   31.8370   40.6680 C   0  0  0  0  0  0  0  0  0  0  0  0
   39.0290   33.1150   41.0800 N   0  0  0  0  0  0  0  0  0  0  0  0
   39.5960   34.1500   40.4210 C   0  0  0  0  0  0  0  0  0  0  0  0
   40.3390   33.9420   39.3160 N   0  0  0  0  0  0  0  0  0  0  0  0
   40.1100   30.6260   39.1450 H   0  0  0  0  0  0  0  0  0  0  0  0
   39.4210   35.1280   40.8200 H   0  0  0  0  0  0  0  0  0  0  0  0
   36.5640   31.0360   39.6090 Cl  0  0  0  0  0  0  0  0  0  0  0  0
   37.3290   30.2800   40.9890 C   0  0  0  0  0  0  0  0  0  0  0  0
   38.5590   30.7380   41.3990 C   0  0  0  0  0  0  0  0  0  0  0  0
   39.1040   30.0990   42.4900 C   0  0  0  0  0  0  0  0  0  0  0  0
   40.0610   30.4240   42.8440 H   0  0  0  0  0  0  0  0  0  0  0  0
   38.4890   29.0690   43.1520 C   0  0  0  0  0  3  0  0  0  0  0  0
   37.2600   28.6660   42.6820 C   0  0  0  0  0  0  0  0  0  0  0  0
   36.4090   27.3440   43.4840 Cl  0  0  0  0  0  0  0  0  0  0  0  0
   36.6340   29.2440   41.5970 C   0  0  0  0  0  0  0  0  0  0  0  0
   35.6700   28.9340   41.2210 H   0  0  0  0  0  0  0  0  0  0  0  0
   41.3320   32.4180   37.6550 C   0  0  0  0  0  0  0  0  0  0  0  0
   41.7560   31.3940   37.7390 H   0  0  0  0  0  0  0  0  0  0  0  0
   40.7560   32.5440   36.7270 H   0  0  0  0  0  0  0  0  0  0  0  0
   42.2170   33.1030   37.6240 H   0  0  0  0  0  0  0  0  0  0  0  0
  1  6  2  0  0  0  0
  1  2  1  0  0  0  0
  2  3  2  0  0  0  0
  3  4  1  0  0  0  0
  3 11  1  0  0  0  0
  5  8  1  0  0  0  0
  5  4  2  0  0  0  0
  6  5  1  0  0  0  0
  7  2  1  0  0  0  0
  9 10  1  0  0  0  0
 10 11  2  0  0  0  0
 10 17  1  0  0  0  0
 11 12  1  0  0  0  0
 12 13  1  0  0  0  0
 12 14  2  0  0  0  0
 15 14  1  0  0  0  0
 15 16  1  0  0  0  0
 17 15  2  0  0  0  0
 18 17  1  0  0  0  0
 19 20  1  0  0  0  0
 19  1  1  0  0  0  0
 21 19  1  0  0  0  0
 22 19  1  0  0  0  0
M  END
>  <minimizedAffinity>
-4.71736479

$$$$

 OpenBabel03242521403D

 22 23  0  0  0  0  0  0  0  0999 V2000
   38.1250   32.5140   40.3500 C   0  0  0  0  0  0  0  0  0  0  0  0
   37.6270   31.2390   40.6050 C   0  0  0  0  0  0  0  0  0  0  0  0
   38.4350   30.3470   41.3110 C   0  0  0  0  0  0  0  0  0  0  0  0
   39.6560   30.7680   41.7080 N   0  0  0  0  0  0  0  0  0  0  0  0
   40.1040   32.0140   41.4410 C   0  0  0  0  0  0  0  0  0  0  0  0
   39.3390   32.8920   40.7620 N   0  0  0  0  0  0  0  0  0  0  0  0
   36.6610   30.9810   40.2610 H   0  0  0  0  0  0  0  0  0  0  0  0
   41.0840   32.2600   41.7960 H   0  0  0  0  0  0  0  0  0  0  0  0
   39.1770   28.3630   39.2810 Cl  0  0  0  0  0  0  0  0  0  0  0  0
   38.2700   27.9830   40.7270 C   0  0  0  0  0  0  0  0  0  0  0  0
   37.9780   28.9940   41.6120 C   0  0  0  0  0  0  0  0  0  0  0  0
   37.2620   28.6260   42.7290 C   0  0  0  0  0  0  0  0  0  0  0  0
   37.0120   29.3820   43.4450 H   0  0  0  0  0  0  0  0  0  0  0  0
   36.8490   27.3430   42.9780 C   0  0  0  0  0  3  0  0  0  0  0  0
   37.1810   26.3860   42.0470 C   0  0  0  0  0  0  0  0  0  0  0  0
   36.6820   24.7110   42.3010 Cl  0  0  0  0  0  0  0  0  0  0  0  0
   37.8940   26.6570   40.8980 C   0  0  0  0  0  0  0  0  0  0  0  0
   38.1580   25.9120   40.1610 H   0  0  0  0  0  0  0  0  0  0  0  0
   37.2460   33.4580   39.5930 C   0  0  0  0  0  0  0  0  0  0  0  0
   36.5660   32.8610   38.9470 H   0  0  0  0  0  0  0  0  0  0  0  0
   36.6870   34.1340   40.2560 H   0  0  0  0  0  0  0  0  0  0  0  0
   37.8600   34.0730   38.8880 H   0  0  0  0  0  0  0  0  0  0  0  0
  1  2  2  0  0  0  0
  1  6  1  0  0  0  0
  2  3  1  0  0  0  0
  3 11  1  0  0  0  0
  3  4  2  0  0  0  0
  5  4  1  0  0  0  0
  5  8  1  0  0  0  0
  6  5  2  0  0  0  0
  7  2  1  0  0  0  0
  9 10  1  0  0  0  0
 10 17  2  0  0  0  0
 10 11  1  0  0  0  0
 11 12  2  0  0  0  0
 12 14  1  0  0  0  0
 12 13  1  0  0  0  0
 15 16  1  0  0  0  0
 15 14  2  0  0  0  0
 17 15  1  0  0  0  0
 18 17  1  0  0  0  0
 19 21  1  0  0  0  0
 19  1  1  0  0  0  0
 20 19  1  0  0  0  0
 22 19  1  0  0  0  0
M  END
>  <minimizedAffinity>
-4.47805166

$$$$

 OpenBabel03242521403D

 22 23  0  0  0  0  0  0  0  0999 V2000
   37.4520   26.1560   41.3320 C   0  0  0  0  0  0  0  0  0  0  0  0
   37.7530   27.4440   40.8960 C   0  0  0  0  0  0  0  0  0  0  0  0
   37.4870   28.5080   41.7580 C   0  0  0  0  0  0  0  0  0  0  0  0
   36.9540   28.2330   42.9680 N   0  0  0  0  0  0  0  0  0  0  0  0
   36.6750   26.9680   43.3550 C   0  0  0  0  0  0  0  0  0  0  0  0
   36.9240   25.9250   42.5380 N   0  0  0  0  0  0  0  0  0  0  0  0
   38.1690   27.5820   39.9330 H   0  0  0  0  0  0  0  0  0  0  0  0
   36.2540   26.8460   44.3320 H   0  0  0  0  0  0  0  0  0  0  0  0
   35.3210   29.7950   40.2540 Cl  0  0  0  0  0  0  0  0  0  0  0  0
   36.8300   30.5840   40.6550 C   0  0  0  0  0  0  0  0  0  0  0  0
   37.7770   29.8840   41.3660 C   0  0  0  0  0  0  0  0  0  0  0  0
   38.9400   30.5640   41.6480 C   0  0  0  0  0  0  0  0  0  0  0  0
   39.7050   30.0570   42.2000 H   0  0  0  0  0  0  0  0  0  0  0  0
   39.1760   31.8580   41.2630 C   0  0  0  0  0  3  0  0  0  0  0  0
   38.1810   32.4930   40.5560 C   0  0  0  0  0  0  0  0  0  0  0  0
   38.4140   34.1610   40.0250 Cl  0  0  0  0  0  0  0  0  0  0  0  0
   36.9820   31.8950   40.2250 C   0  0  0  0  0  0  0  0  0  0  0  0
   36.1960   32.3850   39.6700 H   0  0  0  0  0  0  0  0  0  0  0  0
   37.7420   25.0260   40.3960 C   0  0  0  0  0  0  0  0  0  0  0  0
   37.6890   25.4120   39.3550 H   0  0  0  0  0  0  0  0  0  0  0  0
   38.7100   24.5480   40.6030 H   0  0  0  0  0  0  0  0  0  0  0  0
   36.9370   24.2520   40.4660 H   0  0  0  0  0  0  0  0  0  0  0  0
  1  6  1  0  0  0  0
  2  1  2  0  0  0  0
  2  3  1  0  0  0  0
  3  4  2  0  0  0  0
  4  5  1  0  0  0  0
  5  8  1  0  0  0  0
  6  5  2  0  0  0  0
  7  2  1  0  0  0  0
  9 10  1  0  0  0  0
 10 11  1  0  0  0  0
 11 12  2  0  0  0  0
 11  3  1  0  0  0  0
 12 13  1  0  0  0  0
 14 12  1  0  0  0  0
 15 14  2  0  0  0  0
 16 15  1  0  0  0  0
 17 15  1  0  0  0  0
 17 10  2  0  0  0  0
 18 17  1  0  0  0  0
 19 22  1  0  0  0  0
 19 21  1  0  0  0  0
 19  1  1  0  0  0  0
 20 19  1  0  0  0  0
M  END
>  <minimizedAffinity>
-4.36361074

$$$$

 OpenBabel03242521403D

 22 23  0  0  0  0  0  0  0  0999 V2000
   37.4820   26.2100   41.4260 C   0  0  0  0  0  0  0  0  0  0  0  0
   37.7800   27.4890   40.9630 C   0  0  0  0  0  0  0  0  0  0  0  0
   37.4630   28.5750   41.7800 C   0  0  0  0  0  0  0  0  0  0  0  0
   36.8840   28.3270   42.9750 N   0  0  0  0  0  0  0  0  0  0  0  0
   36.6100   27.0710   43.3900 C   0  0  0  0  0  0  0  0  0  0  0  0
   36.9090   26.0080   42.6170 N   0  0  0  0  0  0  0  0  0  0  0  0
   38.2340   27.6050   40.0140 H   0  0  0  0  0  0  0  0  0  0  0  0
   36.1500   26.9710   44.3520 H   0  0  0  0  0  0  0  0  0  0  0  0
   40.0960   29.5570   42.6220 Cl  0  0  0  0  0  0  0  0  0  0  0  0
   38.9540   30.5050   41.6970 C   0  0  0  0  0  0  0  0  0  0  0  0
   37.7470   29.9420   41.3570 C   0  0  0  0  0  0  0  0  0  0  0  0
   36.8960   30.7420   40.6270 C   0  0  0  0  0  0  0  0  0  0  0  0
   35.9440   30.3450   40.3400 H   0  0  0  0  0  0  0  0  0  0  0  0
   37.1980   32.0240   40.2470 C   0  0  0  0  0  3  0  0  0  0  0  0
   38.4260   32.5170   40.6240 C   0  0  0  0  0  0  0  0  0  0  0  0
   38.8840   34.1600   40.1700 Cl  0  0  0  0  0  0  0  0  0  0  0  0
   39.3450   31.7930   41.3550 C   0  0  0  0  0  0  0  0  0  0  0  0
   40.3110   32.1720   41.6560 H   0  0  0  0  0  0  0  0  0  0  0  0
   37.8280   25.0580   40.5390 C   0  0  0  0  0  0  0  0  0  0  0  0
   37.8130   25.4100   39.4850 H   0  0  0  0  0  0  0  0  0  0  0  0
   38.7950   24.6030   40.8000 H   0  0  0  0  0  0  0  0  0  0  0  0
   37.0330   24.2730   40.6000 H   0  0  0  0  0  0  0  0  0  0  0  0
  1  6  1  0  0  0  0
  2  1  2  0  0  0  0
  2  3  1  0  0  0  0
  3  4  2  0  0  0  0
  4  5  1  0  0  0  0
  5  8  1  0  0  0  0
  6  5  2  0  0  0  0
  7  2  1  0  0  0  0
 10  9  1  0  0  0  0
 11 10  1  0  0  0  0
 11  3  1  0  0  0  0
 12 11  2  0  0  0  0
 13 12  1  0  0  0  0
 14 15  2  0  0  0  0
 14 12  1  0  0  0  0
 15 17  1  0  0  0  0
 16 15  1  0  0  0  0
 17 18  1  0  0  0  0
 17 10  2  0  0  0  0
 19 22  1  0  0  0  0
 19 21  1  0  0  0  0
 19  1  1  0  0  0  0
 20 19  1  0  0  0  0
M  END
>  <minimizedAffinity>
-4.26375723

$$$$

 OpenBabel03242521403D

 22 23  0  0  0  0  0  0  0  0999 V2000
   39.7110   32.1010   40.9140 C   0  0  0  0  0  0  0  0  0  0  0  0
   39.4440   30.7770   41.2530 C   0  0  0  0  0  0  0  0  0  0  0  0
   38.1280   30.3240   41.1510 C   0  0  0  0  0  0  0  0  0  0  0  0
   37.1850   31.1930   40.7290 N   0  0  0  0  0  0  0  0  0  0  0  0
   37.4820   32.4720   40.4090 C   0  0  0  0  0  0  0  0  0  0  0  0
   38.7470   32.9300   40.5000 N   0  0  0  0  0  0  0  0  0  0  0  0
   40.2360   30.1550   41.5770 H   0  0  0  0  0  0  0  0  0  0  0  0
   36.6690   33.0890   40.0830 H   0  0  0  0  0  0  0  0  0  0  0  0
   38.0560   28.5110   38.8450 Cl  0  0  0  0  0  0  0  0  0  0  0  0
   37.7150   28.0120   40.4860 C   0  0  0  0  0  0  0  0  0  0  0  0
   37.7780   28.9490   41.4910 C   0  0  0  0  0  0  0  0  0  0  0  0
   37.4990   28.4890   42.7590 C   0  0  0  0  0  0  0  0  0  0  0  0
   37.5360   29.1840   43.5720 H   0  0  0  0  0  0  0  0  0  0  0  0
   37.1740   27.1880   43.0410 C   0  0  0  0  0  3  0  0  0  0  0  0
   37.1320   26.3090   41.9820 C   0  0  0  0  0  0  0  0  0  0  0  0
   36.7200   24.6160   42.2690 Cl  0  0  0  0  0  0  0  0  0  0  0  0
   37.3950   26.6750   40.6790 C   0  0  0  0  0  0  0  0  0  0  0  0
   37.3640   25.9920   39.8420 H   0  0  0  0  0  0  0  0  0  0  0  0
   41.1250   32.5700   41.0290 C   0  0  0  0  0  0  0  0  0  0  0  0
   41.6340   31.9620   41.8080 H   0  0  0  0  0  0  0  0  0  0  0  0
   41.6600   32.5300   40.0690 H   0  0  0  0  0  0  0  0  0  0  0  0
   41.1510   33.6220   41.4110 H   0  0  0  0  0  0  0  0  0  0  0  0
  1 19  1  0  0  0  0
  1  2  1  0  0  0  0
  2  7  1  0  0  0  0
  3  2  2  0  0  0  0
  3 11  1  0  0  0  0
  4  3  1  0  0  0  0
  5  6  1  0  0  0  0
  5  4  2  0  0  0  0
  6  1  2  0  0  0  0
  8  5  1  0  0  0  0
  9 10  1  0  0  0  0
 10 17  2  0  0  0  0
 10 11  1  0  0  0  0
 11 12  2  0  0  0  0
 12 14  1  0  0  0  0
 12 13  1  0  0  0  0
 15 16  1  0  0  0  0
 15 14  2  0  0  0  0
 17 15  1  0  0  0  0
 18 17  1  0  0  0  0
 19 22  1  0  0  0  0
 19 20  1  0  0  0  0
 21 19  1  0  0  0  0
M  END
>  <minimizedAffinity>
-4.26335955

$$$$

 OpenBabel03242521403D

 22 23  0  0  0  0  0  0  0  0999 V2000
   39.8640   32.5380   40.7280 C   0  0  0  0  0  0  0  0  0  0  0  0
   38.9990   31.5280   40.3150 C   0  0  0  0  0  0  0  0  0  0  0  0
   37.7390   31.8960   39.8390 C   0  0  0  0  0  0  0  0  0  0  0  0
   37.4280   33.2100   39.8050 N   0  0  0  0  0  0  0  0  0  0  0  0
   38.2950   34.1610   40.2160 C   0  0  0  0  0  0  0  0  0  0  0  0
   39.5170   33.8280   40.6780 N   0  0  0  0  0  0  0  0  0  0  0  0
   39.3130   30.5200   40.3710 H   0  0  0  0  0  0  0  0  0  0  0  0
   37.9610   35.1770   40.1520 H   0  0  0  0  0  0  0  0  0  0  0  0
   37.8100   31.3950   36.9490 Cl  0  0  0  0  0  0  0  0  0  0  0  0
   36.7290   30.5750   38.0530 C   0  0  0  0  0  0  0  0  0  0  0  0
   36.7820   30.8900   39.3900 C   0  0  0  0  0  0  0  0  0  0  0  0
   35.9050   30.2070   40.2030 C   0  0  0  0  0  0  0  0  0  0  0  0
   35.9130   30.4210   41.2520 H   0  0  0  0  0  0  0  0  0  0  0  0
   35.0200   29.2670   39.7450 C   0  0  0  0  0  3  0  0  0  0  0  0
   35.0260   29.0060   38.3940 C   0  0  0  0  0  0  0  0  0  0  0  0
   33.9130   27.8060   37.7310 Cl  0  0  0  0  0  0  0  0  0  0  0  0
   35.8660   29.6370   37.5010 C   0  0  0  0  0  0  0  0  0  0  0  0
   35.8780   29.4390   36.4390 H   0  0  0  0  0  0  0  0  0  0  0  0
   41.2090   32.1270   41.2360 C   0  0  0  0  0  0  0  0  0  0  0  0
   41.1270   31.1010   41.6530 H   0  0  0  0  0  0  0  0  0  0  0  0
   41.9860   32.1900   40.4600 H   0  0  0  0  0  0  0  0  0  0  0  0
   41.5090   32.7750   42.0980 H   0  0  0  0  0  0  0  0  0  0  0  0
  1 19  1  0  0  0  0
  2  7  1  0  0  0  0
  2  1  2  0  0  0  0
  3  2  1  0  0  0  0
  4  3  2  0  0  0  0
  4  5  1  0  0  0  0
  5  6  2  0  0  0  0
  6  1  1  0  0  0  0
  8  5  1  0  0  0  0
  9 10  1  0  0  0  0
 10 11  1  0  0  0  0
 11  3  1  0  0  0  0
 11 12  2  0  0  0  0
 12 13  1  0  0  0  0
 14 12  1  0  0  0  0
 15 14  2  0  0  0  0
 16 15  1  0  0  0  0
 17 10  2  0  0  0  0
 17 15  1  0  0  0  0
 18 17  1  0  0  0  0
 19 20  1  0  0  0  0
 19 22  1  0  0  0  0
 21 19  1  0  0  0  0
M  END
>  <minimizedAffinity>
-4.25954628

$$$$

 OpenBabel03242521403D

 22 23  0  0  0  0  0  0  0  0999 V2000
   39.4730   31.8320   39.7690 C   0  0  0  0  0  0  0  0  0  0  0  0
   39.2430   30.4880   40.0530 C   0  0  0  0  0  0  0  0  0  0  0  0
   37.9600   30.1100   40.4510 C   0  0  0  0  0  0  0  0  0  0  0  0
   37.0110   31.0660   40.5400 N   0  0  0  0  0  0  0  0  0  0  0  0
   37.2720   32.3620   40.2560 C   0  0  0  0  0  0  0  0  0  0  0  0
   38.5040   32.7490   39.8690 N   0  0  0  0  0  0  0  0  0  0  0  0
   40.0370   29.7960   39.9610 H   0  0  0  0  0  0  0  0  0  0  0  0
   36.4580   33.0500   40.3540 H   0  0  0  0  0  0  0  0  0  0  0  0
   38.4050   29.4000   43.2630 Cl  0  0  0  0  0  0  0  0  0  0  0  0
   37.8220   28.2760   42.0560 C   0  0  0  0  0  0  0  0  0  0  0  0
   37.6500   28.7190   40.7650 C   0  0  0  0  0  0  0  0  0  0  0  0
   37.1880   27.7840   39.8670 C   0  0  0  0  0  0  0  0  0  0  0  0
   37.0390   28.0850   38.8500 H   0  0  0  0  0  0  0  0  0  0  0  0
   36.9070   26.4840   40.1990 C   0  0  0  0  0  3  0  0  0  0  0  0
   37.1040   26.1170   41.5100 C   0  0  0  0  0  0  0  0  0  0  0  0
   36.7630   24.4590   42.0130 Cl  0  0  0  0  0  0  0  0  0  0  0  0
   37.5630   26.9810   42.4820 C   0  0  0  0  0  0  0  0  0  0  0  0
   37.7210   26.7010   43.5140 H   0  0  0  0  0  0  0  0  0  0  0  0
   40.8520   32.2210   39.3440 C   0  0  0  0  0  0  0  0  0  0  0  0
   41.5710   31.4960   39.7820 H   0  0  0  0  0  0  0  0  0  0  0  0
   40.9520   32.2810   38.2500 H   0  0  0  0  0  0  0  0  0  0  0  0
   41.1250   33.2120   39.7850 H   0  0  0  0  0  0  0  0  0  0  0  0
  1  6  2  0  0  0  0
  1  2  1  0  0  0  0
  2  3  2  0  0  0  0
  3  4  1  0  0  0  0
  3 11  1  0  0  0  0
  5  8  1  0  0  0  0
  5  4  2  0  0  0  0
  6  5  1  0  0  0  0
  7  2  1  0  0  0  0
 10 17  1  0  0  0  0
 10  9  1  0  0  0  0
 11 10  2  0  0  0  0
 12 14  2  0  0  0  0
 12 11  1  0  0  0  0
 13 12  1  0  0  0  0
 14 15  1  0  0  0  0
 15 16  1  0  0  0  0
 15 17  2  0  0  0  0
 17 18  1  0  0  0  0
 19  1  1  0  0  0  0
 19 20  1  0  0  0  0
 19 22  1  0  0  0  0
 21 19  1  0  0  0  0
M  END
>  <minimizedAffinity>
-4.20101833

$$$$

 OpenBabel03242521403D

 22 23  0  0  0  0  0  0  0  0999 V2000
   37.4150   30.7060   38.9850 C   0  0  0  0  0  0  0  0  0  0  0  0
   37.9000   29.4990   39.4820 C   0  0  0  0  0  0  0  0  0  0  0  0
   37.5270   29.1230   40.7740 C   0  0  0  0  0  0  0  0  0  0  0  0
   36.7180   29.9500   41.4710 N   0  0  0  0  0  0  0  0  0  0  0  0
   36.2670   31.1140   40.9530 C   0  0  0  0  0  0  0  0  0  0  0  0
   36.6140   31.4960   39.7080 N   0  0  0  0  0  0  0  0  0  0  0  0
   38.5310   28.9050   38.8770 H   0  0  0  0  0  0  0  0  0  0  0  0
   35.6290   31.7040   41.5790 H   0  0  0  0  0  0  0  0  0  0  0  0
   39.9150   29.4240   42.4520 Cl  0  0  0  0  0  0  0  0  0  0  0  0
   39.1140   27.8960   42.1640 C   0  0  0  0  0  0  0  0  0  0  0  0
   38.0000   27.8730   41.3580 C   0  0  0  0  0  0  0  0  0  0  0  0
   37.4180   26.6380   41.1740 C   0  0  0  0  0  0  0  0  0  0  0  0
   36.5480   26.5730   40.5530 H   0  0  0  0  0  0  0  0  0  0  0  0
   37.8900   25.4830   41.7400 C   0  0  0  0  0  3  0  0  0  0  0  0
   39.0090   25.5870   42.5350 C   0  0  0  0  0  0  0  0  0  0  0  0
   39.6750   24.1420   43.2980 Cl  0  0  0  0  0  0  0  0  0  0  0  0
   39.6610   26.7780   42.7790 C   0  0  0  0  0  0  0  0  0  0  0  0
   40.5400   26.8690   43.4010 H   0  0  0  0  0  0  0  0  0  0  0  0
   37.8230   31.0940   37.6000 C   0  0  0  0  0  0  0  0  0  0  0  0
   38.8060   30.6240   37.3800 H   0  0  0  0  0  0  0  0  0  0  0  0
   37.0670   30.8240   36.8490 H   0  0  0  0  0  0  0  0  0  0  0  0
   38.0040   32.1970   37.5470 H   0  0  0  0  0  0  0  0  0  0  0  0
  1  2  2  0  0  0  0
  1  6  1  0  0  0  0
  2  3  1  0  0  0  0
  3 11  1  0  0  0  0
  3  4  2  0  0  0  0
  5  4  1  0  0  0  0
  5  8  1  0  0  0  0
  6  5  2  0  0  0  0
  7  2  1  0  0  0  0
 10  9  1  0  0  0  0
 10 17  1  0  0  0  0
 11 10  2  0  0  0  0
 12 11  1  0  0  0  0
 12 14  2  0  0  0  0
 13 12  1  0  0  0  0
 14 15  1  0  0  0  0
 15 17  2  0  0  0  0
 15 16  1  0  0  0  0
 17 18  1  0  0  0  0
 19  1  1  0  0  0  0
 20 19  1  0  0  0  0
 21 19  1  0  0  0  0
 22 19  1  0  0  0  0
M  END
>  <minimizedAffinity>
-4.17430353

$$$$

 OpenBabel03242521403D

 22 23  0  0  0  0  0  0  0  0999 V2000
   38.4650   32.2080   40.3890 C   0  0  0  0  0  0  0  0  0  0  0  0
   37.9310   30.9240   40.4480 C   0  0  0  0  0  0  0  0  0  0  0  0
   38.7570   29.8870   40.8840 C   0  0  0  0  0  0  0  0  0  0  0  0
   40.0290   30.1860   41.2250 N   0  0  0  0  0  0  0  0  0  0  0  0
   40.5120   31.4460   41.1540 C   0  0  0  0  0  0  0  0  0  0  0  0
   39.7310   32.4620   40.7370 N   0  0  0  0  0  0  0  0  0  0  0  0
   36.9240   30.7670   40.1640 H   0  0  0  0  0  0  0  0  0  0  0  0
   41.5330   31.5880   41.4460 H   0  0  0  0  0  0  0  0  0  0  0  0
   37.8160   29.1280   43.5570 Cl  0  0  0  0  0  0  0  0  0  0  0  0
   37.7960   28.0540   42.1770 C   0  0  0  0  0  0  0  0  0  0  0  0
   38.2630   28.5170   40.9690 C   0  0  0  0  0  0  0  0  0  0  0  0
   38.2170   27.6210   39.9240 C   0  0  0  0  0  0  0  0  0  0  0  0
   38.5710   27.9400   38.9650 H   0  0  0  0  0  0  0  0  0  0  0  0
   37.7450   26.3400   40.0420 C   0  0  0  0  0  3  0  0  0  0  0  0
   37.2950   25.9500   41.2830 C   0  0  0  0  0  0  0  0  0  0  0  0
   36.6720   24.3140   41.5100 Cl  0  0  0  0  0  0  0  0  0  0  0  0
   37.3000   26.7750   42.3880 C   0  0  0  0  0  0  0  0  0  0  0  0
   36.9490   26.4770   43.3660 H   0  0  0  0  0  0  0  0  0  0  0  0
   37.5660   33.3070   39.9200 C   0  0  0  0  0  0  0  0  0  0  0  0
   36.7990   32.8690   39.2470 H   0  0  0  0  0  0  0  0  0  0  0  0
   37.1080   33.8590   40.7540 H   0  0  0  0  0  0  0  0  0  0  0  0
   38.1400   34.0280   39.2850 H   0  0  0  0  0  0  0  0  0  0  0  0
  1  2  2  0  0  0  0
  1  6  1  0  0  0  0
  2  3  1  0  0  0  0
  3 11  1  0  0  0  0
  3  4  2  0  0  0  0
  5  4  1  0  0  0  0
  5  8  1  0  0  0  0
  6  5  2  0  0  0  0
  7  2  1  0  0  0  0
 10 17  1  0  0  0  0
 10  9  1  0  0  0  0
 11 10  2  0  0  0  0
 12 14  2  0  0  0  0
 12 11  1  0  0  0  0
 13 12  1  0  0  0  0
 14 15  1  0  0  0  0
 15 16  1  0  0  0  0
 15 17  2  0  0  0  0
 17 18  1  0  0  0  0
 19  1  1  0  0  0  0
 19 21  1  0  0  0  0
 20 19  1  0  0  0  0
 22 19  1  0  0  0  0
M  END
>  <minimizedAffinity>
-4.15303183

$$$$
