
 OpenBabel03252507583D

 28 30  0  0  1  0  0  0  0  0999 V2000
   46.8810   32.3260   46.1900 C   0  0  1  0  0  0  0  0  0  0  0  0
   47.0290   32.3890   47.6770 C   0  0  0  0  0  0  0  0  0  0  0  0
   45.9670   31.5530   47.0900 C   0  0  2  0  0  0  0  0  0  0  0  0
   47.6090   31.7670   45.5980 H   0  0  0  0  0  0  0  0  0  0  0  0
   46.7970   33.4180   48.0800 H   0  0  0  0  0  0  0  0  0  0  0  0
   48.0050   32.0460   48.0270 H   0  0  0  0  0  0  0  0  0  0  0  0
   44.9210   31.9640   47.2600 H   0  0  0  0  0  0  0  0  0  0  0  0
   48.6180   30.0070   47.6690 Cl  0  0  0  0  0  0  0  0  0  0  0  0
   47.0790   29.2230   47.3910 C   0  0  0  0  0  0  0  0  0  0  0  0
   46.0470   30.0970   47.1680 C   0  0  0  0  0  0  0  0  0  0  0  0
   44.7840   29.5270   46.9500 C   0  0  0  0  0  0  0  0  0  0  0  0
   43.8390   30.0600   46.7560 H   0  0  0  0  0  0  0  0  0  0  0  0
   44.5940   28.1400   46.9610 C   0  0  0  0  0  3  0  0  0  0  0  0
   45.6580   27.2960   47.1880 C   0  0  0  0  0  0  0  0  0  0  0  0
   45.5590   25.5500   47.2280 Cl  0  0  0  0  0  0  0  0  0  0  0  0
   46.8830   27.8580   47.4000 C   0  0  0  0  0  0  0  0  0  0  0  0
   47.8270   27.3260   47.5940 H   0  0  0  0  0  0  0  0  0  0  0  0
   45.9280   34.6830   43.5420 C   0  0  0  0  0  0  0  0  0  0  0  0
   44.9510   35.4970   44.1680 C   0  0  0  0  0  0  0  0  0  0  0  0
   44.6300   35.2130   45.5000 C   0  0  0  0  0  0  0  0  0  0  0  0
   45.2690   34.1840   46.1080 N   0  0  0  0  0  0  0  0  0  0  0  0
   46.2010   33.4350   45.4530 C   0  0  0  0  0  0  0  0  0  0  0  0
   46.5460   33.6600   44.1850 N   0  0  0  0  0  0  0  0  0  0  0  0
   44.4750   36.2970   43.6500 H   0  0  0  0  0  0  0  0  0  0  0  0
   43.8980   35.8080   45.9960 H   0  0  0  0  0  0  0  0  0  0  0  0
   46.2210   35.0280   42.1830 C   0  0  0  0  0  0  0  0  0  0  0  0
   47.3830   35.0400   41.6690 O   0  0  0  0  0  0  0  0  0  0  0  0
   45.5890   35.3340   41.3480 H   0  0  0  0  0  0  0  0  0  0  0  0
  1  4  1  6  0  0  0
  1  3  1  0  0  0  0
  1  2  1  0  0  0  0
  2  6  1  0  0  0  0
  2  5  1  0  0  0  0
  3 10  1  0  0  0  0
  3  7  1  1  0  0  0
  3  2  1  0  0  0  0
  9 16  1  0  0  0  0
  9  8  1  0  0  0  0
 10  9  2  0  0  0  0
 11 13  2  0  0  0  0
 11 10  1  0  0  0  0
 12 11  1  0  0  0  0
 13 14  1  0  0  0  0
 14 15  1  0  0  0  0
 14 16  2  0  0  0  0
 16 17  1  0  0  0  0
 18 19  2  0  0  0  0
 18 23  1  0  0  0  0
 19 20  1  0  0  0  0
 20 25  1  0  0  0  0
 20 21  2  0  0  0  0
 22 21  1  0  0  0  0
 22  1  1  0  0  0  0
 23 22  2  0  0  0  0
 24 19  1  0  0  0  0
 26 18  1  0  0  0  0
 27 26  2  0  0  0  0
 28 26  1  0  0  0  0
M  END
>  <minimizedAffinity>
-4.93243313

>  <minimizedRMSD>
2.29577947

$$$$
