
 OpenBabel03242515063D

 40 42  0  0  0  0  0  0  0  0999 V2000
   36.4330   28.8700   39.9560 C   0  0  0  0  0  0  0  0  0  0  0  0
   37.0610   30.0800   39.6510 C   0  0  0  0  0  0  0  0  0  0  0  0
   37.8640   30.6950   40.6230 C   0  0  0  0  0  0  0  0  0  0  0  0
   37.9780   30.0640   41.8150 N   0  0  0  0  0  0  0  0  0  0  0  0
   37.3680   28.9000   42.0960 C   0  0  0  0  0  0  0  0  0  0  0  0
   36.6170   28.3360   41.1700 N   0  0  0  0  0  0  0  0  0  0  0  0
   36.9340   30.5270   38.6980 H   0  0  0  0  0  0  0  0  0  0  0  0
   40.7870   30.4320   39.9100 Cl  0  0  0  0  0  0  0  0  0  0  0  0
   39.8880   31.9260   40.0500 C   0  0  0  0  0  0  0  0  0  0  0  0
   38.5510   31.9550   40.3810 C   0  0  0  0  0  0  0  0  0  0  0  0
   37.9440   33.1890   40.4620 C   0  0  0  0  0  0  0  0  0  0  0  0
   36.9170   33.2660   40.7140 H   0  0  0  0  0  0  0  0  0  0  0  0
   38.6870   34.3310   40.2130 C   0  0  0  0  0  3  0  0  0  0  0  0
   40.0430   34.3100   39.8760 C   0  0  0  0  0  0  0  0  0  0  0  0
   40.8260   35.8440   39.5940 Cl  0  0  0  0  0  0  0  0  0  0  0  0
   40.6290   33.0640   39.8010 C   0  0  0  0  0  0  0  0  0  0  0  0
   41.6760   33.0570   39.5390 H   0  0  0  0  0  0  0  0  0  0  0  0
   37.5870   28.3510   43.4120 C   0  0  0  0  0  0  0  0  0  0  0  0
   38.5300   27.5240   43.5520 O   0  0  0  0  0  0  0  0  0  0  0  0
   36.7320   28.7680   44.4800 N   0  0  0  0  0  0  0  0  0  0  0  0
   36.1460   28.0740   45.0000 H   0  0  0  0  0  0  0  0  0  0  0  0
   36.7480   29.7790   44.6760 H   0  0  0  0  0  0  0  0  0  0  0  0
   35.4300   28.1490   38.6770 S   0  0  0  0  0  0  0  0  0  0  0  0
   34.0760   29.2200   38.1610 C   0  0  0  0  0  0  0  0  0  0  0  0
   33.5720   29.5740   39.1030 H   0  0  0  0  0  0  0  0  0  0  0  0
   34.4670   30.1580   37.6800 H   0  0  0  0  0  0  0  0  0  0  0  0
   33.0540   28.5580   37.3160 C   0  0  0  0  0  0  0  0  0  0  0  0
   32.2900   28.0550   37.9750 H   0  0  0  0  0  0  0  0  0  0  0  0
   33.4290   27.7390   36.6710 H   0  0  0  0  0  0  0  0  0  0  0  0
   30.7210   30.0070   38.6130 Cl  0  0  0  0  0  0  0  0  0  0  0  0
   31.2250   30.2430   36.9740 C   0  0  0  0  0  0  0  0  0  0  0  0
   32.3180   29.5190   36.4790 C   0  0  0  0  0  0  0  0  0  0  0  0
   32.6590   29.7590   35.1670 C   0  0  0  0  0  0  0  0  0  0  0  0
   32.0320   30.6430   34.2930 C   0  0  0  0  0  0  0  0  0  0  0  0
   30.9580   31.3420   34.8110 C   0  0  0  0  0  0  0  0  0  0  0  0
   30.0900   32.4850   33.7950 Cl  0  0  0  0  0  0  0  0  0  0  0  0
   30.5770   31.1380   36.1130 C   0  0  0  0  0  0  0  0  0  0  0  0
   33.5100   29.1910   34.7930 H   0  0  0  0  0  0  0  0  0  0  0  0
   32.3800   30.7560   33.2820 H   0  0  0  0  0  0  0  0  0  0  0  0
   29.7330   31.6790   36.5400 H   0  0  0  0  0  0  0  0  0  0  0  0
  1  6  1  0  0  0  0
  2  1  2  0  0  0  0
  2  3  1  0  0  0  0
  3  4  2  0  0  0  0
  4  5  1  0  0  0  0
  5 18  1  0  0  0  0
  6  5  2  0  0  0  0
  7  2  1  0  0  0  0
  8  9  1  0  0  0  0
  9 10  1  0  0  0  0
 10 11  2  0  0  0  0
 10  3  1  0  0  0  0
 11 12  1  0  0  0  0
 13 11  1  0  0  0  0
 14 13  2  0  0  0  0
 15 14  1  0  0  0  0
 16 14  1  0  0  0  0
 16  9  2  0  0  0  0
 17 16  1  0  0  0  0
 18 19  2  0  0  0  0
 18 20  1  0  0  0  0
 20 22  1  0  0  0  0
 20 21  1  0  0  0  0
 23  1  1  0  0  0  0
 24 23  1  0  0  0  0
 24 25  1  0  0  0  0
 26 24  1  0  0  0  0
 27 28  1  0  0  0  0
 27 24  1  0  0  0  0
 29 27  1  0  0  0  0
 31 30  1  0  0  0  0
 32 31  1  0  0  0  0
 32 27  1  0  0  0  0
 33 32  2  0  0  0  0
 34 35  2  0  0  0  0
 34 33  1  0  0  0  0
 35 37  1  0  0  0  0
 36 35  1  0  0  0  0
 37 40  1  0  0  0  0
 37 31  2  0  0  0  0
 38 33  1  0  0  0  0
 39 34  1  0  0  0  0
M  END
>  <minimizedAffinity>
-6.43841648

$$$$

 OpenBabel03242515063D

 40 42  0  0  0  0  0  0  0  0999 V2000
   38.4650   30.6590   41.1020 C   0  0  0  0  0  0  0  0  0  0  0  0
   37.7830   29.9130   40.1370 C   0  0  0  0  0  0  0  0  0  0  0  0
   37.1200   30.5860   39.1000 C   0  0  0  0  0  0  0  0  0  0  0  0
   37.1850   31.9390   39.1040 N   0  0  0  0  0  0  0  0  0  0  0  0
   37.8440   32.6430   40.0390 C   0  0  0  0  0  0  0  0  0  0  0  0
   38.4630   31.9940   41.0060 N   0  0  0  0  0  0  0  0  0  0  0  0
   37.7670   28.8550   40.1860 H   0  0  0  0  0  0  0  0  0  0  0  0
   34.5980   29.2100   40.0300 Cl  0  0  0  0  0  0  0  0  0  0  0  0
   35.2250   29.2250   38.3960 C   0  0  0  0  0  0  0  0  0  0  0  0
   36.3880   29.8810   38.0580 C   0  0  0  0  0  0  0  0  0  0  0  0
   36.7870   29.8270   36.7420 C   0  0  0  0  0  0  0  0  0  0  0  0
   37.6750   30.3140   36.4290 H   0  0  0  0  0  0  0  0  0  0  0  0
   36.0190   29.1280   35.8250 C   0  0  0  0  0  3  0  0  0  0  0  0
   34.8380   28.4610   36.1590 C   0  0  0  0  0  0  0  0  0  0  0  0
   33.9920   27.6290   34.8790 Cl  0  0  0  0  0  0  0  0  0  0  0  0
   34.4580   28.5290   37.4840 C   0  0  0  0  0  0  0  0  0  0  0  0
   33.5440   28.0110   37.7330 H   0  0  0  0  0  0  0  0  0  0  0  0
   37.8240   34.0800   39.9060 C   0  0  0  0  0  0  0  0  0  0  0  0
   38.6580   34.7430   40.5830 O   0  0  0  0  0  0  0  0  0  0  0  0
   36.8670   34.6720   39.0240 N   0  0  0  0  0  0  0  0  0  0  0  0
   36.1530   35.3480   39.3830 H   0  0  0  0  0  0  0  0  0  0  0  0
   36.9470   34.3790   38.0400 H   0  0  0  0  0  0  0  0  0  0  0  0
   39.2810   29.7400   42.3870 S   0  0  0  0  0  0  0  0  0  0  0  0
   38.1890   28.5700   43.2140 C   0  0  0  0  0  0  0  0  0  0  0  0
   38.0290   28.9640   44.2560 H   0  0  0  0  0  0  0  0  0  0  0  0
   37.1650   28.5790   42.7490 H   0  0  0  0  0  0  0  0  0  0  0  0
   38.7270   27.1940   43.3230 C   0  0  0  0  0  0  0  0  0  0  0  0
   38.4470   26.7590   44.3260 H   0  0  0  0  0  0  0  0  0  0  0  0
   39.8320   27.1130   43.2980 H   0  0  0  0  0  0  0  0  0  0  0  0
   39.7320   24.3280   43.3130 Cl  0  0  0  0  0  0  0  0  0  0  0  0
   38.5560   24.9520   42.2070 C   0  0  0  0  0  0  0  0  0  0  0  0
   38.1640   26.2940   42.3040 C   0  0  0  0  0  0  0  0  0  0  0  0
   37.2250   26.7180   41.3900 C   0  0  0  0  0  0  0  0  0  0  0  0
   36.6320   25.9510   40.3920 C   0  0  0  0  0  0  0  0  0  0  0  0
   37.0380   24.6330   40.3230 C   0  0  0  0  0  0  0  0  0  0  0  0
   36.3540   23.5730   39.0970 Cl  0  0  0  0  0  0  0  0  0  0  0  0
   37.9720   24.1610   41.2090 C   0  0  0  0  0  0  0  0  0  0  0  0
   36.9280   27.7630   41.4750 H   0  0  0  0  0  0  0  0  0  0  0  0
   35.9040   26.3830   39.7270 H   0  0  0  0  0  0  0  0  0  0  0  0
   38.3060   23.1230   41.1710 H   0  0  0  0  0  0  0  0  0  0  0  0
  1 23  1  0  0  0  0
  2  7  1  0  0  0  0
  2  1  2  0  0  0  0
  3  4  2  0  0  0  0
  3  2  1  0  0  0  0
  4  5  1  0  0  0  0
  5  6  2  0  0  0  0
  6  1  1  0  0  0  0
  9  8  1  0  0  0  0
 10  9  1  0  0  0  0
 10  3  1  0  0  0  0
 11 10  2  0  0  0  0
 12 11  1  0  0  0  0
 13 14  2  0  0  0  0
 13 11  1  0  0  0  0
 14 16  1  0  0  0  0
 15 14  1  0  0  0  0
 16 17  1  0  0  0  0
 16  9  2  0  0  0  0
 18  5  1  0  0  0  0
 18 19  2  0  0  0  0
 20 21  1  0  0  0  0
 20 18  1  0  0  0  0
 22 20  1  0  0  0  0
 23 24  1  0  0  0  0
 24 27  1  0  0  0  0
 24 25  1  0  0  0  0
 26 24  1  0  0  0  0
 27 28  1  0  0  0  0
 29 27  1  0  0  0  0
 31 32  1  0  0  0  0
 31 30  1  0  0  0  0
 32 27  1  0  0  0  0
 33 38  1  0  0  0  0
 33 32  2  0  0  0  0
 34 33  1  0  0  0  0
 35 34  2  0  0  0  0
 35 37  1  0  0  0  0
 36 35  1  0  0  0  0
 37 31  2  0  0  0  0
 39 34  1  0  0  0  0
 40 37  1  0  0  0  0
M  END
>  <minimizedAffinity>
-6.40679359

$$$$

 OpenBabel03242515063D

 40 42  0  0  0  0  0  0  0  0999 V2000
   38.1550   30.5340   41.1740 C   0  0  0  0  0  0  0  0  0  0  0  0
   37.3090   30.1400   40.1340 C   0  0  0  0  0  0  0  0  0  0  0  0
   36.5090   28.9990   40.3010 C   0  0  0  0  0  0  0  0  0  0  0  0
   36.6120   28.3430   41.4810 N   0  0  0  0  0  0  0  0  0  0  0  0
   37.4300   28.7330   42.4730 C   0  0  0  0  0  0  0  0  0  0  0  0
   38.1740   29.8070   42.2990 N   0  0  0  0  0  0  0  0  0  0  0  0
   37.2710   30.6940   39.2320 H   0  0  0  0  0  0  0  0  0  0  0  0
   37.4050   26.4880   38.8840 Cl  0  0  0  0  0  0  0  0  0  0  0  0
   35.9360   27.3850   38.5680 C   0  0  0  0  0  0  0  0  0  0  0  0
   35.6040   28.5260   39.2650 C   0  0  0  0  0  0  0  0  0  0  0  0
   34.4230   29.1510   38.9320 C   0  0  0  0  0  0  0  0  0  0  0  0
   34.1210   30.0320   39.4380 H   0  0  0  0  0  0  0  0  0  0  0  0
   33.6290   28.6190   37.9290 C   0  0  0  0  0  3  0  0  0  0  0  0
   33.9590   27.4620   37.2170 C   0  0  0  0  0  0  0  0  0  0  0  0
   32.8450   26.9300   35.9850 Cl  0  0  0  0  0  0  0  0  0  0  0  0
   35.1460   26.8540   37.5680 C   0  0  0  0  0  0  0  0  0  0  0  0
   35.3930   25.9600   37.0140 H   0  0  0  0  0  0  0  0  0  0  0  0
   37.4270   27.9300   43.6730 C   0  0  0  0  0  0  0  0  0  0  0  0
   38.4440   27.2200   43.9040 O   0  0  0  0  0  0  0  0  0  0  0  0
   36.2820   27.9810   44.5280 N   0  0  0  0  0  0  0  0  0  0  0  0
   35.7260   27.1180   44.7310 H   0  0  0  0  0  0  0  0  0  0  0  0
   36.0680   28.9140   44.9070 H   0  0  0  0  0  0  0  0  0  0  0  0
   39.1400   31.9860   40.8930 S   0  0  0  0  0  0  0  0  0  0  0  0
   40.1150   31.8890   39.3810 C   0  0  0  0  0  0  0  0  0  0  0  0
   40.9990   31.2330   39.6120 H   0  0  0  0  0  0  0  0  0  0  0  0
   39.5560   31.3360   38.5770 H   0  0  0  0  0  0  0  0  0  0  0  0
   40.6270   33.1910   38.8920 C   0  0  0  0  0  0  0  0  0  0  0  0
   39.7600   33.8880   38.7010 H   0  0  0  0  0  0  0  0  0  0  0  0
   41.1590   33.1580   37.9200 H   0  0  0  0  0  0  0  0  0  0  0  0
   39.6290   35.8190   40.0420 Cl  0  0  0  0  0  0  0  0  0  0  0  0
   41.1300   35.0730   40.4750 C   0  0  0  0  0  0  0  0  0  0  0  0
   41.4900   33.8560   39.8800 C   0  0  0  0  0  0  0  0  0  0  0  0
   42.6970   33.3240   40.2750 C   0  0  0  0  0  0  0  0  0  0  0  0
   43.5850   33.8690   41.1980 C   0  0  0  0  0  0  0  0  0  0  0  0
   43.2000   35.0680   41.7670 C   0  0  0  0  0  0  0  0  0  0  0  0
   44.2460   35.8480   42.9460 Cl  0  0  0  0  0  0  0  0  0  0  0  0
   42.0070   35.6410   41.4080 C   0  0  0  0  0  0  0  0  0  0  0  0
   42.9670   32.3780   39.8050 H   0  0  0  0  0  0  0  0  0  0  0  0
   44.5070   33.3690   41.4360 H   0  0  0  0  0  0  0  0  0  0  0  0
   41.6860   36.5870   41.8450 H   0  0  0  0  0  0  0  0  0  0  0  0
  1  6  1  0  0  0  0
  2  3  1  0  0  0  0
  2  1  2  0  0  0  0
  3  4  2  0  0  0  0
  4  5  1  0  0  0  0
  5 18  1  0  0  0  0
  6  5  2  0  0  0  0
  7  2  1  0  0  0  0
  9  8  1  0  0  0  0
  9 10  1  0  0  0  0
 10  3  1  0  0  0  0
 11 10  2  0  0  0  0
 11 12  1  0  0  0  0
 13 11  1  0  0  0  0
 14 16  1  0  0  0  0
 14 13  2  0  0  0  0
 15 14  1  0  0  0  0
 16  9  2  0  0  0  0
 17 16  1  0  0  0  0
 18 19  2  0  0  0  0
 18 20  1  0  0  0  0
 20 21  1  0  0  0  0
 20 22  1  0  0  0  0
 23  1  1  0  0  0  0
 24 25  1  0  0  0  0
 24 23  1  0  0  0  0
 26 24  1  0  0  0  0
 27 24  1  0  0  0  0
 27 32  1  0  0  0  0
 28 27  1  0  0  0  0
 29 27  1  0  0  0  0
 30 31  1  0  0  0  0
 31 37  1  0  0  0  0
 32 33  1  0  0  0  0
 32 31  2  0  0  0  0
 33 34  2  0  0  0  0
 34 39  1  0  0  0  0
 34 35  1  0  0  0  0
 35 36  1  0  0  0  0
 37 35  2  0  0  0  0
 37 40  1  0  0  0  0
 38 33  1  0  0  0  0
M  END
>  <minimizedAffinity>
-6.21284294

$$$$

 OpenBabel03242515063D

 40 42  0  0  0  0  0  0  0  0999 V2000
   37.3960   32.2590   39.7900 C   0  0  0  0  0  0  0  0  0  0  0  0
   37.0690   31.5580   38.6270 C   0  0  0  0  0  0  0  0  0  0  0  0
   36.8910   30.1680   38.6960 C   0  0  0  0  0  0  0  0  0  0  0  0
   37.0520   29.5880   39.9100 N   0  0  0  0  0  0  0  0  0  0  0  0
   37.3670   30.2740   41.0210 C   0  0  0  0  0  0  0  0  0  0  0  0
   37.5290   31.5800   40.9360 N   0  0  0  0  0  0  0  0  0  0  0  0
   36.9560   32.0670   37.7040 H   0  0  0  0  0  0  0  0  0  0  0  0
   34.0920   29.0350   38.7070 Cl  0  0  0  0  0  0  0  0  0  0  0  0
   35.2930   28.8120   37.4540 C   0  0  0  0  0  0  0  0  0  0  0  0
   36.5510   29.3670   37.5300 C   0  0  0  0  0  0  0  0  0  0  0  0
   37.4150   29.1260   36.4850 C   0  0  0  0  0  0  0  0  0  0  0  0
   38.3950   29.5300   36.4950 H   0  0  0  0  0  0  0  0  0  0  0  0
   36.9940   28.3500   35.4180 C   0  0  0  0  0  3  0  0  0  0  0  0
   35.7190   27.7840   35.3330 C   0  0  0  0  0  0  0  0  0  0  0  0
   35.3540   26.8320   33.9160 Cl  0  0  0  0  0  0  0  0  0  0  0  0
   34.8720   28.0390   36.3910 C   0  0  0  0  0  0  0  0  0  0  0  0
   33.8890   27.5980   36.3170 H   0  0  0  0  0  0  0  0  0  0  0  0
   37.5030   29.5140   42.2400 C   0  0  0  0  0  0  0  0  0  0  0  0
   38.5080   29.7470   42.9660 O   0  0  0  0  0  0  0  0  0  0  0  0
   36.5000   28.5460   42.5580 N   0  0  0  0  0  0  0  0  0  0  0  0
   36.7470   27.5350   42.6690 H   0  0  0  0  0  0  0  0  0  0  0  0
   35.5490   28.9260   42.6600 H   0  0  0  0  0  0  0  0  0  0  0  0
   37.6070   34.0170   39.6260 S   0  0  0  0  0  0  0  0  0  0  0  0
   38.8720   34.6760   40.7260 C   0  0  0  0  0  0  0  0  0  0  0  0
   38.3340   35.2930   41.4990 H   0  0  0  0  0  0  0  0  0  0  0  0
   39.3620   33.8520   41.3140 H   0  0  0  0  0  0  0  0  0  0  0  0
   39.8740   35.5450   40.0650 C   0  0  0  0  0  0  0  0  0  0  0  0
   39.6880   36.6200   40.3520 H   0  0  0  0  0  0  0  0  0  0  0  0
   39.8350   35.5560   38.9570 H   0  0  0  0  0  0  0  0  0  0  0  0
   41.3790   33.4850   38.4160 Cl  0  0  0  0  0  0  0  0  0  0  0  0
   42.0340   34.2950   39.7980 C   0  0  0  0  0  0  0  0  0  0  0  0
   41.2480   35.2300   40.4850 C   0  0  0  0  0  0  0  0  0  0  0  0
   41.8370   35.8330   41.5740 C   0  0  0  0  0  0  0  0  0  0  0  0
   43.1240   35.6070   42.0540 C   0  0  0  0  0  0  0  0  0  0  0  0
   43.8740   34.6810   41.3550 C   0  0  0  0  0  0  0  0  0  0  0  0
   45.5150   34.3180   41.8730 Cl  0  0  0  0  0  0  0  0  0  0  0  0
   43.3340   34.0520   40.2630 C   0  0  0  0  0  0  0  0  0  0  0  0
   41.2170   36.5580   42.1000 H   0  0  0  0  0  0  0  0  0  0  0  0
   43.4900   36.1350   42.9170 H   0  0  0  0  0  0  0  0  0  0  0  0
   43.9090   33.3170   39.6980 H   0  0  0  0  0  0  0  0  0  0  0  0
  1  6  1  0  0  0  0
  2  3  1  0  0  0  0
  2  1  2  0  0  0  0
  3  4  2  0  0  0  0
  4  5  1  0  0  0  0
  5 18  1  0  0  0  0
  6  5  2  0  0  0  0
  7  2  1  0  0  0  0
  9 10  1  0  0  0  0
  9  8  1  0  0  0  0
 10  3  1  0  0  0  0
 11 12  1  0  0  0  0
 11 10  2  0  0  0  0
 13 11  1  0  0  0  0
 14 13  2  0  0  0  0
 14 16  1  0  0  0  0
 15 14  1  0  0  0  0
 16  9  2  0  0  0  0
 17 16  1  0  0  0  0
 18 20  1  0  0  0  0
 18 19  2  0  0  0  0
 20 22  1  0  0  0  0
 20 21  1  0  0  0  0
 23  1  1  0  0  0  0
 23 24  1  0  0  0  0
 24 26  1  0  0  0  0
 24 25  1  0  0  0  0
 27 28  1  0  0  0  0
 27 32  1  0  0  0  0
 27 24  1  0  0  0  0
 29 27  1  0  0  0  0
 30 31  1  0  0  0  0
 31 37  2  0  0  0  0
 31 32  1  0  0  0  0
 32 33  2  0  0  0  0
 33 34  1  0  0  0  0
 33 38  1  0  0  0  0
 34 39  1  0  0  0  0
 35 36  1  0  0  0  0
 35 34  2  0  0  0  0
 37 35  1  0  0  0  0
 40 37  1  0  0  0  0
M  END
>  <minimizedAffinity>
-6.0395565

$$$$

 OpenBabel03242515063D

 40 42  0  0  0  0  0  0  0  0999 V2000
   40.4790   31.5600   41.2910 C   0  0  0  0  0  0  0  0  0  0  0  0
   39.5240   30.8120   40.5980 C   0  0  0  0  0  0  0  0  0  0  0  0
   38.7250   31.4500   39.6370 C   0  0  0  0  0  0  0  0  0  0  0  0
   38.9350   32.7740   39.4440 N   0  0  0  0  0  0  0  0  0  0  0  0
   39.8560   33.4820   40.1180 C   0  0  0  0  0  0  0  0  0  0  0  0
   40.5990   32.8660   41.0160 N   0  0  0  0  0  0  0  0  0  0  0  0
   39.4060   29.7770   40.7930 H   0  0  0  0  0  0  0  0  0  0  0  0
   36.2160   30.7800   41.1800 Cl  0  0  0  0  0  0  0  0  0  0  0  0
   36.5320   30.3950   39.5020 C   0  0  0  0  0  0  0  0  0  0  0  0
   37.7090   30.7400   38.8750 C   0  0  0  0  0  0  0  0  0  0  0  0
   37.8500   30.3860   37.5510 C   0  0  0  0  0  0  0  0  0  0  0  0
   38.7360   30.6270   37.0230 H   0  0  0  0  0  0  0  0  0  0  0  0
   36.8220   29.7100   36.9140 C   0  0  0  0  0  3  0  0  0  0  0  0
   35.6250   29.3570   37.5430 C   0  0  0  0  0  0  0  0  0  0  0  0
   34.4350   28.5070   36.5910 Cl  0  0  0  0  0  0  0  0  0  0  0  0
   35.5080   29.7220   38.8680 C   0  0  0  0  0  0  0  0  0  0  0  0
   34.5790   29.4460   39.3460 H   0  0  0  0  0  0  0  0  0  0  0  0
   39.9620   34.8850   39.7980 C   0  0  0  0  0  0  0  0  0  0  0  0
   41.1030   35.3330   39.5000 O   0  0  0  0  0  0  0  0  0  0  0  0
   38.7780   35.6860   39.8350 N   0  0  0  0  0  0  0  0  0  0  0  0
   38.7070   36.5070   40.4810 H   0  0  0  0  0  0  0  0  0  0  0  0
   38.0330   35.3870   39.1920 H   0  0  0  0  0  0  0  0  0  0  0  0
   41.4550   30.6870   42.4930 S   0  0  0  0  0  0  0  0  0  0  0  0
   41.3730   28.8980   42.2970 C   0  0  0  0  0  0  0  0  0  0  0  0
   41.2680   28.7020   41.1930 H   0  0  0  0  0  0  0  0  0  0  0  0
   42.3500   28.4180   42.5770 H   0  0  0  0  0  0  0  0  0  0  0  0
   40.2300   28.2540   42.9860 C   0  0  0  0  0  0  0  0  0  0  0  0
   39.7050   29.0130   43.6340 H   0  0  0  0  0  0  0  0  0  0  0  0
   40.4980   27.4430   43.6920 H   0  0  0  0  0  0  0  0  0  0  0  0
   37.3470   28.2010   43.9390 Cl  0  0  0  0  0  0  0  0  0  0  0  0
   37.8660   27.6750   42.3740 C   0  0  0  0  0  0  0  0  0  0  0  0
   39.2250   27.7440   42.0400 C   0  0  0  0  0  0  0  0  0  0  0  0
   39.5620   27.3070   40.7780 C   0  0  0  0  0  0  0  0  0  0  0  0
   38.6930   26.8090   39.8120 C   0  0  0  0  0  0  0  0  0  0  0  0
   37.3600   26.7540   40.1710 C   0  0  0  0  0  0  0  0  0  0  0  0
   36.1730   26.1410   39.0270 Cl  0  0  0  0  0  0  0  0  0  0  0  0
   36.9720   27.1770   41.4170 C   0  0  0  0  0  0  0  0  0  0  0  0
   40.6210   27.3650   40.5300 H   0  0  0  0  0  0  0  0  0  0  0  0
   39.0610   26.4930   38.8520 H   0  0  0  0  0  0  0  0  0  0  0  0
   35.9250   27.1410   41.7200 H   0  0  0  0  0  0  0  0  0  0  0  0
  1 23  1  0  0  0  0
  2  7  1  0  0  0  0
  2  1  2  0  0  0  0
  3  2  1  0  0  0  0
  4  3  2  0  0  0  0
  4  5  1  0  0  0  0
  5  6  2  0  0  0  0
  6  1  1  0  0  0  0
  9  8  1  0  0  0  0
 10  9  1  0  0  0  0
 10  3  1  0  0  0  0
 11 10  2  0  0  0  0
 12 11  1  0  0  0  0
 13 14  2  0  0  0  0
 13 11  1  0  0  0  0
 14 16  1  0  0  0  0
 15 14  1  0  0  0  0
 16 17  1  0  0  0  0
 16  9  2  0  0  0  0
 18 20  1  0  0  0  0
 18  5  1  0  0  0  0
 19 18  2  0  0  0  0
 20 21  1  0  0  0  0
 22 20  1  0  0  0  0
 24 23  1  0  0  0  0
 24 26  1  0  0  0  0
 24 27  1  0  0  0  0
 25 24  1  0  0  0  0
 27 28  1  0  0  0  0
 27 29  1  0  0  0  0
 31 30  1  0  0  0  0
 32 31  1  0  0  0  0
 32 27  1  0  0  0  0
 33 32  2  0  0  0  0
 34 35  2  0  0  0  0
 34 33  1  0  0  0  0
 35 37  1  0  0  0  0
 36 35  1  0  0  0  0
 37 40  1  0  0  0  0
 37 31  2  0  0  0  0
 38 33  1  0  0  0  0
 39 34  1  0  0  0  0
M  END
>  <minimizedAffinity>
-6.01785421

$$$$

 OpenBabel03242515063D

 40 42  0  0  0  0  0  0  0  0999 V2000
   40.5980   31.8020   41.2500 C   0  0  0  0  0  0  0  0  0  0  0  0
   39.7750   30.6740   41.2480 C   0  0  0  0  0  0  0  0  0  0  0  0
   40.0860   29.6020   42.0990 C   0  0  0  0  0  0  0  0  0  0  0  0
   41.1860   29.7350   42.8780 N   0  0  0  0  0  0  0  0  0  0  0  0
   41.9690   30.8260   42.8690 C   0  0  0  0  0  0  0  0  0  0  0  0
   41.6610   31.8240   42.0640 N   0  0  0  0  0  0  0  0  0  0  0  0
   38.9260   30.6270   40.6150 H   0  0  0  0  0  0  0  0  0  0  0  0
   40.8640   27.4630   40.1130 Cl  0  0  0  0  0  0  0  0  0  0  0  0
   39.5650   27.3660   41.2830 C   0  0  0  0  0  0  0  0  0  0  0  0
   39.2780   28.3930   42.1540 C   0  0  0  0  0  0  0  0  0  0  0  0
   38.2340   28.2070   43.0320 C   0  0  0  0  0  0  0  0  0  0  0  0
   37.9720   28.9670   43.7230 H   0  0  0  0  0  0  0  0  0  0  0  0
   37.5250   27.0170   43.0060 C   0  0  0  0  0  3  0  0  0  0  0  0
   37.8100   25.9700   42.1250 C   0  0  0  0  0  0  0  0  0  0  0  0
   36.8170   24.5390   42.2270 Cl  0  0  0  0  0  0  0  0  0  0  0  0
   38.8600   26.1800   41.2550 C   0  0  0  0  0  0  0  0  0  0  0  0
   39.0740   25.3650   40.5790 H   0  0  0  0  0  0  0  0  0  0  0  0
   43.1060   30.8190   43.7590 C   0  0  0  0  0  0  0  0  0  0  0  0
   43.4790   29.7070   44.2230 O   0  0  0  0  0  0  0  0  0  0  0  0
   43.7430   32.0620   44.0650 N   0  0  0  0  0  0  0  0  0  0  0  0
   43.7990   32.4070   45.0520 H   0  0  0  0  0  0  0  0  0  0  0  0
   44.1250   32.5640   43.2510 H   0  0  0  0  0  0  0  0  0  0  0  0
   40.1440   33.1200   40.1470 S   0  0  0  0  0  0  0  0  0  0  0  0
   38.5310   33.8270   40.5260 C   0  0  0  0  0  0  0  0  0  0  0  0
   38.2180   33.3960   41.5180 H   0  0  0  0  0  0  0  0  0  0  0  0
   38.6100   34.9330   40.7110 H   0  0  0  0  0  0  0  0  0  0  0  0
   37.4720   33.5130   39.5380 C   0  0  0  0  0  0  0  0  0  0  0  0
   37.8540   33.7240   38.4980 H   0  0  0  0  0  0  0  0  0  0  0  0
   36.5540   34.1290   39.6130 H   0  0  0  0  0  0  0  0  0  0  0  0
   38.0240   31.8940   37.0280 Cl  0  0  0  0  0  0  0  0  0  0  0  0
   37.2980   31.2520   38.4620 C   0  0  0  0  0  0  0  0  0  0  0  0
   37.0900   32.0920   39.5640 C   0  0  0  0  0  0  0  0  0  0  0  0
   36.5080   31.5100   40.6680 C   0  0  0  0  0  0  0  0  0  0  0  0
   36.1110   30.1820   40.7950 C   0  0  0  0  0  0  0  0  0  0  0  0
   36.3300   29.3790   39.6920 C   0  0  0  0  0  0  0  0  0  0  0  0
   35.8660   27.6840   39.7420 Cl  0  0  0  0  0  0  0  0  0  0  0  0
   36.9070   29.9110   38.5670 C   0  0  0  0  0  0  0  0  0  0  0  0
   36.3510   32.1720   41.5180 H   0  0  0  0  0  0  0  0  0  0  0  0
   35.6630   29.8270   41.7070 H   0  0  0  0  0  0  0  0  0  0  0  0
   37.0870   29.2940   37.6860 H   0  0  0  0  0  0  0  0  0  0  0  0
  1  6  1  0  0  0  0
  2  1  2  0  0  0  0
  2  3  1  0  0  0  0
  3 10  1  0  0  0  0
  3  4  2  0  0  0  0
  5  4  1  0  0  0  0
  5 18  1  0  0  0  0
  6  5  2  0  0  0  0
  7  2  1  0  0  0  0
  8  9  1  0  0  0  0
  9 10  1  0  0  0  0
 10 11  2  0  0  0  0
 11 12  1  0  0  0  0
 13 11  1  0  0  0  0
 14 15  1  0  0  0  0
 14 13  2  0  0  0  0
 16  9  2  0  0  0  0
 16 14  1  0  0  0  0
 17 16  1  0  0  0  0
 18 20  1  0  0  0  0
 18 19  2  0  0  0  0
 20 21  1  0  0  0  0
 22 20  1  0  0  0  0
 23 24  1  0  0  0  0
 23  1  1  0  0  0  0
 24 26  1  0  0  0  0
 24 25  1  0  0  0  0
 27 32  1  0  0  0  0
 27 29  1  0  0  0  0
 27 24  1  0  0  0  0
 28 27  1  0  0  0  0
 30 31  1  0  0  0  0
 31 37  2  0  0  0  0
 31 32  1  0  0  0  0
 32 33  2  0  0  0  0
 33 34  1  0  0  0  0
 33 38  1  0  0  0  0
 34 39  1  0  0  0  0
 35 36  1  0  0  0  0
 35 34  2  0  0  0  0
 37 35  1  0  0  0  0
 40 37  1  0  0  0  0
M  END
>  <minimizedAffinity>
-5.98767042

$$$$

 OpenBabel03242515063D

 40 42  0  0  0  0  0  0  0  0999 V2000
   39.4260   28.0050   42.4040 C   0  0  0  0  0  0  0  0  0  0  0  0
   38.8760   27.0610   41.5330 C   0  0  0  0  0  0  0  0  0  0  0  0
   39.4320   25.7740   41.4840 C   0  0  0  0  0  0  0  0  0  0  0  0
   40.4860   25.5280   42.2980 N   0  0  0  0  0  0  0  0  0  0  0  0
   41.0060   26.4460   43.1300 C   0  0  0  0  0  0  0  0  0  0  0  0
   40.4700   27.6500   43.1640 N   0  0  0  0  0  0  0  0  0  0  0  0
   38.0490   27.3120   40.9190 H   0  0  0  0  0  0  0  0  0  0  0  0
   36.7780   24.6020   42.3230 Cl  0  0  0  0  0  0  0  0  0  0  0  0
   37.7100   24.1480   40.9130 C   0  0  0  0  0  0  0  0  0  0  0  0
   38.9160   24.7360   40.6040 C   0  0  0  0  0  0  0  0  0  0  0  0
   39.5630   24.3000   39.4690 C   0  0  0  0  0  0  0  0  0  0  0  0
   40.4940   24.7200   39.1870 H   0  0  0  0  0  0  0  0  0  0  0  0
   38.9860   23.3050   38.6960 C   0  0  0  0  0  3  0  0  0  0  0  0
   37.7630   22.7030   39.0020 C   0  0  0  0  0  0  0  0  0  0  0  0
   37.1820   21.4650   37.9190 Cl  0  0  0  0  0  0  0  0  0  0  0  0
   37.1340   23.1570   40.1430 C   0  0  0  0  0  0  0  0  0  0  0  0
   36.1890   22.6870   40.3720 H   0  0  0  0  0  0  0  0  0  0  0  0
   42.1290   26.0320   43.9370 C   0  0  0  0  0  0  0  0  0  0  0  0
   42.3490   26.6680   45.0040 O   0  0  0  0  0  0  0  0  0  0  0  0
   42.9260   24.9330   43.4870 N   0  0  0  0  0  0  0  0  0  0  0  0
   43.9470   25.0560   43.2920 H   0  0  0  0  0  0  0  0  0  0  0  0
   42.4160   24.0460   43.3780 H   0  0  0  0  0  0  0  0  0  0  0  0
   38.6710   29.6140   42.4120 S   0  0  0  0  0  0  0  0  0  0  0  0
   36.9630   29.5900   41.8400 C   0  0  0  0  0  0  0  0  0  0  0  0
   36.8530   28.6710   41.2010 H   0  0  0  0  0  0  0  0  0  0  0  0
   36.2550   29.4240   42.6980 H   0  0  0  0  0  0  0  0  0  0  0  0
   36.5680   30.7640   41.0260 C   0  0  0  0  0  0  0  0  0  0  0  0
   37.3090   31.5990   41.1860 H   0  0  0  0  0  0  0  0  0  0  0  0
   35.5930   31.2190   41.2910 H   0  0  0  0  0  0  0  0  0  0  0  0
   38.5140   32.3390   39.3070 Cl  0  0  0  0  0  0  0  0  0  0  0  0
   37.4310   31.1350   38.6980 C   0  0  0  0  0  0  0  0  0  0  0  0
   36.5740   30.4680   39.5840 C   0  0  0  0  0  0  0  0  0  0  0  0
   35.7420   29.5240   39.0260 C   0  0  0  0  0  0  0  0  0  0  0  0
   35.6690   29.1700   37.6820 C   0  0  0  0  0  0  0  0  0  0  0  0
   36.5270   29.8440   36.8340 C   0  0  0  0  0  0  0  0  0  0  0  0
   36.5200   29.4770   35.1150 Cl  0  0  0  0  0  0  0  0  0  0  0  0
   37.3760   30.7950   37.3400 C   0  0  0  0  0  0  0  0  0  0  0  0
   35.0800   29.0120   39.7240 H   0  0  0  0  0  0  0  0  0  0  0  0
   34.9800   28.4140   37.3490 H   0  0  0  0  0  0  0  0  0  0  0  0
   38.0600   31.3380   36.6880 H   0  0  0  0  0  0  0  0  0  0  0  0
  1 23  1  0  0  0  0
  1  6  1  0  0  0  0
  2  1  2  0  0  0  0
  3  2  1  0  0  0  0
  3  4  2  0  0  0  0
  4  5  1  0  0  0  0
  5  6  2  0  0  0  0
  5 18  1  0  0  0  0
  7  2  1  0  0  0  0
  9  8  1  0  0  0  0
 10  9  1  0  0  0  0
 10  3  1  0  0  0  0
 11 10  2  0  0  0  0
 12 11  1  0  0  0  0
 13 14  2  0  0  0  0
 13 11  1  0  0  0  0
 14 16  1  0  0  0  0
 15 14  1  0  0  0  0
 16 17  1  0  0  0  0
 16  9  2  0  0  0  0
 18 19  2  0  0  0  0
 20 18  1  0  0  0  0
 21 20  1  0  0  0  0
 22 20  1  0  0  0  0
 24 23  1  0  0  0  0
 24 26  1  0  0  0  0
 25 24  1  0  0  0  0
 27 28  1  0  0  0  0
 27 29  1  0  0  0  0
 27 24  1  0  0  0  0
 31 30  1  0  0  0  0
 31 32  1  0  0  0  0
 32 27  1  0  0  0  0
 33 32  2  0  0  0  0
 33 38  1  0  0  0  0
 34 33  1  0  0  0  0
 35 37  1  0  0  0  0
 35 34  2  0  0  0  0
 36 35  1  0  0  0  0
 37 31  2  0  0  0  0
 39 34  1  0  0  0  0
 40 37  1  0  0  0  0
M  END
>  <minimizedAffinity>
-5.97393751

$$$$

 OpenBabel03242515063D

 40 42  0  0  0  0  0  0  0  0999 V2000
   39.1930   31.9680   39.2160 C   0  0  0  0  0  0  0  0  0  0  0  0
   39.7360   31.3710   40.3570 C   0  0  0  0  0  0  0  0  0  0  0  0
   41.1280   31.2170   40.4490 C   0  0  0  0  0  0  0  0  0  0  0  0
   41.8660   31.6630   39.4050 N   0  0  0  0  0  0  0  0  0  0  0  0
   41.3300   32.2350   38.3130 C   0  0  0  0  0  0  0  0  0  0  0  0
   40.0210   32.3730   38.2440 N   0  0  0  0  0  0  0  0  0  0  0  0
   39.1070   31.0410   41.1440 H   0  0  0  0  0  0  0  0  0  0  0  0
   41.1210   28.1970   40.4530 Cl  0  0  0  0  0  0  0  0  0  0  0  0
   41.8100   29.2310   41.6850 C   0  0  0  0  0  0  0  0  0  0  0  0
   41.7680   30.6060   41.6030 C   0  0  0  0  0  0  0  0  0  0  0  0
   42.3420   31.3200   42.6310 C   0  0  0  0  0  0  0  0  0  0  0  0
   42.3370   32.3800   42.6160 H   0  0  0  0  0  0  0  0  0  0  0  0
   42.9290   30.6430   43.6880 C   0  0  0  0  0  3  0  0  0  0  0  0
   42.9760   29.2490   43.7780 C   0  0  0  0  0  0  0  0  0  0  0  0
   43.7540   28.5590   45.1790 Cl  0  0  0  0  0  0  0  0  0  0  0  0
   42.3940   28.5550   42.7370 C   0  0  0  0  0  0  0  0  0  0  0  0
   42.4350   27.4790   42.8150 H   0  0  0  0  0  0  0  0  0  0  0  0
   42.2490   32.6610   37.2840 C   0  0  0  0  0  0  0  0  0  0  0  0
   43.0200   31.7930   36.7920 O   0  0  0  0  0  0  0  0  0  0  0  0
   42.2350   34.0330   36.8810 N   0  0  0  0  0  0  0  0  0  0  0  0
   43.0910   34.6290   36.9790 H   0  0  0  0  0  0  0  0  0  0  0  0
   41.3370   34.3640   36.5010 H   0  0  0  0  0  0  0  0  0  0  0  0
   37.4240   32.1300   39.1690 S   0  0  0  0  0  0  0  0  0  0  0  0
   36.6140   31.3940   40.6000 C   0  0  0  0  0  0  0  0  0  0  0  0
   37.3350   31.4890   41.4590 H   0  0  0  0  0  0  0  0  0  0  0  0
   35.7210   32.0020   40.9130 H   0  0  0  0  0  0  0  0  0  0  0  0
   36.2710   29.9600   40.4460 C   0  0  0  0  0  0  0  0  0  0  0  0
   36.4820   29.6350   39.3870 H   0  0  0  0  0  0  0  0  0  0  0  0
   35.2020   29.7090   40.5920 H   0  0  0  0  0  0  0  0  0  0  0  0
   36.5010   27.0360   39.6600 Cl  0  0  0  0  0  0  0  0  0  0  0  0
   37.2570   27.7330   41.0520 C   0  0  0  0  0  0  0  0  0  0  0  0
   37.0830   29.0970   41.3190 C   0  0  0  0  0  0  0  0  0  0  0  0
   37.7140   29.5800   42.4440 C   0  0  0  0  0  0  0  0  0  0  0  0
   38.5000   28.8520   43.3320 C   0  0  0  0  0  0  0  0  0  0  0  0
   38.6530   27.5100   43.0410 C   0  0  0  0  0  0  0  0  0  0  0  0
   39.6270   26.4950   44.0970 Cl  0  0  0  0  0  0  0  0  0  0  0  0
   38.0450   26.9800   41.9320 C   0  0  0  0  0  0  0  0  0  0  0  0
   37.5710   30.6420   42.6420 H   0  0  0  0  0  0  0  0  0  0  0  0
   38.9510   29.3280   44.1850 H   0  0  0  0  0  0  0  0  0  0  0  0
   38.1530   25.9230   41.6860 H   0  0  0  0  0  0  0  0  0  0  0  0
  1  2  1  0  0  0  0
  2  3  2  0  0  0  0
  2  7  1  0  0  0  0
  3 10  1  0  0  0  0
  4  3  1  0  0  0  0
  5  4  2  0  0  0  0
  6  5  1  0  0  0  0
  6  1  2  0  0  0  0
  8  9  1  0  0  0  0
  9 16  1  0  0  0  0
 10  9  2  0  0  0  0
 10 11  1  0  0  0  0
 11 13  2  0  0  0  0
 12 11  1  0  0  0  0
 13 14  1  0  0  0  0
 14 15  1  0  0  0  0
 16 17  1  0  0  0  0
 16 14  2  0  0  0  0
 18  5  1  0  0  0  0
 19 18  2  0  0  0  0
 20 21  1  0  0  0  0
 20 18  1  0  0  0  0
 22 20  1  0  0  0  0
 23  1  1  0  0  0  0
 23 24  1  0  0  0  0
 24 26  1  0  0  0  0
 24 25  1  0  0  0  0
 27 29  1  0  0  0  0
 27 24  1  0  0  0  0
 27 32  1  0  0  0  0
 28 27  1  0  0  0  0
 30 31  1  0  0  0  0
 31 32  2  0  0  0  0
 31 37  1  0  0  0  0
 32 33  1  0  0  0  0
 33 38  1  0  0  0  0
 33 34  2  0  0  0  0
 34 39  1  0  0  0  0
 35 34  1  0  0  0  0
 35 36  1  0  0  0  0
 37 35  2  0  0  0  0
 40 37  1  0  0  0  0
M  END
>  <minimizedAffinity>
-5.94685364

$$$$

 OpenBabel03242515063D

 40 42  0  0  0  0  0  0  0  0999 V2000
   35.9050   25.6470   38.4720 C   0  0  0  0  0  0  0  0  0  0  0  0
   36.3700   26.8910   38.9070 C   0  0  0  0  0  0  0  0  0  0  0  0
   35.7570   28.0560   38.4200 C   0  0  0  0  0  0  0  0  0  0  0  0
   34.7380   27.8940   37.5430 N   0  0  0  0  0  0  0  0  0  0  0  0
   34.3000   26.6910   37.1330 C   0  0  0  0  0  0  0  0  0  0  0  0
   34.8880   25.6070   37.6020 N   0  0  0  0  0  0  0  0  0  0  0  0
   37.1730   26.9550   39.5950 H   0  0  0  0  0  0  0  0  0  0  0  0
   37.0980   29.6730   36.2500 Cl  0  0  0  0  0  0  0  0  0  0  0  0
   36.8050   30.1920   37.8950 C   0  0  0  0  0  0  0  0  0  0  0  0
   36.1840   29.3870   38.8240 C   0  0  0  0  0  0  0  0  0  0  0  0
   36.0050   29.8990   40.0900 C   0  0  0  0  0  0  0  0  0  0  0  0
   35.5330   29.3200   40.8410 H   0  0  0  0  0  0  0  0  0  0  0  0
   36.4480   31.1810   40.3750 C   0  0  0  0  0  3  0  0  0  0  0  0
   37.0780   32.0040   39.4380 C   0  0  0  0  0  0  0  0  0  0  0  0
   37.5730   33.5920   39.9660 Cl  0  0  0  0  0  0  0  0  0  0  0  0
   37.2460   31.4690   38.1780 C   0  0  0  0  0  0  0  0  0  0  0  0
   37.7330   32.1120   37.4600 H   0  0  0  0  0  0  0  0  0  0  0  0
   33.2030   26.6820   36.1960 C   0  0  0  0  0  0  0  0  0  0  0  0
   33.3670   27.2770   35.0960 O   0  0  0  0  0  0  0  0  0  0  0  0
   31.9980   26.0040   36.5610 N   0  0  0  0  0  0  0  0  0  0  0  0
   31.0890   26.5210   36.6190 H   0  0  0  0  0  0  0  0  0  0  0  0
   32.1080   24.9990   36.7540 H   0  0  0  0  0  0  0  0  0  0  0  0
   36.7280   24.2160   39.1300 S   0  0  0  0  0  0  0  0  0  0  0  0
   36.4170   23.9740   40.8880 C   0  0  0  0  0  0  0  0  0  0  0  0
   35.6540   24.7470   41.1860 H   0  0  0  0  0  0  0  0  0  0  0  0
   35.9090   22.9890   41.0740 H   0  0  0  0  0  0  0  0  0  0  0  0
   37.6060   24.1470   41.7550 C   0  0  0  0  0  0  0  0  0  0  0  0
   38.5100   23.7050   41.2450 H   0  0  0  0  0  0  0  0  0  0  0  0
   37.5650   23.6190   42.7280 H   0  0  0  0  0  0  0  0  0  0  0  0
   40.3100   25.1500   40.8020 Cl  0  0  0  0  0  0  0  0  0  0  0  0
   39.1330   26.1340   41.6020 C   0  0  0  0  0  0  0  0  0  0  0  0
   37.9160   25.5650   41.9990 C   0  0  0  0  0  0  0  0  0  0  0  0
   37.0300   26.4100   42.6300 C   0  0  0  0  0  0  0  0  0  0  0  0
   37.2230   27.7600   42.9080 C   0  0  0  0  0  0  0  0  0  0  0  0
   38.4330   28.2910   42.5040 C   0  0  0  0  0  0  0  0  0  0  0  0
   38.7840   29.9880   42.8060 Cl  0  0  0  0  0  0  0  0  0  0  0  0
   39.3500   27.4920   41.8710 C   0  0  0  0  0  0  0  0  0  0  0  0
   36.0860   25.9570   42.9340 H   0  0  0  0  0  0  0  0  0  0  0  0
   36.4620   28.3330   43.4090 H   0  0  0  0  0  0  0  0  0  0  0  0
   40.3110   27.8910   41.5450 H   0  0  0  0  0  0  0  0  0  0  0  0
  1  2  1  0  0  0  0
  1 23  1  0  0  0  0
  2  7  1  0  0  0  0
  3 10  1  0  0  0  0
  3  2  2  0  0  0  0
  4  3  1  0  0  0  0
  5  4  2  0  0  0  0
  5  6  1  0  0  0  0
  6  1  2  0  0  0  0
  8  9  1  0  0  0  0
  9 16  2  0  0  0  0
  9 10  1  0  0  0  0
 10 11  2  0  0  0  0
 11 13  1  0  0  0  0
 11 12  1  0  0  0  0
 14 15  1  0  0  0  0
 14 13  2  0  0  0  0
 16 14  1  0  0  0  0
 17 16  1  0  0  0  0
 18 20  1  0  0  0  0
 18  5  1  0  0  0  0
 19 18  2  0  0  0  0
 20 21  1  0  0  0  0
 20 22  1  0  0  0  0
 23 24  1  0  0  0  0
 24 26  1  0  0  0  0
 24 25  1  0  0  0  0
 24 27  1  0  0  0  0
 27 32  1  0  0  0  0
 27 29  1  0  0  0  0
 28 27  1  0  0  0  0
 30 31  1  0  0  0  0
 31 37  2  0  0  0  0
 31 32  1  0  0  0  0
 32 33  2  0  0  0  0
 33 34  1  0  0  0  0
 33 38  1  0  0  0  0
 34 39  1  0  0  0  0
 35 36  1  0  0  0  0
 35 34  2  0  0  0  0
 37 35  1  0  0  0  0
 40 37  1  0  0  0  0
M  END
>  <minimizedAffinity>
-5.93244934

$$$$
