
 OpenBabel03242522073D

 45 48  0  0  1  0  0  0  0  0999 V2000
   44.7020   35.0840   45.2460 C   0  0  0  0  0  0  0  0  0  0  0  0
   45.4790   34.9570   44.0850 C   0  0  0  0  0  0  0  0  0  0  0  0
   46.4670   33.9730   44.0480 C   0  0  0  0  0  0  0  0  0  0  0  0
   46.6020   33.1950   45.1670 N   0  0  0  0  0  0  0  0  0  0  0  0
   45.8380   33.3450   46.2650 C   0  0  0  0  0  0  0  0  0  0  0  0
   44.8770   34.3040   46.2990 N   0  0  0  0  0  0  0  0  0  0  0  0
   43.9710   35.8770   45.1600 H   0  0  0  0  0  0  0  0  0  0  0  0
   45.3840   35.5630   43.1930 H   0  0  0  0  0  0  0  0  0  0  0  0
   47.3340   33.7240   42.9400 N   0  0  0  0  0  0  0  0  0  0  0  0
   46.8740   32.8930   41.8390 C   0  0  0  0  0  0  0  0  0  0  0  0
   48.0420   32.3490   41.0540 C   0  0  0  0  0  0  0  0  0  0  0  0
   49.0040   33.3140   40.6700 N   0  0  0  0  0  0  0  0  0  0  0  0
   49.2650   34.3620   41.5780 C   0  0  2  0  0  0  0  0  0  0  0  0
   48.6420   34.2880   42.9140 C   0  0  0  0  0  0  0  0  0  0  0  0
   46.3070   32.0170   42.2250 H   0  0  0  0  0  0  0  0  0  0  0  0
   46.2170   33.4270   41.1280 H   0  0  0  0  0  0  0  0  0  0  0  0
   48.5700   31.5250   41.5790 H   0  0  0  0  0  0  0  0  0  0  0  0
   47.6140   31.8920   40.1200 H   0  0  0  0  0  0  0  0  0  0  0  0
   48.8300   33.6750   39.6880 H   0  0  0  0  0  0  0  0  0  0  0  0
   50.3690   34.4570   41.7240 H   0  0  0  0  0  0  0  0  0  0  0  0
   49.2890   33.6420   43.5670 H   0  0  0  0  0  0  0  0  0  0  0  0
   48.5820   35.3260   43.3330 H   0  0  0  0  0  0  0  0  0  0  0  0
   48.8410   35.6770   40.9440 C   0  0  0  0  0  0  0  0  0  0  0  0
   49.6670   36.7110   41.3720 F   0  0  0  0  0  0  0  0  0  0  0  0
   47.5840   35.9570   41.4460 F   0  0  0  0  0  0  0  0  0  0  0  0
   48.8750   35.6450   39.5790 F   0  0  0  0  0  0  0  0  0  0  0  0
   46.0340   32.4840   47.4220 C   0  0  0  0  0  0  0  0  0  0  0  0
   44.9550   32.0910   48.1790 C   0  0  0  0  0  0  0  0  0  0  0  0
   45.2080   31.2700   49.2730 C   0  0  0  0  0  0  0  0  0  0  0  0
   46.5080   30.9170   49.5130 C   0  0  0  0  0  0  0  0  0  0  0  0
   47.6030   31.3070   48.7560 C   0  0  0  0  0  0  0  0  0  0  0  0
   47.3020   32.1060   47.7030 N   0  0  0  0  0  0  0  0  0  0  0  0
   43.9610   32.4220   47.9100 H   0  0  0  0  0  0  0  0  0  0  0  0
   44.3910   30.9380   49.8940 H   0  0  0  0  0  0  0  0  0  0  0  0
   46.6650   30.2800   50.3690 H   0  0  0  0  0  0  0  0  0  0  0  0
   48.3860   28.6930   47.5740 Cl  0  0  0  0  0  0  0  0  0  0  0  0
   49.4270   29.7170   48.5340 C   0  0  0  0  0  0  0  0  0  0  0  0
   48.9740   30.9140   49.0380 C   0  0  0  0  0  0  0  0  0  0  0  0
   49.8350   31.6800   49.7860 C   0  0  0  0  0  0  0  0  0  0  0  0
   49.5250   32.6200   50.2000 H   0  0  0  0  0  0  0  0  0  0  0  0
   51.1430   31.2400   50.0200 C   0  0  0  0  0  0  0  0  0  0  0  0
   51.5630   30.0340   49.4960 C   0  0  0  0  0  0  0  0  0  0  0  0
   53.2170   29.5700   49.8430 Cl  0  0  0  0  0  0  0  0  0  0  0  0
   50.7070   29.2480   48.7400 C   0  0  0  0  0  0  0  0  0  0  0  0
   51.0730   28.3090   48.3460 H   0  0  0  0  0  0  0  0  0  0  0  0
  1  6  1  0  0  0  0
  2  1  2  0  0  0  0
  3  2  1  0  0  0  0
  3  4  2  0  0  0  0
  4  5  1  0  0  0  0
  5  6  2  0  0  0  0
  5 27  1  0  0  0  0
  7  1  1  0  0  0  0
  8  2  1  0  0  0  0
  9  3  1  0  0  0  0
 10 15  1  0  0  0  0
 10  9  1  0  0  0  0
 11 17  1  0  0  0  0
 11 10  1  0  0  0  0
 12 11  1  0  0  0  0
 12 13  1  0  0  0  0
 13 20  1  1  0  0  0
 13 14  1  0  0  0  0
 14  9  1  0  0  0  0
 14 22  1  0  0  0  0
 14 21  1  0  0  0  0
 16 10  1  0  0  0  0
 18 11  1  0  0  0  0
 19 12  1  0  0  0  0
 23 24  1  0  0  0  0
 23 25  1  0  0  0  0
 23 13  1  0  0  0  0
 26 23  1  0  0  0  0
 27 32  2  0  0  0  0
 27 28  1  0  0  0  0
 28 29  2  0  0  0  0
 29 30  1  0  0  0  0
 29 34  1  0  0  0  0
 30 35  1  0  0  0  0
 31 38  1  0  0  0  0
 31 30  2  0  0  0  0
 32 31  1  0  0  0  0
 33 28  1  0  0  0  0
 36 37  1  0  0  0  0
 37 44  2  0  0  0  0
 37 38  1  0  0  0  0
 38 39  2  0  0  0  0
 39 41  1  0  0  0  0
 39 40  1  0  0  0  0
 42 43  1  0  0  0  0
 42 41  2  0  0  0  0
 44 42  1  0  0  0  0
 45 44  1  0  0  0  0
M  END
>  <minimizedAffinity>
-7.61030626

>  <minimizedRMSD>
0.174695984

$$$$
