
 OpenBabel03252506423D

 41 44  0  0  1  0  0  0  0  0999 V2000
   49.2270   33.1830   41.5150 N   0  0  1  0  0  0  0  0  0  0  0  0
   50.6000   33.1960   41.9460 C   0  0  0  0  0  0  0  0  0  0  0  0
   51.3410   31.9210   41.7640 C   0  0  0  0  0  0  0  0  0  0  0  0
   50.7240   30.8400   42.6240 C   0  0  0  0  0  0  0  0  0  0  0  0
   49.2540   31.0250   42.7010 C   0  0  0  0  0  0  0  0  0  0  0  0
   48.7080   31.8290   41.5720 C   0  0  2  0  0  0  0  0  0  0  0  0
   50.6540   33.4480   43.0360 H   0  0  0  0  0  0  0  0  0  0  0  0
   51.1460   34.0520   41.4570 H   0  0  0  0  0  0  0  0  0  0  0  0
   52.3630   32.1050   42.2180 H   0  0  0  0  0  0  0  0  0  0  0  0
   51.5410   31.5810   40.7570 H   0  0  0  0  0  0  0  0  0  0  0  0
   50.9500   29.8670   42.1140 H   0  0  0  0  0  0  0  0  0  0  0  0
   51.2240   30.7550   43.6200 H   0  0  0  0  0  0  0  0  0  0  0  0
   49.0360   31.6060   43.6340 H   0  0  0  0  0  0  0  0  0  0  0  0
   48.6770   30.0980   42.8050 H   0  0  0  0  0  0  0  0  0  0  0  0
   47.6280   32.0160   41.8960 H   0  0  0  0  0  0  0  0  0  0  0  0
   48.4550   33.3400   38.8090 Cl  0  0  0  0  0  0  0  0  0  0  0  0
   48.5050   31.6220   38.9740 C   0  0  0  0  0  0  0  0  0  0  0  0
   48.5820   31.1710   40.2740 C   0  0  0  0  0  0  0  0  0  0  0  0
   48.5820   29.7780   40.4380 C   0  0  0  0  0  0  0  0  0  0  0  0
   48.6320   29.1750   41.3550 H   0  0  0  0  0  0  0  0  0  0  0  0
   48.5080   28.9330   39.3220 C   0  0  0  0  0  3  0  0  0  0  0  0
   48.4340   29.4400   38.0420 C   0  0  0  0  0  0  0  0  0  0  0  0
   48.3410   28.4220   36.6200 Cl  0  0  0  0  0  0  0  0  0  0  0  0
   48.4340   30.8080   37.8880 C   0  0  0  0  0  0  0  0  0  0  0  0
   48.3780   31.2840   36.9190 H   0  0  0  0  0  0  0  0  0  0  0  0
   47.1100   34.5620   42.0630 C   0  0  1  0  0  0  0  0  0  0  0  0
   48.2170   35.4280   41.7170 C   0  0  0  0  0  0  0  0  0  0  0  0
   48.5310   34.1110   42.3640 C   0  0  2  0  0  0  0  0  0  0  0  0
   46.6330   33.8530   41.3220 H   0  0  0  0  0  0  0  0  0  0  0  0
   48.3980   35.5550   40.6200 H   0  0  0  0  0  0  0  0  0  0  0  0
   48.3330   36.3760   42.2700 H   0  0  0  0  0  0  0  0  0  0  0  0
   48.8260   34.1470   43.4270 H   0  0  0  0  0  0  0  0  0  0  0  0
   45.4470   36.0440   43.2260 C   0  0  0  0  0  0  0  0  0  0  0  0
   46.2200   34.8500   43.2070 C   0  0  0  0  0  0  0  0  0  0  0  0
   46.1040   33.9920   44.2840 C   0  0  0  0  0  0  0  0  0  0  0  0
   45.2600   34.3390   45.2960 N   0  0  0  0  0  0  0  0  0  0  0  0
   44.5340   35.4730   45.2990 C   0  0  0  0  0  0  0  0  0  0  0  0
   44.6170   36.3450   44.2600 N   0  0  0  0  0  0  0  0  0  0  0  0
   45.5810   36.6840   42.3470 H   0  0  0  0  0  0  0  0  0  0  0  0
   46.6710   33.0690   44.3180 H   0  0  0  0  0  0  0  0  0  0  0  0
   43.8690   35.7240   46.1170 H   0  0  0  0  0  0  0  0  0  0  0  0
  1  6  1  0  0  0  0
  1  2  1  1  0  0  0
  1 28  1  0  0  0  0
  2  7  1  0  0  0  0
  3  2  1  0  0  0  0
  3  9  1  0  0  0  0
  3  4  1  0  0  0  0
  4  5  1  0  0  0  0
  4 12  1  0  0  0  0
  5 14  1  0  0  0  0
  5 13  1  0  0  0  0
  6 15  1  1  0  0  0
  6  5  1  0  0  0  0
  8  2  1  0  0  0  0
 10  3  1  0  0  0  0
 11  4  1  0  0  0  0
 16 17  1  0  0  0  0
 17 18  1  0  0  0  0
 18 19  2  0  0  0  0
 18  6  1  0  0  0  0
 19 20  1  0  0  0  0
 21 19  1  0  0  0  0
 22 21  2  0  0  0  0
 23 22  1  0  0  0  0
 24 22  1  0  0  0  0
 24 17  2  0  0  0  0
 25 24  1  0  0  0  0
 26 29  1  6  0  0  0
 26 28  1  0  0  0  0
 26 34  1  0  0  0  0
 27 26  1  0  0  0  0
 27 31  1  0  0  0  0
 27 28  1  0  0  0  0
 28 32  1  1  0  0  0
 30 27  1  0  0  0  0
 33 38  1  0  0  0  0
 34 33  2  0  0  0  0
 34 35  1  0  0  0  0
 35 40  1  0  0  0  0
 35 36  2  0  0  0  0
 36 37  1  0  0  0  0
 37 41  1  0  0  0  0
 38 37  2  0  0  0  0
 39 33  1  0  0  0  0
M  END
>  <minimizedAffinity>
-4.78501558

>  <minimizedRMSD>
0.347041786

$$$$
