
 OpenBabel03252500363D

 47 50  0  0  1  0  0  0  0  0999 V2000
   45.7670   35.4340   43.2330 C   0  0  1  0  0  0  0  0  0  0  0  0
   44.6490   34.9280   43.9030 C   0  0  0  0  0  0  0  0  0  0  0  0
   45.9380   34.6070   44.5400 C   0  0  1  0  0  0  0  0  0  0  0  0
   46.0390   36.5220   43.3230 H   0  0  0  0  0  0  0  0  0  0  0  0
   43.9470   35.5820   44.4380 H   0  0  0  0  0  0  0  0  0  0  0  0
   44.1100   34.0350   43.4730 H   0  0  0  0  0  0  0  0  0  0  0  0
   46.4070   35.2290   45.3180 H   0  0  0  0  0  0  0  0  0  0  0  0
   45.5640   34.1330   41.1150 C   0  0  0  0  0  0  0  0  0  0  0  0
   46.4070   34.8690   42.0070 C   0  0  0  0  0  0  0  0  0  0  0  0
   47.7240   35.0240   41.7160 C   0  0  0  0  0  0  0  0  0  0  0  0
   48.1810   34.4520   40.5580 N   0  0  0  0  0  0  0  0  0  0  0  0
   47.3780   33.7580   39.7220 C   0  0  0  0  0  0  0  0  0  0  0  0
   46.0370   33.5760   39.9770 N   0  0  0  0  0  0  0  0  0  0  0  0
   44.5100   34.0250   41.3750 H   0  0  0  0  0  0  0  0  0  0  0  0
   48.3720   35.5780   42.3800 H   0  0  0  0  0  0  0  0  0  0  0  0
   48.4760   30.9590   40.0060 Cl  0  0  0  0  0  0  0  0  0  0  0  0
   48.5020   31.9130   38.5280 C   0  0  0  0  0  0  0  0  0  0  0  0
   47.9700   33.1880   38.5120 C   0  0  0  0  0  0  0  0  0  0  0  0
   47.9680   33.9670   37.3850 C   0  0  0  0  0  0  0  0  0  0  0  0
   47.5680   34.9720   37.3050 H   0  0  0  0  0  0  0  0  0  0  0  0
   48.5240   33.4560   36.2140 C   0  0  0  0  0  0  0  0  0  0  0  0
   49.0520   32.1750   36.2560 C   0  0  0  0  0  0  0  0  0  0  0  0
   49.7470   31.5320   34.7970 Cl  0  0  0  0  0  0  0  0  0  0  0  0
   49.0640   31.3710   37.3840 C   0  0  0  0  0  0  0  0  0  0  0  0
   49.4770   30.3860   37.3910 H   0  0  0  0  0  0  0  0  0  0  0  0
   46.4930   33.2320   44.4590 C   0  0  0  0  0  0  0  0  0  0  0  0
   46.2270   32.7850   43.4650 H   0  0  0  0  0  0  0  0  0  0  0  0
   47.5920   33.1970   44.6130 H   0  0  0  0  0  0  0  0  0  0  0  0
   45.8860   32.4730   45.4940 N   0  0  0  0  0  0  0  0  0  0  0  0
   45.9230   32.9840   46.7960 C   0  0  0  0  0  0  0  0  0  0  0  0
   47.1730   32.4910   47.5540 C   0  0  0  0  0  0  0  0  0  0  0  0
   46.9820   31.0150   47.7640 C   0  0  0  0  0  0  0  0  0  0  0  0
   46.9150   30.4010   46.3830 C   0  0  0  0  0  0  0  0  0  0  0  0
   45.9510   31.0750   45.4490 C   0  0  2  0  0  0  0  0  0  0  0  0
   45.0840   32.4590   47.3510 H   0  0  0  0  0  0  0  0  0  0  0  0
   45.7070   34.0350   46.9700 H   0  0  0  0  0  0  0  0  0  0  0  0
   47.1990   32.9770   48.5510 H   0  0  0  0  0  0  0  0  0  0  0  0
   48.0930   32.7260   46.9840 H   0  0  0  0  0  0  0  0  0  0  0  0
   45.9940   30.8830   48.2560 H   0  0  0  0  0  0  0  0  0  0  0  0
   47.7980   30.5250   48.2960 H   0  0  0  0  0  0  0  0  0  0  0  0
   46.6260   29.3230   46.4590 H   0  0  0  0  0  0  0  0  0  0  0  0
   47.9210   30.4320   45.9200 H   0  0  0  0  0  0  0  0  0  0  0  0
   44.9450   30.6660   45.6810 H   0  0  0  0  0  0  0  0  0  0  0  0
   46.2770   30.5610   44.0540 C   0  0  0  0  0  0  0  0  0  0  0  0
   46.1980   29.4710   44.0480 H   0  0  0  0  0  0  0  0  0  0  0  0
   45.5430   31.0100   43.3250 H   0  0  0  0  0  0  0  0  0  0  0  0
   47.3210   30.8320   43.7720 H   0  0  0  0  0  0  0  0  0  0  0  0
  1  4  1  1  0  0  0
  1  2  1  0  0  0  0
  1  3  1  0  0  0  0
  2  5  1  0  0  0  0
  2  3  1  0  0  0  0
  3  7  1  1  0  0  0
  6  2  1  0  0  0  0
  8 14  1  0  0  0  0
  8  9  1  0  0  0  0
  9  1  1  0  0  0  0
 10  9  2  0  0  0  0
 10 15  1  0  0  0  0
 11 10  1  0  0  0  0
 12 13  1  0  0  0  0
 12 11  2  0  0  0  0
 13  8  2  0  0  0  0
 17 16  1  0  0  0  0
 18 17  1  0  0  0  0
 18 12  1  0  0  0  0
 19 18  2  0  0  0  0
 20 19  1  0  0  0  0
 21 22  2  0  0  0  0
 21 19  1  0  0  0  0
 22 24  1  0  0  0  0
 23 22  1  0  0  0  0
 24 25  1  0  0  0  0
 24 17  2  0  0  0  0
 26  3  1  0  0  0  0
 26 28  1  0  0  0  0
 26 29  1  0  0  0  0
 27 26  1  0  0  0  0
 29 30  1  0  0  0  0
 30 36  1  0  0  0  0
 30 35  1  0  0  0  0
 30 31  1  0  0  0  0
 31 32  1  0  0  0  0
 31 37  1  0  0  0  0
 32 39  1  0  0  0  0
 32 40  1  0  0  0  0
 33 41  1  0  0  0  0
 33 32  1  0  0  0  0
 34 29  1  0  0  0  0
 34 43  1  1  0  0  0
 34 33  1  0  0  0  0
 38 31  1  0  0  0  0
 42 33  1  0  0  0  0
 44 34  1  0  0  0  0
 45 44  1  0  0  0  0
 46 44  1  0  0  0  0
 47 44  1  0  0  0  0
M  END
>  <minimizedAffinity>
-5.19049644

>  <minimizedRMSD>
2.90100718

$$$$
