
 OpenBabel03242523033D

 33 35  0  0  0  0  0  0  0  0999 V2000
   45.4650   36.2480   43.2480 C   0  0  0  0  0  0  0  0  0  0  0  0
   46.0550   35.0050   43.0530 C   0  0  0  0  0  0  0  0  0  0  0  0
   45.8520   34.0370   44.0060 C   0  0  0  0  0  0  0  0  0  0  0  0
   45.0940   34.3100   45.1030 N   0  0  0  0  0  0  0  0  0  0  0  0
   44.5310   35.5380   45.2640 C   0  0  0  0  0  0  0  0  0  0  0  0
   44.7160   36.5010   44.3390 N   0  0  0  0  0  0  0  0  0  0  0  0
   45.5330   37.1020   42.6010 H   0  0  0  0  0  0  0  0  0  0  0  0
   43.9220   35.7780   46.1360 H   0  0  0  0  0  0  0  0  0  0  0  0
   46.8590   34.8130   41.9130 N   0  0  0  0  0  0  0  0  0  0  0  0
   48.2090   35.2210   41.8610 C   0  0  0  0  0  0  0  0  0  0  0  0
   48.6800   35.3070   40.3960 C   0  0  0  0  0  0  0  0  0  0  0  0
   48.5360   34.0230   39.7940 N   0  0  0  0  0  0  0  0  0  0  0  0
   47.3560   33.2790   40.0980 C   0  0  0  0  0  0  0  0  0  0  0  0
   46.3390   34.1960   40.6900 C   0  0  0  0  0  0  0  0  0  0  0  0
   48.8580   34.3530   42.1840 H   0  0  0  0  0  0  0  0  0  0  0  0
   48.4640   36.1810   42.3060 H   0  0  0  0  0  0  0  0  0  0  0  0
   49.7520   35.5740   40.4340 H   0  0  0  0  0  0  0  0  0  0  0  0
   48.0950   36.0790   39.8660 H   0  0  0  0  0  0  0  0  0  0  0  0
   48.6510   34.1220   38.7610 H   0  0  0  0  0  0  0  0  0  0  0  0
   46.9520   32.6830   39.2620 H   0  0  0  0  0  0  0  0  0  0  0  0
   47.6210   32.5240   40.8970 H   0  0  0  0  0  0  0  0  0  0  0  0
   45.4450   33.5520   40.8910 H   0  0  0  0  0  0  0  0  0  0  0  0
   46.1220   35.0220   39.9680 H   0  0  0  0  0  0  0  0  0  0  0  0
   43.9530   32.1840   42.5690 Cl  0  0  0  0  0  0  0  0  0  0  0  0
   45.4740   31.7890   43.3700 C   0  0  0  0  0  0  0  0  0  0  0  0
   46.3230   32.6820   44.0590 C   0  0  0  0  0  0  0  0  0  0  0  0
   47.4640   32.0740   44.5930 C   0  0  0  0  0  0  0  0  0  0  0  0
   48.0610   32.8510   45.0990 H   0  0  0  0  0  0  0  0  0  0  0  0
   47.8010   30.7650   44.5090 C   0  0  0  0  0  0  0  0  0  0  0  0
   46.9550   29.9170   43.8320 C   0  0  0  0  0  0  0  0  0  0  0  0
   47.4550   28.2380   43.7650 Cl  0  0  0  0  0  0  0  0  0  0  0  0
   45.8150   30.4510   43.2820 C   0  0  0  0  0  0  0  0  0  0  0  0
   45.2030   29.7000   42.7640 H   0  0  0  0  0  0  0  0  0  0  0  0
  1  6  1  0  0  0  0
  2  1  2  0  0  0  0
  2  3  1  0  0  0  0
  3 26  1  0  0  0  0
  3  4  2  0  0  0  0
  4  5  1  0  0  0  0
  5  8  1  0  0  0  0
  6  5  2  0  0  0  0
  7  1  1  0  0  0  0
  9  2  1  0  0  0  0
 10  9  1  0  0  0  0
 10 15  1  0  0  0  0
 10 16  1  0  0  0  0
 11 17  1  0  0  0  0
 11 10  1  0  0  0  0
 12 13  1  0  0  0  0
 12 11  1  0  0  0  0
 13 14  1  0  0  0  0
 13 21  1  0  0  0  0
 14 22  1  0  0  0  0
 14  9  1  0  0  0  0
 18 11  1  0  0  0  0
 19 12  1  0  0  0  0
 20 13  1  0  0  0  0
 23 14  1  0  0  0  0
 24 25  1  0  0  0  0
 25 26  1  0  0  0  0
 26 27  2  0  0  0  0
 27 28  1  0  0  0  0
 29 27  1  0  0  0  0
 30 29  2  0  0  0  0
 31 30  1  0  0  0  0
 32 25  2  0  0  0  0
 32 30  1  0  0  0  0
 33 32  1  0  0  0  0
M  END
>  <minimizedAffinity>
-4.76090622

>  <minimizedRMSD>
3.15339947

$$$$
