
 OpenBabel03242521353D

 32 35  0  0  0  0  0  0  0  0999 V2000
   39.4390   34.2270   40.3990 C   0  0  0  0  0  0  0  0  0  0  0  0
   40.5530   34.0190   39.5310 C   0  0  0  0  0  0  0  0  0  0  0  0
   40.9630   32.7080   39.3340 C   0  0  0  0  0  0  0  0  0  0  0  0
   40.2960   31.6950   39.9640 N   0  0  0  0  0  0  0  0  0  0  0  0
   39.2430   31.9420   40.7800 C   0  0  0  0  0  0  0  0  0  0  0  0
   38.8250   33.1930   40.9910 N   0  0  0  0  0  0  0  0  0  0  0  0
   39.1540   35.2820   40.5240 H   0  0  0  0  0  0  0  0  0  0  0  0
   41.0660   34.8090   39.0440 H   0  0  0  0  0  0  0  0  0  0  0  0
   43.2880   32.9510   38.6970 C   0  0  0  0  0  0  0  0  0  0  0  0
   42.0760   32.3400   38.4810 C   0  0  0  0  0  0  0  0  0  0  0  0
   41.9990   31.4160   37.4670 C   0  0  0  0  0  0  0  0  0  0  0  0
   43.0630   31.0720   36.6620 C   0  0  0  0  0  0  0  0  0  0  0  0
   43.1940   30.1970   35.6230 N   0  0  0  0  0  0  0  0  0  0  0  0
   44.5040   30.2810   35.2050 C   0  0  0  0  0  0  0  0  0  0  0  0
   45.1460   31.1940   35.9850 N   0  0  0  0  0  0  0  0  0  0  0  0
   44.2800   31.6910   36.8850 C   0  0  0  0  0  0  0  0  0  0  0  0
   44.3840   32.6170   37.8900 C   0  0  0  0  0  0  0  0  0  0  0  0
   43.4780   33.6960   39.4640 H   0  0  0  0  0  0  0  0  0  0  0  0
   41.0280   30.9570   37.3300 H   0  0  0  0  0  0  0  0  0  0  0  0
   42.3980   29.6200   35.2820 H   0  0  0  0  0  0  0  0  0  0  0  0
   44.7750   29.6390   34.3720 H   0  0  0  0  0  0  0  0  0  0  0  0
   45.3560   33.0890   38.0430 H   0  0  0  0  0  0  0  0  0  0  0  0
   36.7010   31.0530   39.4690 Cl  0  0  0  0  0  0  0  0  0  0  0  0
   37.3850   30.3260   40.9140 C   0  0  0  0  0  0  0  0  0  0  0  0
   38.5670   30.8230   41.4290 C   0  0  0  0  0  0  0  0  0  0  0  0
   39.0890   30.2440   42.5600 C   0  0  0  0  0  0  0  0  0  0  0  0
   40.0270   30.6070   43.0050 H   0  0  0  0  0  0  0  0  0  0  0  0
   38.4490   29.1790   43.1820 C   0  0  0  0  0  3  0  0  0  0  0  0
   37.2570   28.6700   42.6730 C   0  0  0  0  0  0  0  0  0  0  0  0
   36.4110   27.3310   43.4190 Cl  0  0  0  0  0  0  0  0  0  0  0  0
   36.7260   29.2590   41.5230 C   0  0  0  0  0  0  0  0  0  0  0  0
   35.8010   28.9070   41.0780 H   0  0  0  0  0  0  0  0  0  0  0  0
  1  7  1  0  0  0  0
  1  6  1  0  0  0  0
  2  1  2  0  0  0  0
  3  2  1  0  0  0  0
  3  4  2  0  0  0  0
  4  5  1  0  0  0  0
  5  6  2  0  0  0  0
  5 25  1  0  0  0  0
  8  2  1  0  0  0  0
  9 18  1  0  0  0  0
 10  9  1  0  0  0  0
 10  3  1  0  0  0  0
 11 10  2  0  0  0  0
 12 16  2  0  0  0  0
 12 11  1  0  0  0  0
 13 12  1  0  0  0  0
 14 13  1  0  0  0  0
 14 15  2  0  0  0  0
 15 16  1  0  0  0  0
 16 17  1  0  0  0  0
 17 22  1  0  0  0  0
 17  9  2  0  0  0  0
 19 11  1  0  0  0  0
 20 13  1  0  0  0  0
 21 14  1  0  0  0  0
 23 24  1  0  0  0  0
 24 25  2  0  0  0  0
 24 31  1  0  0  0  0
 25 26  1  0  0  0  0
 26 27  1  0  0  0  0
 26 28  2  0  0  0  0
 29 28  1  0  0  0  0
 29 30  1  0  0  0  0
 31 29  2  0  0  0  0
 32 31  1  0  0  0  0
M  END
>  <minimizedAffinity>
-6.20589733

$$$$

 OpenBabel03242521353D

 32 35  0  0  0  0  0  0  0  0999 V2000
   36.1250   30.9570   41.0100 C   0  0  0  0  0  0  0  0  0  0  0  0
   37.2300   31.7960   40.6770 C   0  0  0  0  0  0  0  0  0  0  0  0
   38.4380   31.1680   40.4060 C   0  0  0  0  0  0  0  0  0  0  0  0
   38.5150   29.8050   40.4660 N   0  0  0  0  0  0  0  0  0  0  0  0
   37.4360   29.0500   40.7870 C   0  0  0  0  0  0  0  0  0  0  0  0
   36.2600   29.6240   41.0550 N   0  0  0  0  0  0  0  0  0  0  0  0
   35.1910   31.5010   41.2170 H   0  0  0  0  0  0  0  0  0  0  0  0
   37.1640   32.8530   40.6310 H   0  0  0  0  0  0  0  0  0  0  0  0
   40.5860   32.0990   41.0350 C   0  0  0  0  0  0  0  0  0  0  0  0
   39.6480   31.8860   40.0530 C   0  0  0  0  0  0  0  0  0  0  0  0
   39.9200   32.3680   38.7960 C   0  0  0  0  0  0  0  0  0  0  0  0
   41.0730   33.0480   38.4700 C   0  0  0  0  0  0  0  0  0  0  0  0
   41.5270   33.5970   37.3060 N   0  0  0  0  0  0  0  0  0  0  0  0
   42.7570   34.1510   37.5890 C   0  0  0  0  0  0  0  0  0  0  0  0
   43.0320   33.9340   38.9050 N   0  0  0  0  0  0  0  0  0  0  0  0
   42.0130   33.2590   39.4630 C   0  0  0  0  0  0  0  0  0  0  0  0
   41.7660   32.7880   40.7270 C   0  0  0  0  0  0  0  0  0  0  0  0
   40.4900   31.7680   42.0660 H   0  0  0  0  0  0  0  0  0  0  0  0
   39.1580   32.1790   38.0520 H   0  0  0  0  0  0  0  0  0  0  0  0
   40.9770   33.5560   36.4230 H   0  0  0  0  0  0  0  0  0  0  0  0
   43.2590   34.6350   36.7570 H   0  0  0  0  0  0  0  0  0  0  0  0
   42.5240   32.9690   41.4900 H   0  0  0  0  0  0  0  0  0  0  0  0
   38.0250   27.9190   43.4960 Cl  0  0  0  0  0  0  0  0  0  0  0  0
   37.8440   26.9630   42.0350 C   0  0  0  0  0  0  0  0  0  0  0  0
   37.5720   27.5980   40.8380 C   0  0  0  0  0  0  0  0  0  0  0  0
   37.4330   26.8370   39.7030 C   0  0  0  0  0  0  0  0  0  0  0  0
   37.2170   27.3000   38.7300 H   0  0  0  0  0  0  0  0  0  0  0  0
   37.5620   25.4540   39.7460 C   0  0  0  0  0  3  0  0  0  0  0  0
   37.8370   24.8020   40.9450 C   0  0  0  0  0  0  0  0  0  0  0  0
   38.0090   23.0640   41.0550 Cl  0  0  0  0  0  0  0  0  0  0  0  0
   37.9780   25.5770   42.1000 C   0  0  0  0  0  0  0  0  0  0  0  0
   38.1910   25.1280   43.0640 H   0  0  0  0  0  0  0  0  0  0  0  0
  1  6  1  0  0  0  0
  1  7  1  0  0  0  0
  2  1  2  0  0  0  0
  3  4  2  0  0  0  0
  3  2  1  0  0  0  0
  4  5  1  0  0  0  0
  5 25  1  0  0  0  0
  5  6  2  0  0  0  0
  8  2  1  0  0  0  0
  9 18  1  0  0  0  0
 10  3  1  0  0  0  0
 10  9  2  0  0  0  0
 11 10  1  0  0  0  0
 12 11  2  0  0  0  0
 12 16  1  0  0  0  0
 13 14  1  0  0  0  0
 13 12  1  0  0  0  0
 14 15  2  0  0  0  0
 15 16  1  0  0  0  0
 16 17  2  0  0  0  0
 17  9  1  0  0  0  0
 17 22  1  0  0  0  0
 19 11  1  0  0  0  0
 20 13  1  0  0  0  0
 21 14  1  0  0  0  0
 24 31  1  0  0  0  0
 24 23  1  0  0  0  0
 25 24  2  0  0  0  0
 26 28  2  0  0  0  0
 26 25  1  0  0  0  0
 27 26  1  0  0  0  0
 28 29  1  0  0  0  0
 29 30  1  0  0  0  0
 29 31  2  0  0  0  0
 31 32  1  0  0  0  0
M  END
>  <minimizedAffinity>
-5.89864635

$$$$

 OpenBabel03242521353D

 32 35  0  0  0  0  0  0  0  0999 V2000
   36.5810   27.1840   43.6770 C   0  0  0  0  0  0  0  0  0  0  0  0
   36.9810   28.5250   43.3960 C   0  0  0  0  0  0  0  0  0  0  0  0
   37.5490   28.7660   42.1520 C   0  0  0  0  0  0  0  0  0  0  0  0
   37.6970   27.7320   41.2710 N   0  0  0  0  0  0  0  0  0  0  0  0
   37.3020   26.4740   41.5840 C   0  0  0  0  0  0  0  0  0  0  0  0
   36.7520   26.2100   42.7720 N   0  0  0  0  0  0  0  0  0  0  0  0
   36.1370   27.0450   44.6740 H   0  0  0  0  0  0  0  0  0  0  0  0
   36.8630   29.3230   44.0840 H   0  0  0  0  0  0  0  0  0  0  0  0
   39.2970   30.4390   42.0130 C   0  0  0  0  0  0  0  0  0  0  0  0
   38.0030   30.0740   41.7230 C   0  0  0  0  0  0  0  0  0  0  0  0
   37.2230   30.9760   41.0420 C   0  0  0  0  0  0  0  0  0  0  0  0
   37.6640   32.2180   40.6370 C   0  0  0  0  0  0  0  0  0  0  0  0
   37.0610   33.2400   39.9630 N   0  0  0  0  0  0  0  0  0  0  0  0
   38.0040   34.2380   39.8450 C   0  0  0  0  0  0  0  0  0  0  0  0
   39.1540   33.8150   40.4400 N   0  0  0  0  0  0  0  0  0  0  0  0
   38.9660   32.5790   40.9320 C   0  0  0  0  0  0  0  0  0  0  0  0
   39.7670   31.6970   41.6110 C   0  0  0  0  0  0  0  0  0  0  0  0
   40.0120   29.8180   42.5440 H   0  0  0  0  0  0  0  0  0  0  0  0
   36.2130   30.6510   40.8330 H   0  0  0  0  0  0  0  0  0  0  0  0
   36.0730   33.1840   39.6410 H   0  0  0  0  0  0  0  0  0  0  0  0
   37.6790   35.1350   39.3260 H   0  0  0  0  0  0  0  0  0  0  0  0
   40.7890   32.0080   41.8300 H   0  0  0  0  0  0  0  0  0  0  0  0
   39.8240   24.8880   41.8810 Cl  0  0  0  0  0  0  0  0  0  0  0  0
   38.6100   24.6070   40.6440 C   0  0  0  0  0  0  0  0  0  0  0  0
   37.4830   25.4060   40.6060 C   0  0  0  0  0  0  0  0  0  0  0  0
   36.5420   25.1750   39.6330 C   0  0  0  0  0  0  0  0  0  0  0  0
   35.6310   25.7850   39.5650 H   0  0  0  0  0  0  0  0  0  0  0  0
   36.7100   24.1590   38.6990 C   0  0  0  0  0  3  0  0  0  0  0  0
   37.8410   23.3480   38.7260 C   0  0  0  0  0  0  0  0  0  0  0  0
   38.1020   22.0560   37.5740 Cl  0  0  0  0  0  0  0  0  0  0  0  0
   38.7980   23.5830   39.7170 C   0  0  0  0  0  0  0  0  0  0  0  0
   39.7000   22.9850   39.7910 H   0  0  0  0  0  0  0  0  0  0  0  0
  1  7  1  0  0  0  0
  2  1  1  0  0  0  0
  2  8  1  0  0  0  0
  3  2  2  0  0  0  0
  4  5  2  0  0  0  0
  4  3  1  0  0  0  0
  5  6  1  0  0  0  0
  6  1  2  0  0  0  0
  9 18  1  0  0  0  0
 10  9  1  0  0  0  0
 10  3  1  0  0  0  0
 11 10  2  0  0  0  0
 12 16  2  0  0  0  0
 12 11  1  0  0  0  0
 13 12  1  0  0  0  0
 14 13  1  0  0  0  0
 14 15  2  0  0  0  0
 15 16  1  0  0  0  0
 16 17  1  0  0  0  0
 17 22  1  0  0  0  0
 17  9  2  0  0  0  0
 19 11  1  0  0  0  0
 20 13  1  0  0  0  0
 21 14  1  0  0  0  0
 24 23  1  0  0  0  0
 25 24  1  0  0  0  0
 25  5  1  0  0  0  0
 26 25  2  0  0  0  0
 27 26  1  0  0  0  0
 28 29  2  0  0  0  0
 28 26  1  0  0  0  0
 29 31  1  0  0  0  0
 30 29  1  0  0  0  0
 31 32  1  0  0  0  0
 31 24  2  0  0  0  0
M  END
>  <minimizedAffinity>
-5.87700081

$$$$

 OpenBabel03242521353D

 32 35  0  0  0  0  0  0  0  0999 V2000
   39.6190   27.0250   43.4740 C   0  0  0  0  0  0  0  0  0  0  0  0
   39.3970   28.3800   43.0830 C   0  0  0  0  0  0  0  0  0  0  0  0
   38.6720   28.5880   41.9170 C   0  0  0  0  0  0  0  0  0  0  0  0
   38.2140   27.5120   41.2110 N   0  0  0  0  0  0  0  0  0  0  0  0
   38.4500   26.2420   41.6230 C   0  0  0  0  0  0  0  0  0  0  0  0
   39.1450   26.0090   42.7410 N   0  0  0  0  0  0  0  0  0  0  0  0
   40.1980   26.9130   44.4040 H   0  0  0  0  0  0  0  0  0  0  0  0
   39.7550   29.2110   43.6350 H   0  0  0  0  0  0  0  0  0  0  0  0
   37.1900   30.0690   40.6990 C   0  0  0  0  0  0  0  0  0  0  0  0
   38.3660   29.9050   41.3930 C   0  0  0  0  0  0  0  0  0  0  0  0
   39.1750   31.0030   41.5450 C   0  0  0  0  0  0  0  0  0  0  0  0
   38.8750   32.2510   41.0440 C   0  0  0  0  0  0  0  0  0  0  0  0
   39.5300   33.4480   41.0850 N   0  0  0  0  0  0  0  0  0  0  0  0
   38.7380   34.3490   40.4050 C   0  0  0  0  0  0  0  0  0  0  0  0
   37.6260   33.6970   39.9660 N   0  0  0  0  0  0  0  0  0  0  0  0
   37.6910   32.4100   40.3470 C   0  0  0  0  0  0  0  0  0  0  0  0
   36.8640   31.3290   40.1800 C   0  0  0  0  0  0  0  0  0  0  0  0
   36.4660   29.2810   40.5110 H   0  0  0  0  0  0  0  0  0  0  0  0
   40.0900   30.8320   42.0970 H   0  0  0  0  0  0  0  0  0  0  0  0
   40.4470   33.5610   41.5620 H   0  0  0  0  0  0  0  0  0  0  0  0
   39.1220   35.3630   40.3460 H   0  0  0  0  0  0  0  0  0  0  0  0
   35.9370   31.4830   39.6260 H   0  0  0  0  0  0  0  0  0  0  0  0
   40.3260   25.1880   39.5410 Cl  0  0  0  0  0  0  0  0  0  0  0  0
   38.7140   24.5590   39.8420 C   0  0  0  0  0  0  0  0  0  0  0  0
   37.9380   25.1280   40.8320 C   0  0  0  0  0  0  0  0  0  0  0  0
   36.6790   24.6260   41.0560 C   0  0  0  0  0  0  0  0  0  0  0  0
   36.0270   25.0480   41.8330 H   0  0  0  0  0  0  0  0  0  0  0  0
   36.1860   23.5650   40.3040 C   0  0  0  0  0  3  0  0  0  0  0  0
   36.9590   22.9840   39.3030 C   0  0  0  0  0  0  0  0  0  0  0  0
   36.3860   21.6470   38.3280 Cl  0  0  0  0  0  0  0  0  0  0  0  0
   38.2390   23.4950   39.0760 C   0  0  0  0  0  0  0  0  0  0  0  0
   38.8890   23.0840   38.3110 H   0  0  0  0  0  0  0  0  0  0  0  0
  1  7  1  0  0  0  0
  2  1  1  0  0  0  0
  2  8  1  0  0  0  0
  3  2  2  0  0  0  0
  4  5  2  0  0  0  0
  4  3  1  0  0  0  0
  5  6  1  0  0  0  0
  6  1  2  0  0  0  0
  9 10  1  0  0  0  0
 10 11  2  0  0  0  0
 10  3  1  0  0  0  0
 11 19  1  0  0  0  0
 12 13  1  0  0  0  0
 12 11  1  0  0  0  0
 13 20  1  0  0  0  0
 14 13  1  0  0  0  0
 15 16  1  0  0  0  0
 15 14  2  0  0  0  0
 16 12  2  0  0  0  0
 17 16  1  0  0  0  0
 17  9  2  0  0  0  0
 18  9  1  0  0  0  0
 21 14  1  0  0  0  0
 22 17  1  0  0  0  0
 23 24  1  0  0  0  0
 24 25  1  0  0  0  0
 25 26  2  0  0  0  0
 25  5  1  0  0  0  0
 26 27  1  0  0  0  0
 28 26  1  0  0  0  0
 29 28  2  0  0  0  0
 30 29  1  0  0  0  0
 31 29  1  0  0  0  0
 31 24  2  0  0  0  0
 32 31  1  0  0  0  0
M  END
>  <minimizedAffinity>
-5.78030443

$$$$

 OpenBabel03242521353D

 32 35  0  0  0  0  0  0  0  0999 V2000
   33.4600   26.6920   36.6300 C   0  0  0  0  0  0  0  0  0  0  0  0
   34.4650   27.0520   37.5780 C   0  0  0  0  0  0  0  0  0  0  0  0
   34.5320   28.3890   37.9480 C   0  0  0  0  0  0  0  0  0  0  0  0
   33.6530   29.2810   37.4020 N   0  0  0  0  0  0  0  0  0  0  0  0
   32.7150   28.8910   36.5040 C   0  0  0  0  0  0  0  0  0  0  0  0
   32.6260   27.6120   36.1270 N   0  0  0  0  0  0  0  0  0  0  0  0
   33.4480   25.6230   36.3690 H   0  0  0  0  0  0  0  0  0  0  0  0
   35.1430   26.3550   37.9990 H   0  0  0  0  0  0  0  0  0  0  0  0
   36.3500   29.8990   38.4830 C   0  0  0  0  0  0  0  0  0  0  0  0
   35.4960   28.9050   38.9000 C   0  0  0  0  0  0  0  0  0  0  0  0
   35.6130   28.4660   40.1950 C   0  0  0  0  0  0  0  0  0  0  0  0
   36.5320   28.9630   41.0930 C   0  0  0  0  0  0  0  0  0  0  0  0
   36.8060   28.6710   42.3980 N   0  0  0  0  0  0  0  0  0  0  0  0
   37.8400   29.4990   42.7750 C   0  0  0  0  0  0  0  0  0  0  0  0
   38.1780   30.2770   41.7090 N   0  0  0  0  0  0  0  0  0  0  0  0
   37.3880   29.9630   40.6680 C   0  0  0  0  0  0  0  0  0  0  0  0
   37.2930   30.4200   39.3790 C   0  0  0  0  0  0  0  0  0  0  0  0
   36.3580   30.3310   37.4870 H   0  0  0  0  0  0  0  0  0  0  0  0
   34.9230   27.6840   40.4840 H   0  0  0  0  0  0  0  0  0  0  0  0
   36.2790   27.9430   42.9240 H   0  0  0  0  0  0  0  0  0  0  0  0
   38.1820   29.3900   43.8000 H   0  0  0  0  0  0  0  0  0  0  0  0
   37.9810   31.2090   39.0710 H   0  0  0  0  0  0  0  0  0  0  0  0
   30.7380   30.0260   38.4450 Cl  0  0  0  0  0  0  0  0  0  0  0  0
   30.8460   30.4780   36.7520 C   0  0  0  0  0  0  0  0  0  0  0  0
   31.8010   29.8840   35.9500 C   0  0  0  0  0  0  0  0  0  0  0  0
   31.8730   30.2480   34.6280 C   0  0  0  0  0  0  0  0  0  0  0  0
   32.6180   29.8020   33.9540 H   0  0  0  0  0  0  0  0  0  0  0  0
   31.0050   31.1930   34.0950 C   0  0  0  0  0  3  0  0  0  0  0  0
   30.0370   31.7990   34.8920 C   0  0  0  0  0  0  0  0  0  0  0  0
   28.9190   32.9950   34.2720 Cl  0  0  0  0  0  0  0  0  0  0  0  0
   29.9640   31.4290   36.2380 C   0  0  0  0  0  0  0  0  0  0  0  0
   29.2320   31.8650   36.9100 H   0  0  0  0  0  0  0  0  0  0  0  0
  1  2  1  0  0  0  0
  2  3  2  0  0  0  0
  2  8  1  0  0  0  0
  3 10  1  0  0  0  0
  4  3  1  0  0  0  0
  5  4  2  0  0  0  0
  6  5  1  0  0  0  0
  6  1  2  0  0  0  0
  7  1  1  0  0  0  0
  9 10  2  0  0  0  0
  9 17  1  0  0  0  0
 10 11  1  0  0  0  0
 11 19  1  0  0  0  0
 11 12  2  0  0  0  0
 12 13  1  0  0  0  0
 13 14  1  0  0  0  0
 13 20  1  0  0  0  0
 14 21  1  0  0  0  0
 15 14  2  0  0  0  0
 16 12  1  0  0  0  0
 16 15  1  0  0  0  0
 17 16  2  0  0  0  0
 18  9  1  0  0  0  0
 22 17  1  0  0  0  0
 24 23  1  0  0  0  0
 25  5  1  0  0  0  0
 25 24  2  0  0  0  0
 26 25  1  0  0  0  0
 27 26  1  0  0  0  0
 28 26  2  0  0  0  0
 28 29  1  0  0  0  0
 29 31  2  0  0  0  0
 30 29  1  0  0  0  0
 31 24  1  0  0  0  0
 31 32  1  0  0  0  0
M  END
>  <minimizedAffinity>
-5.76579285

$$$$

 OpenBabel03242521353D

 32 35  0  0  0  0  0  0  0  0999 V2000
   37.3420   28.3420   43.2680 C   0  0  0  0  0  0  0  0  0  0  0  0
   38.4120   29.2810   43.1640 C   0  0  0  0  0  0  0  0  0  0  0  0
   38.6140   29.8720   41.9240 C   0  0  0  0  0  0  0  0  0  0  0  0
   37.7970   29.5380   40.8810 N   0  0  0  0  0  0  0  0  0  0  0  0
   36.7930   28.6400   41.0280 C   0  0  0  0  0  0  0  0  0  0  0  0
   36.5740   28.0530   42.2090 N   0  0  0  0  0  0  0  0  0  0  0  0
   37.2230   27.9020   44.2690 H   0  0  0  0  0  0  0  0  0  0  0  0
   39.0420   29.5370   43.9770 H   0  0  0  0  0  0  0  0  0  0  0  0
   39.5800   31.5870   40.5100 C   0  0  0  0  0  0  0  0  0  0  0  0
   39.6590   30.8430   41.6640 C   0  0  0  0  0  0  0  0  0  0  0  0
   40.7250   31.0710   42.4980 C   0  0  0  0  0  0  0  0  0  0  0  0
   41.7130   31.9970   42.2430 C   0  0  0  0  0  0  0  0  0  0  0  0
   42.8330   32.3700   42.9290 N   0  0  0  0  0  0  0  0  0  0  0  0
   43.4410   33.3520   42.1770 C   0  0  0  0  0  0  0  0  0  0  0  0
   42.6920   33.5630   41.0590 N   0  0  0  0  0  0  0  0  0  0  0  0
   41.6280   32.7420   41.0810 C   0  0  0  0  0  0  0  0  0  0  0  0
   40.5740   32.5350   40.2300 C   0  0  0  0  0  0  0  0  0  0  0  0
   38.7890   31.5020   39.7710 H   0  0  0  0  0  0  0  0  0  0  0  0
   40.7500   30.4660   43.3950 H   0  0  0  0  0  0  0  0  0  0  0  0
   43.0960   31.9360   43.8370 H   0  0  0  0  0  0  0  0  0  0  0  0
   44.3590   33.7610   42.5900 H   0  0  0  0  0  0  0  0  0  0  0  0
   40.5330   33.1360   39.3200 H   0  0  0  0  0  0  0  0  0  0  0  0
   37.6190   26.2140   39.4800 Cl  0  0  0  0  0  0  0  0  0  0  0  0
   36.2330   27.2200   39.0920 C   0  0  0  0  0  0  0  0  0  0  0  0
   35.9500   28.3180   39.8810 C   0  0  0  0  0  0  0  0  0  0  0  0
   34.8630   29.0960   39.5660 C   0  0  0  0  0  0  0  0  0  0  0  0
   34.6000   29.9780   40.1660 H   0  0  0  0  0  0  0  0  0  0  0  0
   34.0570   28.7940   38.4740 C   0  0  0  0  0  3  0  0  0  0  0  0
   34.3330   27.6910   37.6700 C   0  0  0  0  0  0  0  0  0  0  0  0
   33.3510   27.2670   36.2840 Cl  0  0  0  0  0  0  0  0  0  0  0  0
   35.4380   26.9000   37.9920 C   0  0  0  0  0  0  0  0  0  0  0  0
   35.7040   26.0270   37.4040 H   0  0  0  0  0  0  0  0  0  0  0  0
  1  7  1  0  0  0  0
  2  1  1  0  0  0  0
  2  8  1  0  0  0  0
  3  2  2  0  0  0  0
  4  5  2  0  0  0  0
  4  3  1  0  0  0  0
  5  6  1  0  0  0  0
  6  1  2  0  0  0  0
  9 10  1  0  0  0  0
 10  3  1  0  0  0  0
 10 11  2  0  0  0  0
 11 19  1  0  0  0  0
 12 11  1  0  0  0  0
 12 13  1  0  0  0  0
 13 20  1  0  0  0  0
 14 21  1  0  0  0  0
 14 13  1  0  0  0  0
 15 16  1  0  0  0  0
 15 14  2  0  0  0  0
 16 12  2  0  0  0  0
 17  9  2  0  0  0  0
 17 16  1  0  0  0  0
 18  9  1  0  0  0  0
 22 17  1  0  0  0  0
 24 23  1  0  0  0  0
 24 25  1  0  0  0  0
 25  5  1  0  0  0  0
 26 25  2  0  0  0  0
 26 27  1  0  0  0  0
 28 26  1  0  0  0  0
 29 31  1  0  0  0  0
 29 28  2  0  0  0  0
 30 29  1  0  0  0  0
 31 24  2  0  0  0  0
 32 31  1  0  0  0  0
M  END
>  <minimizedAffinity>
-5.71379995

$$$$

 OpenBabel03242521353D

 32 35  0  0  0  0  0  0  0  0999 V2000
   37.6930   33.2750   40.2780 C   0  0  0  0  0  0  0  0  0  0  0  0
   39.0530   33.6900   40.1560 C   0  0  0  0  0  0  0  0  0  0  0  0
   40.0280   32.7380   40.4230 C   0  0  0  0  0  0  0  0  0  0  0  0
   39.6510   31.4740   40.7820 N   0  0  0  0  0  0  0  0  0  0  0  0
   38.3450   31.1270   40.8830 C   0  0  0  0  0  0  0  0  0  0  0  0
   37.3830   32.0210   40.6330 N   0  0  0  0  0  0  0  0  0  0  0  0
   36.9590   34.0650   40.0570 H   0  0  0  0  0  0  0  0  0  0  0  0
   39.3390   34.6720   39.8780 H   0  0  0  0  0  0  0  0  0  0  0  0
   42.2320   32.7030   41.4310 C   0  0  0  0  0  0  0  0  0  0  0  0
   41.4500   33.0080   40.3420 C   0  0  0  0  0  0  0  0  0  0  0  0
   42.0710   33.5510   39.2440 C   0  0  0  0  0  0  0  0  0  0  0  0
   43.4230   33.8040   39.1760 C   0  0  0  0  0  0  0  0  0  0  0  0
   44.2200   34.3270   38.1980 N   0  0  0  0  0  0  0  0  0  0  0  0
   45.5020   34.3380   38.7050 C   0  0  0  0  0  0  0  0  0  0  0  0
   45.4690   33.8280   39.9670 N   0  0  0  0  0  0  0  0  0  0  0  0
   44.2040   33.4940   40.2750 C   0  0  0  0  0  0  0  0  0  0  0  0
   43.6100   32.9510   41.3840 C   0  0  0  0  0  0  0  0  0  0  0  0
   41.8630   32.2710   42.3570 H   0  0  0  0  0  0  0  0  0  0  0  0
   41.4210   33.7760   38.4080 H   0  0  0  0  0  0  0  0  0  0  0  0
   43.8400   34.6310   37.2790 H   0  0  0  0  0  0  0  0  0  0  0  0
   46.2670   34.7310   38.0420 H   0  0  0  0  0  0  0  0  0  0  0  0
   44.2500   32.7170   42.2370 H   0  0  0  0  0  0  0  0  0  0  0  0
   37.9410   29.2210   38.6100 Cl  0  0  0  0  0  0  0  0  0  0  0  0
   37.7870   28.7960   40.3060 C   0  0  0  0  0  0  0  0  0  0  0  0
   37.9970   29.7640   41.2700 C   0  0  0  0  0  0  0  0  0  0  0  0
   37.8730   29.4170   42.5930 C   0  0  0  0  0  0  0  0  0  0  0  0
   38.0310   30.1540   43.3930 H   0  0  0  0  0  0  0  0  0  0  0  0
   37.5410   28.1200   42.9660 C   0  0  0  0  0  3  0  0  0  0  0  0
   37.3260   27.1360   42.0050 C   0  0  0  0  0  0  0  0  0  0  0  0
   36.9070   25.4880   42.4220 Cl  0  0  0  0  0  0  0  0  0  0  0  0
   37.4530   27.4900   40.6590 C   0  0  0  0  0  0  0  0  0  0  0  0
   37.2990   26.7670   39.8640 H   0  0  0  0  0  0  0  0  0  0  0  0
  1  6  1  0  0  0  0
  2  1  2  0  0  0  0
  2  3  1  0  0  0  0
  3  4  2  0  0  0  0
  4  5  1  0  0  0  0
  5 25  1  0  0  0  0
  6  5  2  0  0  0  0
  7  1  1  0  0  0  0
  8  2  1  0  0  0  0
  9 18  1  0  0  0  0
 10  3  1  0  0  0  0
 10  9  2  0  0  0  0
 11 10  1  0  0  0  0
 12 11  2  0  0  0  0
 12 16  1  0  0  0  0
 13 14  1  0  0  0  0
 13 12  1  0  0  0  0
 14 15  2  0  0  0  0
 15 16  1  0  0  0  0
 16 17  2  0  0  0  0
 17  9  1  0  0  0  0
 17 22  1  0  0  0  0
 19 11  1  0  0  0  0
 20 13  1  0  0  0  0
 21 14  1  0  0  0  0
 23 24  1  0  0  0  0
 24 31  2  0  0  0  0
 24 25  1  0  0  0  0
 25 26  2  0  0  0  0
 26 28  1  0  0  0  0
 26 27  1  0  0  0  0
 29 30  1  0  0  0  0
 29 28  2  0  0  0  0
 31 29  1  0  0  0  0
 32 31  1  0  0  0  0
M  END
>  <minimizedAffinity>
-5.69601917

$$$$

 OpenBabel03242521353D

 32 35  0  0  0  0  0  0  0  0999 V2000
   36.9410   27.4230   43.3830 C   0  0  0  0  0  0  0  0  0  0  0  0
   38.2350   27.9500   43.6720 C   0  0  0  0  0  0  0  0  0  0  0  0
   38.9140   28.5610   42.6260 C   0  0  0  0  0  0  0  0  0  0  0  0
   38.3270   28.6310   41.3940 N   0  0  0  0  0  0  0  0  0  0  0  0
   37.0930   28.1150   41.1690 C   0  0  0  0  0  0  0  0  0  0  0  0
   36.4150   27.5200   42.1540 N   0  0  0  0  0  0  0  0  0  0  0  0
   36.4440   26.9490   44.2430 H   0  0  0  0  0  0  0  0  0  0  0  0
   38.6860   27.8940   44.6300 H   0  0  0  0  0  0  0  0  0  0  0  0
   41.2850   28.3060   43.0560 C   0  0  0  0  0  0  0  0  0  0  0  0
   40.2350   29.1440   42.7650 C   0  0  0  0  0  0  0  0  0  0  0  0
   40.5060   30.4820   42.6230 C   0  0  0  0  0  0  0  0  0  0  0  0
   41.7650   31.0270   42.7560 C   0  0  0  0  0  0  0  0  0  0  0  0
   42.2380   32.3030   42.6560 N   0  0  0  0  0  0  0  0  0  0  0  0
   43.5940   32.2360   42.8910 C   0  0  0  0  0  0  0  0  0  0  0  0
   43.9250   30.9360   43.1270 N   0  0  0  0  0  0  0  0  0  0  0  0
   42.8180   30.1790   43.0490 C   0  0  0  0  0  0  0  0  0  0  0  0
   42.5750   28.8380   43.1960 C   0  0  0  0  0  0  0  0  0  0  0  0
   41.2020   27.2320   43.1920 H   0  0  0  0  0  0  0  0  0  0  0  0
   39.6530   31.1070   42.3930 H   0  0  0  0  0  0  0  0  0  0  0  0
   41.6160   33.1080   42.4400 H   0  0  0  0  0  0  0  0  0  0  0  0
   44.1280   33.1810   42.8470 H   0  0  0  0  0  0  0  0  0  0  0  0
   43.4240   28.1930   43.4280 H   0  0  0  0  0  0  0  0  0  0  0  0
   36.0530   30.8240   40.4320 Cl  0  0  0  0  0  0  0  0  0  0  0  0
   36.0000   29.4170   39.3840 C   0  0  0  0  0  0  0  0  0  0  0  0
   36.5120   28.2150   39.8340 C   0  0  0  0  0  0  0  0  0  0  0  0
   36.4630   27.1230   39.0030 C   0  0  0  0  0  0  0  0  0  0  0  0
   36.8590   26.1480   39.3200 H   0  0  0  0  0  0  0  0  0  0  0  0
   35.9100   27.2130   37.7310 C   0  0  0  0  0  3  0  0  0  0  0  0
   35.3890   28.4180   37.2660 C   0  0  0  0  0  0  0  0  0  0  0  0
   34.6820   28.5850   35.6730 Cl  0  0  0  0  0  0  0  0  0  0  0  0
   35.4400   29.5290   38.1120 C   0  0  0  0  0  0  0  0  0  0  0  0
   35.0510   30.4950   37.8060 H   0  0  0  0  0  0  0  0  0  0  0  0
  1  2  1  0  0  0  0
  1  7  1  0  0  0  0
  2  8  1  0  0  0  0
  3 10  1  0  0  0  0
  3  2  2  0  0  0  0
  4  3  1  0  0  0  0
  5  4  2  0  0  0  0
  5  6  1  0  0  0  0
  6  1  2  0  0  0  0
  9 18  1  0  0  0  0
  9 17  1  0  0  0  0
 10  9  2  0  0  0  0
 11 12  2  0  0  0  0
 11 10  1  0  0  0  0
 12 16  1  0  0  0  0
 13 12  1  0  0  0  0
 13 14  1  0  0  0  0
 14 15  2  0  0  0  0
 16 15  1  0  0  0  0
 16 17  2  0  0  0  0
 17 22  1  0  0  0  0
 19 11  1  0  0  0  0
 20 13  1  0  0  0  0
 21 14  1  0  0  0  0
 24 25  1  0  0  0  0
 24 23  1  0  0  0  0
 25  5  1  0  0  0  0
 26 27  1  0  0  0  0
 26 25  2  0  0  0  0
 28 26  1  0  0  0  0
 29 28  2  0  0  0  0
 29 31  1  0  0  0  0
 30 29  1  0  0  0  0
 31 24  2  0  0  0  0
 32 31  1  0  0  0  0
M  END
>  <minimizedAffinity>
-5.56091356

$$$$

 OpenBabel03242521353D

 32 35  0  0  0  0  0  0  0  0999 V2000
   36.9540   31.3470   38.4290 C   0  0  0  0  0  0  0  0  0  0  0  0
   38.0870   32.1720   38.7030 C   0  0  0  0  0  0  0  0  0  0  0  0
   39.0410   31.6630   39.5740 C   0  0  0  0  0  0  0  0  0  0  0  0
   38.8590   30.4230   40.1180 N   0  0  0  0  0  0  0  0  0  0  0  0
   37.7660   29.6760   39.8270 C   0  0  0  0  0  0  0  0  0  0  0  0
   36.8300   30.1380   38.9930 N   0  0  0  0  0  0  0  0  0  0  0  0
   36.2270   31.7940   37.7350 H   0  0  0  0  0  0  0  0  0  0  0  0
   38.2220   33.1330   38.2780 H   0  0  0  0  0  0  0  0  0  0  0  0
   40.7480   33.3050   39.0630 C   0  0  0  0  0  0  0  0  0  0  0  0
   40.2430   32.3820   39.9480 C   0  0  0  0  0  0  0  0  0  0  0  0
   40.9130   32.2010   41.1330 C   0  0  0  0  0  0  0  0  0  0  0  0
   42.0550   32.8900   41.4800 C   0  0  0  0  0  0  0  0  0  0  0  0
   42.8560   32.8600   42.5850 N   0  0  0  0  0  0  0  0  0  0  0  0
   43.8600   33.7780   42.3640 C   0  0  0  0  0  0  0  0  0  0  0  0
   43.6590   34.3480   41.1440 N   0  0  0  0  0  0  0  0  0  0  0  0
   42.5580   33.8170   40.5850 C   0  0  0  0  0  0  0  0  0  0  0  0
   41.9090   34.0170   39.3940 C   0  0  0  0  0  0  0  0  0  0  0  0
   40.3130   33.5390   38.0960 H   0  0  0  0  0  0  0  0  0  0  0  0
   40.4830   31.4670   41.8020 H   0  0  0  0  0  0  0  0  0  0  0  0
   42.6640   32.2300   43.3900 H   0  0  0  0  0  0  0  0  0  0  0  0
   44.5910   33.8770   43.1610 H   0  0  0  0  0  0  0  0  0  0  0  0
   42.3280   34.7540   38.7080 H   0  0  0  0  0  0  0  0  0  0  0  0
   38.7290   27.3860   38.1540 Cl  0  0  0  0  0  0  0  0  0  0  0  0
   38.0310   27.2260   39.7570 C   0  0  0  0  0  0  0  0  0  0  0  0
   37.6210   28.3570   40.4350 C   0  0  0  0  0  0  0  0  0  0  0  0
   37.0770   28.2160   41.6890 C   0  0  0  0  0  0  0  0  0  0  0  0
   36.7380   29.0890   42.2640 H   0  0  0  0  0  0  0  0  0  0  0  0
   36.9360   26.9630   42.2720 C   0  0  0  0  0  3  0  0  0  0  0  0
   37.3450   25.8150   41.5990 C   0  0  0  0  0  0  0  0  0  0  0  0
   37.1900   24.2130   42.2890 Cl  0  0  0  0  0  0  0  0  0  0  0  0
   37.8990   25.9590   40.3240 C   0  0  0  0  0  0  0  0  0  0  0  0
   38.2360   25.1020   39.7500 H   0  0  0  0  0  0  0  0  0  0  0  0
  1  2  2  0  0  0  0
  1  6  1  0  0  0  0
  2  3  1  0  0  0  0
  3 10  1  0  0  0  0
  3  4  2  0  0  0  0
  5  4  1  0  0  0  0
  5 25  1  0  0  0  0
  6  5  2  0  0  0  0
  7  1  1  0  0  0  0
  8  2  1  0  0  0  0
  9 17  2  0  0  0  0
  9 10  1  0  0  0  0
 10 11  2  0  0  0  0
 11 12  1  0  0  0  0
 11 19  1  0  0  0  0
 12 13  1  0  0  0  0
 13 20  1  0  0  0  0
 14 13  1  0  0  0  0
 14 21  1  0  0  0  0
 15 14  2  0  0  0  0
 16 15  1  0  0  0  0
 16 12  2  0  0  0  0
 17 16  1  0  0  0  0
 18  9  1  0  0  0  0
 22 17  1  0  0  0  0
 23 24  1  0  0  0  0
 24 31  2  0  0  0  0
 24 25  1  0  0  0  0
 25 26  2  0  0  0  0
 26 27  1  0  0  0  0
 26 28  1  0  0  0  0
 29 28  2  0  0  0  0
 29 30  1  0  0  0  0
 31 29  1  0  0  0  0
 32 31  1  0  0  0  0
M  END
>  <minimizedAffinity>
-5.46201801

$$$$
