
 OpenBabel03252500423D

 29 31  0  0  1  0  0  0  0  0999 V2000
   47.4620   35.1090   41.4790 C   0  0  1  0  0  0  0  0  0  0  0  0
   48.9160   35.5690   41.4680 C   0  0  0  0  0  0  0  0  0  0  0  0
   48.3360   34.8530   40.3070 C   0  0  1  0  0  0  0  0  0  0  0  0
   46.6470   35.8070   41.1820 H   0  0  0  0  0  0  0  0  0  0  0  0
   49.0340   36.6740   41.4180 H   0  0  0  0  0  0  0  0  0  0  0  0
   49.6110   35.1070   42.1640 H   0  0  0  0  0  0  0  0  0  0  0  0
   48.2630   35.5070   39.3830 H   0  0  0  0  0  0  0  0  0  0  0  0
   48.1120   34.5070   37.4040 Cl  0  0  0  0  0  0  0  0  0  0  0  0
   48.4780   33.2680   38.5980 C   0  0  0  0  0  0  0  0  0  0  0  0
   48.5910   33.4640   39.9610 C   0  0  0  0  0  0  0  0  0  0  0  0
   48.8840   32.3300   40.6860 C   0  0  0  0  0  0  0  0  0  0  0  0
   48.9440   32.5030   41.7500 H   0  0  0  0  0  0  0  0  0  0  0  0
   49.0590   31.0840   40.1250 C   0  0  0  0  0  0  0  0  0  0  0  0
   48.9440   30.9080   38.7640 C   0  0  0  0  0  0  0  0  0  0  0  0
   49.1840   29.2940   38.1670 Cl  0  0  0  0  0  0  0  0  0  0  0  0
   48.6450   32.0320   37.9940 C   0  0  0  0  0  0  0  0  0  0  0  0
   48.5740   31.7990   36.9440 H   0  0  0  0  0  0  0  0  0  0  0  0
   47.1850   34.0280   42.4570 C   0  0  0  0  0  0  0  0  0  0  0  0
   48.1390   33.6190   42.8700 H   0  0  0  0  0  0  0  0  0  0  0  0
   46.6410   33.1610   42.0010 H   0  0  0  0  0  0  0  0  0  0  0  0
   46.2780   34.4780   43.5430 C   0  0  0  0  0  0  0  0  0  0  0  0
   45.5170   35.5990   43.3140 C   0  0  0  0  0  0  0  0  0  0  0  0
   44.6410   36.0140   44.3300 C   0  0  0  0  0  0  0  0  0  0  0  0
   44.6060   35.2740   45.4750 N   0  0  0  0  0  0  0  0  0  0  0  0
   45.3810   34.1720   45.6500 C   0  0  0  0  0  0  0  0  0  0  0  0
   46.2250   33.7720   44.6720 N   0  0  0  0  0  0  0  0  0  0  0  0
   45.4250   36.2860   42.4960 H   0  0  0  0  0  0  0  0  0  0  0  0
   43.9860   36.8470   44.3270 H   0  0  0  0  0  0  0  0  0  0  0  0
   45.3560   33.5850   46.5530 H   0  0  0  0  0  0  0  0  0  0  0  0
  1  4  1  6  0  0  0
  1 18  1  0  0  0  0
  2  1  1  0  0  0  0
  2  6  1  0  0  0  0
  3  7  1  6  0  0  0
  3  2  1  0  0  0  0
  3  1  1  0  0  0  0
  5  2  1  0  0  0  0
  8  9  1  0  0  0  0
  9 10  1  0  0  0  0
 10  3  1  0  0  0  0
 10 11  2  0  0  0  0
 11 12  1  0  0  0  0
 13 11  1  0  0  0  0
 14 13  2  0  0  0  0
 15 14  1  0  0  0  0
 16  9  2  0  0  0  0
 16 14  1  0  0  0  0
 17 16  1  0  0  0  0
 18 19  1  0  0  0  0
 18 21  1  0  0  0  0
 20 18  1  0  0  0  0
 21 26  1  0  0  0  0
 22 21  2  0  0  0  0
 22 23  1  0  0  0  0
 23 24  2  0  0  0  0
 24 25  1  0  0  0  0
 25 29  1  0  0  0  0
 26 25  2  0  0  0  0
 27 22  1  0  0  0  0
 28 23  1  0  0  0  0
M  END
>  <minimizedAffinity>
-5.19509649

>  <minimizedRMSD>
0.565209031

$$$$
