
 OpenBabel03252504563D

 32 34  0  0  1  0  0  0  0  0999 V2000
   38.8710   29.4040   42.5350 N   0  0  0  0  0  0  0  0  0  0  0  0
   39.5750   28.1820   42.7040 C   0  0  0  0  0  0  0  0  0  0  0  0
   38.5910   27.3520   43.4900 C   0  0  0  0  0  0  0  0  0  0  0  0
   37.3240   28.1640   43.6800 C   0  0  0  0  0  0  0  0  0  0  0  0
   37.5010   29.2240   42.5650 C   0  0  2  0  0  0  0  0  0  0  0  0
   40.5020   27.7730   42.4420 H   0  0  0  0  0  0  0  0  0  0  0  0
   38.7640   26.3190   43.8300 H   0  0  0  0  0  0  0  0  0  0  0  0
   36.4710   27.4970   43.4720 H   0  0  0  0  0  0  0  0  0  0  0  0
   37.3370   28.6540   44.6470 H   0  0  0  0  0  0  0  0  0  0  0  0
   36.8550   30.0590   42.8310 H   0  0  0  0  0  0  0  0  0  0  0  0
   36.1980   31.1590   40.7730 Cl  0  0  0  0  0  0  0  0  0  0  0  0
   36.3840   29.4400   40.4230 C   0  0  0  0  0  0  0  0  0  0  0  0
   37.0150   28.5810   41.3310 C   0  0  0  0  0  0  0  0  0  0  0  0
   37.0780   27.2750   40.9060 C   0  0  0  0  0  0  0  0  0  0  0  0
   37.5590   26.5960   41.5800 H   0  0  0  0  0  0  0  0  0  0  0  0
   36.5680   26.8470   39.7010 C   0  0  0  0  0  3  0  0  0  0  0  0
   35.9520   27.7220   38.8320 C   0  0  0  0  0  0  0  0  0  0  0  0
   35.3450   27.0630   37.3340 Cl  0  0  0  0  0  0  0  0  0  0  0  0
   35.8640   29.0460   39.2100 C   0  0  0  0  0  0  0  0  0  0  0  0
   35.3800   29.7240   38.5230 H   0  0  0  0  0  0  0  0  0  0  0  0
   39.5460   30.5810   42.4750 C   0  0  0  0  0  0  0  0  0  0  0  0
   39.2920   31.3870   43.2150 H   0  0  0  0  0  0  0  0  0  0  0  0
   40.6300   30.3770   42.7650 H   0  0  0  0  0  0  0  0  0  0  0  0
   39.9470   31.3220   38.7990 C   0  0  0  0  0  0  0  0  0  0  0  0
   39.9300   30.5490   39.9880 C   0  0  0  0  0  0  0  0  0  0  0  0
   39.6480   31.2280   41.1720 C   0  0  0  0  0  0  0  0  0  0  0  0
   39.4130   32.5570   41.1320 N   0  0  0  0  0  0  0  0  0  0  0  0
   39.4360   33.2840   39.9620 C   0  0  0  0  0  0  0  0  0  0  0  0
   39.7040   32.6540   38.8060 N   0  0  0  0  0  0  0  0  0  0  0  0
   40.1650   30.7810   37.9050 H   0  0  0  0  0  0  0  0  0  0  0  0
   40.1180   29.5060   40.0140 H   0  0  0  0  0  0  0  0  0  0  0  0
   39.2310   34.3390   40.0650 H   0  0  0  0  0  0  0  0  0  0  0  0
  1  5  1  0  0  0  0
  1  2  1  0  0  0  0
  2  3  2  0  0  0  0
  3  4  1  0  0  0  0
  3  7  1  0  0  0  0
  4  9  1  0  0  0  0
  5 10  1  1  0  0  0
  5  4  1  0  0  0  0
  6  2  1  0  0  0  0
  8  4  1  0  0  0  0
 12 11  1  0  0  0  0
 12 13  1  0  0  0  0
 13  5  1  0  0  0  0
 14 13  2  0  0  0  0
 14 15  1  0  0  0  0
 16 14  1  0  0  0  0
 17 19  1  0  0  0  0
 17 16  2  0  0  0  0
 18 17  1  0  0  0  0
 19 12  2  0  0  0  0
 20 19  1  0  0  0  0
 21  1  1  0  0  0  0
 21 23  1  0  0  0  0
 21 22  1  0  0  0  0
 24 29  2  0  0  0  0
 24 25  1  0  0  0  0
 25 31  1  0  0  0  0
 25 26  2  0  0  0  0
 26 21  1  0  0  0  0
 27 26  1  0  0  0  0
 28 32  1  0  0  0  0
 28 27  2  0  0  0  0
 29 28  1  0  0  0  0
 30 24  1  0  0  0  0
M  END
>  <minimizedAffinity>
-5.16306114

$$$$

 OpenBabel03252504563D

 32 34  0  0  1  0  0  0  0  0999 V2000
   36.6710   28.9230   41.5400 N   0  0  0  0  0  0  0  0  0  0  0  0
   37.5660   29.5490   42.4480 C   0  0  0  0  0  0  0  0  0  0  0  0
   37.6420   28.5420   43.5680 C   0  0  0  0  0  0  0  0  0  0  0  0
   36.7990   27.3400   43.1890 C   0  0  0  0  0  0  0  0  0  0  0  0
   36.6890   27.5460   41.6590 C   0  0  2  0  0  0  0  0  0  0  0  0
   38.1170   30.4370   42.5130 H   0  0  0  0  0  0  0  0  0  0  0  0
   38.2420   28.6580   44.4840 H   0  0  0  0  0  0  0  0  0  0  0  0
   37.3820   26.4370   43.4350 H   0  0  0  0  0  0  0  0  0  0  0  0
   35.8130   27.4210   43.6350 H   0  0  0  0  0  0  0  0  0  0  0  0
   35.8270   26.9670   41.3320 H   0  0  0  0  0  0  0  0  0  0  0  0
   36.6970   24.6080   41.8180 Cl  0  0  0  0  0  0  0  0  0  0  0  0
   38.0040   25.5760   41.1330 C   0  0  0  0  0  0  0  0  0  0  0  0
   37.9250   26.9730   41.0960 C   0  0  0  0  0  0  0  0  0  0  0  0
   39.0250   27.5750   40.5300 C   0  0  0  0  0  0  0  0  0  0  0  0
   38.9920   28.6440   40.4860 H   0  0  0  0  0  0  0  0  0  0  0  0
   40.1050   26.8720   40.0450 C   0  0  0  0  0  3  0  0  0  0  0  0
   40.1460   25.4950   40.0990 C   0  0  0  0  0  0  0  0  0  0  0  0
   41.5680   24.7140   39.4520 Cl  0  0  0  0  0  0  0  0  0  0  0  0
   39.0660   24.8420   40.6570 C   0  0  0  0  0  0  0  0  0  0  0  0
   39.1080   23.7640   40.6940 H   0  0  0  0  0  0  0  0  0  0  0  0
   35.8470   29.6720   40.7630 C   0  0  0  0  0  0  0  0  0  0  0  0
   34.8730   29.2280   40.4250 H   0  0  0  0  0  0  0  0  0  0  0  0
   35.4630   30.5390   41.3970 H   0  0  0  0  0  0  0  0  0  0  0  0
   37.4450   32.1190   38.3780 C   0  0  0  0  0  0  0  0  0  0  0  0
   36.8500   31.6530   39.5790 C   0  0  0  0  0  0  0  0  0  0  0  0
   36.4360   30.3240   39.5980 C   0  0  0  0  0  0  0  0  0  0  0  0
   36.6150   29.5590   38.5000 N   0  0  0  0  0  0  0  0  0  0  0  0
   37.1960   30.0370   37.3460 C   0  0  0  0  0  0  0  0  0  0  0  0
   37.6050   31.3160   37.3000 N   0  0  0  0  0  0  0  0  0  0  0  0
   37.7550   33.1400   38.3870 H   0  0  0  0  0  0  0  0  0  0  0  0
   36.7090   32.2590   40.4390 H   0  0  0  0  0  0  0  0  0  0  0  0
   37.2820   29.3250   36.5380 H   0  0  0  0  0  0  0  0  0  0  0  0
  1  5  1  0  0  0  0
  1  2  1  0  0  0  0
  2  6  1  0  0  0  0
  2  3  2  0  0  0  0
  3  7  1  0  0  0  0
  4  8  1  0  0  0  0
  4  3  1  0  0  0  0
  4  9  1  0  0  0  0
  5 10  1  6  0  0  0
  5  4  1  0  0  0  0
 12 11  1  0  0  0  0
 13 12  1  0  0  0  0
 13  5  1  0  0  0  0
 14 13  2  0  0  0  0
 15 14  1  0  0  0  0
 16 17  2  0  0  0  0
 16 14  1  0  0  0  0
 17 19  1  0  0  0  0
 18 17  1  0  0  0  0
 19 20  1  0  0  0  0
 19 12  2  0  0  0  0
 21 23  1  0  0  0  0
 21  1  1  0  0  0  0
 22 21  1  0  0  0  0
 24 30  1  0  0  0  0
 24 25  1  0  0  0  0
 25 26  2  0  0  0  0
 25 31  1  0  0  0  0
 26 21  1  0  0  0  0
 27 26  1  0  0  0  0
 28 27  2  0  0  0  0
 29 28  1  0  0  0  0
 29 24  2  0  0  0  0
 32 28  1  0  0  0  0
M  END
>  <minimizedAffinity>
-5.10885048

$$$$

 OpenBabel03252504563D

 32 34  0  0  1  0  0  0  0  0999 V2000
   38.3220   29.2100   42.2920 N   0  0  0  0  0  0  0  0  0  0  0  0
   39.3090   28.3230   42.7990 C   0  0  0  0  0  0  0  0  0  0  0  0
   38.4960   27.4070   43.6780 C   0  0  0  0  0  0  0  0  0  0  0  0
   37.0380   27.8110   43.5700 C   0  0  0  0  0  0  0  0  0  0  0  0
   37.0690   28.6280   42.2550 C   0  0  2  0  0  0  0  0  0  0  0  0
   40.3420   28.1750   42.7150 H   0  0  0  0  0  0  0  0  0  0  0  0
   38.9010   26.5670   44.2640 H   0  0  0  0  0  0  0  0  0  0  0  0
   36.4470   26.8860   43.4580 H   0  0  0  0  0  0  0  0  0  0  0  0
   36.7710   28.4650   44.3940 H   0  0  0  0  0  0  0  0  0  0  0  0
   36.1830   29.2590   42.2650 H   0  0  0  0  0  0  0  0  0  0  0  0
   35.2190   29.5020   40.1420 Cl  0  0  0  0  0  0  0  0  0  0  0  0
   36.1080   27.9780   40.1250 C   0  0  0  0  0  0  0  0  0  0  0  0
   36.9700   27.6320   41.1720 C   0  0  0  0  0  0  0  0  0  0  0  0
   37.5850   26.4140   41.0040 C   0  0  0  0  0  0  0  0  0  0  0  0
   38.2530   26.1250   41.7890 H   0  0  0  0  0  0  0  0  0  0  0  0
   37.3750   25.6060   39.9090 C   0  0  0  0  0  3  0  0  0  0  0  0
   36.5170   25.9810   38.8970 C   0  0  0  0  0  0  0  0  0  0  0  0
   36.3320   24.8740   37.5600 Cl  0  0  0  0  0  0  0  0  0  0  0  0
   35.8750   27.1960   39.0160 C   0  0  0  0  0  0  0  0  0  0  0  0
   35.2060   27.4800   38.2190 H   0  0  0  0  0  0  0  0  0  0  0  0
   38.6400   30.5000   42.0110 C   0  0  0  0  0  0  0  0  0  0  0  0
   38.3470   31.2990   42.7430 H   0  0  0  0  0  0  0  0  0  0  0  0
   39.7750   30.5970   42.0510 H   0  0  0  0  0  0  0  0  0  0  0  0
   37.3060   32.5120   39.1120 C   0  0  0  0  0  0  0  0  0  0  0  0
   37.5120   32.1330   40.4640 C   0  0  0  0  0  0  0  0  0  0  0  0
   38.2920   31.0010   40.6850 C   0  0  0  0  0  0  0  0  0  0  0  0
   38.8020   30.3320   39.6290 N   0  0  0  0  0  0  0  0  0  0  0  0
   38.5870   30.7220   38.3250 C   0  0  0  0  0  0  0  0  0  0  0  0
   37.8390   31.8110   38.0840 N   0  0  0  0  0  0  0  0  0  0  0  0
   36.7060   33.3820   38.9670 H   0  0  0  0  0  0  0  0  0  0  0  0
   37.1070   32.6610   41.2900 H   0  0  0  0  0  0  0  0  0  0  0  0
   39.0500   30.1020   37.5720 H   0  0  0  0  0  0  0  0  0  0  0  0
  1  2  1  0  0  0  0
  2  3  2  0  0  0  0
  3  7  1  0  0  0  0
  4  3  1  0  0  0  0
  4  9  1  0  0  0  0
  5 10  1  6  0  0  0
  5  1  1  0  0  0  0
  5  4  1  0  0  0  0
  6  2  1  0  0  0  0
  8  4  1  0  0  0  0
 12 11  1  0  0  0  0
 12 13  1  0  0  0  0
 13  5  1  0  0  0  0
 14 13  2  0  0  0  0
 14 15  1  0  0  0  0
 16 14  1  0  0  0  0
 17 19  1  0  0  0  0
 17 16  2  0  0  0  0
 18 17  1  0  0  0  0
 19 12  2  0  0  0  0
 20 19  1  0  0  0  0
 21 23  1  0  0  0  0
 21  1  1  0  0  0  0
 21 22  1  0  0  0  0
 24 25  1  0  0  0  0
 25 26  2  0  0  0  0
 25 31  1  0  0  0  0
 26 21  1  0  0  0  0
 27 26  1  0  0  0  0
 28 27  2  0  0  0  0
 29 28  1  0  0  0  0
 29 24  2  0  0  0  0
 30 24  1  0  0  0  0
 32 28  1  0  0  0  0
M  END
>  <minimizedAffinity>
-5.10872841

$$$$

 OpenBabel03252504563D

 32 34  0  0  1  0  0  0  0  0999 V2000
   38.7460   32.6370   40.0450 N   0  0  0  0  0  0  0  0  0  0  0  0
   37.4440   32.9170   39.5500 C   0  0  0  0  0  0  0  0  0  0  0  0
   37.3200   31.9420   38.4070 C   0  0  0  0  0  0  0  0  0  0  0  0
   38.5820   31.1030   38.3530 C   0  0  0  0  0  0  0  0  0  0  0  0
   39.1350   31.3370   39.7800 C   0  0  2  0  0  0  0  0  0  0  0  0
   36.6490   33.5620   39.7680 H   0  0  0  0  0  0  0  0  0  0  0  0
   36.4400   31.8430   37.7520 H   0  0  0  0  0  0  0  0  0  0  0  0
   38.2740   30.0540   38.2060 H   0  0  0  0  0  0  0  0  0  0  0  0
   39.2740   31.5160   37.6270 H   0  0  0  0  0  0  0  0  0  0  0  0
   40.1940   31.0900   39.7430 H   0  0  0  0  0  0  0  0  0  0  0  0
   40.5710   30.8640   42.3030 Cl  0  0  0  0  0  0  0  0  0  0  0  0
   39.0420   30.1010   41.8650 C   0  0  0  0  0  0  0  0  0  0  0  0
   38.4210   30.3770   40.6410 C   0  0  0  0  0  0  0  0  0  0  0  0
   37.2380   29.7020   40.4560 C   0  0  0  0  0  0  0  0  0  0  0  0
   36.7380   29.8960   39.5290 H   0  0  0  0  0  0  0  0  0  0  0  0
   36.7090   28.8330   41.3850 C   0  0  0  0  0  3  0  0  0  0  0  0
   37.3510   28.5860   42.5790 C   0  0  0  0  0  0  0  0  0  0  0  0
   36.5840   27.4660   43.6780 Cl  0  0  0  0  0  0  0  0  0  0  0  0
   38.5420   29.2400   42.8160 C   0  0  0  0  0  0  0  0  0  0  0  0
   39.0370   29.0400   43.7540 H   0  0  0  0  0  0  0  0  0  0  0  0
   39.4970   33.6260   40.5950 C   0  0  0  0  0  0  0  0  0  0  0  0
   39.0600   34.6580   40.6680 H   0  0  0  0  0  0  0  0  0  0  0  0
   39.6320   33.3870   41.7020 H   0  0  0  0  0  0  0  0  0  0  0  0
   43.2490   33.7970   40.2540 C   0  0  0  0  0  0  0  0  0  0  0  0
   41.9950   33.6600   40.9010 C   0  0  0  0  0  0  0  0  0  0  0  0
   40.8610   33.7840   40.1020 C   0  0  0  0  0  0  0  0  0  0  0  0
   41.0060   34.0230   38.7810 N   0  0  0  0  0  0  0  0  0  0  0  0
   42.2380   34.1520   38.1780 C   0  0  0  0  0  0  0  0  0  0  0  0
   43.3470   34.0370   38.9250 N   0  0  0  0  0  0  0  0  0  0  0  0
   44.1040   33.6980   40.8870 H   0  0  0  0  0  0  0  0  0  0  0  0
   41.8860   33.4740   41.9400 H   0  0  0  0  0  0  0  0  0  0  0  0
   42.2180   34.3430   37.1150 H   0  0  0  0  0  0  0  0  0  0  0  0
  1 21  1  0  0  0  0
  2  6  1  0  0  0  0
  2  1  1  0  0  0  0
  3  2  2  0  0  0  0
  4  3  1  0  0  0  0
  4  5  1  0  0  0  0
  5 10  1  1  0  0  0
  5  1  1  0  0  0  0
  5 13  1  0  0  0  0
  7  3  1  0  0  0  0
  8  4  1  0  0  0  0
  9  4  1  0  0  0  0
 12 11  1  0  0  0  0
 12 19  1  0  0  0  0
 13 12  2  0  0  0  0
 14 13  1  0  0  0  0
 14 16  2  0  0  0  0
 15 14  1  0  0  0  0
 16 17  1  0  0  0  0
 17 19  2  0  0  0  0
 17 18  1  0  0  0  0
 19 20  1  0  0  0  0
 21 22  1  0  0  0  0
 21 23  1  0  0  0  0
 24 30  1  0  0  0  0
 24 25  1  0  0  0  0
 25 31  1  0  0  0  0
 26 21  1  0  0  0  0
 26 25  2  0  0  0  0
 27 26  1  0  0  0  0
 28 27  2  0  0  0  0
 28 29  1  0  0  0  0
 29 24  2  0  0  0  0
 32 28  1  0  0  0  0
M  END
>  <minimizedAffinity>
-5.05510616

$$$$

 OpenBabel03252504563D

 32 34  0  0  1  0  0  0  0  0999 V2000
   38.3390   24.5800   41.8610 N   0  0  0  0  0  0  0  0  0  0  0  0
   38.8120   24.1130   40.6050 C   0  0  0  0  0  0  0  0  0  0  0  0
   37.5360   23.6950   39.9190 C   0  0  0  0  0  0  0  0  0  0  0  0
   36.3710   24.0100   40.8380 C   0  0  0  0  0  0  0  0  0  0  0  0
   37.0350   25.0340   41.7900 C   0  0  2  0  0  0  0  0  0  0  0  0
   39.7250   24.0060   40.1070 H   0  0  0  0  0  0  0  0  0  0  0  0
   37.4730   23.2680   38.9050 H   0  0  0  0  0  0  0  0  0  0  0  0
   35.5850   24.4790   40.2240 H   0  0  0  0  0  0  0  0  0  0  0  0
   36.0910   23.1250   41.4000 H   0  0  0  0  0  0  0  0  0  0  0  0
   36.4240   25.0570   42.6900 H   0  0  0  0  0  0  0  0  0  0  0  0
   36.5240   27.2470   43.6590 Cl  0  0  0  0  0  0  0  0  0  0  0  0
   36.7160   27.4350   41.9150 C   0  0  0  0  0  0  0  0  0  0  0  0
   36.9550   26.3300   41.0910 C   0  0  0  0  0  0  0  0  0  0  0  0
   37.0800   26.6480   39.7590 C   0  0  0  0  0  0  0  0  0  0  0  0
   37.2670   25.8220   39.1050 H   0  0  0  0  0  0  0  0  0  0  0  0
   36.9800   27.9340   39.2770 C   0  0  0  0  0  3  0  0  0  0  0  0
   36.7430   28.9990   40.1210 C   0  0  0  0  0  0  0  0  0  0  0  0
   36.6360   30.5820   39.3930 Cl  0  0  0  0  0  0  0  0  0  0  0  0
   36.6100   28.7330   41.4680 C   0  0  0  0  0  0  0  0  0  0  0  0
   36.4250   29.5730   42.1200 H   0  0  0  0  0  0  0  0  0  0  0  0
   39.1050   24.4470   42.9740 C   0  0  0  0  0  0  0  0  0  0  0  0
   38.5980   24.3720   43.9730 H   0  0  0  0  0  0  0  0  0  0  0  0
   39.6120   23.4270   42.9290 H   0  0  0  0  0  0  0  0  0  0  0  0
   41.2430   27.4740   43.6790 C   0  0  0  0  0  0  0  0  0  0  0  0
   40.0570   26.7120   43.5210 C   0  0  0  0  0  0  0  0  0  0  0  0
   40.2140   25.3820   43.1380 C   0  0  0  0  0  0  0  0  0  0  0  0
   41.4560   24.8930   42.9390 N   0  0  0  0  0  0  0  0  0  0  0  0
   42.5920   25.6560   43.1000 C   0  0  0  0  0  0  0  0  0  0  0  0
   42.4700   26.9410   43.4700 N   0  0  0  0  0  0  0  0  0  0  0  0
   41.0980   28.4900   43.9740 H   0  0  0  0  0  0  0  0  0  0  0  0
   39.0820   27.1020   43.6760 H   0  0  0  0  0  0  0  0  0  0  0  0
   43.5260   25.1460   42.9110 H   0  0  0  0  0  0  0  0  0  0  0  0
  1 21  1  0  0  0  0
  2  1  1  0  0  0  0
  3  2  2  0  0  0  0
  3  4  1  0  0  0  0
  4  9  1  0  0  0  0
  4  5  1  0  0  0  0
  5  1  1  0  0  0  0
  5 10  1  1  0  0  0
  6  2  1  0  0  0  0
  7  3  1  0  0  0  0
  8  4  1  0  0  0  0
 12 11  1  0  0  0  0
 13  5  1  0  0  0  0
 13 12  2  0  0  0  0
 14 13  1  0  0  0  0
 15 14  1  0  0  0  0
 16 14  2  0  0  0  0
 16 17  1  0  0  0  0
 17 19  2  0  0  0  0
 18 17  1  0  0  0  0
 19 12  1  0  0  0  0
 19 20  1  0  0  0  0
 21 26  1  0  0  0  0
 21 22  1  0  0  0  0
 23 21  1  0  0  0  0
 24 30  1  0  0  0  0
 25 31  1  0  0  0  0
 25 24  1  0  0  0  0
 26 25  2  0  0  0  0
 27 28  2  0  0  0  0
 27 26  1  0  0  0  0
 28 29  1  0  0  0  0
 29 24  2  0  0  0  0
 32 28  1  0  0  0  0
M  END
>  <minimizedAffinity>
-5.02027178

$$$$

 OpenBabel03252504563D

 32 34  0  0  1  0  0  0  0  0999 V2000
   38.4720   28.3320   41.4570 N   0  0  0  0  0  0  0  0  0  0  0  0
   38.9860   28.1010   42.7610 C   0  0  0  0  0  0  0  0  0  0  0  0
   37.7280   27.9040   43.5700 C   0  0  0  0  0  0  0  0  0  0  0  0
   36.5390   27.9860   42.6330 C   0  0  0  0  0  0  0  0  0  0  0  0
   37.2360   27.7420   41.2720 C   0  0  2  0  0  0  0  0  0  0  0  0
   39.9180   28.0410   43.2330 H   0  0  0  0  0  0  0  0  0  0  0  0
   37.6970   27.6990   44.6520 H   0  0  0  0  0  0  0  0  0  0  0  0
   35.8570   27.1580   42.8920 H   0  0  0  0  0  0  0  0  0  0  0  0
   36.1200   28.9860   42.6490 H   0  0  0  0  0  0  0  0  0  0  0  0
   36.5640   28.1300   40.5100 H   0  0  0  0  0  0  0  0  0  0  0  0
   37.4130   26.9040   38.4580 Cl  0  0  0  0  0  0  0  0  0  0  0  0
   37.4450   25.8000   39.8350 C   0  0  0  0  0  0  0  0  0  0  0  0
   37.3530   26.2780   41.1470 C   0  0  0  0  0  0  0  0  0  0  0  0
   37.3930   25.2890   42.1010 C   0  0  0  0  0  0  0  0  0  0  0  0
   37.3280   25.6260   43.1150 H   0  0  0  0  0  0  0  0  0  0  0  0
   37.5120   23.9510   41.7980 C   0  0  0  0  0  3  0  0  0  0  0  0
   37.6000   23.5180   40.4920 C   0  0  0  0  0  0  0  0  0  0  0  0
   37.7480   21.7980   40.2320 Cl  0  0  0  0  0  0  0  0  0  0  0  0
   37.5650   24.4710   39.4960 C   0  0  0  0  0  0  0  0  0  0  0  0
   37.6350   24.1220   38.4770 H   0  0  0  0  0  0  0  0  0  0  0  0
   39.1320   29.1490   40.5970 C   0  0  0  0  0  0  0  0  0  0  0  0
   40.1560   29.5150   40.8770 H   0  0  0  0  0  0  0  0  0  0  0  0
   39.3850   28.5440   39.6640 H   0  0  0  0  0  0  0  0  0  0  0  0
   37.3100   32.4280   40.2010 C   0  0  0  0  0  0  0  0  0  0  0  0
   37.9620   31.3610   40.8700 C   0  0  0  0  0  0  0  0  0  0  0  0
   38.4040   30.3030   40.0790 C   0  0  0  0  0  0  0  0  0  0  0  0
   38.1960   30.3420   38.7460 N   0  0  0  0  0  0  0  0  0  0  0  0
   37.5590   31.3920   38.1210 C   0  0  0  0  0  0  0  0  0  0  0  0
   37.1230   32.4250   38.8600 N   0  0  0  0  0  0  0  0  0  0  0  0
   36.9810   33.2280   40.8270 H   0  0  0  0  0  0  0  0  0  0  0  0
   38.1220   31.3340   41.9180 H   0  0  0  0  0  0  0  0  0  0  0  0
   37.4540   31.3020   37.0500 H   0  0  0  0  0  0  0  0  0  0  0  0
  1  2  1  0  0  0  0
  2  6  1  0  0  0  0
  2  3  2  0  0  0  0
  3  7  1  0  0  0  0
  4  9  1  0  0  0  0
  4  8  1  0  0  0  0
  4  3  1  0  0  0  0
  5 10  1  6  0  0  0
  5  1  1  0  0  0  0
  5  4  1  0  0  0  0
 11 12  1  0  0  0  0
 12 13  1  0  0  0  0
 13  5  1  0  0  0  0
 13 14  2  0  0  0  0
 14 15  1  0  0  0  0
 16 14  1  0  0  0  0
 17 16  2  0  0  0  0
 18 17  1  0  0  0  0
 19 12  2  0  0  0  0
 19 17  1  0  0  0  0
 20 19  1  0  0  0  0
 21 22  1  0  0  0  0
 21  1  1  0  0  0  0
 23 21  1  0  0  0  0
 24 30  1  0  0  0  0
 24 25  1  0  0  0  0
 25 31  1  0  0  0  0
 26 21  1  0  0  0  0
 26 25  2  0  0  0  0
 27 26  1  0  0  0  0
 28 27  2  0  0  0  0
 28 29  1  0  0  0  0
 29 24  2  0  0  0  0
 32 28  1  0  0  0  0
M  END
>  <minimizedAffinity>
-4.99253511

$$$$

 OpenBabel03252504563D

 32 34  0  0  1  0  0  0  0  0999 V2000
   36.7950   28.7070   41.8440 N   0  0  0  0  0  0  0  0  0  0  0  0
   35.8390   28.4460   40.8260 C   0  0  0  0  0  0  0  0  0  0  0  0
   35.5410   29.8290   40.3050 C   0  0  0  0  0  0  0  0  0  0  0  0
   36.4160   30.8200   41.0490 C   0  0  0  0  0  0  0  0  0  0  0  0
   37.5030   29.8700   41.6070 C   0  0  2  0  0  0  0  0  0  0  0  0
   35.3540   27.6200   40.4050 H   0  0  0  0  0  0  0  0  0  0  0  0
   34.8310   30.0620   39.4950 H   0  0  0  0  0  0  0  0  0  0  0  0
   36.8320   31.5170   40.3030 H   0  0  0  0  0  0  0  0  0  0  0  0
   35.8640   31.2590   41.8730 H   0  0  0  0  0  0  0  0  0  0  0  0
   37.9700   30.3930   42.4390 H   0  0  0  0  0  0  0  0  0  0  0  0
   39.1820   32.2590   41.2500 Cl  0  0  0  0  0  0  0  0  0  0  0  0
   39.3120   30.7910   40.2790 C   0  0  0  0  0  0  0  0  0  0  0  0
   38.4720   29.6950   40.5100 C   0  0  0  0  0  0  0  0  0  0  0  0
   38.7040   28.6330   39.6680 C   0  0  0  0  0  0  0  0  0  0  0  0
   38.0780   27.7780   39.8250 H   0  0  0  0  0  0  0  0  0  0  0  0
   39.6700   28.6420   38.6880 C   0  0  0  0  0  3  0  0  0  0  0  0
   40.4780   29.7410   38.4900 C   0  0  0  0  0  0  0  0  0  0  0  0
   41.6680   29.6360   37.2160 Cl  0  0  0  0  0  0  0  0  0  0  0  0
   40.2880   30.8340   39.3090 C   0  0  0  0  0  0  0  0  0  0  0  0
   40.9260   31.6900   39.1460 H   0  0  0  0  0  0  0  0  0  0  0  0
   36.8550   27.9150   42.9460 C   0  0  0  0  0  0  0  0  0  0  0  0
   36.8540   28.4000   43.9590 H   0  0  0  0  0  0  0  0  0  0  0  0
   35.8820   27.3240   43.0050 H   0  0  0  0  0  0  0  0  0  0  0  0
   39.9830   25.9160   43.6140 C   0  0  0  0  0  0  0  0  0  0  0  0
   39.1040   27.0290   43.6460 C   0  0  0  0  0  0  0  0  0  0  0  0
   37.8910   26.8890   42.9760 C   0  0  0  0  0  0  0  0  0  0  0  0
   37.6160   25.7290   42.3420 N   0  0  0  0  0  0  0  0  0  0  0  0
   38.4890   24.6620   42.3270 C   0  0  0  0  0  0  0  0  0  0  0  0
   39.6650   24.7710   42.9660 N   0  0  0  0  0  0  0  0  0  0  0  0
   40.9060   26.0470   44.1350 H   0  0  0  0  0  0  0  0  0  0  0  0
   39.3260   27.9400   44.1430 H   0  0  0  0  0  0  0  0  0  0  0  0
   38.1510   23.7910   41.7850 H   0  0  0  0  0  0  0  0  0  0  0  0
  1 21  1  0  0  0  0
  2  1  1  0  0  0  0
  3  2  2  0  0  0  0
  3  4  1  0  0  0  0
  4  5  1  0  0  0  0
  4  9  1  0  0  0  0
  5  1  1  0  0  0  0
  5 10  1  1  0  0  0
  6  2  1  0  0  0  0
  7  3  1  0  0  0  0
  8  4  1  0  0  0  0
 12 13  1  0  0  0  0
 12 11  1  0  0  0  0
 13  5  1  0  0  0  0
 14 15  1  0  0  0  0
 14 13  2  0  0  0  0
 16 14  1  0  0  0  0
 17 16  2  0  0  0  0
 17 19  1  0  0  0  0
 18 17  1  0  0  0  0
 19 12  2  0  0  0  0
 20 19  1  0  0  0  0
 21 26  1  0  0  0  0
 21 23  1  0  0  0  0
 21 22  1  0  0  0  0
 24 25  1  0  0  0  0
 24 30  1  0  0  0  0
 25 31  1  0  0  0  0
 26 25  2  0  0  0  0
 27 26  1  0  0  0  0
 28 27  2  0  0  0  0
 28 29  1  0  0  0  0
 29 24  2  0  0  0  0
 32 28  1  0  0  0  0
M  END
>  <minimizedAffinity>
-4.92135382

$$$$

 OpenBabel03252504563D

 32 34  0  0  1  0  0  0  0  0999 V2000
   37.4520   29.9400   40.4010 N   0  0  0  0  0  0  0  0  0  0  0  0
   38.8630   30.0820   40.3170 C   0  0  0  0  0  0  0  0  0  0  0  0
   39.2920   29.8590   41.7450 C   0  0  0  0  0  0  0  0  0  0  0  0
   38.0610   29.5390   42.5710 C   0  0  0  0  0  0  0  0  0  0  0  0
   37.0720   29.1280   41.4530 C   0  0  2  0  0  0  0  0  0  0  0  0
   39.5850   30.2810   39.5860 H   0  0  0  0  0  0  0  0  0  0  0  0
   40.3320   29.8890   42.1060 H   0  0  0  0  0  0  0  0  0  0  0  0
   38.3130   28.6860   43.2220 H   0  0  0  0  0  0  0  0  0  0  0  0
   37.6970   30.4360   43.0600 H   0  0  0  0  0  0  0  0  0  0  0  0
   36.0740   29.2260   41.8740 H   0  0  0  0  0  0  0  0  0  0  0  0
   36.2580   27.3860   43.6790 Cl  0  0  0  0  0  0  0  0  0  0  0  0
   37.0040   26.8160   42.1850 C   0  0  0  0  0  0  0  0  0  0  0  0
   37.3660   27.7110   41.1710 C   0  0  0  0  0  0  0  0  0  0  0  0
   37.9340   27.1050   40.0750 C   0  0  0  0  0  0  0  0  0  0  0  0
   38.2190   27.7650   39.2810 H   0  0  0  0  0  0  0  0  0  0  0  0
   38.1300   25.7460   39.9800 C   0  0  0  0  0  3  0  0  0  0  0  0
   37.7610   24.8960   41.0000 C   0  0  0  0  0  0  0  0  0  0  0  0
   38.0600   23.1910   40.7650 Cl  0  0  0  0  0  0  0  0  0  0  0  0
   37.1850   25.4530   42.1230 C   0  0  0  0  0  0  0  0  0  0  0  0
   36.8990   24.7790   42.9160 H   0  0  0  0  0  0  0  0  0  0  0  0
   36.6420   30.6500   39.5750 C   0  0  0  0  0  0  0  0  0  0  0  0
   35.7320   31.1480   40.0070 H   0  0  0  0  0  0  0  0  0  0  0  0
   37.2210   31.5660   39.2190 H   0  0  0  0  0  0  0  0  0  0  0  0
   34.8070   28.6480   36.9560 C   0  0  0  0  0  0  0  0  0  0  0  0
   35.1120   29.1580   38.2450 C   0  0  0  0  0  0  0  0  0  0  0  0
   36.2150   30.0030   38.3380 C   0  0  0  0  0  0  0  0  0  0  0  0
   36.9250   30.2900   37.2260 N   0  0  0  0  0  0  0  0  0  0  0  0
   36.6060   29.7800   35.9860 C   0  0  0  0  0  0  0  0  0  0  0  0
   35.5470   28.9630   35.8680 N   0  0  0  0  0  0  0  0  0  0  0  0
   33.9570   28.0030   36.9090 H   0  0  0  0  0  0  0  0  0  0  0  0
   34.5520   28.9280   39.1160 H   0  0  0  0  0  0  0  0  0  0  0  0
   37.2530   30.0850   35.1770 H   0  0  0  0  0  0  0  0  0  0  0  0
  1  5  1  0  0  0  0
  2  1  1  0  0  0  0
  2  3  2  0  0  0  0
  3  7  1  0  0  0  0
  3  4  1  0  0  0  0
  4  9  1  0  0  0  0
  4  8  1  0  0  0  0
  5 10  1  1  0  0  0
  5  4  1  0  0  0  0
  6  2  1  0  0  0  0
 12 11  1  0  0  0  0
 13  5  1  0  0  0  0
 13 12  2  0  0  0  0
 14 13  1  0  0  0  0
 15 14  1  0  0  0  0
 16 14  2  0  0  0  0
 16 17  1  0  0  0  0
 17 19  2  0  0  0  0
 18 17  1  0  0  0  0
 19 12  1  0  0  0  0
 19 20  1  0  0  0  0
 21 22  1  0  0  0  0
 21  1  1  0  0  0  0
 23 21  1  0  0  0  0
 24 25  1  0  0  0  0
 25 26  2  0  0  0  0
 25 31  1  0  0  0  0
 26 21  1  0  0  0  0
 27 26  1  0  0  0  0
 28 27  2  0  0  0  0
 29 28  1  0  0  0  0
 29 24  2  0  0  0  0
 30 24  1  0  0  0  0
 32 28  1  0  0  0  0
M  END
>  <minimizedAffinity>
-4.90310526

$$$$

 OpenBabel03252504563D

 32 34  0  0  1  0  0  0  0  0999 V2000
   37.6130   28.3890   41.6150 N   0  0  0  0  0  0  0  0  0  0  0  0
   37.3950   28.9310   42.9100 C   0  0  0  0  0  0  0  0  0  0  0  0
   36.8960   27.7330   43.6780 C   0  0  0  0  0  0  0  0  0  0  0  0
   36.9110   26.5310   42.7540 C   0  0  0  0  0  0  0  0  0  0  0  0
   37.8810   27.0330   41.6560 C   0  0  2  0  0  0  0  0  0  0  0  0
   37.4890   29.8530   43.3960 H   0  0  0  0  0  0  0  0  0  0  0  0
   36.6060   27.7380   44.7410 H   0  0  0  0  0  0  0  0  0  0  0  0
   37.3420   25.6870   43.3180 H   0  0  0  0  0  0  0  0  0  0  0  0
   35.9280   26.3790   42.3230 H   0  0  0  0  0  0  0  0  0  0  0  0
   37.6920   26.4210   40.7770 H   0  0  0  0  0  0  0  0  0  0  0  0
   38.5670   24.1770   41.4960 Cl  0  0  0  0  0  0  0  0  0  0  0  0
   39.6360   25.4290   42.1320 C   0  0  0  0  0  0  0  0  0  0  0  0
   39.2350   26.7690   42.1770 C   0  0  0  0  0  0  0  0  0  0  0  0
   40.1840   27.6150   42.7000 C   0  0  0  0  0  0  0  0  0  0  0  0
   39.9050   28.6480   42.7430 H   0  0  0  0  0  0  0  0  0  0  0  0
   41.4170   27.1870   43.1390 C   0  0  0  0  0  3  0  0  0  0  0  0
   41.7770   25.8580   43.0790 C   0  0  0  0  0  0  0  0  0  0  0  0
   43.3670   25.4370   43.6670 Cl  0  0  0  0  0  0  0  0  0  0  0  0
   40.8600   24.9670   42.5620 C   0  0  0  0  0  0  0  0  0  0  0  0
   41.1520   23.9290   42.5190 H   0  0  0  0  0  0  0  0  0  0  0  0
   37.4410   29.1610   40.5120 C   0  0  0  0  0  0  0  0  0  0  0  0
   37.5350   28.6850   39.4990 H   0  0  0  0  0  0  0  0  0  0  0  0
   36.3490   29.4870   40.4800 H   0  0  0  0  0  0  0  0  0  0  0  0
   40.1300   31.7940   40.2520 C   0  0  0  0  0  0  0  0  0  0  0  0
   39.5690   30.4940   40.3460 C   0  0  0  0  0  0  0  0  0  0  0  0
   38.1830   30.4170   40.4520 C   0  0  0  0  0  0  0  0  0  0  0  0
   37.4550   31.5540   40.4620 N   0  0  0  0  0  0  0  0  0  0  0  0
   38.0260   32.8050   40.3700 C   0  0  0  0  0  0  0  0  0  0  0  0
   39.3610   32.9080   40.2660 N   0  0  0  0  0  0  0  0  0  0  0  0
   41.1940   31.8290   40.1720 H   0  0  0  0  0  0  0  0  0  0  0  0
   40.1460   29.6040   40.3400 H   0  0  0  0  0  0  0  0  0  0  0  0
   37.3340   33.6340   40.3900 H   0  0  0  0  0  0  0  0  0  0  0  0
  1  5  1  0  0  0  0
  1  2  1  0  0  0  0
  2  6  1  0  0  0  0
  2  3  2  0  0  0  0
  3  7  1  0  0  0  0
  4  8  1  0  0  0  0
  4  3  1  0  0  0  0
  5 10  1  6  0  0  0
  5 13  1  0  0  0  0
  5  4  1  0  0  0  0
  9  4  1  0  0  0  0
 11 12  1  0  0  0  0
 12 13  2  0  0  0  0
 12 19  1  0  0  0  0
 13 14  1  0  0  0  0
 14 15  1  0  0  0  0
 14 16  2  0  0  0  0
 17 16  1  0  0  0  0
 17 18  1  0  0  0  0
 19 17  2  0  0  0  0
 20 19  1  0  0  0  0
 21  1  1  0  0  0  0
 22 21  1  0  0  0  0
 23 21  1  0  0  0  0
 24 29  2  0  0  0  0
 24 25  1  0  0  0  0
 25 26  2  0  0  0  0
 26 27  1  0  0  0  0
 26 21  1  0  0  0  0
 28 32  1  0  0  0  0
 28 27  2  0  0  0  0
 29 28  1  0  0  0  0
 30 24  1  0  0  0  0
 31 25  1  0  0  0  0
M  END
>  <minimizedAffinity>
-4.86465788

$$$$
