
 OpenBabel03242523533D

 46 49  0  0  1  0  0  0  0  0999 V2000
   42.7830   34.4370   38.8730 C   0  0  1  0  0  0  0  0  0  0  0  0
   42.9780   35.2070   40.1700 C   0  0  1  0  0  0  0  0  0  0  0  0
   41.7040   35.5670   40.6620 O   0  0  0  0  0  0  0  0  0  0  0  0
   40.8030   35.8830   39.6420 C   0  0  0  0  0  0  0  0  0  0  0  0
   40.4150   34.6650   38.8270 C   0  0  2  0  0  0  0  0  0  0  0  0
   41.5530   33.6120   39.0570 C   0  0  1  0  0  0  0  0  0  0  0  0
   43.6860   33.8380   38.6320 H   0  0  0  0  0  0  0  0  0  0  0  0
   43.6270   36.0830   40.0640 H   0  0  0  0  0  0  0  0  0  0  0  0
   41.1690   36.7090   39.0010 H   0  0  0  0  0  0  0  0  0  0  0  0
   39.8960   36.2260   40.1580 H   0  0  0  0  0  0  0  0  0  0  0  0
   39.4520   34.2140   39.1400 H   0  0  0  0  0  0  0  0  0  0  0  0
   41.3210   33.4680   40.1620 H   0  0  0  0  0  0  0  0  0  0  0  0
   42.6350   35.3170   37.7890 O   0  0  0  0  0  0  0  0  0  0  0  0
   43.3180   36.0330   37.8360 H   0  0  0  0  0  0  0  0  0  0  0  0
   40.4620   34.9650   37.4770 O   0  0  0  0  0  0  0  0  0  0  0  0
   39.6560   35.4740   37.2330 H   0  0  0  0  0  0  0  0  0  0  0  0
   43.4360   34.2590   41.0970 O   0  0  0  0  0  0  0  0  0  0  0  0
   44.5680   34.3650   41.8020 C   0  0  0  0  0  0  0  0  0  0  0  0
   45.8100   34.4830   41.1600 C   0  0  0  0  0  0  0  0  0  0  0  0
   46.9540   34.5900   41.9300 C   0  0  0  0  0  0  0  0  0  0  0  0
   46.8410   34.5790   43.3070 N   0  0  0  0  0  0  0  0  0  0  0  0
   45.6270   34.4620   43.8960 C   0  0  0  0  0  0  0  0  0  0  0  0
   44.5010   34.3560   43.1440 N   0  0  0  0  0  0  0  0  0  0  0  0
   45.9060   34.4930   40.0730 H   0  0  0  0  0  0  0  0  0  0  0  0
   45.5850   34.4570   44.9750 H   0  0  0  0  0  0  0  0  0  0  0  0
   48.3130   34.6970   41.3100 C   0  0  0  0  0  0  0  0  0  0  0  0
   49.0560   36.0150   41.5150 C   0  0  0  0  0  0  0  0  0  0  0  0
   49.4910   34.6660   42.1180 C   0  0  0  0  0  0  0  0  0  0  0  0
   48.3380   34.2940   40.2630 H   0  0  0  0  0  0  0  0  0  0  0  0
   49.6890   36.3170   40.6590 H   0  0  0  0  0  0  0  0  0  0  0  0
   48.5970   36.7660   42.1730 H   0  0  0  0  0  0  0  0  0  0  0  0
   50.4620   34.2550   41.8160 H   0  0  0  0  0  0  0  0  0  0  0  0
   49.3600   34.6500   43.2310 H   0  0  0  0  0  0  0  0  0  0  0  0
   41.3520   32.6000   38.1970 O   0  0  0  0  0  0  0  0  0  0  0  0
   40.6530   31.4670   38.3040 C   0  0  0  0  0  0  0  0  0  0  0  0
   39.8450   31.0670   37.3230 O   0  0  0  0  0  0  0  0  0  0  0  0
   42.7570   29.2910   38.3700 Cl  0  0  0  0  0  0  0  0  0  0  0  0
   41.4520   29.3820   39.5510 C   0  0  0  0  0  0  0  0  0  0  0  0
   40.5640   30.4220   39.3910 C   0  0  0  0  0  0  0  0  0  0  0  0
   39.5810   30.4220   40.3470 C   0  0  0  0  0  0  0  0  0  0  0  0
   38.8080   31.1880   40.3480 H   0  0  0  0  0  0  0  0  0  0  0  0
   39.4960   29.4980   41.3380 C   0  0  0  0  0  3  0  0  0  0  0  0
   40.4150   28.4970   41.4290 C   0  0  0  0  0  0  0  0  0  0  0  0
   40.3020   27.3170   42.6990 Cl  0  0  0  0  0  0  0  0  0  0  0  0
   41.4430   28.4080   40.5170 C   0  0  0  0  0  0  0  0  0  0  0  0
   42.1870   27.6450   40.5440 H   0  0  0  0  0  0  0  0  0  0  0  0
  1  7  1  6  0  0  0
  1  6  1  0  0  0  0
  1  2  1  0  0  0  0
  2  8  1  6  0  0  0
  2  3  1  0  0  0  0
  2 17  1  0  0  0  0
  4 10  1  0  0  0  0
  4  3  1  0  0  0  0
  5  6  1  0  0  0  0
  5 11  1  1  0  0  0
  5  4  1  0  0  0  0
  6 12  1  1  0  0  0
  9  4  1  0  0  0  0
 13 14  1  0  0  0  0
 13  1  1  0  0  0  0
 15  5  1  0  0  0  0
 16 15  1  0  0  0  0
 17 18  1  0  0  0  0
 18 23  1  0  0  0  0
 19 18  2  0  0  0  0
 19 20  1  0  0  0  0
 20 21  2  0  0  0  0
 21 22  1  0  0  0  0
 22 25  1  0  0  0  0
 23 22  2  0  0  0  0
 24 19  1  0  0  0  0
 26 27  1  0  0  0  0
 26 20  1  0  0  0  0
 26 28  1  0  0  0  0
 27 28  1  0  0  0  0
 27 31  1  0  0  0  0
 28 33  1  0  0  0  0
 29 26  1  0  0  0  0
 30 27  1  0  0  0  0
 32 28  1  0  0  0  0
 34 35  1  0  0  0  0
 34  6  1  0  0  0  0
 35 39  1  0  0  0  0
 36 35  2  0  0  0  0
 37 38  1  0  0  0  0
 38 45  1  0  0  0  0
 39 38  2  0  0  0  0
 39 40  1  0  0  0  0
 40 41  1  0  0  0  0
 40 42  2  0  0  0  0
 42 43  1  0  0  0  0
 43 44  1  0  0  0  0
 45 46  1  0  0  0  0
 45 43  2  0  0  0  0
M  END
>  <minimizedAffinity>
-5.98808002

>  <minimizedRMSD>
1.64433098

$$$$
