
 OpenBabel03242520593D

 42 44  0  0  0  0  0  0  0  0999 V2000
   37.9010   28.0600   39.1040 C   0  0  0  0  0  0  0  0  0  0  0  0
   37.1630   27.4910   40.1820 C   0  0  0  0  0  0  0  0  0  0  0  0
   36.7900   28.2950   41.2470 C   0  0  0  0  0  0  0  0  0  0  0  0
   37.1520   29.5780   41.1950 N   0  0  0  0  0  0  0  0  0  0  0  0
   37.8510   30.1170   40.1770 C   0  0  0  0  0  0  0  0  0  0  0  0
   38.2270   29.3630   39.1300 N   0  0  0  0  0  0  0  0  0  0  0  0
   38.2430   27.5320   38.2270 H   0  0  0  0  0  0  0  0  0  0  0  0
   35.3500   27.2590   37.8900 Cl  0  0  0  0  0  0  0  0  0  0  0  0
   36.0470   25.9470   38.8560 C   0  0  0  0  0  0  0  0  0  0  0  0
   36.9220   26.0810   39.9430 C   0  0  0  0  0  0  0  0  0  0  0  0
   37.3490   24.9330   40.5570 C   0  0  0  0  0  0  0  0  0  0  0  0
   38.0210   25.1850   41.3820 H   0  0  0  0  0  0  0  0  0  0  0  0
   36.9350   23.6920   40.1250 C   0  0  0  0  0  3  0  0  0  0  0  0
   36.0750   23.5650   39.0560 C   0  0  0  0  0  0  0  0  0  0  0  0
   35.5960   21.9480   38.5700 Cl  0  0  0  0  0  0  0  0  0  0  0  0
   35.6240   24.6930   38.4130 C   0  0  0  0  0  0  0  0  0  0  0  0
   34.9620   24.5100   37.5960 H   0  0  0  0  0  0  0  0  0  0  0  0
   38.2160   31.5340   40.1990 C   0  0  0  0  0  3  0  0  0  0  0  0
   37.3770   32.4790   39.8390 C   0  0  0  0  0  3  0  0  0  0  0  0
   37.7790   33.9090   39.8710 C   0  0  0  0  0  0  0  0  0  0  0  0
   37.9920   34.1640   38.8270 H   0  0  0  0  0  0  0  0  0  0  0  0
   36.8970   34.5440   40.1470 H   0  0  0  0  0  0  0  0  0  0  0  0
   40.0270   34.4450   40.2410 C   0  0  0  0  0  0  0  0  0  0  0  0
   40.4430   34.5400   39.0720 O   0  0  0  0  0  0  0  0  0  0  0  0
   38.7890   34.1640   40.8130 N   0  0  0  0  0  0  0  0  0  0  0  0
   38.6970   34.1610   41.8480 H   0  0  0  0  0  0  0  0  0  0  0  0
   42.1570   32.3040   40.6880 Cl  0  0  0  0  0  0  0  0  0  0  0  0
   42.3320   33.9200   41.2860 C   0  0  0  0  0  0  0  0  0  0  0  0
   41.2660   34.7270   40.9780 C   0  0  0  0  0  0  0  0  0  0  0  0
   41.2480   36.0680   41.3880 C   0  0  0  0  0  0  0  0  0  0  0  0
   42.3170   36.5900   42.1120 C   0  0  0  0  0  0  0  0  0  0  0  0
   43.3860   35.7550   42.4140 C   0  0  0  0  0  0  0  0  0  0  0  0
   44.7560   36.3490   43.3200 Cl  0  0  0  0  0  0  0  0  0  0  0  0
   43.3820   34.4470   42.0030 C   0  0  0  0  0  0  0  0  0  0  0  0
   40.4920   36.7940   41.2170 H   0  0  0  0  0  0  0  0  0  0  0  0
   42.3700   37.6120   42.4610 H   0  0  0  0  0  0  0  0  0  0  0  0
   44.1860   33.7440   42.2060 H   0  0  0  0  0  0  0  0  0  0  0  0
   36.0900   27.7990   42.2890 O   0  0  0  0  0  0  0  0  0  0  0  0
   36.7760   27.6680   43.5440 C   0  0  0  0  0  0  0  0  0  0  0  0
   35.8570   27.3530   44.5390 F   0  0  0  0  0  0  0  0  0  0  0  0
   37.6410   26.5810   43.3900 F   0  0  0  0  0  0  0  0  0  0  0  0
   37.5330   28.7900   43.8720 F   0  0  0  0  0  0  0  0  0  0  0  0
  1  6  2  0  0  0  0
  1  2  1  0  0  0  0
  2  3  2  0  0  0  0
  3 38  1  0  0  0  0
  4  3  1  0  0  0  0
  5 18  1  0  0  0  0
  5  4  2  0  0  0  0
  6  5  1  0  0  0  0
  7  1  1  0  0  0  0
  8  9  1  0  0  0  0
  9 10  1  0  0  0  0
 10  2  1  0  0  0  0
 10 11  2  0  0  0  0
 11 12  1  0  0  0  0
 13 11  1  0  0  0  0
 14 13  2  0  0  0  0
 15 14  1  0  0  0  0
 16  9  2  0  0  0  0
 16 14  1  0  0  0  0
 17 16  1  0  0  0  0
 19 20  1  0  0  0  0
 19 18  2  0  0  0  0
 20 22  1  0  0  0  0
 20 25  1  0  0  0  0
 21 20  1  0  0  0  0
 23 25  1  0  0  0  0
 23 29  1  0  0  0  0
 24 23  2  0  0  0  0
 25 26  1  0  0  0  0
 27 28  1  0  0  0  0
 28 34  1  0  0  0  0
 29 28  2  0  0  0  0
 29 30  1  0  0  0  0
 30 31  2  0  0  0  0
 31 32  1  0  0  0  0
 31 36  1  0  0  0  0
 32 33  1  0  0  0  0
 34 37  1  0  0  0  0
 34 32  2  0  0  0  0
 35 30  1  0  0  0  0
 38 39  1  0  0  0  0
 39 42  1  0  0  0  0
 39 40  1  0  0  0  0
 41 39  1  0  0  0  0
M  END
>  <minimizedAffinity>
-7.08569002

$$$$

 OpenBabel03242520593D

 42 44  0  0  0  0  0  0  0  0999 V2000
   37.1740   26.9740   38.6270 C   0  0  0  0  0  0  0  0  0  0  0  0
   37.0380   26.5260   39.9730 C   0  0  0  0  0  0  0  0  0  0  0  0
   36.8880   27.4600   40.9850 C   0  0  0  0  0  0  0  0  0  0  0  0
   36.8790   28.7450   40.6290 N   0  0  0  0  0  0  0  0  0  0  0  0
   37.0080   29.1700   39.3570 C   0  0  0  0  0  0  0  0  0  0  0  0
   37.1550   28.2880   38.3540 N   0  0  0  0  0  0  0  0  0  0  0  0
   37.2950   26.3390   37.7620 H   0  0  0  0  0  0  0  0  0  0  0  0
   39.8290   25.7240   40.3700 Cl  0  0  0  0  0  0  0  0  0  0  0  0
   38.4130   24.6720   40.2110 C   0  0  0  0  0  0  0  0  0  0  0  0
   37.0830   25.0780   40.0330 C   0  0  0  0  0  0  0  0  0  0  0  0
   36.1300   24.0990   39.9320 C   0  0  0  0  0  0  0  0  0  0  0  0
   35.1460   24.5560   39.7970 H   0  0  0  0  0  0  0  0  0  0  0  0
   36.4620   22.7640   40.0040 C   0  0  0  0  0  3  0  0  0  0  0  0
   37.7710   22.3680   40.1800 C   0  0  0  0  0  0  0  0  0  0  0  0
   38.1090   20.6480   40.2610 Cl  0  0  0  0  0  0  0  0  0  0  0  0
   38.7560   23.3200   40.2850 C   0  0  0  0  0  0  0  0  0  0  0  0
   39.7420   22.9330   40.4190 H   0  0  0  0  0  0  0  0  0  0  0  0
   36.9950   30.6010   39.0500 C   0  0  0  0  0  3  0  0  0  0  0  0
   37.1180   31.5180   39.9830 C   0  0  0  0  0  3  0  0  0  0  0  0
   37.0990   32.9640   39.6390 C   0  0  0  0  0  0  0  0  0  0  0  0
   37.1650   32.9930   38.5470 H   0  0  0  0  0  0  0  0  0  0  0  0
   36.0920   33.3960   39.8780 H   0  0  0  0  0  0  0  0  0  0  0  0
   39.3490   33.5630   39.8730 C   0  0  0  0  0  0  0  0  0  0  0  0
   39.8600   32.9410   38.9230 O   0  0  0  0  0  0  0  0  0  0  0  0
   38.0520   33.7010   40.3600 N   0  0  0  0  0  0  0  0  0  0  0  0
   37.8830   34.3100   41.1850 H   0  0  0  0  0  0  0  0  0  0  0  0
   39.6100   36.5960   40.1080 Cl  0  0  0  0  0  0  0  0  0  0  0  0
   40.8620   35.5180   40.6300 C   0  0  0  0  0  0  0  0  0  0  0  0
   40.5480   34.1960   40.4390 C   0  0  0  0  0  0  0  0  0  0  0  0
   41.4530   33.1900   40.8090 C   0  0  0  0  0  0  0  0  0  0  0  0
   42.6800   33.5300   41.3740 C   0  0  0  0  0  0  0  0  0  0  0  0
   42.9770   34.8750   41.5580 C   0  0  0  0  0  0  0  0  0  0  0  0
   44.4980   35.3660   42.2620 Cl  0  0  0  0  0  0  0  0  0  0  0  0
   42.0770   35.8410   41.1900 C   0  0  0  0  0  0  0  0  0  0  0  0
   41.3350   32.1390   40.7160 H   0  0  0  0  0  0  0  0  0  0  0  0
   43.4240   32.8090   41.6810 H   0  0  0  0  0  0  0  0  0  0  0  0
   42.2480   36.9080   41.3070 H   0  0  0  0  0  0  0  0  0  0  0  0
   36.7570   27.0820   42.2750 O   0  0  0  0  0  0  0  0  0  0  0  0
   37.9060   27.2260   43.1260 C   0  0  0  0  0  0  0  0  0  0  0  0
   37.4950   27.6730   44.3780 F   0  0  0  0  0  0  0  0  0  0  0  0
   38.4300   25.9390   43.2730 F   0  0  0  0  0  0  0  0  0  0  0  0
   38.8910   28.0440   42.5800 F   0  0  0  0  0  0  0  0  0  0  0  0
  1  2  1  0  0  0  0
  2 10  1  0  0  0  0
  2  3  2  0  0  0  0
  3 38  1  0  0  0  0
  4  3  1  0  0  0  0
  5  4  2  0  0  0  0
  6  1  2  0  0  0  0
  6  5  1  0  0  0  0
  7  1  1  0  0  0  0
  9 16  1  0  0  0  0
  9  8  1  0  0  0  0
 10  9  2  0  0  0  0
 11 13  2  0  0  0  0
 11 10  1  0  0  0  0
 12 11  1  0  0  0  0
 13 14  1  0  0  0  0
 14 15  1  0  0  0  0
 14 16  2  0  0  0  0
 16 17  1  0  0  0  0
 18  5  1  0  0  0  0
 18 19  2  0  0  0  0
 20 22  1  0  0  0  0
 20 19  1  0  0  0  0
 20 25  1  0  0  0  0
 21 20  1  0  0  0  0
 23 25  1  0  0  0  0
 23 29  1  0  0  0  0
 24 23  2  0  0  0  0
 25 26  1  0  0  0  0
 27 28  1  0  0  0  0
 28 34  1  0  0  0  0
 29 28  2  0  0  0  0
 29 30  1  0  0  0  0
 30 31  2  0  0  0  0
 31 32  1  0  0  0  0
 31 36  1  0  0  0  0
 32 33  1  0  0  0  0
 34 37  1  0  0  0  0
 34 32  2  0  0  0  0
 35 30  1  0  0  0  0
 38 39  1  0  0  0  0
 39 41  1  0  0  0  0
 39 40  1  0  0  0  0
 42 39  1  0  0  0  0
M  END
>  <minimizedAffinity>
-6.87710094

$$$$

 OpenBabel03242520593D

 42 44  0  0  0  0  0  0  0  0999 V2000
   36.6790   30.1550   38.0430 C   0  0  0  0  0  0  0  0  0  0  0  0
   36.1780   29.1760   38.9490 C   0  0  0  0  0  0  0  0  0  0  0  0
   36.0850   29.4840   40.2960 C   0  0  0  0  0  0  0  0  0  0  0  0
   36.4780   30.7030   40.6690 N   0  0  0  0  0  0  0  0  0  0  0  0
   36.9530   31.6290   39.8140 C   0  0  0  0  0  0  0  0  0  0  0  0
   37.0550   31.3600   38.5010 N   0  0  0  0  0  0  0  0  0  0  0  0
   36.7950   30.0260   36.9770 H   0  0  0  0  0  0  0  0  0  0  0  0
   38.5950   27.5310   38.7470 Cl  0  0  0  0  0  0  0  0  0  0  0  0
   36.9790   27.1610   38.1220 C   0  0  0  0  0  0  0  0  0  0  0  0
   35.8330   27.9590   38.2400 C   0  0  0  0  0  0  0  0  0  0  0  0
   34.6720   27.4870   37.6820 C   0  0  0  0  0  0  0  0  0  0  0  0
   33.8660   28.2070   37.8490 H   0  0  0  0  0  0  0  0  0  0  0  0
   34.6320   26.2750   37.0310 C   0  0  0  0  0  3  0  0  0  0  0  0
   35.7610   25.4930   36.9170 C   0  0  0  0  0  0  0  0  0  0  0  0
   35.6230   23.9620   36.0710 Cl  0  0  0  0  0  0  0  0  0  0  0  0
   36.9440   25.9310   37.4630 C   0  0  0  0  0  0  0  0  0  0  0  0
   37.7710   25.2690   37.3320 H   0  0  0  0  0  0  0  0  0  0  0  0
   37.3710   32.9430   40.3040 C   0  0  0  0  0  3  0  0  0  0  0  0
   38.0240   33.7970   39.5480 C   0  0  0  0  0  3  0  0  0  0  0  0
   38.4370   35.1240   40.0760 C   0  0  0  0  0  0  0  0  0  0  0  0
   38.6090   35.7380   39.1860 H   0  0  0  0  0  0  0  0  0  0  0  0
   37.5720   35.6090   40.5980 H   0  0  0  0  0  0  0  0  0  0  0  0
   40.7310   35.3600   40.4740 C   0  0  0  0  0  0  0  0  0  0  0  0
   41.1280   35.7390   39.3560 O   0  0  0  0  0  0  0  0  0  0  0  0
   39.4870   35.0300   41.0040 N   0  0  0  0  0  0  0  0  0  0  0  0
   39.4190   34.7500   42.0020 H   0  0  0  0  0  0  0  0  0  0  0  0
   42.8420   33.2190   39.9400 Cl  0  0  0  0  0  0  0  0  0  0  0  0
   43.0710   34.4700   41.1160 C   0  0  0  0  0  0  0  0  0  0  0  0
   42.0070   35.3310   41.2020 C   0  0  0  0  0  0  0  0  0  0  0  0
   42.0300   36.4030   42.1060 C   0  0  0  0  0  0  0  0  0  0  0  0
   43.1400   36.5980   42.9250 C   0  0  0  0  0  0  0  0  0  0  0  0
   44.2070   35.7140   42.8230 C   0  0  0  0  0  0  0  0  0  0  0  0
   45.6260   35.9060   43.8220 Cl  0  0  0  0  0  0  0  0  0  0  0  0
   44.1620   34.6730   41.9310 C   0  0  0  0  0  0  0  0  0  0  0  0
   41.2800   37.1360   42.2710 H   0  0  0  0  0  0  0  0  0  0  0  0
   43.2260   37.4010   43.6440 H   0  0  0  0  0  0  0  0  0  0  0  0
   44.9610   33.9480   41.8020 H   0  0  0  0  0  0  0  0  0  0  0  0
   35.6160   28.5870   41.1900 O   0  0  0  0  0  0  0  0  0  0  0  0
   36.5720   27.7210   41.8220 C   0  0  0  0  0  0  0  0  0  0  0  0
   37.8230   28.3300   41.8070 F   0  0  0  0  0  0  0  0  0  0  0  0
   36.1580   27.6080   43.1520 F   0  0  0  0  0  0  0  0  0  0  0  0
   36.6090   26.4470   41.2610 F   0  0  0  0  0  0  0  0  0  0  0  0
  1  6  2  0  0  0  0
  1  2  1  0  0  0  0
  2  3  2  0  0  0  0
  3  4  1  0  0  0  0
  3 38  1  0  0  0  0
  5 18  1  0  0  0  0
  5  4  2  0  0  0  0
  6  5  1  0  0  0  0
  7  1  1  0  0  0  0
  9 10  1  0  0  0  0
  9  8  1  0  0  0  0
 10  2  1  0  0  0  0
 11 12  1  0  0  0  0
 11 10  2  0  0  0  0
 13 11  1  0  0  0  0
 14 13  2  0  0  0  0
 14 16  1  0  0  0  0
 15 14  1  0  0  0  0
 16  9  2  0  0  0  0
 17 16  1  0  0  0  0
 19 20  1  0  0  0  0
 19 18  2  0  0  0  0
 20 22  1  0  0  0  0
 20 25  1  0  0  0  0
 21 20  1  0  0  0  0
 23 25  1  0  0  0  0
 23 29  1  0  0  0  0
 24 23  2  0  0  0  0
 25 26  1  0  0  0  0
 27 28  1  0  0  0  0
 28 29  2  0  0  0  0
 28 34  1  0  0  0  0
 29 30  1  0  0  0  0
 30 35  1  0  0  0  0
 30 31  2  0  0  0  0
 31 36  1  0  0  0  0
 32 31  1  0  0  0  0
 32 33  1  0  0  0  0
 34 32  2  0  0  0  0
 37 34  1  0  0  0  0
 38 39  1  0  0  0  0
 39 41  1  0  0  0  0
 40 39  1  0  0  0  0
 42 39  1  0  0  0  0
M  END
>  <minimizedAffinity>
-6.78917694

$$$$

 OpenBabel03242520593D

 42 44  0  0  0  0  0  0  0  0999 V2000
   39.0870   28.9580   40.1130 C   0  0  0  0  0  0  0  0  0  0  0  0
   38.8920   29.0780   41.5200 C   0  0  0  0  0  0  0  0  0  0  0  0
   37.6020   29.0820   42.0260 C   0  0  0  0  0  0  0  0  0  0  0  0
   36.6050   28.9720   41.1480 N   0  0  0  0  0  0  0  0  0  0  0  0
   36.7890   28.8590   39.8180 C   0  0  0  0  0  0  0  0  0  0  0  0
   38.0270   28.8510   39.2970 N   0  0  0  0  0  0  0  0  0  0  0  0
   40.0430   28.9420   39.6100 H   0  0  0  0  0  0  0  0  0  0  0  0
   39.6120   31.9140   41.6880 Cl  0  0  0  0  0  0  0  0  0  0  0  0
   40.5360   30.5250   42.2840 C   0  0  0  0  0  0  0  0  0  0  0  0
   40.1670   29.1760   42.2030 C   0  0  0  0  0  0  0  0  0  0  0  0
   41.0300   28.2500   42.7300 C   0  0  0  0  0  0  0  0  0  0  0  0
   40.6180   27.2470   42.5980 H   0  0  0  0  0  0  0  0  0  0  0  0
   42.2160   28.6290   43.3180 C   0  0  0  0  0  3  0  0  0  0  0  0
   42.5760   29.9570   43.3970 C   0  0  0  0  0  0  0  0  0  0  0  0
   44.1040   30.3550   44.1620 Cl  0  0  0  0  0  0  0  0  0  0  0  0
   41.7370   30.9160   42.8790 C   0  0  0  0  0  0  0  0  0  0  0  0
   42.0870   31.9190   42.9790 H   0  0  0  0  0  0  0  0  0  0  0  0
   35.6390   28.7490   38.9190 C   0  0  0  0  0  3  0  0  0  0  0  0
   35.4620   27.7100   38.1330 C   0  0  0  0  0  3  0  0  0  0  0  0
   34.2850   27.6290   37.2290 C   0  0  0  0  0  0  0  0  0  0  0  0
   34.6680   27.1730   36.3100 H   0  0  0  0  0  0  0  0  0  0  0  0
   33.5490   26.8860   37.6330 H   0  0  0  0  0  0  0  0  0  0  0  0
   32.3460   28.7460   36.5450 C   0  0  0  0  0  0  0  0  0  0  0  0
   31.6550   27.7930   36.1380 O   0  0  0  0  0  0  0  0  0  0  0  0
   33.6150   28.8570   37.1060 N   0  0  0  0  0  0  0  0  0  0  0  0
   33.9670   29.7940   37.3830 H   0  0  0  0  0  0  0  0  0  0  0  0
   30.6540   30.0090   38.7510 Cl  0  0  0  0  0  0  0  0  0  0  0  0
   30.5920   30.5590   37.1090 C   0  0  0  0  0  0  0  0  0  0  0  0
   31.4290   29.8610   36.2750 C   0  0  0  0  0  0  0  0  0  0  0  0
   31.5010   30.1800   34.9110 C   0  0  0  0  0  0  0  0  0  0  0  0
   30.7200   31.2110   34.3950 C   0  0  0  0  0  0  0  0  0  0  0  0
   29.8790   31.9050   35.2570 C   0  0  0  0  0  0  0  0  0  0  0  0
   28.8750   33.2080   34.6710 Cl  0  0  0  0  0  0  0  0  0  0  0  0
   29.8260   31.5760   36.5870 C   0  0  0  0  0  0  0  0  0  0  0  0
   32.1010   29.7230   34.1640 H   0  0  0  0  0  0  0  0  0  0  0  0
   30.7240   31.5110   33.3560 H   0  0  0  0  0  0  0  0  0  0  0  0
   29.1910   32.0790   37.3120 H   0  0  0  0  0  0  0  0  0  0  0  0
   37.3690   29.1940   43.3520 O   0  0  0  0  0  0  0  0  0  0  0  0
   37.1140   27.9840   44.0820 C   0  0  0  0  0  0  0  0  0  0  0  0
   38.2990   27.2680   44.2130 F   0  0  0  0  0  0  0  0  0  0  0  0
   36.7070   28.3910   45.3560 F   0  0  0  0  0  0  0  0  0  0  0  0
   36.1000   27.2120   43.5220 F   0  0  0  0  0  0  0  0  0  0  0  0
  1  2  1  0  0  0  0
  2  3  2  0  0  0  0
  2 10  1  0  0  0  0
  3 38  1  0  0  0  0
  4  3  1  0  0  0  0
  5  4  2  0  0  0  0
  6  5  1  0  0  0  0
  6  1  2  0  0  0  0
  7  1  1  0  0  0  0
  8  9  1  0  0  0  0
  9 16  1  0  0  0  0
 10  9  2  0  0  0  0
 10 11  1  0  0  0  0
 11 13  2  0  0  0  0
 12 11  1  0  0  0  0
 13 14  1  0  0  0  0
 14 15  1  0  0  0  0
 16 17  1  0  0  0  0
 16 14  2  0  0  0  0
 18  5  1  0  0  0  0
 19 18  2  0  0  0  0
 20 22  1  0  0  0  0
 20 19  1  0  0  0  0
 21 20  1  0  0  0  0
 23 25  1  0  0  0  0
 24 23  2  0  0  0  0
 25 20  1  0  0  0  0
 25 26  1  0  0  0  0
 28 27  1  0  0  0  0
 29 23  1  0  0  0  0
 29 28  2  0  0  0  0
 30 29  1  0  0  0  0
 31 30  2  0  0  0  0
 31 32  1  0  0  0  0
 32 34  2  0  0  0  0
 33 32  1  0  0  0  0
 34 28  1  0  0  0  0
 34 37  1  0  0  0  0
 35 30  1  0  0  0  0
 36 31  1  0  0  0  0
 38 39  1  0  0  0  0
 39 40  1  0  0  0  0
 39 41  1  0  0  0  0
 42 39  1  0  0  0  0
M  END
>  <minimizedAffinity>
-6.74009514

$$$$

 OpenBabel03242520593D

 42 44  0  0  0  0  0  0  0  0999 V2000
   39.3800   30.7430   42.3160 C   0  0  0  0  0  0  0  0  0  0  0  0
   39.0400   31.0260   40.9610 C   0  0  0  0  0  0  0  0  0  0  0  0
   38.5870   29.9990   40.1480 C   0  0  0  0  0  0  0  0  0  0  0  0
   38.4950   28.7870   40.6960 N   0  0  0  0  0  0  0  0  0  0  0  0
   38.8160   28.5190   41.9770 C   0  0  0  0  0  0  0  0  0  0  0  0
   39.2580   29.4930   42.7890 N   0  0  0  0  0  0  0  0  0  0  0  0
   39.7410   31.4610   43.0370 H   0  0  0  0  0  0  0  0  0  0  0  0
   41.7850   31.3590   39.9910 Cl  0  0  0  0  0  0  0  0  0  0  0  0
   40.5560   32.6160   40.2140 C   0  0  0  0  0  0  0  0  0  0  0  0
   39.2430   32.4320   40.6690 C   0  0  0  0  0  0  0  0  0  0  0  0
   38.4470   33.5420   40.7710 C   0  0  0  0  0  0  0  0  0  0  0  0
   37.4580   33.2530   41.1360 H   0  0  0  0  0  0  0  0  0  0  0  0
   38.9150   34.7930   40.4380 C   0  0  0  0  0  3  0  0  0  0  0  0
   40.2070   34.9710   39.9900 C   0  0  0  0  0  0  0  0  0  0  0  0
   40.7260   36.5980   39.5880 Cl  0  0  0  0  0  0  0  0  0  0  0  0
   41.0370   33.8820   39.8750 C   0  0  0  0  0  0  0  0  0  0  0  0
   42.0200   34.1020   39.5220 H   0  0  0  0  0  0  0  0  0  0  0  0
   38.6940   27.1570   42.5010 C   0  0  0  0  0  3  0  0  0  0  0  0
   39.6980   26.3090   42.4860 C   0  0  0  0  0  3  0  0  0  0  0  0
   39.5420   24.9320   43.0240 C   0  0  0  0  0  0  0  0  0  0  0  0
   40.5320   24.4770   42.9200 H   0  0  0  0  0  0  0  0  0  0  0  0
   39.3600   24.9760   44.1290 H   0  0  0  0  0  0  0  0  0  0  0  0
   38.6620   23.8990   41.1170 C   0  0  0  0  0  0  0  0  0  0  0  0
   39.6040   24.0390   40.3160 O   0  0  0  0  0  0  0  0  0  0  0  0
   38.4580   24.2500   42.4490 N   0  0  0  0  0  0  0  0  0  0  0  0
   37.5600   23.9970   42.9080 H   0  0  0  0  0  0  0  0  0  0  0  0
   36.3670   25.3740   39.7460 Cl  0  0  0  0  0  0  0  0  0  0  0  0
   36.6110   23.6690   39.5610 C   0  0  0  0  0  0  0  0  0  0  0  0
   37.6960   23.2010   40.2580 C   0  0  0  0  0  0  0  0  0  0  0  0
   38.0360   21.8410   40.2160 C   0  0  0  0  0  0  0  0  0  0  0  0
   37.2690   20.9540   39.4640 C   0  0  0  0  0  0  0  0  0  0  0  0
   36.1730   21.4490   38.7660 C   0  0  0  0  0  0  0  0  0  0  0  0
   35.1720   20.3890   37.8060 Cl  0  0  0  0  0  0  0  0  0  0  0  0
   35.8600   22.7830   38.8220 C   0  0  0  0  0  0  0  0  0  0  0  0
   38.8430   21.3530   40.7030 H   0  0  0  0  0  0  0  0  0  0  0  0
   37.4710   19.8960   39.3860 H   0  0  0  0  0  0  0  0  0  0  0  0
   35.0190   23.2320   38.3010 H   0  0  0  0  0  0  0  0  0  0  0  0
   38.2540   30.2200   38.8590 O   0  0  0  0  0  0  0  0  0  0  0  0
   36.9720   30.8160   38.5990 C   0  0  0  0  0  0  0  0  0  0  0  0
   37.1560   32.0840   38.0590 F   0  0  0  0  0  0  0  0  0  0  0  0
   36.3720   30.0110   37.6270 F   0  0  0  0  0  0  0  0  0  0  0  0
   36.1460   30.8440   39.7200 F   0  0  0  0  0  0  0  0  0  0  0  0
  1  6  1  0  0  0  0
  1  7  1  0  0  0  0
  2  1  2  0  0  0  0
  3  4  2  0  0  0  0
  3  2  1  0  0  0  0
  4  5  1  0  0  0  0
  5 18  1  0  0  0  0
  5  6  2  0  0  0  0
  8  9  1  0  0  0  0
  9 10  1  0  0  0  0
 10 11  2  0  0  0  0
 10  2  1  0  0  0  0
 11 12  1  0  0  0  0
 13 11  1  0  0  0  0
 14 13  2  0  0  0  0
 15 14  1  0  0  0  0
 16 14  1  0  0  0  0
 16  9  2  0  0  0  0
 17 16  1  0  0  0  0
 19 18  2  0  0  0  0
 19 20  1  0  0  0  0
 20 22  1  0  0  0  0
 21 20  1  0  0  0  0
 23 25  1  0  0  0  0
 24 23  2  0  0  0  0
 25 26  1  0  0  0  0
 25 20  1  0  0  0  0
 28 27  1  0  0  0  0
 28 29  1  0  0  0  0
 29 23  1  0  0  0  0
 30 29  2  0  0  0  0
 30 35  1  0  0  0  0
 31 30  1  0  0  0  0
 32 34  1  0  0  0  0
 32 31  2  0  0  0  0
 33 32  1  0  0  0  0
 34 28  2  0  0  0  0
 36 31  1  0  0  0  0
 37 34  1  0  0  0  0
 38  3  1  0  0  0  0
 39 38  1  0  0  0  0
 39 42  1  0  0  0  0
 40 39  1  0  0  0  0
 41 39  1  0  0  0  0
M  END
>  <minimizedAffinity>
-6.36249208

$$$$

 OpenBabel03242520593D

 42 44  0  0  0  0  0  0  0  0999 V2000
   38.3040   31.2260   37.9090 C   0  0  0  0  0  0  0  0  0  0  0  0
   38.2630   31.3190   39.3310 C   0  0  0  0  0  0  0  0  0  0  0  0
   37.3000   30.6100   40.0280 C   0  0  0  0  0  0  0  0  0  0  0  0
   36.4540   29.8680   39.3120 N   0  0  0  0  0  0  0  0  0  0  0  0
   36.4920   29.7790   37.9680 C   0  0  0  0  0  0  0  0  0  0  0  0
   37.4140   30.4550   37.2630 N   0  0  0  0  0  0  0  0  0  0  0  0
   39.0080   31.7310   37.2650 H   0  0  0  0  0  0  0  0  0  0  0  0
   37.1680   34.0340   39.4860 Cl  0  0  0  0  0  0  0  0  0  0  0  0
   38.8120   33.5050   39.8820 C   0  0  0  0  0  0  0  0  0  0  0  0
   39.3120   32.1980   39.8110 C   0  0  0  0  0  0  0  0  0  0  0  0
   40.6210   32.0000   40.1650 C   0  0  0  0  0  0  0  0  0  0  0  0
   40.8740   30.9420   40.0630 H   0  0  0  0  0  0  0  0  0  0  0  0
   41.4180   33.0450   40.5760 C   0  0  0  0  0  3  0  0  0  0  0  0
   40.9230   34.3300   40.6450 C   0  0  0  0  0  0  0  0  0  0  0  0
   42.0060   35.6040   41.1790 Cl  0  0  0  0  0  0  0  0  0  0  0  0
   39.6150   34.5690   40.2980 C   0  0  0  0  0  0  0  0  0  0  0  0
   39.3090   35.5880   40.3780 H   0  0  0  0  0  0  0  0  0  0  0  0
   35.5210   28.9470   37.2540 C   0  0  0  0  0  3  0  0  0  0  0  0
   34.2370   28.9780   37.5300 C   0  0  0  0  0  3  0  0  0  0  0  0
   33.2770   28.1200   36.7880 C   0  0  0  0  0  0  0  0  0  0  0  0
   33.7330   27.1250   36.7870 H   0  0  0  0  0  0  0  0  0  0  0  0
   32.3340   28.0030   37.3850 H   0  0  0  0  0  0  0  0  0  0  0  0
   31.6080   29.1320   35.4960 C   0  0  0  0  0  0  0  0  0  0  0  0
   30.6770   29.1960   36.3200 O   0  0  0  0  0  0  0  0  0  0  0  0
   32.9180   28.6630   35.5440 N   0  0  0  0  0  0  0  0  0  0  0  0
   33.5160   28.7410   34.6970 H   0  0  0  0  0  0  0  0  0  0  0  0
   30.5330   27.4200   33.2080 Cl  0  0  0  0  0  0  0  0  0  0  0  0
   30.4120   29.1480   33.2050 C   0  0  0  0  0  0  0  0  0  0  0  0
   30.9550   29.7280   34.3240 C   0  0  0  0  0  0  0  0  0  0  0  0
   30.9390   31.1220   34.4810 C   0  0  0  0  0  0  0  0  0  0  0  0
   30.3710   31.9270   33.4970 C   0  0  0  0  0  0  0  0  0  0  0  0
   29.8280   31.3190   32.3710 C   0  0  0  0  0  0  0  0  0  0  0  0
   29.1010   32.2740   31.1020 Cl  0  0  0  0  0  0  0  0  0  0  0  0
   29.8540   29.9540   32.2390 C   0  0  0  0  0  0  0  0  0  0  0  0
   31.3200   31.6930   35.2900 H   0  0  0  0  0  0  0  0  0  0  0  0
   30.3240   33.0060   33.5500 H   0  0  0  0  0  0  0  0  0  0  0  0
   29.4470   29.4180   31.3860 H   0  0  0  0  0  0  0  0  0  0  0  0
   37.2230   30.6690   41.3750 O   0  0  0  0  0  0  0  0  0  0  0  0
   38.0770   29.7900   42.1250 C   0  0  0  0  0  0  0  0  0  0  0  0
   39.0430   30.5420   42.7870 F   0  0  0  0  0  0  0  0  0  0  0  0
   37.2550   29.1940   43.0860 F   0  0  0  0  0  0  0  0  0  0  0  0
   38.6460   28.7850   41.3470 F   0  0  0  0  0  0  0  0  0  0  0  0
  1  2  1  0  0  0  0
  2 10  1  0  0  0  0
  2  3  2  0  0  0  0
  3 38  1  0  0  0  0
  4  3  1  0  0  0  0
  5  4  2  0  0  0  0
  6  1  2  0  0  0  0
  6  5  1  0  0  0  0
  7  1  1  0  0  0  0
  8  9  1  0  0  0  0
  9 16  1  0  0  0  0
 10  9  2  0  0  0  0
 10 11  1  0  0  0  0
 11 13  2  0  0  0  0
 12 11  1  0  0  0  0
 13 14  1  0  0  0  0
 14 15  1  0  0  0  0
 16 17  1  0  0  0  0
 16 14  2  0  0  0  0
 18 19  2  0  0  0  0
 18  5  1  0  0  0  0
 20 22  1  0  0  0  0
 20 19  1  0  0  0  0
 21 20  1  0  0  0  0
 23 25  1  0  0  0  0
 23 24  2  0  0  0  0
 25 20  1  0  0  0  0
 26 25  1  0  0  0  0
 28 27  1  0  0  0  0
 28 29  1  0  0  0  0
 29 30  2  0  0  0  0
 29 23  1  0  0  0  0
 30 35  1  0  0  0  0
 31 36  1  0  0  0  0
 31 30  1  0  0  0  0
 32 31  2  0  0  0  0
 33 32  1  0  0  0  0
 34 32  1  0  0  0  0
 34 28  2  0  0  0  0
 37 34  1  0  0  0  0
 38 39  1  0  0  0  0
 39 40  1  0  0  0  0
 39 41  1  0  0  0  0
 42 39  1  0  0  0  0
M  END
>  <minimizedAffinity>
-6.21991491

$$$$

 OpenBabel03242520593D

 42 44  0  0  0  0  0  0  0  0999 V2000
   40.4120   27.5690   40.3920 C   0  0  0  0  0  0  0  0  0  0  0  0
   39.9050   27.7800   41.7070 C   0  0  0  0  0  0  0  0  0  0  0  0
   38.5400   27.9330   41.8900 C   0  0  0  0  0  0  0  0  0  0  0  0
   37.7710   27.8710   40.8020 N   0  0  0  0  0  0  0  0  0  0  0  0
   38.2500   27.6710   39.5580 C   0  0  0  0  0  0  0  0  0  0  0  0
   39.5680   27.5200   39.3490 N   0  0  0  0  0  0  0  0  0  0  0  0
   41.4520   27.4370   40.1330 H   0  0  0  0  0  0  0  0  0  0  0  0
   39.9530   25.1750   43.0490 Cl  0  0  0  0  0  0  0  0  0  0  0  0
   41.0210   26.5590   43.3340 C   0  0  0  0  0  0  0  0  0  0  0  0
   40.9870   27.7940   42.6720 C   0  0  0  0  0  0  0  0  0  0  0  0
   41.9080   28.7380   43.0450 C   0  0  0  0  0  0  0  0  0  0  0  0
   41.7670   29.6440   42.4500 H   0  0  0  0  0  0  0  0  0  0  0  0
   42.8340   28.4850   44.0330 C   0  0  0  0  0  3  0  0  0  0  0  0
   42.8640   27.2700   44.6820 C   0  0  0  0  0  0  0  0  0  0  0  0
   44.0750   27.0290   45.9290 Cl  0  0  0  0  0  0  0  0  0  0  0  0
   41.9570   26.2970   44.3370 C   0  0  0  0  0  0  0  0  0  0  0  0
   42.0460   25.3850   44.8850 H   0  0  0  0  0  0  0  0  0  0  0  0
   37.3390   27.6230   38.4140 C   0  0  0  0  0  3  0  0  0  0  0  0
   36.0990   27.2020   38.5240 C   0  0  0  0  0  3  0  0  0  0  0  0
   35.1980   27.1620   37.3420 C   0  0  0  0  0  0  0  0  0  0  0  0
   35.8150   26.7560   36.5330 H   0  0  0  0  0  0  0  0  0  0  0  0
   34.3950   26.3960   37.5030 H   0  0  0  0  0  0  0  0  0  0  0  0
   33.2800   28.2660   36.5800 C   0  0  0  0  0  0  0  0  0  0  0  0
   32.5560   27.3000   36.2780 O   0  0  0  0  0  0  0  0  0  0  0  0
   34.5620   28.3920   37.1090 N   0  0  0  0  0  0  0  0  0  0  0  0
   34.9460   29.3420   37.2880 H   0  0  0  0  0  0  0  0  0  0  0  0
   31.5050   29.6500   38.6430 Cl  0  0  0  0  0  0  0  0  0  0  0  0
   31.5260   30.1230   36.9760 C   0  0  0  0  0  0  0  0  0  0  0  0
   32.3910   29.3770   36.2160 C   0  0  0  0  0  0  0  0  0  0  0  0
   32.5310   29.6310   34.8430 C   0  0  0  0  0  0  0  0  0  0  0  0
   31.7880   30.6450   34.2430 C   0  0  0  0  0  0  0  0  0  0  0  0
   30.9180   31.3870   35.0320 C   0  0  0  0  0  0  0  0  0  0  0  0
   29.9590   32.6720   34.3390 Cl  0  0  0  0  0  0  0  0  0  0  0  0
   30.7980   31.1220   36.3720 C   0  0  0  0  0  0  0  0  0  0  0  0
   33.1590   29.1330   34.1470 H   0  0  0  0  0  0  0  0  0  0  0  0
   31.8440   30.8950   33.1930 H   0  0  0  0  0  0  0  0  0  0  0  0
   30.1370   31.6650   37.0420 H   0  0  0  0  0  0  0  0  0  0  0  0
   38.0150   28.1360   43.1170 O   0  0  0  0  0  0  0  0  0  0  0  0
   36.7280   27.5580   43.3890 C   0  0  0  0  0  0  0  0  0  0  0  0
   36.8250   26.1720   43.3260 F   0  0  0  0  0  0  0  0  0  0  0  0
   36.4260   27.9140   44.7060 F   0  0  0  0  0  0  0  0  0  0  0  0
   35.7230   28.0470   42.5590 F   0  0  0  0  0  0  0  0  0  0  0  0
  1  2  1  0  0  0  0
  2  3  2  0  0  0  0
  2 10  1  0  0  0  0
  3 38  1  0  0  0  0
  4  3  1  0  0  0  0
  5  4  2  0  0  0  0
  6  5  1  0  0  0  0
  6  1  2  0  0  0  0
  7  1  1  0  0  0  0
  8  9  1  0  0  0  0
  9 16  1  0  0  0  0
 10 11  1  0  0  0  0
 10  9  2  0  0  0  0
 11 13  2  0  0  0  0
 12 11  1  0  0  0  0
 13 14  1  0  0  0  0
 14 15  1  0  0  0  0
 16 14  2  0  0  0  0
 16 17  1  0  0  0  0
 18 19  2  0  0  0  0
 18  5  1  0  0  0  0
 20 22  1  0  0  0  0
 20 19  1  0  0  0  0
 21 20  1  0  0  0  0
 23 25  1  0  0  0  0
 24 23  2  0  0  0  0
 25 26  1  0  0  0  0
 25 20  1  0  0  0  0
 28 27  1  0  0  0  0
 29 23  1  0  0  0  0
 29 28  2  0  0  0  0
 30 29  1  0  0  0  0
 31 30  2  0  0  0  0
 31 32  1  0  0  0  0
 32 34  2  0  0  0  0
 33 32  1  0  0  0  0
 34 28  1  0  0  0  0
 34 37  1  0  0  0  0
 35 30  1  0  0  0  0
 36 31  1  0  0  0  0
 38 39  1  0  0  0  0
 39 41  1  0  0  0  0
 40 39  1  0  0  0  0
 42 39  1  0  0  0  0
M  END
>  <minimizedAffinity>
-5.98512363

$$$$

 OpenBabel03242520593D

 42 44  0  0  0  0  0  0  0  0999 V2000
   38.4030   30.0610   42.0120 C   0  0  0  0  0  0  0  0  0  0  0  0
   38.3800   30.3640   40.6200 C   0  0  0  0  0  0  0  0  0  0  0  0
   38.2400   29.3340   39.7040 C   0  0  0  0  0  0  0  0  0  0  0  0
   38.1320   28.0980   40.1930 N   0  0  0  0  0  0  0  0  0  0  0  0
   38.1540   27.8100   41.5090 C   0  0  0  0  0  0  0  0  0  0  0  0
   38.2880   28.7870   42.4210 N   0  0  0  0  0  0  0  0  0  0  0  0
   38.5060   30.7800   42.8110 H   0  0  0  0  0  0  0  0  0  0  0  0
   41.2350   31.0240   40.6860 Cl  0  0  0  0  0  0  0  0  0  0  0  0
   39.8730   32.1320   40.4490 C   0  0  0  0  0  0  0  0  0  0  0  0
   38.5140   31.7930   40.4100 C   0  0  0  0  0  0  0  0  0  0  0  0
   37.6130   32.8080   40.2150 C   0  0  0  0  0  0  0  0  0  0  0  0
   36.5990   32.4010   40.2070 H   0  0  0  0  0  0  0  0  0  0  0  0
   38.0250   34.1120   40.0610 C   0  0  0  0  0  3  0  0  0  0  0  0
   39.3630   34.4420   40.1000 C   0  0  0  0  0  0  0  0  0  0  0  0
   39.8040   36.1290   39.8970 Cl  0  0  0  0  0  0  0  0  0  0  0  0
   40.2980   33.4530   40.2950 C   0  0  0  0  0  0  0  0  0  0  0  0
   41.3100   33.7900   40.3120 H   0  0  0  0  0  0  0  0  0  0  0  0
   38.0370   26.4240   41.9650 C   0  0  0  0  0  3  0  0  0  0  0  0
   37.2130   25.5690   41.4020 C   0  0  0  0  0  3  0  0  0  0  0  0
   37.1160   24.1680   41.8890 C   0  0  0  0  0  0  0  0  0  0  0  0
   37.0350   24.2550   42.9770 H   0  0  0  0  0  0  0  0  0  0  0  0
   36.1400   23.7210   41.5630 H   0  0  0  0  0  0  0  0  0  0  0  0
   37.8370   22.7730   40.1540 C   0  0  0  0  0  0  0  0  0  0  0  0
   36.8610   22.8310   39.3830 O   0  0  0  0  0  0  0  0  0  0  0  0
   38.1390   23.3500   41.3840 N   0  0  0  0  0  0  0  0  0  0  0  0
   39.0580   23.1480   41.8270 H   0  0  0  0  0  0  0  0  0  0  0  0
   37.7040   19.7470   40.5370 Cl  0  0  0  0  0  0  0  0  0  0  0  0
   38.8040   20.4900   39.4240 C   0  0  0  0  0  0  0  0  0  0  0  0
   38.7050   21.8580   39.4010 C   0  0  0  0  0  0  0  0  0  0  0  0
   39.5240   22.6160   38.5520 C   0  0  0  0  0  0  0  0  0  0  0  0
   40.4470   21.9800   37.7240 C   0  0  0  0  0  0  0  0  0  0  0  0
   40.5310   20.5940   37.7640 C   0  0  0  0  0  0  0  0  0  0  0  0
   41.6680   19.7380   36.7520 Cl  0  0  0  0  0  0  0  0  0  0  0  0
   39.7190   19.8730   38.6020 C   0  0  0  0  0  0  0  0  0  0  0  0
   39.5480   23.6710   38.4370 H   0  0  0  0  0  0  0  0  0  0  0  0
   41.1100   22.5000   37.0470 H   0  0  0  0  0  0  0  0  0  0  0  0
   39.7350   18.7890   38.6800 H   0  0  0  0  0  0  0  0  0  0  0  0
   38.2130   29.5750   38.3760 O   0  0  0  0  0  0  0  0  0  0  0  0
   36.9400   29.8820   37.7850 C   0  0  0  0  0  0  0  0  0  0  0  0
   35.9690   29.9140   38.7800 F   0  0  0  0  0  0  0  0  0  0  0  0
   37.0700   31.1710   37.2600 F   0  0  0  0  0  0  0  0  0  0  0  0
   36.5960   29.0170   36.7500 F   0  0  0  0  0  0  0  0  0  0  0  0
  1  6  1  0  0  0  0
  1  7  1  0  0  0  0
  2  1  2  0  0  0  0
  3  4  2  0  0  0  0
  3  2  1  0  0  0  0
  4  5  1  0  0  0  0
  5 18  1  0  0  0  0
  5  6  2  0  0  0  0
  9  8  1  0  0  0  0
 10  9  1  0  0  0  0
 10  2  1  0  0  0  0
 11 10  2  0  0  0  0
 12 11  1  0  0  0  0
 13 14  2  0  0  0  0
 13 11  1  0  0  0  0
 14 16  1  0  0  0  0
 15 14  1  0  0  0  0
 16 17  1  0  0  0  0
 16  9  2  0  0  0  0
 19 20  1  0  0  0  0
 19 18  2  0  0  0  0
 20 21  1  0  0  0  0
 22 20  1  0  0  0  0
 23 25  1  0  0  0  0
 24 23  2  0  0  0  0
 25 26  1  0  0  0  0
 25 20  1  0  0  0  0
 28 27  1  0  0  0  0
 29 28  1  0  0  0  0
 29 23  1  0  0  0  0
 30 29  2  0  0  0  0
 31 32  2  0  0  0  0
 31 30  1  0  0  0  0
 32 34  1  0  0  0  0
 33 32  1  0  0  0  0
 34 37  1  0  0  0  0
 34 28  2  0  0  0  0
 35 30  1  0  0  0  0
 36 31  1  0  0  0  0
 38  3  1  0  0  0  0
 39 38  1  0  0  0  0
 39 40  1  0  0  0  0
 41 39  1  0  0  0  0
 42 39  1  0  0  0  0
M  END
>  <minimizedAffinity>
-5.96742535

$$$$

 OpenBabel03242520593D

 42 44  0  0  0  0  0  0  0  0999 V2000
   37.7740   29.1700   38.5530 C   0  0  0  0  0  0  0  0  0  0  0  0
   37.5440   29.6820   39.8630 C   0  0  0  0  0  0  0  0  0  0  0  0
   37.1230   28.8190   40.8620 C   0  0  0  0  0  0  0  0  0  0  0  0
   36.9560   27.5390   40.5290 N   0  0  0  0  0  0  0  0  0  0  0  0
   37.1720   27.0550   39.2910 C   0  0  0  0  0  0  0  0  0  0  0  0
   37.5810   27.8660   38.3010 N   0  0  0  0  0  0  0  0  0  0  0  0
   38.1020   29.7470   37.7010 H   0  0  0  0  0  0  0  0  0  0  0  0
   40.3560   30.0430   40.6100 Cl  0  0  0  0  0  0  0  0  0  0  0  0
   39.1550   31.3010   40.2740 C   0  0  0  0  0  0  0  0  0  0  0  0
   37.8160   31.1060   39.9070 C   0  0  0  0  0  0  0  0  0  0  0  0
   37.0490   32.2210   39.6900 C   0  0  0  0  0  0  0  0  0  0  0  0
   36.0350   31.9210   39.4130 H   0  0  0  0  0  0  0  0  0  0  0  0
   37.5720   33.4870   39.8260 C   0  0  0  0  0  3  0  0  0  0  0  0
   38.8890   33.6760   40.1870 C   0  0  0  0  0  0  0  0  0  0  0  0
   39.4750   35.3230   40.3390 Cl  0  0  0  0  0  0  0  0  0  0  0  0
   39.6900   32.5830   40.4130 C   0  0  0  0  0  0  0  0  0  0  0  0
   40.6950   32.8130   40.6890 H   0  0  0  0  0  0  0  0  0  0  0  0
   36.9580   25.6350   39.0030 C   0  0  0  0  0  3  0  0  0  0  0  0
   36.8080   24.7440   39.9570 C   0  0  0  0  0  3  0  0  0  0  0  0
   36.5940   23.3090   39.6330 C   0  0  0  0  0  0  0  0  0  0  0  0
   36.8580   23.2180   38.5750 H   0  0  0  0  0  0  0  0  0  0  0  0
   37.3520   22.6820   40.1730 H   0  0  0  0  0  0  0  0  0  0  0  0
   34.5210   22.4640   38.9510 C   0  0  0  0  0  0  0  0  0  0  0  0
   34.6810   22.4110   37.7180 O   0  0  0  0  0  0  0  0  0  0  0  0
   35.3240   22.8530   40.0200 N   0  0  0  0  0  0  0  0  0  0  0  0
   34.9490   22.7850   40.9870 H   0  0  0  0  0  0  0  0  0  0  0  0
   33.8920   19.4840   39.1730 Cl  0  0  0  0  0  0  0  0  0  0  0  0
   32.6500   20.6920   39.1570 C   0  0  0  0  0  0  0  0  0  0  0  0
   33.1420   21.9680   39.0520 C   0  0  0  0  0  0  0  0  0  0  0  0
   32.2690   23.0660   39.0260 C   0  0  0  0  0  0  0  0  0  0  0  0
   30.8940   22.8640   39.1070 C   0  0  0  0  0  0  0  0  0  0  0  0
   30.4170   21.5630   39.2120 C   0  0  0  0  0  0  0  0  0  0  0  0
   28.7030   21.2440   39.3160 Cl  0  0  0  0  0  0  0  0  0  0  0  0
   31.2890   20.5050   39.2360 C   0  0  0  0  0  0  0  0  0  0  0  0
   32.5170   24.0960   38.9490 H   0  0  0  0  0  0  0  0  0  0  0  0
   30.1640   23.6610   39.0910 H   0  0  0  0  0  0  0  0  0  0  0  0
   30.9810   19.4660   39.3170 H   0  0  0  0  0  0  0  0  0  0  0  0
   36.8930   29.2600   42.1180 O   0  0  0  0  0  0  0  0  0  0  0  0
   37.8640   28.9280   43.1230 C   0  0  0  0  0  0  0  0  0  0  0  0
   38.7090   27.9370   42.6350 F   0  0  0  0  0  0  0  0  0  0  0  0
   38.6190   30.0890   43.3160 F   0  0  0  0  0  0  0  0  0  0  0  0
   37.2900   28.5690   44.3400 F   0  0  0  0  0  0  0  0  0  0  0  0
  1  2  1  0  0  0  0
  2 10  1  0  0  0  0
  2  3  2  0  0  0  0
  3 38  1  0  0  0  0
  4  3  1  0  0  0  0
  5  4  2  0  0  0  0
  6  1  2  0  0  0  0
  6  5  1  0  0  0  0
  7  1  1  0  0  0  0
  9 16  1  0  0  0  0
  9  8  1  0  0  0  0
 10  9  2  0  0  0  0
 11 13  2  0  0  0  0
 11 10  1  0  0  0  0
 12 11  1  0  0  0  0
 13 14  1  0  0  0  0
 14 15  1  0  0  0  0
 14 16  2  0  0  0  0
 16 17  1  0  0  0  0
 18  5  1  0  0  0  0
 18 19  2  0  0  0  0
 20 19  1  0  0  0  0
 20 25  1  0  0  0  0
 20 22  1  0  0  0  0
 21 20  1  0  0  0  0
 23 29  1  0  0  0  0
 23 25  1  0  0  0  0
 24 23  2  0  0  0  0
 25 26  1  0  0  0  0
 28 27  1  0  0  0  0
 28 34  1  0  0  0  0
 29 28  2  0  0  0  0
 30 29  1  0  0  0  0
 30 31  2  0  0  0  0
 31 32  1  0  0  0  0
 32 34  2  0  0  0  0
 32 33  1  0  0  0  0
 34 37  1  0  0  0  0
 35 30  1  0  0  0  0
 36 31  1  0  0  0  0
 38 39  1  0  0  0  0
 39 41  1  0  0  0  0
 39 42  1  0  0  0  0
 40 39  1  0  0  0  0
M  END
>  <minimizedAffinity>
-5.93734789

$$$$
