
 OpenBabel03242513153D

 31 33  0  0  0  0  0  0  0  0999 V2000
   39.1080   27.5420   40.1360 Cl  0  0  0  0  0  0  0  0  0  0  0  0
   38.2430   27.7000   41.6810 C   0  0  0  0  0  0  0  0  0  0  0  0
   38.3470   28.8400   42.3930 C   0  0  0  0  0  0  0  0  0  0  0  0
   37.6430   28.9130   43.5650 C   0  0  0  0  0  0  0  0  0  0  0  0
   36.8630   27.8650   43.9970 C   0  0  0  0  0  0  0  0  0  0  0  0
   36.7650   26.6810   43.2450 C   0  0  0  0  0  0  0  0  0  0  0  0
   37.4750   26.6280   42.0770 C   0  0  0  0  0  0  0  0  0  0  0  0
   37.5790   29.7200   44.2590 H   0  0  0  0  0  0  0  0  0  0  0  0
   36.2660   27.8240   44.9120 H   0  0  0  0  0  0  0  0  0  0  0  0
   36.1750   25.8180   43.5180 H   0  0  0  0  0  0  0  0  0  0  0  0
   39.4340   24.6050   42.9530 Cl  0  0  0  0  0  0  0  0  0  0  0  0
   38.3170   24.4370   41.6240 C   0  0  0  0  0  0  0  0  0  0  0  0
   37.4110   25.4130   41.2440 C   0  0  0  0  0  0  0  0  0  0  0  0
   36.5570   25.2060   40.1790 C   0  0  0  0  0  0  0  0  0  0  0  0
   35.9040   26.0220   39.9750 H   0  0  0  0  0  0  0  0  0  0  0  0
   36.5960   24.0240   39.4770 C   0  0  0  0  0  3  0  0  0  0  0  0
   37.5030   23.0540   39.8610 C   0  0  0  0  0  0  0  0  0  0  0  0
   37.5440   21.5590   38.9670 Cl  0  0  0  0  0  0  0  0  0  0  0  0
   38.3800   23.2290   40.9330 C   0  0  0  0  0  0  0  0  0  0  0  0
   39.0670   22.4280   41.1830 H   0  0  0  0  0  0  0  0  0  0  0  0
   39.1890   29.9200   41.9220 C   0  0  0  0  0  0  0  0  0  0  0  0
   40.4270   29.8110   42.1650 O   0  0  0  0  0  0  0  0  0  0  0  0
   37.0480   31.9420   39.8070 C   0  0  0  0  0  0  0  0  0  0  0  0
   37.6020   33.2210   39.8370 C   0  0  0  0  0  0  0  0  0  0  0  0
   38.7500   33.3530   40.6190 C   0  0  0  0  0  0  0  0  0  0  0  0
   39.2390   32.2630   41.2800 N   0  0  0  0  0  0  0  0  0  0  0  0
   38.6630   31.0580   41.2150 C   0  0  0  0  0  0  0  0  0  0  0  0
   37.5650   30.9140   40.4710 N   0  0  0  0  0  0  0  0  0  0  0  0
   36.1470   31.7580   39.2160 H   0  0  0  0  0  0  0  0  0  0  0  0
   37.1510   34.0210   39.2860 H   0  0  0  0  0  0  0  0  0  0  0  0
   39.2200   34.3370   40.6730 H   0  0  0  0  0  0  0  0  0  0  0  0
  1  2  1  0  0  0  0
  2  7  2  0  0  0  0
  2  3  1  0  0  0  0
  3  4  2  0  0  0  0
  4  5  1  0  0  0  0
  4  8  1  0  0  0  0
  5  9  1  0  0  0  0
  6 10  1  0  0  0  0
  6  5  2  0  0  0  0
  7  6  1  0  0  0  0
 12 11  1  0  0  0  0
 13 12  1  0  0  0  0
 13  7  1  0  0  0  0
 14 13  2  0  0  0  0
 15 14  1  0  0  0  0
 16 17  2  0  0  0  0
 16 14  1  0  0  0  0
 17 19  1  0  0  0  0
 18 17  1  0  0  0  0
 19 20  1  0  0  0  0
 19 12  2  0  0  0  0
 21 22  2  0  0  0  0
 21  3  1  0  0  0  0
 23 24  2  0  0  0  0
 23 28  1  0  0  0  0
 24 25  1  0  0  0  0
 25 31  1  0  0  0  0
 25 26  2  0  0  0  0
 27 26  1  0  0  0  0
 27 21  1  0  0  0  0
 28 27  2  0  0  0  0
 29 23  1  0  0  0  0
 30 24  1  0  0  0  0
M  END
>  <minimizedAffinity>
-6.14320946

$$$$

 OpenBabel03242513153D

 31 33  0  0  0  0  0  0  0  0999 V2000
   39.1860   30.1010   42.5460 Cl  0  0  0  0  0  0  0  0  0  0  0  0
   37.7610   29.7920   41.5280 C   0  0  0  0  0  0  0  0  0  0  0  0
   36.9250   28.7800   41.8370 C   0  0  0  0  0  0  0  0  0  0  0  0
   35.8340   28.6020   41.0300 C   0  0  0  0  0  0  0  0  0  0  0  0
   35.6010   29.4210   39.9490 C   0  0  0  0  0  0  0  0  0  0  0  0
   36.4830   30.4710   39.6380 C   0  0  0  0  0  0  0  0  0  0  0  0
   37.5670   30.6330   40.4570 C   0  0  0  0  0  0  0  0  0  0  0  0
   35.0530   27.8800   41.1080 H   0  0  0  0  0  0  0  0  0  0  0  0
   34.7650   29.3620   39.2470 H   0  0  0  0  0  0  0  0  0  0  0  0
   36.3690   31.1540   38.8090 H   0  0  0  0  0  0  0  0  0  0  0  0
   39.7360   29.7400   38.6700 Cl  0  0  0  0  0  0  0  0  0  0  0  0
   39.5630   31.3390   39.3460 C   0  0  0  0  0  0  0  0  0  0  0  0
   38.5260   31.7190   40.1830 C   0  0  0  0  0  0  0  0  0  0  0  0
   38.4570   33.0050   40.6780 C   0  0  0  0  0  0  0  0  0  0  0  0
   37.6200   33.1870   41.3110 H   0  0  0  0  0  0  0  0  0  0  0  0
   39.4200   33.9310   40.3480 C   0  0  0  0  0  3  0  0  0  0  0  0
   40.4520   33.5440   39.5120 C   0  0  0  0  0  0  0  0  0  0  0  0
   41.6660   34.7240   39.0980 Cl  0  0  0  0  0  0  0  0  0  0  0  0
   40.5530   32.2530   38.9920 C   0  0  0  0  0  0  0  0  0  0  0  0
   41.3880   32.0150   38.3420 H   0  0  0  0  0  0  0  0  0  0  0  0
   37.2030   27.9240   42.9710 C   0  0  0  0  0  0  0  0  0  0  0  0
   36.6190   28.2230   44.0550 O   0  0  0  0  0  0  0  0  0  0  0  0
   40.0160   25.7300   43.6150 C   0  0  0  0  0  0  0  0  0  0  0  0
   39.8300   24.6350   42.7730 C   0  0  0  0  0  0  0  0  0  0  0  0
   38.6890   24.6890   41.9710 C   0  0  0  0  0  0  0  0  0  0  0  0
   37.8600   25.7700   42.0590 N   0  0  0  0  0  0  0  0  0  0  0  0
   38.0890   26.7930   42.8870 C   0  0  0  0  0  0  0  0  0  0  0  0
   39.1760   26.7580   43.6610 N   0  0  0  0  0  0  0  0  0  0  0  0
   40.8880   25.7610   44.2740 H   0  0  0  0  0  0  0  0  0  0  0  0
   40.5340   23.8260   42.7690 H   0  0  0  0  0  0  0  0  0  0  0  0
   38.5010   23.8530   41.2950 H   0  0  0  0  0  0  0  0  0  0  0  0
  2  3  1  0  0  0  0
  2  1  1  0  0  0  0
  3 21  1  0  0  0  0
  4  8  1  0  0  0  0
  4  3  2  0  0  0  0
  5  4  1  0  0  0  0
  6  5  2  0  0  0  0
  6  7  1  0  0  0  0
  7  2  2  0  0  0  0
  9  5  1  0  0  0  0
 10  6  1  0  0  0  0
 11 12  1  0  0  0  0
 12 13  1  0  0  0  0
 13  7  1  0  0  0  0
 13 14  2  0  0  0  0
 14 15  1  0  0  0  0
 16 14  1  0  0  0  0
 17 16  2  0  0  0  0
 18 17  1  0  0  0  0
 19 12  2  0  0  0  0
 19 17  1  0  0  0  0
 20 19  1  0  0  0  0
 21 22  2  0  0  0  0
 23 28  1  0  0  0  0
 23 29  1  0  0  0  0
 24 23  2  0  0  0  0
 25 26  2  0  0  0  0
 25 24  1  0  0  0  0
 26 27  1  0  0  0  0
 27 21  1  0  0  0  0
 27 28  2  0  0  0  0
 30 24  1  0  0  0  0
 31 25  1  0  0  0  0
M  END
>  <minimizedAffinity>
-6.02669096

$$$$

 OpenBabel03242513153D

 31 33  0  0  0  0  0  0  0  0999 V2000
   39.7820   27.8860   40.4220 Cl  0  0  0  0  0  0  0  0  0  0  0  0
   38.5990   27.8140   41.7470 C   0  0  0  0  0  0  0  0  0  0  0  0
   37.3020   28.0920   41.5020 C   0  0  0  0  0  0  0  0  0  0  0  0
   36.4330   28.0010   42.5550 C   0  0  0  0  0  0  0  0  0  0  0  0
   36.8660   27.6420   43.8110 C   0  0  0  0  0  0  0  0  0  0  0  0
   38.2210   27.3570   44.0530 C   0  0  0  0  0  0  0  0  0  0  0  0
   39.0740   27.4530   42.9870 C   0  0  0  0  0  0  0  0  0  0  0  0
   35.3790   28.1630   42.5710 H   0  0  0  0  0  0  0  0  0  0  0  0
   36.2560   27.5420   44.7130 H   0  0  0  0  0  0  0  0  0  0  0  0
   38.6360   27.0700   45.0080 H   0  0  0  0  0  0  0  0  0  0  0  0
   39.6200   24.5560   42.8940 Cl  0  0  0  0  0  0  0  0  0  0  0  0
   40.8060   25.8120   43.1400 C   0  0  0  0  0  0  0  0  0  0  0  0
   40.5070   27.1640   43.1770 C   0  0  0  0  0  0  0  0  0  0  0  0
   41.5020   28.1000   43.3770 C   0  0  0  0  0  0  0  0  0  0  0  0
   41.1600   29.1090   43.3870 H   0  0  0  0  0  0  0  0  0  0  0  0
   42.8080   27.7020   43.5430 C   0  0  0  0  0  3  0  0  0  0  0  0
   43.0990   26.3510   43.5050 C   0  0  0  0  0  0  0  0  0  0  0  0
   44.7570   25.8550   43.7160 Cl  0  0  0  0  0  0  0  0  0  0  0  0
   42.1190   25.3770   43.3050 C   0  0  0  0  0  0  0  0  0  0  0  0
   42.4150   24.3340   43.2860 H   0  0  0  0  0  0  0  0  0  0  0  0
   36.8780   28.4820   40.1740 C   0  0  0  0  0  0  0  0  0  0  0  0
   36.3520   27.5730   39.4640 O   0  0  0  0  0  0  0  0  0  0  0  0
   36.9900   32.1040   40.0750 C   0  0  0  0  0  0  0  0  0  0  0  0
   37.3370   32.4270   38.7650 C   0  0  0  0  0  0  0  0  0  0  0  0
   37.5290   31.3360   37.9150 C   0  0  0  0  0  0  0  0  0  0  0  0
   37.3710   30.0720   38.4040 N   0  0  0  0  0  0  0  0  0  0  0  0
   37.0370   29.8220   39.6740 C   0  0  0  0  0  0  0  0  0  0  0  0
   36.8490   30.8530   40.5000 N   0  0  0  0  0  0  0  0  0  0  0  0
   36.8210   32.9040   40.8020 H   0  0  0  0  0  0  0  0  0  0  0  0
   37.4400   33.4510   38.4670 H   0  0  0  0  0  0  0  0  0  0  0  0
   37.8030   31.5400   36.8780 H   0  0  0  0  0  0  0  0  0  0  0  0
  1  2  1  0  0  0  0
  2  7  1  0  0  0  0
  3  2  2  0  0  0  0
  3  4  1  0  0  0  0
  4  8  1  0  0  0  0
  4  5  2  0  0  0  0
  5  6  1  0  0  0  0
  5  9  1  0  0  0  0
  6 10  1  0  0  0  0
  7 13  1  0  0  0  0
  7  6  2  0  0  0  0
 11 12  1  0  0  0  0
 12 13  2  0  0  0  0
 12 19  1  0  0  0  0
 13 14  1  0  0  0  0
 14 15  1  0  0  0  0
 14 16  2  0  0  0  0
 17 16  1  0  0  0  0
 17 18  1  0  0  0  0
 19 17  2  0  0  0  0
 20 19  1  0  0  0  0
 21  3  1  0  0  0  0
 22 21  2  0  0  0  0
 23 28  1  0  0  0  0
 23 29  1  0  0  0  0
 24 23  2  0  0  0  0
 25 26  2  0  0  0  0
 25 24  1  0  0  0  0
 26 27  1  0  0  0  0
 27 21  1  0  0  0  0
 27 28  2  0  0  0  0
 30 24  1  0  0  0  0
 31 25  1  0  0  0  0
M  END
>  <minimizedAffinity>
-5.70794582

$$$$

 OpenBabel03242513153D

 31 33  0  0  0  0  0  0  0  0999 V2000
   38.6650   28.0920   39.5900 Cl  0  0  0  0  0  0  0  0  0  0  0  0
   37.9080   27.7610   41.1640 C   0  0  0  0  0  0  0  0  0  0  0  0
   37.5650   26.4980   41.4900 C   0  0  0  0  0  0  0  0  0  0  0  0
   37.0050   26.3000   42.7230 C   0  0  0  0  0  0  0  0  0  0  0  0
   36.7990   27.3470   43.5920 C   0  0  0  0  0  0  0  0  0  0  0  0
   37.1600   28.6590   43.2390 C   0  0  0  0  0  0  0  0  0  0  0  0
   37.7190   28.8360   42.0030 C   0  0  0  0  0  0  0  0  0  0  0  0
   36.6810   25.3900   43.1740 H   0  0  0  0  0  0  0  0  0  0  0  0
   36.3610   27.2940   44.5930 H   0  0  0  0  0  0  0  0  0  0  0  0
   37.0310   29.5300   43.8650 H   0  0  0  0  0  0  0  0  0  0  0  0
   35.5750   30.1760   40.4850 Cl  0  0  0  0  0  0  0  0  0  0  0  0
   37.1390   30.8530   40.8580 C   0  0  0  0  0  0  0  0  0  0  0  0
   38.1200   30.1890   41.5760 C   0  0  0  0  0  0  0  0  0  0  0  0
   39.3350   30.7930   41.8310 C   0  0  0  0  0  0  0  0  0  0  0  0
   40.0140   30.1920   42.3910 H   0  0  0  0  0  0  0  0  0  0  0  0
   39.5900   32.0650   41.3750 C   0  0  0  0  0  3  0  0  0  0  0  0
   38.6060   32.7220   40.6600 C   0  0  0  0  0  0  0  0  0  0  0  0
   38.9360   34.3340   40.0870 Cl  0  0  0  0  0  0  0  0  0  0  0  0
   37.3660   32.1430   40.3830 C   0  0  0  0  0  0  0  0  0  0  0  0
   36.6380   32.7130   39.8170 H   0  0  0  0  0  0  0  0  0  0  0  0
   37.7780   25.4190   40.5490 C   0  0  0  0  0  0  0  0  0  0  0  0
   38.9630   24.9810   40.4590 O   0  0  0  0  0  0  0  0  0  0  0  0
   35.1520   23.1820   39.4330 C   0  0  0  0  0  0  0  0  0  0  0  0
   34.6530   23.7540   38.2640 C   0  0  0  0  0  0  0  0  0  0  0  0
   35.2660   24.9470   37.8770 C   0  0  0  0  0  0  0  0  0  0  0  0
   36.2760   25.4580   38.6390 N   0  0  0  0  0  0  0  0  0  0  0  0
   36.7140   24.8650   39.7540 C   0  0  0  0  0  0  0  0  0  0  0  0
   36.1390   23.7230   40.1390 N   0  0  0  0  0  0  0  0  0  0  0  0
   34.7240   22.2460   39.8010 H   0  0  0  0  0  0  0  0  0  0  0  0
   33.8540   23.2830   37.7260 H   0  0  0  0  0  0  0  0  0  0  0  0
   34.9080   25.4320   36.9660 H   0  0  0  0  0  0  0  0  0  0  0  0
  1  2  1  0  0  0  0
  2  3  2  0  0  0  0
  2  7  1  0  0  0  0
  3  4  1  0  0  0  0
  4  8  1  0  0  0  0
  4  5  2  0  0  0  0
  5  9  1  0  0  0  0
  6  5  1  0  0  0  0
  6 10  1  0  0  0  0
  7  6  2  0  0  0  0
 11 12  1  0  0  0  0
 12 13  1  0  0  0  0
 13 14  2  0  0  0  0
 13  7  1  0  0  0  0
 14 15  1  0  0  0  0
 16 14  1  0  0  0  0
 17 16  2  0  0  0  0
 18 17  1  0  0  0  0
 19 17  1  0  0  0  0
 19 12  2  0  0  0  0
 20 19  1  0  0  0  0
 21  3  1  0  0  0  0
 22 21  2  0  0  0  0
 23 29  1  0  0  0  0
 23 28  1  0  0  0  0
 24 23  2  0  0  0  0
 25 24  1  0  0  0  0
 25 26  2  0  0  0  0
 26 27  1  0  0  0  0
 27 28  2  0  0  0  0
 27 21  1  0  0  0  0
 30 24  1  0  0  0  0
 31 25  1  0  0  0  0
M  END
>  <minimizedAffinity>
-5.69641304

$$$$

 OpenBabel03242513153D

 31 33  0  0  0  0  0  0  0  0999 V2000
   40.2750   30.9470   41.7030 Cl  0  0  0  0  0  0  0  0  0  0  0  0
   38.6990   31.0080   40.8840 C   0  0  0  0  0  0  0  0  0  0  0  0
   38.3340   32.1210   40.2150 C   0  0  0  0  0  0  0  0  0  0  0  0
   37.1180   32.1030   39.5870 C   0  0  0  0  0  0  0  0  0  0  0  0
   36.3020   30.9970   39.6380 C   0  0  0  0  0  0  0  0  0  0  0  0
   36.6940   29.8440   40.3410 C   0  0  0  0  0  0  0  0  0  0  0  0
   37.9130   29.8810   40.9610 C   0  0  0  0  0  0  0  0  0  0  0  0
   36.6560   32.8650   39.0010 H   0  0  0  0  0  0  0  0  0  0  0  0
   35.3190   30.8830   39.1740 H   0  0  0  0  0  0  0  0  0  0  0  0
   36.1100   28.9390   40.4260 H   0  0  0  0  0  0  0  0  0  0  0  0
   39.3630   27.9900   39.2230 Cl  0  0  0  0  0  0  0  0  0  0  0  0
   39.0670   27.7870   40.9300 C   0  0  0  0  0  0  0  0  0  0  0  0
   38.3800   28.7010   41.7120 C   0  0  0  0  0  0  0  0  0  0  0  0
   38.1850   28.4690   43.0590 C   0  0  0  0  0  0  0  0  0  0  0  0
   37.6450   29.2370   43.5620 H   0  0  0  0  0  0  0  0  0  0  0  0
   38.6710   27.3240   43.6450 C   0  0  0  0  0  3  0  0  0  0  0  0
   39.3560   26.4160   42.8590 C   0  0  0  0  0  0  0  0  0  0  0  0
   39.9690   24.9680   43.6100 Cl  0  0  0  0  0  0  0  0  0  0  0  0
   39.5720   26.6170   41.4940 C   0  0  0  0  0  0  0  0  0  0  0  0
   40.1170   25.8650   40.9350 H   0  0  0  0  0  0  0  0  0  0  0  0
   39.2060   33.2760   40.1920 C   0  0  0  0  0  0  0  0  0  0  0  0
   38.9870   34.1610   41.0720 O   0  0  0  0  0  0  0  0  0  0  0  0
   42.0750   34.6490   38.4520 C   0  0  0  0  0  0  0  0  0  0  0  0
   42.3330   33.7620   37.4080 C   0  0  0  0  0  0  0  0  0  0  0  0
   41.4690   32.6680   37.3320 C   0  0  0  0  0  0  0  0  0  0  0  0
   40.4660   32.5420   38.2480 N   0  0  0  0  0  0  0  0  0  0  0  0
   40.2670   33.4260   39.2310 C   0  0  0  0  0  0  0  0  0  0  0  0
   41.0830   34.4780   39.3190 N   0  0  0  0  0  0  0  0  0  0  0  0
   42.7080   35.5320   38.5780 H   0  0  0  0  0  0  0  0  0  0  0  0
   43.1450   33.9390   36.7320 H   0  0  0  0  0  0  0  0  0  0  0  0
   41.6320   31.9450   36.5300 H   0  0  0  0  0  0  0  0  0  0  0  0
  2  7  1  0  0  0  0
  2  1  1  0  0  0  0
  3  2  2  0  0  0  0
  4  5  2  0  0  0  0
  4  3  1  0  0  0  0
  5  6  1  0  0  0  0
  6 10  1  0  0  0  0
  6  7  2  0  0  0  0
  7 13  1  0  0  0  0
  8  4  1  0  0  0  0
  9  5  1  0  0  0  0
 11 12  1  0  0  0  0
 12 19  2  0  0  0  0
 12 13  1  0  0  0  0
 13 14  2  0  0  0  0
 14 15  1  0  0  0  0
 14 16  1  0  0  0  0
 17 18  1  0  0  0  0
 17 16  2  0  0  0  0
 19 17  1  0  0  0  0
 20 19  1  0  0  0  0
 21  3  1  0  0  0  0
 21 22  2  0  0  0  0
 23 29  1  0  0  0  0
 23 28  1  0  0  0  0
 24 23  2  0  0  0  0
 25 24  1  0  0  0  0
 25 26  2  0  0  0  0
 26 27  1  0  0  0  0
 27 28  2  0  0  0  0
 27 21  1  0  0  0  0
 30 24  1  0  0  0  0
 31 25  1  0  0  0  0
M  END
>  <minimizedAffinity>
-5.65414143

$$$$

 OpenBabel03242513153D

 31 33  0  0  0  0  0  0  0  0999 V2000
   40.1510   29.8220   41.2260 Cl  0  0  0  0  0  0  0  0  0  0  0  0
   38.4510   29.9850   40.7330 C   0  0  0  0  0  0  0  0  0  0  0  0
   37.4950   29.2960   41.3890 C   0  0  0  0  0  0  0  0  0  0  0  0
   36.2010   29.4760   40.9790 C   0  0  0  0  0  0  0  0  0  0  0  0
   35.8910   30.3230   39.9390 C   0  0  0  0  0  0  0  0  0  0  0  0
   36.8980   31.0320   39.2620 C   0  0  0  0  0  0  0  0  0  0  0  0
   38.1840   30.8400   39.6880 C   0  0  0  0  0  0  0  0  0  0  0  0
   35.3080   29.0430   41.3690 H   0  0  0  0  0  0  0  0  0  0  0  0
   34.8960   30.5330   39.5370 H   0  0  0  0  0  0  0  0  0  0  0  0
   36.7350   31.7120   38.4390 H   0  0  0  0  0  0  0  0  0  0  0  0
   38.7650   33.4120   41.0080 Cl  0  0  0  0  0  0  0  0  0  0  0  0
   39.5880   32.7740   39.6090 C   0  0  0  0  0  0  0  0  0  0  0  0
   39.2840   31.5580   39.0180 C   0  0  0  0  0  0  0  0  0  0  0  0
   39.9830   31.1190   37.9110 C   0  0  0  0  0  0  0  0  0  0  0  0
   39.6660   30.1730   37.5400 H   0  0  0  0  0  0  0  0  0  0  0  0
   40.9920   31.8860   37.3770 C   0  0  0  0  0  3  0  0  0  0  0  0
   41.2900   33.0980   37.9710 C   0  0  0  0  0  0  0  0  0  0  0  0
   42.5710   34.0620   37.2880 Cl  0  0  0  0  0  0  0  0  0  0  0  0
   40.6050   33.5730   39.0920 C   0  0  0  0  0  0  0  0  0  0  0  0
   40.8890   34.5320   39.5100 H   0  0  0  0  0  0  0  0  0  0  0  0
   37.8520   28.4010   42.4690 C   0  0  0  0  0  0  0  0  0  0  0  0
   37.9720   28.9260   43.6150 O   0  0  0  0  0  0  0  0  0  0  0  0
   37.1670   24.8580   42.1190 C   0  0  0  0  0  0  0  0  0  0  0  0
   38.4050   24.2650   41.8790 C   0  0  0  0  0  0  0  0  0  0  0  0
   39.4890   25.1440   41.8440 C   0  0  0  0  0  0  0  0  0  0  0  0
   39.2740   26.4780   42.0410 N   0  0  0  0  0  0  0  0  0  0  0  0
   38.0610   26.9910   42.2670 C   0  0  0  0  0  0  0  0  0  0  0  0
   37.0140   26.1650   42.3040 N   0  0  0  0  0  0  0  0  0  0  0  0
   36.2690   24.2350   42.1610 H   0  0  0  0  0  0  0  0  0  0  0  0
   38.4820   23.2060   41.7340 H   0  0  0  0  0  0  0  0  0  0  0  0
   40.4790   24.7250   41.6590 H   0  0  0  0  0  0  0  0  0  0  0  0
  2  1  1  0  0  0  0
  2  3  1  0  0  0  0
  3 21  1  0  0  0  0
  4  8  1  0  0  0  0
  4  3  2  0  0  0  0
  5  4  1  0  0  0  0
  6  7  1  0  0  0  0
  6  5  2  0  0  0  0
  7  2  2  0  0  0  0
  9  5  1  0  0  0  0
 10  6  1  0  0  0  0
 12 11  1  0  0  0  0
 13 12  2  0  0  0  0
 13  7  1  0  0  0  0
 14 13  1  0  0  0  0
 15 14  1  0  0  0  0
 16 14  2  0  0  0  0
 16 17  1  0  0  0  0
 17 19  2  0  0  0  0
 18 17  1  0  0  0  0
 19 20  1  0  0  0  0
 19 12  1  0  0  0  0
 21 22  2  0  0  0  0
 23 29  1  0  0  0  0
 23 28  1  0  0  0  0
 24 23  2  0  0  0  0
 25 24  1  0  0  0  0
 25 26  2  0  0  0  0
 26 27  1  0  0  0  0
 27 28  2  0  0  0  0
 27 21  1  0  0  0  0
 30 24  1  0  0  0  0
 31 25  1  0  0  0  0
M  END
>  <minimizedAffinity>
-5.64672661

$$$$

 OpenBabel03242513153D

 31 33  0  0  0  0  0  0  0  0999 V2000
   38.5350   28.2790   39.3650 Cl  0  0  0  0  0  0  0  0  0  0  0  0
   37.9190   27.9180   40.9940 C   0  0  0  0  0  0  0  0  0  0  0  0
   37.7030   26.6380   41.3590 C   0  0  0  0  0  0  0  0  0  0  0  0
   37.2480   26.4190   42.6310 C   0  0  0  0  0  0  0  0  0  0  0  0
   37.0210   27.4620   43.4990 C   0  0  0  0  0  0  0  0  0  0  0  0
   37.2490   28.7910   43.1050 C   0  0  0  0  0  0  0  0  0  0  0  0
   37.7040   28.9900   41.8300 C   0  0  0  0  0  0  0  0  0  0  0  0
   37.0310   25.4940   43.1150 H   0  0  0  0  0  0  0  0  0  0  0  0
   36.6600   27.3930   44.5290 H   0  0  0  0  0  0  0  0  0  0  0  0
   37.0940   29.6610   43.7270 H   0  0  0  0  0  0  0  0  0  0  0  0
   40.4310   29.8770   42.5170 Cl  0  0  0  0  0  0  0  0  0  0  0  0
   39.2360   30.8170   41.6620 C   0  0  0  0  0  0  0  0  0  0  0  0
   37.9630   30.3620   41.3580 C   0  0  0  0  0  0  0  0  0  0  0  0
   37.0720   31.1670   40.6770 C   0  0  0  0  0  0  0  0  0  0  0  0
   36.1240   30.7160   40.4960 H   0  0  0  0  0  0  0  0  0  0  0  0
   37.4360   32.4360   40.2900 C   0  0  0  0  0  3  0  0  0  0  0  0
   38.7070   32.8830   40.5970 C   0  0  0  0  0  0  0  0  0  0  0  0
   39.1600   34.4920   40.1020 Cl  0  0  0  0  0  0  0  0  0  0  0  0
   39.6350   32.0970   41.2830 C   0  0  0  0  0  0  0  0  0  0  0  0
   40.6160   32.5090   41.4920 H   0  0  0  0  0  0  0  0  0  0  0  0
   37.9360   25.5620   40.4190 C   0  0  0  0  0  0  0  0  0  0  0  0
   39.1360   25.1760   40.2960 O   0  0  0  0  0  0  0  0  0  0  0  0
   35.2480   23.3110   39.4950 C   0  0  0  0  0  0  0  0  0  0  0  0
   34.8150   23.7480   38.2440 C   0  0  0  0  0  0  0  0  0  0  0  0
   35.4950   24.8540   37.7330 C   0  0  0  0  0  0  0  0  0  0  0  0
   36.5020   25.4170   38.4620 N   0  0  0  0  0  0  0  0  0  0  0  0
   36.8740   24.9540   39.6600 C   0  0  0  0  0  0  0  0  0  0  0  0
   36.2350   23.8970   40.1640 N   0  0  0  0  0  0  0  0  0  0  0  0
   34.7650   22.4490   39.9620 H   0  0  0  0  0  0  0  0  0  0  0  0
   34.0140   23.2450   37.7400 H   0  0  0  0  0  0  0  0  0  0  0  0
   35.1900   25.2320   36.7550 H   0  0  0  0  0  0  0  0  0  0  0  0
  1  2  1  0  0  0  0
  2  3  2  0  0  0  0
  2  7  1  0  0  0  0
  3  4  1  0  0  0  0
  4  8  1  0  0  0  0
  4  5  2  0  0  0  0
  5  9  1  0  0  0  0
  6  5  1  0  0  0  0
  6 10  1  0  0  0  0
  7  6  2  0  0  0  0
 12 11  1  0  0  0  0
 13 12  1  0  0  0  0
 13  7  1  0  0  0  0
 14 13  2  0  0  0  0
 15 14  1  0  0  0  0
 16 17  2  0  0  0  0
 16 14  1  0  0  0  0
 17 19  1  0  0  0  0
 18 17  1  0  0  0  0
 19 20  1  0  0  0  0
 19 12  2  0  0  0  0
 21  3  1  0  0  0  0
 22 21  2  0  0  0  0
 23 29  1  0  0  0  0
 23 28  1  0  0  0  0
 24 23  2  0  0  0  0
 25 24  1  0  0  0  0
 25 26  2  0  0  0  0
 26 27  1  0  0  0  0
 27 28  2  0  0  0  0
 27 21  1  0  0  0  0
 30 24  1  0  0  0  0
 31 25  1  0  0  0  0
M  END
>  <minimizedAffinity>
-5.5948863

$$$$

 OpenBabel03242513153D

 31 33  0  0  0  0  0  0  0  0999 V2000
   36.8610   27.6460   39.4760 Cl  0  0  0  0  0  0  0  0  0  0  0  0
   37.1860   27.8180   41.2160 C   0  0  0  0  0  0  0  0  0  0  0  0
   37.0820   29.0300   41.7990 C   0  0  0  0  0  0  0  0  0  0  0  0
   37.3240   29.0990   43.1450 C   0  0  0  0  0  0  0  0  0  0  0  0
   37.6600   27.9780   43.8700 C   0  0  0  0  0  0  0  0  0  0  0  0
   37.7660   26.7220   43.2480 C   0  0  0  0  0  0  0  0  0  0  0  0
   37.5200   26.6740   41.9030 C   0  0  0  0  0  0  0  0  0  0  0  0
   37.2820   29.9460   43.7900 H   0  0  0  0  0  0  0  0  0  0  0  0
   37.8720   27.9280   44.9410 H   0  0  0  0  0  0  0  0  0  0  0  0
   38.0240   25.8000   43.7480 H   0  0  0  0  0  0  0  0  0  0  0  0
   40.2600   26.1590   40.9410 Cl  0  0  0  0  0  0  0  0  0  0  0  0
   38.8870   25.1050   40.7260 C   0  0  0  0  0  0  0  0  0  0  0  0
   37.6130   25.3840   41.1950 C   0  0  0  0  0  0  0  0  0  0  0  0
   36.5760   24.4980   40.9850 C   0  0  0  0  0  0  0  0  0  0  0  0
   35.6420   24.8130   41.3880 H   0  0  0  0  0  0  0  0  0  0  0  0
   36.7920   23.3220   40.3050 C   0  0  0  0  0  3  0  0  0  0  0  0
   38.0660   23.0490   39.8400 C   0  0  0  0  0  0  0  0  0  0  0  0
   38.3310   21.5570   38.9810 Cl  0  0  0  0  0  0  0  0  0  0  0  0
   39.1380   23.9220   40.0340 C   0  0  0  0  0  0  0  0  0  0  0  0
   40.1120   23.6480   39.6440 H   0  0  0  0  0  0  0  0  0  0  0  0
   36.7440   30.1940   41.0080 C   0  0  0  0  0  0  0  0  0  0  0  0
   35.5260   30.3120   40.6790 O   0  0  0  0  0  0  0  0  0  0  0  0
   38.1990   33.3360   39.9360 C   0  0  0  0  0  0  0  0  0  0  0  0
   39.5690   33.0960   39.8430 C   0  0  0  0  0  0  0  0  0  0  0  0
   39.9670   31.7970   40.1660 C   0  0  0  0  0  0  0  0  0  0  0  0
   39.0260   30.8810   40.5380 N   0  0  0  0  0  0  0  0  0  0  0  0
   37.7230   31.1700   40.6100 C   0  0  0  0  0  0  0  0  0  0  0  0
   37.3240   32.4070   40.3040 N   0  0  0  0  0  0  0  0  0  0  0  0
   37.8090   34.3300   39.6980 H   0  0  0  0  0  0  0  0  0  0  0  0
   40.2390   33.8760   39.5420 H   0  0  0  0  0  0  0  0  0  0  0  0
   41.0320   31.5620   40.1070 H   0  0  0  0  0  0  0  0  0  0  0  0
  1  2  1  0  0  0  0
  2  3  2  0  0  0  0
  2  7  1  0  0  0  0
  3  4  1  0  0  0  0
  4  8  1  0  0  0  0
  4  5  2  0  0  0  0
  5  9  1  0  0  0  0
  6 10  1  0  0  0  0
  6  5  1  0  0  0  0
  7  6  2  0  0  0  0
 12 11  1  0  0  0  0
 12 13  1  0  0  0  0
 13  7  1  0  0  0  0
 14 13  2  0  0  0  0
 14 15  1  0  0  0  0
 16 14  1  0  0  0  0
 17 19  1  0  0  0  0
 17 16  2  0  0  0  0
 18 17  1  0  0  0  0
 19 12  2  0  0  0  0
 20 19  1  0  0  0  0
 21  3  1  0  0  0  0
 22 21  2  0  0  0  0
 23 28  1  0  0  0  0
 24 23  2  0  0  0  0
 24 25  1  0  0  0  0
 25 26  2  0  0  0  0
 26 27  1  0  0  0  0
 27 21  1  0  0  0  0
 28 27  2  0  0  0  0
 29 23  1  0  0  0  0
 30 24  1  0  0  0  0
 31 25  1  0  0  0  0
M  END
>  <minimizedAffinity>
-5.57044029

$$$$

 OpenBabel03242513153D

 31 33  0  0  0  0  0  0  0  0999 V2000
   39.7910   30.4620   39.8690 Cl  0  0  0  0  0  0  0  0  0  0  0  0
   39.2820   32.1630   39.9620 C   0  0  0  0  0  0  0  0  0  0  0  0
   40.1940   33.1210   40.2240 C   0  0  0  0  0  0  0  0  0  0  0  0
   39.7480   34.4150   40.2640 C   0  0  0  0  0  0  0  0  0  0  0  0
   38.4250   34.7230   40.0480 C   0  0  0  0  0  0  0  0  0  0  0  0
   37.4840   33.7140   39.7780 C   0  0  0  0  0  0  0  0  0  0  0  0
   37.9490   32.4280   39.7410 C   0  0  0  0  0  0  0  0  0  0  0  0
   40.3020   35.3090   40.4380 H   0  0  0  0  0  0  0  0  0  0  0  0
   37.9710   35.7180   40.0590 H   0  0  0  0  0  0  0  0  0  0  0  0
   36.4310   33.8760   39.5980 H   0  0  0  0  0  0  0  0  0  0  0  0
   37.8650   31.7770   36.8660 Cl  0  0  0  0  0  0  0  0  0  0  0  0
   36.9420   30.9890   38.1190 C   0  0  0  0  0  0  0  0  0  0  0  0
   37.0110   31.3250   39.4610 C   0  0  0  0  0  0  0  0  0  0  0  0
   36.2480   30.6540   40.3950 C   0  0  0  0  0  0  0  0  0  0  0  0
   36.3800   30.9940   41.3960 H   0  0  0  0  0  0  0  0  0  0  0  0
   35.4050   29.6390   40.0060 C   0  0  0  0  0  3  0  0  0  0  0  0
   35.3410   29.3090   38.6640 C   0  0  0  0  0  0  0  0  0  0  0  0
   34.2720   28.0210   38.1800 Cl  0  0  0  0  0  0  0  0  0  0  0  0
   36.0980   29.9650   37.6930 C   0  0  0  0  0  0  0  0  0  0  0  0
   36.0010   29.6570   36.6580 H   0  0  0  0  0  0  0  0  0  0  0  0
   41.5770   32.7660   40.4640 C   0  0  0  0  0  0  0  0  0  0  0  0
   41.8560   32.3600   41.6310 O   0  0  0  0  0  0  0  0  0  0  0  0
   44.6250   33.7260   38.7530 C   0  0  0  0  0  0  0  0  0  0  0  0
   44.5730   33.0820   37.5180 C   0  0  0  0  0  0  0  0  0  0  0  0
   43.4360   32.3030   37.3020 C   0  0  0  0  0  0  0  0  0  0  0  0
   42.4840   32.2230   38.2760 N   0  0  0  0  0  0  0  0  0  0  0  0
   42.5880   32.8640   39.4450 C   0  0  0  0  0  0  0  0  0  0  0  0
   43.6690   33.6140   39.6680 N   0  0  0  0  0  0  0  0  0  0  0  0
   45.4850   34.3560   38.9970 H   0  0  0  0  0  0  0  0  0  0  0  0
   45.3690   33.2010   36.8100 H   0  0  0  0  0  0  0  0  0  0  0  0
   43.3510   31.7790   36.3470 H   0  0  0  0  0  0  0  0  0  0  0  0
  1  2  1  0  0  0  0
  2  3  1  0  0  0  0
  3  4  2  0  0  0  0
  3 21  1  0  0  0  0
  4  8  1  0  0  0  0
  5  9  1  0  0  0  0
  5  4  1  0  0  0  0
  6  5  2  0  0  0  0
  7  6  1  0  0  0  0
  7  2  2  0  0  0  0
 10  6  1  0  0  0  0
 11 12  1  0  0  0  0
 12 13  1  0  0  0  0
 13  7  1  0  0  0  0
 13 14  2  0  0  0  0
 14 15  1  0  0  0  0
 16 14  1  0  0  0  0
 17 16  2  0  0  0  0
 18 17  1  0  0  0  0
 19 12  2  0  0  0  0
 19 17  1  0  0  0  0
 20 19  1  0  0  0  0
 21 22  2  0  0  0  0
 23 29  1  0  0  0  0
 23 28  1  0  0  0  0
 24 23  2  0  0  0  0
 25 24  1  0  0  0  0
 25 26  2  0  0  0  0
 26 27  1  0  0  0  0
 27 28  2  0  0  0  0
 27 21  1  0  0  0  0
 30 24  1  0  0  0  0
 31 25  1  0  0  0  0
M  END
>  <minimizedAffinity>
-5.55861044

$$$$
