
 OpenBabel03252504493D

 25 26  0  0  0  0  0  0  0  0999 V2000
   46.5840   33.4230   44.7280 C   0  0  0  0  0  0  0  0  0  0  0  0
   45.8450   34.4120   44.0790 C   0  0  0  0  0  0  0  0  0  0  0  0
   46.1730   34.6680   42.7450 C   0  0  0  0  0  0  0  0  0  0  0  0
   47.1770   33.9450   42.1720 N   0  0  0  0  0  0  0  0  0  0  0  0
   47.8610   33.0030   42.8350 C   0  0  0  0  0  0  0  0  0  0  0  0
   47.5640   32.7380   44.1210 N   0  0  0  0  0  0  0  0  0  0  0  0
   46.3870   33.1630   45.7770 H   0  0  0  0  0  0  0  0  0  0  0  0
   45.6070   35.4240   42.2510 H   0  0  0  0  0  0  0  0  0  0  0  0
   50.5120   34.4940   42.5590 Cl  0  0  0  0  0  0  0  0  0  0  0  0
   50.1650   32.8590   41.9890 C   0  0  0  0  0  0  0  0  0  0  0  0
   48.9260   32.2650   42.1610 C   0  0  0  0  0  0  0  0  0  0  0  0
   48.6780   30.9840   41.7070 C   0  0  0  0  0  0  0  0  0  0  0  0
   47.6980   30.5070   41.8390 H   0  0  0  0  0  0  0  0  0  0  0  0
   49.6980   30.2890   41.0660 C   0  0  0  0  0  3  0  0  0  0  0  0
   50.9160   30.9150   40.9150 C   0  0  0  0  0  0  0  0  0  0  0  0
   52.1800   30.0120   40.1040 Cl  0  0  0  0  0  0  0  0  0  0  0  0
   51.1930   32.1900   41.3570 C   0  0  0  0  0  0  0  0  0  0  0  0
   52.1560   32.6560   41.2250 H   0  0  0  0  0  0  0  0  0  0  0  0
   44.8020   35.1080   44.8000 C   0  0  0  0  0  0  0  0  0  0  0  0
   43.8080   34.6230   44.6170 H   0  0  0  0  0  0  0  0  0  0  0  0
   45.0430   35.1900   45.8590 H   0  0  0  0  0  0  0  0  0  0  0  0
   44.6860   36.5170   44.2450 C   0  0  0  0  0  0  0  0  0  0  0  0
   44.0420   36.5470   43.3480 H   0  0  0  0  0  0  0  0  0  0  0  0
   44.2600   37.1420   45.0470 H   0  0  0  0  0  0  0  0  0  0  0  0
   45.7030   36.9000   44.0130 H   0  0  0  0  0  0  0  0  0  0  0  0
  1  7  1  0  0  0  0
  2  1  2  0  0  0  0
  2 19  1  0  0  0  0
  3  2  1  0  0  0  0
  4  3  2  0  0  0  0
  4  5  1  0  0  0  0
  5  6  2  0  0  0  0
  6  1  1  0  0  0  0
  8  3  1  0  0  0  0
 10 11  1  0  0  0  0
 10  9  1  0  0  0  0
 11  5  1  0  0  0  0
 12 13  1  0  0  0  0
 12 11  2  0  0  0  0
 14 12  1  0  0  0  0
 15 14  2  0  0  0  0
 15 17  1  0  0  0  0
 16 15  1  0  0  0  0
 17 10  2  0  0  0  0
 18 17  1  0  0  0  0
 19 21  1  0  0  0  0
 20 19  1  0  0  0  0
 22 19  1  0  0  0  0
 22 24  1  0  0  0  0
 23 22  1  0  0  0  0
 25 22  1  0  0  0  0
M  END
>  <minimizedAffinity>
-3.80349231

>  <minimizedRMSD>
7.1144433

$$$$
