
 OpenBabel03252508323D

 33 35  0  0  1  0  0  0  0  0999 V2000
   45.5320   33.7640   42.9620 N   0  0  0  0  0  0  0  0  0  0  0  0
   45.8540   33.2190   41.6940 C   0  0  1  0  0  0  0  0  0  0  0  0
   45.4760   34.0620   40.5300 C   0  0  0  0  0  0  0  0  0  0  0  0
   44.3190   34.8310   40.6380 N   0  0  0  0  0  0  0  0  0  0  0  0
   43.8530   35.1820   41.9090 C   0  0  0  0  0  0  0  0  0  0  0  0
   44.9900   35.0880   42.9150 C   0  0  0  0  0  0  0  0  0  0  0  0
   45.3430   32.2350   41.5870 H   0  0  0  0  0  0  0  0  0  0  0  0
   46.3400   34.7550   40.3030 H   0  0  0  0  0  0  0  0  0  0  0  0
   45.4200   33.4140   39.6140 H   0  0  0  0  0  0  0  0  0  0  0  0
   43.6460   34.8140   39.8740 H   0  0  0  0  0  0  0  0  0  0  0  0
   43.0860   34.4200   42.2250 H   0  0  0  0  0  0  0  0  0  0  0  0
   43.3630   36.1530   42.0220 H   0  0  0  0  0  0  0  0  0  0  0  0
   45.8020   35.8090   42.6040 H   0  0  0  0  0  0  0  0  0  0  0  0
   44.5860   35.4860   43.8480 H   0  0  0  0  0  0  0  0  0  0  0  0
   47.8370   35.4910   42.0180 Cl  0  0  0  0  0  0  0  0  0  0  0  0
   48.3690   33.8600   41.6580 C   0  0  0  0  0  0  0  0  0  0  0  0
   47.3280   32.9460   41.5430 C   0  0  0  0  0  0  0  0  0  0  0  0
   47.6760   31.6250   41.2580 C   0  0  0  0  0  0  0  0  0  0  0  0
   47.0060   30.7890   41.1350 H   0  0  0  0  0  0  0  0  0  0  0  0
   48.9960   31.2430   41.0960 C   0  0  0  0  0  0  0  0  0  0  0  0
   50.0130   32.1670   41.2130 C   0  0  0  0  0  0  0  0  0  0  0  0
   51.7180   31.8220   41.0330 Cl  0  0  0  0  0  0  0  0  0  0  0  0
   49.6600   33.4660   41.4950 C   0  0  0  0  0  0  0  0  0  0  0  0
   50.3500   34.3070   41.6180 H   0  0  0  0  0  0  0  0  0  0  0  0
   46.2840   33.6550   45.2300 C   0  0  0  0  0  0  0  0  0  0  0  0
   45.7760   32.9620   44.1140 C   0  0  0  0  0  0  0  0  0  0  0  0
   45.5630   31.5990   44.2280 C   0  0  0  0  0  0  0  0  0  0  0  0
   45.8500   30.9890   45.4010 N   0  0  0  0  0  0  0  0  0  0  0  0
   46.3380   31.6720   46.4680 C   0  0  0  0  0  0  0  0  0  0  0  0
   46.5510   32.9990   46.3730 N   0  0  0  0  0  0  0  0  0  0  0  0
   46.5140   34.7040   45.3350 H   0  0  0  0  0  0  0  0  0  0  0  0
   45.1720   31.0940   43.3630 H   0  0  0  0  0  0  0  0  0  0  0  0
   46.5140   31.0360   47.3290 H   0  0  0  0  0  0  0  0  0  0  0  0
  1 26  1  0  0  0  0
  2  7  1  6  0  0  0
  2  1  1  0  0  0  0
  3  4  1  0  0  0  0
  3  2  1  0  0  0  0
  4  5  1  0  0  0  0
  5 12  1  0  0  0  0
  5 11  1  0  0  0  0
  5  6  1  0  0  0  0
  6  1  1  0  0  0  0
  6 14  1  0  0  0  0
  8  3  1  0  0  0  0
  9  3  1  0  0  0  0
 10  4  1  0  0  0  0
 13  6  1  0  0  0  0
 16 15  1  0  0  0  0
 17 16  1  0  0  0  0
 17  2  1  0  0  0  0
 18 17  2  0  0  0  0
 19 18  1  0  0  0  0
 20 21  2  0  0  0  0
 20 18  1  0  0  0  0
 21 23  1  0  0  0  0
 22 21  1  0  0  0  0
 23 24  1  0  0  0  0
 23 16  2  0  0  0  0
 25 31  1  0  0  0  0
 25 30  1  0  0  0  0
 26 27  1  0  0  0  0
 26 25  2  0  0  0  0
 27 28  2  0  0  0  0
 28 29  1  0  0  0  0
 29 33  1  0  0  0  0
 30 29  2  0  0  0  0
 32 27  1  0  0  0  0
M  END
>  <minimizedAffinity>
-4.50264549

>  <minimizedRMSD>
1.94871068

$$$$
