
 OpenBabel03242523043D

 33 35  0  0  0  0  0  0  0  0999 V2000
   38.2950   29.6780   42.6870 C   0  0  0  0  0  0  0  0  0  0  0  0
   37.6310   29.7430   41.4670 C   0  0  0  0  0  0  0  0  0  0  0  0
   36.6430   28.8220   41.2190 C   0  0  0  0  0  0  0  0  0  0  0  0
   36.3420   27.8780   42.1510 N   0  0  0  0  0  0  0  0  0  0  0  0
   37.0120   27.8400   43.3350 C   0  0  0  0  0  0  0  0  0  0  0  0
   37.9830   28.7370   43.6000 N   0  0  0  0  0  0  0  0  0  0  0  0
   39.0860   30.3190   43.0240 H   0  0  0  0  0  0  0  0  0  0  0  0
   36.7880   27.0920   44.0960 H   0  0  0  0  0  0  0  0  0  0  0  0
   38.0280   30.7240   40.5370 N   0  0  0  0  0  0  0  0  0  0  0  0
   39.1110   30.5330   39.6520 C   0  0  0  0  0  0  0  0  0  0  0  0
   39.5900   31.8910   39.1020 C   0  0  0  0  0  0  0  0  0  0  0  0
   38.5060   32.5150   38.4180 N   0  0  0  0  0  0  0  0  0  0  0  0
   37.2110   32.4280   39.0140 C   0  0  0  0  0  0  0  0  0  0  0  0
   37.3560   32.0220   40.4410 C   0  0  0  0  0  0  0  0  0  0  0  0
   38.7110   30.1040   38.6850 H   0  0  0  0  0  0  0  0  0  0  0  0
   40.0020   30.0450   40.0430 H   0  0  0  0  0  0  0  0  0  0  0  0
   40.3940   31.6610   38.3790 H   0  0  0  0  0  0  0  0  0  0  0  0
   39.9660   32.5130   39.9330 H   0  0  0  0  0  0  0  0  0  0  0  0
   38.7580   33.5100   38.2290 H   0  0  0  0  0  0  0  0  0  0  0  0
   36.5820   33.3260   38.8910 H   0  0  0  0  0  0  0  0  0  0  0  0
   36.6470   31.5990   38.4930 H   0  0  0  0  0  0  0  0  0  0  0  0
   36.3120   31.9870   40.8440 H   0  0  0  0  0  0  0  0  0  0  0  0
   37.9990   32.7680   40.9740 H   0  0  0  0  0  0  0  0  0  0  0  0
   37.8130   26.8110   39.2970 Cl  0  0  0  0  0  0  0  0  0  0  0  0
   36.3000   27.7070   39.1600 C   0  0  0  0  0  0  0  0  0  0  0  0
   35.7990   28.6630   40.0690 C   0  0  0  0  0  0  0  0  0  0  0  0
   34.5670   29.2080   39.6900 C   0  0  0  0  0  0  0  0  0  0  0  0
   34.2600   29.9310   40.4640 H   0  0  0  0  0  0  0  0  0  0  0  0
   33.8550   28.9070   38.5780 C   0  0  0  0  0  3  0  0  0  0  0  0
   34.3660   27.9720   37.7090 C   0  0  0  0  0  0  0  0  0  0  0  0
   33.3900   27.6350   36.2920 Cl  0  0  0  0  0  0  0  0  0  0  0  0
   35.5750   27.3970   38.0230 C   0  0  0  0  0  0  0  0  0  0  0  0
   35.9030   26.6650   37.2730 H   0  0  0  0  0  0  0  0  0  0  0  0
  1  7  1  0  0  0  0
  1  6  1  0  0  0  0
  2  1  2  0  0  0  0
  3  2  1  0  0  0  0
  3  4  2  0  0  0  0
  4  5  1  0  0  0  0
  5  6  2  0  0  0  0
  5  8  1  0  0  0  0
  9  2  1  0  0  0  0
 10 16  1  0  0  0  0
 10  9  1  0  0  0  0
 11 10  1  0  0  0  0
 11 18  1  0  0  0  0
 12 13  1  0  0  0  0
 12 11  1  0  0  0  0
 13 14  1  0  0  0  0
 14  9  1  0  0  0  0
 14 22  1  0  0  0  0
 14 23  1  0  0  0  0
 15 10  1  0  0  0  0
 17 11  1  0  0  0  0
 19 12  1  0  0  0  0
 20 13  1  0  0  0  0
 21 13  1  0  0  0  0
 25 24  1  0  0  0  0
 25 26  1  0  0  0  0
 26  3  1  0  0  0  0
 27 26  2  0  0  0  0
 27 28  1  0  0  0  0
 29 27  1  0  0  0  0
 30 32  1  0  0  0  0
 30 29  2  0  0  0  0
 31 30  1  0  0  0  0
 32 25  2  0  0  0  0
 33 32  1  0  0  0  0
M  END
>  <minimizedAffinity>
-5.30848312

$$$$

 OpenBabel03242523043D

 33 35  0  0  0  0  0  0  0  0999 V2000
   39.3650   32.0560   41.3610 C   0  0  0  0  0  0  0  0  0  0  0  0
   38.5320   31.0270   40.9400 C   0  0  0  0  0  0  0  0  0  0  0  0
   37.4610   31.3470   40.1420 C   0  0  0  0  0  0  0  0  0  0  0  0
   37.2380   32.6420   39.7890 N   0  0  0  0  0  0  0  0  0  0  0  0
   38.0730   33.6270   40.2180 C   0  0  0  0  0  0  0  0  0  0  0  0
   39.1320   33.3330   41.0000 N   0  0  0  0  0  0  0  0  0  0  0  0
   40.2330   31.9680   41.9860 H   0  0  0  0  0  0  0  0  0  0  0  0
   37.9130   34.6710   39.9480 H   0  0  0  0  0  0  0  0  0  0  0  0
   38.8040   29.7170   41.3820 N   0  0  0  0  0  0  0  0  0  0  0  0
   38.4560   29.2660   42.6730 C   0  0  0  0  0  0  0  0  0  0  0  0
   39.2610   28.0000   43.0270 C   0  0  0  0  0  0  0  0  0  0  0  0
   38.9710   26.9900   42.0640 N   0  0  0  0  0  0  0  0  0  0  0  0
   38.8760   27.3900   40.6960 C   0  0  0  0  0  0  0  0  0  0  0  0
   39.4920   28.7390   40.5360 C   0  0  0  0  0  0  0  0  0  0  0  0
   37.4300   28.7910   42.6210 H   0  0  0  0  0  0  0  0  0  0  0  0
   38.6080   29.9510   43.5050 H   0  0  0  0  0  0  0  0  0  0  0  0
   38.8980   27.6740   44.0190 H   0  0  0  0  0  0  0  0  0  0  0  0
   40.3370   28.2450   43.0570 H   0  0  0  0  0  0  0  0  0  0  0  0
   39.6620   26.2150   42.1730 H   0  0  0  0  0  0  0  0  0  0  0  0
   39.2670   26.6580   39.9690 H   0  0  0  0  0  0  0  0  0  0  0  0
   37.7800   27.4990   40.4450 H   0  0  0  0  0  0  0  0  0  0  0  0
   39.3930   28.9800   39.4470 H   0  0  0  0  0  0  0  0  0  0  0  0
   40.5590   28.7000   40.8740 H   0  0  0  0  0  0  0  0  0  0  0  0
   37.9600   30.9600   37.1910 Cl  0  0  0  0  0  0  0  0  0  0  0  0
   36.6760   30.2720   38.1860 C   0  0  0  0  0  0  0  0  0  0  0  0
   36.4580   30.5000   39.5610 C   0  0  0  0  0  0  0  0  0  0  0  0
   35.3540   29.8120   40.0780 C   0  0  0  0  0  0  0  0  0  0  0  0
   35.2760   30.0470   41.1520 H   0  0  0  0  0  0  0  0  0  0  0  0
   34.5210   28.9900   39.3980 C   0  0  0  0  0  3  0  0  0  0  0  0
   34.7550   28.7860   38.0580 C   0  0  0  0  0  0  0  0  0  0  0  0
   33.6350   27.7100   37.2440 Cl  0  0  0  0  0  0  0  0  0  0  0  0
   35.8260   29.4320   37.4880 C   0  0  0  0  0  0  0  0  0  0  0  0
   35.9340   29.2100   36.4180 H   0  0  0  0  0  0  0  0  0  0  0  0
  1  7  1  0  0  0  0
  2  1  2  0  0  0  0
  2  9  1  0  0  0  0
  3  2  1  0  0  0  0
  4  3  2  0  0  0  0
  4  5  1  0  0  0  0
  5  6  2  0  0  0  0
  6  1  1  0  0  0  0
  8  5  1  0  0  0  0
  9 10  1  0  0  0  0
 10 11  1  0  0  0  0
 10 16  1  0  0  0  0
 11 18  1  0  0  0  0
 11 17  1  0  0  0  0
 12 19  1  0  0  0  0
 12 11  1  0  0  0  0
 13 12  1  0  0  0  0
 14 13  1  0  0  0  0
 14 23  1  0  0  0  0
 14  9  1  0  0  0  0
 15 10  1  0  0  0  0
 20 13  1  0  0  0  0
 21 13  1  0  0  0  0
 22 14  1  0  0  0  0
 24 25  1  0  0  0  0
 25 26  1  0  0  0  0
 26 27  2  0  0  0  0
 26  3  1  0  0  0  0
 27 28  1  0  0  0  0
 29 27  1  0  0  0  0
 30 29  2  0  0  0  0
 31 30  1  0  0  0  0
 32 30  1  0  0  0  0
 32 25  2  0  0  0  0
 33 32  1  0  0  0  0
M  END
>  <minimizedAffinity>
-5.10372448

$$$$

 OpenBabel03242523043D

 33 35  0  0  0  0  0  0  0  0999 V2000
   37.3240   32.7520   39.3760 C   0  0  0  0  0  0  0  0  0  0  0  0
   37.3900   31.4610   39.8850 C   0  0  0  0  0  0  0  0  0  0  0  0
   38.2500   31.2210   40.9280 C   0  0  0  0  0  0  0  0  0  0  0  0
   39.0110   32.2310   41.4300 N   0  0  0  0  0  0  0  0  0  0  0  0
   38.9240   33.4850   40.9070 C   0  0  0  0  0  0  0  0  0  0  0  0
   38.0830   33.7420   39.8850 N   0  0  0  0  0  0  0  0  0  0  0  0
   36.7080   33.0940   38.5660 H   0  0  0  0  0  0  0  0  0  0  0  0
   39.5240   34.3090   41.2930 H   0  0  0  0  0  0  0  0  0  0  0  0
   36.6010   30.4590   39.2860 N   0  0  0  0  0  0  0  0  0  0  0  0
   36.8170   30.0170   37.9630 C   0  0  0  0  0  0  0  0  0  0  0  0
   35.5650   29.2860   37.4380 C   0  0  0  0  0  0  0  0  0  0  0  0
   35.2970   28.1730   38.2870 N   0  0  0  0  0  0  0  0  0  0  0  0
   35.4480   28.3630   39.6940 C   0  0  0  0  0  0  0  0  0  0  0  0
   35.4840   29.8240   39.9890 C   0  0  0  0  0  0  0  0  0  0  0  0
   37.5170   29.1290   37.9930 H   0  0  0  0  0  0  0  0  0  0  0  0
   37.0530   30.7680   37.2120 H   0  0  0  0  0  0  0  0  0  0  0  0
   35.8250   28.9210   36.4280 H   0  0  0  0  0  0  0  0  0  0  0  0
   34.7160   29.9910   37.4020 H   0  0  0  0  0  0  0  0  0  0  0  0
   34.3450   27.8050   38.0660 H   0  0  0  0  0  0  0  0  0  0  0  0
   34.7150   27.8230   40.3180 H   0  0  0  0  0  0  0  0  0  0  0  0
   36.4550   27.9430   39.9920 H   0  0  0  0  0  0  0  0  0  0  0  0
   35.5910   29.8970   41.1020 H   0  0  0  0  0  0  0  0  0  0  0  0
   34.5420   30.3000   39.6140 H   0  0  0  0  0  0  0  0  0  0  0  0
   40.5410   29.7040   39.6780 Cl  0  0  0  0  0  0  0  0  0  0  0  0
   39.5980   29.2830   41.1080 C   0  0  0  0  0  0  0  0  0  0  0  0
   38.5120   30.0060   41.6470 C   0  0  0  0  0  0  0  0  0  0  0  0
   37.9610   29.4220   42.7940 C   0  0  0  0  0  0  0  0  0  0  0  0
   37.1320   30.0630   43.1400 H   0  0  0  0  0  0  0  0  0  0  0  0
   38.3640   28.2780   43.3950 C   0  0  0  0  0  3  0  0  0  0  0  0
   39.4240   27.5930   42.8480 C   0  0  0  0  0  0  0  0  0  0  0  0
   39.8890   26.1210   43.6790 Cl  0  0  0  0  0  0  0  0  0  0  0  0
   40.0130   28.1130   41.7200 C   0  0  0  0  0  0  0  0  0  0  0  0
   40.8480   27.5000   41.3560 H   0  0  0  0  0  0  0  0  0  0  0  0
  1  2  2  0  0  0  0
  1  6  1  0  0  0  0
  2  3  1  0  0  0  0
  3  4  2  0  0  0  0
  3 26  1  0  0  0  0
  5  8  1  0  0  0  0
  5  4  1  0  0  0  0
  6  5  2  0  0  0  0
  7  1  1  0  0  0  0
  9  2  1  0  0  0  0
  9 14  1  0  0  0  0
 10 15  1  0  0  0  0
 10  9  1  0  0  0  0
 11 10  1  0  0  0  0
 11 12  1  0  0  0  0
 12 13  1  0  0  0  0
 13 14  1  0  0  0  0
 13 21  1  0  0  0  0
 13 20  1  0  0  0  0
 14 22  1  0  0  0  0
 16 10  1  0  0  0  0
 17 11  1  0  0  0  0
 18 11  1  0  0  0  0
 19 12  1  0  0  0  0
 23 14  1  0  0  0  0
 24 25  1  0  0  0  0
 25 26  2  0  0  0  0
 25 32  1  0  0  0  0
 26 27  1  0  0  0  0
 27 28  1  0  0  0  0
 27 29  2  0  0  0  0
 30 29  1  0  0  0  0
 30 31  1  0  0  0  0
 32 30  2  0  0  0  0
 33 32  1  0  0  0  0
M  END
>  <minimizedAffinity>
-4.99180269

$$$$

 OpenBabel03242523043D

 33 35  0  0  0  0  0  0  0  0999 V2000
   40.5080   32.6370   38.4930 C   0  0  0  0  0  0  0  0  0  0  0  0
   39.9600   31.5150   39.1030 C   0  0  0  0  0  0  0  0  0  0  0  0
   39.5670   31.6200   40.4150 C   0  0  0  0  0  0  0  0  0  0  0  0
   39.7220   32.7970   41.0800 N   0  0  0  0  0  0  0  0  0  0  0  0
   40.2630   33.8770   40.4540 C   0  0  0  0  0  0  0  0  0  0  0  0
   40.6540   33.7950   39.1660 N   0  0  0  0  0  0  0  0  0  0  0  0
   40.8650   32.7110   37.4830 H   0  0  0  0  0  0  0  0  0  0  0  0
   40.3980   34.8290   40.9680 H   0  0  0  0  0  0  0  0  0  0  0  0
   39.8710   30.3210   38.3610 N   0  0  0  0  0  0  0  0  0  0  0  0
   38.7180   29.9710   37.6270 C   0  0  0  0  0  0  0  0  0  0  0  0
   38.7260   28.4620   37.3140 C   0  0  0  0  0  0  0  0  0  0  0  0
   39.8960   28.1590   36.5580 N   0  0  0  0  0  0  0  0  0  0  0  0
   41.1160   28.7920   36.9460 C   0  0  0  0  0  0  0  0  0  0  0  0
   40.9640   29.3460   38.3220 C   0  0  0  0  0  0  0  0  0  0  0  0
   38.8390   30.3520   36.5690 H   0  0  0  0  0  0  0  0  0  0  0  0
   37.7490   30.1690   38.0830 H   0  0  0  0  0  0  0  0  0  0  0  0
   37.8310   28.2720   36.6940 H   0  0  0  0  0  0  0  0  0  0  0  0
   38.6860   27.8900   38.2580 H   0  0  0  0  0  0  0  0  0  0  0  0
   40.0150   27.1220   36.5260 H   0  0  0  0  0  0  0  0  0  0  0  0
   42.0190   28.1670   36.8390 H   0  0  0  0  0  0  0  0  0  0  0  0
   41.2820   29.6720   36.2550 H   0  0  0  0  0  0  0  0  0  0  0  0
   41.9530   29.8130   38.5620 H   0  0  0  0  0  0  0  0  0  0  0  0
   40.6950   28.5180   39.0260 H   0  0  0  0  0  0  0  0  0  0  0  0
   36.5740   31.5370   40.0350 Cl  0  0  0  0  0  0  0  0  0  0  0  0
   37.5710   30.5540   41.1080 C   0  0  0  0  0  0  0  0  0  0  0  0
   38.9690   30.6430   41.2790 C   0  0  0  0  0  0  0  0  0  0  0  0
   39.4810   29.7260   42.2050 C   0  0  0  0  0  0  0  0  0  0  0  0
   40.5730   29.8680   42.2590 H   0  0  0  0  0  0  0  0  0  0  0  0
   38.7790   28.8110   42.9140 C   0  0  0  0  0  3  0  0  0  0  0  0
   37.4170   28.7470   42.7280 C   0  0  0  0  0  0  0  0  0  0  0  0
   36.5740   27.5390   43.6800 Cl  0  0  0  0  0  0  0  0  0  0  0  0
   36.8490   29.6200   41.8310 C   0  0  0  0  0  0  0  0  0  0  0  0
   35.7610   29.4960   41.7500 H   0  0  0  0  0  0  0  0  0  0  0  0
  1  2  2  0  0  0  0
  1  6  1  0  0  0  0
  2  3  1  0  0  0  0
  3  4  2  0  0  0  0
  3 26  1  0  0  0  0
  5  8  1  0  0  0  0
  5  4  1  0  0  0  0
  6  5  2  0  0  0  0
  7  1  1  0  0  0  0
  9  2  1  0  0  0  0
 10 16  1  0  0  0  0
 10  9  1  0  0  0  0
 11 10  1  0  0  0  0
 11 18  1  0  0  0  0
 12 13  1  0  0  0  0
 12 11  1  0  0  0  0
 13 14  1  0  0  0  0
 14  9  1  0  0  0  0
 14 22  1  0  0  0  0
 14 23  1  0  0  0  0
 15 10  1  0  0  0  0
 17 11  1  0  0  0  0
 19 12  1  0  0  0  0
 20 13  1  0  0  0  0
 21 13  1  0  0  0  0
 24 25  1  0  0  0  0
 25 26  2  0  0  0  0
 25 32  1  0  0  0  0
 26 27  1  0  0  0  0
 27 28  1  0  0  0  0
 27 29  2  0  0  0  0
 30 29  1  0  0  0  0
 30 31  1  0  0  0  0
 32 30  2  0  0  0  0
 33 32  1  0  0  0  0
M  END
>  <minimizedAffinity>
-4.92759466

$$$$

 OpenBabel03242523043D

 33 35  0  0  0  0  0  0  0  0999 V2000
   40.7440   30.1220   42.4470 C   0  0  0  0  0  0  0  0  0  0  0  0
   39.6370   29.3890   42.0330 C   0  0  0  0  0  0  0  0  0  0  0  0
   39.6950   28.0210   42.1300 C   0  0  0  0  0  0  0  0  0  0  0  0
   40.8150   27.4190   42.6170 N   0  0  0  0  0  0  0  0  0  0  0  0
   41.8810   28.1650   43.0130 C   0  0  0  0  0  0  0  0  0  0  0  0
   41.8440   29.5100   42.9280 N   0  0  0  0  0  0  0  0  0  0  0  0
   40.8530   31.1890   42.4300 H   0  0  0  0  0  0  0  0  0  0  0  0
   42.7880   27.7040   43.4040 H   0  0  0  0  0  0  0  0  0  0  0  0
   38.5320   30.0820   41.5020 N   0  0  0  0  0  0  0  0  0  0  0  0
   37.2340   29.9650   42.0440 C   0  0  0  0  0  0  0  0  0  0  0  0
   36.1870   30.4430   41.0190 C   0  0  0  0  0  0  0  0  0  0  0  0
   36.4570   31.8040   40.6910 N   0  0  0  0  0  0  0  0  0  0  0  0
   37.8230   32.1820   40.5120 C   0  0  0  0  0  0  0  0  0  0  0  0
   38.6500   30.9540   40.3310 C   0  0  0  0  0  0  0  0  0  0  0  0
   37.0920   30.7860   42.8090 H   0  0  0  0  0  0  0  0  0  0  0  0
   36.9050   28.9770   42.3580 H   0  0  0  0  0  0  0  0  0  0  0  0
   35.2080   30.3780   41.5280 H   0  0  0  0  0  0  0  0  0  0  0  0
   36.2180   29.7900   40.1290 H   0  0  0  0  0  0  0  0  0  0  0  0
   35.8920   32.0650   39.8530 H   0  0  0  0  0  0  0  0  0  0  0  0
   37.9990   32.9310   39.7210 H   0  0  0  0  0  0  0  0  0  0  0  0
   38.1720   32.6740   41.4680 H   0  0  0  0  0  0  0  0  0  0  0  0
   39.6970   31.3250   40.1860 H   0  0  0  0  0  0  0  0  0  0  0  0
   38.2700   30.3790   39.4490 H   0  0  0  0  0  0  0  0  0  0  0  0
   39.8000   27.3620   39.1870 Cl  0  0  0  0  0  0  0  0  0  0  0  0
   38.7520   26.6740   40.4280 C   0  0  0  0  0  0  0  0  0  0  0  0
   38.7130   27.0300   41.7930 C   0  0  0  0  0  0  0  0  0  0  0  0
   37.7720   26.3070   42.5360 C   0  0  0  0  0  0  0  0  0  0  0  0
   37.8270   26.6490   43.5830 H   0  0  0  0  0  0  0  0  0  0  0  0
   36.9400   25.3440   42.0740 C   0  0  0  0  0  3  0  0  0  0  0  0
   36.9990   25.0180   40.7380 C   0  0  0  0  0  0  0  0  0  0  0  0
   35.8910   23.7650   40.2120 Cl  0  0  0  0  0  0  0  0  0  0  0  0
   37.9020   25.6910   39.9510 C   0  0  0  0  0  0  0  0  0  0  0  0
   37.8770   25.3650   38.9030 H   0  0  0  0  0  0  0  0  0  0  0  0
  1  6  1  0  0  0  0
  2  3  1  0  0  0  0
  2  1  2  0  0  0  0
  3  4  2  0  0  0  0
  4  5  1  0  0  0  0
  5  8  1  0  0  0  0
  6  5  2  0  0  0  0
  7  1  1  0  0  0  0
  9  2  1  0  0  0  0
  9 10  1  0  0  0  0
 10 16  1  0  0  0  0
 10 15  1  0  0  0  0
 11 17  1  0  0  0  0
 11 10  1  0  0  0  0
 12 11  1  0  0  0  0
 13 12  1  0  0  0  0
 13 21  1  0  0  0  0
 14 13  1  0  0  0  0
 14  9  1  0  0  0  0
 18 11  1  0  0  0  0
 19 12  1  0  0  0  0
 20 13  1  0  0  0  0
 22 14  1  0  0  0  0
 23 14  1  0  0  0  0
 24 25  1  0  0  0  0
 25 26  1  0  0  0  0
 26  3  1  0  0  0  0
 26 27  2  0  0  0  0
 27 28  1  0  0  0  0
 29 27  1  0  0  0  0
 30 29  2  0  0  0  0
 31 30  1  0  0  0  0
 32 25  2  0  0  0  0
 32 30  1  0  0  0  0
 33 32  1  0  0  0  0
M  END
>  <minimizedAffinity>
-4.90004301

$$$$

 OpenBabel03242523043D

 33 35  0  0  0  0  0  0  0  0999 V2000
   40.8120   30.8580   37.6940 C   0  0  0  0  0  0  0  0  0  0  0  0
   39.9340   30.6920   38.7590 C   0  0  0  0  0  0  0  0  0  0  0  0
   39.9020   29.4700   39.3850 C   0  0  0  0  0  0  0  0  0  0  0  0
   40.7120   28.4640   38.9570 N   0  0  0  0  0  0  0  0  0  0  0  0
   41.5600   28.6590   37.9110 C   0  0  0  0  0  0  0  0  0  0  0  0
   41.6090   29.8520   37.2840 N   0  0  0  0  0  0  0  0  0  0  0  0
   40.9500   31.7450   37.1050 H   0  0  0  0  0  0  0  0  0  0  0  0
   42.2160   27.8670   37.5500 H   0  0  0  0  0  0  0  0  0  0  0  0
   39.0990   31.7680   39.1160 N   0  0  0  0  0  0  0  0  0  0  0  0
   37.7200   31.7880   38.8160 C   0  0  0  0  0  0  0  0  0  0  0  0
   37.1790   33.2280   38.9030 C   0  0  0  0  0  0  0  0  0  0  0  0
   37.3980   33.7190   40.2240 N   0  0  0  0  0  0  0  0  0  0  0  0
   38.6460   33.4100   40.8450 C   0  0  0  0  0  0  0  0  0  0  0  0
   39.6120   32.9550   39.8040 C   0  0  0  0  0  0  0  0  0  0  0  0
   37.1570   31.3550   39.6970 H   0  0  0  0  0  0  0  0  0  0  0  0
   37.4100   31.4180   37.8410 H   0  0  0  0  0  0  0  0  0  0  0  0
   36.0920   33.1600   38.7150 H   0  0  0  0  0  0  0  0  0  0  0  0
   37.6770   33.8550   38.1430 H   0  0  0  0  0  0  0  0  0  0  0  0
   37.2300   34.7500   40.2300 H   0  0  0  0  0  0  0  0  0  0  0  0
   39.0580   34.2090   41.4850 H   0  0  0  0  0  0  0  0  0  0  0  0
   38.4760   32.5340   41.5400 H   0  0  0  0  0  0  0  0  0  0  0  0
   40.5620   32.7440   40.3580 H   0  0  0  0  0  0  0  0  0  0  0  0
   39.7310   33.7590   39.0340 H   0  0  0  0  0  0  0  0  0  0  0  0
   37.3610   28.1430   38.4430 Cl  0  0  0  0  0  0  0  0  0  0  0  0
   37.9300   28.3730   40.0970 C   0  0  0  0  0  0  0  0  0  0  0  0
   39.1140   29.0260   40.4990 C   0  0  0  0  0  0  0  0  0  0  0  0
   39.2990   29.0510   41.8870 C   0  0  0  0  0  0  0  0  0  0  0  0
   40.2490   29.5710   42.0960 H   0  0  0  0  0  0  0  0  0  0  0  0
   38.4740   28.5280   42.8240 C   0  0  0  0  0  3  0  0  0  0  0  0
   37.3260   27.8970   42.4040 C   0  0  0  0  0  0  0  0  0  0  0  0
   36.3070   27.2460   43.6730 Cl  0  0  0  0  0  0  0  0  0  0  0  0
   37.0840   27.8360   41.0520 C   0  0  0  0  0  0  0  0  0  0  0  0
   36.1470   27.3170   40.8130 H   0  0  0  0  0  0  0  0  0  0  0  0
  1  2  1  0  0  0  0
  2  9  1  0  0  0  0
  2  3  2  0  0  0  0
  3 26  1  0  0  0  0
  4  3  1  0  0  0  0
  5  4  2  0  0  0  0
  6  1  2  0  0  0  0
  6  5  1  0  0  0  0
  7  1  1  0  0  0  0
  8  5  1  0  0  0  0
  9 14  1  0  0  0  0
 10 11  1  0  0  0  0
 10  9  1  0  0  0  0
 10 15  1  0  0  0  0
 11 12  1  0  0  0  0
 12 19  1  0  0  0  0
 12 13  1  0  0  0  0
 13 20  1  0  0  0  0
 13 21  1  0  0  0  0
 14 22  1  0  0  0  0
 14 13  1  0  0  0  0
 16 10  1  0  0  0  0
 17 11  1  0  0  0  0
 18 11  1  0  0  0  0
 23 14  1  0  0  0  0
 24 25  1  0  0  0  0
 25 26  2  0  0  0  0
 25 32  1  0  0  0  0
 26 27  1  0  0  0  0
 27 28  1  0  0  0  0
 27 29  2  0  0  0  0
 30 29  1  0  0  0  0
 30 31  1  0  0  0  0
 32 30  2  0  0  0  0
 33 32  1  0  0  0  0
M  END
>  <minimizedAffinity>
-4.79308033

$$$$

 OpenBabel03242523043D

 33 35  0  0  0  0  0  0  0  0999 V2000
   41.5360   32.5750   41.1130 C   0  0  0  0  0  0  0  0  0  0  0  0
   40.4820   31.6690   41.0910 C   0  0  0  0  0  0  0  0  0  0  0  0
   40.4890   30.6480   42.0100 C   0  0  0  0  0  0  0  0  0  0  0  0
   41.5090   30.5430   42.9040 N   0  0  0  0  0  0  0  0  0  0  0  0
   42.5270   31.4460   42.8980 C   0  0  0  0  0  0  0  0  0  0  0  0
   42.5380   32.4570   42.0060 N   0  0  0  0  0  0  0  0  0  0  0  0
   41.6750   33.4170   40.4620 H   0  0  0  0  0  0  0  0  0  0  0  0
   43.3550   31.3810   43.6040 H   0  0  0  0  0  0  0  0  0  0  0  0
   39.4840   31.8200   40.1090 N   0  0  0  0  0  0  0  0  0  0  0  0
   38.3970   32.7060   40.2650 C   0  0  0  0  0  0  0  0  0  0  0  0
   37.2640   32.3320   39.2880 C   0  0  0  0  0  0  0  0  0  0  0  0
   37.7670   32.4070   37.9560 N   0  0  0  0  0  0  0  0  0  0  0  0
   39.0820   31.9030   37.7170 C   0  0  0  0  0  0  0  0  0  0  0  0
   39.4940   31.0460   38.8650 C   0  0  0  0  0  0  0  0  0  0  0  0
   38.6780   33.7010   39.8060 H   0  0  0  0  0  0  0  0  0  0  0  0
   37.9290   32.7630   41.2450 H   0  0  0  0  0  0  0  0  0  0  0  0
   36.4770   33.0960   39.4240 H   0  0  0  0  0  0  0  0  0  0  0  0
   36.8880   31.3230   39.5300 H   0  0  0  0  0  0  0  0  0  0  0  0
   37.0790   31.9570   37.3120 H   0  0  0  0  0  0  0  0  0  0  0  0
   39.2180   31.4010   36.7440 H   0  0  0  0  0  0  0  0  0  0  0  0
   39.7900   32.7850   37.6950 H   0  0  0  0  0  0  0  0  0  0  0  0
   40.5200   30.6790   38.6050 H   0  0  0  0  0  0  0  0  0  0  0  0
   38.7560   30.2120   38.9870 H   0  0  0  0  0  0  0  0  0  0  0  0
   41.1940   28.2210   40.3610 Cl  0  0  0  0  0  0  0  0  0  0  0  0
   39.8540   28.4290   41.4890 C   0  0  0  0  0  0  0  0  0  0  0  0
   39.5390   29.5930   42.2230 C   0  0  0  0  0  0  0  0  0  0  0  0
   38.4120   29.4550   43.0410 C   0  0  0  0  0  0  0  0  0  0  0  0
   38.2570   30.4080   43.5740 H   0  0  0  0  0  0  0  0  0  0  0  0
   37.6380   28.3520   43.1760 C   0  0  0  0  0  3  0  0  0  0  0  0
   37.9670   27.2310   42.4480 C   0  0  0  0  0  0  0  0  0  0  0  0
   36.9200   25.8430   42.6740 Cl  0  0  0  0  0  0  0  0  0  0  0  0
   39.0650   27.3000   41.6250 C   0  0  0  0  0  0  0  0  0  0  0  0
   39.2490   26.3610   41.0860 H   0  0  0  0  0  0  0  0  0  0  0  0
  1  6  1  0  0  0  0
  2  1  2  0  0  0  0
  2  3  1  0  0  0  0
  3 26  1  0  0  0  0
  3  4  2  0  0  0  0
  5  4  1  0  0  0  0
  5  8  1  0  0  0  0
  6  5  2  0  0  0  0
  7  1  1  0  0  0  0
  9 10  1  0  0  0  0
  9  2  1  0  0  0  0
 10 16  1  0  0  0  0
 11 17  1  0  0  0  0
 11 18  1  0  0  0  0
 11 10  1  0  0  0  0
 12 11  1  0  0  0  0
 13 12  1  0  0  0  0
 13 14  1  0  0  0  0
 14 23  1  0  0  0  0
 14  9  1  0  0  0  0
 15 10  1  0  0  0  0
 19 12  1  0  0  0  0
 20 13  1  0  0  0  0
 21 13  1  0  0  0  0
 22 14  1  0  0  0  0
 24 25  1  0  0  0  0
 25 32  2  0  0  0  0
 25 26  1  0  0  0  0
 26 27  2  0  0  0  0
 27 29  1  0  0  0  0
 27 28  1  0  0  0  0
 30 31  1  0  0  0  0
 30 29  2  0  0  0  0
 32 30  1  0  0  0  0
 33 32  1  0  0  0  0
M  END
>  <minimizedAffinity>
-4.79249096

$$$$

 OpenBabel03242523043D

 33 35  0  0  0  0  0  0  0  0999 V2000
   38.3730   29.7530   42.1830 C   0  0  0  0  0  0  0  0  0  0  0  0
   38.0140   29.9970   40.8630 C   0  0  0  0  0  0  0  0  0  0  0  0
   37.5840   28.9360   40.1040 C   0  0  0  0  0  0  0  0  0  0  0  0
   37.5230   27.6900   40.6470 N   0  0  0  0  0  0  0  0  0  0  0  0
   37.8830   27.4850   41.9430 C   0  0  0  0  0  0  0  0  0  0  0  0
   38.3060   28.5130   42.7060 N   0  0  0  0  0  0  0  0  0  0  0  0
   38.7300   30.4710   42.8970 H   0  0  0  0  0  0  0  0  0  0  0  0
   37.8440   26.4960   42.3990 H   0  0  0  0  0  0  0  0  0  0  0  0
   38.1430   31.3070   40.3610 N   0  0  0  0  0  0  0  0  0  0  0  0
   37.0830   32.2370   40.3900 C   0  0  0  0  0  0  0  0  0  0  0  0
   37.3520   33.3800   39.3920 C   0  0  0  0  0  0  0  0  0  0  0  0
   38.5740   34.0210   39.7510 N   0  0  0  0  0  0  0  0  0  0  0  0
   39.6600   33.1910   40.1620 C   0  0  0  0  0  0  0  0  0  0  0  0
   39.3850   31.7850   39.7480 C   0  0  0  0  0  0  0  0  0  0  0  0
   37.1630   32.8390   41.3450 H   0  0  0  0  0  0  0  0  0  0  0  0
   36.0850   31.8730   40.1540 H   0  0  0  0  0  0  0  0  0  0  0  0
   36.5170   34.0930   39.5100 H   0  0  0  0  0  0  0  0  0  0  0  0
   37.3870   32.9720   38.3660 H   0  0  0  0  0  0  0  0  0  0  0  0
   38.8660   34.6480   38.9690 H   0  0  0  0  0  0  0  0  0  0  0  0
   40.6580   33.5380   39.8430 H   0  0  0  0  0  0  0  0  0  0  0  0
   39.6920   33.2000   41.2920 H   0  0  0  0  0  0  0  0  0  0  0  0
   40.2770   31.1980   40.0890 H   0  0  0  0  0  0  0  0  0  0  0  0
   39.2440   31.7480   38.6380 H   0  0  0  0  0  0  0  0  0  0  0  0
   34.5870   29.2460   39.9280 Cl  0  0  0  0  0  0  0  0  0  0  0  0
   35.7500   29.0690   38.6140 C   0  0  0  0  0  0  0  0  0  0  0  0
   37.1460   28.8980   38.7380 C   0  0  0  0  0  0  0  0  0  0  0  0
   37.8100   28.7860   37.5110 C   0  0  0  0  0  0  0  0  0  0  0  0
   38.8870   28.6660   37.7140 H   0  0  0  0  0  0  0  0  0  0  0  0
   37.2500   28.8250   36.2790 C   0  0  0  0  0  3  0  0  0  0  0  0
   35.8870   28.9920   36.1870 C   0  0  0  0  0  0  0  0  0  0  0  0
   35.2330   29.0320   34.5610 Cl  0  0  0  0  0  0  0  0  0  0  0  0
   35.1740   29.1100   37.3560 C   0  0  0  0  0  0  0  0  0  0  0  0
   34.0970   29.2390   37.1840 H   0  0  0  0  0  0  0  0  0  0  0  0
  1  6  1  0  0  0  0
  1  7  1  0  0  0  0
  2  1  2  0  0  0  0
  3  4  2  0  0  0  0
  3  2  1  0  0  0  0
  4  5  1  0  0  0  0
  5  8  1  0  0  0  0
  5  6  2  0  0  0  0
  9 10  1  0  0  0  0
  9  2  1  0  0  0  0
 10 15  1  0  0  0  0
 11 17  1  0  0  0  0
 11 12  1  0  0  0  0
 11 10  1  0  0  0  0
 12 13  1  0  0  0  0
 13 21  1  0  0  0  0
 14 22  1  0  0  0  0
 14 13  1  0  0  0  0
 14  9  1  0  0  0  0
 16 10  1  0  0  0  0
 18 11  1  0  0  0  0
 19 12  1  0  0  0  0
 20 13  1  0  0  0  0
 23 14  1  0  0  0  0
 25 26  1  0  0  0  0
 25 24  1  0  0  0  0
 26  3  1  0  0  0  0
 27 28  1  0  0  0  0
 27 26  2  0  0  0  0
 29 27  1  0  0  0  0
 30 29  2  0  0  0  0
 30 32  1  0  0  0  0
 31 30  1  0  0  0  0
 32 25  2  0  0  0  0
 33 32  1  0  0  0  0
M  END
>  <minimizedAffinity>
-4.77288198

$$$$

 OpenBabel03242523043D

 33 35  0  0  0  0  0  0  0  0999 V2000
   36.5060   24.9790   39.8100 C   0  0  0  0  0  0  0  0  0  0  0  0
   36.8310   26.2550   40.2520 C   0  0  0  0  0  0  0  0  0  0  0  0
   36.4100   27.3260   39.5030 C   0  0  0  0  0  0  0  0  0  0  0  0
   35.6990   27.1200   38.3610 N   0  0  0  0  0  0  0  0  0  0  0  0
   35.3980   25.8570   37.9550 C   0  0  0  0  0  0  0  0  0  0  0  0
   35.8000   24.7920   38.6780 N   0  0  0  0  0  0  0  0  0  0  0  0
   36.7640   24.0490   40.2790 H   0  0  0  0  0  0  0  0  0  0  0  0
   34.8310   25.6690   37.0430 H   0  0  0  0  0  0  0  0  0  0  0  0
   37.6060   26.3860   41.4220 N   0  0  0  0  0  0  0  0  0  0  0  0
   39.0100   26.2480   41.4190 C   0  0  0  0  0  0  0  0  0  0  0  0
   39.5190   25.9840   42.8500 C   0  0  0  0  0  0  0  0  0  0  0  0
   39.1380   27.0800   43.6790 N   0  0  0  0  0  0  0  0  0  0  0  0
   37.8290   27.6210   43.5000 C   0  0  0  0  0  0  0  0  0  0  0  0
   37.0000   26.6490   42.7300 C   0  0  0  0  0  0  0  0  0  0  0  0
   39.4690   27.2720   41.2750 H   0  0  0  0  0  0  0  0  0  0  0  0
   39.4390   25.4570   40.8070 H   0  0  0  0  0  0  0  0  0  0  0  0
   40.6210   25.9440   42.7810 H   0  0  0  0  0  0  0  0  0  0  0  0
   39.1080   25.0270   43.2170 H   0  0  0  0  0  0  0  0  0  0  0  0
   39.2920   26.8140   44.6770 H   0  0  0  0  0  0  0  0  0  0  0  0
   37.3340   27.9580   44.4260 H   0  0  0  0  0  0  0  0  0  0  0  0
   37.9250   28.5480   42.8610 H   0  0  0  0  0  0  0  0  0  0  0  0
   35.9930   27.1310   42.6380 H   0  0  0  0  0  0  0  0  0  0  0  0
   36.9640   25.6760   43.2810 H   0  0  0  0  0  0  0  0  0  0  0  0
   38.7510   28.3720   37.9110 Cl  0  0  0  0  0  0  0  0  0  0  0  0
   37.6590   29.2640   38.9700 C   0  0  0  0  0  0  0  0  0  0  0  0
   36.5890   28.7330   39.7220 C   0  0  0  0  0  0  0  0  0  0  0  0
   35.8990   29.6920   40.4720 C   0  0  0  0  0  0  0  0  0  0  0  0
   35.0830   29.1820   41.0120 H   0  0  0  0  0  0  0  0  0  0  0  0
   36.1620   31.0190   40.5320 C   0  0  0  0  0  3  0  0  0  0  0  0
   37.2100   31.5100   39.7890 C   0  0  0  0  0  0  0  0  0  0  0  0
   37.4910   33.2360   39.9160 Cl  0  0  0  0  0  0  0  0  0  0  0  0
   37.9310   30.6200   39.0280 C   0  0  0  0  0  0  0  0  0  0  0  0
   38.7460   31.1020   38.4720 H   0  0  0  0  0  0  0  0  0  0  0  0
  1  2  1  0  0  0  0
  1  7  1  0  0  0  0
  2  9  1  0  0  0  0
  3 26  1  0  0  0  0
  3  2  2  0  0  0  0
  4  3  1  0  0  0  0
  5  4  2  0  0  0  0
  5  6  1  0  0  0  0
  6  1  2  0  0  0  0
  8  5  1  0  0  0  0
  9 14  1  0  0  0  0
 10  9  1  0  0  0  0
 10 11  1  0  0  0  0
 11 18  1  0  0  0  0
 11 12  1  0  0  0  0
 12 19  1  0  0  0  0
 13 12  1  0  0  0  0
 13 20  1  0  0  0  0
 14 23  1  0  0  0  0
 14 13  1  0  0  0  0
 15 10  1  0  0  0  0
 16 10  1  0  0  0  0
 17 11  1  0  0  0  0
 21 13  1  0  0  0  0
 22 14  1  0  0  0  0
 24 25  1  0  0  0  0
 25 32  2  0  0  0  0
 25 26  1  0  0  0  0
 26 27  2  0  0  0  0
 27 29  1  0  0  0  0
 27 28  1  0  0  0  0
 30 31  1  0  0  0  0
 30 29  2  0  0  0  0
 32 30  1  0  0  0  0
 33 32  1  0  0  0  0
M  END
>  <minimizedAffinity>
-4.70635748

$$$$
