
 OpenBabel03252504493D

 25 26  0  0  0  0  0  0  0  0999 V2000
   46.9620   32.8480   43.8100 C   0  0  0  0  0  0  0  0  0  0  0  0
   46.4630   34.1360   43.6150 C   0  0  0  0  0  0  0  0  0  0  0  0
   47.0100   34.8690   42.5580 C   0  0  0  0  0  0  0  0  0  0  0  0
   47.9810   34.2870   41.7970 N   0  0  0  0  0  0  0  0  0  0  0  0
   48.4300   33.0450   42.0220 C   0  0  0  0  0  0  0  0  0  0  0  0
   47.9190   32.3190   43.0330 N   0  0  0  0  0  0  0  0  0  0  0  0
   46.5840   32.2090   44.6180 H   0  0  0  0  0  0  0  0  0  0  0  0
   46.6280   35.8530   42.4110 H   0  0  0  0  0  0  0  0  0  0  0  0
   47.5110   32.1550   39.2500 Cl  0  0  0  0  0  0  0  0  0  0  0  0
   49.1510   32.0500   39.8920 C   0  0  0  0  0  0  0  0  0  0  0  0
   49.4720   32.4810   41.1680 C   0  0  0  0  0  0  0  0  0  0  0  0
   50.7640   32.3890   41.6500 C   0  0  0  0  0  0  0  0  0  0  0  0
   51.0270   32.7290   42.6610 H   0  0  0  0  0  0  0  0  0  0  0  0
   51.7500   31.8510   40.8310 C   0  0  0  0  0  3  0  0  0  0  0  0
   51.3910   31.4330   39.5670 C   0  0  0  0  0  0  0  0  0  0  0  0
   52.6570   30.7610   38.5620 Cl  0  0  0  0  0  0  0  0  0  0  0  0
   50.1120   31.5130   39.0600 C   0  0  0  0  0  0  0  0  0  0  0  0
   49.8570   31.1780   38.0680 H   0  0  0  0  0  0  0  0  0  0  0  0
   45.4300   34.6390   44.4930 C   0  0  0  0  0  0  0  0  0  0  0  0
   44.6360   33.8640   44.6480 H   0  0  0  0  0  0  0  0  0  0  0  0
   45.8520   35.0040   45.4290 H   0  0  0  0  0  0  0  0  0  0  0  0
   44.7420   35.8090   43.8130 C   0  0  0  0  0  0  0  0  0  0  0  0
   43.9470   35.4680   43.1270 H   0  0  0  0  0  0  0  0  0  0  0  0
   44.3170   36.4380   44.6120 H   0  0  0  0  0  0  0  0  0  0  0  0
   45.5020   36.4110   43.2690 H   0  0  0  0  0  0  0  0  0  0  0  0
  1  7  1  0  0  0  0
  2  1  1  0  0  0  0
  2 19  1  0  0  0  0
  3  2  2  0  0  0  0
  4  5  2  0  0  0  0
  4  3  1  0  0  0  0
  5  6  1  0  0  0  0
  6  1  2  0  0  0  0
  8  3  1  0  0  0  0
  9 10  1  0  0  0  0
 10 11  1  0  0  0  0
 11 12  2  0  0  0  0
 11  5  1  0  0  0  0
 12 13  1  0  0  0  0
 14 12  1  0  0  0  0
 15 14  2  0  0  0  0
 16 15  1  0  0  0  0
 17 15  1  0  0  0  0
 17 10  2  0  0  0  0
 18 17  1  0  0  0  0
 19 20  1  0  0  0  0
 19 21  1  0  0  0  0
 22 19  1  0  0  0  0
 22 24  1  0  0  0  0
 23 22  1  0  0  0  0
 25 22  1  0  0  0  0
M  END
>  <minimizedAffinity>
-3.70311356

>  <minimizedRMSD>
8.02635098

$$$$
