
 OpenBabel03242516273D

 44 48  0  0  0  0  0  0  0  0999 V2000
   37.4100   28.6600   41.0720 C   0  0  0  0  0  0  0  0  0  0  0  0
   37.5170   29.3040   42.2630 N   0  0  0  0  0  0  0  0  0  0  0  0
   37.4480   28.6740   43.4420 C   0  0  0  0  0  0  0  0  0  0  0  0
   37.2650   27.3450   43.4300 N   0  0  0  0  0  0  0  0  0  0  0  0
   37.1490   26.6240   42.2930 C   0  0  0  0  0  0  0  0  0  0  0  0
   36.9630   25.2560   42.2830 C   0  0  0  0  0  0  0  0  0  0  0  0
   36.8520   24.5690   41.1000 C   0  0  0  0  0  0  0  0  0  0  0  0
   36.9250   25.2250   39.8650 C   0  0  0  0  0  0  0  0  0  0  0  0
   37.1110   26.5890   39.9290 C   0  0  0  0  0  0  0  0  0  0  0  0
   37.2230   27.2930   41.1000 C   0  0  0  0  0  0  0  0  0  0  0  0
   37.5400   29.2410   44.3600 H   0  0  0  0  0  0  0  0  0  0  0  0
   36.9120   24.7880   43.2590 H   0  0  0  0  0  0  0  0  0  0  0  0
   36.7090   23.5020   41.2380 H   0  0  0  0  0  0  0  0  0  0  0  0
   36.8270   24.5870   39.0180 H   0  0  0  0  0  0  0  0  0  0  0  0
   39.7870   26.9350   38.4890 Cl  0  0  0  0  0  0  0  0  0  0  0  0
   38.2660   27.3680   37.7390 C   0  0  0  0  0  0  0  0  0  0  0  0
   37.1690   27.1250   38.5770 C   0  0  0  0  0  0  0  0  0  0  0  0
   35.8900   27.4410   38.0910 C   0  0  0  0  0  0  0  0  0  0  0  0
   34.9580   27.3000   38.6420 H   0  0  0  0  0  0  0  0  0  0  0  0
   35.6970   27.9740   36.8370 C   0  0  0  0  0  3  0  0  0  0  0  0
   36.7970   28.2000   36.0430 C   0  0  0  0  0  0  0  0  0  0  0  0
   36.6340   28.8770   34.4340 Cl  0  0  0  0  0  0  0  0  0  0  0  0
   38.0510   27.8990   36.4950 C   0  0  0  0  0  0  0  0  0  0  0  0
   38.9540   28.0500   35.9280 H   0  0  0  0  0  0  0  0  0  0  0  0
   37.4880   29.4680   39.4970 S   0  0  0  0  0  0  0  0  0  0  0  0
   39.5700   32.7960   40.3560 C   0  0  0  0  0  0  0  0  0  0  0  0
   39.1750   31.4830   40.1790 C   0  0  0  0  0  0  0  0  0  0  0  0
   37.9310   31.1690   39.6970 C   0  0  0  0  0  0  0  0  0  0  0  0
   37.0390   32.1810   39.3750 C   0  0  0  0  0  0  0  0  0  0  0  0
   37.3900   33.4830   39.5350 C   0  0  0  0  0  0  0  0  0  0  0  0
   38.6500   33.7670   40.0220 C   0  0  0  0  0  0  0  0  0  0  0  0
   39.9030   30.7280   40.4440 H   0  0  0  0  0  0  0  0  0  0  0  0
   36.0460   31.9960   38.9960 H   0  0  0  0  0  0  0  0  0  0  0  0
   36.7520   34.3280   39.3060 H   0  0  0  0  0  0  0  0  0  0  0  0
   38.9510   34.8070   40.1570 H   0  0  0  0  0  0  0  0  0  0  0  0
   42.6020   34.7220   41.0500 C   0  0  0  0  0  0  0  0  0  0  0  0
   43.3970   33.8210   41.7960 C   0  0  0  0  0  0  0  0  0  0  0  0
   42.8900   32.5490   42.0590 C   0  0  0  0  0  0  0  0  0  0  0  0
   41.6480   32.2080   41.5960 N   0  0  0  0  0  0  0  0  0  0  0  0
   40.9110   33.1100   40.8770 C   0  0  0  0  0  0  0  0  0  0  0  0
   41.3890   34.3560   40.6090 N   0  0  0  0  0  0  0  0  0  0  0  0
   42.9620   35.7210   40.8250 H   0  0  0  0  0  0  0  0  0  0  0  0
   44.3730   34.1340   42.1430 H   0  0  0  0  0  0  0  0  0  0  0  0
   43.4660   31.8360   42.6230 H   0  0  0  0  0  0  0  0  0  0  0  0
  1 10  2  0  0  0  0
  1  2  1  0  0  0  0
  2  3  2  0  0  0  0
  3 11  1  0  0  0  0
  4  3  1  0  0  0  0
  5  4  2  0  0  0  0
  6  5  1  0  0  0  0
  6 12  1  0  0  0  0
  7 13  1  0  0  0  0
  7  6  2  0  0  0  0
  8  9  2  0  0  0  0
  8  7  1  0  0  0  0
  9 10  1  0  0  0  0
 10  5  1  0  0  0  0
 14  8  1  0  0  0  0
 16 15  1  0  0  0  0
 16 17  1  0  0  0  0
 17  9  1  0  0  0  0
 18 17  2  0  0  0  0
 18 19  1  0  0  0  0
 20 18  1  0  0  0  0
 21 23  1  0  0  0  0
 21 20  2  0  0  0  0
 22 21  1  0  0  0  0
 23 16  2  0  0  0  0
 24 23  1  0  0  0  0
 25 28  1  0  0  0  0
 25  1  1  0  0  0  0
 26 40  1  0  0  0  0
 27 26  1  0  0  0  0
 27 32  1  0  0  0  0
 28 27  2  0  0  0  0
 29 30  2  0  0  0  0
 29 28  1  0  0  0  0
 30 31  1  0  0  0  0
 31 35  1  0  0  0  0
 31 26  2  0  0  0  0
 33 29  1  0  0  0  0
 34 30  1  0  0  0  0
 36 37  1  0  0  0  0
 37 38  2  0  0  0  0
 37 43  1  0  0  0  0
 38 44  1  0  0  0  0
 39 38  1  0  0  0  0
 40 39  2  0  0  0  0
 41 40  1  0  0  0  0
 41 36  2  0  0  0  0
 42 36  1  0  0  0  0
M  END
>  <minimizedAffinity>
-6.88602495

$$$$

 OpenBabel03242516273D

 44 48  0  0  0  0  0  0  0  0999 V2000
   37.4700   27.2440   39.1800 C   0  0  0  0  0  0  0  0  0  0  0  0
   37.0080   27.7220   37.9940 N   0  0  0  0  0  0  0  0  0  0  0  0
   36.1200   27.0640   37.2390 C   0  0  0  0  0  0  0  0  0  0  0  0
   35.6750   25.8810   37.6870 N   0  0  0  0  0  0  0  0  0  0  0  0
   36.0790   25.3310   38.8530 C   0  0  0  0  0  0  0  0  0  0  0  0
   35.6170   24.1140   39.3120 C   0  0  0  0  0  0  0  0  0  0  0  0
   36.0580   23.5980   40.5060 C   0  0  0  0  0  0  0  0  0  0  0  0
   36.9860   24.2850   41.2990 C   0  0  0  0  0  0  0  0  0  0  0  0
   37.4150   25.4930   40.7960 C   0  0  0  0  0  0  0  0  0  0  0  0
   36.9890   26.0240   39.6070 C   0  0  0  0  0  0  0  0  0  0  0  0
   35.7880   27.4950   36.3020 H   0  0  0  0  0  0  0  0  0  0  0  0
   34.9010   23.6170   38.6690 H   0  0  0  0  0  0  0  0  0  0  0  0
   35.6140   22.6370   40.7450 H   0  0  0  0  0  0  0  0  0  0  0  0
   37.2510   23.7850   42.2020 H   0  0  0  0  0  0  0  0  0  0  0  0
   36.5000   27.4780   42.9340 Cl  0  0  0  0  0  0  0  0  0  0  0  0
   38.1750   27.0020   42.7670 C   0  0  0  0  0  0  0  0  0  0  0  0
   38.3680   26.0830   41.7260 C   0  0  0  0  0  0  0  0  0  0  0  0
   39.6740   25.6310   41.4840 C   0  0  0  0  0  0  0  0  0  0  0  0
   39.9580   24.9180   40.7070 H   0  0  0  0  0  0  0  0  0  0  0  0
   40.7470   26.0610   42.2320 C   0  0  0  0  0  3  0  0  0  0  0  0
   40.5200   26.9630   43.2450 C   0  0  0  0  0  0  0  0  0  0  0  0
   41.8320   27.5610   44.2420 Cl  0  0  0  0  0  0  0  0  0  0  0  0
   39.2560   27.4170   43.4990 C   0  0  0  0  0  0  0  0  0  0  0  0
   39.0070   28.1220   44.2740 H   0  0  0  0  0  0  0  0  0  0  0  0
   38.6520   28.0870   40.1950 S   0  0  0  0  0  0  0  0  0  0  0  0
   39.1870   32.0220   39.5790 C   0  0  0  0  0  0  0  0  0  0  0  0
   39.3520   30.6500   39.6390 C   0  0  0  0  0  0  0  0  0  0  0  0
   38.3750   29.8330   40.1450 C   0  0  0  0  0  0  0  0  0  0  0  0
   37.1890   30.3820   40.6100 C   0  0  0  0  0  0  0  0  0  0  0  0
   36.9890   31.7240   40.5690 C   0  0  0  0  0  0  0  0  0  0  0  0
   37.9920   32.5200   40.0520 C   0  0  0  0  0  0  0  0  0  0  0  0
   40.2930   30.2680   39.2650 H   0  0  0  0  0  0  0  0  0  0  0  0
   36.3860   29.7900   41.0230 H   0  0  0  0  0  0  0  0  0  0  0  0
   36.0930   32.2270   40.9120 H   0  0  0  0  0  0  0  0  0  0  0  0
   37.8510   33.6010   40.0100 H   0  0  0  0  0  0  0  0  0  0  0  0
   41.4680   34.8670   39.2820 C   0  0  0  0  0  0  0  0  0  0  0  0
   42.2150   34.5660   38.1200 C   0  0  0  0  0  0  0  0  0  0  0  0
   41.9330   33.3830   37.4370 C   0  0  0  0  0  0  0  0  0  0  0  0
   40.9520   32.5520   37.9040 N   0  0  0  0  0  0  0  0  0  0  0  0
   40.2520   32.8800   39.0320 C   0  0  0  0  0  0  0  0  0  0  0  0
   40.5120   34.0310   39.7130 N   0  0  0  0  0  0  0  0  0  0  0  0
   41.6570   35.7780   39.8420 H   0  0  0  0  0  0  0  0  0  0  0  0
   42.9820   35.2530   37.7880 H   0  0  0  0  0  0  0  0  0  0  0  0
   42.4810   33.1210   36.5490 H   0  0  0  0  0  0  0  0  0  0  0  0
  1 10  1  0  0  0  0
  1 25  1  0  0  0  0
  2  1  2  0  0  0  0
  3  4  2  0  0  0  0
  3  2  1  0  0  0  0
  4  5  1  0  0  0  0
  5  6  2  0  0  0  0
  5 10  1  0  0  0  0
  6  7  1  0  0  0  0
  7 13  1  0  0  0  0
  7  8  2  0  0  0  0
  8 14  1  0  0  0  0
  9  8  1  0  0  0  0
  9 17  1  0  0  0  0
 10  9  2  0  0  0  0
 11  3  1  0  0  0  0
 12  6  1  0  0  0  0
 16 15  1  0  0  0  0
 16 23  1  0  0  0  0
 17 16  2  0  0  0  0
 18 17  1  0  0  0  0
 18 20  2  0  0  0  0
 19 18  1  0  0  0  0
 20 21  1  0  0  0  0
 21 23  2  0  0  0  0
 21 22  1  0  0  0  0
 23 24  1  0  0  0  0
 26 27  2  0  0  0  0
 26 31  1  0  0  0  0
 27 28  1  0  0  0  0
 28 25  1  0  0  0  0
 28 29  2  0  0  0  0
 29 33  1  0  0  0  0
 30 29  1  0  0  0  0
 30 34  1  0  0  0  0
 31 30  2  0  0  0  0
 32 27  1  0  0  0  0
 35 31  1  0  0  0  0
 36 41  1  0  0  0  0
 36 42  1  0  0  0  0
 37 36  2  0  0  0  0
 38 39  2  0  0  0  0
 38 37  1  0  0  0  0
 39 40  1  0  0  0  0
 40 26  1  0  0  0  0
 40 41  2  0  0  0  0
 43 37  1  0  0  0  0
 44 38  1  0  0  0  0
M  END
>  <minimizedAffinity>
-6.87413502

$$$$

 OpenBabel03242516273D

 44 48  0  0  0  0  0  0  0  0999 V2000
   40.0920   31.2850   39.9430 C   0  0  0  0  0  0  0  0  0  0  0  0
   41.3530   31.2650   40.4480 N   0  0  0  0  0  0  0  0  0  0  0  0
   41.9690   32.3580   40.9160 C   0  0  0  0  0  0  0  0  0  0  0  0
   41.2970   33.5180   40.8770 N   0  0  0  0  0  0  0  0  0  0  0  0
   40.0410   33.6300   40.3930 C   0  0  0  0  0  0  0  0  0  0  0  0
   39.3500   34.8250   40.3570 C   0  0  0  0  0  0  0  0  0  0  0  0
   38.0740   34.8860   39.8560 C   0  0  0  0  0  0  0  0  0  0  0  0
   37.4260   33.7450   39.3670 C   0  0  0  0  0  0  0  0  0  0  0  0
   38.1570   32.5790   39.4250 C   0  0  0  0  0  0  0  0  0  0  0  0
   39.4330   32.4970   39.9200 C   0  0  0  0  0  0  0  0  0  0  0  0
   42.9760   32.2800   41.3070 H   0  0  0  0  0  0  0  0  0  0  0  0
   39.8870   35.6820   40.7450 H   0  0  0  0  0  0  0  0  0  0  0  0
   37.6500   35.8850   39.8880 H   0  0  0  0  0  0  0  0  0  0  0  0
   36.4390   33.9170   39.0050 H   0  0  0  0  0  0  0  0  0  0  0  0
   36.2740   30.9770   41.2250 Cl  0  0  0  0  0  0  0  0  0  0  0  0
   36.4430   30.6320   39.5180 C   0  0  0  0  0  0  0  0  0  0  0  0
   37.3560   31.4880   38.8880 C   0  0  0  0  0  0  0  0  0  0  0  0
   37.5870   31.3050   37.5150 C   0  0  0  0  0  0  0  0  0  0  0  0
   38.2710   31.9030   36.9090 H   0  0  0  0  0  0  0  0  0  0  0  0
   36.9490   30.3230   36.7920 C   0  0  0  0  0  3  0  0  0  0  0  0
   36.0600   29.5020   37.4440 C   0  0  0  0  0  0  0  0  0  0  0  0
   35.2080   28.2260   36.5930 Cl  0  0  0  0  0  0  0  0  0  0  0  0
   35.8190   29.6610   38.7790 C   0  0  0  0  0  0  0  0  0  0  0  0
   35.1380   29.0550   39.3520 H   0  0  0  0  0  0  0  0  0  0  0  0
   39.2550   29.8580   39.3080 S   0  0  0  0  0  0  0  0  0  0  0  0
   38.3890   26.4380   41.2320 C   0  0  0  0  0  0  0  0  0  0  0  0
   38.6150   27.4000   40.2640 C   0  0  0  0  0  0  0  0  0  0  0  0
   38.9840   28.6770   40.5960 C   0  0  0  0  0  0  0  0  0  0  0  0
   39.1400   29.0270   41.9290 C   0  0  0  0  0  0  0  0  0  0  0  0
   38.9270   28.1110   42.9090 C   0  0  0  0  0  0  0  0  0  0  0  0
   38.5570   26.8330   42.5430 C   0  0  0  0  0  0  0  0  0  0  0  0
   38.4810   27.0810   39.2390 H   0  0  0  0  0  0  0  0  0  0  0  0
   39.4250   30.0160   42.2520 H   0  0  0  0  0  0  0  0  0  0  0  0
   39.0280   28.3060   43.9700 H   0  0  0  0  0  0  0  0  0  0  0  0
   38.3820   26.0830   43.3150 H   0  0  0  0  0  0  0  0  0  0  0  0
   36.2450   23.6870   40.1290 C   0  0  0  0  0  0  0  0  0  0  0  0
   37.1210   22.5760   40.1180 C   0  0  0  0  0  0  0  0  0  0  0  0
   38.4490   22.7740   40.4920 C   0  0  0  0  0  0  0  0  0  0  0  0
   38.8690   24.0240   40.8550 N   0  0  0  0  0  0  0  0  0  0  0  0
   37.9910   25.0730   40.8520 C   0  0  0  0  0  0  0  0  0  0  0  0
   36.6890   24.9000   40.4910 N   0  0  0  0  0  0  0  0  0  0  0  0
   35.2040   23.5740   39.8440 H   0  0  0  0  0  0  0  0  0  0  0  0
   36.7440   21.6050   39.8230 H   0  0  0  0  0  0  0  0  0  0  0  0
   39.1440   21.9530   40.4960 H   0  0  0  0  0  0  0  0  0  0  0  0
  1  2  1  0  0  0  0
  2  3  2  0  0  0  0
  3 11  1  0  0  0  0
  4  3  1  0  0  0  0
  5  4  2  0  0  0  0
  6  5  1  0  0  0  0
  6 12  1  0  0  0  0
  7 13  1  0  0  0  0
  7  6  2  0  0  0  0
  8  9  2  0  0  0  0
  8  7  1  0  0  0  0
  9 10  1  0  0  0  0
 10  1  2  0  0  0  0
 10  5  1  0  0  0  0
 14  8  1  0  0  0  0
 16 15  1  0  0  0  0
 17  9  1  0  0  0  0
 17 16  1  0  0  0  0
 18 17  2  0  0  0  0
 19 18  1  0  0  0  0
 20 21  2  0  0  0  0
 20 18  1  0  0  0  0
 21 23  1  0  0  0  0
 22 21  1  0  0  0  0
 23 24  1  0  0  0  0
 23 16  2  0  0  0  0
 25  1  1  0  0  0  0
 25 28  1  0  0  0  0
 26 31  1  0  0  0  0
 27 28  1  0  0  0  0
 27 26  2  0  0  0  0
 28 29  2  0  0  0  0
 29 33  1  0  0  0  0
 29 30  1  0  0  0  0
 30 34  1  0  0  0  0
 31 30  2  0  0  0  0
 31 35  1  0  0  0  0
 32 27  1  0  0  0  0
 36 41  1  0  0  0  0
 37 36  2  0  0  0  0
 37 38  1  0  0  0  0
 38 44  1  0  0  0  0
 38 39  2  0  0  0  0
 40 39  1  0  0  0  0
 40 26  1  0  0  0  0
 41 40  2  0  0  0  0
 42 36  1  0  0  0  0
 43 37  1  0  0  0  0
M  END
>  <minimizedAffinity>
-6.86899042

$$$$

 OpenBabel03242516273D

 44 48  0  0  0  0  0  0  0  0999 V2000
   39.1300   29.7810   40.2950 C   0  0  0  0  0  0  0  0  0  0  0  0
   40.1890   29.5480   41.1130 N   0  0  0  0  0  0  0  0  0  0  0  0
   40.8210   30.5200   41.7840 C   0  0  0  0  0  0  0  0  0  0  0  0
   40.3740   31.7760   41.6310 N   0  0  0  0  0  0  0  0  0  0  0  0
   39.3280   32.0980   40.8400 C   0  0  0  0  0  0  0  0  0  0  0  0
   38.8690   33.3910   40.6860 C   0  0  0  0  0  0  0  0  0  0  0  0
   37.7990   33.6670   39.8700 C   0  0  0  0  0  0  0  0  0  0  0  0
   37.1360   32.6520   39.1690 C   0  0  0  0  0  0  0  0  0  0  0  0
   37.6330   31.3810   39.3550 C   0  0  0  0  0  0  0  0  0  0  0  0
   38.7000   31.0850   40.1640 C   0  0  0  0  0  0  0  0  0  0  0  0
   41.6610   30.2740   42.4220 H   0  0  0  0  0  0  0  0  0  0  0  0
   39.4090   34.1440   41.2470 H   0  0  0  0  0  0  0  0  0  0  0  0
   37.5450   34.7220   39.8420 H   0  0  0  0  0  0  0  0  0  0  0  0
   36.3230   32.9890   38.5690 H   0  0  0  0  0  0  0  0  0  0  0  0
   35.2590   29.9010   40.5910 Cl  0  0  0  0  0  0  0  0  0  0  0  0
   35.7350   29.6640   38.9230 C   0  0  0  0  0  0  0  0  0  0  0  0
   36.8440   30.4430   38.5690 C   0  0  0  0  0  0  0  0  0  0  0  0
   37.3300   30.3340   37.2560 C   0  0  0  0  0  0  0  0  0  0  0  0
   38.1840   30.8850   36.8550 H   0  0  0  0  0  0  0  0  0  0  0  0
   36.7510   29.4960   36.3310 C   0  0  0  0  0  3  0  0  0  0  0  0
   35.6630   28.7470   36.7140 C   0  0  0  0  0  0  0  0  0  0  0  0
   34.8690   27.6560   35.5950 Cl  0  0  0  0  0  0  0  0  0  0  0  0
   35.1730   28.8370   37.9870 C   0  0  0  0  0  0  0  0  0  0  0  0
   34.3280   28.2810   38.3540 H   0  0  0  0  0  0  0  0  0  0  0  0
   38.2810   28.5180   39.3880 S   0  0  0  0  0  0  0  0  0  0  0  0
   37.2050   24.9090   40.7900 C   0  0  0  0  0  0  0  0  0  0  0  0
   37.6170   25.9550   39.9830 C   0  0  0  0  0  0  0  0  0  0  0  0
   37.7530   27.2260   40.4750 C   0  0  0  0  0  0  0  0  0  0  0  0
   37.4760   27.4850   41.8090 C   0  0  0  0  0  0  0  0  0  0  0  0
   37.0690   26.4850   42.6330 C   0  0  0  0  0  0  0  0  0  0  0  0
   36.9420   25.2150   42.1080 C   0  0  0  0  0  0  0  0  0  0  0  0
   37.8210   25.7050   38.9500 H   0  0  0  0  0  0  0  0  0  0  0  0
   37.5610   28.4650   42.2510 H   0  0  0  0  0  0  0  0  0  0  0  0
   36.8340   26.6060   43.6840 H   0  0  0  0  0  0  0  0  0  0  0  0
   36.6170   24.3980   42.7540 H   0  0  0  0  0  0  0  0  0  0  0  0
   35.7510   22.1040   38.9440 C   0  0  0  0  0  0  0  0  0  0  0  0
   36.6830   21.0600   39.1520 C   0  0  0  0  0  0  0  0  0  0  0  0
   37.8110   21.3210   39.9280 C   0  0  0  0  0  0  0  0  0  0  0  0
   37.9880   22.5680   40.4640 N   0  0  0  0  0  0  0  0  0  0  0  0
   37.0630   23.5510   40.2390 C   0  0  0  0  0  0  0  0  0  0  0  0
   35.9550   23.3150   39.4850 N   0  0  0  0  0  0  0  0  0  0  0  0
   34.8610   21.9410   38.3460 H   0  0  0  0  0  0  0  0  0  0  0  0
   36.5010   20.0900   38.7090 H   0  0  0  0  0  0  0  0  0  0  0  0
   38.5410   20.5520   40.1090 H   0  0  0  0  0  0  0  0  0  0  0  0
  1  2  1  0  0  0  0
  2  3  2  0  0  0  0
  3 11  1  0  0  0  0
  4  3  1  0  0  0  0
  5  4  2  0  0  0  0
  6  5  1  0  0  0  0
  6 12  1  0  0  0  0
  7  6  2  0  0  0  0
  8  9  2  0  0  0  0
  8  7  1  0  0  0  0
  9 10  1  0  0  0  0
 10  1  2  0  0  0  0
 10  5  1  0  0  0  0
 13  7  1  0  0  0  0
 14  8  1  0  0  0  0
 16 15  1  0  0  0  0
 17 16  1  0  0  0  0
 17  9  1  0  0  0  0
 18 17  2  0  0  0  0
 19 18  1  0  0  0  0
 20 21  2  0  0  0  0
 20 18  1  0  0  0  0
 21 23  1  0  0  0  0
 22 21  1  0  0  0  0
 23 24  1  0  0  0  0
 23 16  2  0  0  0  0
 25  1  1  0  0  0  0
 25 28  1  0  0  0  0
 26 31  1  0  0  0  0
 27 28  1  0  0  0  0
 27 26  2  0  0  0  0
 28 29  2  0  0  0  0
 29 33  1  0  0  0  0
 29 30  1  0  0  0  0
 30 34  1  0  0  0  0
 31 30  2  0  0  0  0
 31 35  1  0  0  0  0
 32 27  1  0  0  0  0
 36 37  2  0  0  0  0
 36 41  1  0  0  0  0
 37 38  1  0  0  0  0
 38 44  1  0  0  0  0
 38 39  2  0  0  0  0
 40 39  1  0  0  0  0
 40 26  1  0  0  0  0
 41 40  2  0  0  0  0
 42 36  1  0  0  0  0
 43 37  1  0  0  0  0
M  END
>  <minimizedAffinity>
-6.79537106

$$$$

 OpenBabel03242516273D

 44 48  0  0  0  0  0  0  0  0999 V2000
   37.3340   30.4970   40.7680 C   0  0  0  0  0  0  0  0  0  0  0  0
   36.9600   31.7260   40.3270 N   0  0  0  0  0  0  0  0  0  0  0  0
   37.7360   32.8110   40.4430 C   0  0  0  0  0  0  0  0  0  0  0  0
   38.9350   32.6600   41.0240 N   0  0  0  0  0  0  0  0  0  0  0  0
   39.3890   31.4770   41.4900 C   0  0  0  0  0  0  0  0  0  0  0  0
   40.6250   31.3240   42.0850 C   0  0  0  0  0  0  0  0  0  0  0  0
   41.0410   30.0980   42.5420 C   0  0  0  0  0  0  0  0  0  0  0  0
   40.2320   28.9620   42.4210 C   0  0  0  0  0  0  0  0  0  0  0  0
   39.0090   29.1670   41.8210 C   0  0  0  0  0  0  0  0  0  0  0  0
   38.5750   30.3820   41.3590 C   0  0  0  0  0  0  0  0  0  0  0  0
   37.3830   33.7660   40.0730 H   0  0  0  0  0  0  0  0  0  0  0  0
   41.2190   32.2280   42.1590 H   0  0  0  0  0  0  0  0  0  0  0  0
   42.0310   30.1220   42.9870 H   0  0  0  0  0  0  0  0  0  0  0  0
   40.6630   28.0690   42.8110 H   0  0  0  0  0  0  0  0  0  0  0  0
   37.1740   28.3010   44.1080 Cl  0  0  0  0  0  0  0  0  0  0  0  0
   37.4120   27.3120   42.6840 C   0  0  0  0  0  0  0  0  0  0  0  0
   38.2900   27.9020   41.7650 C   0  0  0  0  0  0  0  0  0  0  0  0
   38.5710   27.1990   40.5820 C   0  0  0  0  0  0  0  0  0  0  0  0
   39.2350   27.5480   39.7880 H   0  0  0  0  0  0  0  0  0  0  0  0
   38.0140   25.9700   40.3130 C   0  0  0  0  0  3  0  0  0  0  0  0
   37.1560   25.4220   41.2390 C   0  0  0  0  0  0  0  0  0  0  0  0
   36.4060   23.8600   40.9710 Cl  0  0  0  0  0  0  0  0  0  0  0  0
   36.8680   26.0880   42.3970 C   0  0  0  0  0  0  0  0  0  0  0  0
   36.2080   25.7190   43.1630 H   0  0  0  0  0  0  0  0  0  0  0  0
   36.3250   29.0470   40.6360 S   0  0  0  0  0  0  0  0  0  0  0  0
   33.7280   28.9840   37.5710 C   0  0  0  0  0  0  0  0  0  0  0  0
   34.3050   29.0830   38.8240 C   0  0  0  0  0  0  0  0  0  0  0  0
   35.6520   28.9080   39.0070 C   0  0  0  0  0  0  0  0  0  0  0  0
   36.4660   28.6260   37.9200 C   0  0  0  0  0  0  0  0  0  0  0  0
   35.9370   28.5200   36.6740 C   0  0  0  0  0  0  0  0  0  0  0  0
   34.5770   28.7020   36.5220 C   0  0  0  0  0  0  0  0  0  0  0  0
   33.6310   29.3040   39.6410 H   0  0  0  0  0  0  0  0  0  0  0  0
   37.5310   28.4750   38.0020 H   0  0  0  0  0  0  0  0  0  0  0  0
   36.5050   28.3030   35.7770 H   0  0  0  0  0  0  0  0  0  0  0  0
   34.1330   28.6220   35.5290 H   0  0  0  0  0  0  0  0  0  0  0  0
   30.3140   30.0810   38.3000 C   0  0  0  0  0  0  0  0  0  0  0  0
   29.5740   29.5970   37.1960 C   0  0  0  0  0  0  0  0  0  0  0  0
   30.2500   28.8920   36.2010 C   0  0  0  0  0  0  0  0  0  0  0  0
   31.5980   28.6890   36.3150 N   0  0  0  0  0  0  0  0  0  0  0  0
   32.2780   29.1730   37.3990 C   0  0  0  0  0  0  0  0  0  0  0  0
   31.6360   29.8630   38.3820 N   0  0  0  0  0  0  0  0  0  0  0  0
   29.8250   30.6340   39.0950 H   0  0  0  0  0  0  0  0  0  0  0  0
   28.5090   29.7820   37.1480 H   0  0  0  0  0  0  0  0  0  0  0  0
   29.7200   28.5090   35.3470 H   0  0  0  0  0  0  0  0  0  0  0  0
  1 10  1  0  0  0  0
  2  3  1  0  0  0  0
  2  1  2  0  0  0  0
  3  4  2  0  0  0  0
  4  5  1  0  0  0  0
  5  6  1  0  0  0  0
  6 12  1  0  0  0  0
  6  7  2  0  0  0  0
  7 13  1  0  0  0  0
  8  7  1  0  0  0  0
  8 14  1  0  0  0  0
  9  8  2  0  0  0  0
 10  5  2  0  0  0  0
 10  9  1  0  0  0  0
 11  3  1  0  0  0  0
 16 15  1  0  0  0  0
 17  9  1  0  0  0  0
 17 16  2  0  0  0  0
 18 17  1  0  0  0  0
 19 18  1  0  0  0  0
 20 18  2  0  0  0  0
 20 21  1  0  0  0  0
 21 23  2  0  0  0  0
 22 21  1  0  0  0  0
 23 16  1  0  0  0  0
 23 24  1  0  0  0  0
 25  1  1  0  0  0  0
 26 27  1  0  0  0  0
 27 28  2  0  0  0  0
 27 32  1  0  0  0  0
 28 25  1  0  0  0  0
 29 33  1  0  0  0  0
 29 28  1  0  0  0  0
 30 29  2  0  0  0  0
 31 30  1  0  0  0  0
 31 26  2  0  0  0  0
 34 30  1  0  0  0  0
 35 31  1  0  0  0  0
 36 41  1  0  0  0  0
 36 42  1  0  0  0  0
 37 36  2  0  0  0  0
 38 39  2  0  0  0  0
 38 37  1  0  0  0  0
 39 40  1  0  0  0  0
 40 26  1  0  0  0  0
 40 41  2  0  0  0  0
 43 37  1  0  0  0  0
 44 38  1  0  0  0  0
M  END
>  <minimizedAffinity>
-6.74158955

$$$$

 OpenBabel03242516273D

 44 48  0  0  0  0  0  0  0  0999 V2000
   37.0800   28.9460   41.1650 C   0  0  0  0  0  0  0  0  0  0  0  0
   37.3420   29.4950   42.3800 N   0  0  0  0  0  0  0  0  0  0  0  0
   37.5260   28.7640   43.4860 C   0  0  0  0  0  0  0  0  0  0  0  0
   37.4470   27.4300   43.3730 N   0  0  0  0  0  0  0  0  0  0  0  0
   37.1930   26.7990   42.2060 C   0  0  0  0  0  0  0  0  0  0  0  0
   37.1140   25.4260   42.0920 C   0  0  0  0  0  0  0  0  0  0  0  0
   36.8540   24.8330   40.8810 C   0  0  0  0  0  0  0  0  0  0  0  0
   36.6620   25.5950   39.7220 C   0  0  0  0  0  0  0  0  0  0  0  0
   36.7500   26.9600   39.8890 C   0  0  0  0  0  0  0  0  0  0  0  0
   37.0070   27.5700   41.0890 C   0  0  0  0  0  0  0  0  0  0  0  0
   37.7310   29.2580   44.4280 H   0  0  0  0  0  0  0  0  0  0  0  0
   37.2700   24.8750   43.0110 H   0  0  0  0  0  0  0  0  0  0  0  0
   36.8210   23.7500   40.9350 H   0  0  0  0  0  0  0  0  0  0  0  0
   36.4680   25.0240   38.8440 H   0  0  0  0  0  0  0  0  0  0  0  0
   39.1000   27.6570   38.0600 Cl  0  0  0  0  0  0  0  0  0  0  0  0
   37.4440   28.0180   37.6220 C   0  0  0  0  0  0  0  0  0  0  0  0
   36.5310   27.6100   38.6050 C   0  0  0  0  0  0  0  0  0  0  0  0
   35.1680   27.8540   38.3750 C   0  0  0  0  0  0  0  0  0  0  0  0
   34.3590   27.5870   39.0570 H   0  0  0  0  0  0  0  0  0  0  0  0
   34.7200   28.4720   37.2290 C   0  0  0  0  0  3  0  0  0  0  0  0
   35.6450   28.8580   36.2880 C   0  0  0  0  0  0  0  0  0  0  0  0
   35.1550   29.6520   34.8030 Cl  0  0  0  0  0  0  0  0  0  0  0  0
   36.9770   28.6310   36.4900 C   0  0  0  0  0  0  0  0  0  0  0  0
   37.7540   28.9060   35.7970 H   0  0  0  0  0  0  0  0  0  0  0  0
   36.8220   29.8880   39.6870 S   0  0  0  0  0  0  0  0  0  0  0  0
   40.0150   32.2250   38.9820 C   0  0  0  0  0  0  0  0  0  0  0  0
   39.1280   31.1640   39.0390 C   0  0  0  0  0  0  0  0  0  0  0  0
   37.9060   31.2850   39.6470 C   0  0  0  0  0  0  0  0  0  0  0  0
   37.5360   32.4920   40.2200 C   0  0  0  0  0  0  0  0  0  0  0  0
   38.3770   33.5570   40.1850 C   0  0  0  0  0  0  0  0  0  0  0  0
   39.6020   33.4040   39.5650 C   0  0  0  0  0  0  0  0  0  0  0  0
   39.4610   30.2430   38.5790 H   0  0  0  0  0  0  0  0  0  0  0  0
   36.5890   32.6460   40.7150 H   0  0  0  0  0  0  0  0  0  0  0  0
   38.1620   34.5300   40.6080 H   0  0  0  0  0  0  0  0  0  0  0  0
   40.2920   34.2480   39.5260 H   0  0  0  0  0  0  0  0  0  0  0  0
   42.5420   30.9820   36.6470 C   0  0  0  0  0  0  0  0  0  0  0  0
   43.7060   31.6940   37.0170 C   0  0  0  0  0  0  0  0  0  0  0  0
   43.6210   32.6020   38.0720 C   0  0  0  0  0  0  0  0  0  0  0  0
   42.4270   32.7800   38.7160 N   0  0  0  0  0  0  0  0  0  0  0  0
   41.3240   32.0710   38.3260 C   0  0  0  0  0  0  0  0  0  0  0  0
   41.3860   31.1800   37.2990 N   0  0  0  0  0  0  0  0  0  0  0  0
   42.5660   30.2670   35.8310 H   0  0  0  0  0  0  0  0  0  0  0  0
   44.6290   31.5210   36.4800 H   0  0  0  0  0  0  0  0  0  0  0  0
   44.4860   33.1610   38.3830 H   0  0  0  0  0  0  0  0  0  0  0  0
  1  2  1  0  0  0  0
  2  3  2  0  0  0  0
  3 11  1  0  0  0  0
  4  3  1  0  0  0  0
  5  4  2  0  0  0  0
  6  5  1  0  0  0  0
  6 12  1  0  0  0  0
  7 13  1  0  0  0  0
  7  6  2  0  0  0  0
  8  9  2  0  0  0  0
  8  7  1  0  0  0  0
  9 10  1  0  0  0  0
 10  1  2  0  0  0  0
 10  5  1  0  0  0  0
 14  8  1  0  0  0  0
 16 15  1  0  0  0  0
 16 17  1  0  0  0  0
 17  9  1  0  0  0  0
 18 17  2  0  0  0  0
 18 19  1  0  0  0  0
 20 18  1  0  0  0  0
 21 23  1  0  0  0  0
 21 20  2  0  0  0  0
 22 21  1  0  0  0  0
 23 16  2  0  0  0  0
 24 23  1  0  0  0  0
 25  1  1  0  0  0  0
 26 27  2  0  0  0  0
 26 31  1  0  0  0  0
 27 28  1  0  0  0  0
 28 25  1  0  0  0  0
 28 29  2  0  0  0  0
 29 33  1  0  0  0  0
 30 29  1  0  0  0  0
 30 34  1  0  0  0  0
 31 30  2  0  0  0  0
 32 27  1  0  0  0  0
 35 31  1  0  0  0  0
 36 37  2  0  0  0  0
 36 41  1  0  0  0  0
 37 38  1  0  0  0  0
 38 44  1  0  0  0  0
 38 39  2  0  0  0  0
 40 39  1  0  0  0  0
 40 26  1  0  0  0  0
 41 40  2  0  0  0  0
 42 36  1  0  0  0  0
 43 37  1  0  0  0  0
M  END
>  <minimizedAffinity>
-6.70611191

$$$$

 OpenBabel03242516273D

 44 48  0  0  0  0  0  0  0  0999 V2000
   36.4130   26.9620   39.5130 C   0  0  0  0  0  0  0  0  0  0  0  0
   35.5590   26.7620   38.4760 N   0  0  0  0  0  0  0  0  0  0  0  0
   35.2550   25.5450   38.0050 C   0  0  0  0  0  0  0  0  0  0  0  0
   35.8270   24.4870   38.5980 N   0  0  0  0  0  0  0  0  0  0  0  0
   36.6870   24.5930   39.6350 C   0  0  0  0  0  0  0  0  0  0  0  0
   37.2720   23.5010   40.2430 C   0  0  0  0  0  0  0  0  0  0  0  0
   38.1390   23.6620   41.2960 C   0  0  0  0  0  0  0  0  0  0  0  0
   38.4580   24.9330   41.7910 C   0  0  0  0  0  0  0  0  0  0  0  0
   37.8480   25.9890   41.1490 C   0  0  0  0  0  0  0  0  0  0  0  0
   36.9820   25.8490   40.0960 C   0  0  0  0  0  0  0  0  0  0  0  0
   34.5670   25.4470   37.1750 H   0  0  0  0  0  0  0  0  0  0  0  0
   36.9980   22.5380   39.8310 H   0  0  0  0  0  0  0  0  0  0  0  0
   38.5250   22.7230   41.6790 H   0  0  0  0  0  0  0  0  0  0  0  0
   39.1400   24.9310   42.6090 H   0  0  0  0  0  0  0  0  0  0  0  0
   36.2230   27.2470   43.4130 Cl  0  0  0  0  0  0  0  0  0  0  0  0
   37.6930   27.9800   42.8070 C   0  0  0  0  0  0  0  0  0  0  0  0
   38.2740   27.2340   41.7730 C   0  0  0  0  0  0  0  0  0  0  0  0
   39.4550   27.7240   41.1940 C   0  0  0  0  0  0  0  0  0  0  0  0
   40.0050   27.2390   40.3840 H   0  0  0  0  0  0  0  0  0  0  0  0
   40.0410   28.8960   41.6130 C   0  0  0  0  0  3  0  0  0  0  0  0
   39.4430   29.6020   42.6310 C   0  0  0  0  0  0  0  0  0  0  0  0
   40.1270   31.1050   43.2210 Cl  0  0  0  0  0  0  0  0  0  0  0  0
   38.2920   29.1440   43.2090 C   0  0  0  0  0  0  0  0  0  0  0  0
   37.7710   29.6440   44.0070 H   0  0  0  0  0  0  0  0  0  0  0  0
   36.8420   28.5590   40.1490 S   0  0  0  0  0  0  0  0  0  0  0  0
   38.6920   31.4150   38.0120 C   0  0  0  0  0  0  0  0  0  0  0  0
   38.3100   30.5370   39.0100 C   0  0  0  0  0  0  0  0  0  0  0  0
   37.2790   29.6530   38.8300 C   0  0  0  0  0  0  0  0  0  0  0  0
   36.5940   29.6270   37.6250 C   0  0  0  0  0  0  0  0  0  0  0  0
   36.9380   30.4730   36.6200 C   0  0  0  0  0  0  0  0  0  0  0  0
   37.9820   31.3510   36.8320 C   0  0  0  0  0  0  0  0  0  0  0  0
   38.8730   30.5940   39.9320 H   0  0  0  0  0  0  0  0  0  0  0  0
   35.7720   28.9560   37.4260 H   0  0  0  0  0  0  0  0  0  0  0  0
   36.4530   30.5130   35.6520 H   0  0  0  0  0  0  0  0  0  0  0  0
   38.2730   32.0390   36.0370 H   0  0  0  0  0  0  0  0  0  0  0  0
   41.8450   33.1740   37.4240 C   0  0  0  0  0  0  0  0  0  0  0  0
   41.9270   34.0700   38.5150 C   0  0  0  0  0  0  0  0  0  0  0  0
   40.8960   34.0680   39.4540 C   0  0  0  0  0  0  0  0  0  0  0  0
   39.8420   33.2100   39.2980 N   0  0  0  0  0  0  0  0  0  0  0  0
   39.8010   32.3580   38.2280 C   0  0  0  0  0  0  0  0  0  0  0  0
   40.7980   32.3440   37.3010 N   0  0  0  0  0  0  0  0  0  0  0  0
   42.6270   33.1450   36.6720 H   0  0  0  0  0  0  0  0  0  0  0  0
   42.7790   34.7310   38.5970 H   0  0  0  0  0  0  0  0  0  0  0  0
   40.9240   34.7350   40.2980 H   0  0  0  0  0  0  0  0  0  0  0  0
  1 10  1  0  0  0  0
  1 25  1  0  0  0  0
  2  1  2  0  0  0  0
  3  2  1  0  0  0  0
  3  4  2  0  0  0  0
  4  5  1  0  0  0  0
  5 10  2  0  0  0  0
  5  6  1  0  0  0  0
  6  7  2  0  0  0  0
  7 13  1  0  0  0  0
  7  8  1  0  0  0  0
  8 14  1  0  0  0  0
  9 17  1  0  0  0  0
  9  8  2  0  0  0  0
 10  9  1  0  0  0  0
 11  3  1  0  0  0  0
 12  6  1  0  0  0  0
 16 23  1  0  0  0  0
 16 15  1  0  0  0  0
 17 16  2  0  0  0  0
 18 20  2  0  0  0  0
 18 17  1  0  0  0  0
 19 18  1  0  0  0  0
 20 21  1  0  0  0  0
 21 23  2  0  0  0  0
 21 22  1  0  0  0  0
 23 24  1  0  0  0  0
 26 40  1  0  0  0  0
 26 27  1  0  0  0  0
 27 32  1  0  0  0  0
 28 27  2  0  0  0  0
 28 25  1  0  0  0  0
 29 28  1  0  0  0  0
 30 31  1  0  0  0  0
 30 29  2  0  0  0  0
 31 26  2  0  0  0  0
 33 29  1  0  0  0  0
 34 30  1  0  0  0  0
 35 31  1  0  0  0  0
 36 37  1  0  0  0  0
 37 43  1  0  0  0  0
 37 38  2  0  0  0  0
 38 44  1  0  0  0  0
 39 38  1  0  0  0  0
 40 39  2  0  0  0  0
 41 36  2  0  0  0  0
 41 40  1  0  0  0  0
 42 36  1  0  0  0  0
M  END
>  <minimizedAffinity>
-6.57656384

$$$$

 OpenBabel03242516273D

 44 48  0  0  0  0  0  0  0  0999 V2000
   36.6940   26.7600   38.2720 C   0  0  0  0  0  0  0  0  0  0  0  0
   36.2170   27.3510   37.1460 N   0  0  0  0  0  0  0  0  0  0  0  0
   35.2560   26.8090   36.3880 C   0  0  0  0  0  0  0  0  0  0  0  0
   34.7500   25.6280   36.7730 N   0  0  0  0  0  0  0  0  0  0  0  0
   35.1630   24.9710   37.8790 C   0  0  0  0  0  0  0  0  0  0  0  0
   34.6380   23.7570   38.2740 C   0  0  0  0  0  0  0  0  0  0  0  0
   35.0910   23.1290   39.4080 C   0  0  0  0  0  0  0  0  0  0  0  0
   36.0960   23.6940   40.2030 C   0  0  0  0  0  0  0  0  0  0  0  0
   36.5860   24.9050   39.7650 C   0  0  0  0  0  0  0  0  0  0  0  0
   36.1480   25.5470   38.6360 C   0  0  0  0  0  0  0  0  0  0  0  0
   34.9160   27.3270   35.5000 H   0  0  0  0  0  0  0  0  0  0  0  0
   33.8630   23.3550   37.6320 H   0  0  0  0  0  0  0  0  0  0  0  0
   34.5930   22.1840   39.6010 H   0  0  0  0  0  0  0  0  0  0  0  0
   36.3640   23.1150   41.0550 H   0  0  0  0  0  0  0  0  0  0  0  0
   39.5410   24.3110   39.2470 Cl  0  0  0  0  0  0  0  0  0  0  0  0
   39.0070   25.2050   40.6530 C   0  0  0  0  0  0  0  0  0  0  0  0
   37.6150   25.3630   40.6890 C   0  0  0  0  0  0  0  0  0  0  0  0
   37.0600   26.0560   41.7760 C   0  0  0  0  0  0  0  0  0  0  0  0
   35.9950   26.2470   41.9220 H   0  0  0  0  0  0  0  0  0  0  0  0
   37.8400   26.5730   42.7860 C   0  0  0  0  0  3  0  0  0  0  0  0
   39.2020   26.4000   42.7180 C   0  0  0  0  0  0  0  0  0  0  0  0
   40.2630   27.0270   43.9650 Cl  0  0  0  0  0  0  0  0  0  0  0  0
   39.7640   25.7280   41.6690 C   0  0  0  0  0  0  0  0  0  0  0  0
   40.8200   25.5550   41.5520 H   0  0  0  0  0  0  0  0  0  0  0  0
   37.9720   27.4490   39.2880 S   0  0  0  0  0  0  0  0  0  0  0  0
   38.1020   31.3950   40.0350 C   0  0  0  0  0  0  0  0  0  0  0  0
   38.4020   30.1070   39.6310 C   0  0  0  0  0  0  0  0  0  0  0  0
   37.5250   29.0730   39.8280 C   0  0  0  0  0  0  0  0  0  0  0  0
   36.3050   29.3090   40.4440 C   0  0  0  0  0  0  0  0  0  0  0  0
   35.9740   30.5600   40.8560 C   0  0  0  0  0  0  0  0  0  0  0  0
   36.8780   31.5810   40.6430 C   0  0  0  0  0  0  0  0  0  0  0  0
   39.3640   29.9710   39.1540 H   0  0  0  0  0  0  0  0  0  0  0  0
   35.5760   28.5350   40.6300 H   0  0  0  0  0  0  0  0  0  0  0  0
   35.0430   30.8250   41.3430 H   0  0  0  0  0  0  0  0  0  0  0  0
   36.6300   32.5930   40.9660 H   0  0  0  0  0  0  0  0  0  0  0  0
   39.5530   34.7500   40.1940 C   0  0  0  0  0  0  0  0  0  0  0  0
   40.7650   34.6150   39.4790 C   0  0  0  0  0  0  0  0  0  0  0  0
   41.0830   33.3680   38.9400 C   0  0  0  0  0  0  0  0  0  0  0  0
   40.2240   32.3180   39.1160 N   0  0  0  0  0  0  0  0  0  0  0  0
   39.0610   32.4910   39.8150 C   0  0  0  0  0  0  0  0  0  0  0  0
   38.7320   33.7000   40.3480 N   0  0  0  0  0  0  0  0  0  0  0  0
   39.2700   35.7030   40.6280 H   0  0  0  0  0  0  0  0  0  0  0  0
   41.4140   35.4730   39.3650 H   0  0  0  0  0  0  0  0  0  0  0  0
   41.9960   33.2270   38.3890 H   0  0  0  0  0  0  0  0  0  0  0  0
  1 10  1  0  0  0  0
  1 25  1  0  0  0  0
  2  1  2  0  0  0  0
  3  4  2  0  0  0  0
  3  2  1  0  0  0  0
  4  5  1  0  0  0  0
  5  6  2  0  0  0  0
  5 10  1  0  0  0  0
  6  7  1  0  0  0  0
  7 13  1  0  0  0  0
  7  8  2  0  0  0  0
  8 14  1  0  0  0  0
  9  8  1  0  0  0  0
  9 17  1  0  0  0  0
 10  9  2  0  0  0  0
 11  3  1  0  0  0  0
 12  6  1  0  0  0  0
 15 16  1  0  0  0  0
 16 17  2  0  0  0  0
 16 23  1  0  0  0  0
 17 18  1  0  0  0  0
 18 19  1  0  0  0  0
 18 20  2  0  0  0  0
 21 20  1  0  0  0  0
 21 22  1  0  0  0  0
 23 21  2  0  0  0  0
 24 23  1  0  0  0  0
 25 28  1  0  0  0  0
 26 31  1  0  0  0  0
 27 28  1  0  0  0  0
 27 26  2  0  0  0  0
 28 29  2  0  0  0  0
 29 33  1  0  0  0  0
 29 30  1  0  0  0  0
 30 34  1  0  0  0  0
 31 30  2  0  0  0  0
 31 35  1  0  0  0  0
 32 27  1  0  0  0  0
 36 41  1  0  0  0  0
 36 42  1  0  0  0  0
 37 36  2  0  0  0  0
 38 39  2  0  0  0  0
 38 37  1  0  0  0  0
 39 40  1  0  0  0  0
 40 26  1  0  0  0  0
 40 41  2  0  0  0  0
 43 37  1  0  0  0  0
 44 38  1  0  0  0  0
M  END
>  <minimizedAffinity>
-6.56598568

$$$$

 OpenBabel03242516273D

 44 48  0  0  0  0  0  0  0  0999 V2000
   39.0530   29.5260   42.7380 C   0  0  0  0  0  0  0  0  0  0  0  0
   37.7360   29.3140   42.9920 N   0  0  0  0  0  0  0  0  0  0  0  0
   37.2680   28.1740   43.5160 C   0  0  0  0  0  0  0  0  0  0  0  0
   38.1550   27.2080   43.8000 N   0  0  0  0  0  0  0  0  0  0  0  0
   39.4820   27.3330   43.5820 C   0  0  0  0  0  0  0  0  0  0  0  0
   40.3920   26.3380   43.8760 C   0  0  0  0  0  0  0  0  0  0  0  0
   41.7320   26.5160   43.6370 C   0  0  0  0  0  0  0  0  0  0  0  0
   42.2240   27.7070   43.0890 C   0  0  0  0  0  0  0  0  0  0  0  0
   41.2760   28.6680   42.8130 C   0  0  0  0  0  0  0  0  0  0  0  0
   39.9340   28.5090   43.0440 C   0  0  0  0  0  0  0  0  0  0  0  0
   36.2060   28.0620   43.6960 H   0  0  0  0  0  0  0  0  0  0  0  0
   39.9700   25.4340   44.2980 H   0  0  0  0  0  0  0  0  0  0  0  0
   42.3330   25.6560   43.9150 H   0  0  0  0  0  0  0  0  0  0  0  0
   43.2800   27.7270   42.9500 H   0  0  0  0  0  0  0  0  0  0  0  0
   41.6590   28.9670   39.7940 Cl  0  0  0  0  0  0  0  0  0  0  0  0
   42.2180   30.1800   40.9250 C   0  0  0  0  0  0  0  0  0  0  0  0
   41.9360   29.8400   42.2550 C   0  0  0  0  0  0  0  0  0  0  0  0
   42.3440   30.7300   43.2610 C   0  0  0  0  0  0  0  0  0  0  0  0
   42.1860   30.5830   44.3320 H   0  0  0  0  0  0  0  0  0  0  0  0
   43.0010   31.9050   42.9740 C   0  0  0  0  0  3  0  0  0  0  0  0
   43.2610   32.2060   41.6570 C   0  0  0  0  0  0  0  0  0  0  0  0
   44.0940   33.6820   41.2080 Cl  0  0  0  0  0  0  0  0  0  0  0  0
   42.8730   31.3540   40.6610 C   0  0  0  0  0  0  0  0  0  0  0  0
   43.0430   31.5260   39.6120 H   0  0  0  0  0  0  0  0  0  0  0  0
   39.6990   31.0190   42.0360 S   0  0  0  0  0  0  0  0  0  0  0  0
   37.8090   30.9450   38.4910 C   0  0  0  0  0  0  0  0  0  0  0  0
   38.5490   30.6140   39.6120 C   0  0  0  0  0  0  0  0  0  0  0  0
   38.7400   31.5070   40.6330 C   0  0  0  0  0  0  0  0  0  0  0  0
   38.1840   32.7750   40.5540 C   0  0  0  0  0  0  0  0  0  0  0  0
   37.4510   33.1390   39.4710 C   0  0  0  0  0  0  0  0  0  0  0  0
   37.2760   32.2160   38.4590 C   0  0  0  0  0  0  0  0  0  0  0  0
   38.9630   29.6140   39.6280 H   0  0  0  0  0  0  0  0  0  0  0  0
   38.3030   33.5220   41.3240 H   0  0  0  0  0  0  0  0  0  0  0  0
   36.9850   34.1070   39.3350 H   0  0  0  0  0  0  0  0  0  0  0  0
   36.6900   32.4890   37.5800 H   0  0  0  0  0  0  0  0  0  0  0  0
   38.4530   28.0540   36.3430 C   0  0  0  0  0  0  0  0  0  0  0  0
   37.3780   28.0850   35.4240 C   0  0  0  0  0  0  0  0  0  0  0  0
   36.4320   29.1020   35.5440 C   0  0  0  0  0  0  0  0  0  0  0  0
   36.5640   30.0340   36.5360 N   0  0  0  0  0  0  0  0  0  0  0  0
   37.6190   29.9690   37.4050 C   0  0  0  0  0  0  0  0  0  0  0  0
   38.5540   28.9840   37.3040 N   0  0  0  0  0  0  0  0  0  0  0  0
   39.2100   27.2790   36.2830 H   0  0  0  0  0  0  0  0  0  0  0  0
   37.3140   27.3260   34.6550 H   0  0  0  0  0  0  0  0  0  0  0  0
   35.6000   29.1580   34.8630 H   0  0  0  0  0  0  0  0  0  0  0  0
  1  2  2  0  0  0  0
  1 10  1  0  0  0  0
  2  3  1  0  0  0  0
  3 11  1  0  0  0  0
  3  4  2  0  0  0  0
  5  4  1  0  0  0  0
  5  6  1  0  0  0  0
  6 12  1  0  0  0  0
  7  6  2  0  0  0  0
  7 13  1  0  0  0  0
  8  7  1  0  0  0  0
  9 10  1  0  0  0  0
  9  8  2  0  0  0  0
 10  5  2  0  0  0  0
 14  8  1  0  0  0  0
 15 16  1  0  0  0  0
 16 17  1  0  0  0  0
 17  9  1  0  0  0  0
 17 18  2  0  0  0  0
 18 19  1  0  0  0  0
 20 18  1  0  0  0  0
 21 20  2  0  0  0  0
 22 21  1  0  0  0  0
 23 16  2  0  0  0  0
 23 21  1  0  0  0  0
 24 23  1  0  0  0  0
 25  1  1  0  0  0  0
 26 27  1  0  0  0  0
 27 32  1  0  0  0  0
 27 28  2  0  0  0  0
 28 25  1  0  0  0  0
 29 28  1  0  0  0  0
 29 33  1  0  0  0  0
 30 29  2  0  0  0  0
 31 26  2  0  0  0  0
 31 30  1  0  0  0  0
 34 30  1  0  0  0  0
 35 31  1  0  0  0  0
 36 41  1  0  0  0  0
 37 38  1  0  0  0  0
 37 36  2  0  0  0  0
 38 39  2  0  0  0  0
 39 40  1  0  0  0  0
 40 26  1  0  0  0  0
 41 40  2  0  0  0  0
 42 36  1  0  0  0  0
 43 37  1  0  0  0  0
 44 38  1  0  0  0  0
M  END
>  <minimizedAffinity>
-6.5303998

$$$$
