
 OpenBabel03242514383D

 34 36  0  0  0  0  0  0  0  0999 V2000
   38.5720   33.2760   40.3870 C   0  0  0  0  0  0  0  0  0  0  0  0
   37.6800   34.0750   39.9220 O   0  0  0  0  0  0  0  0  0  0  0  0
   37.9120   31.9740   40.5560 C   0  0  0  0  0  0  0  0  0  0  0  0
   36.5230   31.6920   40.6020 C   0  0  0  0  0  0  0  0  0  0  0  0
   36.1850   30.3940   40.7700 C   0  0  0  0  0  0  0  0  0  0  0  0
   37.1120   29.4260   40.8890 C   0  0  0  0  0  0  0  0  0  0  0  0
   38.7220   30.4190   40.7500 S   0  0  0  0  0  0  0  0  0  0  0  0
   35.8480   32.5280   40.4990 H   0  0  0  0  0  0  0  0  0  0  0  0
   35.1550   30.0650   40.8190 H   0  0  0  0  0  0  0  0  0  0  0  0
   37.3070   28.4250   43.7630 Cl  0  0  0  0  0  0  0  0  0  0  0  0
   37.2470   27.4480   42.3120 C   0  0  0  0  0  0  0  0  0  0  0  0
   37.1590   28.0340   41.0670 C   0  0  0  0  0  0  0  0  0  0  0  0
   37.1080   27.3160   39.8940 C   0  0  0  0  0  0  0  0  0  0  0  0
   37.0400   27.7620   38.9160 H   0  0  0  0  0  0  0  0  0  0  0  0
   37.1480   25.9160   39.9300 C   0  0  0  0  0  3  0  0  0  0  0  0
   37.2350   25.3010   41.1670 C   0  0  0  0  0  0  0  0  0  0  0  0
   37.2870   23.5590   41.2810 Cl  0  0  0  0  0  0  0  0  0  0  0  0
   37.2850   26.0490   42.3350 C   0  0  0  0  0  0  0  0  0  0  0  0
   37.3530   25.5550   43.2940 H   0  0  0  0  0  0  0  0  0  0  0  0
   39.7480   33.8910   40.5500 O   0  0  0  0  0  0  0  0  0  0  0  0
   41.3310   35.3960   39.1860 O   0  0  0  0  0  0  0  0  0  0  0  0
   41.0290   33.9630   39.4950 P   0  0  2  0  0  0  0  0  0  0  0  0
   40.5890   33.1990   38.0670 O   0  0  0  0  0  0  0  0  0  0  0  0
   40.9330   32.2690   38.1040 H   0  0  0  0  0  0  0  0  0  0  0  0
   42.3940   33.1890   40.2010 O   0  0  0  0  0  0  0  0  0  0  0  0
   43.1850   34.6290   41.9550 C   0  0  0  0  0  0  0  0  0  0  0  0
   43.4190   33.9510   40.7620 C   0  0  0  0  0  0  0  0  0  0  0  0
   44.6830   34.0570   40.1580 C   0  0  0  0  0  0  0  0  0  0  0  0
   45.6200   34.8290   40.7860 N   0  0  0  0  0  0  0  0  0  0  0  0
   45.3520   35.4650   41.9370 C   0  0  0  0  0  0  0  0  0  0  0  0
   44.1490   35.3690   42.5170 N   0  0  0  0  0  0  0  0  0  0  0  0
   42.2560   34.6040   42.4810 H   0  0  0  0  0  0  0  0  0  0  0  0
   44.8250   33.5200   39.2400 H   0  0  0  0  0  0  0  0  0  0  0  0
   46.1610   36.0610   42.3710 H   0  0  0  0  0  0  0  0  0  0  0  0
  1 20  1  0  0  0  0
  1  3  1  0  0  0  0
  2  1  2  0  0  0  0
  3  4  2  0  0  0  0
  3  7  1  0  0  0  0
  4  5  1  0  0  0  0
  5  9  1  0  0  0  0
  5  6  2  0  0  0  0
  6 12  1  0  0  0  0
  7  6  1  0  0  0  0
  8  4  1  0  0  0  0
 11 18  1  0  0  0  0
 11 10  1  0  0  0  0
 12 11  2  0  0  0  0
 13 15  2  0  0  0  0
 13 12  1  0  0  0  0
 14 13  1  0  0  0  0
 15 16  1  0  0  0  0
 16 17  1  0  0  0  0
 16 18  2  0  0  0  0
 18 19  1  0  0  0  0
 22 21  2  6  0  0  0
 22 25  1  0  0  0  0
 22 20  1  0  0  0  0
 23 24  1  0  0  0  0
 23 22  1  0  0  0  0
 25 27  1  0  0  0  0
 26 32  1  0  0  0  0
 26 31  1  0  0  0  0
 27 26  2  0  0  0  0
 28 27  1  0  0  0  0
 28 29  2  0  0  0  0
 29 30  1  0  0  0  0
 30 34  1  0  0  0  0
 30 31  2  0  0  0  0
 33 28  1  0  0  0  0
M  END
>  <minimizedAffinity>
-6.1045804

$$$$

 OpenBabel03242514383D

 34 36  0  0  0  0  0  0  0  0999 V2000
   39.7940   34.5360   40.0800 C   0  0  0  0  0  0  0  0  0  0  0  0
   39.2240   35.4770   40.7410 O   0  0  0  0  0  0  0  0  0  0  0  0
   38.9270   33.3560   40.2090 C   0  0  0  0  0  0  0  0  0  0  0  0
   37.5670   33.2200   39.8290 C   0  0  0  0  0  0  0  0  0  0  0  0
   37.0030   32.0140   40.0650 C   0  0  0  0  0  0  0  0  0  0  0  0
   37.6890   31.0040   40.6270 C   0  0  0  0  0  0  0  0  0  0  0  0
   39.3920   31.7970   40.8890 S   0  0  0  0  0  0  0  0  0  0  0  0
   37.0920   34.0810   39.3850 H   0  0  0  0  0  0  0  0  0  0  0  0
   35.9720   31.7990   39.8150 H   0  0  0  0  0  0  0  0  0  0  0  0
   37.1070   29.0130   38.3910 Cl  0  0  0  0  0  0  0  0  0  0  0  0
   37.1940   28.6710   40.1050 C   0  0  0  0  0  0  0  0  0  0  0  0
   37.4680   29.6720   41.0140 C   0  0  0  0  0  0  0  0  0  0  0  0
   37.5480   29.4610   42.3710 C   0  0  0  0  0  0  0  0  0  0  0  0
   37.7600   30.2330   43.0910 H   0  0  0  0  0  0  0  0  0  0  0  0
   37.3460   28.1750   42.8910 C   0  0  0  0  0  3  0  0  0  0  0  0
   37.0710   27.1520   42.0020 C   0  0  0  0  0  0  0  0  0  0  0  0
   36.8100   25.5260   42.5860 Cl  0  0  0  0  0  0  0  0  0  0  0  0
   36.9950   27.3910   40.6370 C   0  0  0  0  0  0  0  0  0  0  0  0
   36.7780   26.5830   39.9540 H   0  0  0  0  0  0  0  0  0  0  0  0
   40.9390   34.9460   39.5250 O   0  0  0  0  0  0  0  0  0  0  0  0
   42.8860   33.2620   39.4370 O   0  0  0  0  0  0  0  0  0  0  0  0
   41.9880   34.0850   38.5670 P   0  0  2  0  0  0  0  0  0  0  0  0
   42.9380   35.1690   37.7070 O   0  0  0  0  0  0  0  0  0  0  0  0
   42.5310   35.2820   36.8100 H   0  0  0  0  0  0  0  0  0  0  0  0
   41.0890   33.0840   37.4940 O   0  0  0  0  0  0  0  0  0  0  0  0
   40.6830   30.7160   37.5850 C   0  0  0  0  0  0  0  0  0  0  0  0
   41.5120   31.7800   37.2350 C   0  0  0  0  0  0  0  0  0  0  0  0
   42.7500   31.5050   36.6320 C   0  0  0  0  0  0  0  0  0  0  0  0
   43.0720   30.1940   36.4210 N   0  0  0  0  0  0  0  0  0  0  0  0
   42.2430   29.1990   36.7730 C   0  0  0  0  0  0  0  0  0  0  0  0
   41.0620   29.4540   37.3490 N   0  0  0  0  0  0  0  0  0  0  0  0
   39.7280   30.8340   38.0460 H   0  0  0  0  0  0  0  0  0  0  0  0
   43.3600   32.3510   36.3770 H   0  0  0  0  0  0  0  0  0  0  0  0
   42.5810   28.1780   36.5660 H   0  0  0  0  0  0  0  0  0  0  0  0
  1  3  1  0  0  0  0
  1  2  2  0  0  0  0
  3  7  1  0  0  0  0
  4  5  1  0  0  0  0
  4  3  2  0  0  0  0
  5  6  2  0  0  0  0
  6  7  1  0  0  0  0
  6 12  1  0  0  0  0
  8  4  1  0  0  0  0
  9  5  1  0  0  0  0
 10 11  1  0  0  0  0
 11 18  2  0  0  0  0
 11 12  1  0  0  0  0
 12 13  2  0  0  0  0
 13 15  1  0  0  0  0
 13 14  1  0  0  0  0
 16 17  1  0  0  0  0
 16 15  2  0  0  0  0
 18 16  1  0  0  0  0
 19 18  1  0  0  0  0
 20  1  1  0  0  0  0
 22 21  2  1  0  0  0
 22 20  1  0  0  0  0
 23 22  1  0  0  0  0
 24 23  1  0  0  0  0
 25 22  1  0  0  0  0
 26 32  1  0  0  0  0
 27 25  1  0  0  0  0
 27 26  2  0  0  0  0
 28 27  1  0  0  0  0
 29 28  2  0  0  0  0
 29 30  1  0  0  0  0
 30 31  2  0  0  0  0
 31 26  1  0  0  0  0
 33 28  1  0  0  0  0
 34 30  1  0  0  0  0
M  END
>  <minimizedAffinity>
-6.07397699

$$$$

 OpenBabel03242514383D

 34 36  0  0  0  0  0  0  0  0999 V2000
   38.0520   32.7970   40.5050 C   0  0  0  0  0  0  0  0  0  0  0  0
   37.3590   33.3730   39.5910 O   0  0  0  0  0  0  0  0  0  0  0  0
   37.4980   31.4440   40.6530 C   0  0  0  0  0  0  0  0  0  0  0  0
   36.1410   31.0630   40.8120 C   0  0  0  0  0  0  0  0  0  0  0  0
   35.9060   29.7370   40.9290 C   0  0  0  0  0  0  0  0  0  0  0  0
   36.9010   28.8320   40.8980 C   0  0  0  0  0  0  0  0  0  0  0  0
   38.4210   29.9410   40.6700 S   0  0  0  0  0  0  0  0  0  0  0  0
   35.4070   31.8540   40.8270 H   0  0  0  0  0  0  0  0  0  0  0  0
   34.9090   29.3340   41.0550 H   0  0  0  0  0  0  0  0  0  0  0  0
   37.0050   27.6390   43.7030 Cl  0  0  0  0  0  0  0  0  0  0  0  0
   37.1160   26.7710   42.1880 C   0  0  0  0  0  0  0  0  0  0  0  0
   37.0540   27.4380   40.9830 C   0  0  0  0  0  0  0  0  0  0  0  0
   37.1350   26.8070   39.7620 C   0  0  0  0  0  0  0  0  0  0  0  0
   37.0890   27.3170   38.8150 H   0  0  0  0  0  0  0  0  0  0  0  0
   37.2910   25.4160   39.7050 C   0  0  0  0  0  3  0  0  0  0  0  0
   37.3550   24.7210   40.9000 C   0  0  0  0  0  0  0  0  0  0  0  0
   37.5480   22.9840   40.8960 Cl  0  0  0  0  0  0  0  0  0  0  0  0
   37.2710   25.3810   42.1170 C   0  0  0  0  0  0  0  0  0  0  0  0
   37.3230   24.8250   43.0420 H   0  0  0  0  0  0  0  0  0  0  0  0
   39.0040   33.6050   40.9860 O   0  0  0  0  0  0  0  0  0  0  0  0
   40.3220   35.7910   41.3290 O   0  0  0  0  0  0  0  0  0  0  0  0
   39.6720   34.9490   40.2750 P   0  0  2  0  0  0  0  0  0  0  0  0
   38.4410   35.8480   39.5700 O   0  0  0  0  0  0  0  0  0  0  0  0
   38.4040   35.6080   38.6090 H   0  0  0  0  0  0  0  0  0  0  0  0
   40.8180   34.4580   39.0890 O   0  0  0  0  0  0  0  0  0  0  0  0
   40.5330   32.4030   37.8760 C   0  0  0  0  0  0  0  0  0  0  0  0
   41.1200   33.1060   38.9250 C   0  0  0  0  0  0  0  0  0  0  0  0
   41.9980   32.4300   39.7890 C   0  0  0  0  0  0  0  0  0  0  0  0
   42.2280   31.1050   39.5440 N   0  0  0  0  0  0  0  0  0  0  0  0
   41.6420   30.4660   38.5190 C   0  0  0  0  0  0  0  0  0  0  0  0
   40.8030   31.1040   37.6940 N   0  0  0  0  0  0  0  0  0  0  0  0
   39.8560   32.8370   37.1750 H   0  0  0  0  0  0  0  0  0  0  0  0
   42.4300   33.0060   40.5850 H   0  0  0  0  0  0  0  0  0  0  0  0
   41.8830   29.4050   38.3970 H   0  0  0  0  0  0  0  0  0  0  0  0
  1  3  1  0  0  0  0
  1 20  1  0  0  0  0
  2  1  2  0  0  0  0
  3  7  1  0  0  0  0
  3  4  2  0  0  0  0
  4  8  1  0  0  0  0
  4  5  1  0  0  0  0
  5  9  1  0  0  0  0
  6  5  2  0  0  0  0
  6 12  1  0  0  0  0
  7  6  1  0  0  0  0
 11 10  1  0  0  0  0
 12 11  2  0  0  0  0
 13 12  1  0  0  0  0
 14 13  1  0  0  0  0
 15 13  2  0  0  0  0
 15 16  1  0  0  0  0
 16 18  2  0  0  0  0
 17 16  1  0  0  0  0
 18 11  1  0  0  0  0
 18 19  1  0  0  0  0
 22 20  1  0  0  0  0
 22 21  2  1  0  0  0
 23 22  1  0  0  0  0
 24 23  1  0  0  0  0
 25 22  1  0  0  0  0
 26 27  1  0  0  0  0
 27 25  1  0  0  0  0
 27 28  2  0  0  0  0
 28 33  1  0  0  0  0
 29 28  1  0  0  0  0
 30 29  2  0  0  0  0
 31 26  2  0  0  0  0
 31 30  1  0  0  0  0
 32 26  1  0  0  0  0
 34 30  1  0  0  0  0
M  END
>  <minimizedAffinity>
-5.9970479

$$$$

 OpenBabel03242514383D

 34 36  0  0  0  0  0  0  0  0999 V2000
   37.2900   31.9820   39.2630 C   0  0  0  0  0  0  0  0  0  0  0  0
   37.2300   31.9940   37.9800 O   0  0  0  0  0  0  0  0  0  0  0  0
   36.9060   30.6270   39.6820 C   0  0  0  0  0  0  0  0  0  0  0  0
   35.6990   30.2080   40.2990 C   0  0  0  0  0  0  0  0  0  0  0  0
   35.6060   28.8890   40.5840 C   0  0  0  0  0  0  0  0  0  0  0  0
   36.5990   28.0270   40.3030 C   0  0  0  0  0  0  0  0  0  0  0  0
   37.8880   29.1720   39.5140 S   0  0  0  0  0  0  0  0  0  0  0  0
   34.9550   30.9650   40.4900 H   0  0  0  0  0  0  0  0  0  0  0  0
   34.7310   28.4590   41.0550 H   0  0  0  0  0  0  0  0  0  0  0  0
   37.0790   27.0040   43.1350 Cl  0  0  0  0  0  0  0  0  0  0  0  0
   37.1030   26.0620   41.6600 C   0  0  0  0  0  0  0  0  0  0  0  0
   36.8670   26.6550   40.4380 C   0  0  0  0  0  0  0  0  0  0  0  0
   36.8720   25.9640   39.2480 C   0  0  0  0  0  0  0  0  0  0  0  0
   36.6910   26.4160   38.2870 H   0  0  0  0  0  0  0  0  0  0  0  0
   37.1280   24.5860   39.2410 C   0  0  0  0  0  3  0  0  0  0  0  0
   37.3670   23.9650   40.4550 C   0  0  0  0  0  0  0  0  0  0  0  0
   37.6910   22.2500   40.5150 Cl  0  0  0  0  0  0  0  0  0  0  0  0
   37.3560   24.6850   41.6410 C   0  0  0  0  0  0  0  0  0  0  0  0
   37.5440   24.1870   42.5810 H   0  0  0  0  0  0  0  0  0  0  0  0
   37.6670   33.1690   39.7500 O   0  0  0  0  0  0  0  0  0  0  0  0
   39.5880   32.3420   41.2530 O   0  0  0  0  0  0  0  0  0  0  0  0
   39.0720   33.5570   40.5480 P   0  0  2  0  0  0  0  0  0  0  0  0
   38.7250   34.7270   41.7010 O   0  0  0  0  0  0  0  0  0  0  0  0
   38.9420   35.6120   41.3080 H   0  0  0  0  0  0  0  0  0  0  0  0
   40.2270   34.1460   39.4160 O   0  0  0  0  0  0  0  0  0  0  0  0
   42.4370   33.4060   38.8280 C   0  0  0  0  0  0  0  0  0  0  0  0
   41.5890   34.0760   39.7060 C   0  0  0  0  0  0  0  0  0  0  0  0
   42.1340   34.6630   40.8610 C   0  0  0  0  0  0  0  0  0  0  0  0
   43.4820   34.5380   41.0560 N   0  0  0  0  0  0  0  0  0  0  0  0
   44.2630   33.8840   40.1820 C   0  0  0  0  0  0  0  0  0  0  0  0
   43.7490   33.3230   39.0810 N   0  0  0  0  0  0  0  0  0  0  0  0
   42.1080   32.9330   37.9300 H   0  0  0  0  0  0  0  0  0  0  0  0
   41.4490   35.1700   41.5130 H   0  0  0  0  0  0  0  0  0  0  0  0
   45.3310   33.8340   40.4170 H   0  0  0  0  0  0  0  0  0  0  0  0
  1  3  1  0  0  0  0
  1 20  1  0  0  0  0
  2  1  2  0  0  0  0
  3  4  2  0  0  0  0
  4  8  1  0  0  0  0
  4  5  1  0  0  0  0
  5  9  1  0  0  0  0
  6 12  1  0  0  0  0
  6  5  2  0  0  0  0
  7  3  1  0  0  0  0
  7  6  1  0  0  0  0
 11 10  1  0  0  0  0
 12 11  2  0  0  0  0
 13 12  1  0  0  0  0
 14 13  1  0  0  0  0
 15 13  2  0  0  0  0
 15 16  1  0  0  0  0
 16 17  1  0  0  0  0
 16 18  2  0  0  0  0
 18 11  1  0  0  0  0
 18 19  1  0  0  0  0
 20 22  1  0  0  0  0
 22 21  2  1  0  0  0
 22 23  1  0  0  0  0
 24 23  1  0  0  0  0
 25 27  1  0  0  0  0
 25 22  1  0  0  0  0
 26 31  2  0  0  0  0
 26 27  1  0  0  0  0
 27 28  2  0  0  0  0
 28 29  1  0  0  0  0
 28 33  1  0  0  0  0
 30 34  1  0  0  0  0
 30 29  2  0  0  0  0
 31 30  1  0  0  0  0
 32 26  1  0  0  0  0
M  END
>  <minimizedAffinity>
-5.9743495

$$$$

 OpenBabel03242514383D

 34 36  0  0  0  0  0  0  0  0999 V2000
   39.6420   34.3160   39.9870 C   0  0  0  0  0  0  0  0  0  0  0  0
   38.9350   35.3130   40.3790 O   0  0  0  0  0  0  0  0  0  0  0  0
   38.8100   33.1190   40.1710 C   0  0  0  0  0  0  0  0  0  0  0  0
   37.4210   32.9690   39.9240 C   0  0  0  0  0  0  0  0  0  0  0  0
   36.9000   31.7490   40.1840 C   0  0  0  0  0  0  0  0  0  0  0  0
   37.6540   30.7370   40.6510 C   0  0  0  0  0  0  0  0  0  0  0  0
   39.3620   31.5520   40.7630 S   0  0  0  0  0  0  0  0  0  0  0  0
   36.8910   33.8320   39.5500 H   0  0  0  0  0  0  0  0  0  0  0  0
   35.8530   31.5220   40.0320 H   0  0  0  0  0  0  0  0  0  0  0  0
   37.6740   28.6830   38.3960 Cl  0  0  0  0  0  0  0  0  0  0  0  0
   37.4800   28.3640   40.1060 C   0  0  0  0  0  0  0  0  0  0  0  0
   37.4910   29.3930   41.0240 C   0  0  0  0  0  0  0  0  0  0  0  0
   37.3430   29.2010   42.3790 C   0  0  0  0  0  0  0  0  0  0  0  0
   37.3490   29.9960   43.1050 H   0  0  0  0  0  0  0  0  0  0  0  0
   37.1710   27.9060   42.8860 C   0  0  0  0  0  3  0  0  0  0  0  0
   37.1580   26.8540   41.9870 C   0  0  0  0  0  0  0  0  0  0  0  0
   36.9480   25.2150   42.5540 Cl  0  0  0  0  0  0  0  0  0  0  0  0
   37.3090   27.0750   40.6250 C   0  0  0  0  0  0  0  0  0  0  0  0
   37.2960   26.2440   39.9350 H   0  0  0  0  0  0  0  0  0  0  0  0
   40.8500   34.7050   39.5630 O   0  0  0  0  0  0  0  0  0  0  0  0
   42.5750   35.0390   37.6790 O   0  0  0  0  0  0  0  0  0  0  0  0
   41.8280   33.9810   38.4310 P   0  0  2  0  0  0  0  0  0  0  0  0
   40.8590   33.1480   37.3420 O   0  0  0  0  0  0  0  0  0  0  0  0
   40.8310   32.1990   37.6290 H   0  0  0  0  0  0  0  0  0  0  0  0
   42.9150   32.9070   39.2200 O   0  0  0  0  0  0  0  0  0  0  0  0
   44.8530   33.9770   40.1570 C   0  0  0  0  0  0  0  0  0  0  0  0
   43.6320   33.3330   40.3390 C   0  0  0  0  0  0  0  0  0  0  0  0
   43.1600   33.1310   41.6460 C   0  0  0  0  0  0  0  0  0  0  0  0
   43.9370   33.5840   42.6750 N   0  0  0  0  0  0  0  0  0  0  0  0
   45.1080   34.2020   42.4540 C   0  0  0  0  0  0  0  0  0  0  0  0
   45.5630   34.3970   41.2110 N   0  0  0  0  0  0  0  0  0  0  0  0
   45.2860   34.1720   39.2010 H   0  0  0  0  0  0  0  0  0  0  0  0
   42.2160   32.6300   41.7450 H   0  0  0  0  0  0  0  0  0  0  0  0
   45.6650   34.5340   43.3370 H   0  0  0  0  0  0  0  0  0  0  0  0
  1  3  1  0  0  0  0
  1  2  2  0  0  0  0
  3  7  1  0  0  0  0
  4  3  2  0  0  0  0
  4  5  1  0  0  0  0
  5  6  2  0  0  0  0
  6  7  1  0  0  0  0
  6 12  1  0  0  0  0
  8  4  1  0  0  0  0
  9  5  1  0  0  0  0
 10 11  1  0  0  0  0
 11 18  2  0  0  0  0
 11 12  1  0  0  0  0
 12 13  2  0  0  0  0
 13 15  1  0  0  0  0
 13 14  1  0  0  0  0
 16 17  1  0  0  0  0
 16 15  2  0  0  0  0
 18 16  1  0  0  0  0
 19 18  1  0  0  0  0
 20  1  1  0  0  0  0
 22 21  2  6  0  0  0
 22 25  1  0  0  0  0
 22 20  1  0  0  0  0
 23 24  1  0  0  0  0
 23 22  1  0  0  0  0
 25 27  1  0  0  0  0
 26 27  2  0  0  0  0
 26 31  1  0  0  0  0
 27 28  1  0  0  0  0
 28 33  1  0  0  0  0
 28 29  2  0  0  0  0
 30 29  1  0  0  0  0
 30 34  1  0  0  0  0
 31 30  2  0  0  0  0
 32 26  1  0  0  0  0
M  END
>  <minimizedAffinity>
-5.91278362

$$$$

 OpenBabel03242514383D

 34 36  0  0  0  0  0  0  0  0999 V2000
   37.4890   30.3240   41.3860 C   0  0  0  0  0  0  0  0  0  0  0  0
   36.2910   30.7720   41.2720 O   0  0  0  0  0  0  0  0  0  0  0  0
   37.3710   28.8700   41.5600 C   0  0  0  0  0  0  0  0  0  0  0  0
   37.0250   28.1500   42.7330 C   0  0  0  0  0  0  0  0  0  0  0  0
   36.9920   26.8040   42.6150 C   0  0  0  0  0  0  0  0  0  0  0  0
   37.2720   26.1830   41.4560 C   0  0  0  0  0  0  0  0  0  0  0  0
   37.6450   27.6510   40.3150 S   0  0  0  0  0  0  0  0  0  0  0  0
   36.8150   28.7280   43.6200 H   0  0  0  0  0  0  0  0  0  0  0  0
   36.7400   26.1560   43.4450 H   0  0  0  0  0  0  0  0  0  0  0  0
   39.6580   24.5100   42.3560 Cl  0  0  0  0  0  0  0  0  0  0  0  0
   38.3680   24.0080   41.2850 C   0  0  0  0  0  0  0  0  0  0  0  0
   37.3430   24.8710   40.9590 C   0  0  0  0  0  0  0  0  0  0  0  0
   36.3040   24.5310   40.1230 C   0  0  0  0  0  0  0  0  0  0  0  0
   35.4990   25.1950   39.8600 H   0  0  0  0  0  0  0  0  0  0  0  0
   36.2550   23.2500   39.5570 C   0  0  0  0  0  3  0  0  0  0  0  0
   37.2700   22.3630   39.8690 C   0  0  0  0  0  0  0  0  0  0  0  0
   37.2660   20.7510   39.1960 Cl  0  0  0  0  0  0  0  0  0  0  0  0
   38.3070   22.7320   40.7140 C   0  0  0  0  0  0  0  0  0  0  0  0
   39.0930   22.0290   40.9480 H   0  0  0  0  0  0  0  0  0  0  0  0
   38.3930   31.3070   41.3100 O   0  0  0  0  0  0  0  0  0  0  0  0
   39.1430   33.7500   40.9920 O   0  0  0  0  0  0  0  0  0  0  0  0
   38.3800   32.6470   40.3280 P   0  0  2  0  0  0  0  0  0  0  0  0
   36.7900   33.1500   40.1330 O   0  0  0  0  0  0  0  0  0  0  0  0
   36.4560   32.7720   39.2800 H   0  0  0  0  0  0  0  0  0  0  0  0
   39.0790   32.2470   38.8080 O   0  0  0  0  0  0  0  0  0  0  0  0
   39.5530   30.0820   37.8760 C   0  0  0  0  0  0  0  0  0  0  0  0
   38.6490   31.1150   38.1160 C   0  0  0  0  0  0  0  0  0  0  0  0
   37.3300   30.9840   37.6500 C   0  0  0  0  0  0  0  0  0  0  0  0
   37.0080   29.8360   36.9820 N   0  0  0  0  0  0  0  0  0  0  0  0
   37.9110   28.8640   36.7740 C   0  0  0  0  0  0  0  0  0  0  0  0
   39.1690   28.9830   37.2140 N   0  0  0  0  0  0  0  0  0  0  0  0
   40.5710   30.0980   38.1940 H   0  0  0  0  0  0  0  0  0  0  0  0
   36.6650   31.8000   37.8540 H   0  0  0  0  0  0  0  0  0  0  0  0
   37.5660   27.9790   36.2300 H   0  0  0  0  0  0  0  0  0  0  0  0
  1  3  1  0  0  0  0
  2  1  2  0  0  0  0
  3  4  2  0  0  0  0
  4  8  1  0  0  0  0
  5  4  1  0  0  0  0
  5  9  1  0  0  0  0
  6  5  2  0  0  0  0
  7  6  1  0  0  0  0
  7  3  1  0  0  0  0
 11 10  1  0  0  0  0
 12 11  1  0  0  0  0
 12  6  1  0  0  0  0
 13 12  2  0  0  0  0
 14 13  1  0  0  0  0
 15 16  2  0  0  0  0
 15 13  1  0  0  0  0
 16 18  1  0  0  0  0
 17 16  1  0  0  0  0
 18 19  1  0  0  0  0
 18 11  2  0  0  0  0
 20  1  1  0  0  0  0
 22 21  2  1  0  0  0
 22 20  1  0  0  0  0
 23 22  1  0  0  0  0
 24 23  1  0  0  0  0
 25 22  1  0  0  0  0
 26 27  1  0  0  0  0
 26 32  1  0  0  0  0
 27 25  1  0  0  0  0
 28 33  1  0  0  0  0
 28 27  2  0  0  0  0
 29 28  1  0  0  0  0
 30 29  2  0  0  0  0
 30 31  1  0  0  0  0
 31 26  2  0  0  0  0
 34 30  1  0  0  0  0
M  END
>  <minimizedAffinity>
-5.74032974

$$$$

 OpenBabel03242514383D

 34 36  0  0  0  0  0  0  0  0999 V2000
   39.5610   31.0720   42.0570 C   0  0  0  0  0  0  0  0  0  0  0  0
   40.5820   31.1220   42.8340 O   0  0  0  0  0  0  0  0  0  0  0  0
   39.0150   29.7130   42.1790 C   0  0  0  0  0  0  0  0  0  0  0  0
   38.2630   29.1610   43.2480 C   0  0  0  0  0  0  0  0  0  0  0  0
   37.8840   27.8720   43.1030 C   0  0  0  0  0  0  0  0  0  0  0  0
   38.2010   27.1540   42.0110 C   0  0  0  0  0  0  0  0  0  0  0  0
   39.1780   28.4200   40.9920 S   0  0  0  0  0  0  0  0  0  0  0  0
   38.0530   29.8070   44.0870 H   0  0  0  0  0  0  0  0  0  0  0  0
   37.3070   27.3500   43.8560 H   0  0  0  0  0  0  0  0  0  0  0  0
   40.0020   24.9700   43.1450 Cl  0  0  0  0  0  0  0  0  0  0  0  0
   38.7470   24.7760   41.9410 C   0  0  0  0  0  0  0  0  0  0  0  0
   38.0020   25.8550   41.5150 C   0  0  0  0  0  0  0  0  0  0  0  0
   37.0040   25.7610   40.5730 C   0  0  0  0  0  0  0  0  0  0  0  0
   36.4160   26.5960   40.2310 H   0  0  0  0  0  0  0  0  0  0  0  0
   36.7030   24.5210   39.9950 C   0  0  0  0  0  3  0  0  0  0  0  0
   37.4350   23.4200   40.4050 C   0  0  0  0  0  0  0  0  0  0  0  0
   37.1080   21.8450   39.7250 Cl  0  0  0  0  0  0  0  0  0  0  0  0
   38.4370   23.5420   41.3580 C   0  0  0  0  0  0  0  0  0  0  0  0
   39.0000   22.6740   41.6680 H   0  0  0  0  0  0  0  0  0  0  0  0
   39.3600   32.2360   41.4310 O   0  0  0  0  0  0  0  0  0  0  0  0
   39.7180   31.4610   39.0000 O   0  0  0  0  0  0  0  0  0  0  0  0
   39.0220   32.4980   39.8250 P   0  0  2  0  0  0  0  0  0  0  0  0
   39.6230   34.0050   39.3920 O   0  0  0  0  0  0  0  0  0  0  0  0
   38.8760   34.6550   39.4470 H   0  0  0  0  0  0  0  0  0  0  0  0
   37.3200   32.4330   39.5830 O   0  0  0  0  0  0  0  0  0  0  0  0
   36.0740   30.6970   40.6830 C   0  0  0  0  0  0  0  0  0  0  0  0
   36.6670   31.2010   39.5290 C   0  0  0  0  0  0  0  0  0  0  0  0
   36.5910   30.4510   38.3440 C   0  0  0  0  0  0  0  0  0  0  0  0
   35.9310   29.2560   38.3940 N   0  0  0  0  0  0  0  0  0  0  0  0
   35.3710   28.8070   39.5300 C   0  0  0  0  0  0  0  0  0  0  0  0
   35.4410   29.5170   40.6620 N   0  0  0  0  0  0  0  0  0  0  0  0
   36.0830   31.1990   41.6250 H   0  0  0  0  0  0  0  0  0  0  0  0
   37.0610   30.8730   37.4760 H   0  0  0  0  0  0  0  0  0  0  0  0
   34.8610   27.8400   39.4790 H   0  0  0  0  0  0  0  0  0  0  0  0
  1  3  1  0  0  0  0
  1  2  2  0  0  0  0
  3  4  2  0  0  0  0
  4  8  1  0  0  0  0
  5  4  1  0  0  0  0
  5  9  1  0  0  0  0
  6  5  2  0  0  0  0
  7  6  1  0  0  0  0
  7  3  1  0  0  0  0
 11 10  1  0  0  0  0
 12 11  1  0  0  0  0
 12  6  1  0  0  0  0
 13 12  2  0  0  0  0
 14 13  1  0  0  0  0
 15 16  2  0  0  0  0
 15 13  1  0  0  0  0
 16 18  1  0  0  0  0
 17 16  1  0  0  0  0
 18 19  1  0  0  0  0
 18 11  2  0  0  0  0
 20  1  1  0  0  0  0
 22 21  2  6  0  0  0
 22 20  1  0  0  0  0
 23 24  1  0  0  0  0
 23 22  1  0  0  0  0
 25 22  1  0  0  0  0
 26 32  1  0  0  0  0
 27 25  1  0  0  0  0
 27 26  2  0  0  0  0
 28 29  2  0  0  0  0
 28 27  1  0  0  0  0
 29 30  1  0  0  0  0
 30 31  2  0  0  0  0
 31 26  1  0  0  0  0
 33 28  1  0  0  0  0
 34 30  1  0  0  0  0
M  END
>  <minimizedAffinity>
-5.72441864

$$$$

 OpenBabel03242514383D

 34 36  0  0  0  0  0  0  0  0999 V2000
   38.1100   32.6620   40.5470 C   0  0  0  0  0  0  0  0  0  0  0  0
   37.3260   33.3400   39.7890 O   0  0  0  0  0  0  0  0  0  0  0  0
   37.5210   31.3200   40.6550 C   0  0  0  0  0  0  0  0  0  0  0  0
   36.1990   30.9690   41.0340 C   0  0  0  0  0  0  0  0  0  0  0  0
   35.9190   29.6460   41.0530 C   0  0  0  0  0  0  0  0  0  0  0  0
   36.8380   28.7180   40.7350 C   0  0  0  0  0  0  0  0  0  0  0  0
   38.3470   29.7950   40.3350 S   0  0  0  0  0  0  0  0  0  0  0  0
   35.5250   31.7770   41.2730 H   0  0  0  0  0  0  0  0  0  0  0  0
   34.9430   29.2660   41.3260 H   0  0  0  0  0  0  0  0  0  0  0  0
   36.0590   27.4780   38.0590 Cl  0  0  0  0  0  0  0  0  0  0  0  0
   36.6060   26.6310   39.4900 C   0  0  0  0  0  0  0  0  0  0  0  0
   36.9290   27.3190   40.6410 C   0  0  0  0  0  0  0  0  0  0  0  0
   37.3640   26.7070   41.7930 C   0  0  0  0  0  0  0  0  0  0  0  0
   37.6170   27.2330   42.6980 H   0  0  0  0  0  0  0  0  0  0  0  0
   37.4970   25.3120   41.8350 C   0  0  0  0  0  3  0  0  0  0  0  0
   37.1820   24.5960   40.6930 C   0  0  0  0  0  0  0  0  0  0  0  0
   37.3280   22.8560   40.6800 Cl  0  0  0  0  0  0  0  0  0  0  0  0
   36.7450   25.2390   39.5440 C   0  0  0  0  0  0  0  0  0  0  0  0
   36.5020   24.6670   38.6600 H   0  0  0  0  0  0  0  0  0  0  0  0
   39.1520   33.3910   40.9580 O   0  0  0  0  0  0  0  0  0  0  0  0
   40.9590   35.2250   41.0600 O   0  0  0  0  0  0  0  0  0  0  0  0
   39.9450   34.6060   40.1480 P   0  0  2  0  0  0  0  0  0  0  0  0
   38.8280   35.7850   39.7260 O   0  0  0  0  0  0  0  0  0  0  0  0
   38.5500   35.6170   38.7890 H   0  0  0  0  0  0  0  0  0  0  0  0
   40.7000   33.9570   38.7440 O   0  0  0  0  0  0  0  0  0  0  0  0
   42.4760   32.5480   39.5430 C   0  0  0  0  0  0  0  0  0  0  0  0
   42.0550   33.6260   38.7680 C   0  0  0  0  0  0  0  0  0  0  0  0
   43.0110   34.3480   38.0340 C   0  0  0  0  0  0  0  0  0  0  0  0
   44.3130   33.9440   38.1250 N   0  0  0  0  0  0  0  0  0  0  0  0
   44.6760   32.8980   38.8840 C   0  0  0  0  0  0  0  0  0  0  0  0
   43.7700   32.2070   39.5860 N   0  0  0  0  0  0  0  0  0  0  0  0
   41.8200   31.9460   40.1310 H   0  0  0  0  0  0  0  0  0  0  0  0
   42.6470   35.1710   37.4490 H   0  0  0  0  0  0  0  0  0  0  0  0
   45.7410   32.6440   38.8970 H   0  0  0  0  0  0  0  0  0  0  0  0
  1  3  1  0  0  0  0
  1 20  1  0  0  0  0
  2  1  2  0  0  0  0
  3  4  2  0  0  0  0
  4  5  1  0  0  0  0
  4  8  1  0  0  0  0
  5  9  1  0  0  0  0
  6  5  2  0  0  0  0
  7  3  1  0  0  0  0
  7  6  1  0  0  0  0
 10 11  1  0  0  0  0
 11 18  2  0  0  0  0
 11 12  1  0  0  0  0
 12  6  1  0  0  0  0
 12 13  2  0  0  0  0
 13 15  1  0  0  0  0
 13 14  1  0  0  0  0
 16 15  2  0  0  0  0
 17 16  1  0  0  0  0
 18 16  1  0  0  0  0
 19 18  1  0  0  0  0
 22 20  1  0  0  0  0
 22 21  2  1  0  0  0
 23 22  1  0  0  0  0
 24 23  1  0  0  0  0
 25 27  1  0  0  0  0
 25 22  1  0  0  0  0
 26 31  1  0  0  0  0
 26 32  1  0  0  0  0
 27 26  2  0  0  0  0
 28 29  2  0  0  0  0
 28 27  1  0  0  0  0
 29 30  1  0  0  0  0
 30 34  1  0  0  0  0
 30 31  2  0  0  0  0
 33 28  1  0  0  0  0
M  END
>  <minimizedAffinity>
-5.61512518

$$$$

 OpenBabel03242514383D

 34 36  0  0  0  0  0  0  0  0999 V2000
   38.3550   31.3630   41.1560 C   0  0  0  0  0  0  0  0  0  0  0  0
   37.2070   31.8230   40.8120 O   0  0  0  0  0  0  0  0  0  0  0  0
   38.1460   29.9490   41.5000 C   0  0  0  0  0  0  0  0  0  0  0  0
   37.6930   29.4020   42.7280 C   0  0  0  0  0  0  0  0  0  0  0  0
   37.5920   28.0550   42.7770 C   0  0  0  0  0  0  0  0  0  0  0  0
   37.9050   27.2790   41.7240 C   0  0  0  0  0  0  0  0  0  0  0  0
   38.4250   28.5700   40.4370 S   0  0  0  0  0  0  0  0  0  0  0  0
   37.4640   30.0970   43.5220 H   0  0  0  0  0  0  0  0  0  0  0  0
   37.2570   27.5310   43.6620 H   0  0  0  0  0  0  0  0  0  0  0  0
   40.0560   25.5960   43.0820 Cl  0  0  0  0  0  0  0  0  0  0  0  0
   38.8520   25.0390   41.9400 C   0  0  0  0  0  0  0  0  0  0  0  0
   37.9320   25.9120   41.3990 C   0  0  0  0  0  0  0  0  0  0  0  0
   36.9640   25.5310   40.4980 C   0  0  0  0  0  0  0  0  0  0  0  0
   36.2420   26.2030   40.0680 H   0  0  0  0  0  0  0  0  0  0  0  0
   36.8820   24.1940   40.0870 C   0  0  0  0  0  3  0  0  0  0  0  0
   37.7920   23.2950   40.6160 C   0  0  0  0  0  0  0  0  0  0  0  0
   37.7410   21.6140   40.1450 Cl  0  0  0  0  0  0  0  0  0  0  0  0
   38.7590   23.7060   41.5230 C   0  0  0  0  0  0  0  0  0  0  0  0
   39.4630   22.9940   41.9260 H   0  0  0  0  0  0  0  0  0  0  0  0
   39.3050   32.3010   41.0830 O   0  0  0  0  0  0  0  0  0  0  0  0
   38.9280   34.7510   40.3860 O   0  0  0  0  0  0  0  0  0  0  0  0
   39.5220   33.4610   39.9140 P   0  0  2  0  0  0  0  0  0  0  0  0
   38.7050   32.9820   38.5280 O   0  0  0  0  0  0  0  0  0  0  0  0
   39.3600   32.5430   37.9270 H   0  0  0  0  0  0  0  0  0  0  0  0
   41.2030   33.6420   39.5940 O   0  0  0  0  0  0  0  0  0  0  0  0
   42.2190   35.2260   41.0890 C   0  0  0  0  0  0  0  0  0  0  0  0
   42.0880   33.9150   40.6360 C   0  0  0  0  0  0  0  0  0  0  0  0
   42.8550   32.9070   41.2450 C   0  0  0  0  0  0  0  0  0  0  0  0
   43.6940   33.2780   42.2580 N   0  0  0  0  0  0  0  0  0  0  0  0
   43.7880   34.5540   42.6640 C   0  0  0  0  0  0  0  0  0  0  0  0
   43.0610   35.5190   42.0880 N   0  0  0  0  0  0  0  0  0  0  0  0
   41.6770   36.0510   40.6850 H   0  0  0  0  0  0  0  0  0  0  0  0
   42.7260   31.9110   40.8690 H   0  0  0  0  0  0  0  0  0  0  0  0
   44.4860   34.7610   43.4830 H   0  0  0  0  0  0  0  0  0  0  0  0
  1  3  1  0  0  0  0
  2  1  2  0  0  0  0
  3  4  2  0  0  0  0
  4  5  1  0  0  0  0
  4  8  1  0  0  0  0
  5  9  1  0  0  0  0
  6  5  2  0  0  0  0
  7  3  1  0  0  0  0
  7  6  1  0  0  0  0
 11 10  1  0  0  0  0
 12  6  1  0  0  0  0
 12 11  2  0  0  0  0
 13 12  1  0  0  0  0
 14 13  1  0  0  0  0
 15 13  2  0  0  0  0
 15 16  1  0  0  0  0
 16 18  2  0  0  0  0
 17 16  1  0  0  0  0
 18 19  1  0  0  0  0
 18 11  1  0  0  0  0
 20  1  1  0  0  0  0
 22 21  2  1  0  0  0
 22 20  1  0  0  0  0
 23 22  1  0  0  0  0
 24 23  1  0  0  0  0
 25 22  1  0  0  0  0
 25 27  1  0  0  0  0
 26 31  1  0  0  0  0
 27 26  2  0  0  0  0
 27 28  1  0  0  0  0
 28 29  2  0  0  0  0
 29 30  1  0  0  0  0
 30 34  1  0  0  0  0
 31 30  2  0  0  0  0
 32 26  1  0  0  0  0
 33 28  1  0  0  0  0
M  END
>  <minimizedAffinity>
-5.61094666

$$$$
