
 OpenBabel03252504503D

 25 26  0  0  0  0  0  0  0  0999 V2000
   37.7720   26.2020   40.7660 C   0  0  0  0  0  0  0  0  0  0  0  0
   37.2120   25.7450   41.9580 C   0  0  0  0  0  0  0  0  0  0  0  0
   36.9040   26.7110   42.9200 C   0  0  0  0  0  0  0  0  0  0  0  0
   37.1660   28.0190   42.6350 N   0  0  0  0  0  0  0  0  0  0  0  0
   37.7070   28.4130   41.4740 C   0  0  0  0  0  0  0  0  0  0  0  0
   38.0110   27.5010   40.5330 N   0  0  0  0  0  0  0  0  0  0  0  0
   38.0410   25.5060   39.9610 H   0  0  0  0  0  0  0  0  0  0  0  0
   36.4770   26.3590   43.8310 H   0  0  0  0  0  0  0  0  0  0  0  0
   35.4320   29.9410   40.1280 Cl  0  0  0  0  0  0  0  0  0  0  0  0
   36.9880   30.6070   40.6270 C   0  0  0  0  0  0  0  0  0  0  0  0
   37.9620   29.8300   41.2330 C   0  0  0  0  0  0  0  0  0  0  0  0
   39.1720   30.3740   41.6160 C   0  0  0  0  0  0  0  0  0  0  0  0
   39.9500   29.7640   42.0980 H   0  0  0  0  0  0  0  0  0  0  0  0
   39.4080   31.7240   41.3840 C   0  0  0  0  0  3  0  0  0  0  0  0
   38.4150   32.4620   40.7780 C   0  0  0  0  0  0  0  0  0  0  0  0
   38.7420   34.1600   40.5000 Cl  0  0  0  0  0  0  0  0  0  0  0  0
   37.1980   31.9490   40.3850 C   0  0  0  0  0  0  0  0  0  0  0  0
   36.4370   32.5490   39.9130 H   0  0  0  0  0  0  0  0  0  0  0  0
   36.9820   24.3290   42.1380 C   0  0  0  0  0  0  0  0  0  0  0  0
   37.4530   23.9730   43.0910 H   0  0  0  0  0  0  0  0  0  0  0  0
   35.9210   24.0910   42.0770 H   0  0  0  0  0  0  0  0  0  0  0  0
   37.6850   23.5770   41.0210 C   0  0  0  0  0  0  0  0  0  0  0  0
   38.7490   23.4020   41.2580 H   0  0  0  0  0  0  0  0  0  0  0  0
   37.1540   22.6190   40.8970 H   0  0  0  0  0  0  0  0  0  0  0  0
   37.5800   24.1520   40.0760 H   0  0  0  0  0  0  0  0  0  0  0  0
  1  2  1  0  0  0  0
  2 19  1  0  0  0  0
  2  3  2  0  0  0  0
  3  8  1  0  0  0  0
  4  3  1  0  0  0  0
  5  4  2  0  0  0  0
  6  1  2  0  0  0  0
  6  5  1  0  0  0  0
  7  1  1  0  0  0  0
  9 10  1  0  0  0  0
 10 11  1  0  0  0  0
 11  5  1  0  0  0  0
 11 12  2  0  0  0  0
 12 13  1  0  0  0  0
 14 12  1  0  0  0  0
 15 14  2  0  0  0  0
 16 15  1  0  0  0  0
 17 10  2  0  0  0  0
 17 15  1  0  0  0  0
 18 17  1  0  0  0  0
 19 20  1  0  0  0  0
 21 19  1  0  0  0  0
 22 23  1  0  0  0  0
 22 19  1  0  0  0  0
 24 22  1  0  0  0  0
 25 22  1  0  0  0  0
M  END
>  <minimizedAffinity>
-4.6114049

$$$$

 OpenBabel03252504503D

 25 26  0  0  0  0  0  0  0  0999 V2000
   37.8680   26.1830   40.7530 C   0  0  0  0  0  0  0  0  0  0  0  0
   37.2310   25.7560   41.9180 C   0  0  0  0  0  0  0  0  0  0  0  0
   36.7600   26.7520   42.7780 C   0  0  0  0  0  0  0  0  0  0  0  0
   36.9510   28.0570   42.4290 N   0  0  0  0  0  0  0  0  0  0  0  0
   37.5700   28.4210   41.2980 C   0  0  0  0  0  0  0  0  0  0  0  0
   38.0320   27.4800   40.4540 N   0  0  0  0  0  0  0  0  0  0  0  0
   38.2660   25.4630   40.0260 H   0  0  0  0  0  0  0  0  0  0  0  0
   36.2740   26.4240   43.6680 H   0  0  0  0  0  0  0  0  0  0  0  0
   40.0630   29.7310   42.4790 Cl  0  0  0  0  0  0  0  0  0  0  0  0
   38.8430   30.5180   41.4760 C   0  0  0  0  0  0  0  0  0  0  0  0
   37.7410   29.8370   40.9840 C   0  0  0  0  0  0  0  0  0  0  0  0
   36.8000   30.4740   40.2000 C   0  0  0  0  0  0  0  0  0  0  0  0
   35.9230   29.9400   39.8060 H   0  0  0  0  0  0  0  0  0  0  0  0
   36.9700   31.8220   39.9050 C   0  0  0  0  0  3  0  0  0  0  0  0
   38.0780   32.4630   40.4130 C   0  0  0  0  0  0  0  0  0  0  0  0
   38.2630   34.1610   40.0230 Cl  0  0  0  0  0  0  0  0  0  0  0  0
   39.0340   31.8550   41.1980 C   0  0  0  0  0  0  0  0  0  0  0  0
   39.8920   32.3810   41.5820 H   0  0  0  0  0  0  0  0  0  0  0  0
   37.0910   24.3400   42.1730 C   0  0  0  0  0  0  0  0  0  0  0  0
   37.5040   24.0810   43.1820 H   0  0  0  0  0  0  0  0  0  0  0  0
   36.0580   24.0170   42.0440 H   0  0  0  0  0  0  0  0  0  0  0  0
   37.9370   23.5800   41.1680 C   0  0  0  0  0  0  0  0  0  0  0  0
   38.9880   23.5030   41.5000 H   0  0  0  0  0  0  0  0  0  0  0  0
   37.4900   22.5770   41.0670 H   0  0  0  0  0  0  0  0  0  0  0  0
   37.8720   24.0860   40.1810 H   0  0  0  0  0  0  0  0  0  0  0  0
  1  2  1  0  0  0  0
  2 19  1  0  0  0  0
  2  3  2  0  0  0  0
  3  8  1  0  0  0  0
  4  3  1  0  0  0  0
  5  4  2  0  0  0  0
  6  1  2  0  0  0  0
  6  5  1  0  0  0  0
  7  1  1  0  0  0  0
 10  9  1  0  0  0  0
 11  5  1  0  0  0  0
 11 10  2  0  0  0  0
 12 11  1  0  0  0  0
 13 12  1  0  0  0  0
 14 12  2  0  0  0  0
 14 15  1  0  0  0  0
 15 17  2  0  0  0  0
 16 15  1  0  0  0  0
 17 10  1  0  0  0  0
 17 18  1  0  0  0  0
 19 20  1  0  0  0  0
 21 19  1  0  0  0  0
 22 23  1  0  0  0  0
 22 19  1  0  0  0  0
 24 22  1  0  0  0  0
 25 22  1  0  0  0  0
M  END
>  <minimizedAffinity>
-4.55284452

$$$$

 OpenBabel03252504503D

 25 26  0  0  0  0  0  0  0  0999 V2000
   38.4690   31.2850   39.4840 C   0  0  0  0  0  0  0  0  0  0  0  0
   37.4520   32.1140   39.9560 C   0  0  0  0  0  0  0  0  0  0  0  0
   36.4390   31.5050   40.7020 C   0  0  0  0  0  0  0  0  0  0  0  0
   36.5100   30.1600   40.9180 N   0  0  0  0  0  0  0  0  0  0  0  0
   37.5070   29.4020   40.4430 C   0  0  0  0  0  0  0  0  0  0  0  0
   38.4930   29.9650   39.7220 N   0  0  0  0  0  0  0  0  0  0  0  0
   39.3000   31.6870   38.8900 H   0  0  0  0  0  0  0  0  0  0  0  0
   35.6630   32.1400   41.0620 H   0  0  0  0  0  0  0  0  0  0  0  0
   38.5910   28.5920   43.1800 Cl  0  0  0  0  0  0  0  0  0  0  0  0
   37.9960   27.5020   41.9260 C   0  0  0  0  0  0  0  0  0  0  0  0
   37.5210   27.9660   40.7100 C   0  0  0  0  0  0  0  0  0  0  0  0
   37.0600   27.0940   39.7440 C   0  0  0  0  0  0  0  0  0  0  0  0
   36.6820   27.4550   38.7770 H   0  0  0  0  0  0  0  0  0  0  0  0
   37.0760   25.7280   40.0060 C   0  0  0  0  0  3  0  0  0  0  0  0
   37.5560   25.3070   41.2260 C   0  0  0  0  0  0  0  0  0  0  0  0
   37.5640   23.5810   41.5250 Cl  0  0  0  0  0  0  0  0  0  0  0  0
   38.0230   26.1520   42.2100 C   0  0  0  0  0  0  0  0  0  0  0  0
   38.3930   25.7950   43.1570 H   0  0  0  0  0  0  0  0  0  0  0  0
   37.4930   33.5290   39.6600 C   0  0  0  0  0  0  0  0  0  0  0  0
   37.6560   33.6950   38.5630 H   0  0  0  0  0  0  0  0  0  0  0  0
   36.6050   34.0360   40.0350 H   0  0  0  0  0  0  0  0  0  0  0  0
   38.6970   34.1360   40.3570 C   0  0  0  0  0  0  0  0  0  0  0  0
   39.6160   34.0170   39.7550 H   0  0  0  0  0  0  0  0  0  0  0  0
   38.4720   35.2050   40.5090 H   0  0  0  0  0  0  0  0  0  0  0  0
   38.8150   33.6640   41.3550 H   0  0  0  0  0  0  0  0  0  0  0  0
  1  6  2  0  0  0  0
  1  2  1  0  0  0  0
  2  3  2  0  0  0  0
  3  4  1  0  0  0  0
  3  8  1  0  0  0  0
  5 11  1  0  0  0  0
  5  4  2  0  0  0  0
  6  5  1  0  0  0  0
  7  1  1  0  0  0  0
 10 17  1  0  0  0  0
 10  9  1  0  0  0  0
 11 10  2  0  0  0  0
 12 14  2  0  0  0  0
 12 11  1  0  0  0  0
 13 12  1  0  0  0  0
 14 15  1  0  0  0  0
 15 16  1  0  0  0  0
 15 17  2  0  0  0  0
 17 18  1  0  0  0  0
 19  2  1  0  0  0  0
 19 21  1  0  0  0  0
 19 22  1  0  0  0  0
 20 19  1  0  0  0  0
 22 24  1  0  0  0  0
 22 25  1  0  0  0  0
 23 22  1  0  0  0  0
M  END
>  <minimizedAffinity>
-4.4943018

$$$$

 OpenBabel03252504503D

 25 26  0  0  0  0  0  0  0  0999 V2000
   39.4950   31.8670   41.0180 C   0  0  0  0  0  0  0  0  0  0  0  0
   38.5340   32.7500   40.5270 C   0  0  0  0  0  0  0  0  0  0  0  0
   37.2520   32.2350   40.3230 C   0  0  0  0  0  0  0  0  0  0  0  0
   37.0250   30.9210   40.6120 N   0  0  0  0  0  0  0  0  0  0  0  0
   37.9800   30.1080   41.0820 C   0  0  0  0  0  0  0  0  0  0  0  0
   39.2230   30.5810   41.2870 N   0  0  0  0  0  0  0  0  0  0  0  0
   40.5260   32.1950   41.2050 H   0  0  0  0  0  0  0  0  0  0  0  0
   36.5190   32.9110   39.9480 H   0  0  0  0  0  0  0  0  0  0  0  0
   38.2130   28.1970   38.7120 Cl  0  0  0  0  0  0  0  0  0  0  0  0
   37.7480   27.7690   40.3590 C   0  0  0  0  0  0  0  0  0  0  0  0
   37.6700   28.7100   41.3720 C   0  0  0  0  0  0  0  0  0  0  0  0
   37.3040   28.3510   42.6540 C   0  0  0  0  0  0  0  0  0  0  0  0
   37.2410   29.0930   43.4630 H   0  0  0  0  0  0  0  0  0  0  0  0
   37.0110   27.0190   42.9230 C   0  0  0  0  0  3  0  0  0  0  0  0
   37.1000   26.1130   41.8880 C   0  0  0  0  0  0  0  0  0  0  0  0
   36.7240   24.4430   42.2590 Cl  0  0  0  0  0  0  0  0  0  0  0  0
   37.4620   26.4410   40.6000 C   0  0  0  0  0  0  0  0  0  0  0  0
   37.5240   25.7110   39.8090 H   0  0  0  0  0  0  0  0  0  0  0  0
   38.9010   34.1230   40.2600 C   0  0  0  0  0  0  0  0  0  0  0  0
   38.3140   34.5250   39.3940 H   0  0  0  0  0  0  0  0  0  0  0  0
   38.8070   34.7370   41.1550 H   0  0  0  0  0  0  0  0  0  0  0  0
   40.3570   34.1610   39.8300 C   0  0  0  0  0  0  0  0  0  0  0  0
   40.4650   33.9560   38.7500 H   0  0  0  0  0  0  0  0  0  0  0  0
   40.7350   35.1680   40.0710 H   0  0  0  0  0  0  0  0  0  0  0  0
   40.9330   33.4250   40.4310 H   0  0  0  0  0  0  0  0  0  0  0  0
  1  7  1  0  0  0  0
  1  6  1  0  0  0  0
  2  1  2  0  0  0  0
  3  2  1  0  0  0  0
  3  4  2  0  0  0  0
  4  5  1  0  0  0  0
  5  6  2  0  0  0  0
  5 11  1  0  0  0  0
  8  3  1  0  0  0  0
  9 10  1  0  0  0  0
 10 17  2  0  0  0  0
 10 11  1  0  0  0  0
 11 12  2  0  0  0  0
 12 14  1  0  0  0  0
 12 13  1  0  0  0  0
 15 16  1  0  0  0  0
 15 14  2  0  0  0  0
 17 15  1  0  0  0  0
 18 17  1  0  0  0  0
 19  2  1  0  0  0  0
 19 21  1  0  0  0  0
 20 19  1  0  0  0  0
 22 24  1  0  0  0  0
 22 19  1  0  0  0  0
 22 25  1  0  0  0  0
 23 22  1  0  0  0  0
M  END
>  <minimizedAffinity>
-4.4924736

$$$$

 OpenBabel03252504503D

 25 26  0  0  0  0  0  0  0  0999 V2000
   41.1690   31.8580   39.2590 C   0  0  0  0  0  0  0  0  0  0  0  0
   40.9540   33.2280   39.4000 C   0  0  0  0  0  0  0  0  0  0  0  0
   39.9320   33.6180   40.2700 C   0  0  0  0  0  0  0  0  0  0  0  0
   39.2220   32.6490   40.9150 N   0  0  0  0  0  0  0  0  0  0  0  0
   39.4630   31.3420   40.7490 C   0  0  0  0  0  0  0  0  0  0  0  0
   40.4420   30.9420   39.9170 N   0  0  0  0  0  0  0  0  0  0  0  0
   41.9520   31.4710   38.5950 H   0  0  0  0  0  0  0  0  0  0  0  0
   39.7680   34.6660   40.3760 H   0  0  0  0  0  0  0  0  0  0  0  0
   36.8460   30.5340   39.4000 Cl  0  0  0  0  0  0  0  0  0  0  0  0
   37.4610   29.9270   40.9380 C   0  0  0  0  0  0  0  0  0  0  0  0
   38.6650   30.3550   41.4720 C   0  0  0  0  0  0  0  0  0  0  0  0
   39.1270   29.8650   42.6780 C   0  0  0  0  0  0  0  0  0  0  0  0
   40.0820   30.2000   43.1070 H   0  0  0  0  0  0  0  0  0  0  0  0
   38.3620   28.9250   43.3590 C   0  0  0  0  0  3  0  0  0  0  0  0
   37.1700   28.5250   42.7960 C   0  0  0  0  0  0  0  0  0  0  0  0
   36.2300   27.3410   43.6800 Cl  0  0  0  0  0  0  0  0  0  0  0  0
   36.6840   28.9960   41.5950 C   0  0  0  0  0  0  0  0  0  0  0  0
   35.7470   28.6650   41.1770 H   0  0  0  0  0  0  0  0  0  0  0  0
   41.7770   34.1570   38.6580 C   0  0  0  0  0  0  0  0  0  0  0  0
   41.1920   35.0760   38.3950 H   0  0  0  0  0  0  0  0  0  0  0  0
   42.6980   34.3820   39.1950 H   0  0  0  0  0  0  0  0  0  0  0  0
   42.1630   33.5150   37.3370 C   0  0  0  0  0  0  0  0  0  0  0  0
   41.3760   33.6550   36.5750 H   0  0  0  0  0  0  0  0  0  0  0  0
   43.1020   33.9920   37.0130 H   0  0  0  0  0  0  0  0  0  0  0  0
   42.3640   32.4350   37.5030 H   0  0  0  0  0  0  0  0  0  0  0  0
  1  2  2  0  0  0  0
  1  6  1  0  0  0  0
  2  3  1  0  0  0  0
  3  8  1  0  0  0  0
  3  4  2  0  0  0  0
  5  4  1  0  0  0  0
  5 11  1  0  0  0  0
  6  5  2  0  0  0  0
  7  1  1  0  0  0  0
  9 10  1  0  0  0  0
 10 11  2  0  0  0  0
 10 17  1  0  0  0  0
 11 12  1  0  0  0  0
 12 13  1  0  0  0  0
 12 14  2  0  0  0  0
 15 14  1  0  0  0  0
 15 16  1  0  0  0  0
 17 15  2  0  0  0  0
 18 17  1  0  0  0  0
 19 21  1  0  0  0  0
 19  2  1  0  0  0  0
 20 19  1  0  0  0  0
 22 25  1  0  0  0  0
 22 19  1  0  0  0  0
 23 22  1  0  0  0  0
 24 22  1  0  0  0  0
M  END
>  <minimizedAffinity>
-4.46539307

$$$$

 OpenBabel03252504503D

 25 26  0  0  0  0  0  0  0  0999 V2000
   41.1560   31.8570   39.1540 C   0  0  0  0  0  0  0  0  0  0  0  0
   40.9880   33.2260   39.3590 C   0  0  0  0  0  0  0  0  0  0  0  0
   40.0140   33.6080   40.2860 C   0  0  0  0  0  0  0  0  0  0  0  0
   39.3030   32.6330   40.9210 N   0  0  0  0  0  0  0  0  0  0  0  0
   39.4990   31.3280   40.6920 C   0  0  0  0  0  0  0  0  0  0  0  0
   40.4300   30.9350   39.8040 N   0  0  0  0  0  0  0  0  0  0  0  0
   41.9000   31.4760   38.4430 H   0  0  0  0  0  0  0  0  0  0  0  0
   39.8860   34.6550   40.4410 H   0  0  0  0  0  0  0  0  0  0  0  0
   40.9390   29.8860   42.9660 Cl  0  0  0  0  0  0  0  0  0  0  0  0
   39.2700   29.6290   42.4550 C   0  0  0  0  0  0  0  0  0  0  0  0
   38.7020   30.3350   41.4080 C   0  0  0  0  0  0  0  0  0  0  0  0
   37.3930   30.1160   41.0260 C   0  0  0  0  0  0  0  0  0  0  0  0
   36.9350   30.6730   40.1950 H   0  0  0  0  0  0  0  0  0  0  0  0
   36.6400   29.1700   41.7120 C   0  0  0  0  0  3  0  0  0  0  0  0
   37.2410   28.4890   42.7480 C   0  0  0  0  0  0  0  0  0  0  0  0
   36.2660   27.3030   43.5920 Cl  0  0  0  0  0  0  0  0  0  0  0  0
   38.5440   28.6840   43.1520 C   0  0  0  0  0  0  0  0  0  0  0  0
   38.9890   28.1370   43.9670 H   0  0  0  0  0  0  0  0  0  0  0  0
   41.8070   34.1610   38.6210 C   0  0  0  0  0  0  0  0  0  0  0  0
   41.2020   35.0510   38.3080 H   0  0  0  0  0  0  0  0  0  0  0  0
   42.6980   34.4340   39.1850 H   0  0  0  0  0  0  0  0  0  0  0  0
   42.2660   33.4950   37.3360 C   0  0  0  0  0  0  0  0  0  0  0  0
   41.5050   33.5850   36.5400 H   0  0  0  0  0  0  0  0  0  0  0  0
   43.2000   33.9950   37.0330 H   0  0  0  0  0  0  0  0  0  0  0  0
   42.4970   32.4290   37.5420 H   0  0  0  0  0  0  0  0  0  0  0  0
  1  2  2  0  0  0  0
  1  6  1  0  0  0  0
  2  3  1  0  0  0  0
  3  8  1  0  0  0  0
  3  4  2  0  0  0  0
  5  4  1  0  0  0  0
  5 11  1  0  0  0  0
  6  5  2  0  0  0  0
  7  1  1  0  0  0  0
 10  9  1  0  0  0  0
 10 17  1  0  0  0  0
 11 10  2  0  0  0  0
 12 11  1  0  0  0  0
 12 14  2  0  0  0  0
 13 12  1  0  0  0  0
 14 15  1  0  0  0  0
 15 17  2  0  0  0  0
 15 16  1  0  0  0  0
 17 18  1  0  0  0  0
 19 21  1  0  0  0  0
 19  2  1  0  0  0  0
 20 19  1  0  0  0  0
 22 25  1  0  0  0  0
 22 19  1  0  0  0  0
 23 22  1  0  0  0  0
 24 22  1  0  0  0  0
M  END
>  <minimizedAffinity>
-4.25175858

$$$$

 OpenBabel03252504503D

 25 26  0  0  0  0  0  0  0  0999 V2000
   38.2430   31.0730   39.2470 C   0  0  0  0  0  0  0  0  0  0  0  0
   37.3070   31.8880   39.8820 C   0  0  0  0  0  0  0  0  0  0  0  0
   36.4030   31.2580   40.7410 C   0  0  0  0  0  0  0  0  0  0  0  0
   36.4940   29.9070   40.9030 N   0  0  0  0  0  0  0  0  0  0  0  0
   37.4110   29.1620   40.2720 C   0  0  0  0  0  0  0  0  0  0  0  0
   38.2920   29.7460   39.4390 N   0  0  0  0  0  0  0  0  0  0  0  0
   38.9860   31.4920   38.5570 H   0  0  0  0  0  0  0  0  0  0  0  0
   35.6880   31.8830   41.2250 H   0  0  0  0  0  0  0  0  0  0  0  0
   35.5730   27.5120   38.4770 Cl  0  0  0  0  0  0  0  0  0  0  0  0
   36.6540   26.8870   39.7240 C   0  0  0  0  0  0  0  0  0  0  0  0
   37.4540   27.7180   40.4900 C   0  0  0  0  0  0  0  0  0  0  0  0
   38.2930   27.2060   41.4600 C   0  0  0  0  0  0  0  0  0  0  0  0
   38.9310   27.8600   42.0720 H   0  0  0  0  0  0  0  0  0  0  0  0
   38.3290   25.8310   41.6620 C   0  0  0  0  0  3  0  0  0  0  0  0
   37.5180   25.0390   40.8790 C   0  0  0  0  0  0  0  0  0  0  0  0
   37.5860   23.3100   41.1580 Cl  0  0  0  0  0  0  0  0  0  0  0  0
   36.6710   25.5190   39.9050 C   0  0  0  0  0  0  0  0  0  0  0  0
   36.0470   24.8760   39.3060 H   0  0  0  0  0  0  0  0  0  0  0  0
   37.3150   33.3120   39.6260 C   0  0  0  0  0  0  0  0  0  0  0  0
   37.2230   33.5130   38.5270 H   0  0  0  0  0  0  0  0  0  0  0  0
   36.5520   33.8220   40.2140 H   0  0  0  0  0  0  0  0  0  0  0  0
   38.6640   33.8710   40.0410 C   0  0  0  0  0  0  0  0  0  0  0  0
   39.4140   33.7560   39.2380 H   0  0  0  0  0  0  0  0  0  0  0  0
   38.5100   34.9380   40.2730 H   0  0  0  0  0  0  0  0  0  0  0  0
   38.9980   33.3620   40.9700 H   0  0  0  0  0  0  0  0  0  0  0  0
  1  6  2  0  0  0  0
  1  2  1  0  0  0  0
  2  3  2  0  0  0  0
  3  4  1  0  0  0  0
  3  8  1  0  0  0  0
  5 11  1  0  0  0  0
  5  4  2  0  0  0  0
  6  5  1  0  0  0  0
  7  1  1  0  0  0  0
  9 10  1  0  0  0  0
 10 17  2  0  0  0  0
 10 11  1  0  0  0  0
 11 12  2  0  0  0  0
 12 14  1  0  0  0  0
 12 13  1  0  0  0  0
 15 16  1  0  0  0  0
 15 14  2  0  0  0  0
 17 15  1  0  0  0  0
 18 17  1  0  0  0  0
 19  2  1  0  0  0  0
 19 22  1  0  0  0  0
 19 21  1  0  0  0  0
 20 19  1  0  0  0  0
 22 24  1  0  0  0  0
 22 25  1  0  0  0  0
 23 22  1  0  0  0  0
M  END
>  <minimizedAffinity>
-4.2292347

$$$$

 OpenBabel03252504503D

 25 26  0  0  0  0  0  0  0  0999 V2000
   34.9150   29.0880   36.0650 C   0  0  0  0  0  0  0  0  0  0  0  0
   33.5220   29.0080   36.0640 C   0  0  0  0  0  0  0  0  0  0  0  0
   32.8950   28.9360   37.3100 C   0  0  0  0  0  0  0  0  0  0  0  0
   33.6720   28.9510   38.4310 N   0  0  0  0  0  0  0  0  0  0  0  0
   35.0090   29.0290   38.3850 C   0  0  0  0  0  0  0  0  0  0  0  0
   35.6350   29.0990   37.1960 N   0  0  0  0  0  0  0  0  0  0  0  0
   35.4810   29.1480   35.1270 H   0  0  0  0  0  0  0  0  0  0  0  0
   31.8310   28.8740   37.3070 H   0  0  0  0  0  0  0  0  0  0  0  0
   36.1990   26.3400   39.2080 Cl  0  0  0  0  0  0  0  0  0  0  0  0
   36.3600   27.8660   40.0790 C   0  0  0  0  0  0  0  0  0  0  0  0
   35.7810   29.0390   39.6240 C   0  0  0  0  0  0  0  0  0  0  0  0
   35.9220   30.2230   40.3230 C   0  0  0  0  0  0  0  0  0  0  0  0
   35.4650   31.1580   39.9680 H   0  0  0  0  0  0  0  0  0  0  0  0
   36.6590   30.2250   41.5010 C   0  0  0  0  0  3  0  0  0  0  0  0
   37.2190   29.0380   41.9200 C   0  0  0  0  0  0  0  0  0  0  0  0
   38.1420   29.0750   43.4080 Cl  0  0  0  0  0  0  0  0  0  0  0  0
   37.0970   27.8430   41.2450 C   0  0  0  0  0  0  0  0  0  0  0  0
   37.5460   26.9280   41.5950 H   0  0  0  0  0  0  0  0  0  0  0  0
   32.8120   29.0020   34.8040 C   0  0  0  0  0  0  0  0  0  0  0  0
   33.5340   29.0120   33.9470 H   0  0  0  0  0  0  0  0  0  0  0  0
   32.1080   28.1730   34.7530 H   0  0  0  0  0  0  0  0  0  0  0  0
   32.0150   30.2890   34.6900 C   0  0  0  0  0  0  0  0  0  0  0  0
   32.6340   31.1160   34.3000 H   0  0  0  0  0  0  0  0  0  0  0  0
   31.1730   30.0840   34.0090 H   0  0  0  0  0  0  0  0  0  0  0  0
   31.5960   30.5460   35.6870 H   0  0  0  0  0  0  0  0  0  0  0  0
  1  6  1  0  0  0  0
  2  1  2  0  0  0  0
  2  3  1  0  0  0  0
  3  4  2  0  0  0  0
  5  4  1  0  0  0  0
  5 11  1  0  0  0  0
  6  5  2  0  0  0  0
  7  1  1  0  0  0  0
  8  3  1  0  0  0  0
  9 10  1  0  0  0  0
 10 17  1  0  0  0  0
 11 10  2  0  0  0  0
 11 12  1  0  0  0  0
 12 14  2  0  0  0  0
 13 12  1  0  0  0  0
 14 15  1  0  0  0  0
 15 16  1  0  0  0  0
 17 18  1  0  0  0  0
 17 15  2  0  0  0  0
 19  2  1  0  0  0  0
 20 19  1  0  0  0  0
 21 19  1  0  0  0  0
 22 19  1  0  0  0  0
 22 25  1  0  0  0  0
 23 22  1  0  0  0  0
 24 22  1  0  0  0  0
M  END
>  <minimizedAffinity>
-4.11936665

$$$$

 OpenBabel03252504503D

 25 26  0  0  0  0  0  0  0  0999 V2000
   38.3330   30.2990   39.9530 C   0  0  0  0  0  0  0  0  0  0  0  0
   37.2520   31.0180   40.4620 C   0  0  0  0  0  0  0  0  0  0  0  0
   36.1920   30.2740   40.9860 C   0  0  0  0  0  0  0  0  0  0  0  0
   36.2810   28.9130   40.9670 N   0  0  0  0  0  0  0  0  0  0  0  0
   37.3400   28.2630   40.4660 C   0  0  0  0  0  0  0  0  0  0  0  0
   38.3730   28.9580   39.9560 N   0  0  0  0  0  0  0  0  0  0  0  0
   39.2040   30.8100   39.5240 H   0  0  0  0  0  0  0  0  0  0  0  0
   35.3670   30.8260   41.3750 H   0  0  0  0  0  0  0  0  0  0  0  0
   38.4090   26.9960   43.0300 Cl  0  0  0  0  0  0  0  0  0  0  0  0
   37.8400   26.1380   41.5970 C   0  0  0  0  0  0  0  0  0  0  0  0
   37.3710   26.8030   40.4770 C   0  0  0  0  0  0  0  0  0  0  0  0
   36.9300   26.1100   39.3660 C   0  0  0  0  0  0  0  0  0  0  0  0
   36.5560   26.6310   38.4740 H   0  0  0  0  0  0  0  0  0  0  0  0
   36.9620   24.7200   39.3840 C   0  0  0  0  0  3  0  0  0  0  0  0
   37.4360   24.0960   40.5170 C   0  0  0  0  0  0  0  0  0  0  0  0
   37.4640   22.3440   40.5070 Cl  0  0  0  0  0  0  0  0  0  0  0  0
   37.8820   24.7590   41.6390 C   0  0  0  0  0  0  0  0  0  0  0  0
   38.2480   24.2450   42.5130 H   0  0  0  0  0  0  0  0  0  0  0  0
   37.2800   32.4640   40.4250 C   0  0  0  0  0  0  0  0  0  0  0  0
   36.3690   32.8860   40.9220 H   0  0  0  0  0  0  0  0  0  0  0  0
   38.2080   32.8510   40.8440 H   0  0  0  0  0  0  0  0  0  0  0  0
   37.2090   32.9130   38.9760 C   0  0  0  0  0  0  0  0  0  0  0  0
   36.1660   32.9560   38.6160 H   0  0  0  0  0  0  0  0  0  0  0  0
   37.6750   33.9110   38.9280 H   0  0  0  0  0  0  0  0  0  0  0  0
   37.8140   32.2210   38.3510 H   0  0  0  0  0  0  0  0  0  0  0  0
  1  6  2  0  0  0  0
  1  2  1  0  0  0  0
  2  3  2  0  0  0  0
  3  8  1  0  0  0  0
  4  3  1  0  0  0  0
  5 11  1  0  0  0  0
  5  4  2  0  0  0  0
  6  5  1  0  0  0  0
  7  1  1  0  0  0  0
 10 17  1  0  0  0  0
 10  9  1  0  0  0  0
 11 10  2  0  0  0  0
 12 14  2  0  0  0  0
 12 11  1  0  0  0  0
 13 12  1  0  0  0  0
 14 15  1  0  0  0  0
 15 17  2  0  0  0  0
 16 15  1  0  0  0  0
 17 18  1  0  0  0  0
 19  2  1  0  0  0  0
 19 21  1  0  0  0  0
 19 20  1  0  0  0  0
 22 19  1  0  0  0  0
 23 22  1  0  0  0  0
 24 22  1  0  0  0  0
 25 22  1  0  0  0  0
M  END
>  <minimizedAffinity>
-4.04951

$$$$
