
 OpenBabel03242523533D

 46 49  0  0  1  0  0  0  0  0999 V2000
   42.7810   34.4320   38.8630 C   0  0  1  0  0  0  0  0  0  0  0  0
   42.9780   35.1970   40.1620 C   0  0  1  0  0  0  0  0  0  0  0  0
   41.7050   35.5530   40.6590 O   0  0  0  0  0  0  0  0  0  0  0  0
   40.8000   35.8710   39.6430 C   0  0  0  0  0  0  0  0  0  0  0  0
   40.4120   34.6550   38.8250 C   0  0  2  0  0  0  0  0  0  0  0  0
   41.5530   33.6040   39.0470 C   0  0  1  0  0  0  0  0  0  0  0  0
   43.6840   33.8350   38.6180 H   0  0  0  0  0  0  0  0  0  0  0  0
   43.6250   36.0760   40.0570 H   0  0  0  0  0  0  0  0  0  0  0  0
   41.1630   36.7000   39.0030 H   0  0  0  0  0  0  0  0  0  0  0  0
   39.8940   36.2110   40.1620 H   0  0  0  0  0  0  0  0  0  0  0  0
   39.4510   34.2010   39.1380 H   0  0  0  0  0  0  0  0  0  0  0  0
   41.3250   33.4560   40.1530 H   0  0  0  0  0  0  0  0  0  0  0  0
   42.6280   35.3150   37.7830 O   0  0  0  0  0  0  0  0  0  0  0  0
   43.3100   36.0320   37.8300 H   0  0  0  0  0  0  0  0  0  0  0  0
   40.4550   34.9600   37.4760 O   0  0  0  0  0  0  0  0  0  0  0  0
   39.6480   35.4680   37.2350 H   0  0  0  0  0  0  0  0  0  0  0  0
   43.4410   34.2470   41.0850 O   0  0  0  0  0  0  0  0  0  0  0  0
   44.5710   34.3560   41.7920 C   0  0  0  0  0  0  0  0  0  0  0  0
   45.8140   34.4770   41.1540 C   0  0  0  0  0  0  0  0  0  0  0  0
   46.9550   34.5880   41.9270 C   0  0  0  0  0  0  0  0  0  0  0  0
   46.8390   34.5770   43.3040 N   0  0  0  0  0  0  0  0  0  0  0  0
   45.6240   34.4580   43.8890 C   0  0  0  0  0  0  0  0  0  0  0  0
   44.4990   34.3480   43.1340 N   0  0  0  0  0  0  0  0  0  0  0  0
   45.9120   34.4870   40.0670 H   0  0  0  0  0  0  0  0  0  0  0  0
   45.5790   34.4530   44.9680 H   0  0  0  0  0  0  0  0  0  0  0  0
   48.3160   34.6980   41.3110 C   0  0  0  0  0  0  0  0  0  0  0  0
   49.0550   36.0180   41.5170 C   0  0  0  0  0  0  0  0  0  0  0  0
   49.4920   34.6700   42.1220 C   0  0  0  0  0  0  0  0  0  0  0  0
   48.3440   34.2950   40.2640 H   0  0  0  0  0  0  0  0  0  0  0  0
   49.6890   36.3210   40.6620 H   0  0  0  0  0  0  0  0  0  0  0  0
   48.5920   36.7670   42.1730 H   0  0  0  0  0  0  0  0  0  0  0  0
   50.4640   34.2610   41.8220 H   0  0  0  0  0  0  0  0  0  0  0  0
   49.3580   34.6530   43.2340 H   0  0  0  0  0  0  0  0  0  0  0  0
   41.3510   32.5940   38.1850 O   0  0  0  0  0  0  0  0  0  0  0  0
   40.6440   31.4660   38.2850 C   0  0  0  0  0  0  0  0  0  0  0  0
   39.8380   31.0750   37.2990 O   0  0  0  0  0  0  0  0  0  0  0  0
   43.0080   29.6260   38.7170 Cl  0  0  0  0  0  0  0  0  0  0  0  0
   41.5370   29.5200   39.6830 C   0  0  0  0  0  0  0  0  0  0  0  0
   40.5420   30.4180   39.3680 C   0  0  0  0  0  0  0  0  0  0  0  0
   39.4350   30.2720   40.1630 C   0  0  0  0  0  0  0  0  0  0  0  0
   38.5670   30.9150   40.0300 H   0  0  0  0  0  0  0  0  0  0  0  0
   39.3350   29.3450   41.1500 C   0  0  0  0  0  3  0  0  0  0  0  0
   40.3650   28.4900   41.4010 C   0  0  0  0  0  0  0  0  0  0  0  0
   40.2330   27.3050   42.6650 Cl  0  0  0  0  0  0  0  0  0  0  0  0
   41.5230   28.5550   40.6570 C   0  0  0  0  0  0  0  0  0  0  0  0
   42.3570   27.9110   40.8140 H   0  0  0  0  0  0  0  0  0  0  0  0
  1  7  1  6  0  0  0
  1  6  1  0  0  0  0
  1  2  1  0  0  0  0
  2  8  1  6  0  0  0
  2  3  1  0  0  0  0
  2 17  1  0  0  0  0
  4 10  1  0  0  0  0
  4  3  1  0  0  0  0
  5  6  1  0  0  0  0
  5 11  1  1  0  0  0
  5  4  1  0  0  0  0
  6 12  1  1  0  0  0
  9  4  1  0  0  0  0
 13 14  1  0  0  0  0
 13  1  1  0  0  0  0
 15  5  1  0  0  0  0
 16 15  1  0  0  0  0
 17 18  1  0  0  0  0
 18 23  1  0  0  0  0
 19 18  2  0  0  0  0
 19 20  1  0  0  0  0
 20 21  2  0  0  0  0
 21 22  1  0  0  0  0
 22 25  1  0  0  0  0
 23 22  2  0  0  0  0
 24 19  1  0  0  0  0
 26 27  1  0  0  0  0
 26 20  1  0  0  0  0
 26 28  1  0  0  0  0
 27 28  1  0  0  0  0
 27 31  1  0  0  0  0
 28 33  1  0  0  0  0
 29 26  1  0  0  0  0
 30 27  1  0  0  0  0
 32 28  1  0  0  0  0
 34 35  1  0  0  0  0
 34  6  1  0  0  0  0
 35 39  1  0  0  0  0
 36 35  2  0  0  0  0
 37 38  1  0  0  0  0
 38 45  1  0  0  0  0
 39 38  2  0  0  0  0
 39 40  1  0  0  0  0
 40 42  2  0  0  0  0
 41 40  1  0  0  0  0
 42 43  1  0  0  0  0
 43 44  1  0  0  0  0
 45 46  1  0  0  0  0
 45 43  2  0  0  0  0
M  END
>  <minimizedAffinity>
-5.97995043

>  <minimizedRMSD>
1.62173378

$$$$
