
 OpenBabel03242523543D

 46 49  0  0  1  0  0  0  0  0999 V2000
   42.7790   34.3780   38.8820 C   0  0  1  0  0  0  0  0  0  0  0  0
   43.0400   35.1820   40.1460 C   0  0  1  0  0  0  0  0  0  0  0  0
   41.7960   35.6250   40.6480 O   0  0  0  0  0  0  0  0  0  0  0  0
   40.8920   35.9500   39.6340 C   0  0  0  0  0  0  0  0  0  0  0  0
   40.4250   34.7260   38.8710 C   0  0  2  0  0  0  0  0  0  0  0  0
   41.5130   33.6250   39.1180 C   0  0  1  0  0  0  0  0  0  0  0  0
   43.6450   33.7240   38.6470 H   0  0  0  0  0  0  0  0  0  0  0  0
   43.7300   36.0190   39.9960 H   0  0  0  0  0  0  0  0  0  0  0  0
   41.2860   36.7330   38.9560 H   0  0  0  0  0  0  0  0  0  0  0  0
   40.0140   36.3580   40.1530 H   0  0  0  0  0  0  0  0  0  0  0  0
   39.4480   34.3370   39.2180 H   0  0  0  0  0  0  0  0  0  0  0  0
   41.2970   33.5320   40.2320 H   0  0  0  0  0  0  0  0  0  0  0  0
   42.6540   35.2250   37.7700 O   0  0  0  0  0  0  0  0  0  0  0  0
   43.3740   35.9060   37.7770 H   0  0  0  0  0  0  0  0  0  0  0  0
   40.4610   34.9750   37.5110 O   0  0  0  0  0  0  0  0  0  0  0  0
   39.6770   35.5160   37.2630 H   0  0  0  0  0  0  0  0  0  0  0  0
   43.4670   34.2450   41.0990 O   0  0  0  0  0  0  0  0  0  0  0  0
   44.5950   34.3410   41.8120 C   0  0  0  0  0  0  0  0  0  0  0  0
   45.8410   34.4710   41.1800 C   0  0  0  0  0  0  0  0  0  0  0  0
   46.9790   34.5670   41.9590 C   0  0  0  0  0  0  0  0  0  0  0  0
   46.8580   34.5350   43.3350 N   0  0  0  0  0  0  0  0  0  0  0  0
   45.6400   34.4080   43.9140 C   0  0  0  0  0  0  0  0  0  0  0  0
   44.5190   34.3120   43.1540 N   0  0  0  0  0  0  0  0  0  0  0  0
   45.9430   34.4970   40.0940 H   0  0  0  0  0  0  0  0  0  0  0  0
   45.5910   34.3860   44.9930 H   0  0  0  0  0  0  0  0  0  0  0  0
   48.3420   34.6850   41.3500 C   0  0  0  0  0  0  0  0  0  0  0  0
   49.0580   36.0220   41.5280 C   0  0  0  0  0  0  0  0  0  0  0  0
   49.5130   34.6970   42.1690 C   0  0  0  0  0  0  0  0  0  0  0  0
   48.3850   34.2570   40.3130 H   0  0  0  0  0  0  0  0  0  0  0  0
   49.6930   36.3140   40.6710 H   0  0  0  0  0  0  0  0  0  0  0  0
   48.5780   36.7800   42.1620 H   0  0  0  0  0  0  0  0  0  0  0  0
   50.4940   34.2970   41.8870 H   0  0  0  0  0  0  0  0  0  0  0  0
   49.3710   34.7060   43.2810 H   0  0  0  0  0  0  0  0  0  0  0  0
   41.2430   32.5940   38.3000 O   0  0  0  0  0  0  0  0  0  0  0  0
   40.2930   31.6550   38.3340 C   0  0  0  0  0  0  0  0  0  0  0  0
   39.3070   31.6480   37.4390 O   0  0  0  0  0  0  0  0  0  0  0  0
   38.6790   32.0930   40.8570 Cl  0  0  0  0  0  0  0  0  0  0  0  0
   39.3410   30.5190   40.4170 C   0  0  0  0  0  0  0  0  0  0  0  0
   40.0600   30.4730   39.2440 C   0  0  0  0  0  0  0  0  0  0  0  0
   40.5400   29.2180   38.9740 C   0  0  0  0  0  0  0  0  0  0  0  0
   41.1280   29.0290   38.0770 H   0  0  0  0  0  0  0  0  0  0  0  0
   40.3290   28.1420   39.7760 C   0  0  0  0  0  3  0  0  0  0  0  0
   39.6050   28.2700   40.9220 C   0  0  0  0  0  0  0  0  0  0  0  0
   39.3350   26.8910   41.9450 Cl  0  0  0  0  0  0  0  0  0  0  0  0
   39.0780   29.4890   41.2840 C   0  0  0  0  0  0  0  0  0  0  0  0
   38.5040   29.6420   42.1700 H   0  0  0  0  0  0  0  0  0  0  0  0
  1  7  1  6  0  0  0
  1  6  1  0  0  0  0
  1  2  1  0  0  0  0
  2  8  1  6  0  0  0
  2  3  1  0  0  0  0
  2 17  1  0  0  0  0
  4 10  1  0  0  0  0
  4  3  1  0  0  0  0
  5  6  1  0  0  0  0
  5 11  1  1  0  0  0
  5  4  1  0  0  0  0
  6 12  1  1  0  0  0
  9  4  1  0  0  0  0
 13 14  1  0  0  0  0
 13  1  1  0  0  0  0
 15  5  1  0  0  0  0
 16 15  1  0  0  0  0
 17 18  1  0  0  0  0
 18 23  1  0  0  0  0
 19 18  2  0  0  0  0
 19 20  1  0  0  0  0
 20 21  2  0  0  0  0
 21 22  1  0  0  0  0
 22 25  1  0  0  0  0
 23 22  2  0  0  0  0
 24 19  1  0  0  0  0
 26 27  1  0  0  0  0
 26 20  1  0  0  0  0
 26 28  1  0  0  0  0
 27 31  1  0  0  0  0
 27 28  1  0  0  0  0
 28 33  1  0  0  0  0
 29 26  1  0  0  0  0
 30 27  1  0  0  0  0
 32 28  1  0  0  0  0
 34 35  1  0  0  0  0
 34  6  1  0  0  0  0
 35 39  1  0  0  0  0
 36 35  2  0  0  0  0
 38 37  1  0  0  0  0
 38 45  1  0  0  0  0
 39 38  2  0  0  0  0
 40 39  1  0  0  0  0
 40 42  2  0  0  0  0
 41 40  1  0  0  0  0
 42 43  1  0  0  0  0
 43 45  2  0  0  0  0
 43 44  1  0  0  0  0
 45 46  1  0  0  0  0
M  END
>  <minimizedAffinity>
-6.255229

>  <minimizedRMSD>
1.62891078

$$$$
