
 OpenBabel03242510243D

 39 42  0  0  1  0  0  0  0  0999 V2000
   37.7340   29.7270   39.8410 N   0  0  0  0  0  0  0  0  0  0  0  0
   37.0970   29.7550   41.0770 C   0  0  0  0  0  0  0  0  0  0  0  0
   36.2160   30.5380   41.5240 O   0  0  0  0  0  0  0  0  0  0  0  0
   38.7580   29.5400   39.9310 H   0  0  0  0  0  0  0  0  0  0  0  0
   37.3260   31.2110   37.9110 C   0  0  1  0  0  0  0  0  0  0  0  0
   38.0250   30.1060   37.4060 C   0  0  0  0  0  0  0  0  0  0  0  0
   37.0550   29.9330   38.6110 C   0  0  1  0  0  0  0  0  0  0  0  0
   36.5070   31.7140   37.3510 H   0  0  0  0  0  0  0  0  0  0  0  0
   39.0640   29.7660   37.5810 H   0  0  0  0  0  0  0  0  0  0  0  0
   37.6730   29.6860   36.4150 H   0  0  0  0  0  0  0  0  0  0  0  0
   36.2250   29.2730   38.3100 H   0  0  0  0  0  0  0  0  0  0  0  0
   39.5550   32.2910   38.7280 C   0  0  0  0  0  0  0  0  0  0  0  0
   38.1210   32.2560   38.7120 C   0  0  0  0  0  0  0  0  0  0  0  0
   37.4540   33.1900   39.4710 C   0  0  0  0  0  0  0  0  0  0  0  0
   38.1650   34.0870   40.1900 N   0  0  0  0  0  0  0  0  0  0  0  0
   39.5270   34.1070   40.1960 C   0  0  0  0  0  0  0  0  0  0  0  0
   40.2340   33.1730   39.4340 N   0  0  0  0  0  0  0  0  0  0  0  0
   40.0450   31.5670   38.1120 H   0  0  0  0  0  0  0  0  0  0  0  0
   36.3670   33.1830   39.4740 H   0  0  0  0  0  0  0  0  0  0  0  0
   40.0110   34.8630   40.8020 H   0  0  0  0  0  0  0  0  0  0  0  0
   37.4450   28.7130   42.1230 C   0  0  2  0  0  0  0  0  0  0  0  0
   38.4810   29.1510   43.2170 C   0  0  0  0  0  0  0  0  0  0  0  0
   38.7830   28.1140   42.1820 C   0  0  1  0  0  0  0  0  0  0  0  0
   36.6060   28.1850   42.6180 H   0  0  0  0  0  0  0  0  0  0  0  0
   38.3010   28.8720   44.2480 H   0  0  0  0  0  0  0  0  0  0  0  0
   38.9220   30.1540   43.0480 H   0  0  0  0  0  0  0  0  0  0  0  0
   39.4190   28.3060   41.2780 H   0  0  0  0  0  0  0  0  0  0  0  0
   38.8810   26.6790   42.6410 C   0  0  0  0  0  0  0  0  0  0  0  0
   39.4710   26.4080   43.6800 O   0  0  0  0  0  0  0  0  0  0  0  0
   40.7830   25.4320   40.6710 Cl  0  0  0  0  0  0  0  0  0  0  0  0
   39.1090   24.9590   40.9510 C   0  0  0  0  0  0  0  0  0  0  0  0
   38.2880   25.5820   41.8790 C   0  0  0  0  0  0  0  0  0  0  0  0
   37.0160   25.1020   41.9800 C   0  0  0  0  0  0  0  0  0  0  0  0
   36.3680   25.5610   42.6830 H   0  0  0  0  0  0  0  0  0  0  0  0
   36.5460   24.0560   41.2140 C   0  0  0  0  0  3  0  0  0  0  0  0
   37.3570   23.4330   40.2910 C   0  0  0  0  0  0  0  0  0  0  0  0
   36.7350   22.1080   39.3310 Cl  0  0  0  0  0  0  0  0  0  0  0  0
   38.6490   23.8990   40.1670 C   0  0  0  0  0  0  0  0  0  0  0  0
   39.2770   23.4130   39.4490 H   0  0  0  0  0  0  0  0  0  0  0  0
  1  4  1  0  0  0  0
  1  2  1  0  0  0  0
  2  3  2  0  0  0  0
  2 21  1  0  0  0  0
  5  8  1  6  0  0  0
  5  7  1  0  0  0  0
  5 13  1  0  0  0  0
  6  9  1  0  0  0  0
  6  5  1  0  0  0  0
  6  7  1  0  0  0  0
  7 11  1  6  0  0  0
  7  1  1  0  0  0  0
 10  6  1  0  0  0  0
 12 17  1  0  0  0  0
 13 12  2  0  0  0  0
 13 14  1  0  0  0  0
 14 19  1  0  0  0  0
 14 15  2  0  0  0  0
 15 16  1  0  0  0  0
 16 20  1  0  0  0  0
 17 16  2  0  0  0  0
 18 12  1  0  0  0  0
 21 23  1  0  0  0  0
 21 24  1  1  0  0  0
 21 22  1  0  0  0  0
 22 25  1  0  0  0  0
 23 27  1  6  0  0  0
 23 28  1  0  0  0  0
 23 22  1  0  0  0  0
 26 22  1  0  0  0  0
 28 29  2  0  0  0  0
 30 31  1  0  0  0  0
 31 32  1  0  0  0  0
 32 33  2  0  0  0  0
 32 28  1  0  0  0  0
 33 34  1  0  0  0  0
 35 33  1  0  0  0  0
 36 35  2  0  0  0  0
 37 36  1  0  0  0  0
 38 36  1  0  0  0  0
 38 31  2  0  0  0  0
 39 38  1  0  0  0  0
M  END
>  <minimizedAffinity>
-5.72095823

$$$$

 OpenBabel03242510243D

 39 42  0  0  1  0  0  0  0  0999 V2000
   39.8230   31.3250   40.2940 N   0  0  0  0  0  0  0  0  0  0  0  0
   40.3450   31.1370   41.5700 C   0  0  0  0  0  0  0  0  0  0  0  0
   41.2160   31.7940   42.2010 O   0  0  0  0  0  0  0  0  0  0  0  0
   39.7220   30.4250   39.7750 H   0  0  0  0  0  0  0  0  0  0  0  0
   38.0450   32.8330   39.4830 C   0  0  1  0  0  0  0  0  0  0  0  0
   38.4910   33.3800   40.6930 C   0  0  0  0  0  0  0  0  0  0  0  0
   39.4790   32.6010   39.7750 C   0  0  1  0  0  0  0  0  0  0  0  0
   37.7570   33.4570   38.6080 H   0  0  0  0  0  0  0  0  0  0  0  0
   38.4110   33.0050   41.7310 H   0  0  0  0  0  0  0  0  0  0  0  0
   38.6220   34.5050   40.7300 H   0  0  0  0  0  0  0  0  0  0  0  0
   40.2600   33.2940   39.4230 H   0  0  0  0  0  0  0  0  0  0  0  0
   36.8060   30.8140   38.3910 C   0  0  0  0  0  0  0  0  0  0  0  0
   37.1410   31.5900   39.5500 C   0  0  0  0  0  0  0  0  0  0  0  0
   36.5980   31.2010   40.7530 C   0  0  0  0  0  0  0  0  0  0  0  0
   35.7860   30.1220   40.7950 N   0  0  0  0  0  0  0  0  0  0  0  0
   35.4770   29.3940   39.6850 C   0  0  0  0  0  0  0  0  0  0  0  0
   36.0120   29.7630   38.4480 N   0  0  0  0  0  0  0  0  0  0  0  0
   37.2590   31.1270   37.4750 H   0  0  0  0  0  0  0  0  0  0  0  0
   36.8390   31.7740   41.6460 H   0  0  0  0  0  0  0  0  0  0  0  0
   34.8180   28.5460   39.8140 H   0  0  0  0  0  0  0  0  0  0  0  0
   39.8440   29.9860   42.4220 C   0  0  2  0  0  0  0  0  0  0  0  0
   40.8630   28.8210   42.6770 C   0  0  0  0  0  0  0  0  0  0  0  0
   39.6300   28.6540   41.8470 C   0  0  1  0  0  0  0  0  0  0  0  0
   39.3440   30.2380   43.3780 H   0  0  0  0  0  0  0  0  0  0  0  0
   40.9270   28.3930   43.6690 H   0  0  0  0  0  0  0  0  0  0  0  0
   41.8160   28.9230   42.1210 H   0  0  0  0  0  0  0  0  0  0  0  0
   39.6350   28.6240   40.7260 H   0  0  0  0  0  0  0  0  0  0  0  0
   38.5090   27.8230   42.4240 C   0  0  0  0  0  0  0  0  0  0  0  0
   37.9020   28.2160   43.4130 O   0  0  0  0  0  0  0  0  0  0  0  0
   39.9360   25.4650   43.6310 Cl  0  0  0  0  0  0  0  0  0  0  0  0
   38.7320   25.4120   42.3460 C   0  0  0  0  0  0  0  0  0  0  0  0
   38.1130   26.5450   41.8360 C   0  0  0  0  0  0  0  0  0  0  0  0
   37.2030   26.3410   40.8430 C   0  0  0  0  0  0  0  0  0  0  0  0
   36.7150   27.1900   40.4360 H   0  0  0  0  0  0  0  0  0  0  0  0
   36.8950   25.0890   40.3520 C   0  0  0  0  0  3  0  0  0  0  0  0
   37.5060   23.9610   40.8550 C   0  0  0  0  0  0  0  0  0  0  0  0
   37.0970   22.3840   40.2150 Cl  0  0  0  0  0  0  0  0  0  0  0  0
   38.4320   24.1370   41.8600 C   0  0  0  0  0  0  0  0  0  0  0  0
   38.9050   23.2590   42.2490 H   0  0  0  0  0  0  0  0  0  0  0  0
  1  2  1  0  0  0  0
  2  3  2  0  0  0  0
  2 21  1  0  0  0  0
  4  1  1  0  0  0  0
  5  8  1  6  0  0  0
  5 13  1  0  0  0  0
  5  7  1  0  0  0  0
  5  6  1  0  0  0  0
  6 10  1  0  0  0  0
  6  9  1  0  0  0  0
  7 11  1  6  0  0  0
  7  1  1  0  0  0  0
  7  6  1  0  0  0  0
 12 17  2  0  0  0  0
 12 13  1  0  0  0  0
 13 14  2  0  0  0  0
 14 15  1  0  0  0  0
 14 19  1  0  0  0  0
 16 20  1  0  0  0  0
 16 15  2  0  0  0  0
 17 16  1  0  0  0  0
 18 12  1  0  0  0  0
 21 22  1  0  0  0  0
 21 24  1  1  0  0  0
 22 25  1  0  0  0  0
 23 27  1  6  0  0  0
 23 21  1  0  0  0  0
 23 28  1  0  0  0  0
 23 22  1  0  0  0  0
 26 22  1  0  0  0  0
 28 29  2  0  0  0  0
 31 30  1  0  0  0  0
 32 31  2  0  0  0  0
 32 28  1  0  0  0  0
 33 32  1  0  0  0  0
 34 33  1  0  0  0  0
 35 33  2  0  0  0  0
 35 36  1  0  0  0  0
 36 38  2  0  0  0  0
 37 36  1  0  0  0  0
 38 39  1  0  0  0  0
 38 31  1  0  0  0  0
M  END
>  <minimizedAffinity>
-5.6234684

$$$$

 OpenBabel03242510243D

 39 42  0  0  1  0  0  0  0  0999 V2000
   37.8430   30.4330   40.6930 N   0  0  0  0  0  0  0  0  0  0  0  0
   38.3360   29.8290   41.8450 C   0  0  0  0  0  0  0  0  0  0  0  0
   39.0400   30.3020   42.7780 O   0  0  0  0  0  0  0  0  0  0  0  0
   37.9360   29.8170   39.8550 H   0  0  0  0  0  0  0  0  0  0  0  0
   38.0620   32.7850   39.9750 C   0  0  1  0  0  0  0  0  0  0  0  0
   36.9930   32.2560   39.2390 C   0  0  0  0  0  0  0  0  0  0  0  0
   37.2840   31.7390   40.6790 C   0  0  1  0  0  0  0  0  0  0  0  0
   38.0660   33.8250   40.3710 H   0  0  0  0  0  0  0  0  0  0  0  0
   36.9710   31.4790   38.4520 H   0  0  0  0  0  0  0  0  0  0  0  0
   36.0790   32.9140   39.1180 H   0  0  0  0  0  0  0  0  0  0  0  0
   36.4300   31.9910   41.3280 H   0  0  0  0  0  0  0  0  0  0  0  0
   40.6190   32.5330   40.4240 C   0  0  0  0  0  0  0  0  0  0  0  0
   39.4870   32.3880   39.5540 C   0  0  0  0  0  0  0  0  0  0  0  0
   39.7160   31.8930   38.2910 C   0  0  0  0  0  0  0  0  0  0  0  0
   40.9760   31.5710   37.9250 N   0  0  0  0  0  0  0  0  0  0  0  0
   42.0420   31.7150   38.7620 C   0  0  0  0  0  0  0  0  0  0  0  0
   41.8430   32.2130   40.0520 N   0  0  0  0  0  0  0  0  0  0  0  0
   40.4080   32.8980   41.4060 H   0  0  0  0  0  0  0  0  0  0  0  0
   38.8730   31.7740   37.6150 H   0  0  0  0  0  0  0  0  0  0  0  0
   43.0140   31.4300   38.3820 H   0  0  0  0  0  0  0  0  0  0  0  0
   38.0280   28.3680   42.1150 C   0  0  2  0  0  0  0  0  0  0  0  0
   37.2840   28.0570   43.4610 C   0  0  0  0  0  0  0  0  0  0  0  0
   38.6960   27.6390   43.1980 C   0  0  1  0  0  0  0  0  0  0  0  0
   37.5500   27.7880   41.3010 H   0  0  0  0  0  0  0  0  0  0  0  0
   36.4800   27.3310   43.4560 H   0  0  0  0  0  0  0  0  0  0  0  0
   37.1490   28.9390   44.1180 H   0  0  0  0  0  0  0  0  0  0  0  0
   39.5890   28.1630   43.6300 H   0  0  0  0  0  0  0  0  0  0  0  0
   38.9600   26.1680   42.9830 C   0  0  0  0  0  0  0  0  0  0  0  0
   39.7840   25.5870   43.6800 O   0  0  0  0  0  0  0  0  0  0  0  0
   40.4380   26.0450   40.3650 Cl  0  0  0  0  0  0  0  0  0  0  0  0
   38.8820   25.2990   40.7240 C   0  0  0  0  0  0  0  0  0  0  0  0
   38.2580   25.3980   41.9590 C   0  0  0  0  0  0  0  0  0  0  0  0
   37.0570   24.7660   42.0820 C   0  0  0  0  0  0  0  0  0  0  0  0
   36.5580   24.8260   43.0160 H   0  0  0  0  0  0  0  0  0  0  0  0
   36.4710   24.0590   41.0520 C   0  0  0  0  0  3  0  0  0  0  0  0
   37.0880   23.9560   39.8240 C   0  0  0  0  0  0  0  0  0  0  0  0
   36.3230   23.0530   38.5340 Cl  0  0  0  0  0  0  0  0  0  0  0  0
   38.3040   24.5870   39.6700 C   0  0  0  0  0  0  0  0  0  0  0  0
   38.7800   24.5050   38.7150 H   0  0  0  0  0  0  0  0  0  0  0  0
  1  2  1  0  0  0  0
  2 21  1  0  0  0  0
  2  3  2  0  0  0  0
  4  1  1  0  0  0  0
  5  8  1  1  0  0  0
  5  7  1  0  0  0  0
  6  5  1  0  0  0  0
  6  7  1  0  0  0  0
  7  1  1  0  0  0  0
  7 11  1  1  0  0  0
  9  6  1  0  0  0  0
 10  6  1  0  0  0  0
 12 18  1  0  0  0  0
 13  5  1  0  0  0  0
 13 12  2  0  0  0  0
 14 13  1  0  0  0  0
 15 14  2  0  0  0  0
 15 16  1  0  0  0  0
 16 17  2  0  0  0  0
 17 12  1  0  0  0  0
 19 14  1  0  0  0  0
 20 16  1  0  0  0  0
 21 24  1  6  0  0  0
 21 23  1  0  0  0  0
 21 22  1  0  0  0  0
 22 26  1  0  0  0  0
 23 22  1  0  0  0  0
 23 27  1  1  0  0  0
 25 22  1  0  0  0  0
 28 23  1  0  0  0  0
 28 29  2  0  0  0  0
 30 31  1  0  0  0  0
 31 32  1  0  0  0  0
 32 33  2  0  0  0  0
 32 28  1  0  0  0  0
 33 34  1  0  0  0  0
 35 33  1  0  0  0  0
 36 35  2  0  0  0  0
 37 36  1  0  0  0  0
 38 36  1  0  0  0  0
 38 31  2  0  0  0  0
 39 38  1  0  0  0  0
M  END
>  <minimizedAffinity>
-5.53200293

$$$$

 OpenBabel03242510243D

 39 42  0  0  1  0  0  0  0  0999 V2000
   38.3010   30.2260   41.1160 N   0  0  0  0  0  0  0  0  0  0  0  0
   39.1460   30.2460   42.2200 C   0  0  0  0  0  0  0  0  0  0  0  0
   39.6120   31.2170   42.8760 O   0  0  0  0  0  0  0  0  0  0  0  0
   38.6020   29.5260   40.4030 H   0  0  0  0  0  0  0  0  0  0  0  0
   37.2300   32.1140   39.9380 C   0  0  1  0  0  0  0  0  0  0  0  0
   36.4930   30.9750   39.5890 C   0  0  0  0  0  0  0  0  0  0  0  0
   37.1670   31.0720   40.9900 C   0  0  1  0  0  0  0  0  0  0  0  0
   36.7600   33.1060   40.1200 H   0  0  0  0  0  0  0  0  0  0  0  0
   36.7720   30.0880   38.9890 H   0  0  0  0  0  0  0  0  0  0  0  0
   35.3650   31.0810   39.5680 H   0  0  0  0  0  0  0  0  0  0  0  0
   36.3820   31.0790   41.7640 H   0  0  0  0  0  0  0  0  0  0  0  0
   39.6130   33.1690   39.8210 C   0  0  0  0  0  0  0  0  0  0  0  0
   38.6040   32.3090   39.2740 C   0  0  0  0  0  0  0  0  0  0  0  0
   38.8920   31.6630   38.0930 C   0  0  0  0  0  0  0  0  0  0  0  0
   40.0930   31.8610   37.5070 N   0  0  0  0  0  0  0  0  0  0  0  0
   41.0420   32.6820   38.0390 C   0  0  0  0  0  0  0  0  0  0  0  0
   40.7810   33.3510   39.2370 N   0  0  0  0  0  0  0  0  0  0  0  0
   39.3700   33.6400   40.7490 H   0  0  0  0  0  0  0  0  0  0  0  0
   38.1430   31.0050   37.6600 H   0  0  0  0  0  0  0  0  0  0  0  0
   41.9750   32.7790   37.4990 H   0  0  0  0  0  0  0  0  0  0  0  0
   39.6380   28.9380   42.8100 C   0  0  2  0  0  0  0  0  0  0  0  0
   41.1300   28.5610   42.5050 C   0  0  0  0  0  0  0  0  0  0  0  0
   39.9700   27.7960   41.9510 C   0  0  1  0  0  0  0  0  0  0  0  0
   39.4350   28.7530   43.8830 H   0  0  0  0  0  0  0  0  0  0  0  0
   41.7370   28.1490   43.3030 H   0  0  0  0  0  0  0  0  0  0  0  0
   41.6390   29.2530   41.8050 H   0  0  0  0  0  0  0  0  0  0  0  0
   39.6140   27.8900   40.8920 H   0  0  0  0  0  0  0  0  0  0  0  0
   39.7170   26.4150   42.5060 C   0  0  0  0  0  0  0  0  0  0  0  0
   40.1470   26.1120   43.6130 O   0  0  0  0  0  0  0  0  0  0  0  0
   36.7410   26.6100   42.9080 Cl  0  0  0  0  0  0  0  0  0  0  0  0
   37.5850   25.4390   41.8980 C   0  0  0  0  0  0  0  0  0  0  0  0
   38.9650   25.4080   41.7600 C   0  0  0  0  0  0  0  0  0  0  0  0
   39.4700   24.4420   40.9420 C   0  0  0  0  0  0  0  0  0  0  0  0
   40.5220   24.3960   40.8190 H   0  0  0  0  0  0  0  0  0  0  0  0
   38.6750   23.5320   40.2760 C   0  0  0  0  0  3  0  0  0  0  0  0
   37.3040   23.5580   40.4090 C   0  0  0  0  0  0  0  0  0  0  0  0
   36.3180   22.3920   39.5530 Cl  0  0  0  0  0  0  0  0  0  0  0  0
   36.7660   24.5250   41.2310 C   0  0  0  0  0  0  0  0  0  0  0  0
   35.7000   24.5430   41.3320 H   0  0  0  0  0  0  0  0  0  0  0  0
  1  2  1  0  0  0  0
  2 21  1  0  0  0  0
  2  3  2  0  0  0  0
  4  1  1  0  0  0  0
  5  8  1  1  0  0  0
  5  7  1  0  0  0  0
  6  5  1  0  0  0  0
  6  7  1  0  0  0  0
  7  1  1  0  0  0  0
  7 11  1  1  0  0  0
  9  6  1  0  0  0  0
 10  6  1  0  0  0  0
 12 18  1  0  0  0  0
 13 12  1  0  0  0  0
 13  5  1  0  0  0  0
 14 13  2  0  0  0  0
 15 16  2  0  0  0  0
 15 14  1  0  0  0  0
 16 17  1  0  0  0  0
 17 12  2  0  0  0  0
 19 14  1  0  0  0  0
 20 16  1  0  0  0  0
 21 24  1  1  0  0  0
 22 21  1  0  0  0  0
 22 25  1  0  0  0  0
 23 27  1  6  0  0  0
 23 22  1  0  0  0  0
 23 28  1  0  0  0  0
 23 21  1  0  0  0  0
 26 22  1  0  0  0  0
 28 29  2  0  0  0  0
 31 30  1  0  0  0  0
 32 31  1  0  0  0  0
 32 28  1  0  0  0  0
 33 32  2  0  0  0  0
 34 33  1  0  0  0  0
 35 36  2  0  0  0  0
 35 33  1  0  0  0  0
 36 38  1  0  0  0  0
 37 36  1  0  0  0  0
 38 39  1  0  0  0  0
 38 31  2  0  0  0  0
M  END
>  <minimizedAffinity>
-5.52474403

$$$$

 OpenBabel03242510243D

 39 42  0  0  1  0  0  0  0  0999 V2000
   36.9250   29.8150   39.7500 N   0  0  0  0  0  0  0  0  0  0  0  0
   36.1160   29.0660   40.5970 C   0  0  0  0  0  0  0  0  0  0  0  0
   34.8600   28.9860   40.6690 O   0  0  0  0  0  0  0  0  0  0  0  0
   37.7280   30.2490   40.2560 H   0  0  0  0  0  0  0  0  0  0  0  0
   37.3400   31.0950   37.6800 C   0  0  1  0  0  0  0  0  0  0  0  0
   37.9580   29.8520   37.4940 C   0  0  0  0  0  0  0  0  0  0  0  0
   36.6690   29.9630   38.3610 C   0  0  1  0  0  0  0  0  0  0  0  0
   36.8110   31.6360   36.8640 H   0  0  0  0  0  0  0  0  0  0  0  0
   38.8300   29.3940   37.9970 H   0  0  0  0  0  0  0  0  0  0  0  0
   37.8370   29.3670   36.4770 H   0  0  0  0  0  0  0  0  0  0  0  0
   35.8610   29.3920   37.8750 H   0  0  0  0  0  0  0  0  0  0  0  0
   37.3190   33.1220   39.3230 C   0  0  0  0  0  0  0  0  0  0  0  0
   38.0380   32.1100   38.6020 C   0  0  0  0  0  0  0  0  0  0  0  0
   39.4060   32.0820   38.7410 C   0  0  0  0  0  0  0  0  0  0  0  0
   40.0090   32.9940   39.5350 N   0  0  0  0  0  0  0  0  0  0  0  0
   39.3130   33.9510   40.2120 C   0  0  0  0  0  0  0  0  0  0  0  0
   37.9220   34.0050   40.0940 N   0  0  0  0  0  0  0  0  0  0  0  0
   36.2560   33.1050   39.2130 H   0  0  0  0  0  0  0  0  0  0  0  0
   39.9710   31.3240   38.2060 H   0  0  0  0  0  0  0  0  0  0  0  0
   39.8810   34.6390   40.8250 H   0  0  0  0  0  0  0  0  0  0  0  0
   36.7540   28.1610   41.6350 C   0  0  2  0  0  0  0  0  0  0  0  0
   37.4240   28.8790   42.8590 C   0  0  0  0  0  0  0  0  0  0  0  0
   38.2070   28.1320   41.8260 C   0  0  1  0  0  0  0  0  0  0  0  0
   36.1530   27.3080   42.0080 H   0  0  0  0  0  0  0  0  0  0  0  0
   37.2770   28.4680   43.8500 H   0  0  0  0  0  0  0  0  0  0  0  0
   37.4430   29.9840   42.7810 H   0  0  0  0  0  0  0  0  0  0  0  0
   38.7950   28.6310   41.0110 H   0  0  0  0  0  0  0  0  0  0  0  0
   38.8270   26.8180   42.2370 C   0  0  0  0  0  0  0  0  0  0  0  0
   39.1200   26.6200   43.4100 O   0  0  0  0  0  0  0  0  0  0  0  0
   36.7470   24.6430   42.2530 Cl  0  0  0  0  0  0  0  0  0  0  0  0
   38.1740   24.7170   41.2230 C   0  0  0  0  0  0  0  0  0  0  0  0
   39.0940   25.7540   41.2710 C   0  0  0  0  0  0  0  0  0  0  0  0
   40.1480   25.6690   40.4100 C   0  0  0  0  0  0  0  0  0  0  0  0
   40.8650   26.4490   40.4270 H   0  0  0  0  0  0  0  0  0  0  0  0
   40.3150   24.6200   39.5300 C   0  0  0  0  0  3  0  0  0  0  0  0
   39.4040   23.5870   39.4780 C   0  0  0  0  0  0  0  0  0  0  0  0
   39.6390   22.2680   38.3520 Cl  0  0  0  0  0  0  0  0  0  0  0  0
   38.3280   23.6470   40.3380 C   0  0  0  0  0  0  0  0  0  0  0  0
   37.6220   22.8430   40.2950 H   0  0  0  0  0  0  0  0  0  0  0  0
  1  4  1  0  0  0  0
  1  2  1  0  0  0  0
  2  3  2  0  0  0  0
  2 21  1  0  0  0  0
  5  8  1  6  0  0  0
  5  7  1  0  0  0  0
  5 13  1  0  0  0  0
  6  5  1  0  0  0  0
  6  9  1  0  0  0  0
  6  7  1  0  0  0  0
  7 11  1  6  0  0  0
  7  1  1  0  0  0  0
 10  6  1  0  0  0  0
 12 17  1  0  0  0  0
 13 14  1  0  0  0  0
 13 12  2  0  0  0  0
 14 15  2  0  0  0  0
 15 16  1  0  0  0  0
 16 20  1  0  0  0  0
 17 16  2  0  0  0  0
 18 12  1  0  0  0  0
 19 14  1  0  0  0  0
 21 23  1  0  0  0  0
 21 24  1  1  0  0  0
 21 22  1  0  0  0  0
 22 25  1  0  0  0  0
 23 27  1  6  0  0  0
 23 28  1  0  0  0  0
 23 22  1  0  0  0  0
 26 22  1  0  0  0  0
 28 29  2  0  0  0  0
 31 32  1  0  0  0  0
 31 30  1  0  0  0  0
 32 28  1  0  0  0  0
 33 34  1  0  0  0  0
 33 32  2  0  0  0  0
 35 33  1  0  0  0  0
 36 35  2  0  0  0  0
 36 38  1  0  0  0  0
 37 36  1  0  0  0  0
 38 31  2  0  0  0  0
 39 38  1  0  0  0  0
M  END
>  <minimizedAffinity>
-5.48524189

$$$$

 OpenBabel03242510243D

 39 42  0  0  1  0  0  0  0  0999 V2000
   39.3740   31.5380   40.9610 N   0  0  0  0  0  0  0  0  0  0  0  0
   39.9640   30.8770   42.0320 C   0  0  0  0  0  0  0  0  0  0  0  0
   40.7790   31.2920   42.9010 O   0  0  0  0  0  0  0  0  0  0  0  0
   39.3560   30.9510   40.0980 H   0  0  0  0  0  0  0  0  0  0  0  0
   39.3110   33.8160   40.0090 C   0  0  1  0  0  0  0  0  0  0  0  0
   38.0360   33.2750   39.7980 C   0  0  0  0  0  0  0  0  0  0  0  0
   38.8640   32.8610   41.0500 C   0  0  1  0  0  0  0  0  0  0  0  0
   39.4780   34.8820   40.2780 H   0  0  0  0  0  0  0  0  0  0  0  0
   37.7010   32.4400   39.1540 H   0  0  0  0  0  0  0  0  0  0  0  0
   37.1520   33.9580   39.9860 H   0  0  0  0  0  0  0  0  0  0  0  0
   38.3350   33.1990   41.9560 H   0  0  0  0  0  0  0  0  0  0  0  0
   40.2240   32.5430   37.9230 C   0  0  0  0  0  0  0  0  0  0  0  0
   40.4540   33.3270   39.1020 C   0  0  0  0  0  0  0  0  0  0  0  0
   41.7590   33.6190   39.4260 C   0  0  0  0  0  0  0  0  0  0  0  0
   42.7550   33.1640   38.6350 N   0  0  0  0  0  0  0  0  0  0  0  0
   42.5210   32.4190   37.5180 C   0  0  0  0  0  0  0  0  0  0  0  0
   41.2070   32.1060   37.1610 N   0  0  0  0  0  0  0  0  0  0  0  0
   39.2000   32.3500   37.6850 H   0  0  0  0  0  0  0  0  0  0  0  0
   41.9570   34.2130   40.3150 H   0  0  0  0  0  0  0  0  0  0  0  0
   43.3810   32.0980   36.9450 H   0  0  0  0  0  0  0  0  0  0  0  0
   39.6340   29.4180   42.2850 C   0  0  2  0  0  0  0  0  0  0  0  0
   40.0210   28.4140   41.1420 C   0  0  0  0  0  0  0  0  0  0  0  0
   38.6040   28.7270   41.5040 C   0  0  1  0  0  0  0  0  0  0  0  0
   39.9420   28.9860   43.2580 H   0  0  0  0  0  0  0  0  0  0  0  0
   40.4670   27.4650   41.4110 H   0  0  0  0  0  0  0  0  0  0  0  0
   40.4100   28.9000   40.2260 H   0  0  0  0  0  0  0  0  0  0  0  0
   37.9440   29.4040   40.9010 H   0  0  0  0  0  0  0  0  0  0  0  0
   37.8090   27.6500   42.2040 C   0  0  0  0  0  0  0  0  0  0  0  0
   37.1840   27.9170   43.2230 O   0  0  0  0  0  0  0  0  0  0  0  0
   39.7110   25.7940   43.6150 Cl  0  0  0  0  0  0  0  0  0  0  0  0
   38.6090   25.3660   42.3100 C   0  0  0  0  0  0  0  0  0  0  0  0
   37.7570   26.2790   41.7030 C   0  0  0  0  0  0  0  0  0  0  0  0
   36.9630   25.7950   40.7070 C   0  0  0  0  0  0  0  0  0  0  0  0
   36.3030   26.4720   40.2270 H   0  0  0  0  0  0  0  0  0  0  0  0
   36.9850   24.4770   40.3020 C   0  0  0  0  0  3  0  0  0  0  0  0
   37.8290   23.5660   40.9010 C   0  0  0  0  0  0  0  0  0  0  0  0
   37.8370   21.8980   40.3690 Cl  0  0  0  0  0  0  0  0  0  0  0  0
   38.6440   24.0280   41.9120 C   0  0  0  0  0  0  0  0  0  0  0  0
   39.2980   23.3180   42.3750 H   0  0  0  0  0  0  0  0  0  0  0  0
  1  7  1  0  0  0  0
  1  2  1  0  0  0  0
  2 21  1  0  0  0  0
  2  3  2  0  0  0  0
  4  1  1  0  0  0  0
  5  8  1  1  0  0  0
  5  7  1  0  0  0  0
  6 10  1  0  0  0  0
  6  5  1  0  0  0  0
  6  7  1  0  0  0  0
  7 11  1  1  0  0  0
  9  6  1  0  0  0  0
 12 13  1  0  0  0  0
 13 14  2  0  0  0  0
 13  5  1  0  0  0  0
 14 19  1  0  0  0  0
 15 14  1  0  0  0  0
 16 15  2  0  0  0  0
 17 16  1  0  0  0  0
 17 12  2  0  0  0  0
 18 12  1  0  0  0  0
 20 16  1  0  0  0  0
 21 24  1  1  0  0  0
 22 25  1  0  0  0  0
 22 23  1  0  0  0  0
 22 21  1  0  0  0  0
 23 27  1  6  0  0  0
 23 28  1  0  0  0  0
 23 21  1  0  0  0  0
 26 22  1  0  0  0  0
 28 29  2  0  0  0  0
 31 30  1  0  0  0  0
 32 28  1  0  0  0  0
 32 31  2  0  0  0  0
 33 32  1  0  0  0  0
 34 33  1  0  0  0  0
 35 33  2  0  0  0  0
 35 36  1  0  0  0  0
 36 38  2  0  0  0  0
 37 36  1  0  0  0  0
 38 31  1  0  0  0  0
 38 39  1  0  0  0  0
M  END
>  <minimizedAffinity>
-5.39227247

$$$$

 OpenBabel03242510243D

 39 42  0  0  1  0  0  0  0  0999 V2000
   37.0750   28.5290   41.2460 N   0  0  0  0  0  0  0  0  0  0  0  0
   36.0870   29.0760   40.4350 C   0  0  0  0  0  0  0  0  0  0  0  0
   34.8320   28.9680   40.4890 O   0  0  0  0  0  0  0  0  0  0  0  0
   37.8850   28.1710   40.6930 H   0  0  0  0  0  0  0  0  0  0  0  0
   37.5660   27.2820   43.3200 C   0  0  1  0  0  0  0  0  0  0  0  0
   38.3620   28.4350   43.3660 C   0  0  0  0  0  0  0  0  0  0  0  0
   36.9730   28.4700   42.6620 C   0  0  1  0  0  0  0  0  0  0  0  0
   37.0740   26.8510   44.2200 H   0  0  0  0  0  0  0  0  0  0  0  0
   39.2190   28.7480   42.7410 H   0  0  0  0  0  0  0  0  0  0  0  0
   38.4310   28.9700   44.3630 H   0  0  0  0  0  0  0  0  0  0  0  0
   36.3140   29.1650   43.2070 H   0  0  0  0  0  0  0  0  0  0  0  0
   37.1280   25.0780   41.9960 C   0  0  0  0  0  0  0  0  0  0  0  0
   38.0050   26.1480   42.3790 C   0  0  0  0  0  0  0  0  0  0  0  0
   39.2910   26.1200   41.8920 C   0  0  0  0  0  0  0  0  0  0  0  0
   39.6710   25.1040   41.0850 N   0  0  0  0  0  0  0  0  0  0  0  0
   38.8270   24.0950   40.7300 C   0  0  0  0  0  0  0  0  0  0  0  0
   37.5140   24.0940   41.2080 N   0  0  0  0  0  0  0  0  0  0  0  0
   36.1290   25.1380   42.3720 H   0  0  0  0  0  0  0  0  0  0  0  0
   39.9730   26.9200   42.1680 H   0  0  0  0  0  0  0  0  0  0  0  0
   39.2200   23.3240   40.0800 H   0  0  0  0  0  0  0  0  0  0  0  0
   36.4820   29.9670   39.2720 C   0  0  2  0  0  0  0  0  0  0  0  0
   37.2570   29.2690   38.0990 C   0  0  0  0  0  0  0  0  0  0  0  0
   37.8880   30.2820   39.0010 C   0  0  1  0  0  0  0  0  0  0  0  0
   35.6990   30.6220   38.8410 H   0  0  0  0  0  0  0  0  0  0  0  0
   36.9950   29.5190   37.0790 H   0  0  0  0  0  0  0  0  0  0  0  0
   37.5180   28.2100   38.2960 H   0  0  0  0  0  0  0  0  0  0  0  0
   38.5930   30.0200   39.8330 H   0  0  0  0  0  0  0  0  0  0  0  0
   38.1940   31.6410   38.4170 C   0  0  0  0  0  0  0  0  0  0  0  0
   37.2880   32.3240   37.9530 O   0  0  0  0  0  0  0  0  0  0  0  0
   38.9440   33.1370   40.9170 Cl  0  0  0  0  0  0  0  0  0  0  0  0
   39.9660   32.8830   39.5050 C   0  0  0  0  0  0  0  0  0  0  0  0
   39.5510   32.1800   38.3820 C   0  0  0  0  0  0  0  0  0  0  0  0
   40.4570   32.0680   37.3700 C   0  0  0  0  0  0  0  0  0  0  0  0
   40.1650   31.5360   36.5010 H   0  0  0  0  0  0  0  0  0  0  0  0
   41.7220   32.6140   37.4310 C   0  0  0  0  0  3  0  0  0  0  0  0
   42.1390   33.3130   38.5430 C   0  0  0  0  0  0  0  0  0  0  0  0
   43.7500   33.9960   38.5950 Cl  0  0  0  0  0  0  0  0  0  0  0  0
   41.2430   33.4420   39.5830 C   0  0  0  0  0  0  0  0  0  0  0  0
   41.5700   33.9850   40.4450 H   0  0  0  0  0  0  0  0  0  0  0  0
  1  7  1  0  0  0  0
  2  3  2  0  0  0  0
  2  1  1  0  0  0  0
  4  1  1  0  0  0  0
  5  6  1  0  0  0  0
  5  8  1  1  0  0  0
  6 10  1  0  0  0  0
  7 11  1  1  0  0  0
  7  5  1  0  0  0  0
  7  6  1  0  0  0  0
  9  6  1  0  0  0  0
 12 18  1  0  0  0  0
 12 13  1  0  0  0  0
 13  5  1  0  0  0  0
 14 19  1  0  0  0  0
 14 13  2  0  0  0  0
 15 14  1  0  0  0  0
 16 15  2  0  0  0  0
 16 17  1  0  0  0  0
 17 12  2  0  0  0  0
 20 16  1  0  0  0  0
 21 24  1  6  0  0  0
 21  2  1  0  0  0  0
 22 26  1  0  0  0  0
 22 23  1  0  0  0  0
 22 21  1  0  0  0  0
 23 21  1  0  0  0  0
 23 27  1  1  0  0  0
 25 22  1  0  0  0  0
 28 23  1  0  0  0  0
 29 28  2  0  0  0  0
 31 38  1  0  0  0  0
 31 30  1  0  0  0  0
 32 28  1  0  0  0  0
 32 31  2  0  0  0  0
 33 35  2  0  0  0  0
 33 32  1  0  0  0  0
 34 33  1  0  0  0  0
 35 36  1  0  0  0  0
 36 37  1  0  0  0  0
 36 38  2  0  0  0  0
 38 39  1  0  0  0  0
M  END
>  <minimizedAffinity>
-5.36721611

$$$$

 OpenBabel03242510243D

 39 42  0  0  1  0  0  0  0  0999 V2000
   36.0180   27.2830   38.2930 N   0  0  0  0  0  0  0  0  0  0  0  0
   36.2500   25.9180   38.4170 C   0  0  0  0  0  0  0  0  0  0  0  0
   35.7610   24.9440   37.7820 O   0  0  0  0  0  0  0  0  0  0  0  0
   35.9360   27.7540   39.2200 H   0  0  0  0  0  0  0  0  0  0  0  0
   36.2420   29.3850   37.0150 C   0  0  1  0  0  0  0  0  0  0  0  0
   37.2570   28.5400   36.5480 C   0  0  0  0  0  0  0  0  0  0  0  0
   35.9060   27.9420   37.0390 C   0  0  1  0  0  0  0  0  0  0  0  0
   35.6710   30.0700   36.3500 H   0  0  0  0  0  0  0  0  0  0  0  0
   38.1610   28.1470   37.0510 H   0  0  0  0  0  0  0  0  0  0  0  0
   37.4350   28.5230   35.4290 H   0  0  0  0  0  0  0  0  0  0  0  0
   35.4030   27.4510   36.1900 H   0  0  0  0  0  0  0  0  0  0  0  0
   35.5680   29.7930   39.5020 C   0  0  0  0  0  0  0  0  0  0  0  0
   36.4380   30.0460   38.3900 C   0  0  0  0  0  0  0  0  0  0  0  0
   37.4680   30.9400   38.5800 C   0  0  0  0  0  0  0  0  0  0  0  0
   37.6150   31.5320   39.7850 N   0  0  0  0  0  0  0  0  0  0  0  0
   36.7790   31.2820   40.8320 C   0  0  0  0  0  0  0  0  0  0  0  0
   35.7250   30.3790   40.6730 N   0  0  0  0  0  0  0  0  0  0  0  0
   34.7910   29.0790   39.3310 H   0  0  0  0  0  0  0  0  0  0  0  0
   38.1400   31.1470   37.7520 H   0  0  0  0  0  0  0  0  0  0  0  0
   36.9750   31.8040   41.7600 H   0  0  0  0  0  0  0  0  0  0  0  0
   37.2390   25.4180   39.4530 C   0  0  2  0  0  0  0  0  0  0  0  0
   36.8950   24.0450   40.1310 C   0  0  0  0  0  0  0  0  0  0  0  0
   36.8790   25.3440   40.8730 C   0  0  1  0  0  0  0  0  0  0  0  0
   38.3120   25.4200   39.1770 H   0  0  0  0  0  0  0  0  0  0  0  0
   37.6900   23.3260   40.2860 H   0  0  0  0  0  0  0  0  0  0  0  0
   35.9070   23.6340   39.8440 H   0  0  0  0  0  0  0  0  0  0  0  0
   35.9390   25.8930   41.1440 H   0  0  0  0  0  0  0  0  0  0  0  0
   37.9780   25.5850   41.8800 C   0  0  0  0  0  0  0  0  0  0  0  0
   38.4000   24.6560   42.5580 O   0  0  0  0  0  0  0  0  0  0  0  0
   36.3400   27.3570   43.6790 Cl  0  0  0  0  0  0  0  0  0  0  0  0
   37.8640   27.7790   42.9010 C   0  0  0  0  0  0  0  0  0  0  0  0
   38.5660   26.9080   42.0800 C   0  0  0  0  0  0  0  0  0  0  0  0
   39.7290   27.3810   41.5510 C   0  0  0  0  0  0  0  0  0  0  0  0
   40.2860   26.7350   40.9200 H   0  0  0  0  0  0  0  0  0  0  0  0
   40.2050   28.6510   41.8000 C   0  0  0  0  0  3  0  0  0  0  0  0
   39.5130   29.5200   42.6140 C   0  0  0  0  0  0  0  0  0  0  0  0
   40.1390   31.1270   42.9140 Cl  0  0  0  0  0  0  0  0  0  0  0  0
   38.3310   29.0690   43.1630 C   0  0  0  0  0  0  0  0  0  0  0  0
   37.7950   29.7460   43.7950 H   0  0  0  0  0  0  0  0  0  0  0  0
  1  2  1  0  0  0  0
  1  4  1  0  0  0  0
  2 21  1  0  0  0  0
  3  2  2  0  0  0  0
  5  8  1  6  0  0  0
  5  7  1  0  0  0  0
  5 13  1  0  0  0  0
  6  5  1  0  0  0  0
  6  7  1  0  0  0  0
  6  9  1  0  0  0  0
  7 11  1  6  0  0  0
  7  1  1  0  0  0  0
 10  6  1  0  0  0  0
 12 17  1  0  0  0  0
 13 14  1  0  0  0  0
 13 12  2  0  0  0  0
 14 15  2  0  0  0  0
 15 16  1  0  0  0  0
 16 20  1  0  0  0  0
 17 16  2  0  0  0  0
 18 12  1  0  0  0  0
 19 14  1  0  0  0  0
 21 24  1  6  0  0  0
 21 22  1  0  0  0  0
 21 23  1  0  0  0  0
 22 25  1  0  0  0  0
 22 23  1  0  0  0  0
 23 27  1  1  0  0  0
 23 28  1  0  0  0  0
 26 22  1  0  0  0  0
 28 32  1  0  0  0  0
 28 29  2  0  0  0  0
 31 38  1  0  0  0  0
 31 30  1  0  0  0  0
 32 31  2  0  0  0  0
 33 35  2  0  0  0  0
 33 32  1  0  0  0  0
 34 33  1  0  0  0  0
 35 36  1  0  0  0  0
 36 37  1  0  0  0  0
 36 38  2  0  0  0  0
 38 39  1  0  0  0  0
M  END
>  <minimizedAffinity>
-5.36066771

$$$$

 OpenBabel03242510243D

 39 42  0  0  1  0  0  0  0  0999 V2000
   38.3410   26.8880   41.5780 N   0  0  0  0  0  0  0  0  0  0  0  0
   37.5520   26.2390   40.6350 C   0  0  0  0  0  0  0  0  0  0  0  0
   36.9890   25.1110   40.6770 O   0  0  0  0  0  0  0  0  0  0  0  0
   39.1700   27.3510   41.1460 H   0  0  0  0  0  0  0  0  0  0  0  0
   37.6900   28.2210   43.5520 C   0  0  1  0  0  0  0  0  0  0  0  0
   36.5920   27.4010   43.2620 C   0  0  0  0  0  0  0  0  0  0  0  0
   38.0380   26.9050   42.9660 C   0  0  1  0  0  0  0  0  0  0  0  0
   38.0090   28.4600   44.5920 H   0  0  0  0  0  0  0  0  0  0  0  0
   35.9010   27.3950   42.3970 H   0  0  0  0  0  0  0  0  0  0  0  0
   36.0670   26.9180   44.1420 H   0  0  0  0  0  0  0  0  0  0  0  0
   38.2510   26.0280   43.5980 H   0  0  0  0  0  0  0  0  0  0  0  0
   36.9220   29.9680   41.7740 C   0  0  0  0  0  0  0  0  0  0  0  0
   37.9320   29.4400   42.6460 C   0  0  0  0  0  0  0  0  0  0  0  0
   39.1640   30.0530   42.6350 C   0  0  0  0  0  0  0  0  0  0  0  0
   39.3710   31.1080   41.8160 N   0  0  0  0  0  0  0  0  0  0  0  0
   38.4020   31.5970   40.9920 C   0  0  0  0  0  0  0  0  0  0  0  0
   37.1400   30.9990   40.9810 N   0  0  0  0  0  0  0  0  0  0  0  0
   35.9690   29.4860   41.8200 H   0  0  0  0  0  0  0  0  0  0  0  0
   39.9450   29.6710   43.2880 H   0  0  0  0  0  0  0  0  0  0  0  0
   38.6590   32.4460   40.3720 H   0  0  0  0  0  0  0  0  0  0  0  0
   37.2600   26.9160   39.3100 C   0  0  2  0  0  0  0  0  0  0  0  0
   38.3540   26.7580   38.1960 C   0  0  0  0  0  0  0  0  0  0  0  0
   38.0480   28.0660   38.8540 C   0  0  1  0  0  0  0  0  0  0  0  0
   36.2630   26.7430   38.8570 H   0  0  0  0  0  0  0  0  0  0  0  0
   38.0380   26.5600   37.1790 H   0  0  0  0  0  0  0  0  0  0  0  0
   39.2750   26.2430   38.5360 H   0  0  0  0  0  0  0  0  0  0  0  0
   38.6950   28.5290   39.6450 H   0  0  0  0  0  0  0  0  0  0  0  0
   37.3360   29.1110   38.0300 C   0  0  0  0  0  0  0  0  0  0  0  0
   37.9380   30.1120   37.6600 O   0  0  0  0  0  0  0  0  0  0  0  0
   36.9510   28.4250   35.1250 Cl  0  0  0  0  0  0  0  0  0  0  0  0
   35.6790   28.6560   36.3230 C   0  0  0  0  0  0  0  0  0  0  0  0
   35.9320   28.9720   37.6500 C   0  0  0  0  0  0  0  0  0  0  0  0
   34.8420   29.1180   38.4550 C   0  0  0  0  0  0  0  0  0  0  0  0
   35.0080   29.3600   39.4740 H   0  0  0  0  0  0  0  0  0  0  0  0
   33.5480   28.9660   38.0020 C   0  0  0  0  0  3  0  0  0  0  0  0
   33.2910   28.6510   36.6850 C   0  0  0  0  0  0  0  0  0  0  0  0
   31.6400   28.4630   36.1360 Cl  0  0  0  0  0  0  0  0  0  0  0  0
   34.3750   28.4980   35.8470 C   0  0  0  0  0  0  0  0  0  0  0  0
   34.1720   28.2530   34.8250 H   0  0  0  0  0  0  0  0  0  0  0  0
  1  7  1  0  0  0  0
  2  3  2  0  0  0  0
  2  1  1  0  0  0  0
  4  1  1  0  0  0  0
  5  8  1  1  0  0  0
  6  5  1  0  0  0  0
  6 10  1  0  0  0  0
  7  6  1  0  0  0  0
  7  5  1  0  0  0  0
  7 11  1  1  0  0  0
  9  6  1  0  0  0  0
 12 18  1  0  0  0  0
 12 13  1  0  0  0  0
 13  5  1  0  0  0  0
 14 13  2  0  0  0  0
 14 19  1  0  0  0  0
 15 14  1  0  0  0  0
 16 15  2  0  0  0  0
 17 16  1  0  0  0  0
 17 12  2  0  0  0  0
 20 16  1  0  0  0  0
 21 24  1  6  0  0  0
 21  2  1  0  0  0  0
 22 26  1  0  0  0  0
 22 23  1  0  0  0  0
 22 21  1  0  0  0  0
 23 21  1  0  0  0  0
 23 27  1  1  0  0  0
 25 22  1  0  0  0  0
 28 23  1  0  0  0  0
 29 28  2  0  0  0  0
 30 31  1  0  0  0  0
 31 32  1  0  0  0  0
 32 28  1  0  0  0  0
 32 33  2  0  0  0  0
 33 34  1  0  0  0  0
 35 33  1  0  0  0  0
 36 35  2  0  0  0  0
 37 36  1  0  0  0  0
 38 31  2  0  0  0  0
 38 36  1  0  0  0  0
 39 38  1  0  0  0  0
M  END
>  <minimizedAffinity>
-5.33313084

$$$$
