
 OpenBabel03252508493D

 29 31  0  0  0  0  0  0  0  0999 V2000
   45.8390   34.1950   41.0370 C   0  0  0  0  0  0  0  0  0  0  0  0
   46.4650   34.7790   42.1340 C   0  0  0  0  0  0  0  0  0  0  0  0
   47.8200   35.0620   41.9950 C   0  0  0  0  0  0  0  0  0  0  0  0
   48.4410   34.7570   40.8150 N   0  0  0  0  0  0  0  0  0  0  0  0
   47.8020   34.1980   39.7920 C   0  0  0  0  0  0  0  0  0  0  0  0
   46.4890   33.9120   39.9000 N   0  0  0  0  0  0  0  0  0  0  0  0
   48.3470   35.5190   42.8230 H   0  0  0  0  0  0  0  0  0  0  0  0
   48.2860   33.9530   38.8570 H   0  0  0  0  0  0  0  0  0  0  0  0
   45.7080   35.0570   43.3380 C   0  0  0  0  0  0  0  0  0  0  0  0
   45.0560   36.2460   43.5680 C   0  0  0  0  0  0  0  0  0  0  0  0
   44.4840   36.0650   44.8150 C   0  0  0  0  0  0  0  0  0  0  0  0
   44.7730   34.8340   45.3130 N   0  0  0  0  0  0  0  0  0  0  0  0
   45.5100   34.2550   44.3990 N   0  0  0  0  0  0  0  0  0  0  0  0
   44.9990   37.1160   42.9340 H   0  0  0  0  0  0  0  0  0  0  0  0
   43.8750   36.8280   45.3260 H   0  0  0  0  0  0  0  0  0  0  0  0
   44.4400   34.4870   46.2440 H   0  0  0  0  0  0  0  0  0  0  0  0
   44.4910   33.8950   41.1320 O   0  0  0  0  0  0  0  0  0  0  0  0
   43.4470   34.5810   40.5790 C   0  0  0  0  0  0  0  0  0  0  0  0
   43.2670   35.8530   40.5810 O   0  0  0  0  0  0  0  0  0  0  0  0
   40.6730   34.8900   41.7570 Cl  0  0  0  0  0  0  0  0  0  0  0  0
   41.0150   33.9780   40.3030 C   0  0  0  0  0  0  0  0  0  0  0  0
   42.3200   33.9120   39.8660 C   0  0  0  0  0  0  0  0  0  0  0  0
   42.4720   33.1720   38.7180 C   0  0  0  0  0  0  0  0  0  0  0  0
   43.4670   33.0590   38.2920 H   0  0  0  0  0  0  0  0  0  0  0  0
   41.4450   32.5480   38.0500 C   0  0  0  0  0  3  0  0  0  0  0  0
   40.1720   32.6620   38.5510 C   0  0  0  0  0  0  0  0  0  0  0  0
   38.8750   31.8670   37.6960 Cl  0  0  0  0  0  0  0  0  0  0  0  0
   39.9310   33.3870   39.6990 C   0  0  0  0  0  0  0  0  0  0  0  0
   38.9290   33.4780   40.0940 H   0  0  0  0  0  0  0  0  0  0  0  0
  1 17  1  0  0  0  0
  1  2  1  0  0  0  0
  2  9  1  0  0  0  0
  3  2  2  0  0  0  0
  3  7  1  0  0  0  0
  4  3  1  0  0  0  0
  5  6  1  0  0  0  0
  5  4  2  0  0  0  0
  6  1  2  0  0  0  0
  8  5  1  0  0  0  0
  9 10  1  0  0  0  0
  9 13  2  0  0  0  0
 10 11  2  0  0  0  0
 11 12  1  0  0  0  0
 11 15  1  0  0  0  0
 12 16  1  0  0  0  0
 13 12  1  0  0  0  0
 14 10  1  0  0  0  0
 18 19  2  0  0  0  0
 18 17  1  0  0  0  0
 21 20  1  0  0  0  0
 22 21  1  0  0  0  0
 22 18  1  0  0  0  0
 23 22  2  0  0  0  0
 24 23  1  0  0  0  0
 25 26  2  0  0  0  0
 25 23  1  0  0  0  0
 26 28  1  0  0  0  0
 27 26  1  0  0  0  0
 28 29  1  0  0  0  0
 28 21  2  0  0  0  0
M  END
>  <minimizedAffinity>
-5.78343821

>  <minimizedRMSD>
1.04014909

$$$$
