
 OpenBabel03242516173D

 44 47  0  0  1  0  0  0  0  0999 V2000
   37.9480   27.6380   42.6190 C   0  0  0  0  0  0  0  0  0  0  0  0
   36.8410   27.3200   43.6260 C   0  0  0  0  0  0  0  0  0  0  0  0
   37.5480   28.5790   43.6270 C   0  0  0  0  0  0  0  0  0  0  0  0
   37.0510   26.4760   44.3070 H   0  0  0  0  0  0  0  0  0  0  0  0
   35.7830   27.2820   43.2760 H   0  0  0  0  0  0  0  0  0  0  0  0
   37.9990   28.7700   44.6010 H   0  0  0  0  0  0  0  0  0  0  0  0
   36.9310   29.4710   43.2980 H   0  0  0  0  0  0  0  0  0  0  0  0
   37.4510   27.7360   41.2220 C   0  0  0  0  0  0  0  0  0  0  0  0
   38.4960   28.1980   40.2140 C   0  0  0  0  0  0  0  0  0  0  0  0
   37.7810   28.0730   38.8490 C   0  0  0  0  0  0  0  0  0  0  0  0
   36.9120   29.1710   38.7760 O   0  0  0  0  0  0  0  0  0  0  0  0
   35.8640   28.7990   39.6550 C   0  0  0  0  0  0  0  0  0  0  0  0
   36.3570   28.8310   41.0920 C   0  0  0  0  0  0  0  0  0  0  0  0
   37.0120   26.8280   40.8190 H   0  0  0  0  0  0  0  0  0  0  0  0
   39.3220   27.4630   40.1460 H   0  0  0  0  0  0  0  0  0  0  0  0
   38.8170   29.2280   40.3450 H   0  0  0  0  0  0  0  0  0  0  0  0
   38.5450   28.1440   38.0390 H   0  0  0  0  0  0  0  0  0  0  0  0
   37.1820   27.1430   38.8060 H   0  0  0  0  0  0  0  0  0  0  0  0
   35.1420   29.6540   39.5750 H   0  0  0  0  0  0  0  0  0  0  0  0
   35.4040   27.8500   39.3700 H   0  0  0  0  0  0  0  0  0  0  0  0
   36.8480   29.7900   41.2680 H   0  0  0  0  0  0  0  0  0  0  0  0
   35.4990   28.6090   41.7300 H   0  0  0  0  0  0  0  0  0  0  0  0
   40.3570   27.4850   43.3800 C   0  0  0  0  0  0  0  0  0  0  0  0
   39.2240   26.8680   42.8300 C   0  0  0  0  0  0  0  0  0  0  0  0
   39.3340   25.5190   42.4850 C   0  0  0  0  0  0  0  0  0  0  0  0
   40.5220   24.8810   42.7000 N   0  0  0  0  0  0  0  0  0  0  0  0
   41.5630   25.5330   43.2300 C   0  0  0  0  0  0  0  0  0  0  0  0
   41.4980   26.8040   43.5670 N   0  0  0  0  0  0  0  0  0  0  0  0
   42.8120   24.8780   43.4700 N   0  0  0  0  0  0  0  0  0  0  0  0
   40.2810   28.5330   43.6510 H   0  0  0  0  0  0  0  0  0  0  0  0
   43.1930   24.7360   44.4480 H   0  0  0  0  0  0  0  0  0  0  0  0
   43.2650   24.5780   42.5680 H   0  0  0  0  0  0  0  0  0  0  0  0
   38.2650   24.7880   41.8830 C   0  0  2  0  0  3  0  0  0  0  0  0
   37.4680   23.9790   42.4850 O   0  0  0  0  0  1  0  0  0  0  0  0
   39.9290   24.8910   39.5570 Cl  0  0  0  0  0  0  0  0  0  0  0  0
   38.2170   24.4400   39.5170 C   0  0  0  0  0  0  0  0  0  0  0  0
   37.4920   24.4230   40.7260 C   0  0  0  0  0  0  0  0  0  0  0  0
   36.2070   24.0490   40.4870 C   0  0  0  0  0  0  0  0  0  0  0  0
   35.5930   23.9880   41.3630 H   0  0  0  0  0  0  0  0  0  0  0  0
   35.6260   23.7300   39.3010 C   0  0  0  0  0  3  0  0  0  0  0  0
   36.4570   23.7960   38.2230 C   0  0  0  0  0  0  0  0  0  0  0  0
   35.7450   23.3980   36.6610 Cl  0  0  0  0  0  0  0  0  0  0  0  0
   37.7840   24.1390   38.1910 C   0  0  0  0  0  0  0  0  0  0  0  0
   38.4310   24.1890   37.3390 H   0  0  0  0  0  0  0  0  0  0  0  0
  1 24  1  0  0  0  0
  1  2  1  0  0  0  0
  1  3  1  0  0  0  0
  2  3  1  0  0  0  0
  2  4  1  0  0  0  0
  3  6  1  0  0  0  0
  5  2  1  0  0  0  0
  7  3  1  0  0  0  0
  8  1  1  0  0  0  0
  9 16  1  0  0  0  0
  9  8  1  0  0  0  0
 10  9  1  0  0  0  0
 11 10  1  0  0  0  0
 11 12  1  0  0  0  0
 12 13  1  0  0  0  0
 13  8  1  0  0  0  0
 13 21  1  0  0  0  0
 13 22  1  0  0  0  0
 14  8  1  0  0  0  0
 15  9  1  0  0  0  0
 17 10  1  0  0  0  0
 18 10  1  0  0  0  0
 19 12  1  0  0  0  0
 20 12  1  0  0  0  0
 23 28  1  0  0  0  0
 23 30  1  0  0  0  0
 24 23  2  0  0  0  0
 25 26  2  0  0  0  0
 25 24  1  0  0  0  0
 26 27  1  0  0  0  0
 27 29  1  0  0  0  0
 27 28  2  0  0  0  0
 29 31  1  0  0  0  0
 32 29  1  0  0  0  0
 33 34  1  6  0  0  0
 33 25  1  0  0  0  0
 36 35  1  0  0  0  0
 36 37  1  0  0  0  0
 37 33  1  0  0  0  0
 38 37  2  0  0  0  0
 38 39  1  0  0  0  0
 40 38  1  0  0  0  0
 41 40  2  0  0  0  0
 42 41  1  0  0  0  0
 43 41  1  0  0  0  0
 43 36  2  0  0  0  0
 44 43  1  0  0  0  0
M  END
>  <minimizedAffinity>
-5.99219513

$$$$

 OpenBabel03242516173D

 44 47  0  0  0  0  0  0  0  0999 V2000
   38.0940   27.9040   42.2460 C   0  0  0  0  0  0  0  0  0  0  0  0
   38.0140   27.3600   43.6730 C   0  0  0  0  0  0  0  0  0  0  0  0
   36.8860   27.9800   43.0170 C   0  0  0  0  0  0  0  0  0  0  0  0
   38.6720   27.8600   44.4060 H   0  0  0  0  0  0  0  0  0  0  0  0
   38.0200   26.2570   43.8340 H   0  0  0  0  0  0  0  0  0  0  0  0
   36.5040   28.8130   43.6080 H   0  0  0  0  0  0  0  0  0  0  0  0
   36.0450   27.2700   42.7470 H   0  0  0  0  0  0  0  0  0  0  0  0
   38.3040   26.8400   41.2300 C   0  0  0  0  0  0  0  0  0  0  0  0
   39.0940   27.2860   40.0060 C   0  0  0  0  0  0  0  0  0  0  0  0
   39.2960   25.9850   39.1960 C   0  0  0  0  0  0  0  0  0  0  0  0
   38.0630   25.7310   38.5750 O   0  0  0  0  0  0  0  0  0  0  0  0
   37.2680   25.2520   39.6460 C   0  0  0  0  0  0  0  0  0  0  0  0
   36.9560   26.3860   40.6080 C   0  0  0  0  0  0  0  0  0  0  0  0
   38.7820   25.9360   41.5950 H   0  0  0  0  0  0  0  0  0  0  0  0
   40.1230   27.5790   40.2930 H   0  0  0  0  0  0  0  0  0  0  0  0
   38.5770   28.0080   39.3800 H   0  0  0  0  0  0  0  0  0  0  0  0
   40.0760   26.1660   38.4190 H   0  0  0  0  0  0  0  0  0  0  0  0
   39.5350   25.1390   39.8690 H   0  0  0  0  0  0  0  0  0  0  0  0
   36.2900   25.0080   39.1530 H   0  0  0  0  0  0  0  0  0  0  0  0
   37.7100   24.3770   40.1280 H   0  0  0  0  0  0  0  0  0  0  0  0
   36.5730   27.2320   40.0330 H   0  0  0  0  0  0  0  0  0  0  0  0
   36.2850   25.9840   41.3700 H   0  0  0  0  0  0  0  0  0  0  0  0
   40.2120   29.2310   42.6500 C   0  0  0  0  0  0  0  0  0  0  0  0
   38.9240   29.1510   42.0990 C   0  0  0  0  0  0  0  0  0  0  0  0
   38.4500   30.2750   41.4160 C   0  0  0  0  0  0  0  0  0  0  0  0
   39.2550   31.3740   41.3230 N   0  0  0  0  0  0  0  0  0  0  0  0
   40.4740   31.3790   41.8730 C   0  0  0  0  0  0  0  0  0  0  0  0
   40.9560   30.3410   42.5240 N   0  0  0  0  0  0  0  0  0  0  0  0
   41.3330   32.5190   41.7780 N   0  0  0  0  0  0  0  0  0  0  0  0
   40.5890   28.3630   43.1820 H   0  0  0  0  0  0  0  0  0  0  0  0
   42.2480   32.4900   41.2450 H   0  0  0  0  0  0  0  0  0  0  0  0
   40.9310   33.3450   42.2930 H   0  0  0  0  0  0  0  0  0  0  0  0
   37.1440   30.3320   40.8430 C   0  0  0  0  0  0  0  0  0  0  0  0
   36.2020   31.1360   41.1860 O   0  0  0  0  0  0  0  0  0  0  0  0
   38.1830   30.5320   38.1840 Cl  0  0  0  0  0  0  0  0  0  0  0  0
   36.5720   29.9010   38.5610 C   0  0  0  0  0  0  0  0  0  0  0  0
   36.1630   29.8480   39.9090 C   0  0  0  0  0  0  0  0  0  0  0  0
   34.9080   29.3330   39.9890 C   0  0  0  0  0  0  0  0  0  0  0  0
   34.5310   29.2370   40.9870 H   0  0  0  0  0  0  0  0  0  0  0  0
   34.0990   28.9140   38.9810 C   0  0  0  0  0  3  0  0  0  0  0  0
   34.6370   29.0320   37.7340 C   0  0  0  0  0  0  0  0  0  0  0  0
   33.6210   28.5080   36.3920 Cl  0  0  0  0  0  0  0  0  0  0  0  0
   35.8710   29.5120   37.3800 C   0  0  0  0  0  0  0  0  0  0  0  0
   36.2870   29.6010   36.3970 H   0  0  0  0  0  0  0  0  0  0  0  0
  1  3  1  0  0  0  0
  1  2  1  0  0  0  0
  2  5  1  0  0  0  0
  2  4  1  0  0  0  0
  3  6  1  0  0  0  0
  3  2  1  0  0  0  0
  7  3  1  0  0  0  0
  8 14  1  0  0  0  0
  8  1  1  0  0  0  0
  9 15  1  0  0  0  0
  9  8  1  0  0  0  0
 10 18  1  0  0  0  0
 10  9  1  0  0  0  0
 11 10  1  0  0  0  0
 11 12  1  0  0  0  0
 12 20  1  0  0  0  0
 12 13  1  0  0  0  0
 13  8  1  0  0  0  0
 13 22  1  0  0  0  0
 16  9  1  0  0  0  0
 17 10  1  0  0  0  0
 19 12  1  0  0  0  0
 21 13  1  0  0  0  0
 23 30  1  0  0  0  0
 24  1  1  0  0  0  0
 24 23  2  0  0  0  0
 25 24  1  0  0  0  0
 26 25  2  0  0  0  0
 26 27  1  0  0  0  0
 27 28  2  0  0  0  0
 28 23  1  0  0  0  0
 29 27  1  0  0  0  0
 29 32  1  0  0  0  0
 31 29  1  0  0  0  0
 33 34  2  0  0  0  0
 33 25  1  0  0  0  0
 35 36  1  0  0  0  0
 36 37  1  0  0  0  0
 37 38  2  0  0  0  0
 37 33  1  0  0  0  0
 38 39  1  0  0  0  0
 40 38  1  0  0  0  0
 41 40  2  0  0  0  0
 42 41  1  0  0  0  0
 43 41  1  0  0  0  0
 43 36  2  0  0  0  0
 44 43  1  0  0  0  0
M  END
>  <minimizedAffinity>
-5.88175011

$$$$

 OpenBabel03242516173D

 44 47  0  0  1  0  0  0  0  0999 V2000
   37.4710   28.4610   37.6250 C   0  0  0  0  0  0  0  0  0  0  0  0
   38.6940   28.3160   36.7180 C   0  0  0  0  0  0  0  0  0  0  0  0
   38.5850   27.6300   37.9850 C   0  0  0  0  0  0  0  0  0  0  0  0
   39.2690   29.2440   36.5500 H   0  0  0  0  0  0  0  0  0  0  0  0
   38.6010   27.7400   35.7680 H   0  0  0  0  0  0  0  0  0  0  0  0
   39.4330   27.8650   38.6280 H   0  0  0  0  0  0  0  0  0  0  0  0
   38.4500   26.5070   37.9060 H   0  0  0  0  0  0  0  0  0  0  0  0
   36.2350   27.8900   37.0280 C   0  0  0  0  0  0  0  0  0  0  0  0
   34.9940   28.7570   37.2020 C   0  0  0  0  0  0  0  0  0  0  0  0
   33.9080   28.0260   36.3800 C   0  0  0  0  0  0  0  0  0  0  0  0
   33.5160   26.9290   37.1630 O   0  0  0  0  0  0  0  0  0  0  0  0
   34.6050   26.0340   37.0120 C   0  0  0  0  0  0  0  0  0  0  0  0
   35.8240   26.5730   37.7410 C   0  0  0  0  0  0  0  0  0  0  0  0
   36.2980   27.6490   35.9710 H   0  0  0  0  0  0  0  0  0  0  0  0
   35.1170   29.7230   36.6750 H   0  0  0  0  0  0  0  0  0  0  0  0
   34.6530   28.8440   38.2300 H   0  0  0  0  0  0  0  0  0  0  0  0
   33.0420   28.7150   36.2410 H   0  0  0  0  0  0  0  0  0  0  0  0
   34.3270   27.6500   35.4270 H   0  0  0  0  0  0  0  0  0  0  0  0
   34.2850   25.1350   37.6030 H   0  0  0  0  0  0  0  0  0  0  0  0
   34.7930   25.7870   35.9650 H   0  0  0  0  0  0  0  0  0  0  0  0
   35.5290   26.8440   38.7560 H   0  0  0  0  0  0  0  0  0  0  0  0
   36.6080   25.8170   37.6560 H   0  0  0  0  0  0  0  0  0  0  0  0
   37.5180   30.9910   37.5620 C   0  0  0  0  0  0  0  0  0  0  0  0
   37.3410   29.8050   38.2900 C   0  0  0  0  0  0  0  0  0  0  0  0
   37.0460   29.9280   39.6500 C   0  0  0  0  0  0  0  0  0  0  0  0
   36.9450   31.1780   40.1890 N   0  0  0  0  0  0  0  0  0  0  0  0
   37.1270   32.2660   39.4330 C   0  0  0  0  0  0  0  0  0  0  0  0
   37.4070   32.1920   38.1490 N   0  0  0  0  0  0  0  0  0  0  0  0
   37.0170   33.5830   39.9810 N   0  0  0  0  0  0  0  0  0  0  0  0
   37.7480   30.9050   36.5040 H   0  0  0  0  0  0  0  0  0  0  0  0
   36.2560   34.2560   39.6790 H   0  0  0  0  0  0  0  0  0  0  0  0
   37.7720   33.7660   40.6920 H   0  0  0  0  0  0  0  0  0  0  0  0
   36.8790   28.7980   40.5060 C   0  0  2  0  0  3  0  0  0  0  0  0
   35.8290   28.5160   41.1920 O   0  0  0  0  0  1  0  0  0  0  0  0
   39.0640   29.4620   42.2310 Cl  0  0  0  0  0  0  0  0  0  0  0  0
   38.4770   27.8090   41.9860 C   0  0  0  0  0  0  0  0  0  0  0  0
   37.3910   27.5970   41.1120 C   0  0  0  0  0  0  0  0  0  0  0  0
   37.0910   26.2730   41.0630 C   0  0  0  0  0  0  0  0  0  0  0  0
   36.2570   26.0300   40.4360 H   0  0  0  0  0  0  0  0  0  0  0  0
   37.6920   25.2450   41.7170 C   0  0  0  0  0  3  0  0  0  0  0  0
   38.7280   25.6100   42.5240 C   0  0  0  0  0  0  0  0  0  0  0  0
   39.5450   24.3090   43.3860 Cl  0  0  0  0  0  0  0  0  0  0  0  0
   39.2270   26.8670   42.7510 C   0  0  0  0  0  0  0  0  0  0  0  0
   40.0430   27.1470   43.3870 H   0  0  0  0  0  0  0  0  0  0  0  0
  1  3  1  0  0  0  0
  1 24  1  0  0  0  0
  2  1  1  0  0  0  0
  2  3  1  0  0  0  0
  3  6  1  0  0  0  0
  4  2  1  0  0  0  0
  5  2  1  0  0  0  0
  7  3  1  0  0  0  0
  8  9  1  0  0  0  0
  8  1  1  0  0  0  0
  8 13  1  0  0  0  0
  9 16  1  0  0  0  0
 10 11  1  0  0  0  0
 10  9  1  0  0  0  0
 12 11  1  0  0  0  0
 12 19  1  0  0  0  0
 12 13  1  0  0  0  0
 13 21  1  0  0  0  0
 14  8  1  0  0  0  0
 15  9  1  0  0  0  0
 17 10  1  0  0  0  0
 18 10  1  0  0  0  0
 20 12  1  0  0  0  0
 22 13  1  0  0  0  0
 23 28  2  0  0  0  0
 23 24  1  0  0  0  0
 24 25  2  0  0  0  0
 25 26  1  0  0  0  0
 25 33  1  0  0  0  0
 27 29  1  0  0  0  0
 27 26  2  0  0  0  0
 28 27  1  0  0  0  0
 29 32  1  0  0  0  0
 30 23  1  0  0  0  0
 31 29  1  0  0  0  0
 33 37  1  0  0  0  0
 33 34  1  1  0  0  0
 36 35  1  0  0  0  0
 36 43  1  0  0  0  0
 37 36  2  0  0  0  0
 38 37  1  0  0  0  0
 38 40  2  0  0  0  0
 39 38  1  0  0  0  0
 40 41  1  0  0  0  0
 41 43  2  0  0  0  0
 41 42  1  0  0  0  0
 43 44  1  0  0  0  0
M  END
>  <minimizedAffinity>
-5.80949116

$$$$

 OpenBabel03242516173D

 44 47  0  0  1  0  0  0  0  0999 V2000
   37.2590   27.6880   42.2120 C   0  0  0  0  0  0  0  0  0  0  0  0
   37.6860   27.6220   43.6790 C   0  0  0  0  0  0  0  0  0  0  0  0
   36.3350   27.3400   43.2540 C   0  0  0  0  0  0  0  0  0  0  0  0
   38.0240   28.5800   44.1160 H   0  0  0  0  0  0  0  0  0  0  0  0
   38.3450   26.7880   44.0170 H   0  0  0  0  0  0  0  0  0  0  0  0
   35.6220   27.9780   43.7770 H   0  0  0  0  0  0  0  0  0  0  0  0
   36.0280   26.2520   43.3410 H   0  0  0  0  0  0  0  0  0  0  0  0
   37.9110   26.6510   41.3710 C   0  0  0  0  0  0  0  0  0  0  0  0
   37.8580   26.9300   39.8740 C   0  0  0  0  0  0  0  0  0  0  0  0
   38.7180   25.8050   39.2520 C   0  0  0  0  0  0  0  0  0  0  0  0
   37.9150   24.6540   39.2850 O   0  0  0  0  0  0  0  0  0  0  0  0
   37.9540   24.2870   40.6540 C   0  0  0  0  0  0  0  0  0  0  0  0
   37.1700   25.2910   41.4830 C   0  0  0  0  0  0  0  0  0  0  0  0
   38.9500   26.4430   41.6100 H   0  0  0  0  0  0  0  0  0  0  0  0
   38.4180   27.8530   39.6310 H   0  0  0  0  0  0  0  0  0  0  0  0
   36.8600   26.8810   39.4470 H   0  0  0  0  0  0  0  0  0  0  0  0
   38.9440   26.0740   38.1940 H   0  0  0  0  0  0  0  0  0  0  0  0
   39.6230   25.6240   39.8620 H   0  0  0  0  0  0  0  0  0  0  0  0
   37.3470   23.3440   40.6860 H   0  0  0  0  0  0  0  0  0  0  0  0
   38.9740   24.1260   41.0090 H   0  0  0  0  0  0  0  0  0  0  0  0
   36.1890   25.4280   41.0240 H   0  0  0  0  0  0  0  0  0  0  0  0
   37.1690   24.9250   42.5120 H   0  0  0  0  0  0  0  0  0  0  0  0
   35.9910   29.6090   41.1590 C   0  0  0  0  0  0  0  0  0  0  0  0
   37.1970   29.0790   41.6410 C   0  0  0  0  0  0  0  0  0  0  0  0
   38.3300   29.8940   41.5630 C   0  0  0  0  0  0  0  0  0  0  0  0
   38.2030   31.1450   41.0310 N   0  0  0  0  0  0  0  0  0  0  0  0
   37.0190   31.5850   40.5910 C   0  0  0  0  0  0  0  0  0  0  0  0
   35.9300   30.8480   40.6470 N   0  0  0  0  0  0  0  0  0  0  0  0
   36.8670   32.8960   40.0390 N   0  0  0  0  0  0  0  0  0  0  0  0
   35.1050   28.9840   41.2160 H   0  0  0  0  0  0  0  0  0  0  0  0
   36.2740   33.6380   40.5070 H   0  0  0  0  0  0  0  0  0  0  0  0
   37.4090   32.9980   39.1410 H   0  0  0  0  0  0  0  0  0  0  0  0
   39.6220   29.4580   41.9850 C   0  0  2  0  0  3  0  0  0  0  0  0
   40.4250   30.1030   42.7540 O   0  0  0  0  0  1  0  0  0  0  0  0
   40.6170   29.1670   39.3180 Cl  0  0  0  0  0  0  0  0  0  0  0  0
   41.2490   28.2620   40.7020 C   0  0  0  0  0  0  0  0  0  0  0  0
   40.6820   28.4860   41.9740 C   0  0  0  0  0  0  0  0  0  0  0  0
   41.3020   27.7050   42.8980 C   0  0  0  0  0  0  0  0  0  0  0  0
   40.9450   27.8340   43.8990 H   0  0  0  0  0  0  0  0  0  0  0  0
   42.3150   26.8180   42.7130 C   0  0  0  0  0  3  0  0  0  0  0  0
   42.7520   26.7120   41.4260 C   0  0  0  0  0  0  0  0  0  0  0  0
   44.0590   25.5660   41.1360 Cl  0  0  0  0  0  0  0  0  0  0  0  0
   42.3030   27.3820   40.3170 C   0  0  0  0  0  0  0  0  0  0  0  0
   42.6520   27.2940   39.3080 H   0  0  0  0  0  0  0  0  0  0  0  0
  1  3  1  0  0  0  0
  1  2  1  0  0  0  0
  2  5  1  0  0  0  0
  2  4  1  0  0  0  0
  3  7  1  0  0  0  0
  3  2  1  0  0  0  0
  3  6  1  0  0  0  0
  8 13  1  0  0  0  0
  8 14  1  0  0  0  0
  8  1  1  0  0  0  0
  9  8  1  0  0  0  0
 10 11  1  0  0  0  0
 10 18  1  0  0  0  0
 10  9  1  0  0  0  0
 11 12  1  0  0  0  0
 12 19  1  0  0  0  0
 12 20  1  0  0  0  0
 12 13  1  0  0  0  0
 13 22  1  0  0  0  0
 15  9  1  0  0  0  0
 16  9  1  0  0  0  0
 17 10  1  0  0  0  0
 21 13  1  0  0  0  0
 23 30  1  0  0  0  0
 23 24  1  0  0  0  0
 24  1  1  0  0  0  0
 25 24  2  0  0  0  0
 25 33  1  0  0  0  0
 26 25  1  0  0  0  0
 27 28  1  0  0  0  0
 27 26  2  0  0  0  0
 28 23  2  0  0  0  0
 29 31  1  0  0  0  0
 29 27  1  0  0  0  0
 32 29  1  0  0  0  0
 33 34  1  6  0  0  0
 35 36  1  0  0  0  0
 36 37  1  0  0  0  0
 37 33  1  0  0  0  0
 37 38  2  0  0  0  0
 38 39  1  0  0  0  0
 40 38  1  0  0  0  0
 41 40  2  0  0  0  0
 42 41  1  0  0  0  0
 43 36  2  0  0  0  0
 43 41  1  0  0  0  0
 44 43  1  0  0  0  0
M  END
>  <minimizedAffinity>
-5.64898443

$$$$

 OpenBabel03242516173D

 44 47  0  0  0  0  0  0  0  0999 V2000
   36.5610   28.7640   40.1220 C   0  0  0  0  0  0  0  0  0  0  0  0
   35.0590   29.0530   40.1200 C   0  0  0  0  0  0  0  0  0  0  0  0
   35.9420   29.5610   41.1430 C   0  0  0  0  0  0  0  0  0  0  0  0
   34.4070   28.1670   40.2290 H   0  0  0  0  0  0  0  0  0  0  0  0
   34.6410   29.7490   39.3560 H   0  0  0  0  0  0  0  0  0  0  0  0
   35.6020   29.2580   42.1340 H   0  0  0  0  0  0  0  0  0  0  0  0
   36.1120   30.6810   41.1100 H   0  0  0  0  0  0  0  0  0  0  0  0
   37.2730   29.3840   38.9750 C   0  0  0  0  0  0  0  0  0  0  0  0
   37.5430   30.8760   39.1360 C   0  0  0  0  0  0  0  0  0  0  0  0
   38.4070   31.2340   37.9040 C   0  0  0  0  0  0  0  0  0  0  0  0
   37.5150   31.2920   36.8220 O   0  0  0  0  0  0  0  0  0  0  0  0
   37.2480   29.9240   36.5640 C   0  0  0  0  0  0  0  0  0  0  0  0
   36.4070   29.3400   37.6870 C   0  0  0  0  0  0  0  0  0  0  0  0
   38.2210   28.9250   38.7120 H   0  0  0  0  0  0  0  0  0  0  0  0
   38.2200   31.0580   39.9930 H   0  0  0  0  0  0  0  0  0  0  0  0
   36.6500   31.4940   39.1260 H   0  0  0  0  0  0  0  0  0  0  0  0
   38.8620   32.2390   38.0690 H   0  0  0  0  0  0  0  0  0  0  0  0
   39.1530   30.4410   37.7060 H   0  0  0  0  0  0  0  0  0  0  0  0
   36.5650   29.9570   35.6750 H   0  0  0  0  0  0  0  0  0  0  0  0
   38.1580   29.3580   36.3580 H   0  0  0  0  0  0  0  0  0  0  0  0
   35.5530   29.9980   37.8590 H   0  0  0  0  0  0  0  0  0  0  0  0
   36.1680   28.3110   37.4070 H   0  0  0  0  0  0  0  0  0  0  0  0
   36.3470   26.2680   39.7530 C   0  0  0  0  0  0  0  0  0  0  0  0
   36.9220   27.3400   40.4520 C   0  0  0  0  0  0  0  0  0  0  0  0
   37.8350   27.0280   41.4620 C   0  0  0  0  0  0  0  0  0  0  0  0
   38.1160   25.7150   41.7110 N   0  0  0  0  0  0  0  0  0  0  0  0
   37.5290   24.7440   41.0030 C   0  0  0  0  0  0  0  0  0  0  0  0
   36.6640   24.9970   40.0440 N   0  0  0  0  0  0  0  0  0  0  0  0
   37.8180   23.3640   41.2450 N   0  0  0  0  0  0  0  0  0  0  0  0
   35.6370   26.5010   38.9660 H   0  0  0  0  0  0  0  0  0  0  0  0
   38.2960   22.7550   40.5220 H   0  0  0  0  0  0  0  0  0  0  0  0
   37.4960   23.0680   42.2030 H   0  0  0  0  0  0  0  0  0  0  0  0
   38.4610   28.0260   42.2700 C   0  0  0  0  0  0  0  0  0  0  0  0
   38.1730   28.3010   43.4920 O   0  0  0  0  0  0  0  0  0  0  0  0
   40.9980   26.9040   42.9720 Cl  0  0  0  0  0  0  0  0  0  0  0  0
   40.7140   28.6420   42.7830 C   0  0  0  0  0  0  0  0  0  0  0  0
   39.4210   29.0840   42.4340 C   0  0  0  0  0  0  0  0  0  0  0  0
   39.4100   30.4390   42.3340 C   0  0  0  0  0  0  0  0  0  0  0  0
   38.4650   30.8540   42.0470 H   0  0  0  0  0  0  0  0  0  0  0  0
   40.4340   31.3110   42.5270 C   0  0  0  0  0  3  0  0  0  0  0  0
   41.6210   30.7290   42.8630 C   0  0  0  0  0  0  0  0  0  0  0  0
   42.9780   31.8210   43.1320 Cl  0  0  0  0  0  0  0  0  0  0  0  0
   41.9000   29.3970   43.0250 C   0  0  0  0  0  0  0  0  0  0  0  0
   42.8360   28.9480   43.2890 H   0  0  0  0  0  0  0  0  0  0  0  0
  1 24  1  0  0  0  0
  1  3  1  0  0  0  0
  2  1  1  0  0  0  0
  2  4  1  0  0  0  0
  2  3  1  0  0  0  0
  3  6  1  0  0  0  0
  5  2  1  0  0  0  0
  7  3  1  0  0  0  0
  8  9  1  0  0  0  0
  8  1  1  0  0  0  0
  9 15  1  0  0  0  0
 10 17  1  0  0  0  0
 10  9  1  0  0  0  0
 11 10  1  0  0  0  0
 12 11  1  0  0  0  0
 12 13  1  0  0  0  0
 13 21  1  0  0  0  0
 13  8  1  0  0  0  0
 14  8  1  0  0  0  0
 16  9  1  0  0  0  0
 18 10  1  0  0  0  0
 19 12  1  0  0  0  0
 20 12  1  0  0  0  0
 22 13  1  0  0  0  0
 23 28  2  0  0  0  0
 23 24  1  0  0  0  0
 24 25  2  0  0  0  0
 25 26  1  0  0  0  0
 25 33  1  0  0  0  0
 27 29  1  0  0  0  0
 27 26  2  0  0  0  0
 28 27  1  0  0  0  0
 29 32  1  0  0  0  0
 30 23  1  0  0  0  0
 31 29  1  0  0  0  0
 33 37  1  0  0  0  0
 33 34  2  0  0  0  0
 36 35  1  0  0  0  0
 36 43  1  0  0  0  0
 37 36  2  0  0  0  0
 38 37  1  0  0  0  0
 38 40  2  0  0  0  0
 39 38  1  0  0  0  0
 40 41  1  0  0  0  0
 41 43  2  0  0  0  0
 41 42  1  0  0  0  0
 43 44  1  0  0  0  0
M  END
>  <minimizedAffinity>
-5.64004612

$$$$

 OpenBabel03242516173D

 44 47  0  0  1  0  0  0  0  0999 V2000
   39.7220   29.0630   41.6950 C   0  0  0  0  0  0  0  0  0  0  0  0
   38.9730   30.0200   42.6240 C   0  0  0  0  0  0  0  0  0  0  0  0
   40.4150   29.9940   42.5410 C   0  0  0  0  0  0  0  0  0  0  0  0
   38.3770   29.5360   43.4200 H   0  0  0  0  0  0  0  0  0  0  0  0
   38.4100   30.8750   42.1840 H   0  0  0  0  0  0  0  0  0  0  0  0
   40.8570   29.8260   43.5230 H   0  0  0  0  0  0  0  0  0  0  0  0
   40.8780   30.9040   42.0500 H   0  0  0  0  0  0  0  0  0  0  0  0
   39.4840   29.3470   40.2560 C   0  0  0  0  0  0  0  0  0  0  0  0
   39.9390   28.2400   39.3130 C   0  0  0  0  0  0  0  0  0  0  0  0
   39.4520   28.7080   37.9230 C   0  0  0  0  0  0  0  0  0  0  0  0
   40.3500   29.7110   37.5260 O   0  0  0  0  0  0  0  0  0  0  0  0
   39.9580   30.8140   38.3260 C   0  0  0  0  0  0  0  0  0  0  0  0
   40.3280   30.5590   39.7770 C   0  0  0  0  0  0  0  0  0  0  0  0
   38.4570   29.5770   39.9910 H   0  0  0  0  0  0  0  0  0  0  0  0
   39.3610   27.3130   39.4950 H   0  0  0  0  0  0  0  0  0  0  0  0
   41.0160   28.1010   39.2760 H   0  0  0  0  0  0  0  0  0  0  0  0
   39.5130   27.8480   37.2150 H   0  0  0  0  0  0  0  0  0  0  0  0
   38.4380   29.1470   37.9920 H   0  0  0  0  0  0  0  0  0  0  0  0
   40.6450   31.6350   37.9890 H   0  0  0  0  0  0  0  0  0  0  0  0
   38.9080   31.0770   38.1800 H   0  0  0  0  0  0  0  0  0  0  0  0
   41.3750   30.2500   39.8190 H   0  0  0  0  0  0  0  0  0  0  0  0
   40.0740   31.4630   40.3360 H   0  0  0  0  0  0  0  0  0  0  0  0
   40.8420   26.9320   42.4800 C   0  0  0  0  0  0  0  0  0  0  0  0
   39.6740   27.6190   42.1160 C   0  0  0  0  0  0  0  0  0  0  0  0
   38.4740   26.9040   42.1570 C   0  0  0  0  0  0  0  0  0  0  0  0
   38.5020   25.5950   42.5450 N   0  0  0  0  0  0  0  0  0  0  0  0
   39.6550   25.0050   42.8790 C   0  0  0  0  0  0  0  0  0  0  0  0
   40.8060   25.6440   42.8520 N   0  0  0  0  0  0  0  0  0  0  0  0
   39.7020   23.6370   43.2960 N   0  0  0  0  0  0  0  0  0  0  0  0
   41.7790   27.4800   42.4510 H   0  0  0  0  0  0  0  0  0  0  0  0
   39.9880   23.3580   44.2760 H   0  0  0  0  0  0  0  0  0  0  0  0
   39.4210   22.9890   42.5130 H   0  0  0  0  0  0  0  0  0  0  0  0
   37.2230   27.4770   41.7760 C   0  0  2  0  0  3  0  0  0  0  0  0
   36.2310   27.7180   42.5570 O   0  0  0  0  0  1  0  0  0  0  0  0
   37.2940   25.7950   39.4620 Cl  0  0  0  0  0  0  0  0  0  0  0  0
   36.3010   27.2560   39.5800 C   0  0  0  0  0  0  0  0  0  0  0  0
   36.3430   28.0110   40.7700 C   0  0  0  0  0  0  0  0  0  0  0  0
   35.5140   29.0820   40.6660 C   0  0  0  0  0  0  0  0  0  0  0  0
   35.4710   29.6960   41.5420 H   0  0  0  0  0  0  0  0  0  0  0  0
   34.7330   29.4480   39.6150 C   0  0  0  0  0  3  0  0  0  0  0  0
   34.8030   28.6180   38.5370 C   0  0  0  0  0  0  0  0  0  0  0  0
   33.8140   29.0570   37.1460 Cl  0  0  0  0  0  0  0  0  0  0  0  0
   35.5520   27.4790   38.3860 C   0  0  0  0  0  0  0  0  0  0  0  0
   35.6020   26.8310   37.5350 H   0  0  0  0  0  0  0  0  0  0  0  0
  1 24  1  0  0  0  0
  1  3  1  0  0  0  0
  1  2  1  0  0  0  0
  2  4  1  0  0  0  0
  3  2  1  0  0  0  0
  3  6  1  0  0  0  0
  5  2  1  0  0  0  0
  7  3  1  0  0  0  0
  8  1  1  0  0  0  0
  9 15  1  0  0  0  0
  9  8  1  0  0  0  0
 10 18  1  0  0  0  0
 10  9  1  0  0  0  0
 11 10  1  0  0  0  0
 11 12  1  0  0  0  0
 12 13  1  0  0  0  0
 13 21  1  0  0  0  0
 13  8  1  0  0  0  0
 13 22  1  0  0  0  0
 14  8  1  0  0  0  0
 16  9  1  0  0  0  0
 17 10  1  0  0  0  0
 19 12  1  0  0  0  0
 20 12  1  0  0  0  0
 23 28  1  0  0  0  0
 24 25  1  0  0  0  0
 24 23  2  0  0  0  0
 25 26  2  0  0  0  0
 26 27  1  0  0  0  0
 27 29  1  0  0  0  0
 28 27  2  0  0  0  0
 29 31  1  0  0  0  0
 30 23  1  0  0  0  0
 32 29  1  0  0  0  0
 33 25  1  0  0  0  0
 33 34  1  6  0  0  0
 35 36  1  0  0  0  0
 36 37  1  0  0  0  0
 37 33  1  0  0  0  0
 38 37  2  0  0  0  0
 38 39  1  0  0  0  0
 40 38  1  0  0  0  0
 41 40  2  0  0  0  0
 42 41  1  0  0  0  0
 43 41  1  0  0  0  0
 43 36  2  0  0  0  0
 44 43  1  0  0  0  0
M  END
>  <minimizedAffinity>
-5.59539223

$$$$

 OpenBabel03242516173D

 44 47  0  0  0  0  0  0  0  0999 V2000
   39.0780   28.6400   40.1100 C   0  0  0  0  0  0  0  0  0  0  0  0
   39.2870   28.3170   38.6300 C   0  0  0  0  0  0  0  0  0  0  0  0
   40.3310   28.1450   39.6130 C   0  0  0  0  0  0  0  0  0  0  0  0
   39.2030   29.1780   37.9420 H   0  0  0  0  0  0  0  0  0  0  0  0
   38.7870   27.4220   38.1930 H   0  0  0  0  0  0  0  0  0  0  0  0
   41.2240   28.7040   39.3330 H   0  0  0  0  0  0  0  0  0  0  0  0
   40.5960   27.0660   39.8400 H   0  0  0  0  0  0  0  0  0  0  0  0
   38.0920   27.7430   40.7660 C   0  0  0  0  0  0  0  0  0  0  0  0
   38.0120   27.8970   42.2800 C   0  0  0  0  0  0  0  0  0  0  0  0
   36.8340   26.9820   42.6880 C   0  0  0  0  0  0  0  0  0  0  0  0
   37.3350   25.6720   42.6300 O   0  0  0  0  0  0  0  0  0  0  0  0
   37.3910   25.4210   41.2360 C   0  0  0  0  0  0  0  0  0  0  0  0
   38.4940   26.2530   40.6030 C   0  0  0  0  0  0  0  0  0  0  0  0
   37.0740   27.8190   40.3940 H   0  0  0  0  0  0  0  0  0  0  0  0
   37.6620   28.9120   42.5500 H   0  0  0  0  0  0  0  0  0  0  0  0
   38.9040   27.5710   42.8080 H   0  0  0  0  0  0  0  0  0  0  0  0
   36.5400   27.2250   43.7360 H   0  0  0  0  0  0  0  0  0  0  0  0
   36.0000   27.0750   41.9660 H   0  0  0  0  0  0  0  0  0  0  0  0
   37.7530   24.3610   41.1780 H   0  0  0  0  0  0  0  0  0  0  0  0
   36.4180   25.5460   40.7550 H   0  0  0  0  0  0  0  0  0  0  0  0
   39.4100   26.1090   41.1800 H   0  0  0  0  0  0  0  0  0  0  0  0
   38.5440   25.9700   39.5490 H   0  0  0  0  0  0  0  0  0  0  0  0
   40.0560   30.8240   40.9390 C   0  0  0  0  0  0  0  0  0  0  0  0
   38.9660   30.1090   40.4190 C   0  0  0  0  0  0  0  0  0  0  0  0
   37.7800   30.8170   40.2080 C   0  0  0  0  0  0  0  0  0  0  0  0
   37.7460   32.1470   40.5130 N   0  0  0  0  0  0  0  0  0  0  0  0
   38.8260   32.7640   41.0050 C   0  0  0  0  0  0  0  0  0  0  0  0
   39.9610   32.1320   41.2190 N   0  0  0  0  0  0  0  0  0  0  0  0
   38.8100   34.1590   41.3220 N   0  0  0  0  0  0  0  0  0  0  0  0
   40.9820   30.2820   41.1060 H   0  0  0  0  0  0  0  0  0  0  0  0
   39.4090   34.8610   40.8010 H   0  0  0  0  0  0  0  0  0  0  0  0
   38.1450   34.3640   42.1130 H   0  0  0  0  0  0  0  0  0  0  0  0
   36.5900   30.1970   39.7190 C   0  0  0  0  0  0  0  0  0  0  0  0
   35.4880   30.0600   40.3650 O   0  0  0  0  0  0  0  0  0  0  0  0
   37.5290   31.0880   37.1670 Cl  0  0  0  0  0  0  0  0  0  0  0  0
   36.2560   29.8750   37.3730 C   0  0  0  0  0  0  0  0  0  0  0  0
   35.8710   29.5100   38.6790 C   0  0  0  0  0  0  0  0  0  0  0  0
   34.8920   28.5700   38.6260 C   0  0  0  0  0  0  0  0  0  0  0  0
   34.5600   28.2200   39.5820 H   0  0  0  0  0  0  0  0  0  0  0  0
   34.3110   28.0150   37.5290 C   0  0  0  0  0  3  0  0  0  0  0  0
   34.7890   28.4730   36.3380 C   0  0  0  0  0  0  0  0  0  0  0  0
   34.0600   27.7880   34.8870 Cl  0  0  0  0  0  0  0  0  0  0  0  0
   35.7670   29.4080   36.1160 C   0  0  0  0  0  0  0  0  0  0  0  0
   36.1380   29.7630   35.1760 H   0  0  0  0  0  0  0  0  0  0  0  0
  1 24  1  0  0  0  0
  1  8  1  0  0  0  0
  2  3  1  0  0  0  0
  2  1  1  0  0  0  0
  3  7  1  0  0  0  0
  3  1  1  0  0  0  0
  4  2  1  0  0  0  0
  5  2  1  0  0  0  0
  6  3  1  0  0  0  0
  8  9  1  0  0  0  0
  9 15  1  0  0  0  0
  9 10  1  0  0  0  0
  9 16  1  0  0  0  0
 10 17  1  0  0  0  0
 11 10  1  0  0  0  0
 12 11  1  0  0  0  0
 13  8  1  0  0  0  0
 13 21  1  0  0  0  0
 13 12  1  0  0  0  0
 14  8  1  0  0  0  0
 18 10  1  0  0  0  0
 19 12  1  0  0  0  0
 20 12  1  0  0  0  0
 22 13  1  0  0  0  0
 23 30  1  0  0  0  0
 23 28  1  0  0  0  0
 24 23  2  0  0  0  0
 25 24  1  0  0  0  0
 25 26  2  0  0  0  0
 26 27  1  0  0  0  0
 27 28  2  0  0  0  0
 27 29  1  0  0  0  0
 29 32  1  0  0  0  0
 31 29  1  0  0  0  0
 33 25  1  0  0  0  0
 33 34  2  0  0  0  0
 35 36  1  0  0  0  0
 36 37  1  0  0  0  0
 37 33  1  0  0  0  0
 38 37  2  0  0  0  0
 38 39  1  0  0  0  0
 40 38  1  0  0  0  0
 41 40  2  0  0  0  0
 42 41  1  0  0  0  0
 43 41  1  0  0  0  0
 43 36  2  0  0  0  0
 44 43  1  0  0  0  0
M  END
>  <minimizedAffinity>
-5.59395742

$$$$

 OpenBabel03242516173D

 44 47  0  0  0  0  0  0  0  0999 V2000
   36.9980   27.5310   42.3900 C   0  0  0  0  0  0  0  0  0  0  0  0
   36.2170   27.2640   43.6780 C   0  0  0  0  0  0  0  0  0  0  0  0
   37.5160   27.8960   43.6780 C   0  0  0  0  0  0  0  0  0  0  0  0
   36.0340   26.1980   43.9060 H   0  0  0  0  0  0  0  0  0  0  0  0
   35.3080   27.8690   43.8980 H   0  0  0  0  0  0  0  0  0  0  0  0
   38.2130   27.3510   44.3140 H   0  0  0  0  0  0  0  0  0  0  0  0
   37.5070   28.9960   43.9550 H   0  0  0  0  0  0  0  0  0  0  0  0
   36.3360   28.5260   41.5070 C   0  0  0  0  0  0  0  0  0  0  0  0
   36.5410   28.2790   40.0170 C   0  0  0  0  0  0  0  0  0  0  0  0
   35.6470   29.3400   39.3350 C   0  0  0  0  0  0  0  0  0  0  0  0
   36.3440   30.5520   39.4500 O   0  0  0  0  0  0  0  0  0  0  0  0
   36.1570   30.8910   40.8140 C   0  0  0  0  0  0  0  0  0  0  0  0
   36.9480   29.9400   41.6970 C   0  0  0  0  0  0  0  0  0  0  0  0
   35.2660   28.6430   41.6570 H   0  0  0  0  0  0  0  0  0  0  0  0
   36.0830   27.3170   39.7160 H   0  0  0  0  0  0  0  0  0  0  0  0
   37.5640   28.4180   39.6790 H   0  0  0  0  0  0  0  0  0  0  0  0
   35.5350   29.0730   38.2580 H   0  0  0  0  0  0  0  0  0  0  0  0
   34.6800   29.4350   39.8650 H   0  0  0  0  0  0  0  0  0  0  0  0
   36.6780   31.8800   40.9090 H   0  0  0  0  0  0  0  0  0  0  0  0
   35.1010   30.9600   41.0800 H   0  0  0  0  0  0  0  0  0  0  0  0
   37.9730   29.8920   41.3240 H   0  0  0  0  0  0  0  0  0  0  0  0
   36.8300   30.2860   42.7260 H   0  0  0  0  0  0  0  0  0  0  0  0
   36.7260   25.1930   41.4580 C   0  0  0  0  0  0  0  0  0  0  0  0
   37.5480   26.2980   41.7250 C   0  0  0  0  0  0  0  0  0  0  0  0
   38.8910   26.2000   41.3520 C   0  0  0  0  0  0  0  0  0  0  0  0
   39.3250   25.0510   40.7550 N   0  0  0  0  0  0  0  0  0  0  0  0
   38.4820   24.0360   40.5310 C   0  0  0  0  0  0  0  0  0  0  0  0
   37.2110   24.0900   40.8680 N   0  0  0  0  0  0  0  0  0  0  0  0
   38.9180   22.8290   39.9000 N   0  0  0  0  0  0  0  0  0  0  0  0
   35.6810   25.2600   41.7440 H   0  0  0  0  0  0  0  0  0  0  0  0
   38.5560   22.5290   38.9510 H   0  0  0  0  0  0  0  0  0  0  0  0
   39.6180   22.3160   40.4970 H   0  0  0  0  0  0  0  0  0  0  0  0
   39.8370   27.2400   41.6020 C   0  0  0  0  0  0  0  0  0  0  0  0
   41.0260   27.0870   42.0650 O   0  0  0  0  0  0  0  0  0  0  0  0
   39.9210   28.2140   38.9120 Cl  0  0  0  0  0  0  0  0  0  0  0  0
   40.2660   29.2190   40.3290 C   0  0  0  0  0  0  0  0  0  0  0  0
   40.1950   28.6340   41.6100 C   0  0  0  0  0  0  0  0  0  0  0  0
   40.4870   29.5630   42.5570 C   0  0  0  0  0  0  0  0  0  0  0  0
   40.4300   29.2020   43.5640 H   0  0  0  0  0  0  0  0  0  0  0  0
   40.8120   30.8710   42.3880 C   0  0  0  0  0  3  0  0  0  0  0  0
   40.8420   31.2870   41.0900 C   0  0  0  0  0  0  0  0  0  0  0  0
   41.2680   32.9760   40.8190 Cl  0  0  0  0  0  0  0  0  0  0  0  0
   40.5880   30.5580   39.9560 C   0  0  0  0  0  0  0  0  0  0  0  0
   40.6130   30.8920   38.9390 H   0  0  0  0  0  0  0  0  0  0  0  0
  1  2  1  0  0  0  0
  1  3  1  0  0  0  0
  2  3  1  0  0  0  0
  2  5  1  0  0  0  0
  2  4  1  0  0  0  0
  3  7  1  0  0  0  0
  3  6  1  0  0  0  0
  8 14  1  0  0  0  0
  8 13  1  0  0  0  0
  8  1  1  0  0  0  0
  9  8  1  0  0  0  0
 10 11  1  0  0  0  0
 10 18  1  0  0  0  0
 10  9  1  0  0  0  0
 11 12  1  0  0  0  0
 12 19  1  0  0  0  0
 12 20  1  0  0  0  0
 12 13  1  0  0  0  0
 13 22  1  0  0  0  0
 15  9  1  0  0  0  0
 16  9  1  0  0  0  0
 17 10  1  0  0  0  0
 21 13  1  0  0  0  0
 23 24  1  0  0  0  0
 23 30  1  0  0  0  0
 24  1  1  0  0  0  0
 25 33  1  0  0  0  0
 25 24  2  0  0  0  0
 26 25  1  0  0  0  0
 27 26  2  0  0  0  0
 27 28  1  0  0  0  0
 28 23  2  0  0  0  0
 29 32  1  0  0  0  0
 29 27  1  0  0  0  0
 31 29  1  0  0  0  0
 33 37  1  0  0  0  0
 33 34  2  0  0  0  0
 35 36  1  0  0  0  0
 36 37  1  0  0  0  0
 37 38  2  0  0  0  0
 38 39  1  0  0  0  0
 40 38  1  0  0  0  0
 41 40  2  0  0  0  0
 42 41  1  0  0  0  0
 43 36  2  0  0  0  0
 43 41  1  0  0  0  0
 44 43  1  0  0  0  0
M  END
>  <minimizedAffinity>
-5.56726789

$$$$

 OpenBabel03242516173D

 44 47  0  0  0  0  0  0  0  0999 V2000
   37.9380   27.7030   42.4280 C   0  0  0  0  0  0  0  0  0  0  0  0
   36.6790   26.8460   42.5720 C   0  0  0  0  0  0  0  0  0  0  0  0
   37.1270   27.7420   43.6120 C   0  0  0  0  0  0  0  0  0  0  0  0
   36.8480   25.7540   42.5630 H   0  0  0  0  0  0  0  0  0  0  0  0
   35.7750   27.1030   41.9720 H   0  0  0  0  0  0  0  0  0  0  0  0
   37.2640   27.2080   44.5520 H   0  0  0  0  0  0  0  0  0  0  0  0
   36.4700   28.6530   43.7680 H   0  0  0  0  0  0  0  0  0  0  0  0
   37.8170   28.7370   41.3670 C   0  0  0  0  0  0  0  0  0  0  0  0
   38.9290   29.7800   41.3770 C   0  0  0  0  0  0  0  0  0  0  0  0
   38.6570   30.6280   40.1130 C   0  0  0  0  0  0  0  0  0  0  0  0
   37.5770   31.4610   40.4420 O   0  0  0  0  0  0  0  0  0  0  0  0
   36.4740   30.5720   40.4020 C   0  0  0  0  0  0  0  0  0  0  0  0
   36.5460   29.6040   41.5720 C   0  0  0  0  0  0  0  0  0  0  0  0
   37.7580   28.3570   40.3520 H   0  0  0  0  0  0  0  0  0  0  0  0
   39.9080   29.3060   41.1690 H   0  0  0  0  0  0  0  0  0  0  0  0
   38.9180   30.4340   42.2430 H   0  0  0  0  0  0  0  0  0  0  0  0
   39.5590   31.2490   39.9000 H   0  0  0  0  0  0  0  0  0  0  0  0
   38.3600   29.9810   39.2650 H   0  0  0  0  0  0  0  0  0  0  0  0
   35.5980   31.2360   40.6260 H   0  0  0  0  0  0  0  0  0  0  0  0
   36.3750   30.0810   39.4320 H   0  0  0  0  0  0  0  0  0  0  0  0
   36.7000   30.1780   42.4870 H   0  0  0  0  0  0  0  0  0  0  0  0
   35.6410   28.9920   41.5370 H   0  0  0  0  0  0  0  0  0  0  0  0
   40.0870   27.0230   43.5810 C   0  0  0  0  0  0  0  0  0  0  0  0
   39.2280   26.9300   42.4750 C   0  0  0  0  0  0  0  0  0  0  0  0
   39.6260   26.0980   41.4250 C   0  0  0  0  0  0  0  0  0  0  0  0
   40.8110   25.4280   41.5320 N   0  0  0  0  0  0  0  0  0  0  0  0
   41.5800   25.5650   42.6180 C   0  0  0  0  0  0  0  0  0  0  0  0
   41.2400   26.3390   43.6260 N   0  0  0  0  0  0  0  0  0  0  0  0
   42.8190   24.8640   42.7490 N   0  0  0  0  0  0  0  0  0  0  0  0
   39.7860   27.6680   44.4010 H   0  0  0  0  0  0  0  0  0  0  0  0
   42.9710   24.1240   43.4920 H   0  0  0  0  0  0  0  0  0  0  0  0
   43.5180   25.1840   42.0280 H   0  0  0  0  0  0  0  0  0  0  0  0
   38.8590   25.9460   40.2300 C   0  0  0  0  0  0  0  0  0  0  0  0
   39.2540   26.2190   39.0380 O   0  0  0  0  0  0  0  0  0  0  0  0
   38.2170   23.2230   40.8300 Cl  0  0  0  0  0  0  0  0  0  0  0  0
   37.2240   24.2570   39.7900 C   0  0  0  0  0  0  0  0  0  0  0  0
   37.6380   25.5860   39.5620 C   0  0  0  0  0  0  0  0  0  0  0  0
   36.7470   26.2120   38.7480 C   0  0  0  0  0  0  0  0  0  0  0  0
   36.9770   27.2380   38.5460 H   0  0  0  0  0  0  0  0  0  0  0  0
   35.6130   25.7110   38.1910 C   0  0  0  0  0  3  0  0  0  0  0  0
   35.3520   24.4100   38.5040 C   0  0  0  0  0  0  0  0  0  0  0  0
   33.8950   23.7140   37.7970 Cl  0  0  0  0  0  0  0  0  0  0  0  0
   36.0800   23.5620   39.2980 C   0  0  0  0  0  0  0  0  0  0  0  0
   35.8670   22.5400   39.5390 H   0  0  0  0  0  0  0  0  0  0  0  0
  1 24  1  0  0  0  0
  1  2  1  0  0  0  0
  1  3  1  0  0  0  0
  2  3  1  0  0  0  0
  3  7  1  0  0  0  0
  3  6  1  0  0  0  0
  4  2  1  0  0  0  0
  5  2  1  0  0  0  0
  8  9  1  0  0  0  0
  8 13  1  0  0  0  0
  8  1  1  0  0  0  0
  9 16  1  0  0  0  0
 10 11  1  0  0  0  0
 10  9  1  0  0  0  0
 12 11  1  0  0  0  0
 12 19  1  0  0  0  0
 12 13  1  0  0  0  0
 13 21  1  0  0  0  0
 14  8  1  0  0  0  0
 15  9  1  0  0  0  0
 17 10  1  0  0  0  0
 18 10  1  0  0  0  0
 20 12  1  0  0  0  0
 22 13  1  0  0  0  0
 23 28  1  0  0  0  0
 23 30  1  0  0  0  0
 24 23  2  0  0  0  0
 25 26  2  0  0  0  0
 25 24  1  0  0  0  0
 26 27  1  0  0  0  0
 27 29  1  0  0  0  0
 27 28  2  0  0  0  0
 29 31  1  0  0  0  0
 32 29  1  0  0  0  0
 33 25  1  0  0  0  0
 34 33  2  0  0  0  0
 36 35  1  0  0  0  0
 37 36  1  0  0  0  0
 37 33  1  0  0  0  0
 38 37  2  0  0  0  0
 39 38  1  0  0  0  0
 40 41  2  0  0  0  0
 40 38  1  0  0  0  0
 41 43  1  0  0  0  0
 42 41  1  0  0  0  0
 43 44  1  0  0  0  0
 43 36  2  0  0  0  0
M  END
>  <minimizedAffinity>
-5.55313444

$$$$
