
 OpenBabel03242516163D

 44 47  0  0  1  0  0  0  0  0999 V2000
   47.9830   34.3800   41.4460 C   0  0  0  0  0  0  0  0  0  0  0  0
   48.8410   35.6120   41.1560 C   0  0  0  0  0  0  0  0  0  0  0  0
   49.3550   34.4600   41.8590 C   0  0  0  0  0  0  0  0  0  0  0  0
   48.5020   36.5470   41.6380 H   0  0  0  0  0  0  0  0  0  0  0  0
   49.1690   35.8120   40.1100 H   0  0  0  0  0  0  0  0  0  0  0  0
   49.7600   34.7470   42.8300 H   0  0  0  0  0  0  0  0  0  0  0  0
   50.1150   33.8500   41.2800 H   0  0  0  0  0  0  0  0  0  0  0  0
   47.5820   33.6490   40.2150 C   0  0  0  0  0  0  0  0  0  0  0  0
   48.1260   34.2490   38.9230 C   0  0  0  0  0  0  0  0  0  0  0  0
   47.6990   33.2390   37.8330 C   0  0  0  0  0  0  0  0  0  0  0  0
   46.3320   33.4690   37.6190 O   0  0  0  0  0  0  0  0  0  0  0  0
   45.7340   32.8860   38.7640 C   0  0  0  0  0  0  0  0  0  0  0  0
   46.0470   33.7210   39.9950 C   0  0  0  0  0  0  0  0  0  0  0  0
   47.8370   32.5940   40.1970 H   0  0  0  0  0  0  0  0  0  0  0  0
   49.2320   34.2000   38.9080 H   0  0  0  0  0  0  0  0  0  0  0  0
   47.7130   35.2220   38.6760 H   0  0  0  0  0  0  0  0  0  0  0  0
   48.2680   33.4610   36.9000 H   0  0  0  0  0  0  0  0  0  0  0  0
   47.8320   32.2000   38.1900 H   0  0  0  0  0  0  0  0  0  0  0  0
   44.6360   33.0290   38.5850 H   0  0  0  0  0  0  0  0  0  0  0  0
   45.9940   31.8310   38.8720 H   0  0  0  0  0  0  0  0  0  0  0  0
   45.8090   34.7630   39.7750 H   0  0  0  0  0  0  0  0  0  0  0  0
   45.5070   33.2720   40.8320 H   0  0  0  0  0  0  0  0  0  0  0  0
   46.3190   35.8520   42.6600 C   0  0  0  0  0  0  0  0  0  0  0  0
   46.9130   34.5930   42.4820 C   0  0  0  0  0  0  0  0  0  0  0  0
   46.4710   33.5560   43.3090 C   0  0  0  0  0  0  0  0  0  0  0  0
   45.4990   33.8190   44.2300 N   0  0  0  0  0  0  0  0  0  0  0  0
   44.9780   35.0460   44.3440 C   0  0  0  0  0  0  0  0  0  0  0  0
   45.3670   36.0480   43.5850 N   0  0  0  0  0  0  0  0  0  0  0  0
   43.9530   35.3370   45.2980 N   0  0  0  0  0  0  0  0  0  0  0  0
   46.6560   36.6630   42.0230 H   0  0  0  0  0  0  0  0  0  0  0  0
   42.9750   35.6190   45.0050 H   0  0  0  0  0  0  0  0  0  0  0  0
   44.3080   35.2320   46.2850 H   0  0  0  0  0  0  0  0  0  0  0  0
   47.0210   32.2390   43.2520 C   0  0  2  0  0  0  0  0  0  0  0  0
   46.5020   31.2270   42.6530 O   0  0  0  0  0  0  0  0  0  0  0  0
   46.3640   30.9970   45.7440 Cl  0  0  0  0  0  0  0  0  0  0  0  0
   47.8250   30.6190   44.8170 C   0  0  0  0  0  0  0  0  0  0  0  0
   48.0480   31.2940   43.5990 C   0  0  0  0  0  0  0  0  0  0  0  0
   49.2110   30.8640   43.0420 C   0  0  0  0  0  0  0  0  0  0  0  0
   49.4420   31.3130   42.0970 H   0  0  0  0  0  0  0  0  0  0  0  0
   50.0850   29.9380   43.5160 C   0  0  0  0  0  0  0  0  0  0  0  0
   49.7300   29.3770   44.7070 C   0  0  0  0  0  0  0  0  0  0  0  0
   50.8380   28.1760   45.3660 Cl  0  0  0  0  0  0  0  0  0  0  0  0
   48.6190   29.6290   45.4690 C   0  0  0  0  0  0  0  0  0  0  0  0
   48.3460   29.1840   46.4040 H   0  0  0  0  0  0  0  0  0  0  0  0
  1  3  1  0  0  0  0
  1 24  1  0  0  0  0
  2  1  1  0  0  0  0
  2  4  1  0  0  0  0
  2  3  1  0  0  0  0
  3  6  1  0  0  0  0
  5  2  1  0  0  0  0
  7  3  1  0  0  0  0
  8  1  1  0  0  0  0
  9  8  1  0  0  0  0
 10 18  1  0  0  0  0
 10  9  1  0  0  0  0
 11 10  1  0  0  0  0
 11 12  1  0  0  0  0
 12 20  1  0  0  0  0
 12 13  1  0  0  0  0
 13  8  1  0  0  0  0
 13 22  1  0  0  0  0
 14  8  1  0  0  0  0
 15  9  1  0  0  0  0
 16  9  1  0  0  0  0
 17 10  1  0  0  0  0
 19 12  1  0  0  0  0
 21 13  1  0  0  0  0
 23 28  1  0  0  0  0
 24 23  2  0  0  0  0
 24 25  1  0  0  0  0
 25 26  2  0  0  0  0
 26 27  1  0  0  0  0
 27 29  1  0  0  0  0
 28 27  2  0  0  0  0
 29 32  1  0  0  0  0
 30 23  1  0  0  0  0
 31 29  1  0  0  0  0
 33 34  1  1  0  0  0
 33 25  1  0  0  0  0
 33 37  1  0  0  0  0
 36 43  1  0  0  0  0
 36 35  1  0  0  0  0
 37 36  2  0  0  0  0
 38 40  2  0  0  0  0
 38 37  1  0  0  0  0
 39 38  1  0  0  0  0
 40 41  1  0  0  0  0
 41 42  1  0  0  0  0
 41 43  2  0  0  0  0
 43 44  1  0  0  0  0
M  END
>  <minimizedAffinity>
-5.52974939

>  <minimizedRMSD>
1.28610003

$$$$
