
 OpenBabel03252504013D

 35 38  0  0  1  0  0  0  0  0999 V2000
   37.2370   28.5710   41.5020 C   0  0  0  0  0  0  0  0  0  0  0  0
   35.8950   28.5170   41.0870 C   0  0  0  0  0  0  0  0  0  0  0  0
   35.3350   29.6610   40.5000 C   0  0  0  0  0  0  0  0  0  0  0  0
   36.1300   30.7580   40.3670 N   0  0  0  0  0  0  0  0  0  0  0  0
   37.4200   30.7750   40.7780 C   0  0  0  0  0  0  0  0  0  0  0  0
   37.9730   29.6770   41.3450 N   0  0  0  0  0  0  0  0  0  0  0  0
   35.2650   27.6360   41.1960 H   0  0  0  0  0  0  0  0  0  0  0  0
   34.3280   29.7060   40.1590 H   0  0  0  0  0  0  0  0  0  0  0  0
   37.6730   33.1090   40.1220 C   0  0  0  0  0  0  0  0  0  0  0  0
   38.2590   31.9640   40.6260 C   0  0  0  0  0  0  0  0  0  0  0  0
   39.5940   31.9800   40.9690 C   0  0  0  0  0  0  0  0  0  0  0  0
   40.3400   33.1270   40.8150 C   0  0  0  0  0  0  0  0  0  0  0  0
   41.6190   33.4510   41.0500 N   0  0  0  0  0  0  0  0  0  0  0  0
   41.8390   34.7320   40.7190 C   0  0  0  0  0  0  0  0  0  0  0  0
   40.6820   35.2860   40.2460 C   0  0  0  0  0  0  0  0  0  0  0  0
   39.7440   34.2820   40.3070 C   0  0  0  0  0  0  0  0  0  0  0  0
   38.3990   34.2690   39.9590 C   0  0  0  0  0  0  0  0  0  0  0  0
   36.6590   33.2240   39.8140 H   0  0  0  0  0  0  0  0  0  0  0  0
   40.0620   31.1050   41.3600 H   0  0  0  0  0  0  0  0  0  0  0  0
   42.2940   32.7330   41.4460 H   0  0  0  0  0  0  0  0  0  0  0  0
   42.8260   35.1420   40.8520 H   0  0  0  0  0  0  0  0  0  0  0  0
   40.5870   36.3190   39.9060 H   0  0  0  0  0  0  0  0  0  0  0  0
   37.9860   35.2010   39.5650 H   0  0  0  0  0  0  0  0  0  0  0  0
   37.7020   27.3540   42.0970 C   0  0  2  0  0  3  0  0  0  0  0  0
   38.0420   27.2490   43.3430 O   0  0  0  0  0  1  0  0  0  0  0  0
   40.3480   26.6690   40.6840 Cl  0  0  0  0  0  0  0  0  0  0  0  0
   39.0600   25.5510   40.9540 C   0  0  0  0  0  0  0  0  0  0  0  0
   37.9290   25.9940   41.5750 C   0  0  0  0  0  0  0  0  0  0  0  0
   36.9660   24.9820   41.7100 C   0  0  0  0  0  0  0  0  0  0  0  0
   36.0150   25.2440   42.1990 H   0  0  0  0  0  0  0  0  0  0  0  0
   37.0940   23.6790   41.2840 C   0  0  0  0  0  3  0  0  0  0  0  0
   38.2770   23.3330   40.6700 C   0  0  0  0  0  0  0  0  0  0  0  0
   38.4520   21.6870   40.1270 Cl  0  0  0  0  0  0  0  0  0  0  0  0
   39.2560   24.2650   40.5050 C   0  0  0  0  0  0  0  0  0  0  0  0
   40.1730   23.9660   40.0180 H   0  0  0  0  0  0  0  0  0  0  0  0
  1 24  1  0  0  0  0
  2  7  1  0  0  0  0
  2  1  2  0  0  0  0
  3  2  1  0  0  0  0
  4  3  2  0  0  0  0
  4  5  1  0  0  0  0
  5  6  2  0  0  0  0
  6  1  1  0  0  0  0
  8  3  1  0  0  0  0
  9 10  1  0  0  0  0
 10  5  1  0  0  0  0
 10 11  2  0  0  0  0
 11 19  1  0  0  0  0
 12 11  1  0  0  0  0
 12 13  1  0  0  0  0
 13 20  1  0  0  0  0
 14 21  1  0  0  0  0
 14 13  1  0  0  0  0
 15 16  1  0  0  0  0
 15 14  2  0  0  0  0
 16 12  2  0  0  0  0
 17  9  2  0  0  0  0
 17 16  1  0  0  0  0
 18  9  1  0  0  0  0
 22 15  1  0  0  0  0
 23 17  1  0  0  0  0
 24 25  1  6  0  0  0
 26 27  1  0  0  0  0
 27 28  1  0  0  0  0
 28 29  2  0  0  0  0
 28 24  1  0  0  0  0
 29 30  1  0  0  0  0
 31 29  1  0  0  0  0
 32 31  2  0  0  0  0
 33 32  1  0  0  0  0
 34 32  1  0  0  0  0
 34 27  2  0  0  0  0
 35 34  1  0  0  0  0
M  END
>  <minimizedAffinity>
-6.5523963

$$$$

 OpenBabel03252504013D

 35 38  0  0  1  0  0  0  0  0999 V2000
   38.2880   26.9840   42.8670 C   0  0  0  0  0  0  0  0  0  0  0  0
   39.4180   26.6600   43.6390 C   0  0  0  0  0  0  0  0  0  0  0  0
   39.9580   25.3710   43.5180 C   0  0  0  0  0  0  0  0  0  0  0  0
   39.3520   24.5100   42.6560 N   0  0  0  0  0  0  0  0  0  0  0  0
   38.2650   24.8550   41.9260 C   0  0  0  0  0  0  0  0  0  0  0  0
   37.7340   26.0960   42.0330 N   0  0  0  0  0  0  0  0  0  0  0  0
   39.8980   27.3550   44.3260 H   0  0  0  0  0  0  0  0  0  0  0  0
   40.8100   25.0450   44.0650 H   0  0  0  0  0  0  0  0  0  0  0  0
   38.3640   22.8260   40.5790 C   0  0  0  0  0  0  0  0  0  0  0  0
   37.6280   23.9150   41.0040 C   0  0  0  0  0  0  0  0  0  0  0  0
   36.3340   24.0740   40.5560 C   0  0  0  0  0  0  0  0  0  0  0  0
   35.7770   23.1570   39.6940 C   0  0  0  0  0  0  0  0  0  0  0  0
   34.5820   23.0370   39.0990 N   0  0  0  0  0  0  0  0  0  0  0  0
   34.5530   21.9330   38.3380 C   0  0  0  0  0  0  0  0  0  0  0  0
   35.7590   21.2920   38.4200 C   0  0  0  0  0  0  0  0  0  0  0  0
   36.5230   22.0580   39.2680 C   0  0  0  0  0  0  0  0  0  0  0  0
   37.8280   21.8950   39.7170 C   0  0  0  0  0  0  0  0  0  0  0  0
   39.3710   22.5940   40.8450 H   0  0  0  0  0  0  0  0  0  0  0  0
   35.7510   24.9090   40.8730 H   0  0  0  0  0  0  0  0  0  0  0  0
   33.8220   23.7600   39.2640 H   0  0  0  0  0  0  0  0  0  0  0  0
   33.6540   21.6980   37.7940 H   0  0  0  0  0  0  0  0  0  0  0  0
   36.0010   20.3660   37.8950 H   0  0  0  0  0  0  0  0  0  0  0  0
   38.3660   21.0160   39.3500 H   0  0  0  0  0  0  0  0  0  0  0  0
   37.8130   28.3190   43.0770 C   0  0  2  0  0  3  0  0  0  0  0  0
   37.3270   28.7380   44.2030 O   0  0  0  0  0  1  0  0  0  0  0  0
   40.2880   30.0880   42.6180 Cl  0  0  0  0  0  0  0  0  0  0  0  0
   38.7400   30.3580   41.9010 C   0  0  0  0  0  0  0  0  0  0  0  0
   37.7200   29.5070   42.2100 C   0  0  0  0  0  0  0  0  0  0  0  0
   36.5220   29.8600   41.5680 C   0  0  0  0  0  0  0  0  0  0  0  0
   35.6380   29.2310   41.7560 H   0  0  0  0  0  0  0  0  0  0  0  0
   36.3410   30.9290   40.7190 C   0  0  0  0  0  3  0  0  0  0  0  0
   37.4360   31.7260   40.4730 C   0  0  0  0  0  0  0  0  0  0  0  0
   37.2210   33.0810   39.3990 Cl  0  0  0  0  0  0  0  0  0  0  0  0
   38.6310   31.4430   41.0610 C   0  0  0  0  0  0  0  0  0  0  0  0
   39.4720   32.0870   40.8510 H   0  0  0  0  0  0  0  0  0  0  0  0
  1 24  1  0  0  0  0
  1  2  1  0  0  0  0
  2  7  1  0  0  0  0
  3  2  2  0  0  0  0
  3  8  1  0  0  0  0
  4  3  1  0  0  0  0
  5  6  1  0  0  0  0
  5  4  2  0  0  0  0
  6  1  2  0  0  0  0
  9 18  1  0  0  0  0
  9 10  1  0  0  0  0
 10  5  1  0  0  0  0
 11 19  1  0  0  0  0
 11 10  2  0  0  0  0
 12 11  1  0  0  0  0
 13 20  1  0  0  0  0
 13 12  1  0  0  0  0
 14 15  2  0  0  0  0
 14 13  1  0  0  0  0
 15 16  1  0  0  0  0
 16 12  2  0  0  0  0
 16 17  1  0  0  0  0
 17  9  2  0  0  0  0
 21 14  1  0  0  0  0
 22 15  1  0  0  0  0
 23 17  1  0  0  0  0
 24 25  1  6  0  0  0
 27 28  1  0  0  0  0
 27 26  1  0  0  0  0
 28 24  1  0  0  0  0
 29 30  1  0  0  0  0
 29 28  2  0  0  0  0
 31 29  1  0  0  0  0
 32 31  2  0  0  0  0
 32 34  1  0  0  0  0
 33 32  1  0  0  0  0
 34 27  2  0  0  0  0
 35 34  1  0  0  0  0
M  END
>  <minimizedAffinity>
-6.49891806

$$$$

 OpenBabel03252504013D

 35 38  0  0  1  0  0  0  0  0999 V2000
   39.3490   32.9940   40.3450 C   0  0  0  0  0  0  0  0  0  0  0  0
   38.0560   33.2970   39.8830 C   0  0  0  0  0  0  0  0  0  0  0  0
   37.0230   32.3890   40.1570 C   0  0  0  0  0  0  0  0  0  0  0  0
   37.3380   31.2650   40.8560 N   0  0  0  0  0  0  0  0  0  0  0  0
   38.5950   31.0040   41.2860 C   0  0  0  0  0  0  0  0  0  0  0  0
   39.6010   31.8720   41.0290 N   0  0  0  0  0  0  0  0  0  0  0  0
   37.8110   34.2000   39.3250 H   0  0  0  0  0  0  0  0  0  0  0  0
   36.0170   32.5420   39.8440 H   0  0  0  0  0  0  0  0  0  0  0  0
   37.8630   29.0490   42.5470 C   0  0  0  0  0  0  0  0  0  0  0  0
   38.9130   29.7890   42.0370 C   0  0  0  0  0  0  0  0  0  0  0  0
   40.2070   29.3610   42.2450 C   0  0  0  0  0  0  0  0  0  0  0  0
   40.4540   28.2070   42.9520 C   0  0  0  0  0  0  0  0  0  0  0  0
   41.5660   27.5490   43.3110 N   0  0  0  0  0  0  0  0  0  0  0  0
   41.2460   26.4480   44.0090 C   0  0  0  0  0  0  0  0  0  0  0  0
   39.8860   26.3620   44.1260 C   0  0  0  0  0  0  0  0  0  0  0  0
   39.3920   27.4620   43.4640 C   0  0  0  0  0  0  0  0  0  0  0  0
   38.0860   27.8910   43.2570 C   0  0  0  0  0  0  0  0  0  0  0  0
   36.8240   29.2760   42.4630 H   0  0  0  0  0  0  0  0  0  0  0  0
   41.0290   29.9200   41.8580 H   0  0  0  0  0  0  0  0  0  0  0  0
   42.5230   27.9160   43.0380 H   0  0  0  0  0  0  0  0  0  0  0  0
   42.0360   25.8110   44.3690 H   0  0  0  0  0  0  0  0  0  0  0  0
   39.3620   25.5600   44.6490 H   0  0  0  0  0  0  0  0  0  0  0  0
   37.2930   27.2690   43.6820 H   0  0  0  0  0  0  0  0  0  0  0  0
   40.3280   33.9810   40.0000 C   0  0  2  0  0  3  0  0  0  0  0  0
   40.1500   35.2540   40.1620 O   0  0  0  0  0  1  0  0  0  0  0  0
   42.7400   33.3370   41.7990 Cl  0  0  0  0  0  0  0  0  0  0  0  0
   42.8280   33.6030   40.0950 C   0  0  0  0  0  0  0  0  0  0  0  0
   41.6810   33.9040   39.4210 C   0  0  0  0  0  0  0  0  0  0  0  0
   41.9100   34.1100   38.0510 C   0  0  0  0  0  0  0  0  0  0  0  0
   41.0420   34.3600   37.4200 H   0  0  0  0  0  0  0  0  0  0  0  0
   43.1260   34.0310   37.4110 C   0  0  0  0  0  3  0  0  0  0  0  0
   44.2220   33.7190   38.1840 C   0  0  0  0  0  0  0  0  0  0  0  0
   45.7670   33.6150   37.3860 Cl  0  0  0  0  0  0  0  0  0  0  0  0
   44.0740   33.5070   39.5200 C   0  0  0  0  0  0  0  0  0  0  0  0
   44.9520   33.2650   40.1020 H   0  0  0  0  0  0  0  0  0  0  0  0
  1  6  1  0  0  0  0
  2  3  1  0  0  0  0
  2  1  2  0  0  0  0
  3  4  2  0  0  0  0
  4  5  1  0  0  0  0
  5 10  1  0  0  0  0
  6  5  2  0  0  0  0
  7  2  1  0  0  0  0
  8  3  1  0  0  0  0
  9 17  1  0  0  0  0
 10 11  1  0  0  0  0
 10  9  2  0  0  0  0
 11 12  2  0  0  0  0
 12 13  1  0  0  0  0
 12 16  1  0  0  0  0
 13 14  1  0  0  0  0
 14 15  2  0  0  0  0
 14 21  1  0  0  0  0
 15 22  1  0  0  0  0
 16 15  1  0  0  0  0
 17 16  2  0  0  0  0
 17 23  1  0  0  0  0
 18  9  1  0  0  0  0
 19 11  1  0  0  0  0
 20 13  1  0  0  0  0
 24 25  1  6  0  0  0
 24  1  1  0  0  0  0
 27 26  1  0  0  0  0
 28 24  1  0  0  0  0
 28 27  2  0  0  0  0
 29 28  1  0  0  0  0
 30 29  1  0  0  0  0
 31 29  2  0  0  0  0
 31 32  1  0  0  0  0
 32 34  2  0  0  0  0
 33 32  1  0  0  0  0
 34 27  1  0  0  0  0
 34 35  1  0  0  0  0
M  END
>  <minimizedAffinity>
-6.38482141

$$$$

 OpenBabel03252504013D

 35 38  0  0  1  0  0  0  0  0999 V2000
   34.0950   28.8080   36.6990 C   0  0  0  0  0  0  0  0  0  0  0  0
   34.9860   29.2590   35.7100 C   0  0  0  0  0  0  0  0  0  0  0  0
   36.3480   29.3480   36.0340 C   0  0  0  0  0  0  0  0  0  0  0  0
   36.7240   28.9910   37.2920 N   0  0  0  0  0  0  0  0  0  0  0  0
   35.8380   28.5610   38.2220 C   0  0  0  0  0  0  0  0  0  0  0  0
   34.5210   28.4690   37.9220 N   0  0  0  0  0  0  0  0  0  0  0  0
   34.6780   29.5420   34.7050 H   0  0  0  0  0  0  0  0  0  0  0  0
   37.0880   29.6790   35.3450 H   0  0  0  0  0  0  0  0  0  0  0  0
   36.5930   26.8580   39.7950 C   0  0  0  0  0  0  0  0  0  0  0  0
   36.2620   28.1810   39.5690 C   0  0  0  0  0  0  0  0  0  0  0  0
   36.3460   29.0870   40.6050 C   0  0  0  0  0  0  0  0  0  0  0  0
   36.7570   28.6810   41.8540 C   0  0  0  0  0  0  0  0  0  0  0  0
   36.9370   29.3030   43.0280 N   0  0  0  0  0  0  0  0  0  0  0  0
   37.3620   28.4290   43.9530 C   0  0  0  0  0  0  0  0  0  0  0  0
   37.4700   27.1870   43.3910 C   0  0  0  0  0  0  0  0  0  0  0  0
   37.0920   27.3460   42.0780 C   0  0  0  0  0  0  0  0  0  0  0  0
   37.0080   26.4290   41.0360 C   0  0  0  0  0  0  0  0  0  0  0  0
   36.5630   26.0640   39.0850 H   0  0  0  0  0  0  0  0  0  0  0  0
   36.0940   30.1110   40.4480 H   0  0  0  0  0  0  0  0  0  0  0  0
   36.7470   30.3430   43.1230 H   0  0  0  0  0  0  0  0  0  0  0  0
   37.5520   28.7800   44.9530 H   0  0  0  0  0  0  0  0  0  0  0  0
   37.7960   26.2940   43.9280 H   0  0  0  0  0  0  0  0  0  0  0  0
   37.2820   25.3970   41.2690 H   0  0  0  0  0  0  0  0  0  0  0  0
   32.7300   28.7660   36.2660 C   0  0  2  0  0  3  0  0  0  0  0  0
   32.0610   27.6680   36.1070 O   0  0  0  0  0  1  0  0  0  0  0  0
   30.9240   30.0130   38.4230 Cl  0  0  0  0  0  0  0  0  0  0  0  0
   30.9150   30.4600   36.7550 C   0  0  0  0  0  0  0  0  0  0  0  0
   31.7540   29.8080   35.9000 C   0  0  0  0  0  0  0  0  0  0  0  0
   31.6230   30.2650   34.5790 C   0  0  0  0  0  0  0  0  0  0  0  0
   32.2610   29.7980   33.8120 H   0  0  0  0  0  0  0  0  0  0  0  0
   30.7670   31.2500   34.1420 C   0  0  0  0  0  3  0  0  0  0  0  0
   29.9620   31.8460   35.0870 C   0  0  0  0  0  0  0  0  0  0  0  0
   28.8740   33.0940   34.5470 Cl  0  0  0  0  0  0  0  0  0  0  0  0
   30.0350   31.4520   36.3880 C   0  0  0  0  0  0  0  0  0  0  0  0
   29.3910   31.9360   37.1080 H   0  0  0  0  0  0  0  0  0  0  0  0
  1  6  1  0  0  0  0
  2  3  1  0  0  0  0
  2  1  2  0  0  0  0
  3  4  2  0  0  0  0
  4  5  1  0  0  0  0
  5 10  1  0  0  0  0
  6  5  2  0  0  0  0
  7  2  1  0  0  0  0
  8  3  1  0  0  0  0
  9 17  1  0  0  0  0
 10  9  2  0  0  0  0
 10 11  1  0  0  0  0
 11 12  2  0  0  0  0
 12 16  1  0  0  0  0
 12 13  1  0  0  0  0
 13 20  1  0  0  0  0
 13 14  1  0  0  0  0
 14 21  1  0  0  0  0
 15 22  1  0  0  0  0
 15 14  2  0  0  0  0
 16 15  1  0  0  0  0
 17 23  1  0  0  0  0
 17 16  2  0  0  0  0
 18  9  1  0  0  0  0
 19 11  1  0  0  0  0
 24 25  1  6  0  0  0
 24  1  1  0  0  0  0
 27 26  1  0  0  0  0
 28 24  1  0  0  0  0
 28 27  2  0  0  0  0
 29 28  1  0  0  0  0
 30 29  1  0  0  0  0
 31 29  2  0  0  0  0
 31 32  1  0  0  0  0
 32 34  2  0  0  0  0
 33 32  1  0  0  0  0
 34 27  1  0  0  0  0
 34 35  1  0  0  0  0
M  END
>  <minimizedAffinity>
-6.36182213

$$$$

 OpenBabel03252504013D

 35 38  0  0  1  0  0  0  0  0999 V2000
   37.1410   27.7130   40.8950 C   0  0  0  0  0  0  0  0  0  0  0  0
   37.0750   27.3310   42.2470 C   0  0  0  0  0  0  0  0  0  0  0  0
   37.3500   28.2980   43.2240 C   0  0  0  0  0  0  0  0  0  0  0  0
   37.6650   29.5530   42.8020 N   0  0  0  0  0  0  0  0  0  0  0  0
   37.7190   29.8870   41.4900 C   0  0  0  0  0  0  0  0  0  0  0  0
   37.4550   28.9630   40.5370 N   0  0  0  0  0  0  0  0  0  0  0  0
   36.8210   26.3250   42.5770 H   0  0  0  0  0  0  0  0  0  0  0  0
   37.3230   28.0930   44.2680 H   0  0  0  0  0  0  0  0  0  0  0  0
   37.1270   31.9350   40.3080 C   0  0  0  0  0  0  0  0  0  0  0  0
   38.0590   31.2420   41.0560 C   0  0  0  0  0  0  0  0  0  0  0  0
   39.2600   31.8430   41.3680 C   0  0  0  0  0  0  0  0  0  0  0  0
   39.5300   33.1240   40.9420 C   0  0  0  0  0  0  0  0  0  0  0  0
   40.5720   33.9560   41.0790 N   0  0  0  0  0  0  0  0  0  0  0  0
   40.3200   35.1170   40.4570 C   0  0  0  0  0  0  0  0  0  0  0  0
   39.0790   35.0680   39.8850 C   0  0  0  0  0  0  0  0  0  0  0  0
   38.5860   33.8210   40.1890 C   0  0  0  0  0  0  0  0  0  0  0  0
   37.3740   33.2180   39.8720 C   0  0  0  0  0  0  0  0  0  0  0  0
   36.1700   31.5820   39.9960 H   0  0  0  0  0  0  0  0  0  0  0  0
   39.9910   31.3220   41.9440 H   0  0  0  0  0  0  0  0  0  0  0  0
   41.4340   33.6570   41.6210 H   0  0  0  0  0  0  0  0  0  0  0  0
   41.0680   35.8920   40.4780 H   0  0  0  0  0  0  0  0  0  0  0  0
   38.6300   35.8850   39.3160 H   0  0  0  0  0  0  0  0  0  0  0  0
   36.6730   33.8110   39.2780 H   0  0  0  0  0  0  0  0  0  0  0  0
   36.8540   26.6460   39.9830 C   0  0  2  0  0  3  0  0  0  0  0  0
   36.1620   26.7970   38.8980 O   0  0  0  0  0  1  0  0  0  0  0  0
   39.8010   25.7610   39.9510 Cl  0  0  0  0  0  0  0  0  0  0  0  0
   38.4510   24.6840   39.9770 C   0  0  0  0  0  0  0  0  0  0  0  0
   37.1940   25.2120   39.9660 C   0  0  0  0  0  0  0  0  0  0  0  0
   36.2020   24.2180   39.9720 C   0  0  0  0  0  0  0  0  0  0  0  0
   35.1500   24.5470   39.9630 H   0  0  0  0  0  0  0  0  0  0  0  0
   36.4150   22.8590   39.9870 C   0  0  0  0  0  3  0  0  0  0  0  0
   37.7240   22.4300   39.9990 C   0  0  0  0  0  0  0  0  0  0  0  0
   38.0070   20.7110   40.0190 Cl  0  0  0  0  0  0  0  0  0  0  0  0
   38.7380   23.3380   39.9930 C   0  0  0  0  0  0  0  0  0  0  0  0
   39.7540   22.9720   40.0020 H   0  0  0  0  0  0  0  0  0  0  0  0
  1  2  1  0  0  0  0
  2  7  1  0  0  0  0
  2  3  2  0  0  0  0
  3  8  1  0  0  0  0
  4  3  1  0  0  0  0
  5  4  2  0  0  0  0
  6  1  2  0  0  0  0
  6  5  1  0  0  0  0
  9 10  1  0  0  0  0
 10 11  2  0  0  0  0
 10  5  1  0  0  0  0
 11 19  1  0  0  0  0
 12 13  1  0  0  0  0
 12 11  1  0  0  0  0
 13 20  1  0  0  0  0
 14 21  1  0  0  0  0
 14 13  1  0  0  0  0
 15 16  1  0  0  0  0
 15 14  2  0  0  0  0
 16 12  2  0  0  0  0
 17 16  1  0  0  0  0
 17  9  2  0  0  0  0
 18  9  1  0  0  0  0
 22 15  1  0  0  0  0
 23 17  1  0  0  0  0
 24 25  1  1  0  0  0
 24  1  1  0  0  0  0
 26 27  1  0  0  0  0
 27 34  1  0  0  0  0
 28 29  1  0  0  0  0
 28 27  2  0  0  0  0
 28 24  1  0  0  0  0
 29 31  2  0  0  0  0
 30 29  1  0  0  0  0
 31 32  1  0  0  0  0
 32 33  1  0  0  0  0
 34 32  2  0  0  0  0
 34 35  1  0  0  0  0
M  END
>  <minimizedAffinity>
-6.29781389

$$$$

 OpenBabel03252504013D

 35 38  0  0  1  0  0  0  0  0999 V2000
   37.8310   27.4990   40.9650 C   0  0  0  0  0  0  0  0  0  0  0  0
   37.5600   27.1490   42.3000 C   0  0  0  0  0  0  0  0  0  0  0  0
   37.4920   28.1750   43.2540 C   0  0  0  0  0  0  0  0  0  0  0  0
   37.6940   29.4510   42.8260 N   0  0  0  0  0  0  0  0  0  0  0  0
   37.9530   29.7520   41.5320 C   0  0  0  0  0  0  0  0  0  0  0  0
   38.0210   28.7720   40.6010 N   0  0  0  0  0  0  0  0  0  0  0  0
   37.3990   26.1260   42.6350 H   0  0  0  0  0  0  0  0  0  0  0  0
   37.2930   27.9980   44.2840 H   0  0  0  0  0  0  0  0  0  0  0  0
   37.1570   31.7460   40.3760 C   0  0  0  0  0  0  0  0  0  0  0  0
   38.1670   31.1310   41.0910 C   0  0  0  0  0  0  0  0  0  0  0  0
   39.3240   31.8290   41.3670 C   0  0  0  0  0  0  0  0  0  0  0  0
   39.4740   33.1270   40.9360 C   0  0  0  0  0  0  0  0  0  0  0  0
   40.4480   34.0420   41.0420 N   0  0  0  0  0  0  0  0  0  0  0  0
   40.0810   35.1800   40.4330 C   0  0  0  0  0  0  0  0  0  0  0  0
   38.8310   35.0290   39.9010 C   0  0  0  0  0  0  0  0  0  0  0  0
   38.4510   33.7450   40.2160 C   0  0  0  0  0  0  0  0  0  0  0  0
   37.2840   33.0450   39.9360 C   0  0  0  0  0  0  0  0  0  0  0  0
   36.2230   31.3160   40.0940 H   0  0  0  0  0  0  0  0  0  0  0  0
   40.1130   31.3690   41.9170 H   0  0  0  0  0  0  0  0  0  0  0  0
   41.3490   33.8140   41.5550 H   0  0  0  0  0  0  0  0  0  0  0  0
   40.7630   36.0140   40.4330 H   0  0  0  0  0  0  0  0  0  0  0  0
   38.2980   35.8060   39.3500 H   0  0  0  0  0  0  0  0  0  0  0  0
   36.5170   33.5790   39.3680 H   0  0  0  0  0  0  0  0  0  0  0  0
   37.8900   26.3750   40.0790 C   0  0  2  0  0  3  0  0  0  0  0  0
   38.9790   25.9680   39.5070 O   0  0  0  0  0  1  0  0  0  0  0  0
   37.4740   23.6720   41.4900 Cl  0  0  0  0  0  0  0  0  0  0  0  0
   36.5720   24.2150   40.1200 C   0  0  0  0  0  0  0  0  0  0  0  0
   36.8770   25.4290   39.5780 C   0  0  0  0  0  0  0  0  0  0  0  0
   36.0750   25.7270   38.4640 C   0  0  0  0  0  0  0  0  0  0  0  0
   36.2470   26.6890   37.9550 H   0  0  0  0  0  0  0  0  0  0  0  0
   35.0860   24.9270   37.9390 C   0  0  0  0  0  3  0  0  0  0  0  0
   34.8570   23.7210   38.5630 C   0  0  0  0  0  0  0  0  0  0  0  0
   33.6070   22.7000   37.9090 Cl  0  0  0  0  0  0  0  0  0  0  0  0
   35.5970   23.3660   39.6490 C   0  0  0  0  0  0  0  0  0  0  0  0
   35.3970   22.4130   40.1180 H   0  0  0  0  0  0  0  0  0  0  0  0
  1  2  1  0  0  0  0
  2  7  1  0  0  0  0
  2  3  2  0  0  0  0
  3  8  1  0  0  0  0
  4  3  1  0  0  0  0
  5  4  2  0  0  0  0
  6  1  2  0  0  0  0
  6  5  1  0  0  0  0
  9 10  1  0  0  0  0
 10 11  2  0  0  0  0
 10  5  1  0  0  0  0
 11 19  1  0  0  0  0
 12 13  1  0  0  0  0
 12 11  1  0  0  0  0
 13 20  1  0  0  0  0
 14 21  1  0  0  0  0
 14 13  1  0  0  0  0
 15 16  1  0  0  0  0
 15 14  2  0  0  0  0
 16 12  2  0  0  0  0
 17 16  1  0  0  0  0
 17  9  2  0  0  0  0
 18  9  1  0  0  0  0
 22 15  1  0  0  0  0
 23 17  1  0  0  0  0
 24 25  1  6  0  0  0
 24  1  1  0  0  0  0
 27 26  1  0  0  0  0
 28 24  1  0  0  0  0
 28 27  2  0  0  0  0
 29 28  1  0  0  0  0
 30 29  1  0  0  0  0
 31 29  2  0  0  0  0
 31 32  1  0  0  0  0
 32 34  2  0  0  0  0
 33 32  1  0  0  0  0
 34 35  1  0  0  0  0
 34 27  1  0  0  0  0
M  END
>  <minimizedAffinity>
-6.25703716

$$$$

 OpenBabel03252504013D

 35 38  0  0  1  0  0  0  0  0999 V2000
   37.4070   26.7300   41.4320 C   0  0  0  0  0  0  0  0  0  0  0  0
   36.9970   26.4210   42.7400 C   0  0  0  0  0  0  0  0  0  0  0  0
   36.9330   27.4610   43.6790 C   0  0  0  0  0  0  0  0  0  0  0  0
   37.2730   28.7110   43.2630 N   0  0  0  0  0  0  0  0  0  0  0  0
   37.6640   28.9740   41.9930 C   0  0  0  0  0  0  0  0  0  0  0  0
   37.7300   27.9790   41.0770 N   0  0  0  0  0  0  0  0  0  0  0  0
   36.7250   25.4180   43.0660 H   0  0  0  0  0  0  0  0  0  0  0  0
   36.6330   27.3140   44.6890 H   0  0  0  0  0  0  0  0  0  0  0  0
   39.2970   30.7800   41.8620 C   0  0  0  0  0  0  0  0  0  0  0  0
   38.0260   30.3250   41.5650 C   0  0  0  0  0  0  0  0  0  0  0  0
   37.1560   31.1460   40.8800 C   0  0  0  0  0  0  0  0  0  0  0  0
   37.5460   32.4070   40.4920 C   0  0  0  0  0  0  0  0  0  0  0  0
   36.9490   33.4110   39.8340 N   0  0  0  0  0  0  0  0  0  0  0  0
   37.7910   34.4490   39.7140 C   0  0  0  0  0  0  0  0  0  0  0  0
   38.9840   34.1390   40.3060 C   0  0  0  0  0  0  0  0  0  0  0  0
   38.8300   32.8630   40.7930 C   0  0  0  0  0  0  0  0  0  0  0  0
   39.7100   32.0380   41.4830 C   0  0  0  0  0  0  0  0  0  0  0  0
   40.0570   30.2490   42.3900 H   0  0  0  0  0  0  0  0  0  0  0  0
   36.1710   30.8110   40.6430 H   0  0  0  0  0  0  0  0  0  0  0  0
   35.9500   33.3130   39.4910 H   0  0  0  0  0  0  0  0  0  0  0  0
   37.4540   35.3360   39.2050 H   0  0  0  0  0  0  0  0  0  0  0  0
   39.8430   34.8120   40.3500 H   0  0  0  0  0  0  0  0  0  0  0  0
   40.7030   32.4470   41.6920 H   0  0  0  0  0  0  0  0  0  0  0  0
   37.4490   25.5940   40.5600 C   0  0  2  0  0  3  0  0  0  0  0  0
   38.5210   24.9030   40.3330 O   0  0  0  0  0  1  0  0  0  0  0  0
   36.4290   26.9220   37.9780 Cl  0  0  0  0  0  0  0  0  0  0  0  0
   35.9170   25.3780   38.5580 C   0  0  0  0  0  0  0  0  0  0  0  0
   36.4340   24.9170   39.7330 C   0  0  0  0  0  0  0  0  0  0  0  0
   35.9140   23.6610   40.0850 C   0  0  0  0  0  0  0  0  0  0  0  0
   36.2710   23.2050   41.0210 H   0  0  0  0  0  0  0  0  0  0  0  0
   34.9890   22.9360   39.3670 C   0  0  0  0  0  3  0  0  0  0  0  0
   34.5310   23.4910   38.1930 C   0  0  0  0  0  0  0  0  0  0  0  0
   33.3620   22.5840   37.2760 Cl  0  0  0  0  0  0  0  0  0  0  0  0
   34.9920   24.7070   37.7900 C   0  0  0  0  0  0  0  0  0  0  0  0
   34.6150   25.1190   36.8660 H   0  0  0  0  0  0  0  0  0  0  0  0
  1  2  1  0  0  0  0
  2  7  1  0  0  0  0
  2  3  2  0  0  0  0
  3  8  1  0  0  0  0
  4  3  1  0  0  0  0
  5  4  2  0  0  0  0
  6  1  2  0  0  0  0
  6  5  1  0  0  0  0
  9 18  1  0  0  0  0
 10  9  1  0  0  0  0
 10  5  1  0  0  0  0
 11 10  2  0  0  0  0
 12 16  2  0  0  0  0
 12 11  1  0  0  0  0
 13 12  1  0  0  0  0
 14 13  1  0  0  0  0
 14 15  2  0  0  0  0
 15 22  1  0  0  0  0
 15 16  1  0  0  0  0
 16 17  1  0  0  0  0
 17 23  1  0  0  0  0
 17  9  2  0  0  0  0
 19 11  1  0  0  0  0
 20 13  1  0  0  0  0
 21 14  1  0  0  0  0
 24 25  1  6  0  0  0
 24  1  1  0  0  0  0
 26 27  1  0  0  0  0
 27 28  1  0  0  0  0
 28 29  2  0  0  0  0
 28 24  1  0  0  0  0
 29 30  1  0  0  0  0
 31 29  1  0  0  0  0
 32 31  2  0  0  0  0
 33 32  1  0  0  0  0
 34 32  1  0  0  0  0
 34 27  2  0  0  0  0
 35 34  1  0  0  0  0
M  END
>  <minimizedAffinity>
-6.22808743

$$$$

 OpenBabel03252504013D

 35 38  0  0  1  0  0  0  0  0999 V2000
   37.4470   29.1160   41.6990 C   0  0  0  0  0  0  0  0  0  0  0  0
   37.6370   29.1690   43.0900 C   0  0  0  0  0  0  0  0  0  0  0  0
   37.7070   27.9590   43.7970 C   0  0  0  0  0  0  0  0  0  0  0  0
   37.5850   26.8040   43.0880 N   0  0  0  0  0  0  0  0  0  0  0  0
   37.4020   26.7900   41.7460 C   0  0  0  0  0  0  0  0  0  0  0  0
   37.3340   27.9500   41.0520 N   0  0  0  0  0  0  0  0  0  0  0  0
   37.7350   30.0970   43.6510 H   0  0  0  0  0  0  0  0  0  0  0  0
   37.8480   27.9090   44.8510 H   0  0  0  0  0  0  0  0  0  0  0  0
   36.5360   25.5510   39.8340 C   0  0  0  0  0  0  0  0  0  0  0  0
   37.2740   25.5370   41.0020 C   0  0  0  0  0  0  0  0  0  0  0  0
   37.8610   24.3610   41.4180 C   0  0  0  0  0  0  0  0  0  0  0  0
   37.7170   23.2100   40.6780 C   0  0  0  0  0  0  0  0  0  0  0  0
   38.1530   21.9500   40.8130 N   0  0  0  0  0  0  0  0  0  0  0  0
   37.7200   21.1990   39.7880 C   0  0  0  0  0  0  0  0  0  0  0  0
   36.9740   21.9710   38.9420 C   0  0  0  0  0  0  0  0  0  0  0  0
   36.9720   23.2280   39.4990 C   0  0  0  0  0  0  0  0  0  0  0  0
   36.3780   24.4120   39.0760 C   0  0  0  0  0  0  0  0  0  0  0  0
   36.0280   26.3890   39.4100 H   0  0  0  0  0  0  0  0  0  0  0  0
   38.4340   24.3330   42.3170 H   0  0  0  0  0  0  0  0  0  0  0  0
   38.7520   21.6710   41.6440 H   0  0  0  0  0  0  0  0  0  0  0  0
   37.9900   20.1570   39.7560 H   0  0  0  0  0  0  0  0  0  0  0  0
   36.5020   21.6040   38.0280 H   0  0  0  0  0  0  0  0  0  0  0  0
   35.8060   24.3670   38.1460 H   0  0  0  0  0  0  0  0  0  0  0  0
   37.3790   30.4060   41.0800 C   0  0  2  0  0  3  0  0  0  0  0  0
   36.2930   31.1090   41.0020 O   0  0  0  0  0  1  0  0  0  0  0  0
   37.9870   30.0030   38.0900 Cl  0  0  0  0  0  0  0  0  0  0  0  0
   38.7210   31.2060   39.0900 C   0  0  0  0  0  0  0  0  0  0  0  0
   38.3760   31.2590   40.4080 C   0  0  0  0  0  0  0  0  0  0  0  0
   39.0640   32.2720   41.0950 C   0  0  0  0  0  0  0  0  0  0  0  0
   38.8530   32.3940   42.1690 H   0  0  0  0  0  0  0  0  0  0  0  0
   39.9870   33.1370   40.5530 C   0  0  0  0  0  3  0  0  0  0  0  0
   40.2640   32.9990   39.2110 C   0  0  0  0  0  0  0  0  0  0  0  0
   41.4300   34.0880   38.5130 Cl  0  0  0  0  0  0  0  0  0  0  0  0
   39.6340   32.0380   38.4820 C   0  0  0  0  0  0  0  0  0  0  0  0
   39.8710   31.9520   37.4320 H   0  0  0  0  0  0  0  0  0  0  0  0
  1  2  1  0  0  0  0
  2  7  1  0  0  0  0
  2  3  2  0  0  0  0
  3  8  1  0  0  0  0
  4  3  1  0  0  0  0
  5  4  2  0  0  0  0
  6  1  2  0  0  0  0
  6  5  1  0  0  0  0
  9 10  1  0  0  0  0
 10 11  2  0  0  0  0
 10  5  1  0  0  0  0
 11 19  1  0  0  0  0
 12 13  1  0  0  0  0
 12 11  1  0  0  0  0
 13 20  1  0  0  0  0
 14 13  1  0  0  0  0
 15 16  1  0  0  0  0
 15 14  2  0  0  0  0
 16 12  2  0  0  0  0
 17 16  1  0  0  0  0
 17  9  2  0  0  0  0
 18  9  1  0  0  0  0
 21 14  1  0  0  0  0
 22 15  1  0  0  0  0
 23 17  1  0  0  0  0
 24 25  1  6  0  0  0
 24  1  1  0  0  0  0
 26 27  1  0  0  0  0
 27 28  1  0  0  0  0
 28 24  1  0  0  0  0
 28 29  2  0  0  0  0
 29 30  1  0  0  0  0
 31 29  1  0  0  0  0
 32 31  2  0  0  0  0
 33 32  1  0  0  0  0
 34 27  2  0  0  0  0
 34 32  1  0  0  0  0
 35 34  1  0  0  0  0
M  END
>  <minimizedAffinity>
-6.18437719

$$$$

 OpenBabel03252504013D

 35 38  0  0  1  0  0  0  0  0999 V2000
   38.3300   27.1100   42.7560 C   0  0  0  0  0  0  0  0  0  0  0  0
   39.4200   26.7830   43.5810 C   0  0  0  0  0  0  0  0  0  0  0  0
   39.9520   25.4880   43.4940 C   0  0  0  0  0  0  0  0  0  0  0  0
   39.3770   24.6250   42.6130 N   0  0  0  0  0  0  0  0  0  0  0  0
   38.3270   24.9750   41.8320 C   0  0  0  0  0  0  0  0  0  0  0  0
   37.8040   26.2210   41.9050 N   0  0  0  0  0  0  0  0  0  0  0  0
   39.8750   27.4790   44.2830 H   0  0  0  0  0  0  0  0  0  0  0  0
   40.7750   25.1580   44.0820 H   0  0  0  0  0  0  0  0  0  0  0  0
   36.3690   24.1450   40.6400 C   0  0  0  0  0  0  0  0  0  0  0  0
   37.7230   24.0320   40.8900 C   0  0  0  0  0  0  0  0  0  0  0  0
   38.4510   23.0530   40.2480 C   0  0  0  0  0  0  0  0  0  0  0  0
   37.8380   22.1950   39.3640 C   0  0  0  0  0  0  0  0  0  0  0  0
   38.2590   21.1720   38.6070 N   0  0  0  0  0  0  0  0  0  0  0  0
   37.2340   20.6610   37.9090 C   0  0  0  0  0  0  0  0  0  0  0  0
   36.0920   21.3540   38.2030 C   0  0  0  0  0  0  0  0  0  0  0  0
   36.4710   22.3130   39.1130 C   0  0  0  0  0  0  0  0  0  0  0  0
   35.7330   23.2990   39.7590 C   0  0  0  0  0  0  0  0  0  0  0  0
   35.6970   24.8510   41.0750 H   0  0  0  0  0  0  0  0  0  0  0  0
   39.4970   22.9520   40.4300 H   0  0  0  0  0  0  0  0  0  0  0  0
   39.2790   20.8770   38.6180 H   0  0  0  0  0  0  0  0  0  0  0  0
   37.4160   19.8290   37.2500 H   0  0  0  0  0  0  0  0  0  0  0  0
   35.1130   21.1400   37.7710 H   0  0  0  0  0  0  0  0  0  0  0  0
   34.6660   23.3440   39.5250 H   0  0  0  0  0  0  0  0  0  0  0  0
   37.8590   28.4520   42.9330 C   0  0  2  0  0  3  0  0  0  0  0  0
   37.3690   28.8990   44.0470 O   0  0  0  0  0  1  0  0  0  0  0  0
   35.4490   28.7770   41.0470 Cl  0  0  0  0  0  0  0  0  0  0  0  0
   36.7550   29.9000   41.1770 C   0  0  0  0  0  0  0  0  0  0  0  0
   37.7740   29.6200   42.0390 C   0  0  0  0  0  0  0  0  0  0  0  0
   38.7680   30.6120   42.0240 C   0  0  0  0  0  0  0  0  0  0  0  0
   39.6360   30.4750   42.6880 H   0  0  0  0  0  0  0  0  0  0  0  0
   38.7670   31.7510   41.2510 C   0  0  0  0  0  3  0  0  0  0  0  0
   37.6900   31.9390   40.4140 C   0  0  0  0  0  0  0  0  0  0  0  0
   37.6750   33.3760   39.4300 Cl  0  0  0  0  0  0  0  0  0  0  0  0
   36.6880   31.0170   40.3760 C   0  0  0  0  0  0  0  0  0  0  0  0
   35.8560   31.1900   39.7090 H   0  0  0  0  0  0  0  0  0  0  0  0
  1 24  1  0  0  0  0
  1  2  1  0  0  0  0
  2  7  1  0  0  0  0
  3  2  2  0  0  0  0
  3  8  1  0  0  0  0
  4  3  1  0  0  0  0
  5  6  1  0  0  0  0
  5  4  2  0  0  0  0
  6  1  2  0  0  0  0
  9 10  1  0  0  0  0
  9 18  1  0  0  0  0
 10  5  1  0  0  0  0
 11 19  1  0  0  0  0
 11 10  2  0  0  0  0
 12 11  1  0  0  0  0
 13 20  1  0  0  0  0
 13 12  1  0  0  0  0
 14 15  2  0  0  0  0
 14 13  1  0  0  0  0
 15 16  1  0  0  0  0
 16 12  2  0  0  0  0
 16 17  1  0  0  0  0
 17  9  2  0  0  0  0
 21 14  1  0  0  0  0
 22 15  1  0  0  0  0
 23 17  1  0  0  0  0
 24 25  1  6  0  0  0
 26 27  1  0  0  0  0
 27 28  1  0  0  0  0
 28 24  1  0  0  0  0
 29 28  2  0  0  0  0
 29 30  1  0  0  0  0
 31 29  1  0  0  0  0
 32 31  2  0  0  0  0
 33 32  1  0  0  0  0
 34 32  1  0  0  0  0
 34 27  2  0  0  0  0
 35 34  1  0  0  0  0
M  END
>  <minimizedAffinity>
-6.14209127

$$$$
