
 OpenBabel03252508503D

 29 31  0  0  0  0  0  0  0  0999 V2000
   45.8760   34.1110   41.0660 C   0  0  0  0  0  0  0  0  0  0  0  0
   46.4770   34.7820   42.1270 C   0  0  0  0  0  0  0  0  0  0  0  0
   47.8020   35.1640   41.9480 C   0  0  0  0  0  0  0  0  0  0  0  0
   48.4220   34.8630   40.7650 N   0  0  0  0  0  0  0  0  0  0  0  0
   47.8090   34.2190   39.7770 C   0  0  0  0  0  0  0  0  0  0  0  0
   46.5240   33.8380   39.9250 N   0  0  0  0  0  0  0  0  0  0  0  0
   48.3080   35.6890   42.7470 H   0  0  0  0  0  0  0  0  0  0  0  0
   48.2910   33.9780   38.8410 H   0  0  0  0  0  0  0  0  0  0  0  0
   45.7240   35.0450   43.3370 C   0  0  0  0  0  0  0  0  0  0  0  0
   45.0410   36.2160   43.5680 C   0  0  0  0  0  0  0  0  0  0  0  0
   44.4860   36.0260   44.8210 C   0  0  0  0  0  0  0  0  0  0  0  0
   44.8160   34.8050   45.3230 N   0  0  0  0  0  0  0  0  0  0  0  0
   45.5600   34.2430   44.4050 N   0  0  0  0  0  0  0  0  0  0  0  0
   44.9530   37.0810   42.9300 H   0  0  0  0  0  0  0  0  0  0  0  0
   43.8610   36.7740   45.3350 H   0  0  0  0  0  0  0  0  0  0  0  0
   44.5020   34.4540   46.2590 H   0  0  0  0  0  0  0  0  0  0  0  0
   44.5580   33.7120   41.2020 O   0  0  0  0  0  0  0  0  0  0  0  0
   43.4440   34.3620   40.7540 C   0  0  0  0  0  0  0  0  0  0  0  0
   43.3290   35.6150   40.4920 O   0  0  0  0  0  0  0  0  0  0  0  0
   43.2060   32.7240   38.2160 Cl  0  0  0  0  0  0  0  0  0  0  0  0
   41.9140   32.9000   39.3840 C   0  0  0  0  0  0  0  0  0  0  0  0
   42.1450   33.6730   40.5010 C   0  0  0  0  0  0  0  0  0  0  0  0
   41.0630   33.7410   41.3480 C   0  0  0  0  0  0  0  0  0  0  0  0
   41.1450   34.3280   42.2590 H   0  0  0  0  0  0  0  0  0  0  0  0
   39.8590   33.1130   41.1280 C   0  0  0  0  0  3  0  0  0  0  0  0
   39.7110   32.3620   39.9890 C   0  0  0  0  0  0  0  0  0  0  0  0
   38.1800   31.5680   39.7210 Cl  0  0  0  0  0  0  0  0  0  0  0  0
   40.7460   32.2390   39.0870 C   0  0  0  0  0  0  0  0  0  0  0  0
   40.6290   31.6480   38.1900 H   0  0  0  0  0  0  0  0  0  0  0  0
  1 17  1  0  0  0  0
  1  2  1  0  0  0  0
  2  9  1  0  0  0  0
  3  2  2  0  0  0  0
  3  7  1  0  0  0  0
  4  3  1  0  0  0  0
  5  6  1  0  0  0  0
  5  4  2  0  0  0  0
  6  1  2  0  0  0  0
  8  5  1  0  0  0  0
  9 10  1  0  0  0  0
  9 13  2  0  0  0  0
 10 11  2  0  0  0  0
 11 12  1  0  0  0  0
 11 15  1  0  0  0  0
 12 16  1  0  0  0  0
 13 12  1  0  0  0  0
 14 10  1  0  0  0  0
 18 17  1  0  0  0  0
 19 18  2  0  0  0  0
 20 21  1  0  0  0  0
 21 22  1  0  0  0  0
 22 18  1  0  0  0  0
 22 23  2  0  0  0  0
 23 24  1  0  0  0  0
 25 23  1  0  0  0  0
 26 25  2  0  0  0  0
 27 26  1  0  0  0  0
 28 21  2  0  0  0  0
 28 26  1  0  0  0  0
 29 28  1  0  0  0  0
M  END
>  <minimizedAffinity>
-5.61435795

>  <minimizedRMSD>
1.39701009

$$$$
