
 OpenBabel03252508493D

 29 31  0  0  0  0  0  0  0  0999 V2000
   45.5700   34.0910   41.2960 C   0  0  0  0  0  0  0  0  0  0  0  0
   46.2490   34.6560   42.3720 C   0  0  0  0  0  0  0  0  0  0  0  0
   47.5790   34.9980   42.1530 C   0  0  0  0  0  0  0  0  0  0  0  0
   48.1280   34.7640   40.9210 N   0  0  0  0  0  0  0  0  0  0  0  0
   47.4400   34.2210   39.9210 C   0  0  0  0  0  0  0  0  0  0  0  0
   46.1490   33.8800   40.1060 N   0  0  0  0  0  0  0  0  0  0  0  0
   48.1460   35.4410   42.9610 H   0  0  0  0  0  0  0  0  0  0  0  0
   47.8660   34.0340   38.9450 H   0  0  0  0  0  0  0  0  0  0  0  0
   45.5680   34.8550   43.6350 C   0  0  0  0  0  0  0  0  0  0  0  0
   44.9530   36.0330   43.9890 C   0  0  0  0  0  0  0  0  0  0  0  0
   44.4510   35.7690   45.2520 C   0  0  0  0  0  0  0  0  0  0  0  0
   44.7460   34.5000   45.6410 N   0  0  0  0  0  0  0  0  0  0  0  0
   45.4180   33.9800   44.6460 N   0  0  0  0  0  0  0  0  0  0  0  0
   44.8750   36.9480   43.4240 H   0  0  0  0  0  0  0  0  0  0  0  0
   43.8870   36.5010   45.8520 H   0  0  0  0  0  0  0  0  0  0  0  0
   44.4620   34.0900   46.5630 H   0  0  0  0  0  0  0  0  0  0  0  0
   44.2440   33.7340   41.4710 O   0  0  0  0  0  0  0  0  0  0  0  0
   43.1380   34.4520   41.1160 C   0  0  0  0  0  0  0  0  0  0  0  0
   42.9490   35.7140   41.2720 O   0  0  0  0  0  0  0  0  0  0  0  0
   42.4980   35.2880   38.2740 Cl  0  0  0  0  0  0  0  0  0  0  0  0
   41.5460   34.1370   39.1870 C   0  0  0  0  0  0  0  0  0  0  0  0
   41.9400   33.8380   40.4720 C   0  0  0  0  0  0  0  0  0  0  0  0
   41.1210   32.9240   41.0930 C   0  0  0  0  0  0  0  0  0  0  0  0
   41.3480   32.6230   42.1130 H   0  0  0  0  0  0  0  0  0  0  0  0
   40.0130   32.3490   40.5150 C   0  0  0  0  0  3  0  0  0  0  0  0
   39.6890   32.7020   39.2290 C   0  0  0  0  0  0  0  0  0  0  0  0
   38.2810   31.9670   38.5030 Cl  0  0  0  0  0  0  0  0  0  0  0  0
   40.4560   33.6110   38.5340 C   0  0  0  0  0  0  0  0  0  0  0  0
   40.2020   33.8890   37.5200 H   0  0  0  0  0  0  0  0  0  0  0  0
  1 17  1  0  0  0  0
  1  2  1  0  0  0  0
  2  9  1  0  0  0  0
  3  2  2  0  0  0  0
  3  7  1  0  0  0  0
  4  3  1  0  0  0  0
  5  6  1  0  0  0  0
  5  4  2  0  0  0  0
  6  1  2  0  0  0  0
  8  5  1  0  0  0  0
  9 10  1  0  0  0  0
  9 13  2  0  0  0  0
 10 11  2  0  0  0  0
 11 12  1  0  0  0  0
 11 15  1  0  0  0  0
 12 16  1  0  0  0  0
 13 12  1  0  0  0  0
 14 10  1  0  0  0  0
 18 19  2  0  0  0  0
 18 17  1  0  0  0  0
 20 21  1  0  0  0  0
 21 22  1  0  0  0  0
 22 23  2  0  0  0  0
 22 18  1  0  0  0  0
 23 24  1  0  0  0  0
 25 23  1  0  0  0  0
 26 25  2  0  0  0  0
 27 26  1  0  0  0  0
 28 21  2  0  0  0  0
 28 26  1  0  0  0  0
 29 28  1  0  0  0  0
M  END
>  <minimizedAffinity>
-5.64733744

>  <minimizedRMSD>
1.25125062

$$$$
