
 OpenBabel03252508503D

 29 31  0  0  0  0  0  0  0  0999 V2000
   45.7440   34.2440   41.0230 C   0  0  0  0  0  0  0  0  0  0  0  0
   46.3960   34.7590   42.1390 C   0  0  0  0  0  0  0  0  0  0  0  0
   47.7670   34.9590   42.0180 C   0  0  0  0  0  0  0  0  0  0  0  0
   48.3790   34.6440   40.8350 N   0  0  0  0  0  0  0  0  0  0  0  0
   47.7150   34.1530   39.7930 C   0  0  0  0  0  0  0  0  0  0  0  0
   46.3850   33.9500   39.8840 N   0  0  0  0  0  0  0  0  0  0  0  0
   48.3140   35.3590   42.8620 H   0  0  0  0  0  0  0  0  0  0  0  0
   48.1910   33.9020   38.8550 H   0  0  0  0  0  0  0  0  0  0  0  0
   45.6470   35.0530   43.3440 C   0  0  0  0  0  0  0  0  0  0  0  0
   45.1100   36.2880   43.6220 C   0  0  0  0  0  0  0  0  0  0  0  0
   44.5000   36.1070   44.8510 C   0  0  0  0  0  0  0  0  0  0  0  0
   44.6580   34.8310   45.2930 N   0  0  0  0  0  0  0  0  0  0  0  0
   45.3530   34.2260   44.3630 N   0  0  0  0  0  0  0  0  0  0  0  0
   45.1500   37.1890   43.0300 H   0  0  0  0  0  0  0  0  0  0  0  0
   43.9580   36.9010   45.3900 H   0  0  0  0  0  0  0  0  0  0  0  0
   44.2760   34.4750   46.2020 H   0  0  0  0  0  0  0  0  0  0  0  0
   44.3790   34.0280   41.1000 O   0  0  0  0  0  0  0  0  0  0  0  0
   43.3820   34.8730   40.7040 C   0  0  0  0  0  0  0  0  0  0  0  0
   43.3110   36.1390   40.9060 O   0  0  0  0  0  0  0  0  0  0  0  0
   43.4820   32.1080   39.4670 Cl  0  0  0  0  0  0  0  0  0  0  0  0
   42.1050   33.1810   39.3390 C   0  0  0  0  0  0  0  0  0  0  0  0
   42.1800   34.4150   39.9470 C   0  0  0  0  0  0  0  0  0  0  0  0
   41.0430   35.1720   39.7830 C   0  0  0  0  0  0  0  0  0  0  0  0
   41.0050   36.1640   40.2260 H   0  0  0  0  0  0  0  0  0  0  0  0
   39.9280   34.7650   39.0880 C   0  0  0  0  0  3  0  0  0  0  0  0
   39.9340   33.5190   38.5120 C   0  0  0  0  0  0  0  0  0  0  0  0
   38.5140   33.0130   37.6320 Cl  0  0  0  0  0  0  0  0  0  0  0  0
   41.0330   32.6950   38.6280 C   0  0  0  0  0  0  0  0  0  0  0  0
   41.0380   31.7150   38.1740 H   0  0  0  0  0  0  0  0  0  0  0  0
  1 17  1  0  0  0  0
  1  2  1  0  0  0  0
  2  9  1  0  0  0  0
  3  2  2  0  0  0  0
  3  7  1  0  0  0  0
  4  3  1  0  0  0  0
  5  6  1  0  0  0  0
  5  4  2  0  0  0  0
  6  1  2  0  0  0  0
  8  5  1  0  0  0  0
  9 10  1  0  0  0  0
  9 13  2  0  0  0  0
 10 11  2  0  0  0  0
 11 12  1  0  0  0  0
 11 15  1  0  0  0  0
 12 16  1  0  0  0  0
 13 12  1  0  0  0  0
 14 10  1  0  0  0  0
 18 19  2  0  0  0  0
 18 17  1  0  0  0  0
 21 20  1  0  0  0  0
 21 22  1  0  0  0  0
 22 18  1  0  0  0  0
 23 22  2  0  0  0  0
 23 24  1  0  0  0  0
 25 23  1  0  0  0  0
 26 28  1  0  0  0  0
 26 25  2  0  0  0  0
 27 26  1  0  0  0  0
 28 21  2  0  0  0  0
 29 28  1  0  0  0  0
M  END
>  <minimizedAffinity>
-5.82353687

>  <minimizedRMSD>
1.24701595

$$$$
