
 OpenBabel03252508493D

 29 31  0  0  0  0  0  0  0  0999 V2000
   45.6810   34.1420   40.8810 C   0  0  0  0  0  0  0  0  0  0  0  0
   46.3670   34.5610   42.0170 C   0  0  0  0  0  0  0  0  0  0  0  0
   47.7420   34.7250   41.8840 C   0  0  0  0  0  0  0  0  0  0  0  0
   48.3240   34.4710   40.6720 N   0  0  0  0  0  0  0  0  0  0  0  0
   47.6270   34.0720   39.6120 C   0  0  0  0  0  0  0  0  0  0  0  0
   46.2940   33.9040   39.7130 N   0  0  0  0  0  0  0  0  0  0  0  0
   48.3160   35.0510   42.7420 H   0  0  0  0  0  0  0  0  0  0  0  0
   48.0790   33.8690   38.6510 H   0  0  0  0  0  0  0  0  0  0  0  0
   45.6480   34.7980   43.2520 C   0  0  0  0  0  0  0  0  0  0  0  0
   45.1830   36.0340   43.6350 C   0  0  0  0  0  0  0  0  0  0  0  0
   44.5760   35.7880   44.8550 C   0  0  0  0  0  0  0  0  0  0  0  0
   44.6680   34.4740   45.1910 N   0  0  0  0  0  0  0  0  0  0  0  0
   45.3180   33.9080   44.2060 N   0  0  0  0  0  0  0  0  0  0  0  0
   45.2670   36.9750   43.1160 H   0  0  0  0  0  0  0  0  0  0  0  0
   44.0850   36.5650   45.4630 H   0  0  0  0  0  0  0  0  0  0  0  0
   44.2750   34.0680   46.0740 H   0  0  0  0  0  0  0  0  0  0  0  0
   44.3110   33.9650   40.9690 O   0  0  0  0  0  0  0  0  0  0  0  0
   43.3360   34.8800   40.6920 C   0  0  0  0  0  0  0  0  0  0  0  0
   43.2910   36.1060   41.0740 O   0  0  0  0  0  0  0  0  0  0  0  0
   41.6400   32.5210   41.5550 Cl  0  0  0  0  0  0  0  0  0  0  0  0
   41.2830   33.5170   40.1600 C   0  0  0  0  0  0  0  0  0  0  0  0
   42.1310   34.5630   39.8700 C   0  0  0  0  0  0  0  0  0  0  0  0
   41.7550   35.2760   38.7560 C   0  0  0  0  0  0  0  0  0  0  0  0
   42.3610   36.1230   38.4450 H   0  0  0  0  0  0  0  0  0  0  0  0
   40.6490   34.9960   37.9880 C   0  0  0  0  0  3  0  0  0  0  0  0
   39.8550   33.9350   38.3440 C   0  0  0  0  0  0  0  0  0  0  0  0
   38.4540   33.5880   37.3630 Cl  0  0  0  0  0  0  0  0  0  0  0  0
   40.1600   33.1680   39.4480 C   0  0  0  0  0  0  0  0  0  0  0  0
   39.5350   32.3320   39.7300 H   0  0  0  0  0  0  0  0  0  0  0  0
  1 17  1  0  0  0  0
  1  2  1  0  0  0  0
  2  9  1  0  0  0  0
  3  2  2  0  0  0  0
  3  7  1  0  0  0  0
  4  3  1  0  0  0  0
  5  6  1  0  0  0  0
  5  4  2  0  0  0  0
  6  1  2  0  0  0  0
  8  5  1  0  0  0  0
  9 10  1  0  0  0  0
  9 13  2  0  0  0  0
 10 11  2  0  0  0  0
 11 12  1  0  0  0  0
 11 15  1  0  0  0  0
 12 16  1  0  0  0  0
 13 12  1  0  0  0  0
 14 10  1  0  0  0  0
 18 17  1  0  0  0  0
 18 19  2  0  0  0  0
 21 20  1  0  0  0  0
 22 21  1  0  0  0  0
 22 18  1  0  0  0  0
 23 22  2  0  0  0  0
 24 23  1  0  0  0  0
 25 26  2  0  0  0  0
 25 23  1  0  0  0  0
 26 28  1  0  0  0  0
 27 26  1  0  0  0  0
 28 29  1  0  0  0  0
 28 21  2  0  0  0  0
M  END
>  <minimizedAffinity>
-5.94344664

>  <minimizedRMSD>
1.52737761

$$$$
