
 OpenBabel03252508503D

 29 31  0  0  0  0  0  0  0  0999 V2000
   45.7250   34.1570   41.0820 C   0  0  0  0  0  0  0  0  0  0  0  0
   46.3680   34.7800   42.1470 C   0  0  0  0  0  0  0  0  0  0  0  0
   47.7080   35.1020   41.9590 C   0  0  0  0  0  0  0  0  0  0  0  0
   48.3010   34.7930   40.7650 N   0  0  0  0  0  0  0  0  0  0  0  0
   47.6470   34.1950   39.7740 C   0  0  0  0  0  0  0  0  0  0  0  0
   46.3480   33.8720   39.9300 N   0  0  0  0  0  0  0  0  0  0  0  0
   48.2470   35.5900   42.7610 H   0  0  0  0  0  0  0  0  0  0  0  0
   48.1080   33.9480   38.8280 H   0  0  0  0  0  0  0  0  0  0  0  0
   45.6420   35.0580   43.3700 C   0  0  0  0  0  0  0  0  0  0  0  0
   45.0480   36.2680   43.6430 C   0  0  0  0  0  0  0  0  0  0  0  0
   44.4860   36.0780   44.8930 C   0  0  0  0  0  0  0  0  0  0  0  0
   44.7260   34.8210   45.3520 N   0  0  0  0  0  0  0  0  0  0  0  0
   45.4230   34.2350   44.4120 N   0  0  0  0  0  0  0  0  0  0  0  0
   45.0220   37.1570   43.0340 H   0  0  0  0  0  0  0  0  0  0  0  0
   43.9200   36.8530   45.4350 H   0  0  0  0  0  0  0  0  0  0  0  0
   44.3910   34.4630   46.2790 H   0  0  0  0  0  0  0  0  0  0  0  0
   44.3910   33.8180   41.2270 O   0  0  0  0  0  0  0  0  0  0  0  0
   43.3040   34.5320   40.8120 C   0  0  0  0  0  0  0  0  0  0  0  0
   43.1330   35.8030   40.8950 O   0  0  0  0  0  0  0  0  0  0  0  0
   42.4610   35.5600   38.0890 Cl  0  0  0  0  0  0  0  0  0  0  0  0
   41.6280   34.2830   38.9450 C   0  0  0  0  0  0  0  0  0  0  0  0
   42.1090   33.9020   40.1780 C   0  0  0  0  0  0  0  0  0  0  0  0
   41.3780   32.8910   40.7590 C   0  0  0  0  0  0  0  0  0  0  0  0
   41.6780   32.5210   41.7360 H   0  0  0  0  0  0  0  0  0  0  0  0
   40.2740   32.3020   40.1910 C   0  0  0  0  0  3  0  0  0  0  0  0
   39.8590   32.7390   38.9580 C   0  0  0  0  0  0  0  0  0  0  0  0
   38.4560   31.9840   38.2450 Cl  0  0  0  0  0  0  0  0  0  0  0  0
   40.5350   33.7480   38.3060 C   0  0  0  0  0  0  0  0  0  0  0  0
   40.2080   34.0930   37.3350 H   0  0  0  0  0  0  0  0  0  0  0  0
  1 17  1  0  0  0  0
  1  2  1  0  0  0  0
  2  9  1  0  0  0  0
  3  2  2  0  0  0  0
  3  7  1  0  0  0  0
  4  3  1  0  0  0  0
  5  6  1  0  0  0  0
  5  4  2  0  0  0  0
  6  1  2  0  0  0  0
  8  5  1  0  0  0  0
  9 10  1  0  0  0  0
  9 13  2  0  0  0  0
 10 11  2  0  0  0  0
 11 12  1  0  0  0  0
 11 15  1  0  0  0  0
 12 16  1  0  0  0  0
 13 12  1  0  0  0  0
 14 10  1  0  0  0  0
 18 19  2  0  0  0  0
 18 17  1  0  0  0  0
 20 21  1  0  0  0  0
 21 22  1  0  0  0  0
 22 23  2  0  0  0  0
 22 18  1  0  0  0  0
 23 24  1  0  0  0  0
 25 23  1  0  0  0  0
 26 25  2  0  0  0  0
 27 26  1  0  0  0  0
 28 21  2  0  0  0  0
 28 26  1  0  0  0  0
 29 28  1  0  0  0  0
M  END
>  <minimizedAffinity>
-5.76424503

>  <minimizedRMSD>
1.07164645

$$$$
