
 OpenBabel03252508503D

 29 31  0  0  0  0  0  0  0  0999 V2000
   45.8560   34.1990   41.0670 C   0  0  0  0  0  0  0  0  0  0  0  0
   46.4720   34.7930   42.1640 C   0  0  0  0  0  0  0  0  0  0  0  0
   47.8230   35.0920   42.0280 C   0  0  0  0  0  0  0  0  0  0  0  0
   48.4520   34.7920   40.8500 N   0  0  0  0  0  0  0  0  0  0  0  0
   47.8220   34.2240   39.8260 C   0  0  0  0  0  0  0  0  0  0  0  0
   46.5130   33.9220   39.9320 N   0  0  0  0  0  0  0  0  0  0  0  0
   48.3430   35.5560   42.8570 H   0  0  0  0  0  0  0  0  0  0  0  0
   48.3110   33.9830   38.8930 H   0  0  0  0  0  0  0  0  0  0  0  0
   45.7090   35.0640   43.3660 C   0  0  0  0  0  0  0  0  0  0  0  0
   45.0790   36.2600   43.6120 C   0  0  0  0  0  0  0  0  0  0  0  0
   44.4900   36.0680   44.8500 C   0  0  0  0  0  0  0  0  0  0  0  0
   44.7500   34.8220   45.3270 N   0  0  0  0  0  0  0  0  0  0  0  0
   45.4850   34.2460   44.4100 N   0  0  0  0  0  0  0  0  0  0  0  0
   45.0450   37.1430   42.9940 H   0  0  0  0  0  0  0  0  0  0  0  0
   43.8910   36.8340   45.3690 H   0  0  0  0  0  0  0  0  0  0  0  0
   44.4010   34.4650   46.2490 H   0  0  0  0  0  0  0  0  0  0  0  0
   44.5110   33.8830   41.1590 O   0  0  0  0  0  0  0  0  0  0  0  0
   43.4540   34.6140   40.7000 C   0  0  0  0  0  0  0  0  0  0  0  0
   43.3440   35.8940   40.6840 O   0  0  0  0  0  0  0  0  0  0  0  0
   43.7100   33.1990   38.0310 Cl  0  0  0  0  0  0  0  0  0  0  0  0
   42.2090   33.3260   38.9250 C   0  0  0  0  0  0  0  0  0  0  0  0
   42.2220   33.9950   40.1290 C   0  0  0  0  0  0  0  0  0  0  0  0
   40.9910   34.0320   40.7430 C   0  0  0  0  0  0  0  0  0  0  0  0
   40.8980   34.5390   41.7000 H   0  0  0  0  0  0  0  0  0  0  0  0
   39.8460   33.4680   40.2310 C   0  0  0  0  0  3  0  0  0  0  0  0
   39.9190   32.8180   39.0240 C   0  0  0  0  0  0  0  0  0  0  0  0
   38.4610   32.1050   38.3830 Cl  0  0  0  0  0  0  0  0  0  0  0  0
   41.1150   32.7340   38.3420 C   0  0  0  0  0  0  0  0  0  0  0  0
   41.1740   32.2230   37.3910 H   0  0  0  0  0  0  0  0  0  0  0  0
  1 17  1  0  0  0  0
  1  2  1  0  0  0  0
  2  9  1  0  0  0  0
  3  2  2  0  0  0  0
  3  7  1  0  0  0  0
  4  3  1  0  0  0  0
  5  6  1  0  0  0  0
  5  4  2  0  0  0  0
  6  1  2  0  0  0  0
  8  5  1  0  0  0  0
  9 10  1  0  0  0  0
  9 13  2  0  0  0  0
 10 11  2  0  0  0  0
 11 12  1  0  0  0  0
 11 15  1  0  0  0  0
 12 16  1  0  0  0  0
 13 12  1  0  0  0  0
 14 10  1  0  0  0  0
 18 17  1  0  0  0  0
 19 18  2  0  0  0  0
 20 21  1  0  0  0  0
 21 22  1  0  0  0  0
 22 18  1  0  0  0  0
 22 23  2  0  0  0  0
 23 24  1  0  0  0  0
 25 23  1  0  0  0  0
 26 25  2  0  0  0  0
 27 26  1  0  0  0  0
 28 21  2  0  0  0  0
 28 26  1  0  0  0  0
 29 28  1  0  0  0  0
M  END
>  <minimizedAffinity>
-5.66263056

>  <minimizedRMSD>
1.11775196

$$$$
