
 OpenBabel03252503313D

 42 44  0  0  1  0  0  0  0  0999 V2000
   45.2860   33.7720   41.8260 C   0  0  0  0  0  0  0  0  0  0  0  0
   46.3080   34.6980   41.4720 C   0  0  0  0  0  0  0  0  0  0  0  0
   47.6300   34.2930   41.7230 C   0  0  0  0  0  0  0  0  0  0  0  0
   47.8240   33.0730   42.2730 N   0  0  0  0  0  0  0  0  0  0  0  0
   46.8180   32.2330   42.5900 C   0  0  0  0  0  0  0  0  0  0  0  0
   45.5390   32.5920   42.3620 N   0  0  0  0  0  0  0  0  0  0  0  0
   43.5750   34.0190   40.2360 C   0  0  0  0  0  0  0  0  0  0  0  0
   44.4860   33.7000   39.3980 O   0  0  0  0  0  0  0  0  0  0  0  0
   43.9110   34.1150   41.6010 N   0  0  0  0  0  0  0  0  0  0  0  0
   42.2770   34.2530   39.7240 N   0  0  0  0  0  0  0  0  0  0  0  0
   42.0920   34.4660   38.2750 C   0  0  0  0  0  0  0  0  0  0  0  0
   40.9140   35.3880   38.2390 C   0  0  0  0  0  0  0  0  0  0  0  0
   40.4520   35.5370   39.6610 C   0  0  0  0  0  0  0  0  0  0  0  0
   40.9910   34.3090   40.3520 C   0  0  1  0  0  0  0  0  0  0  0  0
   45.9690   35.6290   41.0430 H   0  0  0  0  0  0  0  0  0  0  0  0
   47.0580   31.2600   43.0340 H   0  0  0  0  0  0  0  0  0  0  0  0
   43.1770   34.4070   42.2730 H   0  0  0  0  0  0  0  0  0  0  0  0
   42.9830   34.8480   37.7820 H   0  0  0  0  0  0  0  0  0  0  0  0
   41.7480   33.4760   37.8900 H   0  0  0  0  0  0  0  0  0  0  0  0
   41.2810   36.3500   37.7980 H   0  0  0  0  0  0  0  0  0  0  0  0
   40.1070   35.0580   37.5530 H   0  0  0  0  0  0  0  0  0  0  0  0
   41.1930   36.3210   40.0540 H   0  0  0  0  0  0  0  0  0  0  0  0
   39.5320   35.9690   39.8770 H   0  0  0  0  0  0  0  0  0  0  0  0
   41.0120   34.5550   41.4080 H   0  0  0  0  0  0  0  0  0  0  0  0
   38.8190   32.9410   40.1360 C   0  0  0  0  0  0  0  0  0  0  0  0
   38.2900   34.0760   40.1760 O   0  0  0  0  0  0  0  0  0  0  0  0
   40.2620   33.0810   40.0700 N   0  0  0  0  0  0  0  0  0  0  0  0
   40.8400   32.2260   39.7960 H   0  0  0  0  0  0  0  0  0  0  0  0
   38.7240   31.4390   37.4820 Cl  0  0  0  0  0  0  0  0  0  0  0  0
   38.1990   30.7710   39.0170 C   0  0  0  0  0  0  0  0  0  0  0  0
   38.2980   31.5650   40.1400 C   0  0  0  0  0  0  0  0  0  0  0  0
   37.8890   31.0630   41.3670 C   0  0  0  0  0  0  0  0  0  0  0  0
   37.9550   31.6590   42.2600 H   0  0  0  0  0  0  0  0  0  0  0  0
   37.3840   29.7960   41.5160 C   0  0  0  0  0  3  0  0  0  0  0  0
   37.2860   29.0080   40.3910 C   0  0  0  0  0  0  0  0  0  0  0  0
   36.6590   27.3830   40.4630 Cl  0  0  0  0  0  0  0  0  0  0  0  0
   37.6850   29.4740   39.1440 C   0  0  0  0  0  0  0  0  0  0  0  0
   37.6420   28.9200   38.2140 H   0  0  0  0  0  0  0  0  0  0  0  0
   48.6540   35.2680   41.3480 C   0  0  0  0  0  0  0  0  0  0  0  0
   49.8980   34.7830   41.7680 F   0  0  0  0  0  0  0  0  0  0  0  0
   48.4300   36.4100   42.1170 F   0  0  0  0  0  0  0  0  0  0  0  0
   48.7180   35.5100   40.0160 F   0  0  0  0  0  0  0  0  0  0  0  0
  1  6  1  0  0  0  0
  2  3  1  0  0  0  0
  2  1  2  0  0  0  0
  3  4  2  0  0  0  0
  4  5  1  0  0  0  0
  5 16  1  0  0  0  0
  6  5  2  0  0  0  0
  7  9  1  0  0  0  0
  8  7  2  0  0  0  0
  9  1  1  0  0  0  0
  9 17  1  0  0  0  0
 10  7  1  0  0  0  0
 10 14  1  0  0  0  0
 11 10  1  0  0  0  0
 12 11  1  0  0  0  0
 12 13  1  0  0  0  0
 13 23  1  0  0  0  0
 13 22  1  0  0  0  0
 13 14  1  0  0  0  0
 14 24  1  1  0  0  0
 15  2  1  0  0  0  0
 18 11  1  0  0  0  0
 19 11  1  0  0  0  0
 20 12  1  0  0  0  0
 21 12  1  0  0  0  0
 25 31  1  0  0  0  0
 25 26  2  0  0  0  0
 27 25  1  0  0  0  0
 27 14  1  0  0  0  0
 28 27  1  0  0  0  0
 29 30  1  0  0  0  0
 30 37  2  0  0  0  0
 30 31  1  0  0  0  0
 31 32  2  0  0  0  0
 32 34  1  0  0  0  0
 32 33  1  0  0  0  0
 35 36  1  0  0  0  0
 35 34  2  0  0  0  0
 37 35  1  0  0  0  0
 38 37  1  0  0  0  0
 39  3  1  0  0  0  0
 39 40  1  0  0  0  0
 39 41  1  0  0  0  0
 42 39  1  0  0  0  0
M  END
>  <minimizedAffinity>
-7.30693197

>  <minimizedRMSD>
1.76780784

$$$$
