
 OpenBabel03252502273D

 36 38  0  0  0  0  0  0  0  0999 V2000
   44.6160   34.4370   41.0450 C   0  0  0  0  0  0  0  0  0  0  0  0
   44.2030   35.0350   42.2250 C   0  0  0  0  0  0  0  0  0  0  0  0
   45.1680   35.4770   43.1250 C   0  0  0  0  0  0  0  0  0  0  0  0
   46.4920   35.3180   42.8350 C   0  0  0  0  0  0  0  0  0  0  0  0
   46.9320   34.7280   41.6670 C   0  0  0  0  0  0  0  0  0  0  0  0
   45.9410   34.2940   40.7840 C   0  0  0  0  0  0  0  0  0  0  0  0
   43.1570   35.1670   42.4680 H   0  0  0  0  0  0  0  0  0  0  0  0
   44.8610   35.9410   44.0430 H   0  0  0  0  0  0  0  0  0  0  0  0
   47.2230   35.6740   43.5580 H   0  0  0  0  0  0  0  0  0  0  0  0
   47.9800   34.5890   41.4130 H   0  0  0  0  0  0  0  0  0  0  0  0
   41.5710   34.2760   38.8200 C   0  0  0  0  0  0  0  0  0  0  0  0
   42.5490   34.8090   39.6900 C   0  0  0  0  0  0  0  0  0  0  0  0
   43.5560   34.0010   40.1490 C   0  0  0  0  0  0  0  0  0  0  0  0
   43.5570   32.7100   39.7320 N   0  0  0  0  0  0  0  0  0  0  0  0
   42.6210   32.2020   38.8990 C   0  0  0  0  0  0  0  0  0  0  0  0
   41.6270   32.9820   38.4410 N   0  0  0  0  0  0  0  0  0  0  0  0
   42.5230   35.8350   40.0030 H   0  0  0  0  0  0  0  0  0  0  0  0
   42.6580   31.1590   38.5890 H   0  0  0  0  0  0  0  0  0  0  0  0
   40.4830   35.1350   38.3180 C   0  0  0  0  0  0  0  0  0  0  0  0
   39.8750   34.4620   37.2600 F   0  0  0  0  0  0  0  0  0  0  0  0
   41.0750   36.2580   37.7570 F   0  0  0  0  0  0  0  0  0  0  0  0
   39.5500   35.4460   39.2760 F   0  0  0  0  0  0  0  0  0  0  0  0
   47.1970   32.7380   39.1030 C   0  0  0  0  0  0  0  0  0  0  0  0
   48.0460   32.1840   39.7880 O   0  0  0  0  0  0  0  0  0  0  0  0
   46.2430   33.6780   39.5510 N   0  0  0  0  0  0  0  0  0  0  0  0
   45.5470   34.0610   38.8400 H   0  0  0  0  0  0  0  0  0  0  0  0
   48.7490   34.6520   37.5070 Cl  0  0  0  0  0  0  0  0  0  0  0  0
   47.9260   33.2200   36.9040 C   0  0  0  0  0  0  0  0  0  0  0  0
   47.2110   32.3550   37.6930 C   0  0  0  0  0  0  0  0  0  0  0  0
   46.5790   31.2330   37.1510 C   0  0  0  0  0  0  0  0  0  0  0  0
   46.0410   30.6100   37.8440 H   0  0  0  0  0  0  0  0  0  0  0  0
   46.6760   30.9890   35.7970 C   0  0  0  0  0  3  0  0  0  0  0  0
   47.3950   31.8680   35.0300 C   0  0  0  0  0  0  0  0  0  0  0  0
   47.5010   31.5360   33.3200 Cl  0  0  0  0  0  0  0  0  0  0  0  0
   48.0300   32.9860   35.5480 C   0  0  0  0  0  0  0  0  0  0  0  0
   48.5870   33.6530   34.9050 H   0  0  0  0  0  0  0  0  0  0  0  0
  1  2  1  0  0  0  0
  2  7  1  0  0  0  0
  2  3  2  0  0  0  0
  3  8  1  0  0  0  0
  4  3  1  0  0  0  0
  4  9  1  0  0  0  0
  5  4  2  0  0  0  0
  6  1  2  0  0  0  0
  6  5  1  0  0  0  0
 10  5  1  0  0  0  0
 11 12  1  0  0  0  0
 12 17  1  0  0  0  0
 12 13  2  0  0  0  0
 13  1  1  0  0  0  0
 14 13  1  0  0  0  0
 15 14  2  0  0  0  0
 16 11  2  0  0  0  0
 16 15  1  0  0  0  0
 18 15  1  0  0  0  0
 19 11  1  0  0  0  0
 19 22  1  0  0  0  0
 20 19  1  0  0  0  0
 21 19  1  0  0  0  0
 23 25  1  0  0  0  0
 23 24  2  0  0  0  0
 25  6  1  0  0  0  0
 26 25  1  0  0  0  0
 28 27  1  0  0  0  0
 28 29  1  0  0  0  0
 29 23  1  0  0  0  0
 30 29  2  0  0  0  0
 30 31  1  0  0  0  0
 32 30  1  0  0  0  0
 33 35  1  0  0  0  0
 33 32  2  0  0  0  0
 34 33  1  0  0  0  0
 35 28  2  0  0  0  0
 36 35  1  0  0  0  0
M  END
>  <minimizedAffinity>
-6.2942071

>  <minimizedRMSD>
2.67266011

$$$$
