
 OpenBabel03252502273D

 36 38  0  0  0  0  0  0  0  0999 V2000
   44.8850   34.5470   41.3900 C   0  0  0  0  0  0  0  0  0  0  0  0
   45.2210   35.3240   42.4870 C   0  0  0  0  0  0  0  0  0  0  0  0
   46.5640   35.6100   42.7200 C   0  0  0  0  0  0  0  0  0  0  0  0
   47.5170   35.1260   41.8720 C   0  0  0  0  0  0  0  0  0  0  0  0
   47.2110   34.3510   40.7720 C   0  0  0  0  0  0  0  0  0  0  0  0
   45.8570   34.0810   40.5650 C   0  0  0  0  0  0  0  0  0  0  0  0
   44.4750   35.7140   43.1680 H   0  0  0  0  0  0  0  0  0  0  0  0
   46.8370   36.2100   43.5670 H   0  0  0  0  0  0  0  0  0  0  0  0
   48.5590   35.3660   42.0790 H   0  0  0  0  0  0  0  0  0  0  0  0
   47.9530   33.9540   40.0820 H   0  0  0  0  0  0  0  0  0  0  0  0
   41.2120   34.8400   40.5710 C   0  0  0  0  0  0  0  0  0  0  0  0
   42.5710   35.2020   40.7090 C   0  0  0  0  0  0  0  0  0  0  0  0
   43.4650   34.2900   41.2060 C   0  0  0  0  0  0  0  0  0  0  0  0
   42.9830   33.0680   41.5430 N   0  0  0  0  0  0  0  0  0  0  0  0
   41.6830   32.7230   41.4110 C   0  0  0  0  0  0  0  0  0  0  0  0
   40.7940   33.6070   40.9250 N   0  0  0  0  0  0  0  0  0  0  0  0
   42.9230   36.1770   40.4340 H   0  0  0  0  0  0  0  0  0  0  0  0
   41.3370   31.7300   41.6940 H   0  0  0  0  0  0  0  0  0  0  0  0
   40.2400   35.8120   40.0370 C   0  0  0  0  0  0  0  0  0  0  0  0
   39.0790   35.1100   39.7190 F   0  0  0  0  0  0  0  0  0  0  0  0
   40.7440   36.2700   38.8280 F   0  0  0  0  0  0  0  0  0  0  0  0
   39.9500   36.8290   40.9140 F   0  0  0  0  0  0  0  0  0  0  0  0
   45.7110   32.0400   38.9420 C   0  0  0  0  0  0  0  0  0  0  0  0
   46.5370   31.2510   39.3810 O   0  0  0  0  0  0  0  0  0  0  0  0
   45.3960   33.3070   39.4780 N   0  0  0  0  0  0  0  0  0  0  0  0
   44.6340   33.8780   38.9990 H   0  0  0  0  0  0  0  0  0  0  0  0
   47.1420   32.8400   36.5070 Cl  0  0  0  0  0  0  0  0  0  0  0  0
   45.6400   31.9280   36.5800 C   0  0  0  0  0  0  0  0  0  0  0  0
   45.0090   31.5780   37.7460 C   0  0  0  0  0  0  0  0  0  0  0  0
   43.8150   30.8520   37.7360 C   0  0  0  0  0  0  0  0  0  0  0  0
   43.3920   30.6230   38.6980 H   0  0  0  0  0  0  0  0  0  0  0  0
   43.2600   30.4800   36.5290 C   0  0  0  0  0  3  0  0  0  0  0  0
   43.9090   30.8400   35.3790 C   0  0  0  0  0  0  0  0  0  0  0  0
   43.1850   30.3560   33.8660 Cl  0  0  0  0  0  0  0  0  0  0  0  0
   45.0930   31.5590   35.3670 C   0  0  0  0  0  0  0  0  0  0  0  0
   45.5710   31.8230   34.4340 H   0  0  0  0  0  0  0  0  0  0  0  0
  1  2  1  0  0  0  0
  2  3  2  0  0  0  0
  2  7  1  0  0  0  0
  3  8  1  0  0  0  0
  4  9  1  0  0  0  0
  4  3  1  0  0  0  0
  5  4  2  0  0  0  0
  6  5  1  0  0  0  0
  6  1  2  0  0  0  0
 10  5  1  0  0  0  0
 11 12  2  0  0  0  0
 11 16  1  0  0  0  0
 12 13  1  0  0  0  0
 13  1  1  0  0  0  0
 13 14  2  0  0  0  0
 15 14  1  0  0  0  0
 15 18  1  0  0  0  0
 16 15  2  0  0  0  0
 17 12  1  0  0  0  0
 19 11  1  0  0  0  0
 19 22  1  0  0  0  0
 20 19  1  0  0  0  0
 21 19  1  0  0  0  0
 23 24  2  0  0  0  0
 23 25  1  0  0  0  0
 25  6  1  0  0  0  0
 26 25  1  0  0  0  0
 27 28  1  0  0  0  0
 28 29  1  0  0  0  0
 29 23  1  0  0  0  0
 30 29  2  0  0  0  0
 30 31  1  0  0  0  0
 32 30  1  0  0  0  0
 33 32  2  0  0  0  0
 34 33  1  0  0  0  0
 35 33  1  0  0  0  0
 35 28  2  0  0  0  0
 36 35  1  0  0  0  0
M  END
>  <minimizedAffinity>
-6.1131978

>  <minimizedRMSD>
0.61406368

$$$$
