
 OpenBabel03252502273D

 36 38  0  0  0  0  0  0  0  0999 V2000
   44.9530   34.5140   41.3420 C   0  0  0  0  0  0  0  0  0  0  0  0
   45.2470   35.2370   42.4870 C   0  0  0  0  0  0  0  0  0  0  0  0
   46.5780   35.5320   42.7700 C   0  0  0  0  0  0  0  0  0  0  0  0
   47.5610   35.1100   41.9230 C   0  0  0  0  0  0  0  0  0  0  0  0
   47.2970   34.3910   40.7750 C   0  0  0  0  0  0  0  0  0  0  0  0
   45.9540   34.1090   40.5190 C   0  0  0  0  0  0  0  0  0  0  0  0
   44.4770   35.5770   43.1680 H   0  0  0  0  0  0  0  0  0  0  0  0
   46.8190   36.0910   43.6540 H   0  0  0  0  0  0  0  0  0  0  0  0
   48.5920   35.3570   42.1700 H   0  0  0  0  0  0  0  0  0  0  0  0
   48.0630   34.0430   40.0850 H   0  0  0  0  0  0  0  0  0  0  0  0
   41.3010   34.7820   40.4230 C   0  0  0  0  0  0  0  0  0  0  0  0
   42.6510   35.1580   40.6130 C   0  0  0  0  0  0  0  0  0  0  0  0
   43.5430   34.2430   41.1070 C   0  0  0  0  0  0  0  0  0  0  0  0
   43.0700   33.0040   41.3900 N   0  0  0  0  0  0  0  0  0  0  0  0
   41.7800   32.6450   41.2080 C   0  0  0  0  0  0  0  0  0  0  0  0
   40.8920   33.5320   40.7240 N   0  0  0  0  0  0  0  0  0  0  0  0
   42.9960   36.1470   40.3800 H   0  0  0  0  0  0  0  0  0  0  0  0
   41.4400   31.6390   41.4490 H   0  0  0  0  0  0  0  0  0  0  0  0
   40.3320   35.7570   39.8920 C   0  0  0  0  0  0  0  0  0  0  0  0
   39.1930   35.0480   39.5120 F   0  0  0  0  0  0  0  0  0  0  0  0
   40.8660   36.2650   38.7160 F   0  0  0  0  0  0  0  0  0  0  0  0
   39.9960   36.7370   40.7930 F   0  0  0  0  0  0  0  0  0  0  0  0
   45.9860   32.2360   38.6990 C   0  0  0  0  0  0  0  0  0  0  0  0
   46.9400   31.5360   39.0100 O   0  0  0  0  0  0  0  0  0  0  0  0
   45.5350   33.3870   39.3810 N   0  0  0  0  0  0  0  0  0  0  0  0
   44.6720   33.8860   39.0040 H   0  0  0  0  0  0  0  0  0  0  0  0
   43.8750   30.3070   39.3640 Cl  0  0  0  0  0  0  0  0  0  0  0  0
   44.2800   30.8940   37.7580 C   0  0  0  0  0  0  0  0  0  0  0  0
   45.2790   31.7980   37.4980 C   0  0  0  0  0  0  0  0  0  0  0  0
   45.5510   32.2250   36.1950 C   0  0  0  0  0  0  0  0  0  0  0  0
   46.3520   32.9340   36.0860 H   0  0  0  0  0  0  0  0  0  0  0  0
   44.8010   31.7270   35.1500 C   0  0  0  0  0  3  0  0  0  0  0  0
   43.8090   30.8260   35.4350 C   0  0  0  0  0  0  0  0  0  0  0  0
   42.8760   30.2130   34.0930 Cl  0  0  0  0  0  0  0  0  0  0  0  0
   43.5230   30.3900   36.7180 C   0  0  0  0  0  0  0  0  0  0  0  0
   42.7310   29.6770   36.8970 H   0  0  0  0  0  0  0  0  0  0  0  0
  1  2  1  0  0  0  0
  2  3  2  0  0  0  0
  2  7  1  0  0  0  0
  3  8  1  0  0  0  0
  4  9  1  0  0  0  0
  4  3  1  0  0  0  0
  5  4  2  0  0  0  0
  6  5  1  0  0  0  0
  6  1  2  0  0  0  0
 10  5  1  0  0  0  0
 11 12  2  0  0  0  0
 11 16  1  0  0  0  0
 12 13  1  0  0  0  0
 13  1  1  0  0  0  0
 13 14  2  0  0  0  0
 15 14  1  0  0  0  0
 15 18  1  0  0  0  0
 16 15  2  0  0  0  0
 17 12  1  0  0  0  0
 19 11  1  0  0  0  0
 19 22  1  0  0  0  0
 20 19  1  0  0  0  0
 21 19  1  0  0  0  0
 23 24  2  0  0  0  0
 23 25  1  0  0  0  0
 25  6  1  0  0  0  0
 26 25  1  0  0  0  0
 28 27  1  0  0  0  0
 29 28  1  0  0  0  0
 29 23  1  0  0  0  0
 30 29  2  0  0  0  0
 31 30  1  0  0  0  0
 32 33  2  0  0  0  0
 32 30  1  0  0  0  0
 33 35  1  0  0  0  0
 34 33  1  0  0  0  0
 35 36  1  0  0  0  0
 35 28  2  0  0  0  0
M  END
>  <minimizedAffinity>
-6.1331439

>  <minimizedRMSD>
0.558360636

$$$$
