
 OpenBabel03252502273D

 36 38  0  0  0  0  0  0  0  0999 V2000
   45.0130   34.5410   41.3410 C   0  0  0  0  0  0  0  0  0  0  0  0
   45.3740   35.3100   42.4350 C   0  0  0  0  0  0  0  0  0  0  0  0
   46.7220   35.5810   42.6490 C   0  0  0  0  0  0  0  0  0  0  0  0
   47.6580   35.0910   41.7860 C   0  0  0  0  0  0  0  0  0  0  0  0
   47.3280   34.3230   40.6880 C   0  0  0  0  0  0  0  0  0  0  0  0
   45.9680   34.0670   40.4990 C   0  0  0  0  0  0  0  0  0  0  0  0
   44.6420   35.7050   43.1270 H   0  0  0  0  0  0  0  0  0  0  0  0
   47.0140   36.1760   43.4940 H   0  0  0  0  0  0  0  0  0  0  0  0
   48.7050   35.3190   41.9790 H   0  0  0  0  0  0  0  0  0  0  0  0
   48.0560   33.9200   39.9860 H   0  0  0  0  0  0  0  0  0  0  0  0
   41.3310   34.8750   40.5800 C   0  0  0  0  0  0  0  0  0  0  0  0
   42.6960   35.2220   40.6990 C   0  0  0  0  0  0  0  0  0  0  0  0
   43.5880   34.2980   41.1760 C   0  0  0  0  0  0  0  0  0  0  0  0
   43.1000   33.0780   41.5110 N   0  0  0  0  0  0  0  0  0  0  0  0
   41.7950   32.7470   41.3960 C   0  0  0  0  0  0  0  0  0  0  0  0
   40.9070   33.6430   40.9300 N   0  0  0  0  0  0  0  0  0  0  0  0
   43.0530   36.1960   40.4260 H   0  0  0  0  0  0  0  0  0  0  0  0
   41.4440   31.7550   41.6780 H   0  0  0  0  0  0  0  0  0  0  0  0
   40.3620   35.8600   40.0670 C   0  0  0  0  0  0  0  0  0  0  0  0
   39.1820   35.1740   39.7810 F   0  0  0  0  0  0  0  0  0  0  0  0
   40.8410   36.3070   38.8440 F   0  0  0  0  0  0  0  0  0  0  0  0
   40.1090   36.8830   40.9480 F   0  0  0  0  0  0  0  0  0  0  0  0
   45.5430   31.9420   39.0420 C   0  0  0  0  0  0  0  0  0  0  0  0
   46.0750   31.0380   39.6720 O   0  0  0  0  0  0  0  0  0  0  0  0
   45.4840   33.3020   39.4170 N   0  0  0  0  0  0  0  0  0  0  0  0
   44.9650   33.9750   38.7760 H   0  0  0  0  0  0  0  0  0  0  0  0
   47.4660   32.0450   36.8270 Cl  0  0  0  0  0  0  0  0  0  0  0  0
   45.7820   31.5530   36.7210 C   0  0  0  0  0  0  0  0  0  0  0  0
   44.9210   31.5220   37.7880 C   0  0  0  0  0  0  0  0  0  0  0  0
   43.5910   31.1200   37.6370 C   0  0  0  0  0  0  0  0  0  0  0  0
   42.9890   31.1270   38.5280 H   0  0  0  0  0  0  0  0  0  0  0  0
   43.1350   30.7480   36.3900 C   0  0  0  0  0  3  0  0  0  0  0  0
   44.0140   30.7870   35.3400 C   0  0  0  0  0  0  0  0  0  0  0  0
   43.4090   30.3110   33.7730 Cl  0  0  0  0  0  0  0  0  0  0  0  0
   45.3350   31.1820   35.4680 C   0  0  0  0  0  0  0  0  0  0  0  0
   45.9940   31.1980   34.6110 H   0  0  0  0  0  0  0  0  0  0  0  0
  1  2  1  0  0  0  0
  2  3  2  0  0  0  0
  2  7  1  0  0  0  0
  3  8  1  0  0  0  0
  4  9  1  0  0  0  0
  4  3  1  0  0  0  0
  5  4  2  0  0  0  0
  6  5  1  0  0  0  0
  6  1  2  0  0  0  0
 10  5  1  0  0  0  0
 11 12  2  0  0  0  0
 11 16  1  0  0  0  0
 12 13  1  0  0  0  0
 13  1  1  0  0  0  0
 13 14  2  0  0  0  0
 15 14  1  0  0  0  0
 15 18  1  0  0  0  0
 16 15  2  0  0  0  0
 17 12  1  0  0  0  0
 19 11  1  0  0  0  0
 19 22  1  0  0  0  0
 20 19  1  0  0  0  0
 21 19  1  0  0  0  0
 23 25  1  0  0  0  0
 23 24  2  0  0  0  0
 25  6  1  0  0  0  0
 26 25  1  0  0  0  0
 28 27  1  0  0  0  0
 28 29  1  0  0  0  0
 29 23  1  0  0  0  0
 30 29  2  0  0  0  0
 30 31  1  0  0  0  0
 32 30  1  0  0  0  0
 33 35  1  0  0  0  0
 33 32  2  0  0  0  0
 34 33  1  0  0  0  0
 35 28  2  0  0  0  0
 36 35  1  0  0  0  0
M  END
>  <minimizedAffinity>
-6.07291222

>  <minimizedRMSD>
0.523967028

$$$$
