
 OpenBabel03242512043D

 21 22  0  0  0  0  0  0  0  0999 V2000
   46.8230   34.8420   41.9130 C   0  0  0  0  0  0  0  0  0  0  0  0
   47.9550   35.3610   41.8540 O   0  0  0  0  0  0  0  0  0  0  0  0
   43.9370   34.9240   42.4600 Cl  0  0  0  0  0  0  0  0  0  0  0  0
   44.6690   34.1360   41.0990 C   0  0  0  0  0  0  0  0  0  0  0  0
   46.0490   34.1310   40.8910 C   0  0  0  0  0  0  0  0  0  0  0  0
   46.6390   33.5060   39.8110 C   0  0  0  0  0  0  0  0  0  0  0  0
   47.7150   33.5430   39.7160 H   0  0  0  0  0  0  0  0  0  0  0  0
   45.8140   32.8620   38.9050 C   0  0  0  0  0  0  0  0  0  0  0  0
   44.4450   32.8450   39.0760 C   0  0  0  0  0  0  0  0  0  0  0  0
   43.4440   32.0190   37.9060 Cl  0  0  0  0  0  0  0  0  0  0  0  0
   43.8660   33.4750   40.1630 C   0  0  0  0  0  0  0  0  0  0  0  0
   42.7840   33.4560   40.2870 H   0  0  0  0  0  0  0  0  0  0  0  0
   45.3420   36.0400   43.4380 C   0  0  0  0  0  0  0  0  0  0  0  0
   46.1010   34.9110   43.1390 C   0  0  0  0  0  0  0  0  0  0  0  0
   46.1260   33.8760   44.0690 C   0  0  0  0  0  0  0  0  0  0  0  0
   45.4180   34.0070   45.2130 N   0  0  0  0  0  0  0  0  0  0  0  0
   44.6810   35.1280   45.4790 C   0  0  0  0  0  0  0  0  0  0  0  0
   44.6420   36.1420   44.5940 N   0  0  0  0  0  0  0  0  0  0  0  0
   45.2940   36.8690   42.7430 H   0  0  0  0  0  0  0  0  0  0  0  0
   46.7150   33.0010   43.8370 H   0  0  0  0  0  0  0  0  0  0  0  0
   44.1400   35.1470   46.4300 H   0  0  0  0  0  0  0  0  0  0  0  0
  1 14  1  0  0  0  0
  2  1  2  0  0  0  0
  4  3  1  0  0  0  0
  5  4  1  0  0  0  0
  5  1  1  0  0  0  0
  6  5  2  0  0  0  0
  7  6  1  0  0  0  0
  8  9  2  0  0  0  0
  8  6  1  0  0  0  0
  9 11  1  0  0  0  0
 10  9  1  0  0  0  0
 11 12  1  0  0  0  0
 11  4  2  0  0  0  0
 13 18  1  0  0  0  0
 14 13  2  0  0  0  0
 14 15  1  0  0  0  0
 15 16  2  0  0  0  0
 16 17  1  0  0  0  0
 17 21  1  0  0  0  0
 18 17  2  0  0  0  0
 19 13  1  0  0  0  0
 20 15  1  0  0  0  0
M  END
>  <minimizedAffinity>
-4.54133558

>  <minimizedRMSD>
0.288553566

$$$$
