
 OpenBabel03252502273D

 36 38  0  0  0  0  0  0  0  0999 V2000
   45.0220   34.5410   41.3390 C   0  0  0  0  0  0  0  0  0  0  0  0
   45.3780   35.3120   42.4340 C   0  0  0  0  0  0  0  0  0  0  0  0
   46.7260   35.5850   42.6500 C   0  0  0  0  0  0  0  0  0  0  0  0
   47.6650   35.0940   41.7900 C   0  0  0  0  0  0  0  0  0  0  0  0
   47.3380   34.3250   40.6910 C   0  0  0  0  0  0  0  0  0  0  0  0
   45.9790   34.0680   40.5000 C   0  0  0  0  0  0  0  0  0  0  0  0
   44.6440   35.7060   43.1240 H   0  0  0  0  0  0  0  0  0  0  0  0
   47.0150   36.1800   43.4950 H   0  0  0  0  0  0  0  0  0  0  0  0
   48.7110   35.3240   41.9850 H   0  0  0  0  0  0  0  0  0  0  0  0
   48.0680   33.9240   39.9920 H   0  0  0  0  0  0  0  0  0  0  0  0
   41.3400   34.8730   40.5760 C   0  0  0  0  0  0  0  0  0  0  0  0
   42.7040   35.2220   40.6990 C   0  0  0  0  0  0  0  0  0  0  0  0
   43.5970   34.2970   41.1710 C   0  0  0  0  0  0  0  0  0  0  0  0
   43.1110   33.0730   41.4980 N   0  0  0  0  0  0  0  0  0  0  0  0
   41.8070   32.7400   41.3800 C   0  0  0  0  0  0  0  0  0  0  0  0
   40.9180   33.6370   40.9180 N   0  0  0  0  0  0  0  0  0  0  0  0
   43.0600   36.1980   40.4320 H   0  0  0  0  0  0  0  0  0  0  0  0
   41.4570   31.7470   41.6550 H   0  0  0  0  0  0  0  0  0  0  0  0
   40.3690   35.8590   40.0680 C   0  0  0  0  0  0  0  0  0  0  0  0
   39.1870   35.1750   39.7890 F   0  0  0  0  0  0  0  0  0  0  0  0
   40.8420   36.3040   38.8420 F   0  0  0  0  0  0  0  0  0  0  0  0
   40.1220   36.8830   40.9500 F   0  0  0  0  0  0  0  0  0  0  0  0
   45.6250   31.9580   39.0020 C   0  0  0  0  0  0  0  0  0  0  0  0
   46.2390   31.0740   39.5840 O   0  0  0  0  0  0  0  0  0  0  0  0
   45.4990   33.3020   39.4170 N   0  0  0  0  0  0  0  0  0  0  0  0
   44.9120   33.9570   38.8160 H   0  0  0  0  0  0  0  0  0  0  0  0
   47.4320   32.2720   36.7090 Cl  0  0  0  0  0  0  0  0  0  0  0  0
   45.7850   31.6590   36.6610 C   0  0  0  0  0  0  0  0  0  0  0  0
   44.9790   31.5320   37.7630 C   0  0  0  0  0  0  0  0  0  0  0  0
   43.6760   31.0370   37.6560 C   0  0  0  0  0  0  0  0  0  0  0  0
   43.1170   30.9720   38.5730 H   0  0  0  0  0  0  0  0  0  0  0  0
   43.1910   30.6700   36.4190 C   0  0  0  0  0  3  0  0  0  0  0  0
   44.0150   30.8080   35.3330 C   0  0  0  0  0  0  0  0  0  0  0  0
   43.3750   30.3360   33.7790 Cl  0  0  0  0  0  0  0  0  0  0  0  0
   45.3090   31.2950   35.4170 C   0  0  0  0  0  0  0  0  0  0  0  0
   45.9240   31.3860   34.5330 H   0  0  0  0  0  0  0  0  0  0  0  0
  1  2  1  0  0  0  0
  2  3  2  0  0  0  0
  2  7  1  0  0  0  0
  3  8  1  0  0  0  0
  4  9  1  0  0  0  0
  4  3  1  0  0  0  0
  5  4  2  0  0  0  0
  6  5  1  0  0  0  0
  6  1  2  0  0  0  0
 10  5  1  0  0  0  0
 11 12  2  0  0  0  0
 11 16  1  0  0  0  0
 12 13  1  0  0  0  0
 13  1  1  0  0  0  0
 13 14  2  0  0  0  0
 15 14  1  0  0  0  0
 15 18  1  0  0  0  0
 16 15  2  0  0  0  0
 17 12  1  0  0  0  0
 19 11  1  0  0  0  0
 19 22  1  0  0  0  0
 20 19  1  0  0  0  0
 21 19  1  0  0  0  0
 23 25  1  0  0  0  0
 23 24  2  0  0  0  0
 25  6  1  0  0  0  0
 26 25  1  0  0  0  0
 28 27  1  0  0  0  0
 28 29  1  0  0  0  0
 29 23  1  0  0  0  0
 30 29  2  0  0  0  0
 30 31  1  0  0  0  0
 32 30  1  0  0  0  0
 33 35  1  0  0  0  0
 33 32  2  0  0  0  0
 34 33  1  0  0  0  0
 35 28  2  0  0  0  0
 36 35  1  0  0  0  0
M  END
>  <minimizedAffinity>
-6.06915283

>  <minimizedRMSD>
0.565304101

$$$$
