
 OpenBabel03252503273D

 26 27  0  0  0  0  0  0  0  0999 V2000
   47.1870   32.3640   43.0270 C   0  0  0  0  0  0  0  0  0  0  0  0
   48.3330   32.7350   42.2980 C   0  0  0  0  0  0  0  0  0  0  0  0
   49.4590   31.9050   42.4380 C   0  0  0  0  0  0  0  0  0  0  0  0
   49.3570   30.8260   43.2520 N   0  0  0  0  0  0  0  0  0  0  0  0
   48.2350   30.5100   43.9310 C   0  0  0  0  0  0  0  0  0  0  0  0
   47.1450   31.2850   43.8160 N   0  0  0  0  0  0  0  0  0  0  0  0
   45.3140   32.9460   41.7210 C   0  0  0  0  0  0  0  0  0  0  0  0
   45.8290   32.1410   40.8850 O   0  0  0  0  0  0  0  0  0  0  0  0
   45.9940   33.1320   42.9590 N   0  0  0  0  0  0  0  0  0  0  0  0
   48.3020   33.6180   41.6790 H   0  0  0  0  0  0  0  0  0  0  0  0
   48.1790   29.6430   44.5750 H   0  0  0  0  0  0  0  0  0  0  0  0
   45.6060   33.7720   43.6880 H   0  0  0  0  0  0  0  0  0  0  0  0
   42.7740   31.2990   41.9650 Cl  0  0  0  0  0  0  0  0  0  0  0  0
   42.8480   33.0060   41.5320 C   0  0  0  0  0  0  0  0  0  0  0  0
   44.0640   33.6720   41.4480 C   0  0  0  0  0  0  0  0  0  0  0  0
   44.0860   35.0280   41.1010 C   0  0  0  0  0  0  0  0  0  0  0  0
   45.0250   35.5600   41.0310 H   0  0  0  0  0  0  0  0  0  0  0  0
   42.9010   35.7080   40.8430 C   0  0  0  0  0  3  0  0  0  0  0  0
   41.6880   35.0630   40.9230 C   0  0  0  0  0  0  0  0  0  0  0  0
   40.2070   35.9190   40.6010 Cl  0  0  0  0  0  0  0  0  0  0  0  0
   41.6880   33.7120   41.2700 C   0  0  0  0  0  0  0  0  0  0  0  0
   40.7480   33.1930   41.3370 H   0  0  0  0  0  0  0  0  0  0  0  0
   50.6280   32.3100   41.6760 C   0  0  0  0  0  0  0  0  0  0  0  0
   51.6750   31.4330   41.9640 F   0  0  0  0  0  0  0  0  0  0  0  0
   51.0360   33.5510   42.1550 F   0  0  0  0  0  0  0  0  0  0  0  0
   50.4310   32.2960   40.3260 F   0  0  0  0  0  0  0  0  0  0  0  0
  1  6  1  0  0  0  0
  2  3  1  0  0  0  0
  2  1  2  0  0  0  0
  3  4  2  0  0  0  0
  4  5  1  0  0  0  0
  5 11  1  0  0  0  0
  6  5  2  0  0  0  0
  7  9  1  0  0  0  0
  8  7  2  0  0  0  0
  9  1  1  0  0  0  0
  9 12  1  0  0  0  0
 10  2  1  0  0  0  0
 14 13  1  0  0  0  0
 15 14  1  0  0  0  0
 15  7  1  0  0  0  0
 16 15  2  0  0  0  0
 17 16  1  0  0  0  0
 18 19  2  0  0  0  0
 18 16  1  0  0  0  0
 19 21  1  0  0  0  0
 20 19  1  0  0  0  0
 21 22  1  0  0  0  0
 21 14  2  0  0  0  0
 23 24  1  0  0  0  0
 23 25  1  0  0  0  0
 23  3  1  0  0  0  0
 26 23  1  0  0  0  0
M  END
>  <minimizedAffinity>
-4.39466429

>  <minimizedRMSD>
3.50258613

$$$$
