
 OpenBabel03242513113D

 21 22  0  0  0  0  0  0  0  0999 V2000
   46.0120   32.6150   46.2030 C   0  0  0  0  0  0  0  0  0  0  0  0
   46.0410   32.8830   47.4420 O   0  0  0  0  0  0  0  0  0  0  0  0
   44.7430   30.0890   47.2550 Cl  0  0  0  0  0  0  0  0  0  0  0  0
   46.0360   30.1270   46.0880 C   0  0  0  0  0  0  0  0  0  0  0  0
   46.5300   31.3310   45.6860 C   0  0  0  0  0  0  0  0  0  0  0  0
   47.5600   31.4710   44.7600 C   0  0  0  0  0  0  0  0  0  0  0  0
   47.9430   32.4550   44.4530 H   0  0  0  0  0  0  0  0  0  0  0  0
   48.1350   30.3500   44.1990 C   0  0  0  0  0  3  0  0  0  0  0  0
   47.6410   29.1050   44.5990 C   0  0  0  0  0  0  0  0  0  0  0  0
   48.3420   27.6440   43.9100 Cl  0  0  0  0  0  0  0  0  0  0  0  0
   46.6140   29.0180   45.5240 C   0  0  0  0  0  0  0  0  0  0  0  0
   46.2330   28.0360   45.8310 H   0  0  0  0  0  0  0  0  0  0  0  0
   44.5710   35.6510   44.8160 C   0  0  0  0  0  0  0  0  0  0  0  0
   44.4360   35.3780   43.4510 C   0  0  0  0  0  0  0  0  0  0  0  0
   44.8530   34.1180   43.0130 C   0  0  0  0  0  0  0  0  0  0  0  0
   45.3570   33.2440   43.9170 N   0  0  0  0  0  0  0  0  0  0  0  0
   45.4690   33.5550   45.2240 C   0  0  0  0  0  0  0  0  0  0  0  0
   45.0730   34.7560   45.6580 N   0  0  0  0  0  0  0  0  0  0  0  0
   44.2320   36.6380   45.0880 H   0  0  0  0  0  0  0  0  0  0  0  0
   44.0540   35.9920   42.6620 H   0  0  0  0  0  0  0  0  0  0  0  0
   44.8460   33.6870   42.0220 H   0  0  0  0  0  0  0  0  0  0  0  0
  1  2  2  0  0  0  0
  4  3  1  0  0  0  0
  5  4  1  0  0  0  0
  5  1  1  0  0  0  0
  6  5  2  0  0  0  0
  7  6  1  0  0  0  0
  8  9  2  0  0  0  0
  8  6  1  0  0  0  0
  9 11  1  0  0  0  0
 10  9  1  0  0  0  0
 11 12  1  0  0  0  0
 11  4  2  0  0  0  0
 13 19  1  0  0  0  0
 13 18  1  0  0  0  0
 14 13  2  0  0  0  0
 15 14  1  0  0  0  0
 15 16  2  0  0  0  0
 16 17  1  0  0  0  0
 17 18  2  0  0  0  0
 17  1  1  0  0  0  0
 20 14  1  0  0  0  0
 21 15  1  0  0  0  0
M  END
>  <minimizedAffinity>
-3.61865664

>  <minimizedRMSD>
1.51425624

$$$$
