
 OpenBabel03242523173D

 28 30  0  0  0  0  0  0  0  0999 V2000
   36.7830   28.6040   41.4830 C   0  0  0  0  0  0  0  0  0  0  0  0
   36.7330   28.2070   40.1860 C   0  0  0  0  0  0  0  0  0  0  0  0
   36.9380   29.2240   39.2540 C   0  0  0  0  0  0  0  0  0  0  0  0
   37.1640   30.5060   39.7160 N   0  0  0  0  0  0  0  0  0  0  0  0
   37.1960   30.8160   41.0020 C   0  0  0  0  0  0  0  0  0  0  0  0
   37.0020   29.8490   41.9620 N   0  0  0  0  0  0  0  0  0  0  0  0
   36.9220   29.0260   38.1980 H   0  0  0  0  0  0  0  0  0  0  0  0
   37.3850   31.8730   41.1450 H   0  0  0  0  0  0  0  0  0  0  0  0
   36.4080   26.9050   39.7270 C   0  0  0  0  0  0  0  0  0  0  0  0
   36.1750   26.4560   38.4710 C   0  0  0  0  0  0  0  0  0  0  0  0
   37.5420   26.0510   39.0030 C   0  0  0  0  0  0  0  0  0  0  0  0
   36.2890   26.2170   40.6740 H   0  0  0  0  0  0  0  0  0  0  0  0
   35.5410   25.5610   38.1990 H   0  0  0  0  0  0  0  0  0  0  0  0
   36.2670   27.1110   37.5580 H   0  0  0  0  0  0  0  0  0  0  0  0
   37.6990   25.0280   39.3050 H   0  0  0  0  0  0  0  0  0  0  0  0
   38.3980   26.6790   38.7600 H   0  0  0  0  0  0  0  0  0  0  0  0
   36.7350   27.7360   42.6590 C   0  0  0  0  0  0  0  0  0  0  0  0
   36.1550   27.2640   43.6220 O   0  0  0  0  0  0  0  0  0  0  0  0
   36.9270   24.7020   42.2410 Cl  0  0  0  0  0  0  0  0  0  0  0  0
   38.2980   25.7090   42.6320 C   0  0  0  0  0  0  0  0  0  0  0  0
   38.0570   27.0490   42.7950 C   0  0  0  0  0  0  0  0  0  0  0  0
   39.2030   27.7900   43.1150 C   0  0  0  0  0  0  0  0  0  0  0  0
   39.0450   28.8720   43.2520 H   0  0  0  0  0  0  0  0  0  0  0  0
   40.4830   27.3170   43.2710 C   0  0  0  0  0  3  0  0  0  0  0  0
   40.6280   25.9600   43.0890 C   0  0  0  0  0  0  0  0  0  0  0  0
   42.2270   25.2720   43.2680 Cl  0  0  0  0  0  0  0  0  0  0  0  0
   39.5710   25.1440   42.7730 C   0  0  0  0  0  0  0  0  0  0  0  0
   39.6520   24.0880   42.6250 H   0  0  0  0  0  0  0  0  0  0  0  0
  1  6  1  0  0  0  0
  1 17  1  0  0  0  0
  2  1  2  0  0  0  0
  3  4  2  0  0  0  0
  3  2  1  0  0  0  0
  4  5  1  0  0  0  0
  5  8  1  0  0  0  0
  5  6  2  0  0  0  0
  7  3  1  0  0  0  0
  9  2  1  0  0  0  0
  9 12  1  0  0  0  0
 10 11  1  0  0  0  0
 10  9  1  0  0  0  0
 11 15  1  0  0  0  0
 11  9  1  0  0  0  0
 13 10  1  0  0  0  0
 14 10  1  0  0  0  0
 16 11  1  0  0  0  0
 17 21  1  0  0  0  0
 17 18  2  0  0  0  0
 19 20  1  0  0  0  0
 20 27  2  0  0  0  0
 20 21  1  0  0  0  0
 21 22  2  0  0  0  0
 22 23  1  0  0  0  0
 22 24  1  0  0  0  0
 25 26  1  0  0  0  0
 25 24  2  0  0  0  0
 27 25  1  0  0  0  0
 28 27  1  0  0  0  0
M  END
>  <minimizedAffinity>
-5.11773491

$$$$

 OpenBabel03242523173D

 28 30  0  0  0  0  0  0  0  0999 V2000
   36.4470   27.6290   39.8830 C   0  0  0  0  0  0  0  0  0  0  0  0
   36.9220   27.3120   41.1130 C   0  0  0  0  0  0  0  0  0  0  0  0
   37.9420   26.3600   41.1200 C   0  0  0  0  0  0  0  0  0  0  0  0
   38.3630   25.8370   39.9130 N   0  0  0  0  0  0  0  0  0  0  0  0
   37.8460   26.1970   38.7490 C   0  0  0  0  0  0  0  0  0  0  0  0
   36.8400   27.1340   38.6880 N   0  0  0  0  0  0  0  0  0  0  0  0
   38.3960   26.0330   42.0370 H   0  0  0  0  0  0  0  0  0  0  0  0
   38.3180   25.6670   37.9310 H   0  0  0  0  0  0  0  0  0  0  0  0
   36.4150   27.7890   42.3490 C   0  0  0  0  0  0  0  0  0  0  0  0
   36.5480   27.2850   43.5990 C   0  0  0  0  0  0  0  0  0  0  0  0
   37.4210   28.5070   43.3550 C   0  0  0  0  0  0  0  0  0  0  0  0
   35.7460   28.7270   42.1160 H   0  0  0  0  0  0  0  0  0  0  0  0
   35.8250   27.4420   44.4520 H   0  0  0  0  0  0  0  0  0  0  0  0
   37.1720   26.3750   43.8310 H   0  0  0  0  0  0  0  0  0  0  0  0
   37.1350   29.4470   43.7990 H   0  0  0  0  0  0  0  0  0  0  0  0
   38.4530   28.3520   43.0420 H   0  0  0  0  0  0  0  0  0  0  0  0
   35.4800   28.6810   39.5700 C   0  0  0  0  0  0  0  0  0  0  0  0
   34.3460   29.0600   39.3300 O   0  0  0  0  0  0  0  0  0  0  0  0
   36.4290   29.7440   36.8530 Cl  0  0  0  0  0  0  0  0  0  0  0  0
   36.6840   30.5880   38.3590 C   0  0  0  0  0  0  0  0  0  0  0  0
   36.2070   29.9870   39.4950 C   0  0  0  0  0  0  0  0  0  0  0  0
   36.4550   30.7190   40.6650 C   0  0  0  0  0  0  0  0  0  0  0  0
   36.0850   30.2630   41.5970 H   0  0  0  0  0  0  0  0  0  0  0  0
   37.1010   31.9260   40.7690 C   0  0  0  0  0  3  0  0  0  0  0  0
   37.5440   32.4540   39.5760 C   0  0  0  0  0  0  0  0  0  0  0  0
   38.3780   33.9910   39.6150 Cl  0  0  0  0  0  0  0  0  0  0  0  0
   37.3530   31.8180   38.3750 C   0  0  0  0  0  0  0  0  0  0  0  0
   37.6840   32.2010   37.4340 H   0  0  0  0  0  0  0  0  0  0  0  0
  1  2  1  0  0  0  0
  2  3  2  0  0  0  0
  2  9  1  0  0  0  0
  3  7  1  0  0  0  0
  4  3  1  0  0  0  0
  5  4  2  0  0  0  0
  6  5  1  0  0  0  0
  6  1  2  0  0  0  0
  8  5  1  0  0  0  0
  9 11  1  0  0  0  0
  9 10  1  0  0  0  0
 10 14  1  0  0  0  0
 10 13  1  0  0  0  0
 11 10  1  0  0  0  0
 11 15  1  0  0  0  0
 12  9  1  0  0  0  0
 16 11  1  0  0  0  0
 17  1  1  0  0  0  0
 18 17  2  0  0  0  0
 19 20  1  0  0  0  0
 20 27  2  0  0  0  0
 20 21  1  0  0  0  0
 21 17  1  0  0  0  0
 21 22  2  0  0  0  0
 22 24  1  0  0  0  0
 22 23  1  0  0  0  0
 25 26  1  0  0  0  0
 25 24  2  0  0  0  0
 27 25  1  0  0  0  0
 28 27  1  0  0  0  0
M  END
>  <minimizedAffinity>
-5.11329603

$$$$

 OpenBabel03242523173D

 28 30  0  0  0  0  0  0  0  0999 V2000
   38.9470   27.4590   43.2700 C   0  0  0  0  0  0  0  0  0  0  0  0
   39.7130   28.5300   42.9430 C   0  0  0  0  0  0  0  0  0  0  0  0
   41.0890   28.3050   42.9970 C   0  0  0  0  0  0  0  0  0  0  0  0
   41.5380   27.0540   43.3700 N   0  0  0  0  0  0  0  0  0  0  0  0
   40.7250   26.0550   43.6790 C   0  0  0  0  0  0  0  0  0  0  0  0
   39.3600   26.2250   43.6390 N   0  0  0  0  0  0  0  0  0  0  0  0
   41.7920   29.0810   42.7560 H   0  0  0  0  0  0  0  0  0  0  0  0
   41.2820   25.1650   43.9430 H   0  0  0  0  0  0  0  0  0  0  0  0
   39.2380   29.8340   42.6520 C   0  0  0  0  0  0  0  0  0  0  0  0
   39.8990   31.0150   42.6160 C   0  0  0  0  0  0  0  0  0  0  0  0
   39.5850   30.4680   41.2320 C   0  0  0  0  0  0  0  0  0  0  0  0
   38.0740   29.7580   42.4990 H   0  0  0  0  0  0  0  0  0  0  0  0
   39.4390   32.0320   42.7870 H   0  0  0  0  0  0  0  0  0  0  0  0
   41.0110   31.1020   42.7810 H   0  0  0  0  0  0  0  0  0  0  0  0
   38.7960   30.9290   40.6580 H   0  0  0  0  0  0  0  0  0  0  0  0
   40.3460   29.8780   40.7240 H   0  0  0  0  0  0  0  0  0  0  0  0
   37.4900   27.3700   43.1740 C   0  0  0  0  0  0  0  0  0  0  0  0
   36.3700   27.6550   43.5600 O   0  0  0  0  0  0  0  0  0  0  0  0
   36.8820   28.6070   40.4320 Cl  0  0  0  0  0  0  0  0  0  0  0  0
   36.8580   26.8890   40.7410 C   0  0  0  0  0  0  0  0  0  0  0  0
   37.1460   26.4840   42.0180 C   0  0  0  0  0  0  0  0  0  0  0  0
   37.0990   25.0930   42.1910 C   0  0  0  0  0  0  0  0  0  0  0  0
   37.3260   24.7340   43.2080 H   0  0  0  0  0  0  0  0  0  0  0  0
   36.8050   24.1470   41.2410 C   0  0  0  0  0  3  0  0  0  0  0  0
   36.5300   24.6470   39.9870 C   0  0  0  0  0  0  0  0  0  0  0  0
   36.1450   23.5100   38.7140 Cl  0  0  0  0  0  0  0  0  0  0  0  0
   36.5480   25.9910   39.7120 C   0  0  0  0  0  0  0  0  0  0  0  0
   36.3390   26.4090   38.7500 H   0  0  0  0  0  0  0  0  0  0  0  0
  1  6  1  0  0  0  0
  2  3  1  0  0  0  0
  2  1  2  0  0  0  0
  3  4  2  0  0  0  0
  4  5  1  0  0  0  0
  5  8  1  0  0  0  0
  6  5  2  0  0  0  0
  7  3  1  0  0  0  0
  9  2  1  0  0  0  0
 10  9  1  0  0  0  0
 10 14  1  0  0  0  0
 10 13  1  0  0  0  0
 11 10  1  0  0  0  0
 11  9  1  0  0  0  0
 12  9  1  0  0  0  0
 15 11  1  0  0  0  0
 16 11  1  0  0  0  0
 17  1  1  0  0  0  0
 17 18  2  0  0  0  0
 19 20  1  0  0  0  0
 20 21  1  0  0  0  0
 21 22  2  0  0  0  0
 21 17  1  0  0  0  0
 22 23  1  0  0  0  0
 24 22  1  0  0  0  0
 25 24  2  0  0  0  0
 26 25  1  0  0  0  0
 27 25  1  0  0  0  0
 27 20  2  0  0  0  0
 28 27  1  0  0  0  0
M  END
>  <minimizedAffinity>
-5.11054993

$$$$

 OpenBabel03242523173D

 28 30  0  0  0  0  0  0  0  0999 V2000
   36.5360   30.6010   39.7280 C   0  0  0  0  0  0  0  0  0  0  0  0
   36.9590   30.6220   38.4390 C   0  0  0  0  0  0  0  0  0  0  0  0
   37.8200   31.6730   38.1230 C   0  0  0  0  0  0  0  0  0  0  0  0
   38.1530   32.5740   39.1150 N   0  0  0  0  0  0  0  0  0  0  0  0
   37.6960   32.4880   40.3540 C   0  0  0  0  0  0  0  0  0  0  0  0
   36.8460   31.4680   40.7180 N   0  0  0  0  0  0  0  0  0  0  0  0
   38.2190   31.7900   37.1320 H   0  0  0  0  0  0  0  0  0  0  0  0
   38.0790   33.2920   40.9690 H   0  0  0  0  0  0  0  0  0  0  0  0
   36.5340   29.7440   37.4100 C   0  0  0  0  0  0  0  0  0  0  0  0
   36.7100   29.8210   36.0700 C   0  0  0  0  0  0  0  0  0  0  0  0
   37.6170   28.7930   36.7300 C   0  0  0  0  0  0  0  0  0  0  0  0
   35.8910   28.8980   37.9130 H   0  0  0  0  0  0  0  0  0  0  0  0
   36.0370   29.3580   35.2900 H   0  0  0  0  0  0  0  0  0  0  0  0
   37.3080   30.6390   35.5750 H   0  0  0  0  0  0  0  0  0  0  0  0
   37.3890   27.7460   36.6070 H   0  0  0  0  0  0  0  0  0  0  0  0
   38.6240   29.0960   37.0110 H   0  0  0  0  0  0  0  0  0  0  0  0
   35.7420   29.5500   40.3650 C   0  0  0  0  0  0  0  0  0  0  0  0
   34.6790   29.0050   40.6050 O   0  0  0  0  0  0  0  0  0  0  0  0
   36.3900   26.7520   39.2840 Cl  0  0  0  0  0  0  0  0  0  0  0  0
   37.0520   27.3880   40.7680 C   0  0  0  0  0  0  0  0  0  0  0  0
   36.6670   28.6540   41.1270 C   0  0  0  0  0  0  0  0  0  0  0  0
   37.2340   29.0930   42.3330 C   0  0  0  0  0  0  0  0  0  0  0  0
   36.9450   30.1070   42.6500 H   0  0  0  0  0  0  0  0  0  0  0  0
   38.0980   28.4010   43.1460 C   0  0  0  0  0  3  0  0  0  0  0  0
   38.4280   27.1390   42.7040 C   0  0  0  0  0  0  0  0  0  0  0  0
   39.5250   26.1870   43.6800 Cl  0  0  0  0  0  0  0  0  0  0  0  0
   37.9290   26.6150   41.5380 C   0  0  0  0  0  0  0  0  0  0  0  0
   38.1660   25.6390   41.1700 H   0  0  0  0  0  0  0  0  0  0  0  0
  1 17  1  0  0  0  0
  1  6  1  0  0  0  0
  2  1  2  0  0  0  0
  3  2  1  0  0  0  0
  3  4  2  0  0  0  0
  4  5  1  0  0  0  0
  5  6  2  0  0  0  0
  5  8  1  0  0  0  0
  7  3  1  0  0  0  0
  9 12  1  0  0  0  0
  9  2  1  0  0  0  0
 10 11  1  0  0  0  0
 10  9  1  0  0  0  0
 11 16  1  0  0  0  0
 11  9  1  0  0  0  0
 13 10  1  0  0  0  0
 14 10  1  0  0  0  0
 15 11  1  0  0  0  0
 17 18  2  0  0  0  0
 17 21  1  0  0  0  0
 19 20  1  0  0  0  0
 20 21  2  0  0  0  0
 20 27  1  0  0  0  0
 21 22  1  0  0  0  0
 22 23  1  0  0  0  0
 22 24  2  0  0  0  0
 25 24  1  0  0  0  0
 25 26  1  0  0  0  0
 27 25  2  0  0  0  0
 28 27  1  0  0  0  0
M  END
>  <minimizedAffinity>
-5.10444927

$$$$

 OpenBabel03242523173D

 28 30  0  0  0  0  0  0  0  0999 V2000
   38.3340   26.2910   42.6770 C   0  0  0  0  0  0  0  0  0  0  0  0
   38.4450   25.2810   41.7780 C   0  0  0  0  0  0  0  0  0  0  0  0
   39.6230   24.5400   41.8710 C   0  0  0  0  0  0  0  0  0  0  0  0
   40.5460   24.8890   42.8360 N   0  0  0  0  0  0  0  0  0  0  0  0
   40.3680   25.8930   43.6790 C   0  0  0  0  0  0  0  0  0  0  0  0
   39.2220   26.6550   43.6300 N   0  0  0  0  0  0  0  0  0  0  0  0
   39.8180   23.7140   41.2120 H   0  0  0  0  0  0  0  0  0  0  0  0
   41.2110   25.9960   44.3510 H   0  0  0  0  0  0  0  0  0  0  0  0
   37.5290   24.9940   40.7330 C   0  0  0  0  0  0  0  0  0  0  0  0
   37.4020   23.8860   39.9660 C   0  0  0  0  0  0  0  0  0  0  0  0
   36.3240   23.9960   41.0340 C   0  0  0  0  0  0  0  0  0  0  0  0
   36.8800   25.9590   40.5590 H   0  0  0  0  0  0  0  0  0  0  0  0
   36.9680   23.8540   38.9230 H   0  0  0  0  0  0  0  0  0  0  0  0
   38.0320   22.9620   40.1110 H   0  0  0  0  0  0  0  0  0  0  0  0
   35.3270   24.2770   40.7380 H   0  0  0  0  0  0  0  0  0  0  0  0
   36.4800   23.4800   41.9800 H   0  0  0  0  0  0  0  0  0  0  0  0
   37.1610   27.1380   42.8930 C   0  0  0  0  0  0  0  0  0  0  0  0
   36.1600   27.4460   43.5160 O   0  0  0  0  0  0  0  0  0  0  0  0
   38.7620   29.7320   43.2490 Cl  0  0  0  0  0  0  0  0  0  0  0  0
   37.7940   29.3830   41.8390 C   0  0  0  0  0  0  0  0  0  0  0  0
   37.1300   28.1840   41.8230 C   0  0  0  0  0  0  0  0  0  0  0  0
   36.3690   27.9790   40.6640 C   0  0  0  0  0  0  0  0  0  0  0  0
   35.8220   27.0230   40.6190 H   0  0  0  0  0  0  0  0  0  0  0  0
   36.2360   28.8300   39.5940 C   0  0  0  0  0  3  0  0  0  0  0  0
   36.9400   30.0100   39.6990 C   0  0  0  0  0  0  0  0  0  0  0  0
   36.8290   31.1530   38.3800 Cl  0  0  0  0  0  0  0  0  0  0  0  0
   37.7140   30.3090   40.7910 C   0  0  0  0  0  0  0  0  0  0  0  0
   38.2710   31.2140   40.9010 H   0  0  0  0  0  0  0  0  0  0  0  0
  1 17  1  0  0  0  0
  1  6  1  0  0  0  0
  2  3  1  0  0  0  0
  2  1  2  0  0  0  0
  3  4  2  0  0  0  0
  4  5  1  0  0  0  0
  5  8  1  0  0  0  0
  6  5  2  0  0  0  0
  7  3  1  0  0  0  0
  9 11  1  0  0  0  0
  9  2  1  0  0  0  0
 10 14  1  0  0  0  0
 10  9  1  0  0  0  0
 10 11  1  0  0  0  0
 11 16  1  0  0  0  0
 12  9  1  0  0  0  0
 13 10  1  0  0  0  0
 15 11  1  0  0  0  0
 17 18  2  0  0  0  0
 20 19  1  0  0  0  0
 21 20  1  0  0  0  0
 21 17  1  0  0  0  0
 22 21  2  0  0  0  0
 23 22  1  0  0  0  0
 24 25  2  0  0  0  0
 24 22  1  0  0  0  0
 25 27  1  0  0  0  0
 26 25  1  0  0  0  0
 27 28  1  0  0  0  0
 27 20  2  0  0  0  0
M  END
>  <minimizedAffinity>
-5.00048304

$$$$

 OpenBabel03242523173D

 28 30  0  0  0  0  0  0  0  0999 V2000
   37.5530   30.0130   41.1640 C   0  0  0  0  0  0  0  0  0  0  0  0
   37.9420   30.8660   40.1830 C   0  0  0  0  0  0  0  0  0  0  0  0
   39.1310   31.5480   40.4380 C   0  0  0  0  0  0  0  0  0  0  0  0
   39.7860   31.3080   41.6290 N   0  0  0  0  0  0  0  0  0  0  0  0
   39.3410   30.4600   42.5420 C   0  0  0  0  0  0  0  0  0  0  0  0
   38.1740   29.7600   42.3380 N   0  0  0  0  0  0  0  0  0  0  0  0
   39.5370   32.2480   39.7310 H   0  0  0  0  0  0  0  0  0  0  0  0
   40.0030   30.4230   43.3990 H   0  0  0  0  0  0  0  0  0  0  0  0
   37.2090   31.1700   39.0070 C   0  0  0  0  0  0  0  0  0  0  0  0
   37.6130   31.7580   37.8560 C   0  0  0  0  0  0  0  0  0  0  0  0
   37.4260   30.2540   37.7210 C   0  0  0  0  0  0  0  0  0  0  0  0
   36.0870   30.8800   39.2070 H   0  0  0  0  0  0  0  0  0  0  0  0
   36.9520   32.3360   37.1450 H   0  0  0  0  0  0  0  0  0  0  0  0
   38.6830   32.0570   37.6620 H   0  0  0  0  0  0  0  0  0  0  0  0
   36.5620   29.8840   37.1920 H   0  0  0  0  0  0  0  0  0  0  0  0
   38.2950   29.6110   37.8500 H   0  0  0  0  0  0  0  0  0  0  0  0
   36.4280   29.0790   41.1080 C   0  0  0  0  0  0  0  0  0  0  0  0
   35.2340   28.8390   41.0630 O   0  0  0  0  0  0  0  0  0  0  0  0
   36.2740   27.3660   43.6500 Cl  0  0  0  0  0  0  0  0  0  0  0  0
   36.9670   26.8040   42.1490 C   0  0  0  0  0  0  0  0  0  0  0  0
   36.9710   27.6850   41.0990 C   0  0  0  0  0  0  0  0  0  0  0  0
   37.5490   27.1650   39.9320 C   0  0  0  0  0  0  0  0  0  0  0  0
   37.5680   27.8480   39.0680 H   0  0  0  0  0  0  0  0  0  0  0  0
   38.0860   25.9140   39.7560 C   0  0  0  0  0  3  0  0  0  0  0  0
   38.0370   25.0990   40.8660 C   0  0  0  0  0  0  0  0  0  0  0  0
   38.6990   23.4850   40.7300 Cl  0  0  0  0  0  0  0  0  0  0  0  0
   37.4930   25.5100   42.0560 C   0  0  0  0  0  0  0  0  0  0  0  0
   37.4410   24.9010   42.9340 H   0  0  0  0  0  0  0  0  0  0  0  0
  1  6  1  0  0  0  0
  2  3  1  0  0  0  0
  2  1  2  0  0  0  0
  3  4  2  0  0  0  0
  4  5  1  0  0  0  0
  5  8  1  0  0  0  0
  6  5  2  0  0  0  0
  7  3  1  0  0  0  0
  9 12  1  0  0  0  0
  9  2  1  0  0  0  0
 10  9  1  0  0  0  0
 11 16  1  0  0  0  0
 11 10  1  0  0  0  0
 11  9  1  0  0  0  0
 13 10  1  0  0  0  0
 14 10  1  0  0  0  0
 15 11  1  0  0  0  0
 17  1  1  0  0  0  0
 18 17  2  0  0  0  0
 20 19  1  0  0  0  0
 21 17  1  0  0  0  0
 21 20  2  0  0  0  0
 22 21  1  0  0  0  0
 23 22  1  0  0  0  0
 24 22  2  0  0  0  0
 24 25  1  0  0  0  0
 25 27  2  0  0  0  0
 26 25  1  0  0  0  0
 27 20  1  0  0  0  0
 27 28  1  0  0  0  0
M  END
>  <minimizedAffinity>
-4.9950223

$$$$

 OpenBabel03242523173D

 28 30  0  0  0  0  0  0  0  0999 V2000
   37.3200   26.3560   41.3110 C   0  0  0  0  0  0  0  0  0  0  0  0
   38.3560   25.4990   41.4900 C   0  0  0  0  0  0  0  0  0  0  0  0
   38.7280   24.7840   40.3510 C   0  0  0  0  0  0  0  0  0  0  0  0
   38.0300   25.0020   39.1790 N   0  0  0  0  0  0  0  0  0  0  0  0
   37.0250   25.8570   39.0840 C   0  0  0  0  0  0  0  0  0  0  0  0
   36.6200   26.5880   40.1780 N   0  0  0  0  0  0  0  0  0  0  0  0
   39.5370   24.0780   40.3730 H   0  0  0  0  0  0  0  0  0  0  0  0
   36.6180   25.8740   38.0810 H   0  0  0  0  0  0  0  0  0  0  0  0
   39.0010   25.2190   42.7220 C   0  0  0  0  0  0  0  0  0  0  0  0
   39.8280   24.2020   43.0610 C   0  0  0  0  0  0  0  0  0  0  0  0
   40.5620   25.5170   42.8450 C   0  0  0  0  0  0  0  0  0  0  0  0
   38.6370   26.0210   43.5000 H   0  0  0  0  0  0  0  0  0  0  0  0
   39.9780   23.7960   44.1050 H   0  0  0  0  0  0  0  0  0  0  0  0
   40.1680   23.4160   42.3280 H   0  0  0  0  0  0  0  0  0  0  0  0
   40.9240   26.0560   43.7050 H   0  0  0  0  0  0  0  0  0  0  0  0
   40.9940   25.7130   41.8650 H   0  0  0  0  0  0  0  0  0  0  0  0
   36.8110   27.3190   42.2880 C   0  0  0  0  0  0  0  0  0  0  0  0
   36.2930   27.5910   43.3580 O   0  0  0  0  0  0  0  0  0  0  0  0
   39.4360   28.8180   42.8140 Cl  0  0  0  0  0  0  0  0  0  0  0  0
   38.1170   29.4830   41.8850 C   0  0  0  0  0  0  0  0  0  0  0  0
   37.0030   28.6980   41.7390 C   0  0  0  0  0  0  0  0  0  0  0  0
   35.9840   29.3010   40.9880 C   0  0  0  0  0  0  0  0  0  0  0  0
   35.0740   28.6960   40.8510 H   0  0  0  0  0  0  0  0  0  0  0  0
   36.0020   30.5490   40.4140 C   0  0  0  0  0  3  0  0  0  0  0  0
   37.1620   31.2650   40.6140 C   0  0  0  0  0  0  0  0  0  0  0  0
   37.2710   32.8660   39.9170 Cl  0  0  0  0  0  0  0  0  0  0  0  0
   38.2190   30.7660   41.3330 C   0  0  0  0  0  0  0  0  0  0  0  0
   39.1310   31.2960   41.5060 H   0  0  0  0  0  0  0  0  0  0  0  0
  1  2  1  0  0  0  0
  1 17  1  0  0  0  0
  2  9  1  0  0  0  0
  3  7  1  0  0  0  0
  3  2  2  0  0  0  0
  4  3  1  0  0  0  0
  5  4  2  0  0  0  0
  5  6  1  0  0  0  0
  6  1  2  0  0  0  0
  8  5  1  0  0  0  0
  9 11  1  0  0  0  0
  9 10  1  0  0  0  0
  9 12  1  0  0  0  0
 10 13  1  0  0  0  0
 11 10  1  0  0  0  0
 11 15  1  0  0  0  0
 14 10  1  0  0  0  0
 16 11  1  0  0  0  0
 17 18  2  0  0  0  0
 20 19  1  0  0  0  0
 21 20  1  0  0  0  0
 21 17  1  0  0  0  0
 22 21  2  0  0  0  0
 23 22  1  0  0  0  0
 24 25  2  0  0  0  0
 24 22  1  0  0  0  0
 25 27  1  0  0  0  0
 26 25  1  0  0  0  0
 27 28  1  0  0  0  0
 27 20  2  0  0  0  0
M  END
>  <minimizedAffinity>
-4.94968557

$$$$

 OpenBabel03242523173D

 28 30  0  0  0  0  0  0  0  0999 V2000
   38.1980   29.8430   41.6040 C   0  0  0  0  0  0  0  0  0  0  0  0
   38.3020   28.6140   42.1680 C   0  0  0  0  0  0  0  0  0  0  0  0
   39.5520   28.3240   42.7140 C   0  0  0  0  0  0  0  0  0  0  0  0
   40.5450   29.2810   42.6330 N   0  0  0  0  0  0  0  0  0  0  0  0
   40.3670   30.4610   42.0620 C   0  0  0  0  0  0  0  0  0  0  0  0
   39.1520   30.7980   41.5100 N   0  0  0  0  0  0  0  0  0  0  0  0
   39.7500   27.3810   43.1890 H   0  0  0  0  0  0  0  0  0  0  0  0
   41.2700   31.0580   42.1060 H   0  0  0  0  0  0  0  0  0  0  0  0
   37.3020   27.6080   42.1600 C   0  0  0  0  0  0  0  0  0  0  0  0
   37.2960   26.3800   42.7300 C   0  0  0  0  0  0  0  0  0  0  0  0
   36.4400   27.3870   43.4820 C   0  0  0  0  0  0  0  0  0  0  0  0
   36.4250   27.9890   41.4750 H   0  0  0  0  0  0  0  0  0  0  0  0
   36.6970   25.4920   42.3730 H   0  0  0  0  0  0  0  0  0  0  0  0
   38.1400   25.9970   43.3720 H   0  0  0  0  0  0  0  0  0  0  0  0
   35.3670   27.3190   43.4010 H   0  0  0  0  0  0  0  0  0  0  0  0
   36.8830   27.9180   44.3230 H   0  0  0  0  0  0  0  0  0  0  0  0
   36.9790   30.4580   41.0780 C   0  0  0  0  0  0  0  0  0  0  0  0
   35.9390   31.0760   41.2250 O   0  0  0  0  0  0  0  0  0  0  0  0
   37.6660   32.7790   39.1920 Cl  0  0  0  0  0  0  0  0  0  0  0  0
   37.2300   31.1830   38.6360 C   0  0  0  0  0  0  0  0  0  0  0  0
   36.9440   30.2480   39.5970 C   0  0  0  0  0  0  0  0  0  0  0  0
   36.5960   28.9940   39.0740 C   0  0  0  0  0  0  0  0  0  0  0  0
   36.3600   28.2190   39.8210 H   0  0  0  0  0  0  0  0  0  0  0  0
   36.5210   28.6360   37.7510 C   0  0  0  0  0  3  0  0  0  0  0  0
   36.8260   29.6400   36.8580 C   0  0  0  0  0  0  0  0  0  0  0  0
   36.7550   29.2720   35.1490 Cl  0  0  0  0  0  0  0  0  0  0  0  0
   37.1780   30.9020   37.2650 C   0  0  0  0  0  0  0  0  0  0  0  0
   37.4200   31.7020   36.5980 H   0  0  0  0  0  0  0  0  0  0  0  0
  1  2  1  0  0  0  0
  2  3  2  0  0  0  0
  3  7  1  0  0  0  0
  4  3  1  0  0  0  0
  5  8  1  0  0  0  0
  5  4  2  0  0  0  0
  6  1  2  0  0  0  0
  6  5  1  0  0  0  0
  9  2  1  0  0  0  0
  9 10  1  0  0  0  0
  9 11  1  0  0  0  0
 10 14  1  0  0  0  0
 10 11  1  0  0  0  0
 11 16  1  0  0  0  0
 12  9  1  0  0  0  0
 13 10  1  0  0  0  0
 15 11  1  0  0  0  0
 17 18  2  0  0  0  0
 17  1  1  0  0  0  0
 20 19  1  0  0  0  0
 20 21  1  0  0  0  0
 21 17  1  0  0  0  0
 22 21  2  0  0  0  0
 22 23  1  0  0  0  0
 24 22  1  0  0  0  0
 25 27  1  0  0  0  0
 25 24  2  0  0  0  0
 26 25  1  0  0  0  0
 27 20  2  0  0  0  0
 28 27  1  0  0  0  0
M  END
>  <minimizedAffinity>
-4.92160463

$$$$

 OpenBabel03242523173D

 28 30  0  0  0  0  0  0  0  0999 V2000
   38.8890   27.4060   43.2440 C   0  0  0  0  0  0  0  0  0  0  0  0
   39.6290   28.5060   42.9580 C   0  0  0  0  0  0  0  0  0  0  0  0
   41.0090   28.3100   42.9980 C   0  0  0  0  0  0  0  0  0  0  0  0
   41.4880   27.0550   43.3180 N   0  0  0  0  0  0  0  0  0  0  0  0
   40.7000   26.0270   43.5880 C   0  0  0  0  0  0  0  0  0  0  0  0
   39.3300   26.1670   43.5600 N   0  0  0  0  0  0  0  0  0  0  0  0
   41.6940   29.1110   42.7870 H   0  0  0  0  0  0  0  0  0  0  0  0
   41.2770   25.1390   43.8130 H   0  0  0  0  0  0  0  0  0  0  0  0
   39.1230   29.8100   42.7230 C   0  0  0  0  0  0  0  0  0  0  0  0
   39.7750   30.9930   42.6220 C   0  0  0  0  0  0  0  0  0  0  0  0
   39.3180   30.4490   41.2770 C   0  0  0  0  0  0  0  0  0  0  0  0
   37.9500   29.7330   42.6920 H   0  0  0  0  0  0  0  0  0  0  0  0
   39.3330   32.0090   42.8440 H   0  0  0  0  0  0  0  0  0  0  0  0
   40.8980   31.0810   42.6700 H   0  0  0  0  0  0  0  0  0  0  0  0
   38.4740   30.9100   40.7900 H   0  0  0  0  0  0  0  0  0  0  0  0
   40.0230   29.8630   40.6900 H   0  0  0  0  0  0  0  0  0  0  0  0
   37.4340   27.2880   43.1490 C   0  0  0  0  0  0  0  0  0  0  0  0
   36.3190   27.3250   43.6420 O   0  0  0  0  0  0  0  0  0  0  0  0
   37.2850   24.3510   42.2740 Cl  0  0  0  0  0  0  0  0  0  0  0  0
   36.9670   25.6920   41.2030 C   0  0  0  0  0  0  0  0  0  0  0  0
   37.0770   26.9510   41.7350 C   0  0  0  0  0  0  0  0  0  0  0  0
   36.8150   27.9750   40.8150 C   0  0  0  0  0  0  0  0  0  0  0  0
   36.8950   29.0000   41.2110 H   0  0  0  0  0  0  0  0  0  0  0  0
   36.4730   27.8370   39.4920 C   0  0  0  0  0  3  0  0  0  0  0  0
   36.3850   26.5360   39.0460 C   0  0  0  0  0  0  0  0  0  0  0  0
   35.9540   26.2680   37.3720 Cl  0  0  0  0  0  0  0  0  0  0  0  0
   36.6230   25.4620   39.8660 C   0  0  0  0  0  0  0  0  0  0  0  0
   36.5630   24.4420   39.5490 H   0  0  0  0  0  0  0  0  0  0  0  0
  1  6  1  0  0  0  0
  2  3  1  0  0  0  0
  2  1  2  0  0  0  0
  3  4  2  0  0  0  0
  4  5  1  0  0  0  0
  5  8  1  0  0  0  0
  6  5  2  0  0  0  0
  7  3  1  0  0  0  0
  9  2  1  0  0  0  0
 10 14  1  0  0  0  0
 10  9  1  0  0  0  0
 10 13  1  0  0  0  0
 11 10  1  0  0  0  0
 11  9  1  0  0  0  0
 12  9  1  0  0  0  0
 15 11  1  0  0  0  0
 16 11  1  0  0  0  0
 17  1  1  0  0  0  0
 17 18  2  0  0  0  0
 20 21  1  0  0  0  0
 20 19  1  0  0  0  0
 21 17  1  0  0  0  0
 22 23  1  0  0  0  0
 22 21  2  0  0  0  0
 24 22  1  0  0  0  0
 25 24  2  0  0  0  0
 25 27  1  0  0  0  0
 26 25  1  0  0  0  0
 27 20  2  0  0  0  0
 28 27  1  0  0  0  0
M  END
>  <minimizedAffinity>
-4.91213131

$$$$
