
 OpenBabel03242520543D

 32 33  0  0  0  0  0  0  0  0999 V2000
   46.4540   32.2180   47.6750 C   0  0  0  0  0  0  0  0  0  0  0  0
   45.4320   32.2970   48.0280 H   0  0  0  0  0  0  0  0  0  0  0  0
   46.4950   31.2200   47.1400 H   0  0  0  0  0  0  0  0  0  0  0  0
   46.4900   32.7810   45.4240 C   0  0  0  0  0  0  0  0  0  0  0  0
   45.8360   31.8370   44.9260 O   0  0  0  0  0  0  0  0  0  0  0  0
   46.8870   33.1750   46.7180 N   0  0  0  0  0  0  0  0  0  0  0  0
   47.4170   34.0570   46.8340 H   0  0  0  0  0  0  0  0  0  0  0  0
   44.8200   35.1800   44.5110 Cl  0  0  0  0  0  0  0  0  0  0  0  0
   46.2040   34.6110   43.6090 C   0  0  0  0  0  0  0  0  0  0  0  0
   46.8190   33.5270   44.1860 C   0  0  0  0  0  0  0  0  0  0  0  0
   47.9440   32.9400   43.6000 C   0  0  0  0  0  0  0  0  0  0  0  0
   48.5180   32.0920   43.9470 H   0  0  0  0  0  0  0  0  0  0  0  0
   48.4580   33.4570   42.4140 C   0  0  0  0  0  0  0  0  0  0  0  0
   47.8310   34.5480   41.8420 C   0  0  0  0  0  0  0  0  0  0  0  0
   48.4220   35.2460   40.3530 Cl  0  0  0  0  0  0  0  0  0  0  0  0
   46.7220   35.1120   42.4360 C   0  0  0  0  0  0  0  0  0  0  0  0
   46.1650   35.9800   42.0480 H   0  0  0  0  0  0  0  0  0  0  0  0
   48.5590   31.4510   48.6230 C   0  0  0  0  0  0  0  0  0  0  0  0
   47.4200   32.0580   48.7930 C   0  0  0  0  0  0  0  0  0  0  0  0
   51.2900   32.1510   50.9350 C   0  0  0  0  0  0  0  0  0  0  0  0
   51.3760   30.9500   51.6720 C   0  0  0  0  0  0  0  0  0  0  0  0
   50.4940   29.9080   51.3670 C   0  0  0  0  0  0  0  0  0  0  0  0
   49.6170   30.1300   50.3840 N   0  0  0  0  0  0  0  0  0  0  0  0
   49.5370   31.2690   49.6860 C   0  0  0  0  0  0  0  0  0  0  0  0
   50.3790   32.2930   49.9610 N   0  0  0  0  0  0  0  0  0  0  0  0
   52.0170   32.9060   51.2410 H   0  0  0  0  0  0  0  0  0  0  0  0
   52.0700   30.7440   52.4670 H   0  0  0  0  0  0  0  0  0  0  0  0
   50.4880   28.7060   52.0130 O   0  0  0  0  0  0  0  0  0  0  0  0
   51.4950   27.7650   51.6210 C   0  0  0  0  0  0  0  0  0  0  0  0
   51.9460   28.0830   50.3380 F   0  0  0  0  0  0  0  0  0  0  0  0
   52.5640   27.9220   52.5190 F   0  0  0  0  0  0  0  0  0  0  0  0
   51.0470   26.4520   51.6770 F   0  0  0  0  0  0  0  0  0  0  0  0
  1  2  1  0  0  0  0
  1 19  1  0  0  0  0
  3  1  1  0  0  0  0
  4  6  1  0  0  0  0
  5  4  2  0  0  0  0
  6  7  1  0  0  0  0
  6  1  1  0  0  0  0
  9 10  1  0  0  0  0
  9  8  1  0  0  0  0
 10  4  1  0  0  0  0
 11 12  1  0  0  0  0
 11 10  2  0  0  0  0
 13 11  1  0  0  0  0
 14 13  2  0  0  0  0
 14 16  1  0  0  0  0
 15 14  1  0  0  0  0
 16  9  2  0  0  0  0
 17 16  1  0  0  0  0
 18 19  2  0  0  0  0
 18 24  1  0  0  0  0
 20 26  1  0  0  0  0
 20 21  1  0  0  0  0
 21 27  1  0  0  0  0
 22 21  2  0  0  0  0
 22 28  1  0  0  0  0
 23 22  1  0  0  0  0
 24 25  1  0  0  0  0
 24 23  2  0  0  0  0
 25 20  2  0  0  0  0
 29 32  1  0  0  0  0
 29 28  1  0  0  0  0
 29 31  1  0  0  0  0
 30 29  1  0  0  0  0
M  END
>  <minimizedAffinity>
-6.31453991

>  <minimizedRMSD>
9.61411285

$$$$
