
 OpenBabel03242513113D

 21 22  0  0  0  0  0  0  0  0999 V2000
   45.7410   32.8000   47.1080 C   0  0  0  0  0  0  0  0  0  0  0  0
   44.7350   33.1150   47.8120 O   0  0  0  0  0  0  0  0  0  0  0  0
   45.3140   29.9260   46.3000 Cl  0  0  0  0  0  0  0  0  0  0  0  0
   46.6390   30.4840   47.2840 C   0  0  0  0  0  0  0  0  0  0  0  0
   46.7280   31.8100   47.5840 C   0  0  0  0  0  0  0  0  0  0  0  0
   47.7450   32.3580   48.3610 C   0  0  0  0  0  0  0  0  0  0  0  0
   47.7960   33.4320   48.5900 H   0  0  0  0  0  0  0  0  0  0  0  0
   48.7340   31.5420   48.8700 C   0  0  0  0  0  3  0  0  0  0  0  0
   48.6600   30.1780   48.5730 C   0  0  0  0  0  0  0  0  0  0  0  0
   49.8990   29.0960   49.2000 Cl  0  0  0  0  0  0  0  0  0  0  0  0
   47.6280   29.6810   47.7950 C   0  0  0  0  0  0  0  0  0  0  0  0
   47.5790   28.6090   47.5680 H   0  0  0  0  0  0  0  0  0  0  0  0
   45.3360   34.9650   44.2140 C   0  0  0  0  0  0  0  0  0  0  0  0
   46.3550   34.5710   43.3420 C   0  0  0  0  0  0  0  0  0  0  0  0
   47.1920   33.5370   43.7710 C   0  0  0  0  0  0  0  0  0  0  0  0
   46.9750   32.9800   44.9880 N   0  0  0  0  0  0  0  0  0  0  0  0
   45.9790   33.3970   45.7940 C   0  0  0  0  0  0  0  0  0  0  0  0
   45.1700   34.3850   45.3970 N   0  0  0  0  0  0  0  0  0  0  0  0
   44.7280   35.7650   43.8240 H   0  0  0  0  0  0  0  0  0  0  0  0
   46.6090   34.9400   42.3700 H   0  0  0  0  0  0  0  0  0  0  0  0
   48.0330   33.0700   43.2780 H   0  0  0  0  0  0  0  0  0  0  0  0
  1  5  1  0  0  0  0
  1  2  2  0  0  0  0
  3  4  1  0  0  0  0
  4  5  2  0  0  0  0
  4 11  1  0  0  0  0
  5  6  1  0  0  0  0
  6  7  1  0  0  0  0
  6  8  2  0  0  0  0
  9  8  1  0  0  0  0
  9 10  1  0  0  0  0
 11  9  2  0  0  0  0
 12 11  1  0  0  0  0
 13 18  1  0  0  0  0
 14 15  1  0  0  0  0
 14 13  2  0  0  0  0
 15 16  2  0  0  0  0
 16 17  1  0  0  0  0
 17  1  1  0  0  0  0
 18 17  2  0  0  0  0
 19 13  1  0  0  0  0
 20 14  1  0  0  0  0
 21 15  1  0  0  0  0
M  END
>  <minimizedAffinity>
-4.5368638

>  <minimizedRMSD>
1.81787407

$$$$
