
 OpenBabel03242513113D

 21 22  0  0  0  0  0  0  0  0999 V2000
   45.7420   32.7980   47.1090 C   0  0  0  0  0  0  0  0  0  0  0  0
   44.7360   33.1130   47.8140 O   0  0  0  0  0  0  0  0  0  0  0  0
   45.3140   29.9240   46.2970 Cl  0  0  0  0  0  0  0  0  0  0  0  0
   46.6400   30.4810   47.2830 C   0  0  0  0  0  0  0  0  0  0  0  0
   46.7290   31.8060   47.5850 C   0  0  0  0  0  0  0  0  0  0  0  0
   47.7460   32.3520   48.3610 C   0  0  0  0  0  0  0  0  0  0  0  0
   47.7960   33.4270   48.5920 H   0  0  0  0  0  0  0  0  0  0  0  0
   48.7340   31.5350   48.8700 C   0  0  0  0  0  3  0  0  0  0  0  0
   48.6600   30.1730   48.5710 C   0  0  0  0  0  0  0  0  0  0  0  0
   49.8990   29.0900   49.1980 Cl  0  0  0  0  0  0  0  0  0  0  0  0
   47.6270   29.6760   47.7930 C   0  0  0  0  0  0  0  0  0  0  0  0
   47.5770   28.6040   47.5630 H   0  0  0  0  0  0  0  0  0  0  0  0
   45.3370   34.9630   44.2160 C   0  0  0  0  0  0  0  0  0  0  0  0
   46.3550   34.5700   43.3440 C   0  0  0  0  0  0  0  0  0  0  0  0
   47.1930   33.5350   43.7720 C   0  0  0  0  0  0  0  0  0  0  0  0
   46.9760   32.9780   44.9890 N   0  0  0  0  0  0  0  0  0  0  0  0
   45.9790   33.3950   45.7960 C   0  0  0  0  0  0  0  0  0  0  0  0
   45.1710   34.3830   45.3990 N   0  0  0  0  0  0  0  0  0  0  0  0
   44.7280   35.7630   43.8270 H   0  0  0  0  0  0  0  0  0  0  0  0
   46.6090   34.9390   42.3720 H   0  0  0  0  0  0  0  0  0  0  0  0
   48.0330   33.0690   43.2790 H   0  0  0  0  0  0  0  0  0  0  0  0
  1  5  1  0  0  0  0
  1  2  2  0  0  0  0
  3  4  1  0  0  0  0
  4  5  2  0  0  0  0
  4 11  1  0  0  0  0
  5  6  1  0  0  0  0
  6  7  1  0  0  0  0
  6  8  2  0  0  0  0
  9  8  1  0  0  0  0
  9 10  1  0  0  0  0
 11  9  2  0  0  0  0
 12 11  1  0  0  0  0
 13 18  1  0  0  0  0
 14 15  1  0  0  0  0
 14 13  2  0  0  0  0
 15 16  2  0  0  0  0
 16 17  1  0  0  0  0
 17  1  1  0  0  0  0
 18 17  2  0  0  0  0
 19 13  1  0  0  0  0
 20 14  1  0  0  0  0
 21 15  1  0  0  0  0
M  END
>  <minimizedAffinity>
-4.53936529

>  <minimizedRMSD>
2.03022885

$$$$
