
 OpenBabel03252502133D

 30 32  0  0  0  0  0  0  0  0999 V2000
   39.5510   30.7120   42.7850 Cl  0  0  0  0  0  0  0  0  0  0  0  0
   38.2700   29.5470   42.5750 C   0  0  0  0  0  0  0  0  0  0  0  0
   37.5710   29.4610   41.4200 C   0  0  0  0  0  0  0  0  0  0  0  0
   36.5830   28.5000   41.3780 C   0  0  0  0  0  0  0  0  0  0  0  0
   36.2950   27.6680   42.4050 C   0  0  0  0  0  0  0  0  0  0  0  0
   37.0110   27.7610   43.5760 C   0  0  0  0  0  0  0  0  0  0  0  0
   37.9960   28.7040   43.6490 C   0  0  0  0  0  0  0  0  0  0  0  0
   35.5220   26.9210   42.3620 H   0  0  0  0  0  0  0  0  0  0  0  0
   36.8470   27.1360   44.4460 H   0  0  0  0  0  0  0  0  0  0  0  0
   38.5770   28.7940   44.5710 H   0  0  0  0  0  0  0  0  0  0  0  0
   37.6420   32.4590   39.1110 C   0  0  0  0  0  0  0  0  0  0  0  0
   37.3100   31.6010   40.1760 C   0  0  0  0  0  0  0  0  0  0  0  0
   37.8930   30.3550   40.3400 C   0  0  0  0  0  0  0  0  0  0  0  0
   38.8160   30.0150   39.3890 N   0  0  0  0  0  0  0  0  0  0  0  0
   39.1310   30.8310   38.3760 C   0  0  0  0  0  0  0  0  0  0  0  0
   38.5600   32.0400   38.2250 N   0  0  0  0  0  0  0  0  0  0  0  0
   37.1040   33.3740   39.1350 H   0  0  0  0  0  0  0  0  0  0  0  0
   36.5780   31.8540   40.9430 H   0  0  0  0  0  0  0  0  0  0  0  0
   39.8550   30.5920   37.6090 H   0  0  0  0  0  0  0  0  0  0  0  0
   35.7980   28.3800   40.1280 C   0  0  0  0  0  0  0  0  0  0  0  0
   34.6520   29.1760   40.0220 C   0  0  0  0  0  0  0  0  0  0  0  0
   33.9940   28.9920   38.8290 C   0  0  0  0  0  0  0  0  0  0  0  0
   34.3550   28.1520   37.8210 C   0  0  0  0  0  0  0  0  0  0  0  0
   35.5190   27.3920   38.0120 C   0  0  0  0  0  0  0  0  0  0  0  0
   36.1820   27.5500   39.1680 N   0  0  0  0  0  0  0  0  0  0  0  0
   34.2990   29.8580   40.7610 H   0  0  0  0  0  0  0  0  0  0  0  0
   33.0760   29.5680   38.6320 H   0  0  0  0  0  0  0  0  0  0  0  0
   33.8080   28.0400   36.8990 H   0  0  0  0  0  0  0  0  0  0  0  0
   36.0230   26.4420   37.0020 C   0  0  0  0  0  2  0  0  0  0  0  0
   35.5260   25.4580   37.0740 H   0  0  0  0  0  0  0  0  0  0  0  0
  2  1  1  0  0  0  0
  2  7  1  0  0  0  0
  3  2  2  0  0  0  0
  4  3  1  0  0  0  0
  4  5  2  0  0  0  0
  5  6  1  0  0  0  0
  6  7  2  0  0  0  0
  6  9  1  0  0  0  0
  7 10  1  0  0  0  0
  8  5  1  0  0  0  0
 11 17  1  0  0  0  0
 11 12  1  0  0  0  0
 12 13  2  0  0  0  0
 12 18  1  0  0  0  0
 13  3  1  0  0  0  0
 14 13  1  0  0  0  0
 15 14  2  0  0  0  0
 16 15  1  0  0  0  0
 16 11  2  0  0  0  0
 19 15  1  0  0  0  0
 20  4  1  0  0  0  0
 21 20  1  0  0  0  0
 21 26  1  0  0  0  0
 22 21  2  0  0  0  0
 23 24  2  0  0  0  0
 23 22  1  0  0  0  0
 24 25  1  0  0  0  0
 25 20  2  0  0  0  0
 27 22  1  0  0  0  0
 28 23  1  0  0  0  0
 29 30  1  0  0  0  0
 29 24  1  0  0  0  0
M  END
>  <minimizedAffinity>
-5.5821991

$$$$

 OpenBabel03252502133D

 30 32  0  0  0  0  0  0  0  0999 V2000
   40.9230   31.8230   41.8710 Cl  0  0  0  0  0  0  0  0  0  0  0  0
   39.4650   32.2120   40.9980 C   0  0  0  0  0  0  0  0  0  0  0  0
   38.6010   31.2520   40.5960 C   0  0  0  0  0  0  0  0  0  0  0  0
   37.4840   31.6850   39.9140 C   0  0  0  0  0  0  0  0  0  0  0  0
   37.2250   32.9850   39.6410 C   0  0  0  0  0  0  0  0  0  0  0  0
   38.1080   33.9560   40.0530 C   0  0  0  0  0  0  0  0  0  0  0  0
   39.2240   33.5570   40.7310 C   0  0  0  0  0  0  0  0  0  0  0  0
   36.3500   33.3140   39.1070 H   0  0  0  0  0  0  0  0  0  0  0  0
   37.9780   35.0170   39.8770 H   0  0  0  0  0  0  0  0  0  0  0  0
   39.9390   34.3130   41.0690 H   0  0  0  0  0  0  0  0  0  0  0  0
   39.7700   27.6630   40.3160 C   0  0  0  0  0  0  0  0  0  0  0  0
   39.4910   29.0050   39.9980 C   0  0  0  0  0  0  0  0  0  0  0  0
   38.8960   29.8760   40.8960 C   0  0  0  0  0  0  0  0  0  0  0  0
   38.5960   29.3360   42.1170 N   0  0  0  0  0  0  0  0  0  0  0  0
   38.8610   28.0600   42.4180 C   0  0  0  0  0  0  0  0  0  0  0  0
   39.4400   27.2210   41.5390 N   0  0  0  0  0  0  0  0  0  0  0  0
   40.2270   27.1350   39.5150 H   0  0  0  0  0  0  0  0  0  0  0  0
   39.7220   29.4520   39.0320 H   0  0  0  0  0  0  0  0  0  0  0  0
   38.6370   27.6040   43.3740 H   0  0  0  0  0  0  0  0  0  0  0  0
   36.5180   30.6590   39.4580 C   0  0  0  0  0  0  0  0  0  0  0  0
   35.6860   30.0980   40.4330 C   0  0  0  0  0  0  0  0  0  0  0  0
   34.8280   29.1590   39.9110 C   0  0  0  0  0  0  0  0  0  0  0  0
   34.7410   28.7680   38.6100 C   0  0  0  0  0  0  0  0  0  0  0  0
   35.6150   29.3840   37.7010 C   0  0  0  0  0  0  0  0  0  0  0  0
   36.4640   30.3050   38.1820 N   0  0  0  0  0  0  0  0  0  0  0  0
   35.6880   30.3460   41.4690 H   0  0  0  0  0  0  0  0  0  0  0  0
   34.1220   28.6490   40.5850 H   0  0  0  0  0  0  0  0  0  0  0  0
   34.0500   28.0260   38.2440 H   0  0  0  0  0  0  0  0  0  0  0  0
   35.6270   29.0550   36.2630 C   0  0  0  0  0  2  0  0  0  0  0  0
   36.2420   28.1620   36.0480 H   0  0  0  0  0  0  0  0  0  0  0  0
  2  1  1  0  0  0  0
  3 13  1  0  0  0  0
  3  2  2  0  0  0  0
  4  3  1  0  0  0  0
  5  4  2  0  0  0  0
  5  6  1  0  0  0  0
  6  7  2  0  0  0  0
  7  2  1  0  0  0  0
  7 10  1  0  0  0  0
  8  5  1  0  0  0  0
  9  6  1  0  0  0  0
 11 16  1  0  0  0  0
 12 11  2  0  0  0  0
 12 13  1  0  0  0  0
 13 14  2  0  0  0  0
 14 15  1  0  0  0  0
 15 19  1  0  0  0  0
 16 15  2  0  0  0  0
 17 11  1  0  0  0  0
 18 12  1  0  0  0  0
 20  4  1  0  0  0  0
 20 21  1  0  0  0  0
 21 26  1  0  0  0  0
 22 21  2  0  0  0  0
 22 27  1  0  0  0  0
 23 22  1  0  0  0  0
 24 25  1  0  0  0  0
 24 23  2  0  0  0  0
 25 20  2  0  0  0  0
 28 23  1  0  0  0  0
 29 24  1  0  0  0  0
 30 29  1  0  0  0  0
M  END
>  <minimizedAffinity>
-5.24565363

$$$$

 OpenBabel03252502133D

 30 32  0  0  0  0  0  0  0  0999 V2000
   36.8600   25.5640   40.4100 Cl  0  0  0  0  0  0  0  0  0  0  0  0
   37.1240   26.9760   41.3980 C   0  0  0  0  0  0  0  0  0  0  0  0
   37.4390   28.1740   40.8530 C   0  0  0  0  0  0  0  0  0  0  0  0
   37.6230   29.2150   41.7380 C   0  0  0  0  0  0  0  0  0  0  0  0
   37.5050   29.0940   43.0800 C   0  0  0  0  0  0  0  0  0  0  0  0
   37.1840   27.8730   43.6260 C   0  0  0  0  0  0  0  0  0  0  0  0
   36.9950   26.8220   42.7750 C   0  0  0  0  0  0  0  0  0  0  0  0
   37.6500   29.9120   43.7630 H   0  0  0  0  0  0  0  0  0  0  0  0
   37.0690   27.6880   44.6880 H   0  0  0  0  0  0  0  0  0  0  0  0
   36.7390   25.8430   43.1890 H   0  0  0  0  0  0  0  0  0  0  0  0
   36.6330   28.6250   37.1830 C   0  0  0  0  0  0  0  0  0  0  0  0
   36.4890   28.5230   38.5780 C   0  0  0  0  0  0  0  0  0  0  0  0
   37.5600   28.2820   39.4240 C   0  0  0  0  0  0  0  0  0  0  0  0
   38.7720   28.1460   38.8020 N   0  0  0  0  0  0  0  0  0  0  0  0
   38.9080   28.2420   37.4740 C   0  0  0  0  0  0  0  0  0  0  0  0
   37.8610   28.4780   36.6610 N   0  0  0  0  0  0  0  0  0  0  0  0
   35.7130   28.8130   36.6850 H   0  0  0  0  0  0  0  0  0  0  0  0
   35.5330   28.6280   39.0910 H   0  0  0  0  0  0  0  0  0  0  0  0
   39.8500   28.1410   36.9530 H   0  0  0  0  0  0  0  0  0  0  0  0
   37.9700   30.5400   41.1740 C   0  0  0  0  0  0  0  0  0  0  0  0
   36.9080   31.3420   40.7450 C   0  0  0  0  0  0  0  0  0  0  0  0
   37.3330   32.5480   40.2390 C   0  0  0  0  0  0  0  0  0  0  0  0
   38.6190   32.9800   40.1360 C   0  0  0  0  0  0  0  0  0  0  0  0
   39.6210   32.1100   40.5920 C   0  0  0  0  0  0  0  0  0  0  0  0
   39.2360   30.9250   41.0900 N   0  0  0  0  0  0  0  0  0  0  0  0
   35.8750   31.0820   40.7900 H   0  0  0  0  0  0  0  0  0  0  0  0
   36.5830   33.2660   39.8700 H   0  0  0  0  0  0  0  0  0  0  0  0
   38.9080   33.9370   39.7320 H   0  0  0  0  0  0  0  0  0  0  0  0
   41.0550   32.4520   40.5380 C   0  0  0  0  0  2  0  0  0  0  0  0
   41.4960   32.2320   39.5490 H   0  0  0  0  0  0  0  0  0  0  0  0
  1  2  1  0  0  0  0
  2  7  1  0  0  0  0
  3  2  2  0  0  0  0
  3  4  1  0  0  0  0
  4  5  2  0  0  0  0
  5  6  1  0  0  0  0
  5  8  1  0  0  0  0
  6  9  1  0  0  0  0
  7 10  1  0  0  0  0
  7  6  2  0  0  0  0
 11 12  1  0  0  0  0
 12 18  1  0  0  0  0
 12 13  2  0  0  0  0
 13  3  1  0  0  0  0
 14 13  1  0  0  0  0
 15 14  2  0  0  0  0
 16 11  2  0  0  0  0
 16 15  1  0  0  0  0
 17 11  1  0  0  0  0
 19 15  1  0  0  0  0
 20  4  1  0  0  0  0
 21 26  1  0  0  0  0
 21 20  2  0  0  0  0
 22 21  1  0  0  0  0
 23 22  2  0  0  0  0
 23 24  1  0  0  0  0
 24 25  2  0  0  0  0
 25 20  1  0  0  0  0
 27 22  1  0  0  0  0
 28 23  1  0  0  0  0
 29 24  1  0  0  0  0
 30 29  1  0  0  0  0
M  END
>  <minimizedAffinity>
-5.16703033

$$$$

 OpenBabel03252502133D

 30 32  0  0  0  0  0  0  0  0999 V2000
   37.4420   32.5070   39.5190 Cl  0  0  0  0  0  0  0  0  0  0  0  0
   38.1960   31.4210   40.6560 C   0  0  0  0  0  0  0  0  0  0  0  0
   37.8080   30.1290   40.7680 C   0  0  0  0  0  0  0  0  0  0  0  0
   38.4810   29.3710   41.7030 C   0  0  0  0  0  0  0  0  0  0  0  0
   39.4780   29.8470   42.4830 C   0  0  0  0  0  0  0  0  0  0  0  0
   39.8670   31.1610   42.3630 C   0  0  0  0  0  0  0  0  0  0  0  0
   39.2190   31.9380   41.4460 C   0  0  0  0  0  0  0  0  0  0  0  0
   39.9980   29.2480   43.2100 H   0  0  0  0  0  0  0  0  0  0  0  0
   40.6550   31.6230   42.9470 H   0  0  0  0  0  0  0  0  0  0  0  0
   39.5130   32.9850   41.3340 H   0  0  0  0  0  0  0  0  0  0  0  0
   34.3900   29.1590   39.4640 C   0  0  0  0  0  0  0  0  0  0  0  0
   35.4120   29.6390   40.3040 C   0  0  0  0  0  0  0  0  0  0  0  0
   36.7460   29.6430   39.9290 C   0  0  0  0  0  0  0  0  0  0  0  0
   37.0000   29.1430   38.6810 N   0  0  0  0  0  0  0  0  0  0  0  0
   36.0280   28.6860   37.8830 C   0  0  0  0  0  0  0  0  0  0  0  0
   34.7350   28.6870   38.2560 N   0  0  0  0  0  0  0  0  0  0  0  0
   33.4260   29.2290   39.9050 H   0  0  0  0  0  0  0  0  0  0  0  0
   35.2290   30.0410   41.3000 H   0  0  0  0  0  0  0  0  0  0  0  0
   36.1960   28.2860   36.8920 H   0  0  0  0  0  0  0  0  0  0  0  0
   38.0800   27.9530   41.8510 C   0  0  0  0  0  0  0  0  0  0  0  0
   37.1250   27.6660   42.8330 C   0  0  0  0  0  0  0  0  0  0  0  0
   36.8220   26.3260   42.8920 C   0  0  0  0  0  0  0  0  0  0  0  0
   37.3490   25.3370   42.1200 C   0  0  0  0  0  0  0  0  0  0  0  0
   38.3000   25.7160   41.1610 C   0  0  0  0  0  0  0  0  0  0  0  0
   38.6160   27.0180   41.0800 N   0  0  0  0  0  0  0  0  0  0  0  0
   36.6640   28.3770   43.4780 H   0  0  0  0  0  0  0  0  0  0  0  0
   36.0800   25.9800   43.6290 H   0  0  0  0  0  0  0  0  0  0  0  0
   37.0800   24.2960   42.2010 H   0  0  0  0  0  0  0  0  0  0  0  0
   38.9500   24.7460   40.2590 C   0  0  0  0  0  2  0  0  0  0  0  0
   39.8180   24.2560   40.7350 H   0  0  0  0  0  0  0  0  0  0  0  0
  1  2  1  0  0  0  0
  2  3  2  0  0  0  0
  2  7  1  0  0  0  0
  3  4  1  0  0  0  0
  4 20  1  0  0  0  0
  4  5  2  0  0  0  0
  5  8  1  0  0  0  0
  6  5  1  0  0  0  0
  6  9  1  0  0  0  0
  7  6  2  0  0  0  0
 10  7  1  0  0  0  0
 11 17  1  0  0  0  0
 11 12  1  0  0  0  0
 12 18  1  0  0  0  0
 13 12  2  0  0  0  0
 13  3  1  0  0  0  0
 14 13  1  0  0  0  0
 15 16  1  0  0  0  0
 15 14  2  0  0  0  0
 16 11  2  0  0  0  0
 19 15  1  0  0  0  0
 20 21  1  0  0  0  0
 21 22  2  0  0  0  0
 21 26  1  0  0  0  0
 22 27  1  0  0  0  0
 23 28  1  0  0  0  0
 23 22  1  0  0  0  0
 24 23  2  0  0  0  0
 25 24  1  0  0  0  0
 25 20  2  0  0  0  0
 29 30  1  0  0  0  0
 29 24  1  0  0  0  0
M  END
>  <minimizedAffinity>
-5.09938622

$$$$

 OpenBabel03252502133D

 30 32  0  0  0  0  0  0  0  0999 V2000
   35.5990   25.4510   37.2560 Cl  0  0  0  0  0  0  0  0  0  0  0  0
   36.1500   25.2200   38.8940 C   0  0  0  0  0  0  0  0  0  0  0  0
   36.6400   26.2450   39.6290 C   0  0  0  0  0  0  0  0  0  0  0  0
   37.0440   25.9360   40.9100 C   0  0  0  0  0  0  0  0  0  0  0  0
   36.9720   24.6960   41.4450 C   0  0  0  0  0  0  0  0  0  0  0  0
   36.4720   23.6590   40.6920 C   0  0  0  0  0  0  0  0  0  0  0  0
   36.0640   23.9330   39.4190 C   0  0  0  0  0  0  0  0  0  0  0  0
   37.2890   24.4640   42.4470 H   0  0  0  0  0  0  0  0  0  0  0  0
   36.3800   22.6370   41.0410 H   0  0  0  0  0  0  0  0  0  0  0  0
   35.6630   23.1230   38.8020 H   0  0  0  0  0  0  0  0  0  0  0  0
   35.8010   29.7860   38.5910 C   0  0  0  0  0  0  0  0  0  0  0  0
   35.7110   28.5100   39.1750 C   0  0  0  0  0  0  0  0  0  0  0  0
   36.7080   27.5560   39.0410 C   0  0  0  0  0  0  0  0  0  0  0  0
   37.7880   27.9450   38.2970 N   0  0  0  0  0  0  0  0  0  0  0  0
   37.8720   29.1590   37.7410 C   0  0  0  0  0  0  0  0  0  0  0  0
   36.8990   30.0790   37.8770 N   0  0  0  0  0  0  0  0  0  0  0  0
   34.9520   30.3930   38.7920 H   0  0  0  0  0  0  0  0  0  0  0  0
   34.8600   28.1820   39.7710 H   0  0  0  0  0  0  0  0  0  0  0  0
   38.7120   29.4970   37.1480 H   0  0  0  0  0  0  0  0  0  0  0  0
   37.5860   27.0360   41.7420 C   0  0  0  0  0  0  0  0  0  0  0  0
   36.7200   27.6010   42.6850 C   0  0  0  0  0  0  0  0  0  0  0  0
   37.3160   28.6100   43.4030 C   0  0  0  0  0  0  0  0  0  0  0  0
   38.5930   29.0620   43.2690 C   0  0  0  0  0  0  0  0  0  0  0  0
   39.3900   28.4370   42.2980 C   0  0  0  0  0  0  0  0  0  0  0  0
   38.8350   27.4480   41.5810 N   0  0  0  0  0  0  0  0  0  0  0  0
   35.7100   27.3080   42.8550 H   0  0  0  0  0  0  0  0  0  0  0  0
   36.7300   29.1310   44.1780 H   0  0  0  0  0  0  0  0  0  0  0  0
   39.0200   29.8590   43.8560 H   0  0  0  0  0  0  0  0  0  0  0  0
   40.7910   28.8280   42.0470 C   0  0  0  0  0  2  0  0  0  0  0  0
   40.8630   29.6920   41.3620 H   0  0  0  0  0  0  0  0  0  0  0  0
  1  2  1  0  0  0  0
  2  7  2  0  0  0  0
  2  3  1  0  0  0  0
  3  4  2  0  0  0  0
  4  5  1  0  0  0  0
  4 20  1  0  0  0  0
  5  8  1  0  0  0  0
  6  9  1  0  0  0  0
  6  5  2  0  0  0  0
  7  6  1  0  0  0  0
 10  7  1  0  0  0  0
 11 17  1  0  0  0  0
 11 12  1  0  0  0  0
 12 18  1  0  0  0  0
 13 12  2  0  0  0  0
 13  3  1  0  0  0  0
 14 13  1  0  0  0  0
 15 16  1  0  0  0  0
 15 14  2  0  0  0  0
 16 11  2  0  0  0  0
 19 15  1  0  0  0  0
 20 21  1  0  0  0  0
 21 26  1  0  0  0  0
 21 22  2  0  0  0  0
 22 27  1  0  0  0  0
 23 22  1  0  0  0  0
 23 28  1  0  0  0  0
 24 23  2  0  0  0  0
 25 20  2  0  0  0  0
 25 24  1  0  0  0  0
 29 24  1  0  0  0  0
 30 29  1  0  0  0  0
M  END
>  <minimizedAffinity>
-5.09314919

$$$$

 OpenBabel03252502133D

 30 32  0  0  0  0  0  0  0  0999 V2000
   37.6430   31.6080   37.3680 Cl  0  0  0  0  0  0  0  0  0  0  0  0
   36.9760   30.2620   38.2520 C   0  0  0  0  0  0  0  0  0  0  0  0
   37.5250   29.8320   39.4120 C   0  0  0  0  0  0  0  0  0  0  0  0
   36.9080   28.7590   40.0170 C   0  0  0  0  0  0  0  0  0  0  0  0
   35.8130   28.1400   39.5180 C   0  0  0  0  0  0  0  0  0  0  0  0
   35.2600   28.5820   38.3390 C   0  0  0  0  0  0  0  0  0  0  0  0
   35.8500   29.6440   37.7160 C   0  0  0  0  0  0  0  0  0  0  0  0
   35.3370   27.3020   39.9980 H   0  0  0  0  0  0  0  0  0  0  0  0
   34.3860   28.1450   37.8700 H   0  0  0  0  0  0  0  0  0  0  0  0
   35.4260   30.0120   36.7770 H   0  0  0  0  0  0  0  0  0  0  0  0
   41.1110   30.7820   40.1650 C   0  0  0  0  0  0  0  0  0  0  0  0
   39.9880   30.1070   39.6520 C   0  0  0  0  0  0  0  0  0  0  0  0
   38.6890   30.5050   39.9250 C   0  0  0  0  0  0  0  0  0  0  0  0
   38.5760   31.6030   40.7340 N   0  0  0  0  0  0  0  0  0  0  0  0
   39.6440   32.2430   41.2220 C   0  0  0  0  0  0  0  0  0  0  0  0
   40.9020   31.8500   40.9500 N   0  0  0  0  0  0  0  0  0  0  0  0
   42.0300   30.3460   39.8580 H   0  0  0  0  0  0  0  0  0  0  0  0
   40.0590   29.2310   39.0070 H   0  0  0  0  0  0  0  0  0  0  0  0
   39.5880   33.1140   41.8620 H   0  0  0  0  0  0  0  0  0  0  0  0
   37.4840   28.2630   41.2880 C   0  0  0  0  0  0  0  0  0  0  0  0
   37.0200   28.8570   42.4670 C   0  0  0  0  0  0  0  0  0  0  0  0
   37.6150   28.3290   43.5880 C   0  0  0  0  0  0  0  0  0  0  0  0
   38.5540   27.3440   43.6260 C   0  0  0  0  0  0  0  0  0  0  0  0
   38.9610   26.8060   42.3960 C   0  0  0  0  0  0  0  0  0  0  0  0
   38.3980   27.3020   41.2830 N   0  0  0  0  0  0  0  0  0  0  0  0
   36.2900   29.6300   42.5270 H   0  0  0  0  0  0  0  0  0  0  0  0
   37.3270   28.7180   44.5780 H   0  0  0  0  0  0  0  0  0  0  0  0
   38.9940   26.9590   44.5310 H   0  0  0  0  0  0  0  0  0  0  0  0
   39.9700   25.7350   42.2910 C   0  0  0  0  0  2  0  0  0  0  0  0
   41.0000   26.1340   42.3090 H   0  0  0  0  0  0  0  0  0  0  0  0
  1  2  1  0  0  0  0
  2  3  1  0  0  0  0
  3 13  1  0  0  0  0
  3  4  2  0  0  0  0
  4 20  1  0  0  0  0
  5  8  1  0  0  0  0
  5  4  1  0  0  0  0
  6  5  2  0  0  0  0
  7  2  2  0  0  0  0
  7  6  1  0  0  0  0
  9  6  1  0  0  0  0
 10  7  1  0  0  0  0
 11 16  1  0  0  0  0
 12 13  1  0  0  0  0
 12 11  2  0  0  0  0
 13 14  2  0  0  0  0
 14 15  1  0  0  0  0
 15 19  1  0  0  0  0
 16 15  2  0  0  0  0
 17 11  1  0  0  0  0
 18 12  1  0  0  0  0
 20 21  1  0  0  0  0
 21 26  1  0  0  0  0
 21 22  2  0  0  0  0
 22 23  1  0  0  0  0
 22 27  1  0  0  0  0
 23 28  1  0  0  0  0
 24 23  2  0  0  0  0
 25 20  2  0  0  0  0
 25 24  1  0  0  0  0
 29 30  1  0  0  0  0
 29 24  1  0  0  0  0
M  END
>  <minimizedAffinity>
-5.06863642

$$$$

 OpenBabel03252502133D

 30 32  0  0  0  0  0  0  0  0999 V2000
   36.0570   25.9440   36.8880 Cl  0  0  0  0  0  0  0  0  0  0  0  0
   35.6530   27.1520   38.0790 C   0  0  0  0  0  0  0  0  0  0  0  0
   36.3600   27.2830   39.2250 C   0  0  0  0  0  0  0  0  0  0  0  0
   35.9430   28.2740   40.0870 C   0  0  0  0  0  0  0  0  0  0  0  0
   34.8940   29.0940   39.8430 C   0  0  0  0  0  0  0  0  0  0  0  0
   34.1810   28.9550   38.6750 C   0  0  0  0  0  0  0  0  0  0  0  0
   34.5700   27.9820   37.8010 C   0  0  0  0  0  0  0  0  0  0  0  0
   34.5760   29.8650   40.5230 H   0  0  0  0  0  0  0  0  0  0  0  0
   33.3300   29.5670   38.4010 H   0  0  0  0  0  0  0  0  0  0  0  0
   34.0160   27.8540   36.8670 H   0  0  0  0  0  0  0  0  0  0  0  0
   39.8510   25.8290   39.3750 C   0  0  0  0  0  0  0  0  0  0  0  0
   38.7810   26.7080   39.1290 C   0  0  0  0  0  0  0  0  0  0  0  0
   37.4710   26.4020   39.4650 C   0  0  0  0  0  0  0  0  0  0  0  0
   37.2930   25.1790   40.0520 N   0  0  0  0  0  0  0  0  0  0  0  0
   38.3120   24.3430   40.2850 C   0  0  0  0  0  0  0  0  0  0  0  0
   39.5800   24.6500   39.9560 N   0  0  0  0  0  0  0  0  0  0  0  0
   40.7870   26.2190   39.0570 H   0  0  0  0  0  0  0  0  0  0  0  0
   38.9030   27.6850   38.6630 H   0  0  0  0  0  0  0  0  0  0  0  0
   38.2040   23.3710   40.7470 H   0  0  0  0  0  0  0  0  0  0  0  0
   36.6950   28.4440   41.3520 C   0  0  0  0  0  0  0  0  0  0  0  0
   36.3040   27.6440   42.4310 C   0  0  0  0  0  0  0  0  0  0  0  0
   37.0610   27.8760   43.5560 C   0  0  0  0  0  0  0  0  0  0  0  0
   38.0850   28.7630   43.6800 C   0  0  0  0  0  0  0  0  0  0  0  0
   38.4090   29.5240   42.5460 C   0  0  0  0  0  0  0  0  0  0  0  0
   37.6870   29.3200   41.4340 N   0  0  0  0  0  0  0  0  0  0  0  0
   35.5170   26.9260   42.4200 H   0  0  0  0  0  0  0  0  0  0  0  0
   36.8460   27.3020   44.4710 H   0  0  0  0  0  0  0  0  0  0  0  0
   38.6540   28.9120   44.5830 H   0  0  0  0  0  0  0  0  0  0  0  0
   39.4950   30.5220   42.5420 C   0  0  0  0  0  2  0  0  0  0  0  0
   39.1620   31.4980   42.9400 H   0  0  0  0  0  0  0  0  0  0  0  0
  1  2  1  0  0  0  0
  2  3  1  0  0  0  0
  3 13  1  0  0  0  0
  3  4  2  0  0  0  0
  4 20  1  0  0  0  0
  5  4  1  0  0  0  0
  5  8  1  0  0  0  0
  6  5  2  0  0  0  0
  7  2  2  0  0  0  0
  7  6  1  0  0  0  0
  9  6  1  0  0  0  0
 10  7  1  0  0  0  0
 11 16  1  0  0  0  0
 12 11  2  0  0  0  0
 12 13  1  0  0  0  0
 13 14  2  0  0  0  0
 14 15  1  0  0  0  0
 15 19  1  0  0  0  0
 16 15  2  0  0  0  0
 17 11  1  0  0  0  0
 18 12  1  0  0  0  0
 20 25  2  0  0  0  0
 20 21  1  0  0  0  0
 21 22  2  0  0  0  0
 22 23  1  0  0  0  0
 22 27  1  0  0  0  0
 23 28  1  0  0  0  0
 24 23  2  0  0  0  0
 25 24  1  0  0  0  0
 26 21  1  0  0  0  0
 29 24  1  0  0  0  0
 29 30  1  0  0  0  0
M  END
>  <minimizedAffinity>
-5.03411293

$$$$

 OpenBabel03252502133D

 30 32  0  0  0  0  0  0  0  0999 V2000
   36.9480   30.4140   36.5490 Cl  0  0  0  0  0  0  0  0  0  0  0  0
   37.3170   30.9170   38.1770 C   0  0  0  0  0  0  0  0  0  0  0  0
   37.5850   30.0200   39.1530 C   0  0  0  0  0  0  0  0  0  0  0  0
   37.8610   30.5400   40.3990 C   0  0  0  0  0  0  0  0  0  0  0  0
   37.8770   31.8650   40.6760 C   0  0  0  0  0  0  0  0  0  0  0  0
   37.6030   32.7710   39.6780 C   0  0  0  0  0  0  0  0  0  0  0  0
   37.3250   32.2850   38.4330 C   0  0  0  0  0  0  0  0  0  0  0  0
   38.0940   32.2620   41.6530 H   0  0  0  0  0  0  0  0  0  0  0  0
   37.5940   33.8460   39.8140 H   0  0  0  0  0  0  0  0  0  0  0  0
   37.1060   32.9890   37.6250 H   0  0  0  0  0  0  0  0  0  0  0  0
   36.4220   26.4680   38.5580 C   0  0  0  0  0  0  0  0  0  0  0  0
   36.4170   27.8390   38.8720 C   0  0  0  0  0  0  0  0  0  0  0  0
   37.5640   28.6160   38.8370 C   0  0  0  0  0  0  0  0  0  0  0  0
   38.7050   27.9520   38.4770 N   0  0  0  0  0  0  0  0  0  0  0  0
   38.7080   26.6480   38.1790 C   0  0  0  0  0  0  0  0  0  0  0  0
   37.5890   25.9010   38.2150 N   0  0  0  0  0  0  0  0  0  0  0  0
   35.4590   26.0240   38.6340 H   0  0  0  0  0  0  0  0  0  0  0  0
   35.5190   28.3840   39.1610 H   0  0  0  0  0  0  0  0  0  0  0  0
   39.5920   26.0950   37.8900 H   0  0  0  0  0  0  0  0  0  0  0  0
   38.1590   29.5850   41.4910 C   0  0  0  0  0  0  0  0  0  0  0  0
   39.5030   29.4330   41.8490 C   0  0  0  0  0  0  0  0  0  0  0  0
   39.6730   28.5260   42.8690 C   0  0  0  0  0  0  0  0  0  0  0  0
   38.6980   27.8200   43.5030 C   0  0  0  0  0  0  0  0  0  0  0  0
   37.3780   28.0360   43.0790 C   0  0  0  0  0  0  0  0  0  0  0  0
   37.1800   28.9160   42.0850 N   0  0  0  0  0  0  0  0  0  0  0  0
   40.3250   29.9440   41.4060 H   0  0  0  0  0  0  0  0  0  0  0  0
   40.6910   28.3240   43.2370 H   0  0  0  0  0  0  0  0  0  0  0  0
   38.8770   27.1180   44.3010 H   0  0  0  0  0  0  0  0  0  0  0  0
   36.2250   27.3380   43.6800 C   0  0  0  0  0  2  0  0  0  0  0  0
   36.0670   26.3400   43.2330 H   0  0  0  0  0  0  0  0  0  0  0  0
  1  2  1  0  0  0  0
  2  7  2  0  0  0  0
  2  3  1  0  0  0  0
  3  4  2  0  0  0  0
  4  5  1  0  0  0  0
  4 20  1  0  0  0  0
  5  8  1  0  0  0  0
  6  9  1  0  0  0  0
  6  5  2  0  0  0  0
  7  6  1  0  0  0  0
 10  7  1  0  0  0  0
 11 17  1  0  0  0  0
 11 12  1  0  0  0  0
 12 18  1  0  0  0  0
 13 12  2  0  0  0  0
 13  3  1  0  0  0  0
 14 13  1  0  0  0  0
 15 16  1  0  0  0  0
 15 14  2  0  0  0  0
 16 11  2  0  0  0  0
 19 15  1  0  0  0  0
 20 21  2  0  0  0  0
 20 25  1  0  0  0  0
 21 22  1  0  0  0  0
 22 27  1  0  0  0  0
 22 23  2  0  0  0  0
 23 28  1  0  0  0  0
 24 23  1  0  0  0  0
 24 29  1  0  0  0  0
 25 24  2  0  0  0  0
 26 21  1  0  0  0  0
 30 29  1  0  0  0  0
M  END
>  <minimizedAffinity>
-5.03330946

$$$$

 OpenBabel03252502133D

 30 32  0  0  0  0  0  0  0  0999 V2000
   36.3790   29.7720   36.6370 Cl  0  0  0  0  0  0  0  0  0  0  0  0
   36.4050   28.4080   37.7230 C   0  0  0  0  0  0  0  0  0  0  0  0
   36.8900   28.5120   38.9820 C   0  0  0  0  0  0  0  0  0  0  0  0
   36.8570   27.3640   39.7430 C   0  0  0  0  0  0  0  0  0  0  0  0
   36.3760   26.1790   39.3010 C   0  0  0  0  0  0  0  0  0  0  0  0
   35.8850   26.0810   38.0200 C   0  0  0  0  0  0  0  0  0  0  0  0
   35.9040   27.2010   37.2410 C   0  0  0  0  0  0  0  0  0  0  0  0
   36.3550   25.2870   39.9030 H   0  0  0  0  0  0  0  0  0  0  0  0
   35.4820   25.1730   37.5870 H   0  0  0  0  0  0  0  0  0  0  0  0
   35.5180   27.1450   36.2190 H   0  0  0  0  0  0  0  0  0  0  0  0
   37.1360   31.9730   40.4940 C   0  0  0  0  0  0  0  0  0  0  0  0
   36.6170   30.7390   40.0610 C   0  0  0  0  0  0  0  0  0  0  0  0
   37.3960   29.7810   39.4330 C   0  0  0  0  0  0  0  0  0  0  0  0
   38.7100   30.1230   39.2600 N   0  0  0  0  0  0  0  0  0  0  0  0
   39.2020   31.2970   39.6710 C   0  0  0  0  0  0  0  0  0  0  0  0
   38.4370   32.2210   40.2820 N   0  0  0  0  0  0  0  0  0  0  0  0
   36.4030   32.5900   40.9560 H   0  0  0  0  0  0  0  0  0  0  0  0
   35.5740   30.4500   40.1900 H   0  0  0  0  0  0  0  0  0  0  0  0
   40.2350   31.5960   39.5500 H   0  0  0  0  0  0  0  0  0  0  0  0
   37.3810   27.4430   41.1270 C   0  0  0  0  0  0  0  0  0  0  0  0
   36.4470   27.6670   42.1440 C   0  0  0  0  0  0  0  0  0  0  0  0
   37.0310   27.7250   43.3880 C   0  0  0  0  0  0  0  0  0  0  0  0
   38.3550   27.5900   43.6730 C   0  0  0  0  0  0  0  0  0  0  0  0
   39.2200   27.3680   42.5900 C   0  0  0  0  0  0  0  0  0  0  0  0
   38.6780   27.3080   41.3640 N   0  0  0  0  0  0  0  0  0  0  0  0
   35.3970   27.7830   42.0090 H   0  0  0  0  0  0  0  0  0  0  0  0
   36.3930   27.8960   44.2690 H   0  0  0  0  0  0  0  0  0  0  0  0
   38.7710   27.6420   44.6660 H   0  0  0  0  0  0  0  0  0  0  0  0
   40.6770   27.2060   42.7570 C   0  0  0  0  0  2  0  0  0  0  0  0
   41.1990   28.1780   42.8060 H   0  0  0  0  0  0  0  0  0  0  0  0
  1  2  1  0  0  0  0
  2  3  1  0  0  0  0
  3 13  1  0  0  0  0
  3  4  2  0  0  0  0
  4 20  1  0  0  0  0
  5  4  1  0  0  0  0
  5  8  1  0  0  0  0
  6  5  2  0  0  0  0
  7  2  2  0  0  0  0
  7  6  1  0  0  0  0
  9  6  1  0  0  0  0
 10  7  1  0  0  0  0
 11 17  1  0  0  0  0
 12 18  1  0  0  0  0
 12 11  2  0  0  0  0
 13 12  1  0  0  0  0
 14 13  2  0  0  0  0
 14 15  1  0  0  0  0
 15 16  2  0  0  0  0
 16 11  1  0  0  0  0
 19 15  1  0  0  0  0
 20 25  2  0  0  0  0
 20 21  1  0  0  0  0
 21 22  2  0  0  0  0
 22 23  1  0  0  0  0
 22 27  1  0  0  0  0
 23 28  1  0  0  0  0
 24 29  1  0  0  0  0
 24 23  2  0  0  0  0
 25 24  1  0  0  0  0
 26 21  1  0  0  0  0
 29 30  1  0  0  0  0
M  END
>  <minimizedAffinity>
-5.01490116

$$$$
