
 OpenBabel03242517523D

 25 26  0  0  0  0  0  0  0  0999 V2000
   45.6840   30.3860   47.0100 C   0  0  0  0  0  0  0  0  0  0  0  0
   46.4370   31.5180   46.9000 C   0  0  0  0  0  0  0  0  0  0  0  0
   46.4950   32.3680   48.0040 C   0  0  0  0  0  0  0  0  0  0  0  0
   45.8250   32.0910   49.1720 C   0  0  0  0  0  0  0  0  0  0  0  0
   45.0630   30.9330   49.2610 C   0  0  0  0  0  0  0  0  0  0  0  0
   44.9990   30.0780   48.1620 C   0  0  0  0  0  0  0  0  0  0  0  0
   47.0560   33.2820   48.0300 H   0  0  0  0  0  0  0  0  0  0  0  0
   45.8580   32.7380   50.0380 H   0  0  0  0  0  0  0  0  0  0  0  0
   44.5360   30.7150   50.1790 H   0  0  0  0  0  0  0  0  0  0  0  0
   44.4200   29.1700   48.1920 H   0  0  0  0  0  0  0  0  0  0  0  0
   45.6640   29.3810   45.5900 S   0  0  0  0  0  0  0  0  0  0  0  0
   44.8590   29.9890   44.4800 O   0  0  0  0  0  0  0  0  0  0  0  0
   44.9720   28.0720   45.9590 O   0  0  0  0  0  0  0  0  0  0  0  0
   46.9250   29.0320   45.1660 H   0  0  0  0  0  0  0  0  0  0  0  0
   47.1810   31.9740   45.8240 O   0  0  0  0  0  0  0  0  0  0  0  0
   47.2610   34.0130   42.9320 C   0  0  0  0  0  0  0  0  0  0  0  0
   46.2090   34.9100   43.1330 C   0  0  0  0  0  0  0  0  0  0  0  0
   45.4690   34.7910   44.2990 C   0  0  0  0  0  0  0  0  0  0  0  0
   45.8010   33.8250   45.1680 N   0  0  0  0  0  0  0  0  0  0  0  0
   46.8180   32.9710   44.9550 C   0  0  0  0  0  0  0  0  0  0  0  0
   47.5390   33.0780   43.8320 N   0  0  0  0  0  0  0  0  0  0  0  0
   47.8290   34.1170   42.0190 H   0  0  0  0  0  0  0  0  0  0  0  0
   45.9690   35.6730   42.4160 H   0  0  0  0  0  0  0  0  0  0  0  0
   44.3610   35.7350   44.5120 C   0  0  0  0  0  0  0  0  0  0  0  0
   44.2100   36.2980   43.5690 H   0  0  0  0  0  0  0  0  0  0  0  0
  1  6  1  0  0  0  0
  2  1  2  0  0  0  0
  2  3  1  0  0  0  0
  3  7  1  0  0  0  0
  3  4  2  0  0  0  0
  4  5  1  0  0  0  0
  4  8  1  0  0  0  0
  5  9  1  0  0  0  0
  6 10  1  0  0  0  0
  6  5  2  0  0  0  0
 11 13  2  0  0  0  0
 11  1  1  0  0  0  0
 12 11  2  0  0  0  0
 14 11  1  0  0  0  0
 15  2  1  0  0  0  0
 16 17  2  0  0  0  0
 16 21  1  0  0  0  0
 17 18  1  0  0  0  0
 18 24  1  0  0  0  0
 18 19  2  0  0  0  0
 20 19  1  0  0  0  0
 20 15  1  0  0  0  0
 21 20  2  0  0  0  0
 22 16  1  0  0  0  0
 23 17  1  0  0  0  0
 25 24  1  0  0  0  0
M  END
>  <minimizedAffinity>
-4.6834507

>  <minimizedRMSD>
1.08651042

$$$$
