
 OpenBabel03252502393D

 39 41  0  0  1  0  0  0  0  0999 V2000
   45.8630   32.4250   39.8810 C   0  0  1  0  0  0  0  0  0  0  0  0
   45.3940   31.4100   39.7330 H   0  0  0  0  0  0  0  0  0  0  0  0
   44.7870   33.3680   39.7480 N   0  0  0  0  0  0  0  0  0  0  0  0
   43.8210   32.9750   38.7880 C   0  0  0  0  0  0  0  0  0  0  0  0
   43.0050   34.2470   38.4970 C   0  0  0  0  0  0  0  0  0  0  0  0
   42.2170   34.4100   39.6900 N   0  0  0  0  0  0  0  0  0  0  0  0
   42.9870   34.5800   40.8590 C   0  0  0  0  0  0  0  0  0  0  0  0
   44.2090   33.6840   40.9870 C   0  0  0  0  0  0  0  0  0  0  0  0
   43.0870   32.2410   39.1910 H   0  0  0  0  0  0  0  0  0  0  0  0
   44.2740   32.5860   37.8540 H   0  0  0  0  0  0  0  0  0  0  0  0
   43.6620   35.0880   38.2830 H   0  0  0  0  0  0  0  0  0  0  0  0
   42.3340   34.0270   37.6600 H   0  0  0  0  0  0  0  0  0  0  0  0
   41.6770   35.3130   39.5420 H   0  0  0  0  0  0  0  0  0  0  0  0
   43.3150   35.6370   40.9380 H   0  0  0  0  0  0  0  0  0  0  0  0
   42.2860   34.4530   41.7270 H   0  0  0  0  0  0  0  0  0  0  0  0
   44.7550   34.1220   41.7900 H   0  0  0  0  0  0  0  0  0  0  0  0
   43.6660   32.7280   41.2780 H   0  0  0  0  0  0  0  0  0  0  0  0
   47.8730   31.5710   38.6800 C   0  0  0  0  0  0  0  0  0  0  0  0
   46.9510   32.5610   38.9600 C   0  0  0  0  0  0  0  0  0  0  0  0
   47.1240   33.7770   38.2710 C   0  0  0  0  0  0  0  0  0  0  0  0
   48.1610   33.9130   37.3890 N   0  0  0  0  0  0  0  0  0  0  0  0
   49.0280   32.8990   37.1620 C   0  0  0  0  0  0  0  0  0  0  0  0
   48.8820   31.7140   37.8160 N   0  0  0  0  0  0  0  0  0  0  0  0
   47.7590   30.6280   39.1960 H   0  0  0  0  0  0  0  0  0  0  0  0
   46.4440   34.5960   38.4380 H   0  0  0  0  0  0  0  0  0  0  0  0
   49.8540   32.9860   36.4700 H   0  0  0  0  0  0  0  0  0  0  0  0
   46.4280   32.5110   41.3050 C   0  0  0  0  0  0  0  0  0  0  0  0
   46.8550   31.4570   41.3450 H   0  0  0  0  0  0  0  0  0  0  0  0
   45.7070   32.4490   42.1100 H   0  0  0  0  0  0  0  0  0  0  0  0
   47.4180   33.5140   41.5340 C   0  0  0  0  0  0  0  0  0  0  0  0
   47.4940   34.8660   41.5510 C   0  0  0  0  0  0  0  0  0  0  0  0
   48.6030   35.6540   41.7960 C   0  0  0  0  0  0  0  0  0  0  0  0
   49.7350   34.9990   42.0470 N   0  0  0  0  0  0  0  0  0  0  0  0
   49.7410   33.6850   42.0480 C   0  0  0  0  0  0  0  0  0  0  0  0
   48.6380   33.0020   41.8040 N   0  0  0  0  0  0  0  0  0  0  0  0
   46.5120   35.3270   41.3250 H   0  0  0  0  0  0  0  0  0  0  0  0
   48.4510   36.7240   41.7620 H   0  0  0  0  0  0  0  0  0  0  0  0
   51.0700   33.0460   42.3420 C   0  0  0  0  0  0  0  0  0  0  0  0
   51.0720   32.7100   43.4180 H   0  0  0  0  0  0  0  0  0  0  0  0
  1  2  1  6  0  0  0
  1 27  1  0  0  0  0
  3  1  1  0  0  0  0
  3  8  1  0  0  0  0
  4  9  1  0  0  0  0
  4  3  1  0  0  0  0
  5  4  1  0  0  0  0
  5  6  1  0  0  0  0
  6  7  1  0  0  0  0
  7 14  1  0  0  0  0
  7  8  1  0  0  0  0
  7 15  1  0  0  0  0
  8 17  1  0  0  0  0
  8 16  1  0  0  0  0
 10  4  1  0  0  0  0
 11  5  1  0  0  0  0
 12  5  1  0  0  0  0
 13  6  1  0  0  0  0
 18 19  1  0  0  0  0
 18 24  1  0  0  0  0
 19  1  1  0  0  0  0
 20 25  1  0  0  0  0
 20 19  2  0  0  0  0
 21 20  1  0  0  0  0
 22 21  2  0  0  0  0
 22 23  1  0  0  0  0
 23 18  2  0  0  0  0
 26 22  1  0  0  0  0
 27 28  1  0  0  0  0
 27 30  1  0  0  0  0
 27 29  1  0  0  0  0
 30 31  2  0  0  0  0
 30 35  1  0  0  0  0
 31 32  1  0  0  0  0
 32 33  2  0  0  0  0
 33 34  1  0  0  0  0
 34 38  1  0  0  0  0
 35 34  2  0  0  0  0
 36 31  1  0  0  0  0
 37 32  1  0  0  0  0
 38 39  1  0  0  0  0
M  END
>  <minimizedAffinity>
-3.87462926

>  <minimizedRMSD>
0.475058258

$$$$
