
 OpenBabel03242513243D

 38 40  0  0  1  0  0  0  0  0999 V2000
   46.1000   30.3820   47.4830 C   0  0  2  0  0  0  0  0  0  0  0  0
   44.8140   30.9220   48.0900 C   0  0  0  0  0  0  0  0  0  0  0  0
   45.3870   31.3260   49.4330 C   0  0  0  0  0  0  0  0  0  0  0  0
   46.6010   31.9090   49.1350 O   0  0  0  0  0  0  0  0  0  0  0  0
   47.0460   31.4390   47.9240 C   0  0  1  0  0  0  0  0  0  0  0  0
   46.2440   29.3950   47.9240 H   0  0  0  0  0  0  0  0  0  0  0  0
   44.0580   30.1180   48.1840 H   0  0  0  0  0  0  0  0  0  0  0  0
   44.4300   31.7760   47.5330 H   0  0  0  0  0  0  0  0  0  0  0  0
   44.6820   31.9810   49.9870 H   0  0  0  0  0  0  0  0  0  0  0  0
   45.5870   30.3740   49.9820 H   0  0  0  0  0  0  0  0  0  0  0  0
   47.0620   32.2700   47.2100 H   0  0  0  0  0  0  0  0  0  0  0  0
   48.4330   30.8930   48.0990 C   0  0  1  0  0  0  0  0  0  0  0  0
   49.0690   31.4060   49.3850 C   0  0  0  0  0  0  0  0  0  0  0  0
   49.7460   30.1660   49.9080 C   0  0  0  0  0  0  0  0  0  0  0  0
   49.7180   29.2260   48.8660 O   0  0  0  0  0  0  0  0  0  0  0  0
   48.4240   29.3980   48.3780 C   0  0  0  0  0  0  0  0  0  0  0  0
   49.0890   31.0610   47.2340 H   0  0  0  0  0  0  0  0  0  0  0  0
   48.2960   31.7270   50.1170 H   0  0  0  0  0  0  0  0  0  0  0  0
   49.8210   32.1910   49.1980 H   0  0  0  0  0  0  0  0  0  0  0  0
   49.1830   29.7260   50.7560 H   0  0  0  0  0  0  0  0  0  0  0  0
   50.7920   30.3110   50.1910 H   0  0  0  0  0  0  0  0  0  0  0  0
   47.7700   29.1370   49.2380 H   0  0  0  0  0  0  0  0  0  0  0  0
   48.2210   28.8110   47.4660 H   0  0  0  0  0  0  0  0  0  0  0  0
   46.0120   30.2150   46.0020 C   0  0  0  0  0  0  0  0  0  0  0  0
   46.8000   29.5050   45.6730 H   0  0  0  0  0  0  0  0  0  0  0  0
   45.0150   29.7950   45.7570 H   0  0  0  0  0  0  0  0  0  0  0  0
   46.9150   31.5800   44.1910 C   0  0  0  0  0  0  0  0  0  0  0  0
   46.1630   31.4770   45.2520 C   0  0  0  0  0  0  0  0  0  0  0  0
   46.0960   34.6260   42.3310 C   0  0  0  0  0  0  0  0  0  0  0  0
   47.3800   35.1960   42.1210 C   0  0  0  0  0  0  0  0  0  0  0  0
   48.4860   34.4970   42.6350 C   0  0  0  0  0  0  0  0  0  0  0  0
   48.2910   33.3350   43.2970 N   0  0  0  0  0  0  0  0  0  0  0  0
   47.0480   32.8280   43.4730 C   0  0  0  0  0  0  0  0  0  0  0  0
   45.9600   33.4470   43.0070 N   0  0  0  0  0  0  0  0  0  0  0  0
   45.2320   35.1460   41.9440 H   0  0  0  0  0  0  0  0  0  0  0  0
   47.4730   36.1320   41.5820 H   0  0  0  0  0  0  0  0  0  0  0  0
   49.8490   35.0640   42.4350 C   0  0  0  0  0  0  0  0  0  0  0  0
   50.2710   35.3390   43.4360 H   0  0  0  0  0  0  0  0  0  0  0  0
  1  6  1  1  0  0  0
  1  5  1  0  0  0  0
  1  2  1  0  0  0  0
  2  7  1  0  0  0  0
  2  3  1  0  0  0  0
  3 10  1  0  0  0  0
  3  9  1  0  0  0  0
  4  3  1  0  0  0  0
  5 11  1  6  0  0  0
  5 12  1  0  0  0  0
  5  4  1  0  0  0  0
  8  2  1  0  0  0  0
 12 17  1  6  0  0  0
 12 16  1  0  0  0  0
 12 13  1  0  0  0  0
 13 14  1  0  0  0  0
 13 18  1  0  0  0  0
 14 21  1  0  0  0  0
 14 20  1  0  0  0  0
 15 14  1  0  0  0  0
 16 15  1  0  0  0  0
 16 22  1  0  0  0  0
 19 13  1  0  0  0  0
 23 16  1  0  0  0  0
 24  1  1  0  0  0  0
 25 24  1  0  0  0  0
 26 24  1  0  0  0  0
 27 28  2  0  0  0  0
 28 24  1  0  0  0  0
 29 34  1  0  0  0  0
 30 29  2  0  0  0  0
 30 31  1  0  0  0  0
 31 32  2  0  0  0  0
 32 33  1  0  0  0  0
 33 27  1  0  0  0  0
 34 33  2  0  0  0  0
 35 29  1  0  0  0  0
 36 30  1  0  0  0  0
 37 31  1  0  0  0  0
 37 38  1  0  0  0  0
M  END
>  <minimizedAffinity>
-4.79063749

>  <minimizedRMSD>
0.413423002

$$$$
