
 OpenBabel03242513253D

 38 40  0  0  1  0  0  0  0  0999 V2000
   35.7700   29.8960   39.5130 C   0  0  2  0  0  0  0  0  0  0  0  0
   35.8600   29.0210   38.2720 C   0  0  0  0  0  0  0  0  0  0  0  0
   36.5700   30.0190   37.3800 C   0  0  0  0  0  0  0  0  0  0  0  0
   37.5240   30.5970   38.1920 O   0  0  0  0  0  0  0  0  0  0  0  0
   37.1350   30.4810   39.5050 C   0  0  1  0  0  0  0  0  0  0  0  0
   34.9500   30.5890   39.3270 H   0  0  0  0  0  0  0  0  0  0  0  0
   34.8490   28.7710   37.8940 H   0  0  0  0  0  0  0  0  0  0  0  0
   36.4600   28.1280   38.4470 H   0  0  0  0  0  0  0  0  0  0  0  0
   36.9740   29.5270   36.4710 H   0  0  0  0  0  0  0  0  0  0  0  0
   35.8120   30.8010   37.1280 H   0  0  0  0  0  0  0  0  0  0  0  0
   37.8430   29.8240   40.0220 H   0  0  0  0  0  0  0  0  0  0  0  0
   37.1500   31.8430   40.1350 C   0  0  1  0  0  0  0  0  0  0  0  0
   38.4480   32.0820   40.8980 C   0  0  0  0  0  0  0  0  0  0  0  0
   38.7650   33.5060   40.5220 C   0  0  0  0  0  0  0  0  0  0  0  0
   37.6180   34.0210   39.9010 O   0  0  0  0  0  0  0  0  0  0  0  0
   37.2390   32.9490   39.0950 C   0  0  0  0  0  0  0  0  0  0  0  0
   36.2740   32.0510   40.7620 H   0  0  0  0  0  0  0  0  0  0  0  0
   39.2630   31.4230   40.5250 H   0  0  0  0  0  0  0  0  0  0  0  0
   38.3140   32.0050   41.9890 H   0  0  0  0  0  0  0  0  0  0  0  0
   39.5850   33.5530   39.7770 H   0  0  0  0  0  0  0  0  0  0  0  0
   38.9970   34.1540   41.3720 H   0  0  0  0  0  0  0  0  0  0  0  0
   38.0990   32.8070   38.4050 H   0  0  0  0  0  0  0  0  0  0  0  0
   36.2750   33.1080   38.5820 H   0  0  0  0  0  0  0  0  0  0  0  0
   35.4430   29.1170   40.7440 C   0  0  0  0  0  0  0  0  0  0  0  0
   35.4020   29.8120   41.6090 H   0  0  0  0  0  0  0  0  0  0  0  0
   34.4480   28.6470   40.6050 H   0  0  0  0  0  0  0  0  0  0  0  0
   36.9100   27.8520   42.2300 C   0  0  0  0  0  3  0  0  0  0  0  0
   36.4090   28.0410   41.0400 C   0  0  0  0  0  3  0  0  0  0  0  0
   39.6790   25.9450   43.6790 C   0  0  0  0  0  0  0  0  0  0  0  0
   39.6170   24.7320   42.9440 C   0  0  0  0  0  0  0  0  0  0  0  0
   38.6110   24.6220   41.9690 C   0  0  0  0  0  0  0  0  0  0  0  0
   37.7580   25.6520   41.7720 N   0  0  0  0  0  0  0  0  0  0  0  0
   37.8550   26.7920   42.4960 C   0  0  0  0  0  0  0  0  0  0  0  0
   38.7910   26.9530   43.4360 N   0  0  0  0  0  0  0  0  0  0  0  0
   40.4450   26.0510   44.4340 H   0  0  0  0  0  0  0  0  0  0  0  0
   40.3290   23.9400   43.1490 H   0  0  0  0  0  0  0  0  0  0  0  0
   38.5130   23.3640   41.1770 C   0  0  0  0  0  2  0  0  0  0  0  0
   37.5420   22.8610   41.4250 H   0  0  0  0  0  0  0  0  0  0  0  0
  1  6  1  6  0  0  0
  1 24  1  0  0  0  0
  2  8  1  0  0  0  0
  2  1  1  0  0  0  0
  3  4  1  0  0  0  0
  3  2  1  0  0  0  0
  4  5  1  0  0  0  0
  5  1  1  0  0  0  0
  5 11  1  1  0  0  0
  5 12  1  0  0  0  0
  7  2  1  0  0  0  0
  9  3  1  0  0  0  0
 10  3  1  0  0  0  0
 12 17  1  1  0  0  0
 12 13  1  0  0  0  0
 13 19  1  0  0  0  0
 14 13  1  0  0  0  0
 14 21  1  0  0  0  0
 15 14  1  0  0  0  0
 16 15  1  0  0  0  0
 16 12  1  0  0  0  0
 18 13  1  0  0  0  0
 20 14  1  0  0  0  0
 22 16  1  0  0  0  0
 23 16  1  0  0  0  0
 24 28  1  0  0  0  0
 24 25  1  0  0  0  0
 26 24  1  0  0  0  0
 27 33  1  0  0  0  0
 28 27  2  0  0  0  0
 29 35  1  0  0  0  0
 30 36  1  0  0  0  0
 30 29  2  0  0  0  0
 31 30  1  0  0  0  0
 32 31  2  0  0  0  0
 32 33  1  0  0  0  0
 33 34  2  0  0  0  0
 34 29  1  0  0  0  0
 37 38  1  0  0  0  0
 37 31  1  0  0  0  0
M  END
>  <minimizedAffinity>
-5.32530928

$$$$

 OpenBabel03242513253D

 38 40  0  0  1  0  0  0  0  0999 V2000
   37.5490   26.6320   43.0790 C   0  0  2  0  0  0  0  0  0  0  0  0
   38.8430   27.1590   43.6800 C   0  0  0  0  0  0  0  0  0  0  0  0
   39.6980   25.9400   43.4010 C   0  0  0  0  0  0  0  0  0  0  0  0
   39.3460   25.5500   42.1250 O   0  0  0  0  0  0  0  0  0  0  0  0
   38.0840   26.0110   41.8400 C   0  0  1  0  0  0  0  0  0  0  0  0
   37.1350   25.9480   43.8190 H   0  0  0  0  0  0  0  0  0  0  0  0
   38.7240   27.3450   44.7650 H   0  0  0  0  0  0  0  0  0  0  0  0
   39.2050   28.0430   43.1550 H   0  0  0  0  0  0  0  0  0  0  0  0
   40.7760   26.1680   43.5340 H   0  0  0  0  0  0  0  0  0  0  0  0
   39.3500   25.1500   44.1110 H   0  0  0  0  0  0  0  0  0  0  0  0
   38.1550   26.7490   41.0340 H   0  0  0  0  0  0  0  0  0  0  0  0
   37.2360   24.8550   41.3980 C   0  0  1  0  0  0  0  0  0  0  0  0
   36.6670   25.0910   40.0040 C   0  0  0  0  0  0  0  0  0  0  0  0
   36.8340   23.7340   39.3710 C   0  0  0  0  0  0  0  0  0  0  0  0
   37.1580   22.8460   40.4080 O   0  0  0  0  0  0  0  0  0  0  0  0
   38.0660   23.6060   41.1440 C   0  0  0  0  0  0  0  0  0  0  0  0
   36.4460   24.5850   42.1110 H   0  0  0  0  0  0  0  0  0  0  0  0
   37.2780   25.8280   39.4370 H   0  0  0  0  0  0  0  0  0  0  0  0
   35.5980   25.3630   40.0270 H   0  0  0  0  0  0  0  0  0  0  0  0
   37.6830   23.7230   38.6590 H   0  0  0  0  0  0  0  0  0  0  0  0
   35.9330   23.3530   38.8820 H   0  0  0  0  0  0  0  0  0  0  0  0
   38.9020   23.7960   40.4360 H   0  0  0  0  0  0  0  0  0  0  0  0
   38.3770   23.1220   42.0860 H   0  0  0  0  0  0  0  0  0  0  0  0
   36.5440   27.7120   42.8400 C   0  0  0  0  0  0  0  0  0  0  0  0
   35.5780   27.2460   42.5530 H   0  0  0  0  0  0  0  0  0  0  0  0
   36.4120   28.2790   43.7830 H   0  0  0  0  0  0  0  0  0  0  0  0
   36.1350   29.0490   40.8380 C   0  0  0  0  0  3  0  0  0  0  0  0
   36.9430   28.6720   41.7920 C   0  0  0  0  0  3  0  0  0  0  0  0
   37.0760   30.4830   37.6040 C   0  0  0  0  0  0  0  0  0  0  0  0
   37.3340   31.8370   37.9470 C   0  0  0  0  0  0  0  0  0  0  0  0
   37.1710   32.2010   39.2950 C   0  0  0  0  0  0  0  0  0  0  0  0
   36.7820   31.2700   40.1940 N   0  0  0  0  0  0  0  0  0  0  0  0
   36.5470   29.9900   39.8220 C   0  0  0  0  0  0  0  0  0  0  0  0
   36.6860   29.5860   38.5560 N   0  0  0  0  0  0  0  0  0  0  0  0
   37.1950   30.1820   36.5740 H   0  0  0  0  0  0  0  0  0  0  0  0
   37.6430   32.5390   37.1800 H   0  0  0  0  0  0  0  0  0  0  0  0
   37.4320   33.6130   39.6940 C   0  0  0  0  0  2  0  0  0  0  0  0
   36.4690   34.0700   40.0400 H   0  0  0  0  0  0  0  0  0  0  0  0
  1  2  1  0  0  0  0
  1  6  1  1  0  0  0
  2  7  1  0  0  0  0
  3  9  1  0  0  0  0
  3  2  1  0  0  0  0
  3 10  1  0  0  0  0
  4  3  1  0  0  0  0
  5 11  1  6  0  0  0
  5  4  1  0  0  0  0
  5  1  1  0  0  0  0
  8  2  1  0  0  0  0
 12  5  1  0  0  0  0
 12 17  1  1  0  0  0
 13 19  1  0  0  0  0
 13 12  1  0  0  0  0
 14 13  1  0  0  0  0
 14 15  1  0  0  0  0
 15 16  1  0  0  0  0
 16 12  1  0  0  0  0
 16 23  1  0  0  0  0
 18 13  1  0  0  0  0
 20 14  1  0  0  0  0
 21 14  1  0  0  0  0
 22 16  1  0  0  0  0
 24  1  1  0  0  0  0
 24 26  1  0  0  0  0
 25 24  1  0  0  0  0
 27 28  2  0  0  0  0
 28 24  1  0  0  0  0
 29 30  2  0  0  0  0
 29 34  1  0  0  0  0
 30 31  1  0  0  0  0
 31 37  1  0  0  0  0
 31 32  2  0  0  0  0
 33 32  1  0  0  0  0
 33 27  1  0  0  0  0
 34 33  2  0  0  0  0
 35 29  1  0  0  0  0
 36 30  1  0  0  0  0
 37 38  1  0  0  0  0
M  END
>  <minimizedAffinity>
-5.23553419

$$$$

 OpenBabel03242513253D

 38 40  0  0  1  0  0  0  0  0999 V2000
   39.4150   31.5490   40.9270 C   0  0  2  0  0  0  0  0  0  0  0  0
   40.5180   32.5790   40.7350 C   0  0  0  0  0  0  0  0  0  0  0  0
   39.9690   33.2230   39.4800 C   0  0  0  0  0  0  0  0  0  0  0  0
   38.6120   33.3330   39.7080 O   0  0  0  0  0  0  0  0  0  0  0  0
   38.2310   32.3980   40.6390 C   0  0  1  0  0  0  0  0  0  0  0  0
   39.6220   30.7560   40.2090 H   0  0  0  0  0  0  0  0  0  0  0  0
   41.4920   32.0810   40.5560 H   0  0  0  0  0  0  0  0  0  0  0  0
   40.5690   33.2790   41.5690 H   0  0  0  0  0  0  0  0  0  0  0  0
   40.4810   34.1850   39.2670 H   0  0  0  0  0  0  0  0  0  0  0  0
   40.1220   32.4800   38.6590 H   0  0  0  0  0  0  0  0  0  0  0  0
   37.8970   32.9200   41.5420 H   0  0  0  0  0  0  0  0  0  0  0  0
   37.1010   31.5870   40.0730 C   0  0  1  0  0  0  0  0  0  0  0  0
   37.6210   30.3720   39.3150 C   0  0  0  0  0  0  0  0  0  0  0  0
   36.6580   29.3010   39.7560 C   0  0  0  0  0  0  0  0  0  0  0  0
   35.6020   29.9560   40.4080 O   0  0  0  0  0  0  0  0  0  0  0  0
   36.2930   30.9010   41.1650 C   0  0  0  0  0  0  0  0  0  0  0  0
   36.3990   32.1690   39.4620 H   0  0  0  0  0  0  0  0  0  0  0  0
   38.6440   30.0930   39.6520 H   0  0  0  0  0  0  0  0  0  0  0  0
   37.5600   30.5010   38.2220 H   0  0  0  0  0  0  0  0  0  0  0  0
   37.1230   28.6200   40.4980 H   0  0  0  0  0  0  0  0  0  0  0  0
   36.2270   28.7190   38.9360 H   0  0  0  0  0  0  0  0  0  0  0  0
   36.9340   30.2960   41.8410 H   0  0  0  0  0  0  0  0  0  0  0  0
   35.6290   31.6090   41.6900 H   0  0  0  0  0  0  0  0  0  0  0  0
   39.4210   30.9460   42.2930 C   0  0  0  0  0  0  0  0  0  0  0  0
   40.2510   31.3940   42.8790 H   0  0  0  0  0  0  0  0  0  0  0  0
   38.4560   31.1860   42.7840 H   0  0  0  0  0  0  0  0  0  0  0  0
   38.7480   28.6860   42.9240 C   0  0  0  0  0  3  0  0  0  0  0  0
   39.5720   29.4780   42.2940 C   0  0  0  0  0  3  0  0  0  0  0  0
   40.1370   25.3430   43.4710 C   0  0  0  0  0  0  0  0  0  0  0  0
   39.1670   24.5150   42.8460 C   0  0  0  0  0  0  0  0  0  0  0  0
   38.0620   25.1540   42.2560 C   0  0  0  0  0  0  0  0  0  0  0  0
   37.9660   26.5010   42.3040 N   0  0  0  0  0  0  0  0  0  0  0  0
   38.9170   27.2510   42.9110 C   0  0  0  0  0  0  0  0  0  0  0  0
   39.9880   26.7000   43.4890 N   0  0  0  0  0  0  0  0  0  0  0  0
   40.9940   24.8730   43.9310 H   0  0  0  0  0  0  0  0  0  0  0  0
   39.2990   23.4390   42.8400 H   0  0  0  0  0  0  0  0  0  0  0  0
   37.0230   24.3190   41.5900 C   0  0  0  0  0  2  0  0  0  0  0  0
   36.0630   24.4240   42.1600 H   0  0  0  0  0  0  0  0  0  0  0  0
  1  6  1  6  0  0  0
  1 24  1  0  0  0  0
  2  1  1  0  0  0  0
  2  8  1  0  0  0  0
  3  4  1  0  0  0  0
  3  2  1  0  0  0  0
  4  5  1  0  0  0  0
  5  1  1  0  0  0  0
  5 11  1  1  0  0  0
  7  2  1  0  0  0  0
  9  3  1  0  0  0  0
 10  3  1  0  0  0  0
 12 17  1  6  0  0  0
 12  5  1  0  0  0  0
 12 16  1  0  0  0  0
 13 18  1  0  0  0  0
 13 14  1  0  0  0  0
 13 12  1  0  0  0  0
 14 15  1  0  0  0  0
 14 20  1  0  0  0  0
 15 16  1  0  0  0  0
 16 23  1  0  0  0  0
 16 22  1  0  0  0  0
 19 13  1  0  0  0  0
 21 14  1  0  0  0  0
 24 28  1  0  0  0  0
 24 26  1  0  0  0  0
 24 25  1  0  0  0  0
 28 27  2  0  0  0  0
 29 34  1  0  0  0  0
 29 35  1  0  0  0  0
 30 29  2  0  0  0  0
 31 32  2  0  0  0  0
 31 30  1  0  0  0  0
 32 33  1  0  0  0  0
 33 27  1  0  0  0  0
 33 34  2  0  0  0  0
 36 30  1  0  0  0  0
 37 38  1  0  0  0  0
 37 31  1  0  0  0  0
M  END
>  <minimizedAffinity>
-5.09275055

$$$$

 OpenBabel03242513253D

 38 40  0  0  1  0  0  0  0  0999 V2000
   37.8690   28.0670   42.4010 C   0  0  2  0  0  0  0  0  0  0  0  0
   39.1770   28.2350   43.1580 C   0  0  0  0  0  0  0  0  0  0  0  0
   39.6650   29.4730   42.4330 C   0  0  0  0  0  0  0  0  0  0  0  0
   38.5440   30.2680   42.3080 O   0  0  0  0  0  0  0  0  0  0  0  0
   37.4190   29.4820   42.3640 C   0  0  1  0  0  0  0  0  0  0  0  0
   38.1360   27.6230   41.4430 H   0  0  0  0  0  0  0  0  0  0  0  0
   39.8420   27.3650   42.9900 H   0  0  0  0  0  0  0  0  0  0  0  0
   39.0120   28.4190   44.2200 H   0  0  0  0  0  0  0  0  0  0  0  0
   40.5090   29.9470   42.9750 H   0  0  0  0  0  0  0  0  0  0  0  0
   39.9640   29.1340   41.4120 H   0  0  0  0  0  0  0  0  0  0  0  0
   36.8590   29.7370   43.2700 H   0  0  0  0  0  0  0  0  0  0  0  0
   36.5780   29.7570   41.1520 C   0  0  1  0  0  0  0  0  0  0  0  0
   36.6580   31.2230   40.7470 C   0  0  0  0  0  0  0  0  0  0  0  0
   36.7560   31.1220   39.2470 C   0  0  0  0  0  0  0  0  0  0  0  0
   36.4510   29.7920   38.9160 O   0  0  0  0  0  0  0  0  0  0  0  0
   37.1470   29.0990   39.9040 C   0  0  0  0  0  0  0  0  0  0  0  0
   35.5360   29.4260   41.2510 H   0  0  0  0  0  0  0  0  0  0  0  0
   37.5860   31.7000   41.1340 H   0  0  0  0  0  0  0  0  0  0  0  0
   35.7510   31.7860   41.0240 H   0  0  0  0  0  0  0  0  0  0  0  0
   37.7900   31.3140   38.8960 H   0  0  0  0  0  0  0  0  0  0  0  0
   36.0540   31.7630   38.7060 H   0  0  0  0  0  0  0  0  0  0  0  0
   38.2110   29.3730   39.7360 H   0  0  0  0  0  0  0  0  0  0  0  0
   36.9560   28.0120   39.8910 H   0  0  0  0  0  0  0  0  0  0  0  0
   36.9210   27.1400   43.0890 C   0  0  0  0  0  0  0  0  0  0  0  0
   37.2640   26.9850   44.1340 H   0  0  0  0  0  0  0  0  0  0  0  0
   35.9180   27.6110   43.0990 H   0  0  0  0  0  0  0  0  0  0  0  0
   37.3390   25.5610   41.2730 C   0  0  0  0  0  3  0  0  0  0  0  0
   36.7920   25.8250   42.4290 C   0  0  0  0  0  3  0  0  0  0  0  0
   38.0240   22.1370   40.1750 C   0  0  0  0  0  0  0  0  0  0  0  0
   36.8570   21.8290   39.4270 C   0  0  0  0  0  0  0  0  0  0  0  0
   35.8720   22.8270   39.3320 C   0  0  0  0  0  0  0  0  0  0  0  0
   36.0680   24.0170   39.9430 N   0  0  0  0  0  0  0  0  0  0  0  0
   37.1980   24.2670   40.6460 C   0  0  0  0  0  0  0  0  0  0  0  0
   38.1680   23.3570   40.7720 N   0  0  0  0  0  0  0  0  0  0  0  0
   38.7940   21.3830   40.2610 H   0  0  0  0  0  0  0  0  0  0  0  0
   36.7570   20.8560   38.9590 H   0  0  0  0  0  0  0  0  0  0  0  0
   34.6330   22.5420   38.5550 C   0  0  0  0  0  2  0  0  0  0  0  0
   33.7620   22.5420   39.2610 H   0  0  0  0  0  0  0  0  0  0  0  0
  1  6  1  6  0  0  0
  1 24  1  0  0  0  0
  1  2  1  0  0  0  0
  2  8  1  0  0  0  0
  3  9  1  0  0  0  0
  3  2  1  0  0  0  0
  4  5  1  0  0  0  0
  4  3  1  0  0  0  0
  5  1  1  0  0  0  0
  5 11  1  1  0  0  0
  7  2  1  0  0  0  0
 10  3  1  0  0  0  0
 12 17  1  1  0  0  0
 12  5  1  0  0  0  0
 13 19  1  0  0  0  0
 13 18  1  0  0  0  0
 13 12  1  0  0  0  0
 14 13  1  0  0  0  0
 15 14  1  0  0  0  0
 15 16  1  0  0  0  0
 16 12  1  0  0  0  0
 20 14  1  0  0  0  0
 21 14  1  0  0  0  0
 22 16  1  0  0  0  0
 23 16  1  0  0  0  0
 24 26  1  0  0  0  0
 24 25  1  0  0  0  0
 27 28  2  0  0  0  0
 28 24  1  0  0  0  0
 29 35  1  0  0  0  0
 29 34  1  0  0  0  0
 30 29  2  0  0  0  0
 31 30  1  0  0  0  0
 31 32  2  0  0  0  0
 32 33  1  0  0  0  0
 33 34  2  0  0  0  0
 33 27  1  0  0  0  0
 36 30  1  0  0  0  0
 37 38  1  0  0  0  0
 37 31  1  0  0  0  0
M  END
>  <minimizedAffinity>
-4.77007627

$$$$

 OpenBabel03242513253D

 38 40  0  0  1  0  0  0  0  0999 V2000
   37.1830   25.2360   41.8060 C   0  0  2  0  0  0  0  0  0  0  0  0
   38.4300   24.4750   42.2280 C   0  0  0  0  0  0  0  0  0  0  0  0
   38.6200   23.6860   40.9490 C   0  0  0  0  0  0  0  0  0  0  0  0
   38.3710   24.5930   39.9390 O   0  0  0  0  0  0  0  0  0  0  0  0
   37.5720   25.6010   40.4200 C   0  0  1  0  0  0  0  0  0  0  0  0
   36.3580   24.5310   41.9030 H   0  0  0  0  0  0  0  0  0  0  0  0
   38.2150   23.8180   43.0940 H   0  0  0  0  0  0  0  0  0  0  0  0
   39.2670   25.1440   42.4260 H   0  0  0  0  0  0  0  0  0  0  0  0
   39.6260   23.2200   40.9130 H   0  0  0  0  0  0  0  0  0  0  0  0
   37.8060   22.9210   40.9340 H   0  0  0  0  0  0  0  0  0  0  0  0
   38.1430   26.5360   40.4080 H   0  0  0  0  0  0  0  0  0  0  0  0
   36.3690   25.7290   39.5300 C   0  0  1  0  0  0  0  0  0  0  0  0
   36.2840   27.1220   38.9170 C   0  0  0  0  0  0  0  0  0  0  0  0
   35.8780   26.8080   37.5010 C   0  0  0  0  0  0  0  0  0  0  0  0
   35.5040   25.4550   37.4820 O   0  0  0  0  0  0  0  0  0  0  0  0
   36.5010   24.8850   38.2710 C   0  0  0  0  0  0  0  0  0  0  0  0
   35.4260   25.4480   40.0160 H   0  0  0  0  0  0  0  0  0  0  0  0
   37.2790   27.6180   38.9020 H   0  0  0  0  0  0  0  0  0  0  0  0
   35.5120   27.7450   39.3970 H   0  0  0  0  0  0  0  0  0  0  0  0
   36.7320   26.9160   36.8020 H   0  0  0  0  0  0  0  0  0  0  0  0
   35.0250   27.3890   37.1380 H   0  0  0  0  0  0  0  0  0  0  0  0
   37.4430   25.1000   37.7220 H   0  0  0  0  0  0  0  0  0  0  0  0
   36.3360   23.8140   38.4770 H   0  0  0  0  0  0  0  0  0  0  0  0
   36.8950   26.4050   42.6900 C   0  0  0  0  0  0  0  0  0  0  0  0
   35.8080   26.6270   42.6490 H   0  0  0  0  0  0  0  0  0  0  0  0
   37.1730   26.1320   43.7290 H   0  0  0  0  0  0  0  0  0  0  0  0
   37.0860   28.7980   42.2460 C   0  0  0  0  0  3  0  0  0  0  0  0
   37.6470   27.6230   42.3300 C   0  0  0  0  0  3  0  0  0  0  0  0
   39.7630   31.2890   42.0710 C   0  0  0  0  0  0  0  0  0  0  0  0
   39.2230   32.2380   41.1650 C   0  0  0  0  0  0  0  0  0  0  0  0
   37.9430   31.9760   40.6470 C   0  0  0  0  0  0  0  0  0  0  0  0
   37.2890   30.8540   41.0220 N   0  0  0  0  0  0  0  0  0  0  0  0
   37.8430   29.9760   41.8900 C   0  0  0  0  0  0  0  0  0  0  0  0
   39.0560   30.1720   42.4150 N   0  0  0  0  0  0  0  0  0  0  0  0
   40.7460   31.4710   42.4820 H   0  0  0  0  0  0  0  0  0  0  0  0
   39.7960   33.1200   40.9010 H   0  0  0  0  0  0  0  0  0  0  0  0
   37.3410   32.9500   39.6930 C   0  0  0  0  0  2  0  0  0  0  0  0
   37.2300   32.4490   38.6960 H   0  0  0  0  0  0  0  0  0  0  0  0
  1  6  1  6  0  0  0
  1  2  1  0  0  0  0
  1 24  1  0  0  0  0
  2  8  1  0  0  0  0
  2  7  1  0  0  0  0
  3  2  1  0  0  0  0
  4  5  1  0  0  0  0
  4  3  1  0  0  0  0
  5 11  1  1  0  0  0
  5  1  1  0  0  0  0
  9  3  1  0  0  0  0
 10  3  1  0  0  0  0
 12 17  1  1  0  0  0
 12  5  1  0  0  0  0
 13 19  1  0  0  0  0
 13 12  1  0  0  0  0
 14 13  1  0  0  0  0
 15 14  1  0  0  0  0
 15 16  1  0  0  0  0
 16 23  1  0  0  0  0
 16 12  1  0  0  0  0
 18 13  1  0  0  0  0
 20 14  1  0  0  0  0
 21 14  1  0  0  0  0
 22 16  1  0  0  0  0
 24 26  1  0  0  0  0
 25 24  1  0  0  0  0
 27 28  2  0  0  0  0
 28 24  1  0  0  0  0
 29 34  1  0  0  0  0
 29 35  1  0  0  0  0
 30 29  2  0  0  0  0
 31 32  2  0  0  0  0
 31 30  1  0  0  0  0
 32 33  1  0  0  0  0
 33 27  1  0  0  0  0
 33 34  2  0  0  0  0
 36 30  1  0  0  0  0
 37 31  1  0  0  0  0
 38 37  1  0  0  0  0
M  END
>  <minimizedAffinity>
-4.6881218

$$$$

 OpenBabel03242513253D

 38 40  0  0  1  0  0  0  0  0999 V2000
   37.3330   31.5070   40.1780 C   0  0  2  0  0  0  0  0  0  0  0  0
   36.9660   31.3590   38.7080 C   0  0  0  0  0  0  0  0  0  0  0  0
   38.2600   31.8930   38.1300 C   0  0  0  0  0  0  0  0  0  0  0  0
   39.2500   31.3340   38.9110 O   0  0  0  0  0  0  0  0  0  0  0  0
   38.7290   31.0020   40.1370 C   0  0  1  0  0  0  0  0  0  0  0  0
   37.2110   32.5650   40.4080 H   0  0  0  0  0  0  0  0  0  0  0  0
   36.1000   32.0010   38.4540 H   0  0  0  0  0  0  0  0  0  0  0  0
   36.7930   30.3180   38.4360 H   0  0  0  0  0  0  0  0  0  0  0  0
   38.3390   31.6620   37.0470 H   0  0  0  0  0  0  0  0  0  0  0  0
   38.2520   32.9940   38.3200 H   0  0  0  0  0  0  0  0  0  0  0  0
   38.7520   29.9120   40.2440 H   0  0  0  0  0  0  0  0  0  0  0  0
   39.5700   31.6350   41.2070 C   0  0  1  0  0  0  0  0  0  0  0  0
   39.8130   30.6690   42.3600 C   0  0  0  0  0  0  0  0  0  0  0  0
   41.2670   30.9170   42.6660 C   0  0  0  0  0  0  0  0  0  0  0  0
   41.6310   32.0780   41.9660 O   0  0  0  0  0  0  0  0  0  0  0  0
   41.0000   31.8680   40.7420 C   0  0  0  0  0  0  0  0  0  0  0  0
   39.1810   32.5960   41.5660 H   0  0  0  0  0  0  0  0  0  0  0  0
   39.6920   29.6120   42.0350 H   0  0  0  0  0  0  0  0  0  0  0  0
   39.2000   30.9080   43.2450 H   0  0  0  0  0  0  0  0  0  0  0  0
   41.9060   30.0960   42.2820 H   0  0  0  0  0  0  0  0  0  0  0  0
   41.4810   31.0920   43.7240 H   0  0  0  0  0  0  0  0  0  0  0  0
   41.4670   30.9400   40.3470 H   0  0  0  0  0  0  0  0  0  0  0  0
   41.0730   32.7310   40.0590 H   0  0  0  0  0  0  0  0  0  0  0  0
   36.4250   30.7340   41.0770 C   0  0  0  0  0  0  0  0  0  0  0  0
   36.7200   30.9210   42.1310 H   0  0  0  0  0  0  0  0  0  0  0  0
   35.3880   31.0930   40.9180 H   0  0  0  0  0  0  0  0  0  0  0  0
   36.8160   28.4140   41.7290 C   0  0  0  0  0  3  0  0  0  0  0  0
   36.4390   29.2790   40.8280 C   0  0  0  0  0  3  0  0  0  0  0  0
   37.0480   24.7890   42.1910 C   0  0  0  0  0  0  0  0  0  0  0  0
   36.8170   24.3100   40.8750 C   0  0  0  0  0  0  0  0  0  0  0  0
   36.5890   25.2680   39.8720 C   0  0  0  0  0  0  0  0  0  0  0  0
   36.5970   26.5820   40.1910 N   0  0  0  0  0  0  0  0  0  0  0  0
   36.8220   26.9940   41.4620 C   0  0  0  0  0  0  0  0  0  0  0  0
   37.0440   26.1290   42.4550 N   0  0  0  0  0  0  0  0  0  0  0  0
   37.2250   24.0690   42.9770 H   0  0  0  0  0  0  0  0  0  0  0  0
   36.8220   23.2430   40.6800 H   0  0  0  0  0  0  0  0  0  0  0  0
   36.3430   24.8040   38.4780 C   0  0  0  0  0  2  0  0  0  0  0  0
   35.2950   25.0790   38.1910 H   0  0  0  0  0  0  0  0  0  0  0  0
  1  6  1  1  0  0  0
  1 24  1  0  0  0  0
  2  1  1  0  0  0  0
  3 10  1  0  0  0  0
  3  2  1  0  0  0  0
  3  4  1  0  0  0  0
  4  5  1  0  0  0  0
  5  1  1  0  0  0  0
  5 11  1  1  0  0  0
  5 12  1  0  0  0  0
  7  2  1  0  0  0  0
  8  2  1  0  0  0  0
  9  3  1  0  0  0  0
 12 17  1  1  0  0  0
 12 13  1  0  0  0  0
 13 14  1  0  0  0  0
 13 19  1  0  0  0  0
 14 21  1  0  0  0  0
 15 14  1  0  0  0  0
 16 12  1  0  0  0  0
 16 15  1  0  0  0  0
 18 13  1  0  0  0  0
 20 14  1  0  0  0  0
 22 16  1  0  0  0  0
 23 16  1  0  0  0  0
 24 25  1  0  0  0  0
 26 24  1  0  0  0  0
 28 24  1  0  0  0  0
 28 27  2  0  0  0  0
 29 34  1  0  0  0  0
 29 35  1  0  0  0  0
 30 29  2  0  0  0  0
 31 32  2  0  0  0  0
 31 30  1  0  0  0  0
 32 33  1  0  0  0  0
 33 27  1  0  0  0  0
 33 34  2  0  0  0  0
 36 30  1  0  0  0  0
 37 31  1  0  0  0  0
 38 37  1  0  0  0  0
M  END
>  <minimizedAffinity>
-4.67512703

$$$$

 OpenBabel03242513253D

 38 40  0  0  1  0  0  0  0  0999 V2000
   37.6670   25.9850   42.1830 C   0  0  2  0  0  0  0  0  0  0  0  0
   36.7990   24.7730   41.8800 C   0  0  0  0  0  0  0  0  0  0  0  0
   37.9120   23.8410   41.4450 C   0  0  0  0  0  0  0  0  0  0  0  0
   38.9290   24.0640   42.3500 O   0  0  0  0  0  0  0  0  0  0  0  0
   38.7870   25.3180   42.8930 C   0  0  1  0  0  0  0  0  0  0  0  0
   37.9060   26.4270   41.2170 H   0  0  0  0  0  0  0  0  0  0  0  0
   36.0930   24.9920   41.0550 H   0  0  0  0  0  0  0  0  0  0  0  0
   36.2830   24.4100   42.7690 H   0  0  0  0  0  0  0  0  0  0  0  0
   37.5570   22.7900   41.3980 H   0  0  0  0  0  0  0  0  0  0  0  0
   38.2510   24.2100   40.4460 H   0  0  0  0  0  0  0  0  0  0  0  0
   38.5650   25.2130   43.9610 H   0  0  0  0  0  0  0  0  0  0  0  0
   40.0740   26.0700   42.7130 C   0  0  1  0  0  0  0  0  0  0  0  0
   41.2780   25.1610   42.9290 C   0  0  0  0  0  0  0  0  0  0  0  0
   42.1940   25.5980   41.8160 C   0  0  0  0  0  0  0  0  0  0  0  0
   41.6550   26.7850   41.2960 O   0  0  0  0  0  0  0  0  0  0  0  0
   40.2960   26.4770   41.2640 C   0  0  0  0  0  0  0  0  0  0  0  0
   40.1450   26.9790   43.3240 H   0  0  0  0  0  0  0  0  0  0  0  0
   41.0100   24.0930   42.7730 H   0  0  0  0  0  0  0  0  0  0  0  0
   41.7650   25.3340   43.9030 H   0  0  0  0  0  0  0  0  0  0  0  0
   42.2050   24.8590   40.9890 H   0  0  0  0  0  0  0  0  0  0  0  0
   43.2170   25.8150   42.1350 H   0  0  0  0  0  0  0  0  0  0  0  0
   40.2270   25.6100   40.5720 H   0  0  0  0  0  0  0  0  0  0  0  0
   39.6610   27.3320   40.9770 H   0  0  0  0  0  0  0  0  0  0  0  0
   36.9520   27.0150   42.9950 C   0  0  0  0  0  0  0  0  0  0  0  0
   35.8570   26.8610   42.8870 H   0  0  0  0  0  0  0  0  0  0  0  0
   37.2370   26.8810   44.0580 H   0  0  0  0  0  0  0  0  0  0  0  0
   37.2560   28.8190   41.3780 C   0  0  0  0  0  3  0  0  0  0  0  0
   37.2800   28.4030   42.6150 C   0  0  0  0  0  3  0  0  0  0  0  0
   36.9500   32.2860   40.2420 C   0  0  0  0  0  0  0  0  0  0  0  0
   38.2780   32.7630   40.3920 C   0  0  0  0  0  0  0  0  0  0  0  0
   39.2350   31.8580   40.8840 C   0  0  0  0  0  0  0  0  0  0  0  0
   38.8620   30.5950   41.1900 N   0  0  0  0  0  0  0  0  0  0  0  0
   37.5820   30.1830   41.0300 C   0  0  0  0  0  0  0  0  0  0  0  0
   36.6300   30.9990   40.5680 N   0  0  0  0  0  0  0  0  0  0  0  0
   36.1980   32.9660   39.8660 H   0  0  0  0  0  0  0  0  0  0  0  0
   38.5170   33.7880   40.1300 H   0  0  0  0  0  0  0  0  0  0  0  0
   40.6400   32.3210   41.0550 C   0  0  0  0  0  2  0  0  0  0  0  0
   40.8900   32.3060   42.1480 H   0  0  0  0  0  0  0  0  0  0  0  0
  1  6  1  6  0  0  0
  1  5  1  0  0  0  0
  1 24  1  0  0  0  0
  2  1  1  0  0  0  0
  2  8  1  0  0  0  0
  3  2  1  0  0  0  0
  3  4  1  0  0  0  0
  4  5  1  0  0  0  0
  5 11  1  1  0  0  0
  7  2  1  0  0  0  0
  9  3  1  0  0  0  0
 10  3  1  0  0  0  0
 12  5  1  0  0  0  0
 12 13  1  0  0  0  0
 12 17  1  1  0  0  0
 13 19  1  0  0  0  0
 14 21  1  0  0  0  0
 14 13  1  0  0  0  0
 15 14  1  0  0  0  0
 16 15  1  0  0  0  0
 16 12  1  0  0  0  0
 18 13  1  0  0  0  0
 20 14  1  0  0  0  0
 22 16  1  0  0  0  0
 23 16  1  0  0  0  0
 24 26  1  0  0  0  0
 25 24  1  0  0  0  0
 27 28  2  0  0  0  0
 28 24  1  0  0  0  0
 29 30  2  0  0  0  0
 29 34  1  0  0  0  0
 30 31  1  0  0  0  0
 31 37  1  0  0  0  0
 31 32  2  0  0  0  0
 33 32  1  0  0  0  0
 33 27  1  0  0  0  0
 34 33  2  0  0  0  0
 35 29  1  0  0  0  0
 36 30  1  0  0  0  0
 37 38  1  0  0  0  0
M  END
>  <minimizedAffinity>
-4.65589762

$$$$

 OpenBabel03242513253D

 38 40  0  0  1  0  0  0  0  0999 V2000
   37.0710   28.3260   41.6560 C   0  0  2  0  0  0  0  0  0  0  0  0
   37.0110   27.1140   42.5740 C   0  0  0  0  0  0  0  0  0  0  0  0
   38.4120   27.2290   43.1400 C   0  0  0  0  0  0  0  0  0  0  0  0
   38.5850   28.5770   43.3760 O   0  0  0  0  0  0  0  0  0  0  0  0
   37.7380   29.2930   42.5640 C   0  0  1  0  0  0  0  0  0  0  0  0
   37.6450   28.0100   40.7860 H   0  0  0  0  0  0  0  0  0  0  0  0
   36.8740   26.1840   41.9880 H   0  0  0  0  0  0  0  0  0  0  0  0
   36.2470   27.2250   43.3440 H   0  0  0  0  0  0  0  0  0  0  0  0
   38.5360   26.5840   44.0350 H   0  0  0  0  0  0  0  0  0  0  0  0
   39.1040   26.9320   42.3150 H   0  0  0  0  0  0  0  0  0  0  0  0
   37.0040   29.8090   43.1920 H   0  0  0  0  0  0  0  0  0  0  0  0
   38.5440   30.2990   41.7950 C   0  0  1  0  0  0  0  0  0  0  0  0
   39.7380   30.7850   42.6070 C   0  0  0  0  0  0  0  0  0  0  0  0
   40.8260   30.8150   41.5640 C   0  0  0  0  0  0  0  0  0  0  0  0
   40.1920   30.6610   40.3210 O   0  0  0  0  0  0  0  0  0  0  0  0
   39.2600   29.6670   40.6100 C   0  0  0  0  0  0  0  0  0  0  0  0
   37.9530   31.1400   41.4100 H   0  0  0  0  0  0  0  0  0  0  0  0
   40.0180   30.0510   43.3940 H   0  0  0  0  0  0  0  0  0  0  0  0
   39.5850   31.7990   43.0140 H   0  0  0  0  0  0  0  0  0  0  0  0
   41.5200   29.9580   41.6810 H   0  0  0  0  0  0  0  0  0  0  0  0
   41.3910   31.7500   41.5310 H   0  0  0  0  0  0  0  0  0  0  0  0
   39.8760   28.7930   40.9130 H   0  0  0  0  0  0  0  0  0  0  0  0
   38.5690   29.4610   39.7760 H   0  0  0  0  0  0  0  0  0  0  0  0
   35.7210   28.7570   41.1850 C   0  0  0  0  0  0  0  0  0  0  0  0
   34.9580   28.0640   41.5980 H   0  0  0  0  0  0  0  0  0  0  0  0
   35.5300   29.7810   41.5640 H   0  0  0  0  0  0  0  0  0  0  0  0
   34.4510   29.0150   39.1150 C   0  0  0  0  0  3  0  0  0  0  0  0
   35.5890   28.7920   39.7150 C   0  0  0  0  0  3  0  0  0  0  0  0
   33.0580   29.1500   35.7320 C   0  0  0  0  0  0  0  0  0  0  0  0
   34.2280   29.0960   34.9300 C   0  0  0  0  0  0  0  0  0  0  0  0
   35.4620   29.0140   35.5980 C   0  0  0  0  0  0  0  0  0  0  0  0
   35.4890   28.9910   36.9490 N   0  0  0  0  0  0  0  0  0  0  0  0
   34.3470   29.0440   37.6740 C   0  0  0  0  0  0  0  0  0  0  0  0
   33.1450   29.1230   37.0950 N   0  0  0  0  0  0  0  0  0  0  0  0
   32.0990   29.2130   35.2390 H   0  0  0  0  0  0  0  0  0  0  0  0
   34.1430   29.1180   33.8490 H   0  0  0  0  0  0  0  0  0  0  0  0
   36.7130   28.9550   34.7900 C   0  0  0  0  0  2  0  0  0  0  0  0
   37.3090   29.8840   34.9870 H   0  0  0  0  0  0  0  0  0  0  0  0
  1  6  1  6  0  0  0
  1  5  1  0  0  0  0
  1  2  1  0  0  0  0
  2  3  1  0  0  0  0
  2  8  1  0  0  0  0
  3  4  1  0  0  0  0
  3  9  1  0  0  0  0
  5 11  1  1  0  0  0
  5  4  1  0  0  0  0
  7  2  1  0  0  0  0
 10  3  1  0  0  0  0
 12 17  1  6  0  0  0
 12  5  1  0  0  0  0
 12 13  1  0  0  0  0
 13 19  1  0  0  0  0
 13 18  1  0  0  0  0
 14 20  1  0  0  0  0
 14 13  1  0  0  0  0
 15 16  1  0  0  0  0
 15 14  1  0  0  0  0
 16 22  1  0  0  0  0
 16 12  1  0  0  0  0
 21 14  1  0  0  0  0
 23 16  1  0  0  0  0
 24 26  1  0  0  0  0
 24 25  1  0  0  0  0
 24  1  1  0  0  0  0
 27 28  2  0  0  0  0
 28 24  1  0  0  0  0
 29 34  1  0  0  0  0
 30 31  1  0  0  0  0
 30 29  2  0  0  0  0
 31 32  2  0  0  0  0
 32 33  1  0  0  0  0
 33 27  1  0  0  0  0
 34 33  2  0  0  0  0
 35 29  1  0  0  0  0
 36 30  1  0  0  0  0
 37 38  1  0  0  0  0
 37 31  1  0  0  0  0
M  END
>  <minimizedAffinity>
-4.63835478

$$$$

 OpenBabel03242513253D

 38 40  0  0  1  0  0  0  0  0999 V2000
   35.5540   28.1190   37.8320 C   0  0  2  0  0  0  0  0  0  0  0  0
   36.5700   27.3450   37.0050 C   0  0  0  0  0  0  0  0  0  0  0  0
   37.7720   27.5870   37.8950 C   0  0  0  0  0  0  0  0  0  0  0  0
   37.2920   27.4300   39.1790 O   0  0  0  0  0  0  0  0  0  0  0  0
   35.9380   27.6580   39.1900 C   0  0  1  0  0  0  0  0  0  0  0  0
   35.7340   29.1710   37.6130 H   0  0  0  0  0  0  0  0  0  0  0  0
   36.6940   27.8060   36.0050 H   0  0  0  0  0  0  0  0  0  0  0  0
   36.3170   26.2880   36.9350 H   0  0  0  0  0  0  0  0  0  0  0  0
   38.6090   26.9100   37.6290 H   0  0  0  0  0  0  0  0  0  0  0  0
   38.0460   28.6610   37.7580 H   0  0  0  0  0  0  0  0  0  0  0  0
   35.4270   26.7230   39.4430 H   0  0  0  0  0  0  0  0  0  0  0  0
   35.6330   28.7000   40.2270 C   0  0  1  0  0  0  0  0  0  0  0  0
   36.5370   28.5470   41.4440 C   0  0  0  0  0  0  0  0  0  0  0  0
   36.8810   29.9820   41.7510 C   0  0  0  0  0  0  0  0  0  0  0  0
   36.0150   30.7750   40.9820 O   0  0  0  0  0  0  0  0  0  0  0  0
   36.0310   30.0940   39.7660 C   0  0  0  0  0  0  0  0  0  0  0  0
   34.5750   28.7400   40.5180 H   0  0  0  0  0  0  0  0  0  0  0  0
   37.4720   28.0030   41.1870 H   0  0  0  0  0  0  0  0  0  0  0  0
   36.0120   28.0980   42.3030 H   0  0  0  0  0  0  0  0  0  0  0  0
   37.9140   30.2260   41.4310 H   0  0  0  0  0  0  0  0  0  0  0  0
   36.7400   30.2630   42.7990 H   0  0  0  0  0  0  0  0  0  0  0  0
   37.0920   30.1390   39.4390 H   0  0  0  0  0  0  0  0  0  0  0  0
   35.3180   30.5010   39.0290 H   0  0  0  0  0  0  0  0  0  0  0  0
   34.1450   27.8050   37.4520 C   0  0  0  0  0  0  0  0  0  0  0  0
   34.1530   27.1060   36.5890 H   0  0  0  0  0  0  0  0  0  0  0  0
   33.6520   27.3140   38.3160 H   0  0  0  0  0  0  0  0  0  0  0  0
   32.0590   29.0650   37.2980 C   0  0  0  0  0  3  0  0  0  0  0  0
   33.3460   28.9940   37.0960 C   0  0  0  0  0  3  0  0  0  0  0  0
   29.7220   31.8780   37.4670 C   0  0  0  0  0  0  0  0  0  0  0  0
   29.8890   32.4760   36.1900 C   0  0  0  0  0  0  0  0  0  0  0  0
   30.8110   31.8750   35.3150 C   0  0  0  0  0  0  0  0  0  0  0  0
   31.4900   30.7770   35.7130 N   0  0  0  0  0  0  0  0  0  0  0  0
   31.2980   30.2400   36.9410 C   0  0  0  0  0  0  0  0  0  0  0  0
   30.4360   30.7670   37.8150 N   0  0  0  0  0  0  0  0  0  0  0  0
   29.0190   32.3240   38.1560 H   0  0  0  0  0  0  0  0  0  0  0  0
   29.3160   33.3580   35.9280 H   0  0  0  0  0  0  0  0  0  0  0  0
   31.0130   32.4730   33.9650 C   0  0  0  0  0  2  0  0  0  0  0  0
   32.0630   32.8620   33.9010 H   0  0  0  0  0  0  0  0  0  0  0  0
  1  6  1  6  0  0  0
  1  5  1  0  0  0  0
  2  1  1  0  0  0  0
  2  3  1  0  0  0  0
  3  4  1  0  0  0  0
  4  5  1  0  0  0  0
  5 11  1  1  0  0  0
  5 12  1  0  0  0  0
  7  2  1  0  0  0  0
  8  2  1  0  0  0  0
  9  3  1  0  0  0  0
 10  3  1  0  0  0  0
 12 17  1  1  0  0  0
 12 13  1  0  0  0  0
 13 14  1  0  0  0  0
 13 19  1  0  0  0  0
 14 21  1  0  0  0  0
 15 14  1  0  0  0  0
 16 12  1  0  0  0  0
 16 15  1  0  0  0  0
 18 13  1  0  0  0  0
 20 14  1  0  0  0  0
 22 16  1  0  0  0  0
 23 16  1  0  0  0  0
 24  1  1  0  0  0  0
 24 26  1  0  0  0  0
 25 24  1  0  0  0  0
 28 27  2  0  0  0  0
 28 24  1  0  0  0  0
 29 34  1  0  0  0  0
 29 35  1  0  0  0  0
 30 29  2  0  0  0  0
 31 32  2  0  0  0  0
 31 30  1  0  0  0  0
 32 33  1  0  0  0  0
 33 27  1  0  0  0  0
 33 34  2  0  0  0  0
 36 30  1  0  0  0  0
 37 31  1  0  0  0  0
 38 37  1  0  0  0  0
M  END
>  <minimizedAffinity>
-4.59375525

$$$$
