
 OpenBabel03252508283D

 32 34  0  0  1  0  0  0  0  0999 V2000
   45.3940   34.5290   42.0110 C   0  0  0  0  0  0  0  0  0  0  0  0
   44.6590   35.6030   42.4690 C   0  0  0  0  0  0  0  0  0  0  0  0
   43.3140   35.4190   42.1870 C   0  0  0  0  0  0  0  0  0  0  0  0
   43.2710   34.2450   41.5640 N   0  0  0  0  0  0  0  0  0  0  0  0
   44.4830   33.7210   41.4600 N   0  0  0  0  0  0  0  0  0  0  0  0
   45.2010   36.4280   42.9750 H   0  0  0  0  0  0  0  0  0  0  0  0
   42.7380   36.2610   42.5540 H   0  0  0  0  0  0  0  0  0  0  0  0
   41.9900   33.8060   39.6290 N   0  0  0  0  0  0  0  0  0  0  0  0
   42.0000   33.7200   41.0930 C   0  0  2  0  0  0  0  0  0  0  0  0
   40.8980   34.4970   41.7180 C   0  0  0  0  0  0  0  0  0  0  0  0
   39.9070   34.9360   40.7510 N   0  0  0  0  0  0  0  0  0  0  0  0
   40.4360   35.5920   39.6110 C   0  0  0  0  0  0  0  0  0  0  0  0
   41.8840   35.2570   39.3560 C   0  0  2  0  0  0  0  0  0  0  0  0
   42.9250   33.4560   39.3030 H   0  0  0  0  0  0  0  0  0  0  0  0
   41.9370   32.6400   41.3230 H   0  0  0  0  0  0  0  0  0  0  0  0
   41.1660   35.4630   42.1790 H   0  0  0  0  0  0  0  0  0  0  0  0
   40.3360   33.8370   42.4260 H   0  0  0  0  0  0  0  0  0  0  0  0
   39.3260   34.0930   40.5110 H   0  0  0  0  0  0  0  0  0  0  0  0
   40.3050   36.6870   39.5960 H   0  0  0  0  0  0  0  0  0  0  0  0
   39.8690   35.2190   38.7170 H   0  0  0  0  0  0  0  0  0  0  0  0
   42.5440   35.7570   40.0700 H   0  0  0  0  0  0  0  0  0  0  0  0
   42.3310   35.5860   37.9690 C   0  0  0  0  0  0  0  0  0  0  0  0
   41.4360   35.8020   37.3810 H   0  0  0  0  0  0  0  0  0  0  0  0
   49.1140   35.0590   41.9800 C   0  0  0  0  0  0  0  0  0  0  0  0
   47.7370   35.3590   41.7980 C   0  0  0  0  0  0  0  0  0  0  0  0
   46.8470   34.3670   42.1450 C   0  0  0  0  0  0  0  0  0  0  0  0
   47.3120   33.1850   42.6300 N   0  0  0  0  0  0  0  0  0  0  0  0
   48.6310   32.9380   42.7900 C   0  0  0  0  0  0  0  0  0  0  0  0
   49.5040   33.8820   42.4610 N   0  0  0  0  0  0  0  0  0  0  0  0
   49.7960   35.8540   41.7010 H   0  0  0  0  0  0  0  0  0  0  0  0
   47.3770   36.2950   41.4150 H   0  0  0  0  0  0  0  0  0  0  0  0
   48.8660   31.9550   43.1860 H   0  0  0  0  0  0  0  0  0  0  0  0
  1 26  1  0  0  0  0
  1  2  1  0  0  0  0
  2  6  1  0  0  0  0
  3  2  2  0  0  0  0
  3  7  1  0  0  0  0
  4  3  1  0  0  0  0
  5  4  1  0  0  0  0
  5  1  2  0  0  0  0
  8  9  1  0  0  0  0
  9 15  1  1  0  0  0
  9  4  1  0  0  0  0
  9 10  1  0  0  0  0
 10 16  1  0  0  0  0
 10 17  1  0  0  0  0
 11 10  1  0  0  0  0
 12 11  1  0  0  0  0
 13 12  1  0  0  0  0
 13  8  1  0  0  0  0
 13 21  1  1  0  0  0
 14  8  1  0  0  0  0
 18 11  1  0  0  0  0
 19 12  1  0  0  0  0
 20 12  1  0  0  0  0
 22 13  1  0  0  0  0
 23 22  1  0  0  0  0
 24 29  1  0  0  0  0
 25 24  2  0  0  0  0
 25 26  1  0  0  0  0
 26 27  2  0  0  0  0
 27 28  1  0  0  0  0
 28 32  1  0  0  0  0
 29 28  2  0  0  0  0
 30 24  1  0  0  0  0
 31 25  1  0  0  0  0
M  END
>  <minimizedAffinity>
-4.65884924

>  <minimizedRMSD>
0.453728884

$$$$
