
 OpenBabel03252509203D

 18 19  0  0  0  0  0  0  0  0999 V2000
   45.3530   34.2520   44.6740 C   0  0  0  0  0  0  0  0  0  0  0  0
   45.7970   34.9970   43.5490 C   0  0  0  0  0  0  0  0  0  0  0  0
   46.9820   34.5330   43.0000 C   0  0  0  0  0  0  0  0  0  0  0  0
   47.6680   33.4440   43.5020 N   0  0  0  0  0  0  0  0  0  0  0  0
   47.1810   32.7830   44.5770 C   0  0  0  0  0  0  0  0  0  0  0  0
   46.0250   33.1900   45.1600 N   0  0  0  0  0  0  0  0  0  0  0  0
   44.4360   34.5630   45.1490 H   0  0  0  0  0  0  0  0  0  0  0  0
   47.8340   31.9730   44.8280 H   0  0  0  0  0  0  0  0  0  0  0  0
   47.4480   35.2240   41.7330 C   0  0  0  0  0  0  0  0  0  0  0  0
   48.9500   35.5400   41.8200 C   0  0  0  0  0  0  0  0  0  0  0  0
   48.3230   34.4880   40.8620 C   0  0  0  0  0  0  0  0  0  0  0  0
   46.8950   36.1700   41.5330 H   0  0  0  0  0  0  0  0  0  0  0  0
   49.2310   36.4970   41.3790 H   0  0  0  0  0  0  0  0  0  0  0  0
   49.4810   35.1800   42.6890 H   0  0  0  0  0  0  0  0  0  0  0  0
   48.4590   34.7290   39.7720 H   0  0  0  0  0  0  0  0  0  0  0  0
   48.6900   33.4630   41.0750 H   0  0  0  0  0  0  0  0  0  0  0  0
   45.0650   36.1640   43.0070 C   0  0  0  0  0  2  0  0  0  0  0  0
   45.5580   36.5470   42.0890 H   0  0  0  0  0  0  0  0  0  0  0  0
  1  7  1  0  0  0  0
  1  6  1  0  0  0  0
  2  1  2  0  0  0  0
  3  4  2  0  0  0  0
  3  2  1  0  0  0  0
  4  5  1  0  0  0  0
  5  8  1  0  0  0  0
  5  6  2  0  0  0  0
  9 10  1  0  0  0  0
  9  3  1  0  0  0  0
 10 14  1  0  0  0  0
 11 16  1  0  0  0  0
 11  9  1  0  0  0  0
 11 10  1  0  0  0  0
 12  9  1  0  0  0  0
 13 10  1  0  0  0  0
 15 11  1  0  0  0  0
 17  2  1  0  0  0  0
 18 17  1  0  0  0  0
M  END
>  <minimizedAffinity>
-3.79317546

>  <minimizedRMSD>
1.39823008

$$$$
