
 OpenBabel03242522143D

 19 20  0  0  0  0  0  0  0  0999 V2000
   37.1880   32.5370   40.0630 C   0  0  0  0  0  0  0  0  0  0  0  0
   37.0550   31.3420   40.7920 C   0  0  0  0  0  0  0  0  0  0  0  0
   38.1910   30.6150   41.0480 C   0  0  0  0  0  0  0  0  0  0  0  0
   39.3870   31.1150   40.5680 N   0  0  0  0  0  0  0  0  0  0  0  0
   39.4680   32.2550   39.8780 C   0  0  0  0  0  0  0  0  0  0  0  0
   38.3620   32.9650   39.6260 N   0  0  0  0  0  0  0  0  0  0  0  0
   36.3350   33.1590   39.8240 H   0  0  0  0  0  0  0  0  0  0  0  0
   40.4960   32.4690   39.5920 H   0  0  0  0  0  0  0  0  0  0  0  0
   38.1410   29.3480   41.8100 C   0  0  0  0  0  0  0  0  0  0  0  0
   38.5690   29.2530   43.1070 C   0  0  0  0  0  0  0  0  0  0  0  0
   38.2680   27.4720   43.5040 S   0  0  0  0  0  0  0  0  0  0  0  0
   37.5900   27.1860   41.7630 C   0  0  0  0  0  0  0  0  0  0  0  0
   37.6940   28.2330   41.3160 N   0  0  0  0  0  0  0  0  0  0  0  0
   38.9870   30.0970   43.7120 H   0  0  0  0  0  0  0  0  0  0  0  0
   37.0960   25.8540   41.2910 C   0  0  0  0  0  2  0  0  0  0  0  0
   37.5380   25.0700   41.9260 H   0  0  0  0  0  0  0  0  0  0  0  0
   35.7500   30.9800   41.1980 N   0  0  0  0  0  0  0  0  0  0  0  0
   35.4820   29.9660   41.1150 H   0  0  0  0  0  0  0  0  0  0  0  0
   35.0370   31.6410   41.5720 H   0  0  0  0  0  0  0  0  0  0  0  0
  1  2  1  0  0  0  0
  2  3  2  0  0  0  0
  2 17  1  0  0  0  0
  3  9  1  0  0  0  0
  4  3  1  0  0  0  0
  5  4  2  0  0  0  0
  6  5  1  0  0  0  0
  6  1  2  0  0  0  0
  7  1  1  0  0  0  0
  8  5  1  0  0  0  0
  9 10  2  0  0  0  0
 10 11  1  0  0  0  0
 10 14  1  0  0  0  0
 12 11  1  0  0  0  0
 13 12  2  0  0  0  0
 13  9  1  0  0  0  0
 15 12  1  0  0  0  0
 15 16  1  0  0  0  0
 17 19  1  0  0  0  0
 18 17  1  0  0  0  0
M  END
>  <minimizedAffinity>
-4.33055305

$$$$

 OpenBabel03242522143D

 19 20  0  0  0  0  0  0  0  0999 V2000
   37.3100   32.9520   39.9590 C   0  0  0  0  0  0  0  0  0  0  0  0
   37.3150   31.7470   40.6850 C   0  0  0  0  0  0  0  0  0  0  0  0
   38.5290   31.2140   41.0370 C   0  0  0  0  0  0  0  0  0  0  0  0
   39.6630   31.9030   40.6500 N   0  0  0  0  0  0  0  0  0  0  0  0
   39.6120   33.0450   39.9590 C   0  0  0  0  0  0  0  0  0  0  0  0
   38.4300   33.5670   39.6140 N   0  0  0  0  0  0  0  0  0  0  0  0
   36.3890   33.4290   39.6480 H   0  0  0  0  0  0  0  0  0  0  0  0
   40.6120   33.4240   39.7540 H   0  0  0  0  0  0  0  0  0  0  0  0
   38.6240   29.9510   41.8030 C   0  0  0  0  0  0  0  0  0  0  0  0
   39.8080   29.2860   41.9770 C   0  0  0  0  0  0  0  0  0  0  0  0
   39.3030   27.8210   42.9870 S   0  0  0  0  0  0  0  0  0  0  0  0
   37.5100   28.4170   42.9790 C   0  0  0  0  0  0  0  0  0  0  0  0
   37.6040   29.3760   42.3650 N   0  0  0  0  0  0  0  0  0  0  0  0
   40.7990   29.6140   41.5740 H   0  0  0  0  0  0  0  0  0  0  0  0
   36.4030   27.6760   43.6630 C   0  0  0  0  0  2  0  0  0  0  0  0
   36.7110   26.6270   43.7950 H   0  0  0  0  0  0  0  0  0  0  0  0
   36.0570   31.1760   40.9880 N   0  0  0  0  0  0  0  0  0  0  0  0
   35.9650   30.1330   40.8930 H   0  0  0  0  0  0  0  0  0  0  0  0
   35.2190   31.7110   41.2990 H   0  0  0  0  0  0  0  0  0  0  0  0
  1  2  1  0  0  0  0
  2 17  1  0  0  0  0
  2  3  2  0  0  0  0
  3  9  1  0  0  0  0
  4  3  1  0  0  0  0
  5  4  2  0  0  0  0
  6  5  1  0  0  0  0
  6  1  2  0  0  0  0
  7  1  1  0  0  0  0
  8  5  1  0  0  0  0
  9 10  2  0  0  0  0
  9 13  1  0  0  0  0
 10 11  1  0  0  0  0
 12 11  1  0  0  0  0
 12 15  1  0  0  0  0
 13 12  2  0  0  0  0
 14 10  1  0  0  0  0
 15 16  1  0  0  0  0
 17 19  1  0  0  0  0
 18 17  1  0  0  0  0
M  END
>  <minimizedAffinity>
-4.27314854

$$$$

 OpenBabel03242522143D

 19 20  0  0  0  0  0  0  0  0999 V2000
   39.3650   34.1410   40.0400 C   0  0  0  0  0  0  0  0  0  0  0  0
   38.5720   33.0670   40.4830 C   0  0  0  0  0  0  0  0  0  0  0  0
   39.2090   31.9730   41.0120 C   0  0  0  0  0  0  0  0  0  0  0  0
   40.5900   32.0080   41.0710 N   0  0  0  0  0  0  0  0  0  0  0  0
   41.3040   33.0500   40.6380 C   0  0  0  0  0  0  0  0  0  0  0  0
   40.6860   34.1170   40.1210 N   0  0  0  0  0  0  0  0  0  0  0  0
   38.9300   35.0350   39.6130 H   0  0  0  0  0  0  0  0  0  0  0  0
   42.3710   32.8770   40.7720 H   0  0  0  0  0  0  0  0  0  0  0  0
   38.4510   30.8010   41.5030 C   0  0  0  0  0  0  0  0  0  0  0  0
   38.8580   30.0620   42.5810 C   0  0  0  0  0  0  0  0  0  0  0  0
   37.5430   28.7670   42.7030 S   0  0  0  0  0  0  0  0  0  0  0  0
   36.6570   29.5080   41.2080 C   0  0  0  0  0  0  0  0  0  0  0  0
   37.3500   30.3810   40.9560 N   0  0  0  0  0  0  0  0  0  0  0  0
   39.7770   30.2590   43.1890 H   0  0  0  0  0  0  0  0  0  0  0  0
   35.3850   28.9440   40.6550 C   0  0  0  0  0  2  0  0  0  0  0  0
   35.2960   27.8940   40.9760 H   0  0  0  0  0  0  0  0  0  0  0  0
   37.1710   33.2010   40.3380 N   0  0  0  0  0  0  0  0  0  0  0  0
   36.6370   32.3560   40.0120 H   0  0  0  0  0  0  0  0  0  0  0  0
   36.6330   34.0720   40.5300 H   0  0  0  0  0  0  0  0  0  0  0  0
  1  6  2  0  0  0  0
  1  2  1  0  0  0  0
  2  3  2  0  0  0  0
  3  4  1  0  0  0  0
  3  9  1  0  0  0  0
  5  8  1  0  0  0  0
  5  4  2  0  0  0  0
  6  5  1  0  0  0  0
  7  1  1  0  0  0  0
  9 10  2  0  0  0  0
 10 11  1  0  0  0  0
 10 14  1  0  0  0  0
 12 11  1  0  0  0  0
 13 12  2  0  0  0  0
 13  9  1  0  0  0  0
 15 16  1  0  0  0  0
 15 12  1  0  0  0  0
 17  2  1  0  0  0  0
 17 19  1  0  0  0  0
 18 17  1  0  0  0  0
M  END
>  <minimizedAffinity>
-4.2697382

$$$$

 OpenBabel03242522143D

 19 20  0  0  0  0  0  0  0  0999 V2000
   36.5160   28.1830   42.0300 C   0  0  0  0  0  0  0  0  0  0  0  0
   36.8430   29.4920   41.6320 C   0  0  0  0  0  0  0  0  0  0  0  0
   38.1710   29.8110   41.4970 C   0  0  0  0  0  0  0  0  0  0  0  0
   39.0940   28.8160   41.7620 N   0  0  0  0  0  0  0  0  0  0  0  0
   38.7390   27.5850   42.1390 C   0  0  0  0  0  0  0  0  0  0  0  0
   37.4450   27.2720   42.2720 N   0  0  0  0  0  0  0  0  0  0  0  0
   35.4900   27.8630   42.1560 H   0  0  0  0  0  0  0  0  0  0  0  0
   39.6130   26.9560   42.2990 H   0  0  0  0  0  0  0  0  0  0  0  0
   38.6010   31.1640   41.0810 C   0  0  0  0  0  0  0  0  0  0  0  0
   39.8600   31.6420   41.3270 C   0  0  0  0  0  0  0  0  0  0  0  0
   39.7980   33.3390   40.5960 S   0  0  0  0  0  0  0  0  0  0  0  0
   38.0040   33.0620   40.0730 C   0  0  0  0  0  0  0  0  0  0  0  0
   37.8280   32.0000   40.4560 N   0  0  0  0  0  0  0  0  0  0  0  0
   40.6730   31.0790   41.8510 H   0  0  0  0  0  0  0  0  0  0  0  0
   37.1970   34.0980   39.3530 C   0  0  0  0  0  2  0  0  0  0  0  0
   37.6490   35.0860   39.5350 H   0  0  0  0  0  0  0  0  0  0  0  0
   35.7660   30.3830   41.4100 N   0  0  0  0  0  0  0  0  0  0  0  0
   35.8760   31.3680   41.7600 H   0  0  0  0  0  0  0  0  0  0  0  0
   34.8780   30.1350   40.9270 H   0  0  0  0  0  0  0  0  0  0  0  0
  1  7  1  0  0  0  0
  1  6  1  0  0  0  0
  2  1  2  0  0  0  0
  3  2  1  0  0  0  0
  3  4  2  0  0  0  0
  4  5  1  0  0  0  0
  5  6  2  0  0  0  0
  5  8  1  0  0  0  0
  9 10  2  0  0  0  0
  9  3  1  0  0  0  0
 10 14  1  0  0  0  0
 11 10  1  0  0  0  0
 12 13  2  0  0  0  0
 12 11  1  0  0  0  0
 13  9  1  0  0  0  0
 15 16  1  0  0  0  0
 15 12  1  0  0  0  0
 17  2  1  0  0  0  0
 17 18  1  0  0  0  0
 19 17  1  0  0  0  0
M  END
>  <minimizedAffinity>
-4.06018353

$$$$

 OpenBabel03242522143D

 19 20  0  0  0  0  0  0  0  0999 V2000
   37.1830   32.5450   40.1210 C   0  0  0  0  0  0  0  0  0  0  0  0
   36.8330   31.1990   40.3350 C   0  0  0  0  0  0  0  0  0  0  0  0
   37.5390   30.2360   39.6600 C   0  0  0  0  0  0  0  0  0  0  0  0
   38.5470   30.6610   38.8140 N   0  0  0  0  0  0  0  0  0  0  0  0
   38.8450   31.9510   38.6390 C   0  0  0  0  0  0  0  0  0  0  0  0
   38.1580   32.8930   39.2960 N   0  0  0  0  0  0  0  0  0  0  0  0
   36.6690   33.3560   40.6200 H   0  0  0  0  0  0  0  0  0  0  0  0
   39.6650   32.0730   37.9340 H   0  0  0  0  0  0  0  0  0  0  0  0
   37.2380   28.7970   39.8300 C   0  0  0  0  0  0  0  0  0  0  0  0
   36.8910   27.9910   38.7790 C   0  0  0  0  0  0  0  0  0  0  0  0
   36.6400   26.3500   39.5950 S   0  0  0  0  0  0  0  0  0  0  0  0
   37.0740   27.1030   41.2720 C   0  0  0  0  0  0  0  0  0  0  0  0
   37.2770   28.1880   40.9760 N   0  0  0  0  0  0  0  0  0  0  0  0
   36.8010   28.3220   37.7140 H   0  0  0  0  0  0  0  0  0  0  0  0
   37.0900   26.3090   42.5420 C   0  0  0  0  0  2  0  0  0  0  0  0
   36.4660   25.4110   42.4020 H   0  0  0  0  0  0  0  0  0  0  0  0
   35.7690   30.9480   41.2320 N   0  0  0  0  0  0  0  0  0  0  0  0
   35.0770   30.2030   40.9640 H   0  0  0  0  0  0  0  0  0  0  0  0
   35.6210   31.4450   42.1360 H   0  0  0  0  0  0  0  0  0  0  0  0
  1  2  1  0  0  0  0
  1  7  1  0  0  0  0
  2 17  1  0  0  0  0
  3  9  1  0  0  0  0
  3  2  2  0  0  0  0
  4  3  1  0  0  0  0
  5  4  2  0  0  0  0
  5  6  1  0  0  0  0
  6  1  2  0  0  0  0
  8  5  1  0  0  0  0
  9 13  1  0  0  0  0
 10 11  1  0  0  0  0
 10  9  2  0  0  0  0
 11 12  1  0  0  0  0
 12 15  1  0  0  0  0
 13 12  2  0  0  0  0
 14 10  1  0  0  0  0
 16 15  1  0  0  0  0
 17 19  1  0  0  0  0
 18 17  1  0  0  0  0
M  END
>  <minimizedAffinity>
-4.0080843

$$$$

 OpenBabel03242522143D

 19 20  0  0  0  0  0  0  0  0999 V2000
   36.5160   30.6670   41.2000 C   0  0  0  0  0  0  0  0  0  0  0  0
   36.9360   29.4380   41.7410 C   0  0  0  0  0  0  0  0  0  0  0  0
   37.1920   28.4070   40.8720 C   0  0  0  0  0  0  0  0  0  0  0  0
   37.0160   28.6540   39.5230 N   0  0  0  0  0  0  0  0  0  0  0  0
   36.6140   29.8380   39.0530 C   0  0  0  0  0  0  0  0  0  0  0  0
   36.3630   30.8440   39.8980 N   0  0  0  0  0  0  0  0  0  0  0  0
   36.2970   31.5220   41.8270 H   0  0  0  0  0  0  0  0  0  0  0  0
   36.5370   29.8230   37.9670 H   0  0  0  0  0  0  0  0  0  0  0  0
   37.6400   27.0830   41.3560 C   0  0  0  0  0  0  0  0  0  0  0  0
   37.0720   25.9140   40.9280 C   0  0  0  0  0  0  0  0  0  0  0  0
   38.0250   24.6340   41.8630 S   0  0  0  0  0  0  0  0  0  0  0  0
   39.0550   25.9870   42.6870 C   0  0  0  0  0  0  0  0  0  0  0  0
   38.5980   26.9230   42.2190 N   0  0  0  0  0  0  0  0  0  0  0  0
   36.2350   25.8350   40.1890 H   0  0  0  0  0  0  0  0  0  0  0  0
   40.1440   25.6930   43.6740 C   0  0  0  0  0  2  0  0  0  0  0  0
   39.9720   24.6920   44.0990 H   0  0  0  0  0  0  0  0  0  0  0  0
   37.0550   29.3630   43.1480 N   0  0  0  0  0  0  0  0  0  0  0  0
   36.7130   28.4850   43.6150 H   0  0  0  0  0  0  0  0  0  0  0  0
   37.4560   30.1110   43.7530 H   0  0  0  0  0  0  0  0  0  0  0  0
  1  2  1  0  0  0  0
  1  7  1  0  0  0  0
  2 17  1  0  0  0  0
  3  9  1  0  0  0  0
  3  2  2  0  0  0  0
  4  3  1  0  0  0  0
  5  4  2  0  0  0  0
  5  6  1  0  0  0  0
  6  1  2  0  0  0  0
  8  5  1  0  0  0  0
  9 13  1  0  0  0  0
 10  9  2  0  0  0  0
 10 11  1  0  0  0  0
 11 12  1  0  0  0  0
 12 15  1  0  0  0  0
 13 12  2  0  0  0  0
 14 10  1  0  0  0  0
 15 16  1  0  0  0  0
 17 18  1  0  0  0  0
 17 19  1  0  0  0  0
M  END
>  <minimizedAffinity>
-3.94790769

$$$$

 OpenBabel03242522143D

 19 20  0  0  0  0  0  0  0  0999 V2000
   36.4200   30.7410   40.9910 C   0  0  0  0  0  0  0  0  0  0  0  0
   36.7940   29.4950   41.5240 C   0  0  0  0  0  0  0  0  0  0  0  0
   38.1250   29.2770   41.7780 C   0  0  0  0  0  0  0  0  0  0  0  0
   39.0040   30.3040   41.4880 N   0  0  0  0  0  0  0  0  0  0  0  0
   38.6050   31.4730   40.9800 C   0  0  0  0  0  0  0  0  0  0  0  0
   37.3080   31.6880   40.7320 N   0  0  0  0  0  0  0  0  0  0  0  0
   35.3880   30.9810   40.7670 H   0  0  0  0  0  0  0  0  0  0  0  0
   39.4490   32.1420   40.8240 H   0  0  0  0  0  0  0  0  0  0  0  0
   38.6040   27.9950   42.3410 C   0  0  0  0  0  0  0  0  0  0  0  0
   39.6510   27.9250   43.2200 C   0  0  0  0  0  0  0  0  0  0  0  0
   39.7780   26.1100   43.5530 S   0  0  0  0  0  0  0  0  0  0  0  0
   38.3260   25.7820   42.3900 C   0  0  0  0  0  0  0  0  0  0  0  0
   38.0780   26.8440   42.0490 N   0  0  0  0  0  0  0  0  0  0  0  0
   40.2370   28.8010   43.5970 H   0  0  0  0  0  0  0  0  0  0  0  0
   37.7920   24.4090   42.1210 C   0  0  0  0  0  2  0  0  0  0  0  0
   38.5760   23.6730   42.3660 H   0  0  0  0  0  0  0  0  0  0  0  0
   35.7590   28.5570   41.7510 N   0  0  0  0  0  0  0  0  0  0  0  0
   35.9530   27.5550   41.4990 H   0  0  0  0  0  0  0  0  0  0  0  0
   34.8240   28.7860   42.1490 H   0  0  0  0  0  0  0  0  0  0  0  0
  1  2  1  0  0  0  0
  2 17  1  0  0  0  0
  2  3  2  0  0  0  0
  3  9  1  0  0  0  0
  4  3  1  0  0  0  0
  5  4  2  0  0  0  0
  6  5  1  0  0  0  0
  6  1  2  0  0  0  0
  7  1  1  0  0  0  0
  8  5  1  0  0  0  0
  9 10  2  0  0  0  0
 10 11  1  0  0  0  0
 10 14  1  0  0  0  0
 12 11  1  0  0  0  0
 13  9  1  0  0  0  0
 13 12  2  0  0  0  0
 15 16  1  0  0  0  0
 15 12  1  0  0  0  0
 17 19  1  0  0  0  0
 18 17  1  0  0  0  0
M  END
>  <minimizedAffinity>
-3.93152475

$$$$

 OpenBabel03242522143D

 19 20  0  0  0  0  0  0  0  0999 V2000
   37.0560   27.0080   42.9480 C   0  0  0  0  0  0  0  0  0  0  0  0
   37.2340   28.3620   42.6100 C   0  0  0  0  0  0  0  0  0  0  0  0
   37.3040   28.6890   41.2790 C   0  0  0  0  0  0  0  0  0  0  0  0
   37.1950   27.6580   40.3640 N   0  0  0  0  0  0  0  0  0  0  0  0
   37.0270   26.3840   40.7300 C   0  0  0  0  0  0  0  0  0  0  0  0
   36.9590   26.0620   42.0260 N   0  0  0  0  0  0  0  0  0  0  0  0
   36.9920   26.6790   43.9770 H   0  0  0  0  0  0  0  0  0  0  0  0
   36.9660   25.7310   39.8610 H   0  0  0  0  0  0  0  0  0  0  0  0
   37.4880   30.0890   40.8370 C   0  0  0  0  0  0  0  0  0  0  0  0
   36.4930   30.8010   40.2230 C   0  0  0  0  0  0  0  0  0  0  0  0
   37.2990   32.4360   39.9140 S   0  0  0  0  0  0  0  0  0  0  0  0
   38.8950   31.8140   40.7100 C   0  0  0  0  0  0  0  0  0  0  0  0
   38.5960   30.7480   40.9910 N   0  0  0  0  0  0  0  0  0  0  0  0
   35.4660   30.4150   39.9990 H   0  0  0  0  0  0  0  0  0  0  0  0
   40.1240   32.6610   40.8390 C   0  0  0  0  0  2  0  0  0  0  0  0
   40.0710   33.4730   40.0960 H   0  0  0  0  0  0  0  0  0  0  0  0
   37.3330   29.2820   43.6800 N   0  0  0  0  0  0  0  0  0  0  0  0
   38.0540   30.0430   43.5950 H   0  0  0  0  0  0  0  0  0  0  0  0
   36.7470   29.2610   44.5400 H   0  0  0  0  0  0  0  0  0  0  0  0
  1  7  1  0  0  0  0
  2  1  1  0  0  0  0
  2 17  1  0  0  0  0
  3  2  2  0  0  0  0
  4  5  2  0  0  0  0
  4  3  1  0  0  0  0
  5  6  1  0  0  0  0
  6  1  2  0  0  0  0
  8  5  1  0  0  0  0
  9 13  1  0  0  0  0
  9  3  1  0  0  0  0
 10  9  2  0  0  0  0
 11 10  1  0  0  0  0
 11 12  1  0  0  0  0
 12 15  1  0  0  0  0
 12 13  2  0  0  0  0
 14 10  1  0  0  0  0
 16 15  1  0  0  0  0
 17 19  1  0  0  0  0
 18 17  1  0  0  0  0
M  END
>  <minimizedAffinity>
-3.86946201

$$$$

 OpenBabel03242522143D

 19 20  0  0  0  0  0  0  0  0999 V2000
   41.6940   32.4780   37.2890 C   0  0  0  0  0  0  0  0  0  0  0  0
   40.3720   32.1650   37.6550 C   0  0  0  0  0  0  0  0  0  0  0  0
   40.1420   31.7580   38.9450 C   0  0  0  0  0  0  0  0  0  0  0  0
   41.2310   31.6850   39.7930 N   0  0  0  0  0  0  0  0  0  0  0  0
   42.4710   31.9910   39.4020 C   0  0  0  0  0  0  0  0  0  0  0  0
   42.6990   32.3880   38.1450 N   0  0  0  0  0  0  0  0  0  0  0  0
   41.9480   32.8060   36.2890 H   0  0  0  0  0  0  0  0  0  0  0  0
   43.1810   31.8660   40.2180 H   0  0  0  0  0  0  0  0  0  0  0  0
   38.7810   31.4120   39.4130 C   0  0  0  0  0  0  0  0  0  0  0  0
   38.3140   31.7800   40.6460 C   0  0  0  0  0  0  0  0  0  0  0  0
   36.6030   31.0770   40.6550 S   0  0  0  0  0  0  0  0  0  0  0  0
   36.8610   30.3920   38.9140 C   0  0  0  0  0  0  0  0  0  0  0  0
   37.9300   30.7360   38.7020 N   0  0  0  0  0  0  0  0  0  0  0  0
   38.8900   32.3650   41.4070 H   0  0  0  0  0  0  0  0  0  0  0  0
   35.8080   29.6220   38.1770 C   0  0  0  0  0  2  0  0  0  0  0  0
   35.0950   29.2130   38.9110 H   0  0  0  0  0  0  0  0  0  0  0  0
   39.3820   32.2910   36.6520 N   0  0  0  0  0  0  0  0  0  0  0  0
   38.6480   31.5390   36.6030 H   0  0  0  0  0  0  0  0  0  0  0  0
   39.3270   33.0700   35.9630 H   0  0  0  0  0  0  0  0  0  0  0  0
  1  2  2  0  0  0  0
  1  6  1  0  0  0  0
  2  3  1  0  0  0  0
  3  9  1  0  0  0  0
  3  4  2  0  0  0  0
  5  4  1  0  0  0  0
  5  8  1  0  0  0  0
  6  5  2  0  0  0  0
  7  1  1  0  0  0  0
  9 10  2  0  0  0  0
 10 11  1  0  0  0  0
 10 14  1  0  0  0  0
 12 11  1  0  0  0  0
 13 12  2  0  0  0  0
 13  9  1  0  0  0  0
 15 16  1  0  0  0  0
 15 12  1  0  0  0  0
 17  2  1  0  0  0  0
 18 17  1  0  0  0  0
 19 17  1  0  0  0  0
M  END
>  <minimizedAffinity>
-3.78337836

$$$$
