
 OpenBabel03242522363D

 36 38  0  0  0  0  0  0  0  0999 V2000
   36.8170   29.5730   41.2680 C   0  0  0  0  0  0  0  0  0  0  0  0
   36.9990   30.4450   40.2290 C   0  0  0  0  0  0  0  0  0  0  0  0
   37.2390   29.9260   38.9780 C   0  0  0  0  0  0  0  0  0  0  0  0
   37.3090   28.5600   38.6890 C   0  0  0  0  0  0  0  0  0  0  0  0
   37.1200   27.6960   39.7620 C   0  0  0  0  0  0  0  0  0  0  0  0
   36.8790   28.2100   41.0190 C   0  0  0  0  0  0  0  0  0  0  0  0
   37.3850   30.6280   38.1490 H   0  0  0  0  0  0  0  0  0  0  0  0
   37.5010   28.2040   37.6850 H   0  0  0  0  0  0  0  0  0  0  0  0
   37.1670   26.6270   39.5710 H   0  0  0  0  0  0  0  0  0  0  0  0
   36.9490   31.9060   40.4050 C   0  0  0  0  0  0  0  0  0  0  0  0
   36.4810   32.3330   39.4710 H   0  0  0  0  0  0  0  0  0  0  0  0
   36.3190   32.2460   41.2190 H   0  0  0  0  0  0  0  0  0  0  0  0
   40.5910   32.4280   40.8480 C   0  0  0  0  0  0  0  0  0  0  0  0
   40.7280   33.7820   40.4920 C   0  0  0  0  0  0  0  0  0  0  0  0
   39.5890   34.4660   40.1170 C   0  0  0  0  0  0  0  0  0  0  0  0
   38.4090   33.8180   40.1070 N   0  0  0  0  0  0  0  0  0  0  0  0
   38.2920   32.5140   40.4520 C   0  0  0  0  0  0  0  0  0  0  0  0
   39.3890   31.8510   40.8150 N   0  0  0  0  0  0  0  0  0  0  0  0
   41.5270   31.9630   41.1280 H   0  0  0  0  0  0  0  0  0  0  0  0
   41.6320   34.3740   40.4730 H   0  0  0  0  0  0  0  0  0  0  0  0
   39.5610   35.5110   39.8210 H   0  0  0  0  0  0  0  0  0  0  0  0
   36.5740   30.0360   42.5350 O   0  0  0  0  0  0  0  0  0  0  0  0
   36.8250   29.4520   43.3310 H   0  0  0  0  0  0  0  0  0  0  0  0
   36.6960   27.3180   42.0590 O   0  0  0  0  0  0  0  0  0  0  0  0
   37.8020   26.6220   42.5160 C   0  0  0  0  0  0  0  0  0  0  0  0
   38.7400   27.3730   43.2200 C   0  0  0  0  0  0  0  0  0  0  0  0
   39.8680   26.7260   43.7020 C   0  0  0  0  0  0  0  0  0  0  0  0
   40.0700   25.3540   43.4920 C   0  0  0  0  0  0  0  0  0  0  0  0
   39.0930   24.6610   42.7790 C   0  0  0  0  0  0  0  0  0  0  0  0
   37.9620   25.2670   42.2870 C   0  0  0  0  0  0  0  0  0  0  0  0
   38.6440   28.4310   43.4170 H   0  0  0  0  0  0  0  0  0  0  0  0
   40.6130   27.2870   44.2530 H   0  0  0  0  0  0  0  0  0  0  0  0
   40.9470   24.8360   43.8630 H   0  0  0  0  0  0  0  0  0  0  0  0
   39.2090   23.6010   42.5940 H   0  0  0  0  0  0  0  0  0  0  0  0
   36.9490   24.5020   41.5360 C   0  0  0  0  0  2  0  0  0  0  0  0
   36.7260   25.0720   40.6030 H   0  0  0  0  0  0  0  0  0  0  0  0
  1 22  1  0  0  0  0
  2 10  1  0  0  0  0
  2  1  2  0  0  0  0
  3  2  1  0  0  0  0
  4  3  2  0  0  0  0
  4  5  1  0  0  0  0
  5  6  2  0  0  0  0
  6  1  1  0  0  0  0
  6 24  1  0  0  0  0
  7  3  1  0  0  0  0
  8  4  1  0  0  0  0
  9  5  1  0  0  0  0
 10 17  1  0  0  0  0
 10 12  1  0  0  0  0
 11 10  1  0  0  0  0
 13 19  1  0  0  0  0
 14 13  2  0  0  0  0
 15 14  1  0  0  0  0
 16 15  2  0  0  0  0
 16 17  1  0  0  0  0
 17 18  2  0  0  0  0
 18 13  1  0  0  0  0
 20 14  1  0  0  0  0
 21 15  1  0  0  0  0
 22 23  1  0  0  0  0
 24 25  1  0  0  0  0
 25 26  1  0  0  0  0
 26 31  1  0  0  0  0
 26 27  2  0  0  0  0
 27 32  1  0  0  0  0
 28 27  1  0  0  0  0
 28 33  1  0  0  0  0
 29 28  2  0  0  0  0
 30 25  2  0  0  0  0
 30 29  1  0  0  0  0
 34 29  1  0  0  0  0
 35 30  1  0  0  0  0
 36 35  1  0  0  0  0
M  END
>  <minimizedAffinity>
-6.05460548

$$$$

 OpenBabel03242522363D

 36 38  0  0  0  0  0  0  0  0999 V2000
   37.5070   31.2300   40.8910 C   0  0  0  0  0  0  0  0  0  0  0  0
   38.5850   32.0710   40.8500 C   0  0  0  0  0  0  0  0  0  0  0  0
   39.6900   31.7520   41.6050 C   0  0  0  0  0  0  0  0  0  0  0  0
   39.7910   30.6190   42.4180 C   0  0  0  0  0  0  0  0  0  0  0  0
   38.6820   29.7800   42.4420 C   0  0  0  0  0  0  0  0  0  0  0  0
   37.5710   30.0950   41.6870 C   0  0  0  0  0  0  0  0  0  0  0  0
   40.5510   32.4280   41.5690 H   0  0  0  0  0  0  0  0  0  0  0  0
   40.6850   30.4130   42.9930 H   0  0  0  0  0  0  0  0  0  0  0  0
   38.7280   28.8900   43.0630 H   0  0  0  0  0  0  0  0  0  0  0  0
   38.6020   33.2960   40.0330 C   0  0  0  0  0  0  0  0  0  0  0  0
   37.7690   33.1960   39.2760 H   0  0  0  0  0  0  0  0  0  0  0  0
   38.3850   34.2100   40.5750 H   0  0  0  0  0  0  0  0  0  0  0  0
   41.8250   34.4590   38.6240 C   0  0  0  0  0  0  0  0  0  0  0  0
   42.0570   33.5030   37.6200 C   0  0  0  0  0  0  0  0  0  0  0  0
   41.1190   32.5030   37.4570 C   0  0  0  0  0  0  0  0  0  0  0  0
   40.0340   32.4850   38.2540 N   0  0  0  0  0  0  0  0  0  0  0  0
   39.8250   33.4130   39.2170 C   0  0  0  0  0  0  0  0  0  0  0  0
   40.7280   34.3800   39.3770 N   0  0  0  0  0  0  0  0  0  0  0  0
   42.6050   35.2070   38.6890 H   0  0  0  0  0  0  0  0  0  0  0  0
   42.8960   33.4440   36.9400 H   0  0  0  0  0  0  0  0  0  0  0  0
   41.1810   31.7070   36.7190 H   0  0  0  0  0  0  0  0  0  0  0  0
   36.3800   31.5000   40.1590 O   0  0  0  0  0  0  0  0  0  0  0  0
   35.4860   31.1300   40.4740 H   0  0  0  0  0  0  0  0  0  0  0  0
   36.4890   29.2370   41.7380 O   0  0  0  0  0  0  0  0  0  0  0  0
   36.7130   27.8970   41.4700 C   0  0  0  0  0  0  0  0  0  0  0  0
   36.9690   27.5820   40.1390 C   0  0  0  0  0  0  0  0  0  0  0  0
   37.2010   26.2540   39.8120 C   0  0  0  0  0  0  0  0  0  0  0  0
   37.1820   25.2480   40.7890 C   0  0  0  0  0  0  0  0  0  0  0  0
   36.9200   25.6300   42.1040 C   0  0  0  0  0  0  0  0  0  0  0  0
   36.6850   26.9360   42.4650 C   0  0  0  0  0  0  0  0  0  0  0  0
   36.9980   28.3090   39.3390 H   0  0  0  0  0  0  0  0  0  0  0  0
   37.4030   25.9820   38.7840 H   0  0  0  0  0  0  0  0  0  0  0  0
   37.3620   24.2060   40.5490 H   0  0  0  0  0  0  0  0  0  0  0  0
   36.8960   24.8860   42.8890 H   0  0  0  0  0  0  0  0  0  0  0  0
   36.4110   27.3050   43.8670 C   0  0  0  0  0  2  0  0  0  0  0  0
   35.5010   27.9500   43.8680 H   0  0  0  0  0  0  0  0  0  0  0  0
  1  6  1  0  0  0  0
  2  1  2  0  0  0  0
  2  3  1  0  0  0  0
  3  4  2  0  0  0  0
  4  5  1  0  0  0  0
  4  8  1  0  0  0  0
  5  9  1  0  0  0  0
  6 24  1  0  0  0  0
  6  5  2  0  0  0  0
  7  3  1  0  0  0  0
 10 12  1  0  0  0  0
 10  2  1  0  0  0  0
 11 10  1  0  0  0  0
 13 19  1  0  0  0  0
 13 18  1  0  0  0  0
 14 13  2  0  0  0  0
 15 14  1  0  0  0  0
 15 16  2  0  0  0  0
 16 17  1  0  0  0  0
 17 18  2  0  0  0  0
 17 10  1  0  0  0  0
 20 14  1  0  0  0  0
 21 15  1  0  0  0  0
 22 23  1  0  0  0  0
 22  1  1  0  0  0  0
 25 24  1  0  0  0  0
 25 30  1  0  0  0  0
 26 25  2  0  0  0  0
 27 26  1  0  0  0  0
 27 28  2  0  0  0  0
 28 29  1  0  0  0  0
 29 30  2  0  0  0  0
 29 34  1  0  0  0  0
 30 35  1  0  0  0  0
 31 26  1  0  0  0  0
 32 27  1  0  0  0  0
 33 28  1  0  0  0  0
 35 36  1  0  0  0  0
M  END
>  <minimizedAffinity>
-5.89841747

$$$$

 OpenBabel03242522363D

 36 38  0  0  0  0  0  0  0  0999 V2000
   36.9460   29.1290   41.8110 C   0  0  0  0  0  0  0  0  0  0  0  0
   36.7930   27.8130   41.4690 C   0  0  0  0  0  0  0  0  0  0  0  0
   36.6710   27.4960   40.1360 C   0  0  0  0  0  0  0  0  0  0  0  0
   36.6920   28.4310   39.0970 C   0  0  0  0  0  0  0  0  0  0  0  0
   36.8480   29.7610   39.4710 C   0  0  0  0  0  0  0  0  0  0  0  0
   36.9720   30.0850   40.8060 C   0  0  0  0  0  0  0  0  0  0  0  0
   36.5480   26.4410   39.8670 H   0  0  0  0  0  0  0  0  0  0  0  0
   36.5920   28.1280   38.0620 H   0  0  0  0  0  0  0  0  0  0  0  0
   36.8700   30.5130   38.6870 H   0  0  0  0  0  0  0  0  0  0  0  0
   36.7550   26.7350   42.4720 C   0  0  0  0  0  0  0  0  0  0  0  0
   36.4290   27.2050   43.4450 H   0  0  0  0  0  0  0  0  0  0  0  0
   36.0290   25.9550   42.2760 H   0  0  0  0  0  0  0  0  0  0  0  0
   39.7420   24.5450   42.5750 C   0  0  0  0  0  0  0  0  0  0  0  0
   40.6150   25.2940   43.3840 C   0  0  0  0  0  0  0  0  0  0  0  0
   40.1630   26.5080   43.8630 C   0  0  0  0  0  0  0  0  0  0  0  0
   38.9230   26.9190   43.5410 N   0  0  0  0  0  0  0  0  0  0  0  0
   38.0930   26.1870   42.7600 C   0  0  0  0  0  0  0  0  0  0  0  0
   38.5260   25.0150   42.2970 N   0  0  0  0  0  0  0  0  0  0  0  0
   40.1690   23.6090   42.2390 H   0  0  0  0  0  0  0  0  0  0  0  0
   41.6200   25.0390   43.6880 H   0  0  0  0  0  0  0  0  0  0  0  0
   40.7390   27.1780   44.4960 H   0  0  0  0  0  0  0  0  0  0  0  0
   37.0720   29.5010   43.1240 O   0  0  0  0  0  0  0  0  0  0  0  0
   36.7950   30.4410   43.4010 H   0  0  0  0  0  0  0  0  0  0  0  0
   37.1250   31.4190   41.1370 O   0  0  0  0  0  0  0  0  0  0  0  0
   38.3300   32.0270   40.8280 C   0  0  0  0  0  0  0  0  0  0  0  0
   39.4620   31.4490   41.3960 C   0  0  0  0  0  0  0  0  0  0  0  0
   40.6960   32.0170   41.1210 C   0  0  0  0  0  0  0  0  0  0  0  0
   40.8140   33.1430   40.2930 C   0  0  0  0  0  0  0  0  0  0  0  0
   39.6420   33.6730   39.7550 C   0  0  0  0  0  0  0  0  0  0  0  0
   38.4010   33.1370   40.0060 C   0  0  0  0  0  0  0  0  0  0  0  0
   39.4400   30.5820   42.0420 H   0  0  0  0  0  0  0  0  0  0  0  0
   41.5930   31.5880   41.5500 H   0  0  0  0  0  0  0  0  0  0  0  0
   41.7710   33.5980   40.0680 H   0  0  0  0  0  0  0  0  0  0  0  0
   39.6870   34.5420   39.1110 H   0  0  0  0  0  0  0  0  0  0  0  0
   37.1810   33.7250   39.4200 C   0  0  0  0  0  2  0  0  0  0  0  0
   36.4420   33.8490   40.2460 H   0  0  0  0  0  0  0  0  0  0  0  0
  1 22  1  0  0  0  0
  2  1  1  0  0  0  0
  2 10  1  0  0  0  0
  3  2  2  0  0  0  0
  4  5  2  0  0  0  0
  4  3  1  0  0  0  0
  5  6  1  0  0  0  0
  6 24  1  0  0  0  0
  6  1  2  0  0  0  0
  7  3  1  0  0  0  0
  8  4  1  0  0  0  0
  9  5  1  0  0  0  0
 10 17  1  0  0  0  0
 10 11  1  0  0  0  0
 12 10  1  0  0  0  0
 13 14  1  0  0  0  0
 14 20  1  0  0  0  0
 14 15  2  0  0  0  0
 15 21  1  0  0  0  0
 16 15  1  0  0  0  0
 17 16  2  0  0  0  0
 18 13  2  0  0  0  0
 18 17  1  0  0  0  0
 19 13  1  0  0  0  0
 22 23  1  0  0  0  0
 25 24  1  0  0  0  0
 25 26  1  0  0  0  0
 26 31  1  0  0  0  0
 27 26  2  0  0  0  0
 27 32  1  0  0  0  0
 28 27  1  0  0  0  0
 29 30  1  0  0  0  0
 29 28  2  0  0  0  0
 30 25  2  0  0  0  0
 33 28  1  0  0  0  0
 34 29  1  0  0  0  0
 35 30  1  0  0  0  0
 35 36  1  0  0  0  0
M  END
>  <minimizedAffinity>
-5.88352299

$$$$

 OpenBabel03242522363D

 36 38  0  0  0  0  0  0  0  0999 V2000
   36.5180   31.2020   39.8210 C   0  0  0  0  0  0  0  0  0  0  0  0
   37.2680   32.1770   39.2210 C   0  0  0  0  0  0  0  0  0  0  0  0
   37.6620   31.9850   37.9170 C   0  0  0  0  0  0  0  0  0  0  0  0
   37.3480   30.8560   37.1540 C   0  0  0  0  0  0  0  0  0  0  0  0
   36.5850   29.8810   37.7870 C   0  0  0  0  0  0  0  0  0  0  0  0
   36.1860   30.0680   39.0940 C   0  0  0  0  0  0  0  0  0  0  0  0
   38.2630   32.7680   37.4400 H   0  0  0  0  0  0  0  0  0  0  0  0
   37.6840   30.7550   36.1300 H   0  0  0  0  0  0  0  0  0  0  0  0
   36.3220   28.9920   37.2210 H   0  0  0  0  0  0  0  0  0  0  0  0
   37.6640   33.4120   39.9190 C   0  0  0  0  0  0  0  0  0  0  0  0
   37.4800   34.2650   39.2040 H   0  0  0  0  0  0  0  0  0  0  0  0
   37.0770   33.6460   40.7990 H   0  0  0  0  0  0  0  0  0  0  0  0
   41.1880   34.5350   40.1450 C   0  0  0  0  0  0  0  0  0  0  0  0
   41.8020   33.4240   40.7490 C   0  0  0  0  0  0  0  0  0  0  0  0
   41.0040   32.3390   41.0570 C   0  0  0  0  0  0  0  0  0  0  0  0
   39.6900   32.3890   40.7700 N   0  0  0  0  0  0  0  0  0  0  0  0
   39.1130   33.4660   40.1880 C   0  0  0  0  0  0  0  0  0  0  0  0
   39.8800   34.5150   39.8890 N   0  0  0  0  0  0  0  0  0  0  0  0
   41.8780   35.3430   39.9350 H   0  0  0  0  0  0  0  0  0  0  0  0
   42.8430   33.3020   41.0120 H   0  0  0  0  0  0  0  0  0  0  0  0
   41.3560   31.4230   41.5240 H   0  0  0  0  0  0  0  0  0  0  0  0
   36.0980   31.3410   41.1180 O   0  0  0  0  0  0  0  0  0  0  0  0
   35.9030   30.5060   41.6670 H   0  0  0  0  0  0  0  0  0  0  0  0
   35.4290   29.0750   39.6880 O   0  0  0  0  0  0  0  0  0  0  0  0
   35.9710   27.8030   39.7570 C   0  0  0  0  0  0  0  0  0  0  0  0
   35.8450   27.0290   38.6070 C   0  0  0  0  0  0  0  0  0  0  0  0
   36.3700   25.7450   38.6200 C   0  0  0  0  0  0  0  0  0  0  0  0
   37.0130   25.2310   39.7560 C   0  0  0  0  0  0  0  0  0  0  0  0
   37.1060   26.0570   40.8740 C   0  0  0  0  0  0  0  0  0  0  0  0
   36.5970   27.3340   40.8980 C   0  0  0  0  0  0  0  0  0  0  0  0
   35.3620   27.3650   37.7000 H   0  0  0  0  0  0  0  0  0  0  0  0
   36.2850   25.1220   37.7390 H   0  0  0  0  0  0  0  0  0  0  0  0
   37.4280   24.2300   39.7810 H   0  0  0  0  0  0  0  0  0  0  0  0
   37.5930   25.7000   41.7720 H   0  0  0  0  0  0  0  0  0  0  0  0
   36.7130   28.1820   42.1010 C   0  0  0  0  0  2  0  0  0  0  0  0
   35.7010   28.6030   42.3090 H   0  0  0  0  0  0  0  0  0  0  0  0
  1 22  1  0  0  0  0
  2  1  1  0  0  0  0
  2 10  1  0  0  0  0
  3  2  2  0  0  0  0
  4  5  2  0  0  0  0
  4  3  1  0  0  0  0
  5  6  1  0  0  0  0
  6 24  1  0  0  0  0
  6  1  2  0  0  0  0
  7  3  1  0  0  0  0
  8  4  1  0  0  0  0
  9  5  1  0  0  0  0
 10 17  1  0  0  0  0
 10 12  1  0  0  0  0
 11 10  1  0  0  0  0
 13 14  1  0  0  0  0
 14 20  1  0  0  0  0
 14 15  2  0  0  0  0
 15 21  1  0  0  0  0
 16 15  1  0  0  0  0
 17 16  2  0  0  0  0
 18 13  2  0  0  0  0
 18 17  1  0  0  0  0
 19 13  1  0  0  0  0
 22 23  1  0  0  0  0
 24 25  1  0  0  0  0
 25 30  1  0  0  0  0
 26 27  1  0  0  0  0
 26 25  2  0  0  0  0
 27 28  2  0  0  0  0
 28 33  1  0  0  0  0
 28 29  1  0  0  0  0
 29 30  2  0  0  0  0
 29 34  1  0  0  0  0
 30 35  1  0  0  0  0
 31 26  1  0  0  0  0
 32 27  1  0  0  0  0
 35 36  1  0  0  0  0
M  END
>  <minimizedAffinity>
-5.86470222

$$$$

 OpenBabel03242522363D

 36 38  0  0  0  0  0  0  0  0999 V2000
   36.7420   28.0310   41.7310 C   0  0  0  0  0  0  0  0  0  0  0  0
   36.1320   28.2560   40.5270 C   0  0  0  0  0  0  0  0  0  0  0  0
   36.2250   27.2840   39.5590 C   0  0  0  0  0  0  0  0  0  0  0  0
   36.9040   26.0720   39.7180 C   0  0  0  0  0  0  0  0  0  0  0  0
   37.5150   25.8680   40.9500 C   0  0  0  0  0  0  0  0  0  0  0  0
   37.4250   26.8390   41.9250 C   0  0  0  0  0  0  0  0  0  0  0  0
   35.7350   27.4680   38.5960 H   0  0  0  0  0  0  0  0  0  0  0  0
   36.9470   25.3400   38.9210 H   0  0  0  0  0  0  0  0  0  0  0  0
   38.0500   24.9360   41.1060 H   0  0  0  0  0  0  0  0  0  0  0  0
   35.3860   29.4930   40.2380 C   0  0  0  0  0  0  0  0  0  0  0  0
   34.7270   29.2770   39.3470 H   0  0  0  0  0  0  0  0  0  0  0  0
   34.7100   29.8120   41.0220 H   0  0  0  0  0  0  0  0  0  0  0  0
   37.4260   31.7620   38.1350 C   0  0  0  0  0  0  0  0  0  0  0  0
   37.9110   32.6730   39.0900 C   0  0  0  0  0  0  0  0  0  0  0  0
   37.5320   32.4870   40.4050 C   0  0  0  0  0  0  0  0  0  0  0  0
   36.7250   31.4560   40.7150 N   0  0  0  0  0  0  0  0  0  0  0  0
   36.2650   30.5870   39.7850 C   0  0  0  0  0  0  0  0  0  0  0  0
   36.6290   30.7620   38.5150 N   0  0  0  0  0  0  0  0  0  0  0  0
   37.7660   31.9750   37.1300 H   0  0  0  0  0  0  0  0  0  0  0  0
   38.5590   33.5230   38.9270 H   0  0  0  0  0  0  0  0  0  0  0  0
   37.8380   33.1200   41.2350 H   0  0  0  0  0  0  0  0  0  0  0  0
   36.6810   28.9660   42.7320 O   0  0  0  0  0  0  0  0  0  0  0  0
   37.4180   28.9880   43.4340 H   0  0  0  0  0  0  0  0  0  0  0  0
   38.0460   26.5990   43.1370 O   0  0  0  0  0  0  0  0  0  0  0  0
   39.4280   26.6710   43.1800 C   0  0  0  0  0  0  0  0  0  0  0  0
   39.9670   27.9540   43.1620 C   0  0  0  0  0  0  0  0  0  0  0  0
   41.3470   28.0860   43.2040 C   0  0  0  0  0  0  0  0  0  0  0  0
   42.1860   26.9630   43.2640 C   0  0  0  0  0  0  0  0  0  0  0  0
   41.5830   25.7070   43.2800 C   0  0  0  0  0  0  0  0  0  0  0  0
   40.2190   25.5370   43.2390 C   0  0  0  0  0  0  0  0  0  0  0  0
   39.3770   28.8580   43.1170 H   0  0  0  0  0  0  0  0  0  0  0  0
   41.7930   29.0730   43.1910 H   0  0  0  0  0  0  0  0  0  0  0  0
   43.2660   27.0510   43.2980 H   0  0  0  0  0  0  0  0  0  0  0  0
   42.1930   24.8140   43.3260 H   0  0  0  0  0  0  0  0  0  0  0  0
   39.6150   24.1920   43.2570 C   0  0  0  0  0  2  0  0  0  0  0  0
   38.8690   24.1520   42.4290 H   0  0  0  0  0  0  0  0  0  0  0  0
  1  6  1  0  0  0  0
  1 22  1  0  0  0  0
  2  1  2  0  0  0  0
  3  4  2  0  0  0  0
  3  2  1  0  0  0  0
  4  5  1  0  0  0  0
  5  9  1  0  0  0  0
  5  6  2  0  0  0  0
  6 24  1  0  0  0  0
  7  3  1  0  0  0  0
  8  4  1  0  0  0  0
 10  2  1  0  0  0  0
 10 12  1  0  0  0  0
 11 10  1  0  0  0  0
 13 18  2  0  0  0  0
 13 14  1  0  0  0  0
 14 15  2  0  0  0  0
 15 16  1  0  0  0  0
 15 21  1  0  0  0  0
 17 10  1  0  0  0  0
 17 16  2  0  0  0  0
 18 17  1  0  0  0  0
 19 13  1  0  0  0  0
 20 14  1  0  0  0  0
 22 23  1  0  0  0  0
 24 25  1  0  0  0  0
 25 30  1  0  0  0  0
 26 25  2  0  0  0  0
 26 27  1  0  0  0  0
 27 28  2  0  0  0  0
 28 29  1  0  0  0  0
 28 33  1  0  0  0  0
 29 34  1  0  0  0  0
 30 35  1  0  0  0  0
 30 29  2  0  0  0  0
 31 26  1  0  0  0  0
 32 27  1  0  0  0  0
 36 35  1  0  0  0  0
M  END
>  <minimizedAffinity>
-5.8280592

$$$$

 OpenBabel03242522363D

 36 38  0  0  0  0  0  0  0  0999 V2000
   37.3040   28.2020   42.3210 C   0  0  0  0  0  0  0  0  0  0  0  0
   36.4960   28.0630   41.2260 C   0  0  0  0  0  0  0  0  0  0  0  0
   36.6080   26.9170   40.4750 C   0  0  0  0  0  0  0  0  0  0  0  0
   37.4960   25.8740   40.7520 C   0  0  0  0  0  0  0  0  0  0  0  0
   38.3070   26.0390   41.8700 C   0  0  0  0  0  0  0  0  0  0  0  0
   38.1990   27.1860   42.6280 C   0  0  0  0  0  0  0  0  0  0  0  0
   35.9590   26.8100   39.5980 H   0  0  0  0  0  0  0  0  0  0  0  0
   37.5450   24.9910   40.1270 H   0  0  0  0  0  0  0  0  0  0  0  0
   39.0080   25.2460   42.1140 H   0  0  0  0  0  0  0  0  0  0  0  0
   35.5190   29.0920   40.8300 C   0  0  0  0  0  0  0  0  0  0  0  0
   34.8500   28.6250   40.0490 H   0  0  0  0  0  0  0  0  0  0  0  0
   34.8510   29.4150   41.6200 H   0  0  0  0  0  0  0  0  0  0  0  0
   37.0980   32.3640   40.0990 C   0  0  0  0  0  0  0  0  0  0  0  0
   37.3140   32.2710   38.7130 C   0  0  0  0  0  0  0  0  0  0  0  0
   36.9200   31.1090   38.0780 C   0  0  0  0  0  0  0  0  0  0  0  0
   36.3520   30.1260   38.8020 N   0  0  0  0  0  0  0  0  0  0  0  0
   36.1500   30.2310   40.1370 C   0  0  0  0  0  0  0  0  0  0  0  0
   36.5290   31.3500   40.7530 N   0  0  0  0  0  0  0  0  0  0  0  0
   37.4340   33.3020   40.5220 H   0  0  0  0  0  0  0  0  0  0  0  0
   37.7610   33.0070   38.0600 H   0  0  0  0  0  0  0  0  0  0  0  0
   37.0310   30.9140   37.0150 H   0  0  0  0  0  0  0  0  0  0  0  0
   37.2340   29.3240   43.1060 O   0  0  0  0  0  0  0  0  0  0  0  0
   38.0520   29.6030   43.6440 H   0  0  0  0  0  0  0  0  0  0  0  0
   39.0220   27.3130   43.7310 O   0  0  0  0  0  0  0  0  0  0  0  0
   40.3850   27.1630   43.5420 C   0  0  0  0  0  0  0  0  0  0  0  0
   40.9060   25.9140   43.8640 C   0  0  0  0  0  0  0  0  0  0  0  0
   42.2670   25.7070   43.6930 C   0  0  0  0  0  0  0  0  0  0  0  0
   43.1050   26.7220   43.2090 C   0  0  0  0  0  0  0  0  0  0  0  0
   42.5200   27.9500   42.9040 C   0  0  0  0  0  0  0  0  0  0  0  0
   41.1760   28.1920   43.0610 C   0  0  0  0  0  0  0  0  0  0  0  0
   40.3160   25.0900   44.2410 H   0  0  0  0  0  0  0  0  0  0  0  0
   42.6980   24.7440   43.9370 H   0  0  0  0  0  0  0  0  0  0  0  0
   44.1690   26.5760   43.0700 H   0  0  0  0  0  0  0  0  0  0  0  0
   43.1290   28.7610   42.5280 H   0  0  0  0  0  0  0  0  0  0  0  0
   40.5900   29.5050   42.7290 C   0  0  0  0  0  2  0  0  0  0  0  0
   39.9610   29.8170   43.5950 H   0  0  0  0  0  0  0  0  0  0  0  0
  1  6  1  0  0  0  0
  1 22  1  0  0  0  0
  2  1  2  0  0  0  0
  3  4  2  0  0  0  0
  3  2  1  0  0  0  0
  4  5  1  0  0  0  0
  5  9  1  0  0  0  0
  5  6  2  0  0  0  0
  6 24  1  0  0  0  0
  7  3  1  0  0  0  0
  8  4  1  0  0  0  0
 10  2  1  0  0  0  0
 10 12  1  0  0  0  0
 11 10  1  0  0  0  0
 13 19  1  0  0  0  0
 13 18  1  0  0  0  0
 14 13  2  0  0  0  0
 15 14  1  0  0  0  0
 15 16  2  0  0  0  0
 16 17  1  0  0  0  0
 17 18  2  0  0  0  0
 17 10  1  0  0  0  0
 20 14  1  0  0  0  0
 21 15  1  0  0  0  0
 22 23  1  0  0  0  0
 25 24  1  0  0  0  0
 25 26  1  0  0  0  0
 26 31  1  0  0  0  0
 27 26  2  0  0  0  0
 27 32  1  0  0  0  0
 28 27  1  0  0  0  0
 29 30  1  0  0  0  0
 29 28  2  0  0  0  0
 30 25  2  0  0  0  0
 33 28  1  0  0  0  0
 34 29  1  0  0  0  0
 35 30  1  0  0  0  0
 35 36  1  0  0  0  0
M  END
>  <minimizedAffinity>
-5.742908

$$$$

 OpenBabel03242522363D

 36 38  0  0  0  0  0  0  0  0999 V2000
   37.1760   29.5990   41.7830 C   0  0  0  0  0  0  0  0  0  0  0  0
   37.4450   30.7140   41.0380 C   0  0  0  0  0  0  0  0  0  0  0  0
   38.6750   31.3130   41.1840 C   0  0  0  0  0  0  0  0  0  0  0  0
   39.6770   30.8600   42.0460 C   0  0  0  0  0  0  0  0  0  0  0  0
   39.3780   29.7250   42.7920 C   0  0  0  0  0  0  0  0  0  0  0  0
   38.1470   29.1200   42.6500 C   0  0  0  0  0  0  0  0  0  0  0  0
   38.8860   32.2070   40.5850 H   0  0  0  0  0  0  0  0  0  0  0  0
   40.6290   31.3700   42.1240 H   0  0  0  0  0  0  0  0  0  0  0  0
   40.1370   29.3470   43.4710 H   0  0  0  0  0  0  0  0  0  0  0  0
   36.4710   31.2890   40.0940 C   0  0  0  0  0  0  0  0  0  0  0  0
   35.4460   31.1050   40.5290 H   0  0  0  0  0  0  0  0  0  0  0  0
   36.5380   32.3630   39.9670 H   0  0  0  0  0  0  0  0  0  0  0  0
   37.2820   30.1510   36.6620 C   0  0  0  0  0  0  0  0  0  0  0  0
   36.2930   29.1750   36.4460 C   0  0  0  0  0  0  0  0  0  0  0  0
   35.3920   28.9390   37.4650 C   0  0  0  0  0  0  0  0  0  0  0  0
   35.4950   29.6420   38.6080 N   0  0  0  0  0  0  0  0  0  0  0  0
   36.4530   30.5780   38.8020 C   0  0  0  0  0  0  0  0  0  0  0  0
   37.3240   30.8100   37.8200 N   0  0  0  0  0  0  0  0  0  0  0  0
   37.9490   30.2770   35.8190 H   0  0  0  0  0  0  0  0  0  0  0  0
   36.1410   28.5690   35.5640 H   0  0  0  0  0  0  0  0  0  0  0  0
   34.5830   28.2130   37.4220 H   0  0  0  0  0  0  0  0  0  0  0  0
   35.9670   28.9610   41.6770 O   0  0  0  0  0  0  0  0  0  0  0  0
   35.6260   28.4140   42.4650 H   0  0  0  0  0  0  0  0  0  0  0  0
   37.8890   27.9930   43.4090 O   0  0  0  0  0  0  0  0  0  0  0  0
   38.6890   26.8810   43.2100 C   0  0  0  0  0  0  0  0  0  0  0  0
   39.9230   26.9030   43.8540 C   0  0  0  0  0  0  0  0  0  0  0  0
   40.7670   25.8140   43.6900 C   0  0  0  0  0  0  0  0  0  0  0  0
   40.3970   24.7160   42.9000 C   0  0  0  0  0  0  0  0  0  0  0  0
   39.1480   24.7570   42.2830 C   0  0  0  0  0  0  0  0  0  0  0  0
   38.2850   25.8190   42.4220 C   0  0  0  0  0  0  0  0  0  0  0  0
   40.2680   27.7170   44.4760 H   0  0  0  0  0  0  0  0  0  0  0  0
   41.7330   25.8060   44.1800 H   0  0  0  0  0  0  0  0  0  0  0  0
   41.0450   23.8580   42.7630 H   0  0  0  0  0  0  0  0  0  0  0  0
   38.8220   23.9310   41.6650 H   0  0  0  0  0  0  0  0  0  0  0  0
   36.9700   25.8290   41.7540 C   0  0  0  0  0  2  0  0  0  0  0  0
   36.8690   26.8110   41.2340 H   0  0  0  0  0  0  0  0  0  0  0  0
  1  6  1  0  0  0  0
  2  3  1  0  0  0  0
  2  1  2  0  0  0  0
  3  4  2  0  0  0  0
  4  8  1  0  0  0  0
  4  5  1  0  0  0  0
  5  9  1  0  0  0  0
  6  5  2  0  0  0  0
  6 24  1  0  0  0  0
  7  3  1  0  0  0  0
 10 11  1  0  0  0  0
 10  2  1  0  0  0  0
 12 10  1  0  0  0  0
 13 18  1  0  0  0  0
 14 13  2  0  0  0  0
 14 15  1  0  0  0  0
 15 16  2  0  0  0  0
 16 17  1  0  0  0  0
 17 10  1  0  0  0  0
 18 17  2  0  0  0  0
 19 13  1  0  0  0  0
 20 14  1  0  0  0  0
 21 15  1  0  0  0  0
 22  1  1  0  0  0  0
 22 23  1  0  0  0  0
 25 24  1  0  0  0  0
 25 26  1  0  0  0  0
 26 31  1  0  0  0  0
 27 26  2  0  0  0  0
 27 32  1  0  0  0  0
 28 27  1  0  0  0  0
 29 30  1  0  0  0  0
 29 28  2  0  0  0  0
 30 25  2  0  0  0  0
 33 28  1  0  0  0  0
 34 29  1  0  0  0  0
 35 30  1  0  0  0  0
 36 35  1  0  0  0  0
M  END
>  <minimizedAffinity>
-5.73623037

$$$$

 OpenBabel03242522363D

 36 38  0  0  0  0  0  0  0  0999 V2000
   37.3320   29.1020   42.1930 C   0  0  0  0  0  0  0  0  0  0  0  0
   38.2850   28.4790   42.9520 C   0  0  0  0  0  0  0  0  0  0  0  0
   39.5340   29.0500   43.0270 C   0  0  0  0  0  0  0  0  0  0  0  0
   39.9030   30.2320   42.3780 C   0  0  0  0  0  0  0  0  0  0  0  0
   38.9170   30.8460   41.6140 C   0  0  0  0  0  0  0  0  0  0  0  0
   37.6620   30.2780   41.5350 C   0  0  0  0  0  0  0  0  0  0  0  0
   40.2940   28.5470   43.6360 H   0  0  0  0  0  0  0  0  0  0  0  0
   40.9020   30.6390   42.4710 H   0  0  0  0  0  0  0  0  0  0  0  0
   39.1710   31.7670   41.0970 H   0  0  0  0  0  0  0  0  0  0  0  0
   38.0190   27.2290   43.6840 C   0  0  0  0  0  0  0  0  0  0  0  0
   38.8610   27.0970   44.4230 H   0  0  0  0  0  0  0  0  0  0  0  0
   37.1140   27.2330   44.2800 H   0  0  0  0  0  0  0  0  0  0  0  0
   39.3010   24.3870   41.6810 C   0  0  0  0  0  0  0  0  0  0  0  0
   38.1090   23.8260   41.1890 C   0  0  0  0  0  0  0  0  0  0  0  0
   36.9200   24.4270   41.5510 C   0  0  0  0  0  0  0  0  0  0  0  0
   36.9490   25.5110   42.3500 N   0  0  0  0  0  0  0  0  0  0  0  0
   38.1050   26.0400   42.8160 C   0  0  0  0  0  0  0  0  0  0  0  0
   39.2550   25.4620   42.4680 N   0  0  0  0  0  0  0  0  0  0  0  0
   40.1880   23.8600   41.3540 H   0  0  0  0  0  0  0  0  0  0  0  0
   37.9970   22.9630   40.5480 H   0  0  0  0  0  0  0  0  0  0  0  0
   35.9340   24.0920   41.2390 H   0  0  0  0  0  0  0  0  0  0  0  0
   36.0710   28.5770   42.0830 O   0  0  0  0  0  0  0  0  0  0  0  0
   35.5160   28.7920   41.2570 H   0  0  0  0  0  0  0  0  0  0  0  0
   36.7100   30.9190   40.7640 O   0  0  0  0  0  0  0  0  0  0  0  0
   36.8880   30.9270   39.3910 C   0  0  0  0  0  0  0  0  0  0  0  0
   36.7110   29.7040   38.7510 C   0  0  0  0  0  0  0  0  0  0  0  0
   36.8760   29.6540   37.3750 C   0  0  0  0  0  0  0  0  0  0  0  0
   37.2120   30.7990   36.6380 C   0  0  0  0  0  0  0  0  0  0  0  0
   37.3740   31.9930   37.3390 C   0  0  0  0  0  0  0  0  0  0  0  0
   37.2190   32.0800   38.7020 C   0  0  0  0  0  0  0  0  0  0  0  0
   36.4520   28.7860   39.2600 H   0  0  0  0  0  0  0  0  0  0  0  0
   36.7450   28.7140   36.8530 H   0  0  0  0  0  0  0  0  0  0  0  0
   37.3440   30.7750   35.5620 H   0  0  0  0  0  0  0  0  0  0  0  0
   37.6340   32.9000   36.8090 H   0  0  0  0  0  0  0  0  0  0  0  0
   37.3990   33.3610   39.4120 C   0  0  0  0  0  2  0  0  0  0  0  0
   38.0760   33.1690   40.2770 H   0  0  0  0  0  0  0  0  0  0  0  0
  1  2  1  0  0  0  0
  2  3  2  0  0  0  0
  2 10  1  0  0  0  0
  3  7  1  0  0  0  0
  4  8  1  0  0  0  0
  4  3  1  0  0  0  0
  5  4  2  0  0  0  0
  6  5  1  0  0  0  0
  6  1  2  0  0  0  0
  9  5  1  0  0  0  0
 10 12  1  0  0  0  0
 10 11  1  0  0  0  0
 13 18  1  0  0  0  0
 14 15  1  0  0  0  0
 14 13  2  0  0  0  0
 15 16  2  0  0  0  0
 16 17  1  0  0  0  0
 17 10  1  0  0  0  0
 18 17  2  0  0  0  0
 19 13  1  0  0  0  0
 20 14  1  0  0  0  0
 21 15  1  0  0  0  0
 22  1  1  0  0  0  0
 23 22  1  0  0  0  0
 24  6  1  0  0  0  0
 25 24  1  0  0  0  0
 26 31  1  0  0  0  0
 26 25  1  0  0  0  0
 27 26  2  0  0  0  0
 28 29  2  0  0  0  0
 28 27  1  0  0  0  0
 29 30  1  0  0  0  0
 30 25  2  0  0  0  0
 30 35  1  0  0  0  0
 32 27  1  0  0  0  0
 33 28  1  0  0  0  0
 34 29  1  0  0  0  0
 35 36  1  0  0  0  0
M  END
>  <minimizedAffinity>
-5.71201706

$$$$

 OpenBabel03242522363D

 36 38  0  0  0  0  0  0  0  0999 V2000
   38.4380   30.3310   39.8620 C   0  0  0  0  0  0  0  0  0  0  0  0
   38.6860   31.2720   40.8240 C   0  0  0  0  0  0  0  0  0  0  0  0
   38.1720   32.5350   40.6470 C   0  0  0  0  0  0  0  0  0  0  0  0
   37.4070   32.9300   39.5460 C   0  0  0  0  0  0  0  0  0  0  0  0
   37.1700   31.9550   38.5830 C   0  0  0  0  0  0  0  0  0  0  0  0
   37.6820   30.6870   38.7540 C   0  0  0  0  0  0  0  0  0  0  0  0
   38.3740   33.2860   41.4200 H   0  0  0  0  0  0  0  0  0  0  0  0
   37.0260   33.9400   39.4550 H   0  0  0  0  0  0  0  0  0  0  0  0
   36.5770   32.2300   37.7140 H   0  0  0  0  0  0  0  0  0  0  0  0
   39.4790   30.9780   42.0300 C   0  0  0  0  0  0  0  0  0  0  0  0
   40.5470   30.8390   41.6940 H   0  0  0  0  0  0  0  0  0  0  0  0
   39.5120   31.7790   42.7600 H   0  0  0  0  0  0  0  0  0  0  0  0
   37.5940   28.2150   43.6230 C   0  0  0  0  0  0  0  0  0  0  0  0
   38.5910   27.2340   43.7610 C   0  0  0  0  0  0  0  0  0  0  0  0
   39.8600   27.5410   43.3120 C   0  0  0  0  0  0  0  0  0  0  0  0
   40.0880   28.7520   42.7680 N   0  0  0  0  0  0  0  0  0  0  0  0
   39.1170   29.6860   42.6420 C   0  0  0  0  0  0  0  0  0  0  0  0
   37.8910   29.3930   43.0750 N   0  0  0  0  0  0  0  0  0  0  0  0
   36.6290   27.8980   43.9970 H   0  0  0  0  0  0  0  0  0  0  0  0
   38.4940   26.2430   44.1840 H   0  0  0  0  0  0  0  0  0  0  0  0
   40.7160   26.8720   43.3620 H   0  0  0  0  0  0  0  0  0  0  0  0
   38.9260   29.0560   39.9870 O   0  0  0  0  0  0  0  0  0  0  0  0
   39.0840   28.5020   39.1480 H   0  0  0  0  0  0  0  0  0  0  0  0
   37.4230   29.7460   37.7750 O   0  0  0  0  0  0  0  0  0  0  0  0
   36.1020   29.4020   37.5410 C   0  0  0  0  0  0  0  0  0  0  0  0
   35.3370   29.1370   38.6740 C   0  0  0  0  0  0  0  0  0  0  0  0
   34.0070   28.7880   38.4990 C   0  0  0  0  0  0  0  0  0  0  0  0
   33.4360   28.7020   37.2200 C   0  0  0  0  0  0  0  0  0  0  0  0
   34.2560   28.9800   36.1280 C   0  0  0  0  0  0  0  0  0  0  0  0
   35.5790   29.3290   36.2620 C   0  0  0  0  0  0  0  0  0  0  0  0
   35.7160   29.1860   39.6850 H   0  0  0  0  0  0  0  0  0  0  0  0
   33.3890   28.5760   39.3630 H   0  0  0  0  0  0  0  0  0  0  0  0
   32.3980   28.4310   37.0680 H   0  0  0  0  0  0  0  0  0  0  0  0
   33.8570   28.9260   35.1240 H   0  0  0  0  0  0  0  0  0  0  0  0
   36.4190   29.6170   35.0840 C   0  0  0  0  0  2  0  0  0  0  0  0
   37.3610   29.0300   35.1960 H   0  0  0  0  0  0  0  0  0  0  0  0
  1 22  1  0  0  0  0
  1  2  1  0  0  0  0
  2 10  1  0  0  0  0
  3  2  2  0  0  0  0
  3  7  1  0  0  0  0
  4  3  1  0  0  0  0
  5  6  1  0  0  0  0
  5  4  2  0  0  0  0
  6  1  2  0  0  0  0
  8  4  1  0  0  0  0
  9  5  1  0  0  0  0
 10 17  1  0  0  0  0
 10 12  1  0  0  0  0
 11 10  1  0  0  0  0
 13 14  1  0  0  0  0
 13 19  1  0  0  0  0
 14 20  1  0  0  0  0
 15 21  1  0  0  0  0
 15 14  2  0  0  0  0
 16 15  1  0  0  0  0
 17 16  2  0  0  0  0
 17 18  1  0  0  0  0
 18 13  2  0  0  0  0
 23 22  1  0  0  0  0
 24  6  1  0  0  0  0
 25 24  1  0  0  0  0
 25 26  1  0  0  0  0
 26 31  1  0  0  0  0
 27 26  2  0  0  0  0
 27 32  1  0  0  0  0
 28 27  1  0  0  0  0
 29 30  1  0  0  0  0
 29 28  2  0  0  0  0
 30 25  2  0  0  0  0
 33 28  1  0  0  0  0
 34 29  1  0  0  0  0
 35 36  1  0  0  0  0
 35 30  1  0  0  0  0
M  END
>  <minimizedAffinity>
-5.59691668

$$$$
