
 OpenBabel03252504563D

 24 25  0  0  1  0  0  0  0  0999 V2000
   37.3670   27.4700   43.3380 C   0  0  0  0  0  0  0  0  0  0  0  0
   37.6740   28.0730   44.2560 H   0  0  0  0  0  0  0  0  0  0  0  0
   36.4050   27.0170   43.7200 H   0  0  0  0  0  0  0  0  0  0  0  0
   38.3720   26.6380   42.9760 N   0  0  0  0  0  0  0  0  0  0  0  0
   39.6630   26.9040   43.5430 C   0  0  0  0  0  0  0  0  0  0  0  0
   40.2770   25.5500   43.5830 C   0  0  0  0  0  0  0  0  0  0  0  0
   39.3100   24.5700   42.9560 C   0  0  0  0  0  0  0  0  0  0  0  0
   38.3430   25.5210   42.2030 C   0  0  1  0  0  0  0  0  0  0  0  0
   40.2480   27.6890   43.9030 H   0  0  0  0  0  0  0  0  0  0  0  0
   41.2620   25.2260   43.9380 H   0  0  0  0  0  0  0  0  0  0  0  0
   38.7880   24.0610   43.7820 H   0  0  0  0  0  0  0  0  0  0  0  0
   39.8170   23.8950   42.2800 H   0  0  0  0  0  0  0  0  0  0  0  0
   38.8440   25.6850   41.2260 H   0  0  0  0  0  0  0  0  0  0  0  0
   37.1570   24.6870   41.9910 C   0  0  0  0  0  2  0  0  0  0  0  0
   37.2070   23.6920   42.4760 H   0  0  0  0  0  0  0  0  0  0  0  0
   37.2090   30.5650   41.2040 C   0  0  0  0  0  0  0  0  0  0  0  0
   37.6790   29.7070   42.2030 C   0  0  0  0  0  0  0  0  0  0  0  0
   36.9970   28.5040   42.3750 C   0  0  0  0  0  0  0  0  0  0  0  0
   35.9370   28.2490   41.5770 N   0  0  0  0  0  0  0  0  0  0  0  0
   35.5020   29.1200   40.6030 C   0  0  0  0  0  0  0  0  0  0  0  0
   36.1490   30.2700   40.4310 N   0  0  0  0  0  0  0  0  0  0  0  0
   37.7460   31.4780   41.0910 H   0  0  0  0  0  0  0  0  0  0  0  0
   38.5160   29.9020   42.8380 H   0  0  0  0  0  0  0  0  0  0  0  0
   34.6460   28.7960   40.0350 H   0  0  0  0  0  0  0  0  0  0  0  0
  1  3  1  0  0  0  0
  1  2  1  0  0  0  0
  4  1  1  0  0  0  0
  4  5  1  0  0  0  0
  5  6  2  0  0  0  0
  5  9  1  0  0  0  0
  6 10  1  0  0  0  0
  7  6  1  0  0  0  0
  7 11  1  0  0  0  0
  8 13  1  6  0  0  0
  8  7  1  0  0  0  0
  8  4  1  0  0  0  0
 12  7  1  0  0  0  0
 14  8  1  0  0  0  0
 14 15  1  0  0  0  0
 16 17  1  0  0  0  0
 17 18  2  0  0  0  0
 17 23  1  0  0  0  0
 18  1  1  0  0  0  0
 19 18  1  0  0  0  0
 20 19  2  0  0  0  0
 21 20  1  0  0  0  0
 21 16  2  0  0  0  0
 22 16  1  0  0  0  0
 24 20  1  0  0  0  0
M  END
>  <minimizedAffinity>
-4.11180878

$$$$

 OpenBabel03252504563D

 24 25  0  0  1  0  0  0  0  0999 V2000
   37.0410   27.8950   43.0050 C   0  0  0  0  0  0  0  0  0  0  0  0
   36.0330   27.3670   43.0760 H   0  0  0  0  0  0  0  0  0  0  0  0
   37.0830   28.3660   44.0320 H   0  0  0  0  0  0  0  0  0  0  0  0
   37.0610   28.7070   41.9210 N   0  0  0  0  0  0  0  0  0  0  0  0
   35.8970   28.6890   41.0830 C   0  0  0  0  0  0  0  0  0  0  0  0
   35.8920   30.0640   40.5180 C   0  0  0  0  0  0  0  0  0  0  0  0
   37.1220   30.7900   41.0190 C   0  0  0  0  0  0  0  0  0  0  0  0
   37.9950   29.6130   41.5290 C   0  0  1  0  0  0  0  0  0  0  0  0
   35.1230   28.0600   40.7780 H   0  0  0  0  0  0  0  0  0  0  0  0
   35.1960   30.5450   39.8210 H   0  0  0  0  0  0  0  0  0  0  0  0
   36.8000   31.4260   41.8590 H   0  0  0  0  0  0  0  0  0  0  0  0
   37.6100   31.3350   40.2220 H   0  0  0  0  0  0  0  0  0  0  0  0
   38.5370   29.2750   40.6200 H   0  0  0  0  0  0  0  0  0  0  0  0
   38.9460   30.2700   42.4290 C   0  0  0  0  0  2  0  0  0  0  0  0
   38.7520   31.3510   42.5860 H   0  0  0  0  0  0  0  0  0  0  0  0
   39.9800   25.6230   43.6050 C   0  0  0  0  0  0  0  0  0  0  0  0
   39.2120   26.7890   43.6800 C   0  0  0  0  0  0  0  0  0  0  0  0
   37.9920   26.7860   43.0070 C   0  0  0  0  0  0  0  0  0  0  0  0
   37.6350   25.6700   42.3330 N   0  0  0  0  0  0  0  0  0  0  0  0
   38.4180   24.5390   42.2820 C   0  0  0  0  0  0  0  0  0  0  0  0
   39.5850   24.5330   42.9240 N   0  0  0  0  0  0  0  0  0  0  0  0
   40.9080   25.6490   44.1270 H   0  0  0  0  0  0  0  0  0  0  0  0
   39.4880   27.6750   44.2090 H   0  0  0  0  0  0  0  0  0  0  0  0
   38.0180   23.7180   41.7120 H   0  0  0  0  0  0  0  0  0  0  0  0
  1 18  1  0  0  0  0
  1  2  1  0  0  0  0
  1  3  1  0  0  0  0
  4  1  1  0  0  0  0
  5  4  1  0  0  0  0
  6  7  1  0  0  0  0
  6  5  2  0  0  0  0
  7  8  1  0  0  0  0
  7 11  1  0  0  0  0
  8 13  1  6  0  0  0
  8  4  1  0  0  0  0
  8 14  1  0  0  0  0
  9  5  1  0  0  0  0
 10  6  1  0  0  0  0
 12  7  1  0  0  0  0
 14 15  1  0  0  0  0
 16 17  1  0  0  0  0
 16 22  1  0  0  0  0
 17 23  1  0  0  0  0
 18 17  2  0  0  0  0
 19 18  1  0  0  0  0
 20 19  2  0  0  0  0
 20 21  1  0  0  0  0
 21 16  2  0  0  0  0
 24 20  1  0  0  0  0
M  END
>  <minimizedAffinity>
-4.03165483

$$$$

 OpenBabel03252504563D

 24 25  0  0  1  0  0  0  0  0999 V2000
   38.3310   29.4190   40.5370 C   0  0  0  0  0  0  0  0  0  0  0  0
   37.6930   28.9250   39.7300 H   0  0  0  0  0  0  0  0  0  0  0  0
   39.3600   29.1440   40.1620 H   0  0  0  0  0  0  0  0  0  0  0  0
   37.9490   28.9770   41.7590 N   0  0  0  0  0  0  0  0  0  0  0  0
   36.5810   28.5680   41.8970 C   0  0  0  0  0  0  0  0  0  0  0  0
   36.6650   27.5370   42.9660 C   0  0  0  0  0  0  0  0  0  0  0  0
   38.0990   27.4610   43.4430 C   0  0  0  0  0  0  0  0  0  0  0  0
   38.6860   28.7840   42.8850 C   0  0  1  0  0  0  0  0  0  0  0  0
   35.6320   28.7580   41.5100 H   0  0  0  0  0  0  0  0  0  0  0  0
   35.8820   26.9240   43.4260 H   0  0  0  0  0  0  0  0  0  0  0  0
   38.5580   26.5920   42.9440 H   0  0  0  0  0  0  0  0  0  0  0  0
   38.1530   27.4220   44.5220 H   0  0  0  0  0  0  0  0  0  0  0  0
   38.4420   29.5310   43.6680 H   0  0  0  0  0  0  0  0  0  0  0  0
   40.1310   28.5380   42.9000 C   0  0  0  0  0  2  0  0  0  0  0  0
   40.4140   27.5060   43.1910 H   0  0  0  0  0  0  0  0  0  0  0  0
   37.1500   32.7650   39.2830 C   0  0  0  0  0  0  0  0  0  0  0  0
   37.2150   31.3720   39.3820 C   0  0  0  0  0  0  0  0  0  0  0  0
   38.1480   30.8440   40.2720 C   0  0  0  0  0  0  0  0  0  0  0  0
   38.9220   31.7030   40.9730 N   0  0  0  0  0  0  0  0  0  0  0  0
   38.8300   33.0710   40.8490 C   0  0  0  0  0  0  0  0  0  0  0  0
   37.9400   33.5830   40.0010 N   0  0  0  0  0  0  0  0  0  0  0  0
   36.4310   33.1450   38.5970 H   0  0  0  0  0  0  0  0  0  0  0  0
   36.6080   30.6870   38.8310 H   0  0  0  0  0  0  0  0  0  0  0  0
   39.5030   33.6420   41.4650 H   0  0  0  0  0  0  0  0  0  0  0  0
  1  4  1  0  0  0  0
  2  1  1  0  0  0  0
  3  1  1  0  0  0  0
  4  5  1  0  0  0  0
  4  8  1  0  0  0  0
  5  6  2  0  0  0  0
  6 10  1  0  0  0  0
  6  7  1  0  0  0  0
  7 12  1  0  0  0  0
  8 14  1  0  0  0  0
  8  7  1  0  0  0  0
  8 13  1  1  0  0  0
  9  5  1  0  0  0  0
 11  7  1  0  0  0  0
 14 15  1  0  0  0  0
 16 17  2  0  0  0  0
 16 21  1  0  0  0  0
 17 18  1  0  0  0  0
 18  1  1  0  0  0  0
 18 19  2  0  0  0  0
 20 19  1  0  0  0  0
 20 24  1  0  0  0  0
 21 20  2  0  0  0  0
 22 16  1  0  0  0  0
 23 17  1  0  0  0  0
M  END
>  <minimizedAffinity>
-3.98515511

$$$$

 OpenBabel03252504563D

 24 25  0  0  1  0  0  0  0  0999 V2000
   36.0530   29.3550   41.1280 C   0  0  0  0  0  0  0  0  0  0  0  0
   35.5620   30.0090   41.9230 H   0  0  0  0  0  0  0  0  0  0  0  0
   35.1320   28.8880   40.6700 H   0  0  0  0  0  0  0  0  0  0  0  0
   36.9720   28.5430   41.7020 N   0  0  0  0  0  0  0  0  0  0  0  0
   37.4380   28.9190   43.0060 C   0  0  0  0  0  0  0  0  0  0  0  0
   37.7780   27.6050   43.6120 C   0  0  0  0  0  0  0  0  0  0  0  0
   37.5510   26.5280   42.5740 C   0  0  0  0  0  0  0  0  0  0  0  0
   37.4830   27.3610   41.2670 C   0  0  1  0  0  0  0  0  0  0  0  0
   37.5950   29.7600   43.6020 H   0  0  0  0  0  0  0  0  0  0  0  0
   38.1730   27.3600   44.6050 H   0  0  0  0  0  0  0  0  0  0  0  0
   36.5730   26.0700   42.7940 H   0  0  0  0  0  0  0  0  0  0  0  0
   38.3690   25.8200   42.5560 H   0  0  0  0  0  0  0  0  0  0  0  0
   38.5460   27.4600   40.9630 H   0  0  0  0  0  0  0  0  0  0  0  0
   36.8070   26.4570   40.3330 C   0  0  0  0  0  2  0  0  0  0  0  0
   36.4510   25.5120   40.7900 H   0  0  0  0  0  0  0  0  0  0  0  0
   37.1920   31.1520   38.0240 C   0  0  0  0  0  0  0  0  0  0  0  0
   36.7390   30.0860   38.8060 C   0  0  0  0  0  0  0  0  0  0  0  0
   36.5570   30.3320   40.1660 C   0  0  0  0  0  0  0  0  0  0  0  0
   36.8300   31.5710   40.6340 N   0  0  0  0  0  0  0  0  0  0  0  0
   37.2760   32.5970   39.8320 C   0  0  0  0  0  0  0  0  0  0  0  0
   37.4500   32.3700   38.5320 N   0  0  0  0  0  0  0  0  0  0  0  0
   37.3240   30.9400   36.9890 H   0  0  0  0  0  0  0  0  0  0  0  0
   36.5220   29.1050   38.4440 H   0  0  0  0  0  0  0  0  0  0  0  0
   37.4550   33.5350   40.3300 H   0  0  0  0  0  0  0  0  0  0  0  0
  1  4  1  0  0  0  0
  1  2  1  0  0  0  0
  3  1  1  0  0  0  0
  4  5  1  0  0  0  0
  5  9  1  0  0  0  0
  5  6  2  0  0  0  0
  6 10  1  0  0  0  0
  7 11  1  0  0  0  0
  7  6  1  0  0  0  0
  8 13  1  6  0  0  0
  8  4  1  0  0  0  0
  8  7  1  0  0  0  0
 12  7  1  0  0  0  0
 14 15  1  0  0  0  0
 14  8  1  0  0  0  0
 16 21  2  0  0  0  0
 16 17  1  0  0  0  0
 17 18  2  0  0  0  0
 18 19  1  0  0  0  0
 18  1  1  0  0  0  0
 20 24  1  0  0  0  0
 20 19  2  0  0  0  0
 21 20  1  0  0  0  0
 22 16  1  0  0  0  0
 23 17  1  0  0  0  0
M  END
>  <minimizedAffinity>
-3.92010212

$$$$

 OpenBabel03252504563D

 24 25  0  0  1  0  0  0  0  0999 V2000
   36.3120   30.3480   40.6650 C   0  0  0  0  0  0  0  0  0  0  0  0
   35.3530   29.8110   40.3630 H   0  0  0  0  0  0  0  0  0  0  0  0
   35.8730   31.2120   41.2470 H   0  0  0  0  0  0  0  0  0  0  0  0
   37.0540   30.6220   39.5650 N   0  0  0  0  0  0  0  0  0  0  0  0
   37.0430   29.6370   38.5220 C   0  0  0  0  0  0  0  0  0  0  0  0
   37.2660   30.4620   37.3050 C   0  0  0  0  0  0  0  0  0  0  0  0
   37.4680   31.8990   37.7340 C   0  0  0  0  0  0  0  0  0  0  0  0
   37.7640   31.7360   39.2480 C   0  0  1  0  0  0  0  0  0  0  0  0
   36.9360   28.6100   38.3730 H   0  0  0  0  0  0  0  0  0  0  0  0
   37.3350   30.1710   36.2510 H   0  0  0  0  0  0  0  0  0  0  0  0
   36.5080   32.4180   37.5810 H   0  0  0  0  0  0  0  0  0  0  0  0
   38.2970   32.3530   37.2100 H   0  0  0  0  0  0  0  0  0  0  0  0
   38.8580   31.5480   39.2830 H   0  0  0  0  0  0  0  0  0  0  0  0
   37.4970   33.0730   39.7840 C   0  0  0  0  0  2  0  0  0  0  0  0
   37.0830   33.7860   39.0430 H   0  0  0  0  0  0  0  0  0  0  0  0
   38.4550   28.7330   43.3040 C   0  0  0  0  0  0  0  0  0  0  0  0
   38.0530   29.7060   42.3830 C   0  0  0  0  0  0  0  0  0  0  0  0
   36.9040   29.4370   41.6410 C   0  0  0  0  0  0  0  0  0  0  0  0
   36.2640   28.2650   41.8550 N   0  0  0  0  0  0  0  0  0  0  0  0
   36.6910   27.3310   42.7710 C   0  0  0  0  0  0  0  0  0  0  0  0
   37.7860   27.5820   43.4850 N   0  0  0  0  0  0  0  0  0  0  0  0
   39.3350   28.9610   43.8580 H   0  0  0  0  0  0  0  0  0  0  0  0
   38.5540   30.6320   42.2080 H   0  0  0  0  0  0  0  0  0  0  0  0
   36.0900   26.4410   42.8450 H   0  0  0  0  0  0  0  0  0  0  0  0
  1  3  1  0  0  0  0
  1 18  1  0  0  0  0
  2  1  1  0  0  0  0
  4  1  1  0  0  0  0
  5  4  1  0  0  0  0
  6  7  1  0  0  0  0
  6  5  2  0  0  0  0
  7  8  1  0  0  0  0
  8 13  1  1  0  0  0
  8  4  1  0  0  0  0
  8 14  1  0  0  0  0
  9  5  1  0  0  0  0
 10  6  1  0  0  0  0
 11  7  1  0  0  0  0
 12  7  1  0  0  0  0
 15 14  1  0  0  0  0
 16 21  1  0  0  0  0
 16 22  1  0  0  0  0
 17 16  2  0  0  0  0
 18 19  2  0  0  0  0
 18 17  1  0  0  0  0
 19 20  1  0  0  0  0
 20 24  1  0  0  0  0
 20 21  2  0  0  0  0
 23 17  1  0  0  0  0
M  END
>  <minimizedAffinity>
-3.9072969

$$$$

 OpenBabel03252504563D

 24 25  0  0  1  0  0  0  0  0999 V2000
   38.7850   29.9600   40.6770 C   0  0  0  0  0  0  0  0  0  0  0  0
   39.7880   30.1830   41.1720 H   0  0  0  0  0  0  0  0  0  0  0  0
   39.1400   29.3690   39.7820 H   0  0  0  0  0  0  0  0  0  0  0  0
   38.1100   31.1150   40.4610 N   0  0  0  0  0  0  0  0  0  0  0  0
   38.7300   32.3200   40.9330 C   0  0  0  0  0  0  0  0  0  0  0  0
   38.2120   33.3370   39.9800 C   0  0  0  0  0  0  0  0  0  0  0  0
   37.2460   32.6560   39.0350 C   0  0  0  0  0  0  0  0  0  0  0  0
   36.9500   31.3330   39.7890 C   0  0  1  0  0  0  0  0  0  0  0  0
   39.3750   32.6650   41.6760 H   0  0  0  0  0  0  0  0  0  0  0  0
   38.3990   34.4150   39.9190 H   0  0  0  0  0  0  0  0  0  0  0  0
   37.7960   32.4560   38.1020 H   0  0  0  0  0  0  0  0  0  0  0  0
   36.3510   33.2470   38.8950 H   0  0  0  0  0  0  0  0  0  0  0  0
   36.1210   31.6020   40.4770 H   0  0  0  0  0  0  0  0  0  0  0  0
   36.4230   30.4620   38.7350 C   0  0  0  0  0  2  0  0  0  0  0  0
   36.4610   30.9030   37.7180 H   0  0  0  0  0  0  0  0  0  0  0  0
   37.3110   28.2350   43.6790 C   0  0  0  0  0  0  0  0  0  0  0  0
   37.9500   29.2450   42.9540 C   0  0  0  0  0  0  0  0  0  0  0  0
   38.1700   29.0080   41.5990 C   0  0  0  0  0  0  0  0  0  0  0  0
   37.7570   27.8300   41.0800 N   0  0  0  0  0  0  0  0  0  0  0  0
   37.1300   26.8570   41.8260 C   0  0  0  0  0  0  0  0  0  0  0  0
   36.9160   27.0770   43.1210 N   0  0  0  0  0  0  0  0  0  0  0  0
   37.1550   28.4390   44.7120 H   0  0  0  0  0  0  0  0  0  0  0  0
   38.2800   30.1780   43.3570 H   0  0  0  0  0  0  0  0  0  0  0  0
   36.8510   25.9660   41.2910 H   0  0  0  0  0  0  0  0  0  0  0  0
  1  2  1  0  0  0  0
  1 18  1  0  0  0  0
  3  1  1  0  0  0  0
  4  1  1  0  0  0  0
  4  5  1  0  0  0  0
  5  9  1  0  0  0  0
  6  5  2  0  0  0  0
  7  8  1  0  0  0  0
  7  6  1  0  0  0  0
  8  4  1  0  0  0  0
  8 13  1  1  0  0  0
 10  6  1  0  0  0  0
 11  7  1  0  0  0  0
 12  7  1  0  0  0  0
 14  8  1  0  0  0  0
 15 14  1  0  0  0  0
 16 22  1  0  0  0  0
 17 23  1  0  0  0  0
 17 16  2  0  0  0  0
 18 17  1  0  0  0  0
 19 18  2  0  0  0  0
 19 20  1  0  0  0  0
 20 21  2  0  0  0  0
 21 16  1  0  0  0  0
 24 20  1  0  0  0  0
M  END
>  <minimizedAffinity>
-3.84045696

$$$$

 OpenBabel03252504563D

 24 25  0  0  1  0  0  0  0  0999 V2000
   37.8560   29.1660   43.1820 C   0  0  0  0  0  0  0  0  0  0  0  0
   38.8170   29.6280   43.5860 H   0  0  0  0  0  0  0  0  0  0  0  0
   37.0990   29.7120   43.8190 H   0  0  0  0  0  0  0  0  0  0  0  0
   37.9210   27.8160   43.2710 N   0  0  0  0  0  0  0  0  0  0  0  0
   36.7460   27.0880   42.8830 C   0  0  0  0  0  0  0  0  0  0  0  0
   37.3150   25.8030   42.3990 C   0  0  0  0  0  0  0  0  0  0  0  0
   38.8140   25.8370   42.6060 C   0  0  0  0  0  0  0  0  0  0  0  0
   38.9660   27.0140   43.6050 C   0  0  1  0  0  0  0  0  0  0  0  0
   35.7090   27.1810   42.8430 H   0  0  0  0  0  0  0  0  0  0  0  0
   36.8200   24.9140   41.9920 H   0  0  0  0  0  0  0  0  0  0  0  0
   39.2680   26.0920   41.6350 H   0  0  0  0  0  0  0  0  0  0  0  0
   39.1740   24.9070   43.0250 H   0  0  0  0  0  0  0  0  0  0  0  0
   38.8170   26.5380   44.5970 H   0  0  0  0  0  0  0  0  0  0  0  0
   40.3760   27.3860   43.4680 C   0  0  0  0  0  2  0  0  0  0  0  0
   40.9160   26.8380   42.6680 H   0  0  0  0  0  0  0  0  0  0  0  0
   38.4440   30.1260   39.5910 C   0  0  0  0  0  0  0  0  0  0  0  0
   38.7170   29.5500   40.8360 C   0  0  0  0  0  0  0  0  0  0  0  0
   37.7630   29.7270   41.8370 C   0  0  0  0  0  0  0  0  0  0  0  0
   36.6510   30.4370   41.5430 N   0  0  0  0  0  0  0  0  0  0  0  0
   36.4170   30.9910   40.3040 C   0  0  0  0  0  0  0  0  0  0  0  0
   37.3230   30.8250   39.3430 N   0  0  0  0  0  0  0  0  0  0  0  0
   39.1870   29.9780   38.8430 H   0  0  0  0  0  0  0  0  0  0  0  0
   39.5930   28.9880   41.0760 H   0  0  0  0  0  0  0  0  0  0  0  0
   35.4920   31.5320   40.2010 H   0  0  0  0  0  0  0  0  0  0  0  0
  1  4  1  0  0  0  0
  1  2  1  0  0  0  0
  1  3  1  0  0  0  0
  4  8  1  0  0  0  0
  5  4  1  0  0  0  0
  6  7  1  0  0  0  0
  6  5  2  0  0  0  0
  7 12  1  0  0  0  0
  7  8  1  0  0  0  0
  8 13  1  1  0  0  0
  9  5  1  0  0  0  0
 10  6  1  0  0  0  0
 11  7  1  0  0  0  0
 14  8  1  0  0  0  0
 15 14  1  0  0  0  0
 16 17  1  0  0  0  0
 17 23  1  0  0  0  0
 17 18  2  0  0  0  0
 18  1  1  0  0  0  0
 19 18  1  0  0  0  0
 20 19  2  0  0  0  0
 21 16  2  0  0  0  0
 21 20  1  0  0  0  0
 22 16  1  0  0  0  0
 24 20  1  0  0  0  0
M  END
>  <minimizedAffinity>
-3.77116919

$$$$

 OpenBabel03252504563D

 24 25  0  0  1  0  0  0  0  0999 V2000
   36.5310   27.7110   40.6000 C   0  0  0  0  0  0  0  0  0  0  0  0
   35.5190   27.7280   41.1260 H   0  0  0  0  0  0  0  0  0  0  0  0
   36.2720   27.0690   39.7080 H   0  0  0  0  0  0  0  0  0  0  0  0
   37.4870   27.2750   41.4540 N   0  0  0  0  0  0  0  0  0  0  0  0
   38.8310   27.2390   40.9520 C   0  0  0  0  0  0  0  0  0  0  0  0
   39.6360   27.4520   42.1840 C   0  0  0  0  0  0  0  0  0  0  0  0
   38.6910   27.5280   43.3630 C   0  0  0  0  0  0  0  0  0  0  0  0
   37.3920   26.9260   42.7640 C   0  0  1  0  0  0  0  0  0  0  0  0
   39.3650   27.1200   40.0640 H   0  0  0  0  0  0  0  0  0  0  0  0
   40.7210   27.5100   42.3240 H   0  0  0  0  0  0  0  0  0  0  0  0
   38.5510   28.5960   43.5950 H   0  0  0  0  0  0  0  0  0  0  0  0
   39.0550   26.9450   44.1980 H   0  0  0  0  0  0  0  0  0  0  0  0
   37.5190   25.8330   42.9080 H   0  0  0  0  0  0  0  0  0  0  0  0
   36.3520   27.4050   43.6780 C   0  0  0  0  0  2  0  0  0  0  0  0
   36.7160   28.1100   44.4540 H   0  0  0  0  0  0  0  0  0  0  0  0
   36.8320   30.8060   38.4800 C   0  0  0  0  0  0  0  0  0  0  0  0
   36.7430   29.4410   38.7680 C   0  0  0  0  0  0  0  0  0  0  0  0
   36.6690   29.0810   40.1120 C   0  0  0  0  0  0  0  0  0  0  0  0
   36.6910   30.0640   41.0400 N   0  0  0  0  0  0  0  0  0  0  0  0
   36.7800   31.4000   40.7190 C   0  0  0  0  0  0  0  0  0  0  0  0
   36.8490   31.7510   39.4360 N   0  0  0  0  0  0  0  0  0  0  0  0
   36.8870   31.0560   37.4470 H   0  0  0  0  0  0  0  0  0  0  0  0
   36.7260   28.6580   38.0410 H   0  0  0  0  0  0  0  0  0  0  0  0
   36.7860   32.0820   41.5520 H   0  0  0  0  0  0  0  0  0  0  0  0
  1  2  1  0  0  0  0
  1  4  1  0  0  0  0
  3  1  1  0  0  0  0
  4  8  1  0  0  0  0
  5  4  1  0  0  0  0
  5  6  2  0  0  0  0
  6 10  1  0  0  0  0
  6  7  1  0  0  0  0
  7 11  1  0  0  0  0
  7 12  1  0  0  0  0
  8 13  1  1  0  0  0
  8  7  1  0  0  0  0
  8 14  1  0  0  0  0
  9  5  1  0  0  0  0
 14 15  1  0  0  0  0
 16 17  2  0  0  0  0
 16 21  1  0  0  0  0
 17 18  1  0  0  0  0
 18  1  1  0  0  0  0
 18 19  2  0  0  0  0
 20 19  1  0  0  0  0
 20 24  1  0  0  0  0
 21 20  2  0  0  0  0
 22 16  1  0  0  0  0
 23 17  1  0  0  0  0
M  END
>  <minimizedAffinity>
-3.71874189

$$$$

 OpenBabel03252504563D

 24 25  0  0  1  0  0  0  0  0999 V2000
   36.8190   27.5070   40.5990 C   0  0  0  0  0  0  0  0  0  0  0  0
   35.7630   27.3150   40.9840 H   0  0  0  0  0  0  0  0  0  0  0  0
   36.7770   26.9270   39.6300 H   0  0  0  0  0  0  0  0  0  0  0  0
   37.7250   27.1350   41.5340 N   0  0  0  0  0  0  0  0  0  0  0  0
   39.1020   27.1280   41.1290 C   0  0  0  0  0  0  0  0  0  0  0  0
   39.8090   27.4140   42.4050 C   0  0  0  0  0  0  0  0  0  0  0  0
   38.7800   27.5000   43.5110 C   0  0  0  0  0  0  0  0  0  0  0  0
   37.5480   26.8320   42.8470 C   0  0  1  0  0  0  0  0  0  0  0  0
   39.7010   26.9950   40.2860 H   0  0  0  0  0  0  0  0  0  0  0  0
   40.8790   27.5150   42.6180 H   0  0  0  0  0  0  0  0  0  0  0  0
   38.5910   28.5710   43.6920 H   0  0  0  0  0  0  0  0  0  0  0  0
   39.1030   26.9610   44.3920 H   0  0  0  0  0  0  0  0  0  0  0  0
   37.6990   25.7500   43.0420 H   0  0  0  0  0  0  0  0  0  0  0  0
   36.4310   27.3080   43.6670 C   0  0  0  0  0  2  0  0  0  0  0  0
   36.7160   28.0520   44.4380 H   0  0  0  0  0  0  0  0  0  0  0  0
   36.6030   31.2630   40.6490 C   0  0  0  0  0  0  0  0  0  0  0  0
   36.5570   29.9600   41.1530 C   0  0  0  0  0  0  0  0  0  0  0  0
   36.7870   28.9240   40.2490 C   0  0  0  0  0  0  0  0  0  0  0  0
   37.0340   29.2440   38.9590 N   0  0  0  0  0  0  0  0  0  0  0  0
   37.0710   30.5410   38.4980 C   0  0  0  0  0  0  0  0  0  0  0  0
   36.8540   31.5360   39.3570 N   0  0  0  0  0  0  0  0  0  0  0  0
   36.4240   32.0370   41.3580 H   0  0  0  0  0  0  0  0  0  0  0  0
   36.3620   29.6990   42.1700 H   0  0  0  0  0  0  0  0  0  0  0  0
   37.2790   30.6590   37.4490 H   0  0  0  0  0  0  0  0  0  0  0  0
  1  2  1  0  0  0  0
  1  4  1  0  0  0  0
  3  1  1  0  0  0  0
  4  8  1  0  0  0  0
  5  4  1  0  0  0  0
  5  6  2  0  0  0  0
  6 10  1  0  0  0  0
  6  7  1  0  0  0  0
  7 11  1  0  0  0  0
  7 12  1  0  0  0  0
  8 13  1  1  0  0  0
  8  7  1  0  0  0  0
  8 14  1  0  0  0  0
  9  5  1  0  0  0  0
 14 15  1  0  0  0  0
 16 17  1  0  0  0  0
 16 22  1  0  0  0  0
 17 23  1  0  0  0  0
 18  1  1  0  0  0  0
 18 17  2  0  0  0  0
 19 18  1  0  0  0  0
 20 19  2  0  0  0  0
 20 21  1  0  0  0  0
 21 16  2  0  0  0  0
 24 20  1  0  0  0  0
M  END
>  <minimizedAffinity>
-3.68623614

$$$$
