
 OpenBabel03252508313D

 25 26  0  0  1  0  0  0  0  0999 V2000
   45.6130   34.4060   41.8510 N   0  0  0  0  0  0  0  0  0  0  0  0
   46.9490   34.1230   41.4140 C   0  0  1  0  0  0  0  0  0  0  0  0
   47.1040   33.9890   39.9420 C   0  0  0  0  0  0  0  0  0  0  0  0
   46.0550   33.3790   39.2490 N   0  0  0  0  0  0  0  0  0  0  0  0
   44.7570   33.4890   39.7670 C   0  0  0  0  0  0  0  0  0  0  0  0
   44.6600   34.5990   40.8010 C   0  0  0  0  0  0  0  0  0  0  0  0
   47.3090   33.2030   41.9060 H   0  0  0  0  0  0  0  0  0  0  0  0
   47.3240   34.9850   39.4920 H   0  0  0  0  0  0  0  0  0  0  0  0
   48.0380   33.3770   39.7800 H   0  0  0  0  0  0  0  0  0  0  0  0
   46.0780   33.6330   38.2370 H   0  0  0  0  0  0  0  0  0  0  0  0
   43.9670   33.6690   39.0060 H   0  0  0  0  0  0  0  0  0  0  0  0
   44.4820   32.5550   40.3130 H   0  0  0  0  0  0  0  0  0  0  0  0
   43.6210   34.7140   41.0850 H   0  0  0  0  0  0  0  0  0  0  0  0
   45.0270   35.5170   40.2450 H   0  0  0  0  0  0  0  0  0  0  0  0
   44.7160   35.6110   43.6970 C   0  0  0  0  0  0  0  0  0  0  0  0
   45.3730   34.4760   43.2320 C   0  0  0  0  0  0  0  0  0  0  0  0
   45.7550   33.5090   44.1760 C   0  0  0  0  0  0  0  0  0  0  0  0
   45.4790   33.7020   45.4910 N   0  0  0  0  0  0  0  0  0  0  0  0
   44.8390   34.8170   45.9030 C   0  0  0  0  0  0  0  0  0  0  0  0
   44.4620   35.7570   45.0280 N   0  0  0  0  0  0  0  0  0  0  0  0
   44.3470   36.4560   43.1390 H   0  0  0  0  0  0  0  0  0  0  0  0
   46.2540   32.6460   43.8150 H   0  0  0  0  0  0  0  0  0  0  0  0
   44.6350   34.9360   46.9700 H   0  0  0  0  0  0  0  0  0  0  0  0
   47.8420   35.2710   41.8600 C   0  0  0  0  0  0  0  0  0  0  0  0
   48.7920   34.8470   42.2400 H   0  0  0  0  0  0  0  0  0  0  0  0
  1 16  1  0  0  0  0
  2  1  1  0  0  0  0
  2 24  1  0  0  0  0
  2  7  1  1  0  0  0
  3  2  1  0  0  0  0
  4  5  1  0  0  0  0
  4  3  1  0  0  0  0
  5 12  1  0  0  0  0
  5  6  1  0  0  0  0
  6 13  1  0  0  0  0
  6  1  1  0  0  0  0
  8  3  1  0  0  0  0
  9  3  1  0  0  0  0
 10  4  1  0  0  0  0
 11  5  1  0  0  0  0
 14  6  1  0  0  0  0
 15 20  1  0  0  0  0
 16 15  2  0  0  0  0
 16 17  1  0  0  0  0
 17 18  2  0  0  0  0
 18 19  1  0  0  0  0
 19 23  1  0  0  0  0
 20 19  2  0  0  0  0
 21 15  1  0  0  0  0
 22 17  1  0  0  0  0
 24 25  1  0  0  0  0
M  END
>  <minimizedAffinity>
-3.94845414

>  <minimizedRMSD>
2.16702175

$$$$
