
 OpenBabel03252507533D

 31 33  0  0  1  0  0  0  0  0999 V2000
   46.8900   35.0060   42.0740 C   0  0  2  0  0  0  0  0  0  0  0  0
   46.2560   34.1760   40.9840 C   0  0  0  0  0  0  0  0  0  0  0  0
   47.4520   34.1550   40.0100 C   0  0  0  0  0  0  0  0  0  0  0  0
   48.6680   34.0960   40.8880 C   0  0  1  0  0  0  0  0  0  0  0  0
   48.1670   34.2030   42.2940 C   0  0  0  0  0  0  0  0  0  0  0  0
   47.0930   36.0010   41.6760 H   0  0  0  0  0  0  0  0  0  0  0  0
   46.0880   33.1340   41.3340 H   0  0  0  0  0  0  0  0  0  0  0  0
   45.3830   34.6370   40.5130 H   0  0  0  0  0  0  0  0  0  0  0  0
   47.3650   33.3300   39.3000 H   0  0  0  0  0  0  0  0  0  0  0  0
   47.4210   35.1600   39.5320 H   0  0  0  0  0  0  0  0  0  0  0  0
   49.3510   34.9410   40.7100 H   0  0  0  0  0  0  0  0  0  0  0  0
   47.6920   33.2890   42.7030 H   0  0  0  0  0  0  0  0  0  0  0  0
   48.8670   34.6930   42.9940 H   0  0  0  0  0  0  0  0  0  0  0  0
   44.4310   36.0410   44.7440 C   0  0  0  0  0  0  0  0  0  0  0  0
   45.1440   36.0820   43.5370 C   0  0  0  0  0  0  0  0  0  0  0  0
   46.0660   35.0550   43.3100 C   0  0  0  0  0  0  0  0  0  0  0  0
   46.2420   34.0610   44.2550 N   0  0  0  0  0  0  0  0  0  0  0  0
   45.5230   34.0770   45.4030 C   0  0  0  0  0  0  0  0  0  0  0  0
   44.6290   35.0530   45.6450 N   0  0  0  0  0  0  0  0  0  0  0  0
   43.7080   36.8520   44.9140 H   0  0  0  0  0  0  0  0  0  0  0  0
   45.0030   36.8600   42.8000 H   0  0  0  0  0  0  0  0  0  0  0  0
   45.6940   33.2770   46.1150 H   0  0  0  0  0  0  0  0  0  0  0  0
   49.4350   32.8120   40.8050 C   0  0  2  0  0  0  0  0  0  0  0  0
   49.2980   31.8540   41.8740 C   0  0  0  0  0  0  0  0  0  0  0  0
   50.6330   32.5240   41.5660 C   0  0  1  0  0  0  0  0  0  0  0  0
   49.4310   32.4240   39.7670 H   0  0  0  0  0  0  0  0  0  0  0  0
   49.2530   30.7580   41.5710 H   0  0  0  0  0  0  0  0  0  0  0  0
   49.1690   31.9030   42.9390 H   0  0  0  0  0  0  0  0  0  0  0  0
   51.0430   33.3230   42.1780 H   0  0  0  0  0  0  0  0  0  0  0  0
   51.7130   31.6410   40.9500 C   0  0  0  0  0  2  0  0  0  0  0  0
   52.4420   32.2490   40.3640 H   0  0  0  0  0  0  0  0  0  0  0  0
  1  6  1  6  0  0  0
  1  5  1  0  0  0  0
  1 16  1  0  0  0  0
  2  7  1  0  0  0  0
  2  1  1  0  0  0  0
  3  4  1  0  0  0  0
  3  2  1  0  0  0  0
  4 11  1  6  0  0  0
  4  5  1  0  0  0  0
  5 12  1  0  0  0  0
  5 13  1  0  0  0  0
  8  2  1  0  0  0  0
  9  3  1  0  0  0  0
 10  3  1  0  0  0  0
 14 20  1  0  0  0  0
 14 19  1  0  0  0  0
 15 14  2  0  0  0  0
 16 15  1  0  0  0  0
 16 17  2  0  0  0  0
 17 18  1  0  0  0  0
 18 19  2  0  0  0  0
 18 22  1  0  0  0  0
 21 15  1  0  0  0  0
 23 26  1  6  0  0  0
 23  4  1  0  0  0  0
 23 25  1  0  0  0  0
 23 24  1  0  0  0  0
 24 28  1  0  0  0  0
 25 24  1  0  0  0  0
 25 29  1  1  0  0  0
 27 24  1  0  0  0  0
 30 25  1  0  0  0  0
 31 30  1  0  0  0  0
M  END
>  <minimizedAffinity>
-4.8087945

>  <minimizedRMSD>
0.334575117

$$$$
