
 OpenBabel03252502443D

 24 25  0  0  1  0  0  0  0  0999 V2000
   35.5380   29.1050   40.7330 C   0  0  0  0  0  0  0  0  0  0  0  0
   34.6880   28.7110   40.1730 H   0  0  0  0  0  0  0  0  0  0  0  0
   35.3190   29.6930   41.6330 H   0  0  0  0  0  0  0  0  0  0  0  0
   37.1800   31.2120   38.0990 C   0  0  0  0  0  0  0  0  0  0  0  0
   36.4860   30.1300   38.7080 C   0  0  0  0  0  0  0  0  0  0  0  0
   36.2130   30.2420   40.0430 C   0  0  0  0  0  0  0  0  0  0  0  0
   36.5990   31.3560   40.7240 N   0  0  0  0  0  0  0  0  0  0  0  0
   37.2430   32.3540   40.1370 C   0  0  0  0  0  0  0  0  0  0  0  0
   37.5320   32.2800   38.8340 N   0  0  0  0  0  0  0  0  0  0  0  0
   37.4500   31.2280   37.0460 H   0  0  0  0  0  0  0  0  0  0  0  0
   36.2680   29.3660   37.9980 H   0  0  0  0  0  0  0  0  0  0  0  0
   37.5490   33.2390   40.6800 H   0  0  0  0  0  0  0  0  0  0  0  0
   36.5620   28.0830   41.1150 C   0  0  0  0  0  0  0  0  0  0  0  0
   37.5600   28.2770   40.6530 H   0  0  0  0  0  0  0  0  0  0  0  0
   36.1780   27.0760   40.9200 H   0  0  0  0  0  0  0  0  0  0  0  0
   36.7760   28.3580   42.5910 C   0  0  1  0  0  0  0  0  0  0  0  0
   36.5440   27.3220   43.5630 C   0  0  0  0  0  0  0  0  0  0  0  0
   37.9270   27.9540   43.2670 C   0  0  1  0  0  0  0  0  0  0  0  0
   36.1810   29.2960   42.7910 H   0  0  0  0  0  0  0  0  0  0  0  0
   36.1700   27.5940   44.5940 H   0  0  0  0  0  0  0  0  0  0  0  0
   36.4110   26.2610   43.3960 H   0  0  0  0  0  0  0  0  0  0  0  0
   38.1990   28.8820   43.8840 H   0  0  0  0  0  0  0  0  0  0  0  0
   38.9630   27.0350   43.6240 C   0  0  0  0  0  2  0  0  0  0  0  0
   39.7310   27.3640   44.3970 H   0  0  0  0  0  0  0  0  0  0  0  0
  1 13  1  0  0  0  0
  1  3  1  0  0  0  0
  2  1  1  0  0  0  0
  4  5  2  0  0  0  0
  4  9  1  0  0  0  0
  5  6  1  0  0  0  0
  6  7  2  0  0  0  0
  6  1  1  0  0  0  0
  8 12  1  0  0  0  0
  8  7  1  0  0  0  0
  9  8  2  0  0  0  0
 10  4  1  0  0  0  0
 11  5  1  0  0  0  0
 13 16  1  0  0  0  0
 14 13  1  0  0  0  0
 15 13  1  0  0  0  0
 16 19  1  1  0  0  0
 16 18  1  0  0  0  0
 16 17  1  0  0  0  0
 17 20  1  0  0  0  0
 18 17  1  0  0  0  0
 18 23  1  0  0  0  0
 18 22  1  1  0  0  0
 21 17  1  0  0  0  0
 23 24  1  0  0  0  0
M  END
>  <minimizedAffinity>
-4.14634848

$$$$

 OpenBabel03252502443D

 24 25  0  0  1  0  0  0  0  0999 V2000
   37.5680   28.2200   43.6800 C   0  0  0  0  0  0  0  0  0  0  0  0
   37.3360   28.6040   44.6750 H   0  0  0  0  0  0  0  0  0  0  0  0
   38.5640   27.7850   43.5270 H   0  0  0  0  0  0  0  0  0  0  0  0
   39.1730   30.9440   41.6620 C   0  0  0  0  0  0  0  0  0  0  0  0
   39.0210   29.8800   42.5930 C   0  0  0  0  0  0  0  0  0  0  0  0
   37.7850   29.3010   42.6750 C   0  0  0  0  0  0  0  0  0  0  0  0
   36.7720   29.7460   41.8820 N   0  0  0  0  0  0  0  0  0  0  0  0
   36.9360   30.7380   41.0190 C   0  0  0  0  0  0  0  0  0  0  0  0
   38.1280   31.3330   40.9130 N   0  0  0  0  0  0  0  0  0  0  0  0
   40.1090   31.4770   41.5160 H   0  0  0  0  0  0  0  0  0  0  0  0
   39.9360   29.6820   43.1020 H   0  0  0  0  0  0  0  0  0  0  0  0
   36.1290   31.0910   40.3890 H   0  0  0  0  0  0  0  0  0  0  0  0
   36.5750   27.2380   43.1410 C   0  0  0  0  0  0  0  0  0  0  0  0
   35.9430   27.6670   42.3260 H   0  0  0  0  0  0  0  0  0  0  0  0
   35.9960   26.8020   43.9610 H   0  0  0  0  0  0  0  0  0  0  0  0
   37.4550   26.2240   42.4350 C   0  0  1  0  0  0  0  0  0  0  0  0
   36.9530   24.9090   42.1400 C   0  0  0  0  0  0  0  0  0  0  0  0
   37.3420   25.9590   41.0700 C   0  0  1  0  0  0  0  0  0  0  0  0
   38.4080   26.2120   43.0380 H   0  0  0  0  0  0  0  0  0  0  0  0
   37.6590   24.0270   42.1380 H   0  0  0  0  0  0  0  0  0  0  0  0
   35.9310   24.5560   42.1740 H   0  0  0  0  0  0  0  0  0  0  0  0
   38.4340   25.9430   40.7220 H   0  0  0  0  0  0  0  0  0  0  0  0
   36.6300   25.6980   39.8570 C   0  0  0  0  0  2  0  0  0  0  0  0
   37.2330   25.5030   38.9120 H   0  0  0  0  0  0  0  0  0  0  0  0
  1  2  1  0  0  0  0
  3  1  1  0  0  0  0
  4  5  1  0  0  0  0
  5  6  2  0  0  0  0
  5 11  1  0  0  0  0
  6  1  1  0  0  0  0
  7  6  1  0  0  0  0
  8  7  2  0  0  0  0
  9  8  1  0  0  0  0
  9  4  2  0  0  0  0
 10  4  1  0  0  0  0
 12  8  1  0  0  0  0
 13  1  1  0  0  0  0
 13 15  1  0  0  0  0
 14 13  1  0  0  0  0
 16 19  1  1  0  0  0
 16 13  1  0  0  0  0
 17 21  1  0  0  0  0
 17 16  1  0  0  0  0
 18 22  1  6  0  0  0
 18 17  1  0  0  0  0
 18 16  1  0  0  0  0
 20 17  1  0  0  0  0
 23 18  1  0  0  0  0
 24 23  1  0  0  0  0
M  END
>  <minimizedAffinity>
-4.03631544

$$$$

 OpenBabel03252502443D

 24 25  0  0  1  0  0  0  0  0999 V2000
   37.2080   29.5510   42.1310 C   0  0  0  0  0  0  0  0  0  0  0  0
   36.7020   28.7720   41.5590 H   0  0  0  0  0  0  0  0  0  0  0  0
   36.5940   30.1570   42.8110 H   0  0  0  0  0  0  0  0  0  0  0  0
   37.1320   32.3030   39.5820 C   0  0  0  0  0  0  0  0  0  0  0  0
   36.7000   31.2200   40.3980 C   0  0  0  0  0  0  0  0  0  0  0  0
   37.6020   30.7230   41.2970 C   0  0  0  0  0  0  0  0  0  0  0  0
   38.8480   31.2670   41.3810 N   0  0  0  0  0  0  0  0  0  0  0  0
   39.2300   32.2760   40.6130 C   0  0  0  0  0  0  0  0  0  0  0  0
   38.3780   32.7880   39.7190 N   0  0  0  0  0  0  0  0  0  0  0  0
   36.5000   32.7730   38.8340 H   0  0  0  0  0  0  0  0  0  0  0  0
   35.6910   30.9570   40.1810 H   0  0  0  0  0  0  0  0  0  0  0  0
   40.2210   32.7080   40.6810 H   0  0  0  0  0  0  0  0  0  0  0  0
   38.3940   29.0820   42.9130 C   0  0  0  0  0  0  0  0  0  0  0  0
   38.6320   29.7470   43.7780 H   0  0  0  0  0  0  0  0  0  0  0  0
   39.2430   28.9160   42.2420 H   0  0  0  0  0  0  0  0  0  0  0  0
   37.8890   27.8040   43.5550 C   0  0  1  0  0  0  0  0  0  0  0  0
   36.5050   27.4290   43.4320 C   0  0  0  0  0  0  0  0  0  0  0  0
   37.6870   26.6320   42.8270 C   0  0  1  0  0  0  0  0  0  0  0  0
   38.2380   27.8700   44.6260 H   0  0  0  0  0  0  0  0  0  0  0  0
   36.0020   26.8620   44.2700 H   0  0  0  0  0  0  0  0  0  0  0  0
   35.7560   27.8340   42.7650 H   0  0  0  0  0  0  0  0  0  0  0  0
   38.1520   25.8290   43.5000 H   0  0  0  0  0  0  0  0  0  0  0  0
   37.2290   25.8650   41.7090 C   0  0  0  0  0  2  0  0  0  0  0  0
   37.3650   24.7360   41.7410 H   0  0  0  0  0  0  0  0  0  0  0  0
  1  3  1  0  0  0  0
  1 13  1  0  0  0  0
  2  1  1  0  0  0  0
  4  9  2  0  0  0  0
  4  5  1  0  0  0  0
  5  6  2  0  0  0  0
  6  7  1  0  0  0  0
  6  1  1  0  0  0  0
  8 12  1  0  0  0  0
  8  7  2  0  0  0  0
  9  8  1  0  0  0  0
 10  4  1  0  0  0  0
 11  5  1  0  0  0  0
 13 16  1  0  0  0  0
 13 14  1  0  0  0  0
 15 13  1  0  0  0  0
 16 19  1  1  0  0  0
 17 16  1  0  0  0  0
 17 20  1  0  0  0  0
 18 17  1  0  0  0  0
 18 22  1  1  0  0  0
 18 16  1  0  0  0  0
 21 17  1  0  0  0  0
 23 24  1  0  0  0  0
 23 18  1  0  0  0  0
M  END
>  <minimizedAffinity>
-3.94105411

$$$$

 OpenBabel03252502443D

 24 25  0  0  1  0  0  0  0  0999 V2000
   35.4710   29.1190   40.6620 C   0  0  0  0  0  0  0  0  0  0  0  0
   34.4690   28.9110   40.2810 H   0  0  0  0  0  0  0  0  0  0  0  0
   35.5470   29.7010   41.5890 H   0  0  0  0  0  0  0  0  0  0  0  0
   37.1900   32.2890   39.6300 C   0  0  0  0  0  0  0  0  0  0  0  0
   36.5450   31.3210   40.4480 C   0  0  0  0  0  0  0  0  0  0  0  0
   36.2000   30.1390   39.8530 C   0  0  0  0  0  0  0  0  0  0  0  0
   36.4800   29.9330   38.5370 N   0  0  0  0  0  0  0  0  0  0  0  0
   37.0830   30.8480   37.7930 C   0  0  0  0  0  0  0  0  0  0  0  0
   37.4330   32.0180   38.3370 N   0  0  0  0  0  0  0  0  0  0  0  0
   37.5060   33.2620   39.9970 H   0  0  0  0  0  0  0  0  0  0  0  0
   36.4330   31.6760   41.4460 H   0  0  0  0  0  0  0  0  0  0  0  0
   37.3050   30.6830   36.7460 H   0  0  0  0  0  0  0  0  0  0  0  0
   36.3390   27.9120   40.8300 C   0  0  0  0  0  0  0  0  0  0  0  0
   37.3560   28.0470   40.3910 H   0  0  0  0  0  0  0  0  0  0  0  0
   35.8180   27.0220   40.4630 H   0  0  0  0  0  0  0  0  0  0  0  0
   36.5800   27.8790   42.3270 C   0  0  1  0  0  0  0  0  0  0  0  0
   37.7510   27.2330   42.8590 C   0  0  0  0  0  0  0  0  0  0  0  0
   37.4650   28.7510   42.9610 C   0  0  1  0  0  0  0  0  0  0  0  0
   35.6180   27.4790   42.7580 H   0  0  0  0  0  0  0  0  0  0  0  0
   37.7030   26.7280   43.8690 H   0  0  0  0  0  0  0  0  0  0  0  0
   38.6360   26.9050   42.3300 H   0  0  0  0  0  0  0  0  0  0  0  0
   36.8720   29.0930   43.8810 H   0  0  0  0  0  0  0  0  0  0  0  0
   38.6960   29.4650   43.1080 C   0  0  0  0  0  2  0  0  0  0  0  0
   38.8330   30.1150   44.0320 H   0  0  0  0  0  0  0  0  0  0  0  0
  1 13  1  0  0  0  0
  1  3  1  0  0  0  0
  2  1  1  0  0  0  0
  4 10  1  0  0  0  0
  4  5  1  0  0  0  0
  5 11  1  0  0  0  0
  6  5  2  0  0  0  0
  6  1  1  0  0  0  0
  7  6  1  0  0  0  0
  8  9  1  0  0  0  0
  8  7  2  0  0  0  0
  9  4  2  0  0  0  0
 12  8  1  0  0  0  0
 13 16  1  0  0  0  0
 14 13  1  0  0  0  0
 15 13  1  0  0  0  0
 16 19  1  1  0  0  0
 16 17  1  0  0  0  0
 16 18  1  0  0  0  0
 17 18  1  0  0  0  0
 17 20  1  0  0  0  0
 18 23  1  0  0  0  0
 18 22  1  1  0  0  0
 21 17  1  0  0  0  0
 23 24  1  0  0  0  0
M  END
>  <minimizedAffinity>
-3.82880473

$$$$

 OpenBabel03252502443D

 24 25  0  0  1  0  0  0  0  0999 V2000
   36.6580   27.0110   42.6040 C   0  0  0  0  0  0  0  0  0  0  0  0
   35.6600   26.5700   42.6000 H   0  0  0  0  0  0  0  0  0  0  0  0
   37.0400   27.3830   43.5640 H   0  0  0  0  0  0  0  0  0  0  0  0
   35.8250   29.9590   40.4380 C   0  0  0  0  0  0  0  0  0  0  0  0
   35.7180   28.6900   41.0710 C   0  0  0  0  0  0  0  0  0  0  0  0
   36.7010   28.3570   41.9620 C   0  0  0  0  0  0  0  0  0  0  0  0
   37.7180   29.2280   42.2090 N   0  0  0  0  0  0  0  0  0  0  0  0
   37.7970   30.4070   41.6090 C   0  0  0  0  0  0  0  0  0  0  0  0
   36.8580   30.7680   40.7300 N   0  0  0  0  0  0  0  0  0  0  0  0
   35.1020   30.3250   39.7130 H   0  0  0  0  0  0  0  0  0  0  0  0
   34.8450   28.1720   40.7480 H   0  0  0  0  0  0  0  0  0  0  0  0
   38.6060   31.0990   41.8070 H   0  0  0  0  0  0  0  0  0  0  0  0
   37.7260   26.1480   42.0120 C   0  0  0  0  0  0  0  0  0  0  0  0
   38.6300   26.0720   42.6620 H   0  0  0  0  0  0  0  0  0  0  0  0
   37.9480   26.4740   40.9910 H   0  0  0  0  0  0  0  0  0  0  0  0
   37.1080   24.7640   42.0680 C   0  0  1  0  0  0  0  0  0  0  0  0
   36.4100   24.2340   40.9270 C   0  0  0  0  0  0  0  0  0  0  0  0
   37.7230   23.6480   41.5020 C   0  0  1  0  0  0  0  0  0  0  0  0
   36.4830   24.7740   43.0070 H   0  0  0  0  0  0  0  0  0  0  0  0
   35.5360   23.5340   41.0810 H   0  0  0  0  0  0  0  0  0  0  0  0
   36.4070   24.6030   39.9100 H   0  0  0  0  0  0  0  0  0  0  0  0
   37.6060   22.8500   42.3170 H   0  0  0  0  0  0  0  0  0  0  0  0
   38.4220   22.9360   40.4770 C   0  0  0  0  0  2  0  0  0  0  0  0
   38.6490   21.8340   40.6460 H   0  0  0  0  0  0  0  0  0  0  0  0
  1  3  1  0  0  0  0
  2  1  1  0  0  0  0
  4  9  2  0  0  0  0
  4  5  1  0  0  0  0
  5  6  2  0  0  0  0
  6  7  1  0  0  0  0
  6  1  1  0  0  0  0
  8 12  1  0  0  0  0
  8  7  2  0  0  0  0
  9  8  1  0  0  0  0
 10  4  1  0  0  0  0
 11  5  1  0  0  0  0
 13 16  1  0  0  0  0
 13  1  1  0  0  0  0
 13 14  1  0  0  0  0
 15 13  1  0  0  0  0
 16 19  1  1  0  0  0
 17 20  1  0  0  0  0
 17 18  1  0  0  0  0
 17 16  1  0  0  0  0
 18 16  1  0  0  0  0
 18 22  1  1  0  0  0
 21 17  1  0  0  0  0
 23 24  1  0  0  0  0
 23 18  1  0  0  0  0
M  END
>  <minimizedAffinity>
-3.78261542

$$$$

 OpenBabel03252502443D

 24 25  0  0  1  0  0  0  0  0999 V2000
   36.2500   30.8520   40.9130 C   0  0  0  0  0  0  0  0  0  0  0  0
   35.4470   31.3060   41.4960 H   0  0  0  0  0  0  0  0  0  0  0  0
   35.9630   30.2610   40.0340 H   0  0  0  0  0  0  0  0  0  0  0  0
   36.9030   27.3870   42.1950 C   0  0  0  0  0  0  0  0  0  0  0  0
   36.3010   28.4590   41.4790 C   0  0  0  0  0  0  0  0  0  0  0  0
   36.8840   29.6900   41.6020 C   0  0  0  0  0  0  0  0  0  0  0  0
   37.9910   29.8440   42.3780 N   0  0  0  0  0  0  0  0  0  0  0  0
   38.5380   28.8310   43.0350 C   0  0  0  0  0  0  0  0  0  0  0  0
   37.9950   27.6130   42.9440 N   0  0  0  0  0  0  0  0  0  0  0  0
   36.5230   26.3690   42.1720 H   0  0  0  0  0  0  0  0  0  0  0  0
   35.4560   28.1230   40.9250 H   0  0  0  0  0  0  0  0  0  0  0  0
   39.4180   28.9550   43.6530 H   0  0  0  0  0  0  0  0  0  0  0  0
   37.3170   31.8040   40.4720 C   0  0  0  0  0  0  0  0  0  0  0  0
   38.3410   31.3640   40.5330 H   0  0  0  0  0  0  0  0  0  0  0  0
   37.2160   32.7540   41.0070 H   0  0  0  0  0  0  0  0  0  0  0  0
   37.0550   31.9340   38.9830 C   0  0  1  0  0  0  0  0  0  0  0  0
   38.1350   31.7990   38.0420 C   0  0  0  0  0  0  0  0  0  0  0  0
   36.9360   30.8250   38.1460 C   0  0  1  0  0  0  0  0  0  0  0  0
   36.4950   32.9080   38.8810 H   0  0  0  0  0  0  0  0  0  0  0  0
   38.1150   32.3880   37.0780 H   0  0  0  0  0  0  0  0  0  0  0  0
   39.1320   31.4160   38.2140 H   0  0  0  0  0  0  0  0  0  0  0  0
   36.0190   31.0840   37.5090 H   0  0  0  0  0  0  0  0  0  0  0  0
   37.3110   29.5420   37.6360 C   0  0  0  0  0  2  0  0  0  0  0  0
   36.7140   29.1140   36.7660 H   0  0  0  0  0  0  0  0  0  0  0  0
  1  2  1  0  0  0  0
  1  6  1  0  0  0  0
  3  1  1  0  0  0  0
  4  9  1  0  0  0  0
  5  6  1  0  0  0  0
  5  4  2  0  0  0  0
  6  7  2  0  0  0  0
  7  8  1  0  0  0  0
  8 12  1  0  0  0  0
  9  8  2  0  0  0  0
 10  4  1  0  0  0  0
 11  5  1  0  0  0  0
 13 14  1  0  0  0  0
 13  1  1  0  0  0  0
 13 15  1  0  0  0  0
 16 19  1  6  0  0  0
 16 13  1  0  0  0  0
 17 18  1  0  0  0  0
 17 21  1  0  0  0  0
 17 16  1  0  0  0  0
 18 22  1  6  0  0  0
 18 16  1  0  0  0  0
 20 17  1  0  0  0  0
 23 18  1  0  0  0  0
 24 23  1  0  0  0  0
M  END
>  <minimizedAffinity>
-3.76354694

$$$$

 OpenBabel03252502443D

 24 25  0  0  1  0  0  0  0  0999 V2000
   37.2210   26.9140   41.6370 C   0  0  0  0  0  0  0  0  0  0  0  0
   38.2830   27.1350   41.5190 H   0  0  0  0  0  0  0  0  0  0  0  0
   36.8880   25.8960   41.3930 H   0  0  0  0  0  0  0  0  0  0  0  0
   35.6130   27.6620   38.3310 C   0  0  0  0  0  0  0  0  0  0  0  0
   36.3890   27.0020   39.3240 C   0  0  0  0  0  0  0  0  0  0  0  0
   36.3750   27.5420   40.5800 C   0  0  0  0  0  0  0  0  0  0  0  0
   35.6380   28.6580   40.8330 N   0  0  0  0  0  0  0  0  0  0  0  0
   34.9200   29.2560   39.8940 C   0  0  0  0  0  0  0  0  0  0  0  0
   34.9100   28.7610   38.6520 N   0  0  0  0  0  0  0  0  0  0  0  0
   35.5520   27.3220   37.3010 H   0  0  0  0  0  0  0  0  0  0  0  0
   36.8770   26.1450   38.9220 H   0  0  0  0  0  0  0  0  0  0  0  0
   34.3340   30.1440   40.0960 H   0  0  0  0  0  0  0  0  0  0  0  0
   36.6580   27.2480   42.9820 C   0  0  0  0  0  0  0  0  0  0  0  0
   36.4530   26.3420   43.6020 H   0  0  0  0  0  0  0  0  0  0  0  0
   35.7910   27.9070   42.8720 H   0  0  0  0  0  0  0  0  0  0  0  0
   37.8260   27.9200   43.6780 C   0  0  1  0  0  0  0  0  0  0  0  0
   39.1480   27.8420   43.1140 C   0  0  0  0  0  0  0  0  0  0  0  0
   38.3340   29.1510   43.2640 C   0  0  1  0  0  0  0  0  0  0  0  0
   37.7730   27.5460   44.7410 H   0  0  0  0  0  0  0  0  0  0  0  0
   40.0480   27.8270   43.7970 H   0  0  0  0  0  0  0  0  0  0  0  0
   39.4380   27.5200   42.1230 H   0  0  0  0  0  0  0  0  0  0  0  0
   38.4670   29.7170   44.2520 H   0  0  0  0  0  0  0  0  0  0  0  0
   38.7810   30.1080   42.3000 C   0  0  0  0  0  2  0  0  0  0  0  0
   39.1760   31.1070   42.6770 H   0  0  0  0  0  0  0  0  0  0  0  0
  1 13  1  0  0  0  0
  2  1  1  0  0  0  0
  3  1  1  0  0  0  0
  4  9  2  0  0  0  0
  4  5  1  0  0  0  0
  5  6  2  0  0  0  0
  6  7  1  0  0  0  0
  6  1  1  0  0  0  0
  8 12  1  0  0  0  0
  8  7  2  0  0  0  0
  9  8  1  0  0  0  0
 10  4  1  0  0  0  0
 11  5  1  0  0  0  0
 13 14  1  0  0  0  0
 13 16  1  0  0  0  0
 15 13  1  0  0  0  0
 16 19  1  1  0  0  0
 17 18  1  0  0  0  0
 17 16  1  0  0  0  0
 17 20  1  0  0  0  0
 18 16  1  0  0  0  0
 18 22  1  1  0  0  0
 21 17  1  0  0  0  0
 23 24  1  0  0  0  0
 23 18  1  0  0  0  0
M  END
>  <minimizedAffinity>
-3.71907544

$$$$

 OpenBabel03252502443D

 24 25  0  0  1  0  0  0  0  0999 V2000
   36.9590   26.8200   42.8940 C   0  0  0  0  0  0  0  0  0  0  0  0
   36.1060   26.4750   43.4820 H   0  0  0  0  0  0  0  0  0  0  0  0
   36.7450   27.4260   42.0050 H   0  0  0  0  0  0  0  0  0  0  0  0
   37.5530   23.5530   41.1490 C   0  0  0  0  0  0  0  0  0  0  0  0
   36.8860   24.5920   41.8540 C   0  0  0  0  0  0  0  0  0  0  0  0
   37.6030   25.7290   42.1070 C   0  0  0  0  0  0  0  0  0  0  0  0
   38.8930   25.8260   41.6840 N   0  0  0  0  0  0  0  0  0  0  0  0
   39.4960   24.8460   41.0270 C   0  0  0  0  0  0  0  0  0  0  0  0
   38.8300   23.7180   40.7640 N   0  0  0  0  0  0  0  0  0  0  0  0
   37.0810   22.6070   40.8960 H   0  0  0  0  0  0  0  0  0  0  0  0
   35.8810   24.3190   42.0800 H   0  0  0  0  0  0  0  0  0  0  0  0
   40.5220   24.9250   40.6920 H   0  0  0  0  0  0  0  0  0  0  0  0
   38.0060   27.5460   43.6780 C   0  0  0  0  0  0  0  0  0  0  0  0
   39.0420   27.3140   43.3330 H   0  0  0  0  0  0  0  0  0  0  0  0
   37.8540   27.3800   44.7500 H   0  0  0  0  0  0  0  0  0  0  0  0
   37.7910   28.9910   43.2680 C   0  0  1  0  0  0  0  0  0  0  0  0
   38.9100   29.8100   42.8840 C   0  0  0  0  0  0  0  0  0  0  0  0
   37.7610   29.3910   41.9330 C   0  0  1  0  0  0  0  0  0  0  0  0
   37.1830   29.4340   44.1090 H   0  0  0  0  0  0  0  0  0  0  0  0
   38.8920   30.9190   43.1000 H   0  0  0  0  0  0  0  0  0  0  0  0
   39.9190   29.5000   42.6480 H   0  0  0  0  0  0  0  0  0  0  0  0
   36.8550   30.0930   41.8960 H   0  0  0  0  0  0  0  0  0  0  0  0
   38.2230   29.4180   40.5790 C   0  0  0  0  0  2  0  0  0  0  0  0
   37.6820   30.0930   39.8400 H   0  0  0  0  0  0  0  0  0  0  0  0
  1  2  1  0  0  0  0
  1 13  1  0  0  0  0
  3  1  1  0  0  0  0
  4  5  1  0  0  0  0
  5 11  1  0  0  0  0
  5  6  2  0  0  0  0
  6  1  1  0  0  0  0
  7  6  1  0  0  0  0
  8  7  2  0  0  0  0
  9  8  1  0  0  0  0
  9  4  2  0  0  0  0
 10  4  1  0  0  0  0
 12  8  1  0  0  0  0
 13 15  1  0  0  0  0
 14 13  1  0  0  0  0
 16 13  1  0  0  0  0
 16 19  1  1  0  0  0
 17 20  1  0  0  0  0
 17 16  1  0  0  0  0
 18 22  1  1  0  0  0
 18 17  1  0  0  0  0
 18 16  1  0  0  0  0
 21 17  1  0  0  0  0
 23 18  1  0  0  0  0
 24 23  1  0  0  0  0
M  END
>  <minimizedAffinity>
-3.66720915

$$$$

 OpenBabel03252502443D

 24 25  0  0  1  0  0  0  0  0999 V2000
   37.5370   28.9490   43.0260 C   0  0  0  0  0  0  0  0  0  0  0  0
   37.8460   29.3960   43.9730 H   0  0  0  0  0  0  0  0  0  0  0  0
   36.4790   28.6800   42.9170 H   0  0  0  0  0  0  0  0  0  0  0  0
   37.6520   25.3060   42.1390 C   0  0  0  0  0  0  0  0  0  0  0  0
   37.1950   26.6500   42.2220 C   0  0  0  0  0  0  0  0  0  0  0  0
   38.0060   27.5420   42.8670 C   0  0  0  0  0  0  0  0  0  0  0  0
   39.1920   27.1270   43.3900 N   0  0  0  0  0  0  0  0  0  0  0  0
   39.6010   25.8690   43.2990 C   0  0  0  0  0  0  0  0  0  0  0  0
   38.8340   24.9670   42.6800 N   0  0  0  0  0  0  0  0  0  0  0  0
   37.0880   24.5150   41.6510 H   0  0  0  0  0  0  0  0  0  0  0  0
   36.2510   26.7650   41.7390 H   0  0  0  0  0  0  0  0  0  0  0  0
   40.5450   25.5400   43.7160 H   0  0  0  0  0  0  0  0  0  0  0  0
   37.9160   29.7350   41.8110 C   0  0  0  0  0  0  0  0  0  0  0  0
   38.1860   29.0860   40.9430 H   0  0  0  0  0  0  0  0  0  0  0  0
   38.6870   30.4690   42.0650 H   0  0  0  0  0  0  0  0  0  0  0  0
   36.6030   30.3750   41.4020 C   0  0  1  0  0  0  0  0  0  0  0  0
   36.4540   30.9540   40.0930 C   0  0  0  0  0  0  0  0  0  0  0  0
   35.6700   29.7190   40.6000 C   0  0  1  0  0  0  0  0  0  0  0  0
   36.3720   31.0980   42.2370 H   0  0  0  0  0  0  0  0  0  0  0  0
   35.7800   31.8500   39.9500 H   0  0  0  0  0  0  0  0  0  0  0  0
   37.1000   30.8420   39.2320 H   0  0  0  0  0  0  0  0  0  0  0  0
   34.6780   29.9350   41.1330 H   0  0  0  0  0  0  0  0  0  0  0  0
   35.2510   28.9240   39.4880 C   0  0  0  0  0  2  0  0  0  0  0  0
   34.1380   28.7320   39.3520 H   0  0  0  0  0  0  0  0  0  0  0  0
  1  2  1  0  0  0  0
  3  1  1  0  0  0  0
  4  5  2  0  0  0  0
  4  9  1  0  0  0  0
  5  6  1  0  0  0  0
  6  1  1  0  0  0  0
  6  7  2  0  0  0  0
  8  7  1  0  0  0  0
  8 12  1  0  0  0  0
  9  8  2  0  0  0  0
 10  4  1  0  0  0  0
 11  5  1  0  0  0  0
 13 15  1  0  0  0  0
 13  1  1  0  0  0  0
 14 13  1  0  0  0  0
 16 13  1  0  0  0  0
 16 19  1  1  0  0  0
 17 18  1  0  0  0  0
 17 16  1  0  0  0  0
 18 22  1  1  0  0  0
 18 16  1  0  0  0  0
 20 17  1  0  0  0  0
 21 17  1  0  0  0  0
 23 18  1  0  0  0  0
 24 23  1  0  0  0  0
M  END
>  <minimizedAffinity>
-3.65813589

$$$$
