
 OpenBabel03242523213D

 30 32  0  0  0  0  0  0  0  0999 V2000
   37.3070   29.0860   42.0370 C   0  0  0  0  0  0  0  0  0  0  0  0
   36.6650   29.4480   40.9150 C   0  0  0  0  0  0  0  0  0  0  0  0
   37.2370   30.5020   40.2400 C   0  0  0  0  0  0  0  0  0  0  0  0
   38.4010   31.0930   40.7670 N   0  0  0  0  0  0  0  0  0  0  0  0
   38.9710   30.6850   41.8760 C   0  0  0  0  0  0  0  0  0  0  0  0
   38.4320   29.6320   42.5770 N   0  0  0  0  0  0  0  0  0  0  0  0
   36.8430   30.9150   39.3140 H   0  0  0  0  0  0  0  0  0  0  0  0
   39.8620   31.2370   42.1610 H   0  0  0  0  0  0  0  0  0  0  0  0
   35.4290   28.9240   40.4490 C   0  0  0  0  0  0  0  0  0  0  0  0
   34.6350   29.3910   39.4490 C   0  0  0  0  0  0  0  0  0  0  0  0
   35.4520   28.1960   39.0360 C   0  0  0  0  0  0  0  0  0  0  0  0
   34.8460   28.3970   41.2250 H   0  0  0  0  0  0  0  0  0  0  0  0
   34.9310   30.3550   38.9290 H   0  0  0  0  0  0  0  0  0  0  0  0
   33.5470   29.2420   39.2670 H   0  0  0  0  0  0  0  0  0  0  0  0
   34.9940   27.1850   39.0580 H   0  0  0  0  0  0  0  0  0  0  0  0
   36.3740   28.3810   38.4770 H   0  0  0  0  0  0  0  0  0  0  0  0
   36.9850   27.9410   42.9010 C   0  0  0  0  0  0  0  0  0  0  0  0
   36.2870   27.3420   43.6760 O   0  0  0  0  0  0  0  0  0  0  0  0
   36.7990   25.6660   40.8260 Cl  0  0  0  0  0  0  0  0  0  0  0  0
   38.1680   25.8470   41.9240 C   0  0  0  0  0  0  0  0  0  0  0  0
   38.0930   26.9470   42.8020 C   0  0  0  0  0  0  0  0  0  0  0  0
   39.2130   26.9960   43.6170 C   0  0  0  0  0  0  0  0  0  0  0  0
   40.2770   26.1820   43.6670 C   0  0  0  0  0  0  0  0  0  0  0  0
   40.2710   25.1400   42.7830 C   0  0  0  0  0  0  0  0  0  0  0  0
   39.2460   24.9600   41.9200 C   0  0  0  0  0  0  0  0  0  0  0  0
   39.3340   27.8240   44.3490 H   0  0  0  0  0  0  0  0  0  0  0  0
   41.1220   26.2540   44.3140 H   0  0  0  0  0  0  0  0  0  0  0  0
   41.0390   24.3840   42.6770 H   0  0  0  0  0  0  0  0  0  0  0  0
   39.1180   23.8560   40.8970 C   0  0  0  0  0  2  0  0  0  0  0  0
   39.6790   22.9950   41.3140 H   0  0  0  0  0  0  0  0  0  0  0  0
  1  6  1  0  0  0  0
  1 17  1  0  0  0  0
  2  1  2  0  0  0  0
  3  4  2  0  0  0  0
  3  2  1  0  0  0  0
  4  5  1  0  0  0  0
  5  8  1  0  0  0  0
  5  6  2  0  0  0  0
  7  3  1  0  0  0  0
  9  2  1  0  0  0  0
  9 12  1  0  0  0  0
 10  9  1  0  0  0  0
 11 15  1  0  0  0  0
 11 10  1  0  0  0  0
 11  9  1  0  0  0  0
 13 10  1  0  0  0  0
 14 10  1  0  0  0  0
 16 11  1  0  0  0  0
 17 18  2  0  0  0  0
 19 20  1  0  0  0  0
 20 21  1  0  0  0  0
 21 17  1  0  0  0  0
 21 22  2  0  0  0  0
 22 23  1  0  0  0  0
 22 26  1  0  0  0  0
 23 27  1  0  0  0  0
 24 23  2  0  0  0  0
 25 20  2  0  0  0  0
 25 24  1  0  0  0  0
 28 24  1  0  0  0  0
 29 30  1  0  0  0  0
 29 25  1  0  0  0  0
M  END
>  <minimizedAffinity>
-5.30468845

$$$$

 OpenBabel03242523213D

 30 32  0  0  0  0  0  0  0  0999 V2000
   37.9910   30.2260   39.3190 C   0  0  0  0  0  0  0  0  0  0  0  0
   38.5310   31.4520   39.3880 C   0  0  0  0  0  0  0  0  0  0  0  0
   39.6830   31.6150   38.6520 C   0  0  0  0  0  0  0  0  0  0  0  0
   40.1810   30.5210   37.9210 N   0  0  0  0  0  0  0  0  0  0  0  0
   39.5970   29.3460   37.9040 C   0  0  0  0  0  0  0  0  0  0  0  0
   38.4430   29.1440   38.6240 N   0  0  0  0  0  0  0  0  0  0  0  0
   40.2420   32.5470   38.5990 H   0  0  0  0  0  0  0  0  0  0  0  0
   40.0950   28.5960   37.2970 H   0  0  0  0  0  0  0  0  0  0  0  0
   38.0900   32.5180   40.2160 C   0  0  0  0  0  0  0  0  0  0  0  0
   38.5020   33.8140   40.2210 C   0  0  0  0  0  0  0  0  0  0  0  0
   37.1790   33.6240   39.5290 C   0  0  0  0  0  0  0  0  0  0  0  0
   37.7410   32.1940   41.2140 H   0  0  0  0  0  0  0  0  0  0  0  0
   39.3470   34.1150   39.5270 H   0  0  0  0  0  0  0  0  0  0  0  0
   38.4510   34.5810   41.0260 H   0  0  0  0  0  0  0  0  0  0  0  0
   36.2370   33.8220   40.0840 H   0  0  0  0  0  0  0  0  0  0  0  0
   37.1820   33.5600   38.4370 H   0  0  0  0  0  0  0  0  0  0  0  0
   36.7190   29.7920   39.9150 C   0  0  0  0  0  0  0  0  0  0  0  0
   35.5190   29.7450   39.9710 O   0  0  0  0  0  0  0  0  0  0  0  0
   36.3830   26.7320   39.7090 Cl  0  0  0  0  0  0  0  0  0  0  0  0
   36.9130   27.5360   41.1870 C   0  0  0  0  0  0  0  0  0  0  0  0
   37.0200   28.9390   41.1020 C   0  0  0  0  0  0  0  0  0  0  0  0
   37.4410   29.4690   42.3120 C   0  0  0  0  0  0  0  0  0  0  0  0
   37.7340   28.8530   43.4650 C   0  0  0  0  0  0  0  0  0  0  0  0
   37.6040   27.4920   43.4630 C   0  0  0  0  0  0  0  0  0  0  0  0
   37.2030   26.8300   42.3560 C   0  0  0  0  0  0  0  0  0  0  0  0
   37.6120   30.5630   42.4120 H   0  0  0  0  0  0  0  0  0  0  0  0
   38.0550   29.3000   44.3800 H   0  0  0  0  0  0  0  0  0  0  0  0
   37.7950   26.8280   44.2970 H   0  0  0  0  0  0  0  0  0  0  0  0
   37.0210   25.3360   42.2190 C   0  0  0  0  0  2  0  0  0  0  0  0
   36.7610   24.9730   43.2350 H   0  0  0  0  0  0  0  0  0  0  0  0
  1  2  1  0  0  0  0
  1 17  1  0  0  0  0
  2  9  1  0  0  0  0
  3  2  2  0  0  0  0
  4  3  1  0  0  0  0
  5  4  2  0  0  0  0
  5  6  1  0  0  0  0
  6  1  2  0  0  0  0
  7  3  1  0  0  0  0
  8  5  1  0  0  0  0
  9 10  1  0  0  0  0
  9 12  1  0  0  0  0
 10 14  1  0  0  0  0
 11 15  1  0  0  0  0
 11  9  1  0  0  0  0
 11 10  1  0  0  0  0
 13 10  1  0  0  0  0
 16 11  1  0  0  0  0
 17 18  2  0  0  0  0
 17 21  1  0  0  0  0
 19 20  1  0  0  0  0
 20 25  1  0  0  0  0
 21 20  2  0  0  0  0
 21 22  1  0  0  0  0
 22 26  1  0  0  0  0
 22 23  2  0  0  0  0
 23 27  1  0  0  0  0
 24 23  1  0  0  0  0
 24 28  1  0  0  0  0
 25 24  2  0  0  0  0
 29 25  1  0  0  0  0
 29 30  1  0  0  0  0
M  END
>  <minimizedAffinity>
-5.17318869

$$$$

 OpenBabel03242523213D

 30 32  0  0  0  0  0  0  0  0999 V2000
   36.4780   30.6230   39.6730 C   0  0  0  0  0  0  0  0  0  0  0  0
   36.9140   30.6290   38.4040 C   0  0  0  0  0  0  0  0  0  0  0  0
   37.7790   31.6560   38.0980 C   0  0  0  0  0  0  0  0  0  0  0  0
   38.1160   32.5810   39.1030 N   0  0  0  0  0  0  0  0  0  0  0  0
   37.6450   32.5110   40.3260 C   0  0  0  0  0  0  0  0  0  0  0  0
   36.7810   31.4990   40.6720 N   0  0  0  0  0  0  0  0  0  0  0  0
   38.2240   31.8000   37.1160 H   0  0  0  0  0  0  0  0  0  0  0  0
   37.9910   33.2940   40.9940 H   0  0  0  0  0  0  0  0  0  0  0  0
   36.4830   29.7620   37.3640 C   0  0  0  0  0  0  0  0  0  0  0  0
   36.7390   29.8450   36.0310 C   0  0  0  0  0  0  0  0  0  0  0  0
   37.5860   28.8130   36.7260 C   0  0  0  0  0  0  0  0  0  0  0  0
   35.5160   29.2660   37.5670 H   0  0  0  0  0  0  0  0  0  0  0  0
   37.3210   30.7390   35.6480 H   0  0  0  0  0  0  0  0  0  0  0  0
   36.1820   29.4220   35.1660 H   0  0  0  0  0  0  0  0  0  0  0  0
   37.2810   27.7450   36.6970 H   0  0  0  0  0  0  0  0  0  0  0  0
   38.6050   29.0960   37.0040 H   0  0  0  0  0  0  0  0  0  0  0  0
   35.6330   29.6000   40.3060 C   0  0  0  0  0  0  0  0  0  0  0  0
   34.5790   29.0660   40.5320 O   0  0  0  0  0  0  0  0  0  0  0  0
   36.2830   26.7610   39.2880 Cl  0  0  0  0  0  0  0  0  0  0  0  0
   36.8910   27.3880   40.8200 C   0  0  0  0  0  0  0  0  0  0  0  0
   36.5020   28.7080   41.1270 C   0  0  0  0  0  0  0  0  0  0  0  0
   37.0310   29.1000   42.3460 C   0  0  0  0  0  0  0  0  0  0  0  0
   37.8070   28.4240   43.2050 C   0  0  0  0  0  0  0  0  0  0  0  0
   38.1380   27.1510   42.8330 C   0  0  0  0  0  0  0  0  0  0  0  0
   37.6990   26.6270   41.6680 C   0  0  0  0  0  0  0  0  0  0  0  0
   36.8510   30.1290   42.7270 H   0  0  0  0  0  0  0  0  0  0  0  0
   38.1940   28.7640   44.1400 H   0  0  0  0  0  0  0  0  0  0  0  0
   38.7520   26.4580   43.3940 H   0  0  0  0  0  0  0  0  0  0  0  0
   37.9910   25.2410   41.1400 C   0  0  0  0  0  2  0  0  0  0  0  0
   38.1450   24.6070   42.0360 H   0  0  0  0  0  0  0  0  0  0  0  0
  1 17  1  0  0  0  0
  1  6  1  0  0  0  0
  2  1  2  0  0  0  0
  3  2  1  0  0  0  0
  3  4  2  0  0  0  0
  4  5  1  0  0  0  0
  5  6  2  0  0  0  0
  5  8  1  0  0  0  0
  7  3  1  0  0  0  0
  9 12  1  0  0  0  0
  9  2  1  0  0  0  0
 10 11  1  0  0  0  0
 10  9  1  0  0  0  0
 11 16  1  0  0  0  0
 11  9  1  0  0  0  0
 13 10  1  0  0  0  0
 14 10  1  0  0  0  0
 15 11  1  0  0  0  0
 17 18  2  0  0  0  0
 17 21  1  0  0  0  0
 19 20  1  0  0  0  0
 20 21  2  0  0  0  0
 20 25  1  0  0  0  0
 21 22  1  0  0  0  0
 22 26  1  0  0  0  0
 22 23  2  0  0  0  0
 23 27  1  0  0  0  0
 24 23  1  0  0  0  0
 24 28  1  0  0  0  0
 25 24  2  0  0  0  0
 29 25  1  0  0  0  0
 29 30  1  0  0  0  0
M  END
>  <minimizedAffinity>
-5.1354847

$$$$

 OpenBabel03242523213D

 30 32  0  0  0  0  0  0  0  0999 V2000
   36.5630   27.6750   41.0970 C   0  0  0  0  0  0  0  0  0  0  0  0
   36.8250   26.5690   40.3850 C   0  0  0  0  0  0  0  0  0  0  0  0
   36.4330   26.6270   39.0660 C   0  0  0  0  0  0  0  0  0  0  0  0
   35.8090   27.7970   38.5960 N   0  0  0  0  0  0  0  0  0  0  0  0
   35.5830   28.8430   39.3560 C   0  0  0  0  0  0  0  0  0  0  0  0
   35.9620   28.8240   40.6780 N   0  0  0  0  0  0  0  0  0  0  0  0
   36.5760   25.8170   38.3550 H   0  0  0  0  0  0  0  0  0  0  0  0
   35.0920   29.6730   38.8570 H   0  0  0  0  0  0  0  0  0  0  0  0
   37.3500   25.3490   40.8900 C   0  0  0  0  0  0  0  0  0  0  0  0
   36.8520   24.5560   41.8760 C   0  0  0  0  0  0  0  0  0  0  0  0
   36.5700   24.0210   40.4980 C   0  0  0  0  0  0  0  0  0  0  0  0
   38.4500   25.2710   40.8160 H   0  0  0  0  0  0  0  0  0  0  0  0
   35.9290   24.9050   42.4350 H   0  0  0  0  0  0  0  0  0  0  0  0
   37.3630   23.8090   42.5230 H   0  0  0  0  0  0  0  0  0  0  0  0
   37.2290   23.2370   40.0700 H   0  0  0  0  0  0  0  0  0  0  0  0
   35.5830   24.2180   40.0700 H   0  0  0  0  0  0  0  0  0  0  0  0
   36.9530   27.9350   42.4900 C   0  0  0  0  0  0  0  0  0  0  0  0
   36.7770   27.9020   43.6800 O   0  0  0  0  0  0  0  0  0  0  0  0
   39.4290   26.3470   43.4230 Cl  0  0  0  0  0  0  0  0  0  0  0  0
   39.5170   28.0270   42.8910 C   0  0  0  0  0  0  0  0  0  0  0  0
   38.2910   28.5960   42.4920 C   0  0  0  0  0  0  0  0  0  0  0  0
   38.4710   29.9120   42.0960 C   0  0  0  0  0  0  0  0  0  0  0  0
   39.5870   30.6520   42.0540 C   0  0  0  0  0  0  0  0  0  0  0  0
   40.7330   30.0260   42.4580 C   0  0  0  0  0  0  0  0  0  0  0  0
   40.7180   28.7390   42.8720 C   0  0  0  0  0  0  0  0  0  0  0  0
   37.6090   30.5030   41.7160 H   0  0  0  0  0  0  0  0  0  0  0  0
   39.6840   31.6690   41.7420 H   0  0  0  0  0  0  0  0  0  0  0  0
   41.7240   30.4600   42.4920 H   0  0  0  0  0  0  0  0  0  0  0  0
   41.9060   27.9330   43.3400 C   0  0  0  0  0  2  0  0  0  0  0  0
   42.6150   28.6690   43.7710 H   0  0  0  0  0  0  0  0  0  0  0  0
  1 17  1  0  0  0  0
  2  9  1  0  0  0  0
  2  1  2  0  0  0  0
  3  2  1  0  0  0  0
  4  3  2  0  0  0  0
  4  5  1  0  0  0  0
  5  6  2  0  0  0  0
  6  1  1  0  0  0  0
  7  3  1  0  0  0  0
  8  5  1  0  0  0  0
  9 10  1  0  0  0  0
 10 13  1  0  0  0  0
 10 14  1  0  0  0  0
 11  9  1  0  0  0  0
 11 10  1  0  0  0  0
 12  9  1  0  0  0  0
 15 11  1  0  0  0  0
 16 11  1  0  0  0  0
 17 21  1  0  0  0  0
 17 18  2  0  0  0  0
 20 19  1  0  0  0  0
 21 20  2  0  0  0  0
 22 21  1  0  0  0  0
 23 22  2  0  0  0  0
 23 24  1  0  0  0  0
 24 28  1  0  0  0  0
 24 25  2  0  0  0  0
 25 20  1  0  0  0  0
 25 29  1  0  0  0  0
 26 22  1  0  0  0  0
 27 23  1  0  0  0  0
 29 30  1  0  0  0  0
M  END
>  <minimizedAffinity>
-5.05605364

$$$$

 OpenBabel03242523213D

 30 32  0  0  0  0  0  0  0  0999 V2000
   38.4910   30.7600   40.2360 C   0  0  0  0  0  0  0  0  0  0  0  0
   37.4680   30.8030   39.3690 C   0  0  0  0  0  0  0  0  0  0  0  0
   36.9440   32.0590   39.1590 C   0  0  0  0  0  0  0  0  0  0  0  0
   37.5020   33.1500   39.8500 N   0  0  0  0  0  0  0  0  0  0  0  0
   38.5050   33.0290   40.6890 C   0  0  0  0  0  0  0  0  0  0  0  0
   39.0570   31.7920   40.9230 N   0  0  0  0  0  0  0  0  0  0  0  0
   36.1160   32.2650   38.4850 H   0  0  0  0  0  0  0  0  0  0  0  0
   38.8290   33.9580   41.1500 H   0  0  0  0  0  0  0  0  0  0  0  0
   36.8340   29.6860   38.7620 C   0  0  0  0  0  0  0  0  0  0  0  0
   36.0060   29.6640   37.6840 C   0  0  0  0  0  0  0  0  0  0  0  0
   37.4060   29.2210   37.3540 C   0  0  0  0  0  0  0  0  0  0  0  0
   36.6190   28.8590   39.4630 H   0  0  0  0  0  0  0  0  0  0  0  0
   35.7100   30.6510   37.2100 H   0  0  0  0  0  0  0  0  0  0  0  0
   35.2430   28.9130   37.3800 H   0  0  0  0  0  0  0  0  0  0  0  0
   37.6430   28.1370   37.3140 H   0  0  0  0  0  0  0  0  0  0  0  0
   38.0780   29.9570   36.9030 H   0  0  0  0  0  0  0  0  0  0  0  0
   39.3030   29.5830   40.5780 C   0  0  0  0  0  0  0  0  0  0  0  0
   40.2970   28.9100   40.5180 O   0  0  0  0  0  0  0  0  0  0  0  0
   38.5790   26.7100   39.7190 Cl  0  0  0  0  0  0  0  0  0  0  0  0
   38.0940   27.3930   41.2720 C   0  0  0  0  0  0  0  0  0  0  0  0
   38.5160   28.7170   41.5040 C   0  0  0  0  0  0  0  0  0  0  0  0
   38.0830   29.1560   42.7450 C   0  0  0  0  0  0  0  0  0  0  0  0
   37.3630   28.5190   43.6790 C   0  0  0  0  0  0  0  0  0  0  0  0
   36.9930   27.2380   43.3750 C   0  0  0  0  0  0  0  0  0  0  0  0
   37.3430   26.6700   42.2000 C   0  0  0  0  0  0  0  0  0  0  0  0
   38.3580   30.1710   43.1050 H   0  0  0  0  0  0  0  0  0  0  0  0
   37.0470   28.8940   44.6270 H   0  0  0  0  0  0  0  0  0  0  0  0
   36.4130   26.5730   44.0010 H   0  0  0  0  0  0  0  0  0  0  0  0
   37.0020   25.2700   41.7440 C   0  0  0  0  0  2  0  0  0  0  0  0
   36.0460   25.0170   42.2450 H   0  0  0  0  0  0  0  0  0  0  0  0
  1 17  1  0  0  0  0
  1  6  1  0  0  0  0
  2  1  2  0  0  0  0
  3  2  1  0  0  0  0
  3  4  2  0  0  0  0
  4  5  1  0  0  0  0
  5  6  2  0  0  0  0
  5  8  1  0  0  0  0
  7  3  1  0  0  0  0
  9  2  1  0  0  0  0
  9 12  1  0  0  0  0
 10  9  1  0  0  0  0
 11 10  1  0  0  0  0
 11  9  1  0  0  0  0
 13 10  1  0  0  0  0
 14 10  1  0  0  0  0
 15 11  1  0  0  0  0
 16 11  1  0  0  0  0
 17 21  1  0  0  0  0
 18 17  2  0  0  0  0
 19 20  1  0  0  0  0
 20 21  2  0  0  0  0
 20 25  1  0  0  0  0
 21 22  1  0  0  0  0
 22 26  1  0  0  0  0
 22 23  2  0  0  0  0
 23 27  1  0  0  0  0
 24 23  1  0  0  0  0
 24 28  1  0  0  0  0
 25 24  2  0  0  0  0
 29 25  1  0  0  0  0
 29 30  1  0  0  0  0
M  END
>  <minimizedAffinity>
-5.02999544

$$$$

 OpenBabel03242523213D

 30 32  0  0  0  0  0  0  0  0999 V2000
   37.5300   30.1410   41.3930 C   0  0  0  0  0  0  0  0  0  0  0  0
   37.8180   31.2340   40.6700 C   0  0  0  0  0  0  0  0  0  0  0  0
   38.9730   31.8840   41.0450 C   0  0  0  0  0  0  0  0  0  0  0  0
   39.7230   31.3690   42.1180 N   0  0  0  0  0  0  0  0  0  0  0  0
   39.3740   30.2920   42.7830 C   0  0  0  0  0  0  0  0  0  0  0  0
   38.2300   29.6130   42.4370 N   0  0  0  0  0  0  0  0  0  0  0  0
   39.3470   32.7820   40.5590 H   0  0  0  0  0  0  0  0  0  0  0  0
   40.0490   30.0130   43.5870 H   0  0  0  0  0  0  0  0  0  0  0  0
   37.0000   31.8150   39.6640 C   0  0  0  0  0  0  0  0  0  0  0  0
   37.3480   32.7070   38.6990 C   0  0  0  0  0  0  0  0  0  0  0  0
   37.2270   31.3010   38.1780 C   0  0  0  0  0  0  0  0  0  0  0  0
   35.9380   31.9170   39.9550 H   0  0  0  0  0  0  0  0  0  0  0  0
   38.4070   33.1120   38.6950 H   0  0  0  0  0  0  0  0  0  0  0  0
   36.7210   33.4260   38.1260 H   0  0  0  0  0  0  0  0  0  0  0  0
   36.2890   30.9810   37.6770 H   0  0  0  0  0  0  0  0  0  0  0  0
   38.1470   30.7210   38.0630 H   0  0  0  0  0  0  0  0  0  0  0  0
   36.4250   29.2010   41.1600 C   0  0  0  0  0  0  0  0  0  0  0  0
   35.2610   28.9020   41.1060 O   0  0  0  0  0  0  0  0  0  0  0  0
   36.4580   26.9040   43.2210 Cl  0  0  0  0  0  0  0  0  0  0  0  0
   37.1030   26.7310   41.5880 C   0  0  0  0  0  0  0  0  0  0  0  0
   37.0000   27.8790   40.7760 C   0  0  0  0  0  0  0  0  0  0  0  0
   37.5350   27.6360   39.5210 C   0  0  0  0  0  0  0  0  0  0  0  0
   38.0980   26.5250   39.0260 C   0  0  0  0  0  0  0  0  0  0  0  0
   38.1600   25.4590   39.8780 C   0  0  0  0  0  0  0  0  0  0  0  0
   37.6770   25.5410   41.1370 C   0  0  0  0  0  0  0  0  0  0  0  0
   37.5050   28.4270   38.7400 H   0  0  0  0  0  0  0  0  0  0  0  0
   38.5020   26.3790   38.0490 H   0  0  0  0  0  0  0  0  0  0  0  0
   38.5770   24.4850   39.6570 H   0  0  0  0  0  0  0  0  0  0  0  0
   37.6810   24.4420   42.1740 C   0  0  0  0  0  2  0  0  0  0  0  0
   38.5580   23.8070   41.9330 H   0  0  0  0  0  0  0  0  0  0  0  0
  1  6  1  0  0  0  0
  2  3  1  0  0  0  0
  2  1  2  0  0  0  0
  3  4  2  0  0  0  0
  4  5  1  0  0  0  0
  5  8  1  0  0  0  0
  6  5  2  0  0  0  0
  7  3  1  0  0  0  0
  9 12  1  0  0  0  0
  9  2  1  0  0  0  0
 10  9  1  0  0  0  0
 11 10  1  0  0  0  0
 11  9  1  0  0  0  0
 13 10  1  0  0  0  0
 14 10  1  0  0  0  0
 15 11  1  0  0  0  0
 16 11  1  0  0  0  0
 17  1  1  0  0  0  0
 18 17  2  0  0  0  0
 20 19  1  0  0  0  0
 21 17  1  0  0  0  0
 21 20  2  0  0  0  0
 22 21  1  0  0  0  0
 23 22  2  0  0  0  0
 23 24  1  0  0  0  0
 24 25  2  0  0  0  0
 25 20  1  0  0  0  0
 25 29  1  0  0  0  0
 26 22  1  0  0  0  0
 27 23  1  0  0  0  0
 28 24  1  0  0  0  0
 30 29  1  0  0  0  0
M  END
>  <minimizedAffinity>
-5.01642609

$$$$

 OpenBabel03242523213D

 30 32  0  0  0  0  0  0  0  0999 V2000
   37.9150   26.3060   41.9110 C   0  0  0  0  0  0  0  0  0  0  0  0
   39.1950   25.9630   42.1190 C   0  0  0  0  0  0  0  0  0  0  0  0
   39.7180   25.0970   41.1850 C   0  0  0  0  0  0  0  0  0  0  0  0
   38.8940   24.6580   40.1320 N   0  0  0  0  0  0  0  0  0  0  0  0
   37.6450   25.0370   39.9950 C   0  0  0  0  0  0  0  0  0  0  0  0
   37.0870   25.9030   40.9060 N   0  0  0  0  0  0  0  0  0  0  0  0
   40.7390   24.7250   41.2080 H   0  0  0  0  0  0  0  0  0  0  0  0
   37.1310   24.6160   39.1360 H   0  0  0  0  0  0  0  0  0  0  0  0
   39.9870   26.3170   43.2450 C   0  0  0  0  0  0  0  0  0  0  0  0
   41.2000   25.8270   43.6150 C   0  0  0  0  0  0  0  0  0  0  0  0
   41.2910   27.1770   42.9550 C   0  0  0  0  0  0  0  0  0  0  0  0
   39.3980   26.6590   44.1150 H   0  0  0  0  0  0  0  0  0  0  0  0
   41.6500   24.9830   43.0060 H   0  0  0  0  0  0  0  0  0  0  0  0
   41.6930   25.8100   44.6120 H   0  0  0  0  0  0  0  0  0  0  0  0
   41.3620   28.0900   43.5820 H   0  0  0  0  0  0  0  0  0  0  0  0
   41.5560   27.2050   41.8940 H   0  0  0  0  0  0  0  0  0  0  0  0
   37.1310   27.2820   42.6820 C   0  0  0  0  0  0  0  0  0  0  0  0
   36.5650   27.6650   43.6720 O   0  0  0  0  0  0  0  0  0  0  0  0
   39.0520   29.6950   42.7760 Cl  0  0  0  0  0  0  0  0  0  0  0  0
   37.6270   29.6490   41.7370 C   0  0  0  0  0  0  0  0  0  0  0  0
   36.8640   28.4670   41.8150 C   0  0  0  0  0  0  0  0  0  0  0  0
   35.7720   28.5350   40.9640 C   0  0  0  0  0  0  0  0  0  0  0  0
   35.3840   29.5190   40.1410 C   0  0  0  0  0  0  0  0  0  0  0  0
   36.1780   30.6310   40.1260 C   0  0  0  0  0  0  0  0  0  0  0  0
   37.2820   30.7130   40.9010 C   0  0  0  0  0  0  0  0  0  0  0  0
   35.0810   27.6700   40.8740 H   0  0  0  0  0  0  0  0  0  0  0  0
   34.5300   29.5330   39.5000 H   0  0  0  0  0  0  0  0  0  0  0  0
   36.0250   31.5210   39.5290 H   0  0  0  0  0  0  0  0  0  0  0  0
   38.2410   31.8780   40.9780 C   0  0  0  0  0  2  0  0  0  0  0  0
   37.6380   32.7770   40.7360 H   0  0  0  0  0  0  0  0  0  0  0  0
  1  2  1  0  0  0  0
  1 17  1  0  0  0  0
  2  9  1  0  0  0  0
  3  7  1  0  0  0  0
  3  2  2  0  0  0  0
  4  3  1  0  0  0  0
  5  4  2  0  0  0  0
  5  6  1  0  0  0  0
  6  1  2  0  0  0  0
  8  5  1  0  0  0  0
  9 10  1  0  0  0  0
  9 12  1  0  0  0  0
 10 14  1  0  0  0  0
 11  9  1  0  0  0  0
 11 15  1  0  0  0  0
 11 10  1  0  0  0  0
 13 10  1  0  0  0  0
 16 11  1  0  0  0  0
 17 18  2  0  0  0  0
 20 21  1  0  0  0  0
 20 19  1  0  0  0  0
 21 17  1  0  0  0  0
 22 21  2  0  0  0  0
 23 22  1  0  0  0  0
 24 23  2  0  0  0  0
 24 25  1  0  0  0  0
 25 29  1  0  0  0  0
 25 20  2  0  0  0  0
 26 22  1  0  0  0  0
 27 23  1  0  0  0  0
 28 24  1  0  0  0  0
 30 29  1  0  0  0  0
M  END
>  <minimizedAffinity>
-4.92254734

$$$$

 OpenBabel03242523213D

 30 32  0  0  0  0  0  0  0  0999 V2000
   38.5450   26.3640   42.6300 C   0  0  0  0  0  0  0  0  0  0  0  0
   38.5680   25.6270   41.5090 C   0  0  0  0  0  0  0  0  0  0  0  0
   39.6150   24.7360   41.4290 C   0  0  0  0  0  0  0  0  0  0  0  0
   40.5410   24.6810   42.4870 N   0  0  0  0  0  0  0  0  0  0  0  0
   40.4540   25.4400   43.5540 C   0  0  0  0  0  0  0  0  0  0  0  0
   39.4210   26.3400   43.6730 N   0  0  0  0  0  0  0  0  0  0  0  0
   39.7750   24.0640   40.5890 H   0  0  0  0  0  0  0  0  0  0  0  0
   41.2400   25.2880   44.2880 H   0  0  0  0  0  0  0  0  0  0  0  0
   37.6990   25.7660   40.3940 C   0  0  0  0  0  0  0  0  0  0  0  0
   37.5750   24.9550   39.3100 C   0  0  0  0  0  0  0  0  0  0  0  0
   36.4740   24.7570   40.3160 C   0  0  0  0  0  0  0  0  0  0  0  0
   37.4420   26.8140   40.1550 H   0  0  0  0  0  0  0  0  0  0  0  0
   38.2780   24.0710   39.2140 H   0  0  0  0  0  0  0  0  0  0  0  0
   37.1830   25.1730   38.2920 H   0  0  0  0  0  0  0  0  0  0  0  0
   35.4980   25.2640   40.1670 H   0  0  0  0  0  0  0  0  0  0  0  0
   36.5680   23.9180   41.0120 H   0  0  0  0  0  0  0  0  0  0  0  0
   37.5010   27.3180   43.0310 C   0  0  0  0  0  0  0  0  0  0  0  0
   36.4800   27.6220   43.5910 O   0  0  0  0  0  0  0  0  0  0  0  0
   35.6930   28.5530   40.8570 Cl  0  0  0  0  0  0  0  0  0  0  0  0
   37.1360   29.3610   41.4710 C   0  0  0  0  0  0  0  0  0  0  0  0
   37.8400   28.6570   42.4680 C   0  0  0  0  0  0  0  0  0  0  0  0
   38.9520   29.3770   42.8790 C   0  0  0  0  0  0  0  0  0  0  0  0
   39.4020   30.5710   42.4690 C   0  0  0  0  0  0  0  0  0  0  0  0
   38.6620   31.1860   41.4990 C   0  0  0  0  0  0  0  0  0  0  0  0
   37.5480   30.6090   40.9980 C   0  0  0  0  0  0  0  0  0  0  0  0
   39.6040   28.9830   43.6880 H   0  0  0  0  0  0  0  0  0  0  0  0
   40.2690   31.0930   42.8110 H   0  0  0  0  0  0  0  0  0  0  0  0
   38.8690   32.1470   41.0470 H   0  0  0  0  0  0  0  0  0  0  0  0
   36.6420   31.1790   39.9310 C   0  0  0  0  0  2  0  0  0  0  0  0
   37.2910   31.8220   39.3020 H   0  0  0  0  0  0  0  0  0  0  0  0
  1 17  1  0  0  0  0
  1  6  1  0  0  0  0
  2  1  2  0  0  0  0
  3  2  1  0  0  0  0
  3  4  2  0  0  0  0
  4  5  1  0  0  0  0
  5  6  2  0  0  0  0
  5  8  1  0  0  0  0
  7  3  1  0  0  0  0
  9  2  1  0  0  0  0
 10 11  1  0  0  0  0
 10  9  1  0  0  0  0
 11  9  1  0  0  0  0
 11 16  1  0  0  0  0
 12  9  1  0  0  0  0
 13 10  1  0  0  0  0
 14 10  1  0  0  0  0
 15 11  1  0  0  0  0
 17 18  2  0  0  0  0
 19 20  1  0  0  0  0
 20 21  1  0  0  0  0
 21 22  2  0  0  0  0
 21 17  1  0  0  0  0
 22 26  1  0  0  0  0
 23 27  1  0  0  0  0
 23 22  1  0  0  0  0
 24 23  2  0  0  0  0
 25 20  2  0  0  0  0
 25 24  1  0  0  0  0
 28 24  1  0  0  0  0
 29 25  1  0  0  0  0
 30 29  1  0  0  0  0
M  END
>  <minimizedAffinity>
-4.90912914

$$$$

 OpenBabel03242523213D

 30 32  0  0  0  0  0  0  0  0999 V2000
   37.2440   30.7400   39.8240 C   0  0  0  0  0  0  0  0  0  0  0  0
   38.2600   30.4250   39.0060 C   0  0  0  0  0  0  0  0  0  0  0  0
   39.1800   31.4320   38.8190 C   0  0  0  0  0  0  0  0  0  0  0  0
   38.9810   32.6620   39.4730 N   0  0  0  0  0  0  0  0  0  0  0  0
   37.9570   32.8970   40.2590 C   0  0  0  0  0  0  0  0  0  0  0  0
   37.0180   31.9160   40.4730 N   0  0  0  0  0  0  0  0  0  0  0  0
   40.0620   31.3380   38.1900 H   0  0  0  0  0  0  0  0  0  0  0  0
   37.9340   33.8920   40.6940 H   0  0  0  0  0  0  0  0  0  0  0  0
   38.3960   29.2250   38.2590 C   0  0  0  0  0  0  0  0  0  0  0  0
   39.4020   28.8570   37.4220 C   0  0  0  0  0  0  0  0  0  0  0  0
   39.4890   28.1890   38.7680 C   0  0  0  0  0  0  0  0  0  0  0  0
   37.4320   28.7670   37.9700 H   0  0  0  0  0  0  0  0  0  0  0  0
   40.2350   29.6000   37.2200 H   0  0  0  0  0  0  0  0  0  0  0  0
   39.4080   28.1240   36.5850 H   0  0  0  0  0  0  0  0  0  0  0  0
   39.0910   27.1610   38.8950 H   0  0  0  0  0  0  0  0  0  0  0  0
   40.1730   28.6200   39.5050 H   0  0  0  0  0  0  0  0  0  0  0  0
   36.1760   29.8400   40.2820 C   0  0  0  0  0  0  0  0  0  0  0  0
   35.0460   29.4260   40.2850 O   0  0  0  0  0  0  0  0  0  0  0  0
   36.2520   26.8130   39.6880 Cl  0  0  0  0  0  0  0  0  0  0  0  0
   36.8500   27.5050   41.1960 C   0  0  0  0  0  0  0  0  0  0  0  0
   36.7450   28.9070   41.2980 C   0  0  0  0  0  0  0  0  0  0  0  0
   37.2400   29.3450   42.5160 C   0  0  0  0  0  0  0  0  0  0  0  0
   37.7650   28.6460   43.5320 C   0  0  0  0  0  0  0  0  0  0  0  0
   37.8300   27.2920   43.3540 C   0  0  0  0  0  0  0  0  0  0  0  0
   37.3870   26.7150   42.2150 C   0  0  0  0  0  0  0  0  0  0  0  0
   37.2660   30.4310   42.7490 H   0  0  0  0  0  0  0  0  0  0  0  0
   38.1350   29.0230   44.4600 H   0  0  0  0  0  0  0  0  0  0  0  0
   38.2190   26.5700   44.0600 H   0  0  0  0  0  0  0  0  0  0  0  0
   37.4020   25.2400   41.8910 C   0  0  0  0  0  2  0  0  0  0  0  0
   37.3290   24.7190   42.8680 H   0  0  0  0  0  0  0  0  0  0  0  0
  1 17  1  0  0  0  0
  1  6  1  0  0  0  0
  2  1  2  0  0  0  0
  3  2  1  0  0  0  0
  3  4  2  0  0  0  0
  4  5  1  0  0  0  0
  5  6  2  0  0  0  0
  5  8  1  0  0  0  0
  7  3  1  0  0  0  0
  9 11  1  0  0  0  0
  9  2  1  0  0  0  0
 10  9  1  0  0  0  0
 10 11  1  0  0  0  0
 11 15  1  0  0  0  0
 11 16  1  0  0  0  0
 12  9  1  0  0  0  0
 13 10  1  0  0  0  0
 14 10  1  0  0  0  0
 17 18  2  0  0  0  0
 17 21  1  0  0  0  0
 19 20  1  0  0  0  0
 20 21  2  0  0  0  0
 20 25  1  0  0  0  0
 21 22  1  0  0  0  0
 22 26  1  0  0  0  0
 22 23  2  0  0  0  0
 23 27  1  0  0  0  0
 24 23  1  0  0  0  0
 24 28  1  0  0  0  0
 25 24  2  0  0  0  0
 29 25  1  0  0  0  0
 29 30  1  0  0  0  0
M  END
>  <minimizedAffinity>
-4.8668294

$$$$
