
 OpenBabel03252509123D

 25 27  0  0  0  0  0  0  0  0999 V2000
   47.5690   32.3080   44.1160 C   0  0  0  0  0  0  0  0  0  0  0  0
   46.9750   33.4350   43.5770 C   0  0  0  0  0  0  0  0  0  0  0  0
   46.0470   34.1780   44.2590 C   0  0  0  0  0  0  0  0  0  0  0  0
   45.6600   33.8130   45.5530 C   0  0  0  0  0  0  0  0  0  0  0  0
   44.8110   34.2760   46.5000 N   0  0  0  0  0  0  0  0  0  0  0  0
   44.8670   33.4790   47.5870 C   0  0  0  0  0  0  0  0  0  0  0  0
   45.7630   32.5150   47.3000 N   0  0  0  0  0  0  0  0  0  0  0  0
   46.2640   32.6890   46.0670 C   0  0  0  0  0  0  0  0  0  0  0  0
   47.2080   31.9140   45.4040 C   0  0  0  0  0  0  0  0  0  0  0  0
   48.3050   31.7380   43.5450 H   0  0  0  0  0  0  0  0  0  0  0  0
   44.2240   35.1470   46.3350 H   0  0  0  0  0  0  0  0  0  0  0  0
   44.2390   33.7250   48.4360 H   0  0  0  0  0  0  0  0  0  0  0  0
   47.6410   31.0420   45.8740 H   0  0  0  0  0  0  0  0  0  0  0  0
   47.1070   33.6490   39.9220 C   0  0  0  0  0  0  0  0  0  0  0  0
   48.0430   34.6450   39.7010 C   0  0  0  0  0  0  0  0  0  0  0  0
   48.6320   35.2460   40.8080 C   0  0  0  0  0  0  0  0  0  0  0  0
   48.2660   34.8330   42.0630 N   0  0  0  0  0  0  0  0  0  0  0  0
   47.3440   33.8540   42.2290 C   0  0  0  0  0  0  0  0  0  0  0  0
   46.7510   33.2470   41.1690 N   0  0  0  0  0  0  0  0  0  0  0  0
   46.6260   33.1570   39.0890 H   0  0  0  0  0  0  0  0  0  0  0  0
   48.3050   34.9400   38.6960 H   0  0  0  0  0  0  0  0  0  0  0  0
   49.3700   36.0300   40.6680 H   0  0  0  0  0  0  0  0  0  0  0  0
   45.2770   35.6330   43.5740 S   0  0  0  0  0  0  0  0  0  0  0  0
   43.9240   35.2370   42.4520 C   0  0  0  0  0  2  0  0  0  0  0  0
   44.2460   34.9650   41.4300 H   0  0  0  0  0  0  0  0  0  0  0  0
  1  9  1  0  0  0  0
  2  1  2  0  0  0  0
  2  3  1  0  0  0  0
  3  4  2  0  0  0  0
  4  8  1  0  0  0  0
  4  5  1  0  0  0  0
  5  6  1  0  0  0  0
  6 12  1  0  0  0  0
  7  6  2  0  0  0  0
  8  7  1  0  0  0  0
  9 13  1  0  0  0  0
  9  8  2  0  0  0  0
 10  1  1  0  0  0  0
 11  5  1  0  0  0  0
 14 19  1  0  0  0  0
 15 14  2  0  0  0  0
 15 16  1  0  0  0  0
 16 17  2  0  0  0  0
 17 18  1  0  0  0  0
 18  2  1  0  0  0  0
 19 18  2  0  0  0  0
 20 14  1  0  0  0  0
 21 15  1  0  0  0  0
 22 16  1  0  0  0  0
 23  3  1  0  0  0  0
 24 23  1  0  0  0  0
 25 24  1  0  0  0  0
M  END
>  <minimizedAffinity>
-4.68451977

>  <minimizedRMSD>
1.38512778

$$$$
