
 OpenBabel03252509133D

 25 27  0  0  0  0  0  0  0  0999 V2000
   39.4680   30.4210   42.1160 C   0  0  0  0  0  0  0  0  0  0  0  0
   38.2470   29.9570   41.6610 C   0  0  0  0  0  0  0  0  0  0  0  0
   37.3840   30.7380   40.9370 C   0  0  0  0  0  0  0  0  0  0  0  0
   37.7170   32.0600   40.6260 C   0  0  0  0  0  0  0  0  0  0  0  0
   37.1500   33.0940   39.9620 N   0  0  0  0  0  0  0  0  0  0  0  0
   37.9750   34.1610   39.9940 C   0  0  0  0  0  0  0  0  0  0  0  0
   39.0620   33.7740   40.6890 N   0  0  0  0  0  0  0  0  0  0  0  0
   38.9360   32.4980   41.0900 C   0  0  0  0  0  0  0  0  0  0  0  0
   39.8340   31.7350   41.8250 C   0  0  0  0  0  0  0  0  0  0  0  0
   40.1320   29.7720   42.6910 H   0  0  0  0  0  0  0  0  0  0  0  0
   36.1940   32.9990   39.5070 H   0  0  0  0  0  0  0  0  0  0  0  0
   37.6560   35.0720   39.4990 H   0  0  0  0  0  0  0  0  0  0  0  0
   40.7770   32.1490   42.1550 H   0  0  0  0  0  0  0  0  0  0  0  0
   36.7490   27.0630   43.3340 C   0  0  0  0  0  0  0  0  0  0  0  0
   37.1210   26.0050   42.5220 C   0  0  0  0  0  0  0  0  0  0  0  0
   37.8880   26.2840   41.3960 C   0  0  0  0  0  0  0  0  0  0  0  0
   38.2430   27.5830   41.1370 N   0  0  0  0  0  0  0  0  0  0  0  0
   37.8540   28.5850   41.9620 C   0  0  0  0  0  0  0  0  0  0  0  0
   37.1050   28.3460   43.0690 N   0  0  0  0  0  0  0  0  0  0  0  0
   36.1530   26.8890   44.2190 H   0  0  0  0  0  0  0  0  0  0  0  0
   36.8220   24.9960   42.7620 H   0  0  0  0  0  0  0  0  0  0  0  0
   38.1960   25.4760   40.7390 H   0  0  0  0  0  0  0  0  0  0  0  0
   35.8090   30.1490   40.3450 S   0  0  0  0  0  0  0  0  0  0  0  0
   35.8660   29.6340   38.6200 C   0  0  0  0  0  2  0  0  0  0  0  0
   36.6530   28.8920   38.3920 H   0  0  0  0  0  0  0  0  0  0  0  0
  1 10  1  0  0  0  0
  2 18  1  0  0  0  0
  2  1  2  0  0  0  0
  3  2  1  0  0  0  0
  4  3  2  0  0  0  0
  4  8  1  0  0  0  0
  5  6  1  0  0  0  0
  5  4  1  0  0  0  0
  6  7  2  0  0  0  0
  7  8  1  0  0  0  0
  8  9  2  0  0  0  0
  9  1  1  0  0  0  0
  9 13  1  0  0  0  0
 11  5  1  0  0  0  0
 12  6  1  0  0  0  0
 14 20  1  0  0  0  0
 15 21  1  0  0  0  0
 15 14  2  0  0  0  0
 16 15  1  0  0  0  0
 17 16  2  0  0  0  0
 17 18  1  0  0  0  0
 18 19  2  0  0  0  0
 19 14  1  0  0  0  0
 22 16  1  0  0  0  0
 23  3  1  0  0  0  0
 24 23  1  0  0  0  0
 25 24  1  0  0  0  0
M  END
>  <minimizedAffinity>
-4.92905092

$$$$

 OpenBabel03252509133D

 25 27  0  0  0  0  0  0  0  0999 V2000
   36.7220   30.8800   40.3870 C   0  0  0  0  0  0  0  0  0  0  0  0
   37.7060   30.2370   41.1160 C   0  0  0  0  0  0  0  0  0  0  0  0
   38.9050   30.8270   41.4200 C   0  0  0  0  0  0  0  0  0  0  0  0
   39.1800   32.1310   40.9940 C   0  0  0  0  0  0  0  0  0  0  0  0
   40.2040   33.0100   41.0940 N   0  0  0  0  0  0  0  0  0  0  0  0
   39.8820   34.1560   40.4600 C   0  0  0  0  0  0  0  0  0  0  0  0
   38.6430   33.9740   39.9630 N   0  0  0  0  0  0  0  0  0  0  0  0
   38.1860   32.7500   40.2710 C   0  0  0  0  0  0  0  0  0  0  0  0
   36.9610   32.1820   39.9460 C   0  0  0  0  0  0  0  0  0  0  0  0
   35.7780   30.3800   40.1620 H   0  0  0  0  0  0  0  0  0  0  0  0
   41.0970   32.7590   41.6150 H   0  0  0  0  0  0  0  0  0  0  0  0
   40.6080   34.9610   40.4540 H   0  0  0  0  0  0  0  0  0  0  0  0
   36.2270   32.7310   39.3730 H   0  0  0  0  0  0  0  0  0  0  0  0
   37.5460   26.5780   41.2080 C   0  0  0  0  0  0  0  0  0  0  0  0
   37.0130   26.3200   42.4590 C   0  0  0  0  0  0  0  0  0  0  0  0
   36.7050   27.4030   43.2750 C   0  0  0  0  0  0  0  0  0  0  0  0
   36.9410   28.6730   42.8140 N   0  0  0  0  0  0  0  0  0  0  0  0
   37.4660   28.8750   41.5810 C   0  0  0  0  0  0  0  0  0  0  0  0
   37.7770   27.8380   40.7600 N   0  0  0  0  0  0  0  0  0  0  0  0
   37.7980   25.7640   40.5430 H   0  0  0  0  0  0  0  0  0  0  0  0
   36.8400   25.3050   42.7850 H   0  0  0  0  0  0  0  0  0  0  0  0
   36.2860   27.2340   44.2620 H   0  0  0  0  0  0  0  0  0  0  0  0
   40.1790   30.0070   42.3600 S   0  0  0  0  0  0  0  0  0  0  0  0
   41.2530   28.9930   41.3310 C   0  0  0  0  0  2  0  0  0  0  0  0
   41.7050   29.5290   40.4770 H   0  0  0  0  0  0  0  0  0  0  0  0
  1  2  1  0  0  0  0
  2  3  2  0  0  0  0
  2 18  1  0  0  0  0
  3 23  1  0  0  0  0
  4  5  1  0  0  0  0
  4  3  1  0  0  0  0
  5 11  1  0  0  0  0
  6  5  1  0  0  0  0
  7  8  1  0  0  0  0
  7  6  2  0  0  0  0
  8  4  2  0  0  0  0
  9  8  1  0  0  0  0
  9  1  2  0  0  0  0
 10  1  1  0  0  0  0
 12  6  1  0  0  0  0
 13  9  1  0  0  0  0
 14 15  1  0  0  0  0
 15 21  1  0  0  0  0
 15 16  2  0  0  0  0
 16 22  1  0  0  0  0
 17 16  1  0  0  0  0
 18 17  2  0  0  0  0
 19 14  2  0  0  0  0
 19 18  1  0  0  0  0
 20 14  1  0  0  0  0
 24 23  1  0  0  0  0
 25 24  1  0  0  0  0
M  END
>  <minimizedAffinity>
-4.69844627

$$$$

 OpenBabel03252509133D

 25 27  0  0  0  0  0  0  0  0999 V2000
   40.3320   29.6540   42.0820 C   0  0  0  0  0  0  0  0  0  0  0  0
   39.3820   30.3940   41.4000 C   0  0  0  0  0  0  0  0  0  0  0  0
   38.0410   30.1200   41.4740 C   0  0  0  0  0  0  0  0  0  0  0  0
   37.5760   29.0600   42.2590 C   0  0  0  0  0  0  0  0  0  0  0  0
   36.3810   28.5050   42.5680 N   0  0  0  0  0  0  0  0  0  0  0  0
   36.5670   27.4650   43.4060 C   0  0  0  0  0  0  0  0  0  0  0  0
   37.8950   27.3820   43.6120 N   0  0  0  0  0  0  0  0  0  0  0  0
   38.5400   28.3390   42.9260 C   0  0  0  0  0  0  0  0  0  0  0  0
   39.9060   28.5890   42.8750 C   0  0  0  0  0  0  0  0  0  0  0  0
   41.3920   29.9000   42.0010 H   0  0  0  0  0  0  0  0  0  0  0  0
   35.4750   28.8930   42.1680 H   0  0  0  0  0  0  0  0  0  0  0  0
   35.6950   26.9170   43.7450 H   0  0  0  0  0  0  0  0  0  0  0  0
   40.6050   27.9780   43.4290 H   0  0  0  0  0  0  0  0  0  0  0  0
   40.5700   32.3150   38.5160 C   0  0  0  0  0  0  0  0  0  0  0  0
   40.6340   33.6080   39.0070 C   0  0  0  0  0  0  0  0  0  0  0  0
   40.2690   33.8230   40.3310 C   0  0  0  0  0  0  0  0  0  0  0  0
   39.8640   32.7570   41.0920 N   0  0  0  0  0  0  0  0  0  0  0  0
   39.8170   31.5090   40.5670 C   0  0  0  0  0  0  0  0  0  0  0  0
   40.1670   31.2660   39.2770 N   0  0  0  0  0  0  0  0  0  0  0  0
   40.8460   32.1040   37.4920 H   0  0  0  0  0  0  0  0  0  0  0  0
   40.9610   34.4200   38.3750 H   0  0  0  0  0  0  0  0  0  0  0  0
   40.3090   34.8270   40.7460 H   0  0  0  0  0  0  0  0  0  0  0  0
   36.8080   31.0680   40.6010 S   0  0  0  0  0  0  0  0  0  0  0  0
   36.5820   30.5120   38.9030 C   0  0  0  0  0  2  0  0  0  0  0  0
   36.3650   29.4330   38.8020 H   0  0  0  0  0  0  0  0  0  0  0  0
  1  9  1  0  0  0  0
  2  3  1  0  0  0  0
  2  1  2  0  0  0  0
  3  4  2  0  0  0  0
  4  5  1  0  0  0  0
  4  8  1  0  0  0  0
  5  6  1  0  0  0  0
  6  7  2  0  0  0  0
  6 12  1  0  0  0  0
  8  7  1  0  0  0  0
  9  8  2  0  0  0  0
  9 13  1  0  0  0  0
 10  1  1  0  0  0  0
 11  5  1  0  0  0  0
 14 15  2  0  0  0  0
 14 19  1  0  0  0  0
 15 16  1  0  0  0  0
 16 22  1  0  0  0  0
 16 17  2  0  0  0  0
 18 17  1  0  0  0  0
 18  2  1  0  0  0  0
 19 18  2  0  0  0  0
 20 14  1  0  0  0  0
 21 15  1  0  0  0  0
 23  3  1  0  0  0  0
 24 23  1  0  0  0  0
 25 24  1  0  0  0  0
M  END
>  <minimizedAffinity>
-4.59212923

$$$$

 OpenBabel03252509133D

 25 27  0  0  0  0  0  0  0  0999 V2000
   37.3870   28.7490   42.9740 C   0  0  0  0  0  0  0  0  0  0  0  0
   37.7530   29.0240   41.6690 C   0  0  0  0  0  0  0  0  0  0  0  0
   37.8190   28.0550   40.7010 C   0  0  0  0  0  0  0  0  0  0  0  0
   37.5100   26.7260   41.0070 C   0  0  0  0  0  0  0  0  0  0  0  0
   37.4630   25.5430   40.3510 N   0  0  0  0  0  0  0  0  0  0  0  0
   37.0840   24.5670   41.2010 C   0  0  0  0  0  0  0  0  0  0  0  0
   36.8970   25.1620   42.3960 N   0  0  0  0  0  0  0  0  0  0  0  0
   37.1500   26.4780   42.3120 C   0  0  0  0  0  0  0  0  0  0  0  0
   37.0730   27.4340   43.3170 C   0  0  0  0  0  0  0  0  0  0  0  0
   37.3450   29.5450   43.7210 H   0  0  0  0  0  0  0  0  0  0  0  0
   37.7020   25.4780   39.3170 H   0  0  0  0  0  0  0  0  0  0  0  0
   36.9990   23.5570   40.8180 H   0  0  0  0  0  0  0  0  0  0  0  0
   36.7800   27.1640   44.3220 H   0  0  0  0  0  0  0  0  0  0  0  0
   39.6350   32.1310   41.1910 C   0  0  0  0  0  0  0  0  0  0  0  0
   38.7040   32.9730   40.6070 C   0  0  0  0  0  0  0  0  0  0  0  0
   37.4260   32.4750   40.3760 C   0  0  0  0  0  0  0  0  0  0  0  0
   37.1410   31.1820   40.7310 N   0  0  0  0  0  0  0  0  0  0  0  0
   38.0860   30.3960   41.3010 C   0  0  0  0  0  0  0  0  0  0  0  0
   39.3430   30.8520   41.5400 N   0  0  0  0  0  0  0  0  0  0  0  0
   40.6390   32.4780   41.3890 H   0  0  0  0  0  0  0  0  0  0  0  0
   38.9680   33.9860   40.3430 H   0  0  0  0  0  0  0  0  0  0  0  0
   36.6740   33.1120   39.9190 H   0  0  0  0  0  0  0  0  0  0  0  0
   38.2870   28.3990   39.0150 S   0  0  0  0  0  0  0  0  0  0  0  0
   36.8720   28.7730   37.9660 C   0  0  0  0  0  2  0  0  0  0  0  0
   36.2240   29.5840   38.3470 H   0  0  0  0  0  0  0  0  0  0  0  0
  1  9  1  0  0  0  0
  1 10  1  0  0  0  0
  2  1  2  0  0  0  0
  3  4  2  0  0  0  0
  3  2  1  0  0  0  0
  4  8  1  0  0  0  0
  5  4  1  0  0  0  0
  5  6  1  0  0  0  0
  6  7  2  0  0  0  0
  8  7  1  0  0  0  0
  8  9  2  0  0  0  0
  9 13  1  0  0  0  0
 11  5  1  0  0  0  0
 12  6  1  0  0  0  0
 14 20  1  0  0  0  0
 14 19  1  0  0  0  0
 15 14  2  0  0  0  0
 16 15  1  0  0  0  0
 16 17  2  0  0  0  0
 17 18  1  0  0  0  0
 18 19  2  0  0  0  0
 18  2  1  0  0  0  0
 21 15  1  0  0  0  0
 22 16  1  0  0  0  0
 23  3  1  0  0  0  0
 24 25  1  0  0  0  0
 24 23  1  0  0  0  0
M  END
>  <minimizedAffinity>
-4.39780951

$$$$

 OpenBabel03252509133D

 25 27  0  0  0  0  0  0  0  0999 V2000
   35.7740   28.8360   40.6180 C   0  0  0  0  0  0  0  0  0  0  0  0
   36.9700   28.1680   40.8160 C   0  0  0  0  0  0  0  0  0  0  0  0
   38.1700   28.8210   40.9270 C   0  0  0  0  0  0  0  0  0  0  0  0
   38.2280   30.2160   40.8420 C   0  0  0  0  0  0  0  0  0  0  0  0
   39.1830   31.1720   40.9010 N   0  0  0  0  0  0  0  0  0  0  0  0
   38.6180   32.3880   40.7480 C   0  0  0  0  0  0  0  0  0  0  0  0
   37.2980   32.1700   40.5930 N   0  0  0  0  0  0  0  0  0  0  0  0
   37.0260   30.8560   40.6440 C   0  0  0  0  0  0  0  0  0  0  0  0
   35.7940   30.2270   40.5280 C   0  0  0  0  0  0  0  0  0  0  0  0
   34.8360   28.2850   40.5340 H   0  0  0  0  0  0  0  0  0  0  0  0
   40.2060   30.9210   41.0500 H   0  0  0  0  0  0  0  0  0  0  0  0
   39.2620   33.2600   40.7740 H   0  0  0  0  0  0  0  0  0  0  0  0
   34.8890   30.7990   40.3730 H   0  0  0  0  0  0  0  0  0  0  0  0
   36.8810   24.6300   39.8720 C   0  0  0  0  0  0  0  0  0  0  0  0
   36.9430   23.9790   41.0930 C   0  0  0  0  0  0  0  0  0  0  0  0
   37.0160   24.7550   42.2450 C   0  0  0  0  0  0  0  0  0  0  0  0
   37.0230   26.1210   42.1280 N   0  0  0  0  0  0  0  0  0  0  0  0
   36.9600   26.7130   40.9100 C   0  0  0  0  0  0  0  0  0  0  0  0
   36.8890   25.9830   39.7660 N   0  0  0  0  0  0  0  0  0  0  0  0
   36.8230   24.0630   38.9530 H   0  0  0  0  0  0  0  0  0  0  0  0
   36.9330   22.9000   41.1420 H   0  0  0  0  0  0  0  0  0  0  0  0
   37.0660   24.2740   43.2170 H   0  0  0  0  0  0  0  0  0  0  0  0
   39.7160   27.9700   41.1850 S   0  0  0  0  0  0  0  0  0  0  0  0
   40.1640   27.8620   42.9260 C   0  0  0  0  0  2  0  0  0  0  0  0
   39.3830   27.4220   43.5710 H   0  0  0  0  0  0  0  0  0  0  0  0
  1  2  1  0  0  0  0
  2 18  1  0  0  0  0
  2  3  2  0  0  0  0
  3 23  1  0  0  0  0
  4  5  1  0  0  0  0
  4  3  1  0  0  0  0
  5 11  1  0  0  0  0
  6 12  1  0  0  0  0
  6  5  1  0  0  0  0
  7  8  1  0  0  0  0
  7  6  2  0  0  0  0
  8  4  2  0  0  0  0
  9  1  2  0  0  0  0
  9  8  1  0  0  0  0
 10  1  1  0  0  0  0
 13  9  1  0  0  0  0
 14 15  1  0  0  0  0
 15 21  1  0  0  0  0
 15 16  2  0  0  0  0
 16 22  1  0  0  0  0
 17 16  1  0  0  0  0
 18 17  2  0  0  0  0
 19 14  2  0  0  0  0
 19 18  1  0  0  0  0
 20 14  1  0  0  0  0
 23 24  1  0  0  0  0
 24 25  1  0  0  0  0
M  END
>  <minimizedAffinity>
-4.39340687

$$$$

 OpenBabel03252509133D

 25 27  0  0  0  0  0  0  0  0999 V2000
   37.2150   32.9870   39.6730 C   0  0  0  0  0  0  0  0  0  0  0  0
   37.5660   31.6490   39.6470 C   0  0  0  0  0  0  0  0  0  0  0  0
   38.8410   31.2150   39.8990 C   0  0  0  0  0  0  0  0  0  0  0  0
   39.8540   32.1310   40.1990 C   0  0  0  0  0  0  0  0  0  0  0  0
   41.1750   32.0860   40.4920 N   0  0  0  0  0  0  0  0  0  0  0  0
   41.6370   33.3370   40.6940 C   0  0  0  0  0  0  0  0  0  0  0  0
   40.5830   34.1590   40.5220 N   0  0  0  0  0  0  0  0  0  0  0  0
   39.4810   33.4550   40.2180 C   0  0  0  0  0  0  0  0  0  0  0  0
   38.1990   33.9290   39.9680 C   0  0  0  0  0  0  0  0  0  0  0  0
   36.1890   33.2980   39.4670 H   0  0  0  0  0  0  0  0  0  0  0  0
   41.6980   31.1620   40.5370 H   0  0  0  0  0  0  0  0  0  0  0  0
   42.6850   33.4640   40.9410 H   0  0  0  0  0  0  0  0  0  0  0  0
   37.9800   34.9870   40.0020 H   0  0  0  0  0  0  0  0  0  0  0  0
   34.8430   29.2300   40.0430 C   0  0  0  0  0  0  0  0  0  0  0  0
   34.6250   28.7890   38.7480 C   0  0  0  0  0  0  0  0  0  0  0  0
   35.4150   29.3220   37.7350 C   0  0  0  0  0  0  0  0  0  0  0  0
   36.3680   30.2540   38.0540 N   0  0  0  0  0  0  0  0  0  0  0  0
   36.5430   30.6550   39.3370 C   0  0  0  0  0  0  0  0  0  0  0  0
   35.7880   30.1540   40.3490 N   0  0  0  0  0  0  0  0  0  0  0  0
   34.2510   28.8410   40.8590 H   0  0  0  0  0  0  0  0  0  0  0  0
   33.8650   28.0520   38.5390 H   0  0  0  0  0  0  0  0  0  0  0  0
   35.2690   28.9970   36.7090 H   0  0  0  0  0  0  0  0  0  0  0  0
   39.3030   29.4930   39.8700 S   0  0  0  0  0  0  0  0  0  0  0  0
   39.9550   28.9780   38.2720 C   0  0  0  0  0  2  0  0  0  0  0  0
   40.7920   29.5970   37.9010 H   0  0  0  0  0  0  0  0  0  0  0  0
  1  9  1  0  0  0  0
  2  1  2  0  0  0  0
  2  3  1  0  0  0  0
  3  4  2  0  0  0  0
  4  8  1  0  0  0  0
  4  5  1  0  0  0  0
  5 11  1  0  0  0  0
  5  6  1  0  0  0  0
  6 12  1  0  0  0  0
  7  6  2  0  0  0  0
  8  7  1  0  0  0  0
  9 13  1  0  0  0  0
  9  8  2  0  0  0  0
 10  1  1  0  0  0  0
 14 19  1  0  0  0  0
 14 20  1  0  0  0  0
 15 14  2  0  0  0  0
 16 17  2  0  0  0  0
 16 15  1  0  0  0  0
 17 18  1  0  0  0  0
 18  2  1  0  0  0  0
 18 19  2  0  0  0  0
 21 15  1  0  0  0  0
 22 16  1  0  0  0  0
 23  3  1  0  0  0  0
 24 23  1  0  0  0  0
 25 24  1  0  0  0  0
M  END
>  <minimizedAffinity>
-4.35749817

$$$$

 OpenBabel03252509133D

 25 27  0  0  0  0  0  0  0  0999 V2000
   36.7420   29.5750   39.4160 C   0  0  0  0  0  0  0  0  0  0  0  0
   37.5510   29.4360   40.5290 C   0  0  0  0  0  0  0  0  0  0  0  0
   38.1770   30.4990   41.1240 C   0  0  0  0  0  0  0  0  0  0  0  0
   38.0150   31.7920   40.6150 C   0  0  0  0  0  0  0  0  0  0  0  0
   38.4520   33.0370   40.9160 N   0  0  0  0  0  0  0  0  0  0  0  0
   37.9420   33.9220   40.0350 C   0  0  0  0  0  0  0  0  0  0  0  0
   37.1830   33.2070   39.1820 N   0  0  0  0  0  0  0  0  0  0  0  0
   37.2060   31.9050   39.5070 C   0  0  0  0  0  0  0  0  0  0  0  0
   36.5570   30.8490   38.8800 C   0  0  0  0  0  0  0  0  0  0  0  0
   36.2580   28.7060   38.9660 H   0  0  0  0  0  0  0  0  0  0  0  0
   39.0990   33.2090   41.7420 H   0  0  0  0  0  0  0  0  0  0  0  0
   38.2040   34.9680   40.1480 H   0  0  0  0  0  0  0  0  0  0  0  0
   35.9350   31.0150   38.0110 H   0  0  0  0  0  0  0  0  0  0  0  0
   37.1070   26.4330   42.5810 C   0  0  0  0  0  0  0  0  0  0  0  0
   38.1350   25.6090   42.1560 C   0  0  0  0  0  0  0  0  0  0  0  0
   38.9850   26.0840   41.1630 C   0  0  0  0  0  0  0  0  0  0  0  0
   38.7730   27.3370   40.6470 N   0  0  0  0  0  0  0  0  0  0  0  0
   37.7520   28.1070   41.0960 C   0  0  0  0  0  0  0  0  0  0  0  0
   36.9050   27.6720   42.0650 N   0  0  0  0  0  0  0  0  0  0  0  0
   36.4250   26.1030   43.3520 H   0  0  0  0  0  0  0  0  0  0  0  0
   38.2690   24.6300   42.5890 H   0  0  0  0  0  0  0  0  0  0  0  0
   39.8010   25.4610   40.8080 H   0  0  0  0  0  0  0  0  0  0  0  0
   39.2210   30.3310   42.5600 S   0  0  0  0  0  0  0  0  0  0  0  0
   40.9210   29.9180   42.1350 C   0  0  0  0  0  2  0  0  0  0  0  0
   41.3900   30.6080   41.4110 H   0  0  0  0  0  0  0  0  0  0  0  0
  1  2  1  0  0  0  0
  2 18  1  0  0  0  0
  2  3  2  0  0  0  0
  3 23  1  0  0  0  0
  4  5  1  0  0  0  0
  4  3  1  0  0  0  0
  5 11  1  0  0  0  0
  6 12  1  0  0  0  0
  6  5  1  0  0  0  0
  7  8  1  0  0  0  0
  7  6  2  0  0  0  0
  8  4  2  0  0  0  0
  9  1  2  0  0  0  0
  9  8  1  0  0  0  0
 10  1  1  0  0  0  0
 13  9  1  0  0  0  0
 14 20  1  0  0  0  0
 15 14  1  0  0  0  0
 15 21  1  0  0  0  0
 16 15  2  0  0  0  0
 17 18  2  0  0  0  0
 17 16  1  0  0  0  0
 18 19  1  0  0  0  0
 19 14  2  0  0  0  0
 22 16  1  0  0  0  0
 24 23  1  0  0  0  0
 25 24  1  0  0  0  0
M  END
>  <minimizedAffinity>
-4.33634806

$$$$

 OpenBabel03252509133D

 25 27  0  0  0  0  0  0  0  0999 V2000
   36.8660   26.7430   40.5100 C   0  0  0  0  0  0  0  0  0  0  0  0
   37.6780   27.7640   40.9700 C   0  0  0  0  0  0  0  0  0  0  0  0
   38.7200   27.5470   41.8330 C   0  0  0  0  0  0  0  0  0  0  0  0
   39.0050   26.2550   42.2880 C   0  0  0  0  0  0  0  0  0  0  0  0
   39.9100   25.6700   43.1070 N   0  0  0  0  0  0  0  0  0  0  0  0
   39.6810   24.3420   43.1620 C   0  0  0  0  0  0  0  0  0  0  0  0
   38.6200   24.1110   42.3640 N   0  0  0  0  0  0  0  0  0  0  0  0
   38.1830   25.2570   41.8160 C   0  0  0  0  0  0  0  0  0  0  0  0
   37.1200   25.4420   40.9420 C   0  0  0  0  0  0  0  0  0  0  0  0
   36.0440   26.9520   39.8220 H   0  0  0  0  0  0  0  0  0  0  0  0
   40.6600   26.2430   43.5970 H   0  0  0  0  0  0  0  0  0  0  0  0
   40.3300   23.7340   43.7830 H   0  0  0  0  0  0  0  0  0  0  0  0
   36.5170   24.6060   40.6140 H   0  0  0  0  0  0  0  0  0  0  0  0
   37.7690   30.8460   38.9910 C   0  0  0  0  0  0  0  0  0  0  0  0
   36.9300   31.6940   39.6940 C   0  0  0  0  0  0  0  0  0  0  0  0
   36.3310   31.2080   40.8520 C   0  0  0  0  0  0  0  0  0  0  0  0
   36.5910   29.9220   41.2470 N   0  0  0  0  0  0  0  0  0  0  0  0
   37.4200   29.1290   40.5250 C   0  0  0  0  0  0  0  0  0  0  0  0
   38.0200   29.5730   39.3900 N   0  0  0  0  0  0  0  0  0  0  0  0
   38.2540   31.1840   38.0860 H   0  0  0  0  0  0  0  0  0  0  0  0
   36.7520   32.7020   39.3510 H   0  0  0  0  0  0  0  0  0  0  0  0
   35.6680   31.8490   41.4260 H   0  0  0  0  0  0  0  0  0  0  0  0
   39.7740   28.8550   42.4300 S   0  0  0  0  0  0  0  0  0  0  0  0
   41.2390   29.0850   41.4080 C   0  0  0  0  0  2  0  0  0  0  0  0
   41.0260   29.2370   40.3340 H   0  0  0  0  0  0  0  0  0  0  0  0
  1  9  2  0  0  0  0
  1  2  1  0  0  0  0
  2  3  2  0  0  0  0
  3  4  1  0  0  0  0
  3 23  1  0  0  0  0
  4  5  1  0  0  0  0
  5  6  1  0  0  0  0
  5 11  1  0  0  0  0
  6 12  1  0  0  0  0
  7  6  2  0  0  0  0
  8  4  2  0  0  0  0
  8  7  1  0  0  0  0
  9  8  1  0  0  0  0
 10  1  1  0  0  0  0
 13  9  1  0  0  0  0
 14 19  2  0  0  0  0
 14 15  1  0  0  0  0
 15 16  2  0  0  0  0
 16 17  1  0  0  0  0
 16 22  1  0  0  0  0
 18  2  1  0  0  0  0
 18 17  2  0  0  0  0
 19 18  1  0  0  0  0
 20 14  1  0  0  0  0
 21 15  1  0  0  0  0
 24 23  1  0  0  0  0
 25 24  1  0  0  0  0
M  END
>  <minimizedAffinity>
-4.20161152

$$$$

 OpenBabel03252509133D

 25 27  0  0  0  0  0  0  0  0999 V2000
   36.9560   25.3620   41.4170 C   0  0  0  0  0  0  0  0  0  0  0  0
   37.3760   26.6260   41.0450 C   0  0  0  0  0  0  0  0  0  0  0  0
   38.6100   27.1210   41.3740 C   0  0  0  0  0  0  0  0  0  0  0  0
   39.5090   26.3470   42.1150 C   0  0  0  0  0  0  0  0  0  0  0  0
   40.7610   26.4850   42.6110 N   0  0  0  0  0  0  0  0  0  0  0  0
   41.1170   25.3600   43.2650 C   0  0  0  0  0  0  0  0  0  0  0  0
   40.0660   24.5220   43.1680 N   0  0  0  0  0  0  0  0  0  0  0  0
   39.0690   25.0930   42.4740 C   0  0  0  0  0  0  0  0  0  0  0  0
   37.8260   24.5610   42.1560 C   0  0  0  0  0  0  0  0  0  0  0  0
   35.9650   24.9980   41.1370 H   0  0  0  0  0  0  0  0  0  0  0  0
   41.3170   27.3790   42.4620 H   0  0  0  0  0  0  0  0  0  0  0  0
   42.1000   25.3190   43.7190 H   0  0  0  0  0  0  0  0  0  0  0  0
   37.5490   23.5640   42.4740 H   0  0  0  0  0  0  0  0  0  0  0  0
   35.5180   28.0610   38.2320 C   0  0  0  0  0  0  0  0  0  0  0  0
   34.7750   29.0660   38.8280 C   0  0  0  0  0  0  0  0  0  0  0  0
   34.9110   29.2530   40.1990 C   0  0  0  0  0  0  0  0  0  0  0  0
   35.7660   28.4430   40.9000 N   0  0  0  0  0  0  0  0  0  0  0  0
   36.4730   27.4730   40.2720 C   0  0  0  0  0  0  0  0  0  0  0  0
   36.3630   27.2640   38.9340 N   0  0  0  0  0  0  0  0  0  0  0  0
   35.4430   27.8830   37.1680 H   0  0  0  0  0  0  0  0  0  0  0  0
   34.1130   29.6830   38.2390 H   0  0  0  0  0  0  0  0  0  0  0  0
   34.3410   30.0330   40.6960 H   0  0  0  0  0  0  0  0  0  0  0  0
   39.1610   28.7490   40.8980 S   0  0  0  0  0  0  0  0  0  0  0  0
   38.9280   29.9680   42.2030 C   0  0  0  0  0  2  0  0  0  0  0  0
   39.3790   29.6890   43.1730 H   0  0  0  0  0  0  0  0  0  0  0  0
  1  9  1  0  0  0  0
  2  3  1  0  0  0  0
  2  1  2  0  0  0  0
  3  4  2  0  0  0  0
  4  8  1  0  0  0  0
  4  5  1  0  0  0  0
  5  6  1  0  0  0  0
  6 12  1  0  0  0  0
  7  6  2  0  0  0  0
  8  7  1  0  0  0  0
  9 13  1  0  0  0  0
  9  8  2  0  0  0  0
 10  1  1  0  0  0  0
 11  5  1  0  0  0  0
 14 15  2  0  0  0  0
 14 19  1  0  0  0  0
 15 16  1  0  0  0  0
 16 22  1  0  0  0  0
 16 17  2  0  0  0  0
 18 17  1  0  0  0  0
 18  2  1  0  0  0  0
 19 18  2  0  0  0  0
 20 14  1  0  0  0  0
 21 15  1  0  0  0  0
 23  3  1  0  0  0  0
 23 24  1  0  0  0  0
 24 25  1  0  0  0  0
M  END
>  <minimizedAffinity>
-4.20025349

$$$$
