
 OpenBabel03252504233D

 25 27  0  0  0  0  0  0  0  0999 V2000
   39.2930   27.2110   43.0500 C   0  0  0  0  0  0  0  0  0  0  0  0
   38.0810   27.5190   43.6800 C   0  0  0  0  0  0  0  0  0  0  0  0
   37.3470   28.6360   43.2450 C   0  0  0  0  0  0  0  0  0  0  0  0
   37.8710   29.3690   42.2140 N   0  0  0  0  0  0  0  0  0  0  0  0
   39.0390   29.0450   41.6320 C   0  0  0  0  0  0  0  0  0  0  0  0
   39.7490   27.9730   42.0440 N   0  0  0  0  0  0  0  0  0  0  0  0
   39.5190   29.8600   40.5600 N   0  0  0  0  0  0  0  0  0  0  0  0
   40.7740   30.3090   40.3890 C   0  0  0  0  0  0  0  0  0  0  0  0
   40.8150   31.0550   39.2430 N   0  0  0  0  0  0  0  0  0  0  0  0
   39.5710   31.0430   38.7360 C   0  0  0  0  0  0  0  0  0  0  0  0
   38.9780   31.5940   37.6260 C   0  0  0  0  0  0  0  0  0  0  0  0
   37.7050   31.4390   37.3300 N   0  0  0  0  0  0  0  0  0  0  0  0
   36.8780   30.7100   38.1190 C   0  0  0  0  0  0  0  0  0  0  0  0
   37.4530   30.1660   39.2110 N   0  0  0  0  0  0  0  0  0  0  0  0
   38.7420   30.2970   39.5500 C   0  0  0  0  0  0  0  0  0  0  0  0
   37.6380   26.9610   44.4970 H   0  0  0  0  0  0  0  0  0  0  0  0
   36.4070   28.8950   43.7150 H   0  0  0  0  0  0  0  0  0  0  0  0
   41.5980   30.1030   41.0590 H   0  0  0  0  0  0  0  0  0  0  0  0
   35.8290   30.5710   37.8940 H   0  0  0  0  0  0  0  0  0  0  0  0
   39.7370   32.3830   36.7150 N   0  0  0  0  0  0  0  0  0  0  0  0
   40.1880   31.9110   35.8880 H   0  0  0  0  0  0  0  0  0  0  0  0
   39.7780   33.4030   36.9630 H   0  0  0  0  0  0  0  0  0  0  0  0
   40.1520   25.7690   43.6770 S   0  0  0  0  0  0  0  0  0  0  0  0
   39.5340   24.2450   42.9690 C   0  0  0  0  0  2  0  0  0  0  0  0
   40.1780   23.3960   43.2250 H   0  0  0  0  0  0  0  0  0  0  0  0
  1 23  1  0  0  0  0
  1  2  1  0  0  0  0
  2 16  1  0  0  0  0
  3  2  2  0  0  0  0
  3 17  1  0  0  0  0
  4  3  1  0  0  0  0
  5  6  1  0  0  0  0
  5  4  2  0  0  0  0
  6  1  2  0  0  0  0
  7  5  1  0  0  0  0
  8  7  1  0  0  0  0
  8 18  1  0  0  0  0
  9  8  2  0  0  0  0
 10  9  1  0  0  0  0
 10 15  1  0  0  0  0
 11 10  2  0  0  0  0
 12 11  1  0  0  0  0
 12 13  2  0  0  0  0
 13 14  1  0  0  0  0
 14 15  2  0  0  0  0
 15  7  1  0  0  0  0
 19 13  1  0  0  0  0
 20 22  1  0  0  0  0
 20 11  1  0  0  0  0
 21 20  1  0  0  0  0
 24 25  1  0  0  0  0
 24 23  1  0  0  0  0
M  END
>  <minimizedAffinity>
-5.20199013

$$$$

 OpenBabel03252504233D

 25 27  0  0  0  0  0  0  0  0999 V2000
   37.0490   25.3910   40.6180 C   0  0  0  0  0  0  0  0  0  0  0  0
   36.5350   24.9060   39.4100 C   0  0  0  0  0  0  0  0  0  0  0  0
   36.0100   25.8150   38.4740 C   0  0  0  0  0  0  0  0  0  0  0  0
   36.0340   27.1430   38.8060 N   0  0  0  0  0  0  0  0  0  0  0  0
   36.5370   27.5740   39.9770 C   0  0  0  0  0  0  0  0  0  0  0  0
   37.0430   26.7070   40.8810 N   0  0  0  0  0  0  0  0  0  0  0  0
   36.5270   28.9770   40.2510 N   0  0  0  0  0  0  0  0  0  0  0  0
   36.1640   29.5720   41.4000 C   0  0  0  0  0  0  0  0  0  0  0  0
   36.2970   30.9250   41.2490 N   0  0  0  0  0  0  0  0  0  0  0  0
   36.7430   31.1270   39.9970 C   0  0  0  0  0  0  0  0  0  0  0  0
   37.0650   32.2380   39.2570 C   0  0  0  0  0  0  0  0  0  0  0  0
   37.4930   32.1840   38.0130 N   0  0  0  0  0  0  0  0  0  0  0  0
   37.6460   31.0020   37.3680 C   0  0  0  0  0  0  0  0  0  0  0  0
   37.3310   29.9050   38.0880 N   0  0  0  0  0  0  0  0  0  0  0  0
   36.8930   29.9140   39.3540 C   0  0  0  0  0  0  0  0  0  0  0  0
   36.5000   23.8640   39.1150 H   0  0  0  0  0  0  0  0  0  0  0  0
   35.6070   25.4660   37.5330 H   0  0  0  0  0  0  0  0  0  0  0  0
   35.8270   29.0480   42.2840 H   0  0  0  0  0  0  0  0  0  0  0  0
   37.9950   30.9350   36.3460 H   0  0  0  0  0  0  0  0  0  0  0  0
   36.9490   33.5420   39.8190 N   0  0  0  0  0  0  0  0  0  0  0  0
   37.7870   33.9670   40.2930 H   0  0  0  0  0  0  0  0  0  0  0  0
   35.9980   33.9750   39.7010 H   0  0  0  0  0  0  0  0  0  0  0  0
   37.6940   24.1540   41.7430 S   0  0  0  0  0  0  0  0  0  0  0  0
   39.1300   24.7320   42.6420 C   0  0  0  0  0  2  0  0  0  0  0  0
   39.4050   24.0380   43.4440 H   0  0  0  0  0  0  0  0  0  0  0  0
  1  6  1  0  0  0  0
  1 23  1  0  0  0  0
  2  1  2  0  0  0  0
  3  4  2  0  0  0  0
  3  2  1  0  0  0  0
  4  5  1  0  0  0  0
  5  7  1  0  0  0  0
  5  6  2  0  0  0  0
  7  8  1  0  0  0  0
  8 18  1  0  0  0  0
  9  8  2  0  0  0  0
 10  9  1  0  0  0  0
 11 20  1  0  0  0  0
 11 10  2  0  0  0  0
 12 11  1  0  0  0  0
 13 12  2  0  0  0  0
 13 14  1  0  0  0  0
 14 15  2  0  0  0  0
 15 10  1  0  0  0  0
 15  7  1  0  0  0  0
 16  2  1  0  0  0  0
 17  3  1  0  0  0  0
 19 13  1  0  0  0  0
 20 21  1  0  0  0  0
 22 20  1  0  0  0  0
 23 24  1  0  0  0  0
 24 25  1  0  0  0  0
M  END
>  <minimizedAffinity>
-5.01802921

$$$$

 OpenBabel03252504233D

 25 27  0  0  0  0  0  0  0  0999 V2000
   37.4090   26.4020   42.1130 C   0  0  0  0  0  0  0  0  0  0  0  0
   37.1130   27.0940   43.2940 C   0  0  0  0  0  0  0  0  0  0  0  0
   37.3730   28.4740   43.3620 C   0  0  0  0  0  0  0  0  0  0  0  0
   37.9090   29.0680   42.2520 N   0  0  0  0  0  0  0  0  0  0  0  0
   38.1810   28.3720   41.1330 C   0  0  0  0  0  0  0  0  0  0  0  0
   37.9330   27.0470   41.0590 N   0  0  0  0  0  0  0  0  0  0  0  0
   38.7390   29.0650   40.0150 N   0  0  0  0  0  0  0  0  0  0  0  0
   39.7650   28.6610   39.2460 C   0  0  0  0  0  0  0  0  0  0  0  0
   39.9880   29.6100   38.2860 N   0  0  0  0  0  0  0  0  0  0  0  0
   39.0840   30.5820   38.4940 C   0  0  0  0  0  0  0  0  0  0  0  0
   38.7970   31.7780   37.8820 C   0  0  0  0  0  0  0  0  0  0  0  0
   37.8350   32.5840   38.2770 N   0  0  0  0  0  0  0  0  0  0  0  0
   37.0480   32.2800   39.3370 C   0  0  0  0  0  0  0  0  0  0  0  0
   37.3220   31.1080   39.9450 N   0  0  0  0  0  0  0  0  0  0  0  0
   38.2910   30.2580   39.5760 C   0  0  0  0  0  0  0  0  0  0  0  0
   36.6900   26.6550   44.1890 H   0  0  0  0  0  0  0  0  0  0  0  0
   37.1540   29.0310   44.2630 H   0  0  0  0  0  0  0  0  0  0  0  0
   40.3080   27.7350   39.3810 H   0  0  0  0  0  0  0  0  0  0  0  0
   36.2520   32.9300   39.6790 H   0  0  0  0  0  0  0  0  0  0  0  0
   39.5510   32.2140   36.7550 N   0  0  0  0  0  0  0  0  0  0  0  0
   39.2120   31.9650   35.7900 H   0  0  0  0  0  0  0  0  0  0  0  0
   40.4110   32.7660   37.0030 H   0  0  0  0  0  0  0  0  0  0  0  0
   37.0410   24.6480   42.1250 S   0  0  0  0  0  0  0  0  0  0  0  0
   36.4760   24.0580   40.5320 C   0  0  0  0  0  2  0  0  0  0  0  0
   36.4230   22.9640   40.5080 H   0  0  0  0  0  0  0  0  0  0  0  0
  1 23  1  0  0  0  0
  1  2  1  0  0  0  0
  2  3  2  0  0  0  0
  2 16  1  0  0  0  0
  3 17  1  0  0  0  0
  4  3  1  0  0  0  0
  5  4  2  0  0  0  0
  6  5  1  0  0  0  0
  6  1  2  0  0  0  0
  7  5  1  0  0  0  0
  8 18  1  0  0  0  0
  8  7  1  0  0  0  0
  9 10  1  0  0  0  0
  9  8  2  0  0  0  0
 10 15  1  0  0  0  0
 11 12  1  0  0  0  0
 11 10  2  0  0  0  0
 12 13  2  0  0  0  0
 13 19  1  0  0  0  0
 13 14  1  0  0  0  0
 15 14  2  0  0  0  0
 15  7  1  0  0  0  0
 20 22  1  0  0  0  0
 20 11  1  0  0  0  0
 21 20  1  0  0  0  0
 24 23  1  0  0  0  0
 25 24  1  0  0  0  0
M  END
>  <minimizedAffinity>
-4.97741365

$$$$

 OpenBabel03252504233D

 25 27  0  0  0  0  0  0  0  0999 V2000
   38.5320   26.3110   42.1960 C   0  0  0  0  0  0  0  0  0  0  0  0
   37.1960   26.3290   42.6160 C   0  0  0  0  0  0  0  0  0  0  0  0
   36.5660   27.5660   42.8420 C   0  0  0  0  0  0  0  0  0  0  0  0
   37.3090   28.6970   42.6360 N   0  0  0  0  0  0  0  0  0  0  0  0
   38.5910   28.6420   42.2320 C   0  0  0  0  0  0  0  0  0  0  0  0
   39.2030   27.4590   42.0120 N   0  0  0  0  0  0  0  0  0  0  0  0
   39.2990   29.8680   42.0380 N   0  0  0  0  0  0  0  0  0  0  0  0
   40.5480   30.1520   42.4470 C   0  0  0  0  0  0  0  0  0  0  0  0
   40.8510   31.4290   42.0640 N   0  0  0  0  0  0  0  0  0  0  0  0
   39.7680   31.9010   41.4230 C   0  0  0  0  0  0  0  0  0  0  0  0
   39.4520   33.0920   40.8150 C   0  0  0  0  0  0  0  0  0  0  0  0
   38.2930   33.3270   40.2370 N   0  0  0  0  0  0  0  0  0  0  0  0
   37.3160   32.3890   40.2030 C   0  0  0  0  0  0  0  0  0  0  0  0
   37.6180   31.2170   40.7970 N   0  0  0  0  0  0  0  0  0  0  0  0
   38.7830   30.9350   41.3970 C   0  0  0  0  0  0  0  0  0  0  0  0
   36.5800   25.4550   42.7880 H   0  0  0  0  0  0  0  0  0  0  0  0
   35.5350   27.6070   43.1670 H   0  0  0  0  0  0  0  0  0  0  0  0
   41.1880   29.4670   42.9880 H   0  0  0  0  0  0  0  0  0  0  0  0
   36.3560   32.5620   39.7330 H   0  0  0  0  0  0  0  0  0  0  0  0
   40.3930   34.1610   40.7820 N   0  0  0  0  0  0  0  0  0  0  0  0
   41.0410   34.2410   39.9560 H   0  0  0  0  0  0  0  0  0  0  0  0
   40.3480   34.7960   41.6180 H   0  0  0  0  0  0  0  0  0  0  0  0
   39.2440   24.6880   41.9340 S   0  0  0  0  0  0  0  0  0  0  0  0
   38.1370   23.5900   41.0550 C   0  0  0  0  0  2  0  0  0  0  0  0
   38.6460   22.6690   40.7510 H   0  0  0  0  0  0  0  0  0  0  0  0
  1  2  1  0  0  0  0
  2 16  1  0  0  0  0
  2  3  2  0  0  0  0
  3 17  1  0  0  0  0
  4  3  1  0  0  0  0
  5  4  2  0  0  0  0
  6  1  2  0  0  0  0
  6  5  1  0  0  0  0
  7  5  1  0  0  0  0
  7  8  1  0  0  0  0
  8 18  1  0  0  0  0
  9  8  2  0  0  0  0
 10  9  1  0  0  0  0
 11 10  2  0  0  0  0
 12 11  1  0  0  0  0
 13 12  2  0  0  0  0
 13 14  1  0  0  0  0
 14 15  2  0  0  0  0
 15 10  1  0  0  0  0
 15  7  1  0  0  0  0
 19 13  1  0  0  0  0
 20 11  1  0  0  0  0
 20 22  1  0  0  0  0
 21 20  1  0  0  0  0
 23  1  1  0  0  0  0
 24 23  1  0  0  0  0
 25 24  1  0  0  0  0
M  END
>  <minimizedAffinity>
-4.93614149

$$$$

 OpenBabel03252504233D

 25 27  0  0  0  0  0  0  0  0999 V2000
   41.5730   26.7100   42.8220 C   0  0  0  0  0  0  0  0  0  0  0  0
   40.6740   25.8590   43.4770 C   0  0  0  0  0  0  0  0  0  0  0  0
   39.3500   26.2870   43.6800 C   0  0  0  0  0  0  0  0  0  0  0  0
   39.0140   27.5310   43.2180 N   0  0  0  0  0  0  0  0  0  0  0  0
   39.9050   28.3220   42.5930 C   0  0  0  0  0  0  0  0  0  0  0  0
   41.1780   27.9180   42.3940 N   0  0  0  0  0  0  0  0  0  0  0  0
   39.4770   29.6080   42.1390 N   0  0  0  0  0  0  0  0  0  0  0  0
   40.1340   30.7720   42.2780 C   0  0  0  0  0  0  0  0  0  0  0  0
   39.3840   31.7650   41.7080 N   0  0  0  0  0  0  0  0  0  0  0  0
   38.2740   31.1770   41.2300 C   0  0  0  0  0  0  0  0  0  0  0  0
   37.1580   31.6230   40.5650 C   0  0  0  0  0  0  0  0  0  0  0  0
   36.1730   30.8350   40.1880 N   0  0  0  0  0  0  0  0  0  0  0  0
   36.1980   29.5030   40.4380 C   0  0  0  0  0  0  0  0  0  0  0  0
   37.2900   29.0570   41.0900 N   0  0  0  0  0  0  0  0  0  0  0  0
   38.3140   29.8220   41.4920 C   0  0  0  0  0  0  0  0  0  0  0  0
   40.9060   24.8700   43.8540 H   0  0  0  0  0  0  0  0  0  0  0  0
   38.6360   25.6490   44.1820 H   0  0  0  0  0  0  0  0  0  0  0  0
   41.0950   30.8820   42.7620 H   0  0  0  0  0  0  0  0  0  0  0  0
   35.3980   28.8380   40.1370 H   0  0  0  0  0  0  0  0  0  0  0  0
   37.0100   33.0030   40.2430 N   0  0  0  0  0  0  0  0  0  0  0  0
   37.3530   33.3450   39.3080 H   0  0  0  0  0  0  0  0  0  0  0  0
   36.5530   33.5720   40.9990 H   0  0  0  0  0  0  0  0  0  0  0  0
   43.2350   26.0730   42.6120 S   0  0  0  0  0  0  0  0  0  0  0  0
   43.6040   25.6790   40.9060 C   0  0  0  0  0  2  0  0  0  0  0  0
   44.6690   25.4600   40.7680 H   0  0  0  0  0  0  0  0  0  0  0  0
  1  2  1  0  0  0  0
  2  3  2  0  0  0  0
  2 16  1  0  0  0  0
  3 17  1  0  0  0  0
  4  3  1  0  0  0  0
  5  4  2  0  0  0  0
  6  5  1  0  0  0  0
  6  1  2  0  0  0  0
  7  8  1  0  0  0  0
  7  5  1  0  0  0  0
  8 18  1  0  0  0  0
  9  8  2  0  0  0  0
 10 15  1  0  0  0  0
 10  9  1  0  0  0  0
 11 10  2  0  0  0  0
 12 13  2  0  0  0  0
 12 11  1  0  0  0  0
 13 14  1  0  0  0  0
 14 15  2  0  0  0  0
 15  7  1  0  0  0  0
 19 13  1  0  0  0  0
 20 11  1  0  0  0  0
 20 22  1  0  0  0  0
 21 20  1  0  0  0  0
 23  1  1  0  0  0  0
 24 23  1  0  0  0  0
 25 24  1  0  0  0  0
M  END
>  <minimizedAffinity>
-4.62063932

$$$$

 OpenBabel03252504233D

 25 27  0  0  0  0  0  0  0  0999 V2000
   38.2170   31.2310   40.3930 C   0  0  0  0  0  0  0  0  0  0  0  0
   39.1280   32.0370   41.0860 C   0  0  0  0  0  0  0  0  0  0  0  0
   39.8840   31.4740   42.1300 C   0  0  0  0  0  0  0  0  0  0  0  0
   39.6810   30.1500   42.4100 N   0  0  0  0  0  0  0  0  0  0  0  0
   38.7970   29.4050   41.7230 C   0  0  0  0  0  0  0  0  0  0  0  0
   38.0670   29.9370   40.7190 N   0  0  0  0  0  0  0  0  0  0  0  0
   38.6430   28.0280   42.0750 N   0  0  0  0  0  0  0  0  0  0  0  0
   37.4870   27.3580   42.2220 C   0  0  0  0  0  0  0  0  0  0  0  0
   37.7750   26.0650   42.5640 N   0  0  0  0  0  0  0  0  0  0  0  0
   39.1150   25.9760   42.6180 C   0  0  0  0  0  0  0  0  0  0  0  0
   40.0010   24.9650   42.9010 C   0  0  0  0  0  0  0  0  0  0  0  0
   41.3080   25.1210   42.8910 N   0  0  0  0  0  0  0  0  0  0  0  0
   41.8760   26.3160   42.5940 C   0  0  0  0  0  0  0  0  0  0  0  0
   41.0120   27.3140   42.3160 N   0  0  0  0  0  0  0  0  0  0  0  0
   39.6770   27.1990   42.3140 C   0  0  0  0  0  0  0  0  0  0  0  0
   39.3130   33.0860   40.8910 H   0  0  0  0  0  0  0  0  0  0  0  0
   40.5950   32.0760   42.6810 H   0  0  0  0  0  0  0  0  0  0  0  0
   36.5040   27.7900   42.0870 H   0  0  0  0  0  0  0  0  0  0  0  0
   42.9480   26.4660   42.5810 H   0  0  0  0  0  0  0  0  0  0  0  0
   39.5330   23.6600   43.2280 N   0  0  0  0  0  0  0  0  0  0  0  0
   39.4160   22.9540   42.4560 H   0  0  0  0  0  0  0  0  0  0  0  0
   39.3410   23.5190   44.2520 H   0  0  0  0  0  0  0  0  0  0  0  0
   37.3020   32.0400   39.0820 S   0  0  0  0  0  0  0  0  0  0  0  0
   37.6530   31.3390   37.4720 C   0  0  0  0  0  2  0  0  0  0  0  0
   36.9630   31.7220   36.7110 H   0  0  0  0  0  0  0  0  0  0  0  0
  1  6  2  0  0  0  0
  1  2  1  0  0  0  0
  2  3  2  0  0  0  0
  3  4  1  0  0  0  0
  3 17  1  0  0  0  0
  5  7  1  0  0  0  0
  5  4  2  0  0  0  0
  6  5  1  0  0  0  0
  7  8  1  0  0  0  0
  7 15  1  0  0  0  0
  8  9  2  0  0  0  0
  9 10  1  0  0  0  0
 10 11  1  0  0  0  0
 11 20  1  0  0  0  0
 12 11  2  0  0  0  0
 13 12  1  0  0  0  0
 14 13  2  0  0  0  0
 15 14  1  0  0  0  0
 15 10  2  0  0  0  0
 16  2  1  0  0  0  0
 18  8  1  0  0  0  0
 19 13  1  0  0  0  0
 20 22  1  0  0  0  0
 21 20  1  0  0  0  0
 23  1  1  0  0  0  0
 24 23  1  0  0  0  0
 25 24  1  0  0  0  0
M  END
>  <minimizedAffinity>
-4.60457468

$$$$

 OpenBabel03252504233D

 25 27  0  0  0  0  0  0  0  0999 V2000
   42.0950   32.8040   40.5610 C   0  0  0  0  0  0  0  0  0  0  0  0
   42.7430   32.3140   41.7010 C   0  0  0  0  0  0  0  0  0  0  0  0
   42.0190   31.5340   42.6200 C   0  0  0  0  0  0  0  0  0  0  0  0
   40.7000   31.2980   42.3400 N   0  0  0  0  0  0  0  0  0  0  0  0
   40.1080   31.7850   41.2350 C   0  0  0  0  0  0  0  0  0  0  0  0
   40.7980   32.5340   40.3470 N   0  0  0  0  0  0  0  0  0  0  0  0
   38.7270   31.4930   41.0130 N   0  0  0  0  0  0  0  0  0  0  0  0
   37.7740   32.3550   40.6180 C   0  0  0  0  0  0  0  0  0  0  0  0
   36.5880   31.6790   40.5260 N   0  0  0  0  0  0  0  0  0  0  0  0
   36.8480   30.4060   40.8710 C   0  0  0  0  0  0  0  0  0  0  0  0
   36.0930   29.2630   40.9750 C   0  0  0  0  0  0  0  0  0  0  0  0
   36.5840   28.0990   41.3440 N   0  0  0  0  0  0  0  0  0  0  0  0
   37.8950   27.9490   41.6510 C   0  0  0  0  0  0  0  0  0  0  0  0
   38.6440   29.0670   41.5510 N   0  0  0  0  0  0  0  0  0  0  0  0
   38.1860   30.2700   41.1800 C   0  0  0  0  0  0  0  0  0  0  0  0
   43.7840   32.4820   41.9520 H   0  0  0  0  0  0  0  0  0  0  0  0
   42.4970   31.1440   43.5080 H   0  0  0  0  0  0  0  0  0  0  0  0
   37.9400   33.4040   40.4120 H   0  0  0  0  0  0  0  0  0  0  0  0
   38.3190   27.0010   41.9570 H   0  0  0  0  0  0  0  0  0  0  0  0
   34.6990   29.2860   40.6800 N   0  0  0  0  0  0  0  0  0  0  0  0
   34.3840   29.0630   39.7000 H   0  0  0  0  0  0  0  0  0  0  0  0
   34.0920   29.5330   41.5010 H   0  0  0  0  0  0  0  0  0  0  0  0
   43.1040   33.7850   39.4520 S   0  0  0  0  0  0  0  0  0  0  0  0
   42.3370   34.0110   37.8510 C   0  0  0  0  0  2  0  0  0  0  0  0
   42.8770   34.7500   37.2490 H   0  0  0  0  0  0  0  0  0  0  0  0
  1  2  1  0  0  0  0
  2 16  1  0  0  0  0
  2  3  2  0  0  0  0
  3 17  1  0  0  0  0
  4  3  1  0  0  0  0
  5  4  2  0  0  0  0
  6  1  2  0  0  0  0
  6  5  1  0  0  0  0
  7 15  1  0  0  0  0
  7  5  1  0  0  0  0
  8  7  1  0  0  0  0
  9  8  2  0  0  0  0
  9 10  1  0  0  0  0
 10 11  2  0  0  0  0
 10 15  1  0  0  0  0
 11 12  1  0  0  0  0
 12 13  2  0  0  0  0
 13 19  1  0  0  0  0
 14 13  1  0  0  0  0
 15 14  2  0  0  0  0
 18  8  1  0  0  0  0
 20 11  1  0  0  0  0
 20 22  1  0  0  0  0
 21 20  1  0  0  0  0
 23  1  1  0  0  0  0
 24 23  1  0  0  0  0
 25 24  1  0  0  0  0
M  END
>  <minimizedAffinity>
-4.60200453

$$$$

 OpenBabel03252504233D

 25 27  0  0  0  0  0  0  0  0999 V2000
   35.6140   28.4860   38.0960 C   0  0  0  0  0  0  0  0  0  0  0  0
   35.0980   29.5190   38.8870 C   0  0  0  0  0  0  0  0  0  0  0  0
   35.2250   29.4410   40.2850 C   0  0  0  0  0  0  0  0  0  0  0  0
   35.8560   28.3400   40.7980 N   0  0  0  0  0  0  0  0  0  0  0  0
   36.3400   27.3650   40.0080 C   0  0  0  0  0  0  0  0  0  0  0  0
   36.2230   27.4330   38.6650 N   0  0  0  0  0  0  0  0  0  0  0  0
   36.9880   26.2470   40.6200 N   0  0  0  0  0  0  0  0  0  0  0  0
   36.8130   24.9490   40.3170 C   0  0  0  0  0  0  0  0  0  0  0  0
   37.6170   24.2010   41.1330 N   0  0  0  0  0  0  0  0  0  0  0  0
   38.2700   25.0690   41.9230 C   0  0  0  0  0  0  0  0  0  0  0  0
   39.1970   24.9460   42.9300 C   0  0  0  0  0  0  0  0  0  0  0  0
   39.7080   25.9710   43.5770 N   0  0  0  0  0  0  0  0  0  0  0  0
   39.3430   27.2440   43.2870 C   0  0  0  0  0  0  0  0  0  0  0  0
   38.4320   27.3740   42.3010 N   0  0  0  0  0  0  0  0  0  0  0  0
   37.8880   26.3590   41.6160 C   0  0  0  0  0  0  0  0  0  0  0  0
   34.5930   30.4030   38.5150 H   0  0  0  0  0  0  0  0  0  0  0  0
   34.8340   30.2260   40.9190 H   0  0  0  0  0  0  0  0  0  0  0  0
   36.1440   24.5810   39.5510 H   0  0  0  0  0  0  0  0  0  0  0  0
   39.7490   28.1020   43.8080 H   0  0  0  0  0  0  0  0  0  0  0  0
   39.6650   23.6610   43.3310 N   0  0  0  0  0  0  0  0  0  0  0  0
   40.5290   23.2700   42.8750 H   0  0  0  0  0  0  0  0  0  0  0  0
   39.0790   23.2070   44.0750 H   0  0  0  0  0  0  0  0  0  0  0  0
   35.4030   28.6780   36.3270 S   0  0  0  0  0  0  0  0  0  0  0  0
   36.9600   28.6370   35.4450 C   0  0  0  0  0  2  0  0  0  0  0  0
   36.8040   28.5800   34.3620 H   0  0  0  0  0  0  0  0  0  0  0  0
  1  6  2  0  0  0  0
  1  2  1  0  0  0  0
  2  3  2  0  0  0  0
  3  4  1  0  0  0  0
  3 17  1  0  0  0  0
  5  7  1  0  0  0  0
  5  4  2  0  0  0  0
  6  5  1  0  0  0  0
  7 15  1  0  0  0  0
  8  7  1  0  0  0  0
  8  9  2  0  0  0  0
  9 10  1  0  0  0  0
 10 11  1  0  0  0  0
 11 20  1  0  0  0  0
 11 12  2  0  0  0  0
 13 12  1  0  0  0  0
 13 19  1  0  0  0  0
 14 13  2  0  0  0  0
 15 10  2  0  0  0  0
 15 14  1  0  0  0  0
 16  2  1  0  0  0  0
 18  8  1  0  0  0  0
 20 22  1  0  0  0  0
 21 20  1  0  0  0  0
 23  1  1  0  0  0  0
 24 23  1  0  0  0  0
 25 24  1  0  0  0  0
M  END
>  <minimizedAffinity>
-4.57301664

$$$$

 OpenBabel03252504233D

 25 27  0  0  0  0  0  0  0  0999 V2000
   37.6990   30.9540   39.6300 C   0  0  0  0  0  0  0  0  0  0  0  0
   37.1020   30.5890   38.4170 C   0  0  0  0  0  0  0  0  0  0  0  0
   37.1170   29.2380   38.0250 C   0  0  0  0  0  0  0  0  0  0  0  0
   37.7250   28.3470   38.8670 N   0  0  0  0  0  0  0  0  0  0  0  0
   38.2890   28.7330   40.0260 C   0  0  0  0  0  0  0  0  0  0  0  0
   38.2780   30.0280   40.4090 N   0  0  0  0  0  0  0  0  0  0  0  0
   38.9040   27.7410   40.8510 N   0  0  0  0  0  0  0  0  0  0  0  0
   40.0950   27.8300   41.4670 C   0  0  0  0  0  0  0  0  0  0  0  0
   40.3160   26.6690   42.1560 N   0  0  0  0  0  0  0  0  0  0  0  0
   39.2420   25.8900   41.9420 C   0  0  0  0  0  0  0  0  0  0  0  0
   38.8690   24.6310   42.3480 C   0  0  0  0  0  0  0  0  0  0  0  0
   37.7350   24.0610   41.9990 N   0  0  0  0  0  0  0  0  0  0  0  0
   36.8440   24.6930   41.1970 C   0  0  0  0  0  0  0  0  0  0  0  0
   37.2020   25.9290   40.7930 N   0  0  0  0  0  0  0  0  0  0  0  0
   38.3440   26.5460   41.1240 C   0  0  0  0  0  0  0  0  0  0  0  0
   36.6130   31.2670   37.7280 H   0  0  0  0  0  0  0  0  0  0  0  0
   36.6630   28.9310   37.0930 H   0  0  0  0  0  0  0  0  0  0  0  0
   40.7520   28.6880   41.4140 H   0  0  0  0  0  0  0  0  0  0  0  0
   35.9060   24.2410   40.8970 H   0  0  0  0  0  0  0  0  0  0  0  0
   39.7180   23.8620   43.1940 N   0  0  0  0  0  0  0  0  0  0  0  0
   39.5890   23.9260   44.2370 H   0  0  0  0  0  0  0  0  0  0  0  0
   40.4210   23.2780   42.6760 H   0  0  0  0  0  0  0  0  0  0  0  0
   37.6270   32.6970   40.0400 S   0  0  0  0  0  0  0  0  0  0  0  0
   39.2140   33.5060   39.8610 C   0  0  0  0  0  2  0  0  0  0  0  0
   39.1190   34.5940   39.9450 H   0  0  0  0  0  0  0  0  0  0  0  0
  1 23  1  0  0  0  0
  1  6  1  0  0  0  0
  2  1  2  0  0  0  0
  3  2  1  0  0  0  0
  3  4  2  0  0  0  0
  4  5  1  0  0  0  0
  5  6  2  0  0  0  0
  5  7  1  0  0  0  0
  7 15  1  0  0  0  0
  7  8  1  0  0  0  0
  8  9  2  0  0  0  0
 10  9  1  0  0  0  0
 10 11  1  0  0  0  0
 11 20  1  0  0  0  0
 12 11  2  0  0  0  0
 13 12  1  0  0  0  0
 14 15  1  0  0  0  0
 14 13  2  0  0  0  0
 15 10  2  0  0  0  0
 16  2  1  0  0  0  0
 17  3  1  0  0  0  0
 18  8  1  0  0  0  0
 19 13  1  0  0  0  0
 20 21  1  0  0  0  0
 22 20  1  0  0  0  0
 24 25  1  0  0  0  0
 24 23  1  0  0  0  0
M  END
>  <minimizedAffinity>
-4.50484133

$$$$
