
 OpenBabel03252507053D

 40 42  0  0  0  0  0  0  0  0999 V2000
   37.8270   27.9540   43.5780 C   0  0  0  0  0  0  0  0  0  0  0  0
   37.3180   28.4760   44.4250 H   0  0  0  0  0  0  0  0  0  0  0  0
   38.4170   27.1030   44.0060 H   0  0  0  0  0  0  0  0  0  0  0  0
   38.7710   28.8590   42.8990 C   0  0  0  0  0  0  0  0  0  0  0  0
   40.1220   28.5910   42.9070 C   0  0  0  0  0  0  0  0  0  0  0  0
   40.9750   29.4790   42.2650 C   0  0  0  0  0  0  0  0  0  0  0  0
   40.4290   30.5700   41.6560 N   0  0  0  0  0  0  0  0  0  0  0  0
   39.1160   30.7940   41.6670 C   0  0  0  0  0  0  0  0  0  0  0  0
   38.3140   29.9290   42.2920 N   0  0  0  0  0  0  0  0  0  0  0  0
   40.7220   27.7940   43.3090 H   0  0  0  0  0  0  0  0  0  0  0  0
   42.0580   29.4270   42.1740 H   0  0  0  0  0  0  0  0  0  0  0  0
   38.6210   31.9740   40.9590 C   0  0  0  0  0  0  0  0  0  0  0  0
   37.5250   31.8780   40.1050 C   0  0  0  0  0  0  0  0  0  0  0  0
   37.0630   32.9770   39.4290 C   0  0  0  0  0  0  0  0  0  0  0  0
   37.7770   34.1370   39.6790 C   0  0  0  0  0  0  0  0  0  0  0  0
   38.8740   34.2860   40.5180 C   0  0  0  0  0  0  0  0  0  0  0  0
   39.2580   33.1420   41.1440 N   0  0  0  0  0  0  0  0  0  0  0  0
   37.0230   30.9270   39.9660 H   0  0  0  0  0  0  0  0  0  0  0  0
   36.2310   32.9920   38.7570 H   0  0  0  0  0  0  0  0  0  0  0  0
   37.4660   35.0520   39.1750 H   0  0  0  0  0  0  0  0  0  0  0  0
   39.3560   35.2290   40.6430 H   0  0  0  0  0  0  0  0  0  0  0  0
   36.8610   27.4430   42.5660 C   0  0  0  0  0  0  0  0  0  0  0  0
   35.9270   27.1800   43.1100 H   0  0  0  0  0  0  0  0  0  0  0  0
   36.5520   28.3780   41.9860 H   0  0  0  0  0  0  0  0  0  0  0  0
   37.3420   26.4620   41.8140 N   0  0  0  0  0  0  0  0  0  0  0  0
   38.1290   25.3480   42.1810 C   0  0  0  0  0  0  0  0  0  0  0  0
   37.0400   24.2600   42.0860 C   0  0  0  0  0  0  0  0  0  0  0  0
   36.4980   24.1170   40.7440 C   0  0  0  0  0  0  0  0  0  0  0  0
   36.5290   25.2410   39.8330 C   0  0  0  0  0  0  0  0  0  0  0  0
   36.9750   26.5640   40.3870 C   0  0  0  0  0  0  0  0  0  0  0  0
   39.0270   25.1130   41.6370 H   0  0  0  0  0  0  0  0  0  0  0  0
   38.3680   25.3900   43.2660 H   0  0  0  0  0  0  0  0  0  0  0  0
   37.5120   23.3320   42.4790 H   0  0  0  0  0  0  0  0  0  0  0  0
   36.2780   24.5540   42.8480 H   0  0  0  0  0  0  0  0  0  0  0  0
   35.4380   23.7360   40.7930 H   0  0  0  0  0  0  0  0  0  0  0  0
   37.0440   23.2710   40.2330 H   0  0  0  0  0  0  0  0  0  0  0  0
   36.2550   25.2550   38.8100 H   0  0  0  0  0  0  0  0  0  0  0  0
   36.9840   28.0150   39.3950 S   0  0  0  0  0  0  0  0  0  0  0  0
   38.7090   28.3670   38.9710 C   0  0  0  0  0  2  0  0  0  0  0  0
   38.8840   28.2910   37.8780 H   0  0  0  0  0  0  0  0  0  0  0  0
  1  3  1  0  0  0  0
  1  2  1  0  0  0  0
  4  5  1  0  0  0  0
  4  1  1  0  0  0  0
  5 10  1  0  0  0  0
  6  5  2  0  0  0  0
  7  8  2  0  0  0  0
  7  6  1  0  0  0  0
  8  9  1  0  0  0  0
  9  4  2  0  0  0  0
 11  6  1  0  0  0  0
 12 17  1  0  0  0  0
 12  8  1  0  0  0  0
 13 12  2  0  0  0  0
 14 15  2  0  0  0  0
 14 13  1  0  0  0  0
 15 16  1  0  0  0  0
 16 21  1  0  0  0  0
 16 17  2  0  0  0  0
 18 13  1  0  0  0  0
 19 14  1  0  0  0  0
 20 15  1  0  0  0  0
 22 23  1  0  0  0  0
 22  1  1  0  0  0  0
 24 22  1  0  0  0  0
 25 26  1  0  0  0  0
 25 22  1  0  0  0  0
 26 32  1  0  0  0  0
 27 26  1  0  0  0  0
 27 33  1  0  0  0  0
 27 34  1  0  0  0  0
 28 35  1  0  0  0  0
 28 27  1  0  0  0  0
 29 30  2  0  0  0  0
 29 28  1  0  0  0  0
 30 25  1  0  0  0  0
 31 26  1  0  0  0  0
 36 28  1  0  0  0  0
 37 29  1  0  0  0  0
 38 30  1  0  0  0  0
 39 38  1  0  0  0  0
 40 39  1  0  0  0  0
M  END
>  <minimizedAffinity>
-5.33391523

$$$$

 OpenBabel03252507053D

 40 42  0  0  0  0  0  0  0  0999 V2000
   37.6620   28.3210   43.6520 C   0  0  0  0  0  0  0  0  0  0  0  0
   37.6440   28.4900   44.7570 H   0  0  0  0  0  0  0  0  0  0  0  0
   36.6020   28.2260   43.3030 H   0  0  0  0  0  0  0  0  0  0  0  0
   38.3560   27.0610   43.3300 C   0  0  0  0  0  0  0  0  0  0  0  0
   39.5610   26.7580   43.9220 C   0  0  0  0  0  0  0  0  0  0  0  0
   40.1840   25.5650   43.5790 C   0  0  0  0  0  0  0  0  0  0  0  0
   39.5660   24.7540   42.6720 N   0  0  0  0  0  0  0  0  0  0  0  0
   38.3980   25.0810   42.1220 C   0  0  0  0  0  0  0  0  0  0  0  0
   37.8170   26.2330   42.4650 N   0  0  0  0  0  0  0  0  0  0  0  0
   40.1790   27.2510   44.6520 H   0  0  0  0  0  0  0  0  0  0  0  0
   41.1300   25.1690   43.9420 H   0  0  0  0  0  0  0  0  0  0  0  0
   37.7990   24.1320   41.1860 C   0  0  0  0  0  0  0  0  0  0  0  0
   36.5000   24.3220   40.7210 C   0  0  0  0  0  0  0  0  0  0  0  0
   35.9260   23.4300   39.8520 C   0  0  0  0  0  0  0  0  0  0  0  0
   36.7470   22.3700   39.5070 C   0  0  0  0  0  0  0  0  0  0  0  0
   38.0450   22.1340   39.9400 C   0  0  0  0  0  0  0  0  0  0  0  0
   38.5270   23.0710   40.7980 N   0  0  0  0  0  0  0  0  0  0  0  0
   35.9250   25.1830   41.0440 H   0  0  0  0  0  0  0  0  0  0  0  0
   34.9390   23.5000   39.4480 H   0  0  0  0  0  0  0  0  0  0  0  0
   36.3570   21.6200   38.8180 H   0  0  0  0  0  0  0  0  0  0  0  0
   38.5960   21.2810   39.6120 H   0  0  0  0  0  0  0  0  0  0  0  0
   38.3400   29.4270   42.9220 C   0  0  0  0  0  0  0  0  0  0  0  0
   38.2670   30.3340   43.5610 H   0  0  0  0  0  0  0  0  0  0  0  0
   39.4500   29.1640   42.9940 H   0  0  0  0  0  0  0  0  0  0  0  0
   37.8960   29.6020   41.6840 N   0  0  0  0  0  0  0  0  0  0  0  0
   36.5910   29.4500   41.1650 C   0  0  0  0  0  0  0  0  0  0  0  0
   36.2350   30.9430   41.0060 C   0  0  0  0  0  0  0  0  0  0  0  0
   37.1080   31.6360   40.0730 C   0  0  0  0  0  0  0  0  0  0  0  0
   38.4520   31.1490   39.8470 C   0  0  0  0  0  0  0  0  0  0  0  0
   38.9360   30.0340   40.7280 C   0  0  0  0  0  0  0  0  0  0  0  0
   36.4230   28.8660   40.2760 H   0  0  0  0  0  0  0  0  0  0  0  0
   35.9020   29.0950   41.9620 H   0  0  0  0  0  0  0  0  0  0  0  0
   35.1620   30.9620   40.7140 H   0  0  0  0  0  0  0  0  0  0  0  0
   36.2710   31.3540   42.0440 H   0  0  0  0  0  0  0  0  0  0  0  0
   37.1730   32.7290   40.3440 H   0  0  0  0  0  0  0  0  0  0  0  0
   36.5970   31.6590   39.0660 H   0  0  0  0  0  0  0  0  0  0  0  0
   39.1570   31.4970   39.1390 H   0  0  0  0  0  0  0  0  0  0  0  0
   40.5740   29.4090   40.5960 S   0  0  0  0  0  0  0  0  0  0  0  0
   40.4480   27.6300   40.2780 C   0  0  0  0  0  2  0  0  0  0  0  0
   40.8620   27.3630   39.2830 H   0  0  0  0  0  0  0  0  0  0  0  0
  1  2  1  0  0  0  0
  3  1  1  0  0  0  0
  4  1  1  0  0  0  0
  4  5  1  0  0  0  0
  5 10  1  0  0  0  0
  6  5  2  0  0  0  0
  6 11  1  0  0  0  0
  7  6  1  0  0  0  0
  8  9  1  0  0  0  0
  8  7  2  0  0  0  0
  9  4  2  0  0  0  0
 12  8  1  0  0  0  0
 13 18  1  0  0  0  0
 13 12  2  0  0  0  0
 14 13  1  0  0  0  0
 15 14  2  0  0  0  0
 15 16  1  0  0  0  0
 16 17  2  0  0  0  0
 17 12  1  0  0  0  0
 19 14  1  0  0  0  0
 20 15  1  0  0  0  0
 21 16  1  0  0  0  0
 22 24  1  0  0  0  0
 22 23  1  0  0  0  0
 22  1  1  0  0  0  0
 25 22  1  0  0  0  0
 26 25  1  0  0  0  0
 26 32  1  0  0  0  0
 27 26  1  0  0  0  0
 27 34  1  0  0  0  0
 28 35  1  0  0  0  0
 28 27  1  0  0  0  0
 29 28  1  0  0  0  0
 29 30  2  0  0  0  0
 30 25  1  0  0  0  0
 31 26  1  0  0  0  0
 33 27  1  0  0  0  0
 36 28  1  0  0  0  0
 37 29  1  0  0  0  0
 38 30  1  0  0  0  0
 39 38  1  0  0  0  0
 40 39  1  0  0  0  0
M  END
>  <minimizedAffinity>
-5.20195293

$$$$

 OpenBabel03252507053D

 40 42  0  0  0  0  0  0  0  0999 V2000
   35.6750   30.1030   40.2790 C   0  0  0  0  0  0  0  0  0  0  0  0
   34.6650   30.1200   40.7590 H   0  0  0  0  0  0  0  0  0  0  0  0
   35.5750   30.5490   39.2560 H   0  0  0  0  0  0  0  0  0  0  0  0
   36.1530   28.7180   40.1210 C   0  0  0  0  0  0  0  0  0  0  0  0
   35.7570   27.9640   39.0390 C   0  0  0  0  0  0  0  0  0  0  0  0
   36.2230   26.6600   38.9380 C   0  0  0  0  0  0  0  0  0  0  0  0
   37.0530   26.1940   39.9160 N   0  0  0  0  0  0  0  0  0  0  0  0
   37.4160   26.9560   40.9460 C   0  0  0  0  0  0  0  0  0  0  0  0
   36.9550   28.2060   41.0260 N   0  0  0  0  0  0  0  0  0  0  0  0
   35.1380   28.1570   38.1810 H   0  0  0  0  0  0  0  0  0  0  0  0
   36.0140   25.9270   38.1610 H   0  0  0  0  0  0  0  0  0  0  0  0
   38.3340   26.3800   41.9270 C   0  0  0  0  0  0  0  0  0  0  0  0
   38.6640   25.0280   41.8790 C   0  0  0  0  0  0  0  0  0  0  0  0
   39.5150   24.4780   42.8010 C   0  0  0  0  0  0  0  0  0  0  0  0
   39.9860   25.3780   43.7430 C   0  0  0  0  0  0  0  0  0  0  0  0
   39.6900   26.7320   43.8360 C   0  0  0  0  0  0  0  0  0  0  0  0
   38.8380   27.1840   42.8780 N   0  0  0  0  0  0  0  0  0  0  0  0
   38.2480   24.3920   41.1050 H   0  0  0  0  0  0  0  0  0  0  0  0
   39.8200   23.4540   42.8370 H   0  0  0  0  0  0  0  0  0  0  0  0
   40.6690   25.0110   44.5100 H   0  0  0  0  0  0  0  0  0  0  0  0
   40.1090   27.3430   44.6040 H   0  0  0  0  0  0  0  0  0  0  0  0
   36.6880   30.8590   41.0660 C   0  0  0  0  0  0  0  0  0  0  0  0
   36.1360   31.4450   41.8330 H   0  0  0  0  0  0  0  0  0  0  0  0
   37.2030   30.0560   41.6940 H   0  0  0  0  0  0  0  0  0  0  0  0
   37.5100   31.5860   40.3200 N   0  0  0  0  0  0  0  0  0  0  0  0
   37.3070   32.1490   39.0400 C   0  0  0  0  0  0  0  0  0  0  0  0
   37.1370   33.6220   39.4640 C   0  0  0  0  0  0  0  0  0  0  0  0
   38.3200   34.1660   40.1090 C   0  0  0  0  0  0  0  0  0  0  0  0
   39.2360   33.2810   40.7950 C   0  0  0  0  0  0  0  0  0  0  0  0
   38.8210   31.8460   40.9500 C   0  0  0  0  0  0  0  0  0  0  0  0
   38.0330   32.0020   38.2600 H   0  0  0  0  0  0  0  0  0  0  0  0
   36.3030   31.8650   38.6540 H   0  0  0  0  0  0  0  0  0  0  0  0
   36.8410   34.1640   38.5390 H   0  0  0  0  0  0  0  0  0  0  0  0
   36.2290   33.6260   40.1160 H   0  0  0  0  0  0  0  0  0  0  0  0
   38.0290   34.9890   40.8230 H   0  0  0  0  0  0  0  0  0  0  0  0
   38.9240   34.7150   39.3280 H   0  0  0  0  0  0  0  0  0  0  0  0
   40.1720   33.5230   41.2270 H   0  0  0  0  0  0  0  0  0  0  0  0
   39.8170   30.6940   41.8280 S   0  0  0  0  0  0  0  0  0  0  0  0
   40.3950   29.4610   40.6340 C   0  0  0  0  0  2  0  0  0  0  0  0
   41.4990   29.4860   40.5250 H   0  0  0  0  0  0  0  0  0  0  0  0
  1  2  1  0  0  0  0
  1 22  1  0  0  0  0
  3  1  1  0  0  0  0
  4  1  1  0  0  0  0
  4  9  1  0  0  0  0
  5  4  2  0  0  0  0
  6  5  1  0  0  0  0
  6  7  2  0  0  0  0
  7  8  1  0  0  0  0
  8  9  2  0  0  0  0
  8 12  1  0  0  0  0
 10  5  1  0  0  0  0
 11  6  1  0  0  0  0
 12 17  1  0  0  0  0
 13 12  2  0  0  0  0
 13 14  1  0  0  0  0
 14 19  1  0  0  0  0
 14 15  2  0  0  0  0
 15 16  1  0  0  0  0
 15 20  1  0  0  0  0
 16 21  1  0  0  0  0
 17 16  2  0  0  0  0
 18 13  1  0  0  0  0
 22 24  1  0  0  0  0
 22 23  1  0  0  0  0
 25 30  1  0  0  0  0
 25 22  1  0  0  0  0
 26 27  1  0  0  0  0
 26 25  1  0  0  0  0
 27 28  1  0  0  0  0
 27 34  1  0  0  0  0
 28 29  1  0  0  0  0
 28 35  1  0  0  0  0
 29 30  2  0  0  0  0
 29 37  1  0  0  0  0
 30 38  1  0  0  0  0
 31 26  1  0  0  0  0
 32 26  1  0  0  0  0
 33 27  1  0  0  0  0
 36 28  1  0  0  0  0
 39 38  1  0  0  0  0
 40 39  1  0  0  0  0
M  END
>  <minimizedAffinity>
-5.18340683

$$$$

 OpenBabel03252507053D

 40 42  0  0  0  0  0  0  0  0999 V2000
   37.2720   27.9010   42.9820 C   0  0  0  0  0  0  0  0  0  0  0  0
   36.4910   27.1060   43.0750 H   0  0  0  0  0  0  0  0  0  0  0  0
   37.3190   28.4500   43.9570 H   0  0  0  0  0  0  0  0  0  0  0  0
   36.9050   28.8720   41.9370 C   0  0  0  0  0  0  0  0  0  0  0  0
   35.7850   28.6710   41.1610 C   0  0  0  0  0  0  0  0  0  0  0  0
   35.4850   29.6070   40.1800 C   0  0  0  0  0  0  0  0  0  0  0  0
   36.3150   30.6800   40.0380 N   0  0  0  0  0  0  0  0  0  0  0  0
   37.3870   30.8420   40.8110 C   0  0  0  0  0  0  0  0  0  0  0  0
   37.6590   29.9300   41.7470 N   0  0  0  0  0  0  0  0  0  0  0  0
   35.0210   27.9140   41.1360 H   0  0  0  0  0  0  0  0  0  0  0  0
   34.6510   29.6070   39.4810 H   0  0  0  0  0  0  0  0  0  0  0  0
   38.1980   32.0410   40.6060 C   0  0  0  0  0  0  0  0  0  0  0  0
   37.6050   33.2360   40.2070 C   0  0  0  0  0  0  0  0  0  0  0  0
   38.3600   34.3620   40.0010 C   0  0  0  0  0  0  0  0  0  0  0  0
   39.7150   34.1820   40.2240 C   0  0  0  0  0  0  0  0  0  0  0  0
   40.3560   33.0160   40.6210 C   0  0  0  0  0  0  0  0  0  0  0  0
   39.5250   31.9550   40.8000 N   0  0  0  0  0  0  0  0  0  0  0  0
   36.5330   33.2890   40.0540 H   0  0  0  0  0  0  0  0  0  0  0  0
   37.9860   35.3160   39.6960 H   0  0  0  0  0  0  0  0  0  0  0  0
   40.3780   35.0360   40.0800 H   0  0  0  0  0  0  0  0  0  0  0  0
   41.4120   32.9820   40.7670 H   0  0  0  0  0  0  0  0  0  0  0  0
   38.6110   27.3420   42.6490 C   0  0  0  0  0  0  0  0  0  0  0  0
   39.1830   28.1450   42.1350 H   0  0  0  0  0  0  0  0  0  0  0  0
   39.1390   27.2740   43.6610 H   0  0  0  0  0  0  0  0  0  0  0  0
   38.5620   26.1990   41.9760 N   0  0  0  0  0  0  0  0  0  0  0  0
   38.4450   24.8760   42.4560 C   0  0  0  0  0  0  0  0  0  0  0  0
   36.9720   24.6260   42.0740 C   0  0  0  0  0  0  0  0  0  0  0  0
   36.7370   24.7020   40.6410 C   0  0  0  0  0  0  0  0  0  0  0  0
   37.6090   25.5050   39.8110 C   0  0  0  0  0  0  0  0  0  0  0  0
   38.6250   26.3630   40.5100 C   0  0  0  0  0  0  0  0  0  0  0  0
   39.1190   24.1110   42.1110 H   0  0  0  0  0  0  0  0  0  0  0  0
   38.4360   24.8710   43.5680 H   0  0  0  0  0  0  0  0  0  0  0  0
   36.7140   23.6390   42.5180 H   0  0  0  0  0  0  0  0  0  0  0  0
   36.3940   25.3790   42.6630 H   0  0  0  0  0  0  0  0  0  0  0  0
   35.6740   25.0190   40.4390 H   0  0  0  0  0  0  0  0  0  0  0  0
   36.7680   23.6530   40.2240 H   0  0  0  0  0  0  0  0  0  0  0  0
   37.6120   25.5810   38.7550 H   0  0  0  0  0  0  0  0  0  0  0  0
   39.6900   27.4350   39.6120 S   0  0  0  0  0  0  0  0  0  0  0  0
   38.6640   28.3470   38.4300 C   0  0  0  0  0  2  0  0  0  0  0  0
   38.6650   29.4360   38.6450 H   0  0  0  0  0  0  0  0  0  0  0  0
  1  2  1  0  0  0  0
  1  3  1  0  0  0  0
  4  1  1  0  0  0  0
  5  4  2  0  0  0  0
  6  5  1  0  0  0  0
  7  6  2  0  0  0  0
  7  8  1  0  0  0  0
  8  9  2  0  0  0  0
  9  4  1  0  0  0  0
 10  5  1  0  0  0  0
 11  6  1  0  0  0  0
 12 17  1  0  0  0  0
 12  8  1  0  0  0  0
 13 12  2  0  0  0  0
 14 13  1  0  0  0  0
 14 15  2  0  0  0  0
 15 16  1  0  0  0  0
 16 21  1  0  0  0  0
 16 17  2  0  0  0  0
 18 13  1  0  0  0  0
 19 14  1  0  0  0  0
 20 15  1  0  0  0  0
 22  1  1  0  0  0  0
 22 24  1  0  0  0  0
 23 22  1  0  0  0  0
 25 26  1  0  0  0  0
 25 22  1  0  0  0  0
 26 32  1  0  0  0  0
 27 26  1  0  0  0  0
 27 33  1  0  0  0  0
 27 34  1  0  0  0  0
 28 27  1  0  0  0  0
 29 30  2  0  0  0  0
 29 28  1  0  0  0  0
 30 25  1  0  0  0  0
 31 26  1  0  0  0  0
 35 28  1  0  0  0  0
 36 28  1  0  0  0  0
 37 29  1  0  0  0  0
 38 30  1  0  0  0  0
 39 40  1  0  0  0  0
 39 38  1  0  0  0  0
M  END
>  <minimizedAffinity>
-5.17773008

$$$$

 OpenBabel03252507053D

 40 42  0  0  0  0  0  0  0  0999 V2000
   37.4460   27.8980   39.7950 C   0  0  0  0  0  0  0  0  0  0  0  0
   37.3590   27.6160   38.7160 H   0  0  0  0  0  0  0  0  0  0  0  0
   36.5570   27.4760   40.3310 H   0  0  0  0  0  0  0  0  0  0  0  0
   37.4130   29.3630   39.9540 C   0  0  0  0  0  0  0  0  0  0  0  0
   36.3500   29.9710   40.5820 C   0  0  0  0  0  0  0  0  0  0  0  0
   36.3560   31.3550   40.6990 C   0  0  0  0  0  0  0  0  0  0  0  0
   37.4190   32.0400   40.1860 N   0  0  0  0  0  0  0  0  0  0  0  0
   38.4300   31.4150   39.5880 C   0  0  0  0  0  0  0  0  0  0  0  0
   38.4040   30.0840   39.4850 N   0  0  0  0  0  0  0  0  0  0  0  0
   35.4530   29.6080   41.0530 H   0  0  0  0  0  0  0  0  0  0  0  0
   35.6060   31.9970   41.1580 H   0  0  0  0  0  0  0  0  0  0  0  0
   39.5410   32.2310   39.0990 C   0  0  0  0  0  0  0  0  0  0  0  0
   39.9270   33.3820   39.7820 C   0  0  0  0  0  0  0  0  0  0  0  0
   40.9580   34.1590   39.3240 C   0  0  0  0  0  0  0  0  0  0  0  0
   41.5440   33.6910   38.1600 C   0  0  0  0  0  0  0  0  0  0  0  0
   41.1990   32.5550   37.4410 C   0  0  0  0  0  0  0  0  0  0  0  0
   40.1650   31.8500   37.9730 N   0  0  0  0  0  0  0  0  0  0  0  0
   39.4110   33.6760   40.6900 H   0  0  0  0  0  0  0  0  0  0  0  0
   41.3180   35.0540   39.7860 H   0  0  0  0  0  0  0  0  0  0  0  0
   42.3730   34.2600   37.7360 H   0  0  0  0  0  0  0  0  0  0  0  0
   41.7170   32.2800   36.5490 H   0  0  0  0  0  0  0  0  0  0  0  0
   38.7010   27.3890   40.4130 C   0  0  0  0  0  0  0  0  0  0  0  0
   38.9750   26.4550   39.8760 H   0  0  0  0  0  0  0  0  0  0  0  0
   39.5010   28.1230   40.0530 H   0  0  0  0  0  0  0  0  0  0  0  0
   38.6310   27.2540   41.7310 N   0  0  0  0  0  0  0  0  0  0  0  0
   39.4410   27.8220   42.7400 C   0  0  0  0  0  0  0  0  0  0  0  0
   38.4440   28.8770   43.2620 C   0  0  0  0  0  0  0  0  0  0  0  0
   37.2340   28.2890   43.8120 C   0  0  0  0  0  0  0  0  0  0  0  0
   36.7900   26.9920   43.3490 C   0  0  0  0  0  0  0  0  0  0  0  0
   37.5260   26.3870   42.1880 C   0  0  0  0  0  0  0  0  0  0  0  0
   39.8630   27.2030   43.5120 H   0  0  0  0  0  0  0  0  0  0  0  0
   40.2530   28.4270   42.2810 H   0  0  0  0  0  0  0  0  0  0  0  0
   39.0170   29.4890   43.9940 H   0  0  0  0  0  0  0  0  0  0  0  0
   38.2590   29.5490   42.3890 H   0  0  0  0  0  0  0  0  0  0  0  0
   36.3720   29.0090   43.7090 H   0  0  0  0  0  0  0  0  0  0  0  0
   37.3590   28.2090   44.9320 H   0  0  0  0  0  0  0  0  0  0  0  0
   35.9870   26.4100   43.7210 H   0  0  0  0  0  0  0  0  0  0  0  0
   37.0320   24.8500   41.4930 S   0  0  0  0  0  0  0  0  0  0  0  0
   38.5100   23.8070   41.3880 C   0  0  0  0  0  2  0  0  0  0  0  0
   38.4220   22.9090   42.0330 H   0  0  0  0  0  0  0  0  0  0  0  0
  1  4  1  0  0  0  0
  1  3  1  0  0  0  0
  1 22  1  0  0  0  0
  2  1  1  0  0  0  0
  4  5  1  0  0  0  0
  5  6  2  0  0  0  0
  5 10  1  0  0  0  0
  6 11  1  0  0  0  0
  7  6  1  0  0  0  0
  8  7  2  0  0  0  0
  9  8  1  0  0  0  0
  9  4  2  0  0  0  0
 12  8  1  0  0  0  0
 12 13  1  0  0  0  0
 13 18  1  0  0  0  0
 14 13  2  0  0  0  0
 14 19  1  0  0  0  0
 15 14  1  0  0  0  0
 16 17  1  0  0  0  0
 16 15  2  0  0  0  0
 17 12  2  0  0  0  0
 20 15  1  0  0  0  0
 21 16  1  0  0  0  0
 22 25  1  0  0  0  0
 23 22  1  0  0  0  0
 24 22  1  0  0  0  0
 25 30  1  0  0  0  0
 25 26  1  0  0  0  0
 26 27  1  0  0  0  0
 26 31  1  0  0  0  0
 27 28  1  0  0  0  0
 27 33  1  0  0  0  0
 28 36  1  0  0  0  0
 29 37  1  0  0  0  0
 29 28  1  0  0  0  0
 30 29  2  0  0  0  0
 32 26  1  0  0  0  0
 34 27  1  0  0  0  0
 35 28  1  0  0  0  0
 38 30  1  0  0  0  0
 39 38  1  0  0  0  0
 39 40  1  0  0  0  0
M  END
>  <minimizedAffinity>
-5.16233206

$$$$

 OpenBabel03252507053D

 40 42  0  0  0  0  0  0  0  0999 V2000
   36.7030   28.0060   42.7540 C   0  0  0  0  0  0  0  0  0  0  0  0
   35.7150   27.8550   43.2560 H   0  0  0  0  0  0  0  0  0  0  0  0
   37.4000   28.4650   43.5010 H   0  0  0  0  0  0  0  0  0  0  0  0
   36.5740   28.9420   41.6230 C   0  0  0  0  0  0  0  0  0  0  0  0
   35.6330   28.7260   40.6430 C   0  0  0  0  0  0  0  0  0  0  0  0
   35.5560   29.6280   39.5900 C   0  0  0  0  0  0  0  0  0  0  0  0
   36.4180   30.6850   39.5840 N   0  0  0  0  0  0  0  0  0  0  0  0
   37.3140   30.8630   40.5530 C   0  0  0  0  0  0  0  0  0  0  0  0
   37.3720   29.9830   41.5550 N   0  0  0  0  0  0  0  0  0  0  0  0
   34.8750   27.9780   40.4880 H   0  0  0  0  0  0  0  0  0  0  0  0
   34.8820   29.6130   38.7360 H   0  0  0  0  0  0  0  0  0  0  0  0
   38.1720   32.0440   40.4770 C   0  0  0  0  0  0  0  0  0  0  0  0
   37.6390   33.2860   40.1450 C   0  0  0  0  0  0  0  0  0  0  0  0
   38.4390   34.3960   40.0600 C   0  0  0  0  0  0  0  0  0  0  0  0
   39.7750   34.1510   40.3300 C   0  0  0  0  0  0  0  0  0  0  0  0
   40.3570   32.9360   40.6650 C   0  0  0  0  0  0  0  0  0  0  0  0
   39.4850   31.8950   40.7240 N   0  0  0  0  0  0  0  0  0  0  0  0
   36.5770   33.3890   39.9480 H   0  0  0  0  0  0  0  0  0  0  0  0
   38.1120   35.3840   39.8120 H   0  0  0  0  0  0  0  0  0  0  0  0
   40.4720   34.9890   40.2810 H   0  0  0  0  0  0  0  0  0  0  0  0
   41.4040   32.8530   40.8560 H   0  0  0  0  0  0  0  0  0  0  0  0
   37.2770   26.7310   42.2410 C   0  0  0  0  0  0  0  0  0  0  0  0
   36.7990   25.9040   42.8120 H   0  0  0  0  0  0  0  0  0  0  0  0
   36.8080   26.6170   41.2050 H   0  0  0  0  0  0  0  0  0  0  0  0
   38.6030   26.6990   42.2520 N   0  0  0  0  0  0  0  0  0  0  0  0
   39.5090   27.2090   43.2080 C   0  0  0  0  0  0  0  0  0  0  0  0
   39.9350   25.8730   43.8520 C   0  0  0  0  0  0  0  0  0  0  0  0
   40.5910   24.9770   42.9140 C   0  0  0  0  0  0  0  0  0  0  0  0
   40.3020   25.0790   41.5000 C   0  0  0  0  0  0  0  0  0  0  0  0
   39.1970   26.0090   41.0890 C   0  0  0  0  0  0  0  0  0  0  0  0
   40.3350   27.8260   42.9000 H   0  0  0  0  0  0  0  0  0  0  0  0
   38.9550   27.7300   44.0190 H   0  0  0  0  0  0  0  0  0  0  0  0
   40.5690   26.1530   44.7220 H   0  0  0  0  0  0  0  0  0  0  0  0
   38.9940   25.4560   44.2870 H   0  0  0  0  0  0  0  0  0  0  0  0
   40.4320   23.9050   43.2270 H   0  0  0  0  0  0  0  0  0  0  0  0
   41.7070   25.1060   43.0270 H   0  0  0  0  0  0  0  0  0  0  0  0
   40.7660   24.5580   40.7030 H   0  0  0  0  0  0  0  0  0  0  0  0
   38.7070   26.1610   39.4070 S   0  0  0  0  0  0  0  0  0  0  0  0
   38.9040   27.9010   38.9440 C   0  0  0  0  0  2  0  0  0  0  0  0
   39.6710   28.0280   38.1520 H   0  0  0  0  0  0  0  0  0  0  0  0
  1  2  1  0  0  0  0
  1  3  1  0  0  0  0
  4  1  1  0  0  0  0
  5  4  2  0  0  0  0
  6  5  1  0  0  0  0
  7  6  2  0  0  0  0
  7  8  1  0  0  0  0
  8  9  2  0  0  0  0
  9  4  1  0  0  0  0
 10  5  1  0  0  0  0
 11  6  1  0  0  0  0
 12  8  1  0  0  0  0
 12 17  1  0  0  0  0
 13 12  2  0  0  0  0
 14 13  1  0  0  0  0
 14 15  2  0  0  0  0
 15 16  1  0  0  0  0
 16 17  2  0  0  0  0
 16 21  1  0  0  0  0
 18 13  1  0  0  0  0
 19 14  1  0  0  0  0
 20 15  1  0  0  0  0
 22 25  1  0  0  0  0
 22  1  1  0  0  0  0
 22 23  1  0  0  0  0
 24 22  1  0  0  0  0
 25 26  1  0  0  0  0
 26 27  1  0  0  0  0
 26 32  1  0  0  0  0
 27 34  1  0  0  0  0
 27 33  1  0  0  0  0
 28 36  1  0  0  0  0
 28 35  1  0  0  0  0
 28 27  1  0  0  0  0
 29 28  1  0  0  0  0
 30 29  2  0  0  0  0
 30 25  1  0  0  0  0
 31 26  1  0  0  0  0
 37 29  1  0  0  0  0
 38 30  1  0  0  0  0
 39 38  1  0  0  0  0
 40 39  1  0  0  0  0
M  END
>  <minimizedAffinity>
-5.12926912

$$$$

 OpenBabel03252507053D

 40 42  0  0  0  0  0  0  0  0999 V2000
   39.6390   29.3290   41.4600 C   0  0  0  0  0  0  0  0  0  0  0  0
   40.6760   29.6810   41.2340 H   0  0  0  0  0  0  0  0  0  0  0  0
   39.5420   28.2820   41.0730 H   0  0  0  0  0  0  0  0  0  0  0  0
   38.6420   30.1600   40.7630 C   0  0  0  0  0  0  0  0  0  0  0  0
   38.5850   31.5170   40.9910 C   0  0  0  0  0  0  0  0  0  0  0  0
   37.6210   32.2590   40.3200 C   0  0  0  0  0  0  0  0  0  0  0  0
   36.7810   31.6030   39.4680 N   0  0  0  0  0  0  0  0  0  0  0  0
   36.8700   30.2890   39.2720 C   0  0  0  0  0  0  0  0  0  0  0  0
   37.8020   29.5940   39.9280 N   0  0  0  0  0  0  0  0  0  0  0  0
   39.1570   32.1970   41.5970 H   0  0  0  0  0  0  0  0  0  0  0  0
   37.4320   33.3290   40.3790 H   0  0  0  0  0  0  0  0  0  0  0  0
   35.9470   29.6810   38.3150 C   0  0  0  0  0  0  0  0  0  0  0  0
   34.7700   29.0780   38.7510 C   0  0  0  0  0  0  0  0  0  0  0  0
   33.9060   28.4960   37.8610 C   0  0  0  0  0  0  0  0  0  0  0  0
   34.3190   28.5710   36.5410 C   0  0  0  0  0  0  0  0  0  0  0  0
   35.4790   29.1580   36.0540 C   0  0  0  0  0  0  0  0  0  0  0  0
   36.2710   29.7090   37.0110 N   0  0  0  0  0  0  0  0  0  0  0  0
   34.5240   29.0640   39.8070 H   0  0  0  0  0  0  0  0  0  0  0  0
   32.9840   28.0130   38.1100 H   0  0  0  0  0  0  0  0  0  0  0  0
   33.6800   28.1280   35.7760 H   0  0  0  0  0  0  0  0  0  0  0  0
   35.7060   29.1630   35.0110 H   0  0  0  0  0  0  0  0  0  0  0  0
   39.3360   29.3610   42.9180 C   0  0  0  0  0  0  0  0  0  0  0  0
   40.3030   29.5030   43.4500 H   0  0  0  0  0  0  0  0  0  0  0  0
   38.8220   30.3700   43.0690 H   0  0  0  0  0  0  0  0  0  0  0  0
   38.6360   28.3170   43.3420 N   0  0  0  0  0  0  0  0  0  0  0  0
   37.3040   28.2550   43.8090 C   0  0  0  0  0  0  0  0  0  0  0  0
   36.6600   27.5960   42.5720 C   0  0  0  0  0  0  0  0  0  0  0  0
   37.1940   26.2730   42.2930 C   0  0  0  0  0  0  0  0  0  0  0  0
   38.5340   25.9330   42.7220 C   0  0  0  0  0  0  0  0  0  0  0  0
   39.3740   27.0380   43.2940 C   0  0  0  0  0  0  0  0  0  0  0  0
   37.0750   27.7580   44.7350 H   0  0  0  0  0  0  0  0  0  0  0  0
   36.8590   29.2740   43.8300 H   0  0  0  0  0  0  0  0  0  0  0  0
   35.5650   27.6040   42.7680 H   0  0  0  0  0  0  0  0  0  0  0  0
   36.8220   28.3280   41.7440 H   0  0  0  0  0  0  0  0  0  0  0  0
   37.1120   26.0470   41.1910 H   0  0  0  0  0  0  0  0  0  0  0  0
   36.5020   25.5100   42.7570 H   0  0  0  0  0  0  0  0  0  0  0  0
   39.0130   24.9910   42.6670 H   0  0  0  0  0  0  0  0  0  0  0  0
   41.0400   26.7630   43.7810 S   0  0  0  0  0  0  0  0  0  0  0  0
   41.5950   25.2430   42.9670 C   0  0  0  0  0  2  0  0  0  0  0  0
   42.4220   25.4400   42.2540 H   0  0  0  0  0  0  0  0  0  0  0  0
  1 22  1  0  0  0  0
  2  1  1  0  0  0  0
  3  1  1  0  0  0  0
  4  5  1  0  0  0  0
  4  1  1  0  0  0  0
  5 10  1  0  0  0  0
  6 11  1  0  0  0  0
  6  5  2  0  0  0  0
  7  6  1  0  0  0  0
  8  7  2  0  0  0  0
  8  9  1  0  0  0  0
  9  4  2  0  0  0  0
 12 13  1  0  0  0  0
 12  8  1  0  0  0  0
 13 18  1  0  0  0  0
 14 19  1  0  0  0  0
 14 13  2  0  0  0  0
 15 14  1  0  0  0  0
 16 15  2  0  0  0  0
 16 17  1  0  0  0  0
 17 12  2  0  0  0  0
 20 15  1  0  0  0  0
 21 16  1  0  0  0  0
 22 24  1  0  0  0  0
 22 25  1  0  0  0  0
 22 23  1  0  0  0  0
 25 26  1  0  0  0  0
 26 32  1  0  0  0  0
 26 31  1  0  0  0  0
 27 33  1  0  0  0  0
 27 26  1  0  0  0  0
 28 27  1  0  0  0  0
 28 29  1  0  0  0  0
 28 36  1  0  0  0  0
 29 30  2  0  0  0  0
 30 25  1  0  0  0  0
 30 38  1  0  0  0  0
 34 27  1  0  0  0  0
 35 28  1  0  0  0  0
 37 29  1  0  0  0  0
 39 38  1  0  0  0  0
 40 39  1  0  0  0  0
M  END
>  <minimizedAffinity>
-5.10093689

$$$$

 OpenBabel03252507053D

 40 42  0  0  0  0  0  0  0  0999 V2000
   39.0160   30.3310   41.9760 C   0  0  0  0  0  0  0  0  0  0  0  0
   39.8680   30.4950   42.6820 H   0  0  0  0  0  0  0  0  0  0  0  0
   38.3480   31.2290   42.0310 H   0  0  0  0  0  0  0  0  0  0  0  0
   38.2240   29.1560   42.3790 C   0  0  0  0  0  0  0  0  0  0  0  0
   37.7940   29.0190   43.6800 C   0  0  0  0  0  0  0  0  0  0  0  0
   37.0600   27.8890   44.0170 C   0  0  0  0  0  0  0  0  0  0  0  0
   36.8020   26.9730   43.0390 N   0  0  0  0  0  0  0  0  0  0  0  0
   37.2340   27.1420   41.7910 C   0  0  0  0  0  0  0  0  0  0  0  0
   37.9380   28.2350   41.4880 N   0  0  0  0  0  0  0  0  0  0  0  0
   37.8820   29.6270   44.5630 H   0  0  0  0  0  0  0  0  0  0  0  0
   36.6460   27.6180   44.9860 H   0  0  0  0  0  0  0  0  0  0  0  0
   36.8790   26.1220   40.8050 C   0  0  0  0  0  0  0  0  0  0  0  0
   36.8580   24.7750   41.1570 C   0  0  0  0  0  0  0  0  0  0  0  0
   36.5380   23.8120   40.2360 C   0  0  0  0  0  0  0  0  0  0  0  0
   36.2530   24.3090   38.9750 C   0  0  0  0  0  0  0  0  0  0  0  0
   36.2590   25.6380   38.5720 C   0  0  0  0  0  0  0  0  0  0  0  0
   36.5880   26.5180   39.5550 N   0  0  0  0  0  0  0  0  0  0  0  0
   37.0970   24.4730   42.1710 H   0  0  0  0  0  0  0  0  0  0  0  0
   36.4990   22.7600   40.4210 H   0  0  0  0  0  0  0  0  0  0  0  0
   35.9890   23.6000   38.1900 H   0  0  0  0  0  0  0  0  0  0  0  0
   36.0220   25.9180   37.5710 H   0  0  0  0  0  0  0  0  0  0  0  0
   39.4750   30.1250   40.5740 C   0  0  0  0  0  0  0  0  0  0  0  0
   40.5750   29.9630   40.6110 H   0  0  0  0  0  0  0  0  0  0  0  0
   39.0820   29.0860   40.3060 H   0  0  0  0  0  0  0  0  0  0  0  0
   39.0990   31.0880   39.7420 N   0  0  0  0  0  0  0  0  0  0  0  0
   38.1540   31.0530   38.6920 C   0  0  0  0  0  0  0  0  0  0  0  0
   37.0230   31.8450   39.3800 C   0  0  0  0  0  0  0  0  0  0  0  0
   37.4070   33.2070   39.7130 C   0  0  0  0  0  0  0  0  0  0  0  0
   38.8000   33.5270   39.9380 C   0  0  0  0  0  0  0  0  0  0  0  0
   39.7710   32.3820   39.9770 C   0  0  0  0  0  0  0  0  0  0  0  0
   38.4130   31.4240   37.7160 H   0  0  0  0  0  0  0  0  0  0  0  0
   37.7370   30.0280   38.5880 H   0  0  0  0  0  0  0  0  0  0  0  0
   36.1540   31.7810   38.6870 H   0  0  0  0  0  0  0  0  0  0  0  0
   36.7440   31.2270   40.2680 H   0  0  0  0  0  0  0  0  0  0  0  0
   36.8180   33.5680   40.6050 H   0  0  0  0  0  0  0  0  0  0  0  0
   37.0470   33.8860   38.8850 H   0  0  0  0  0  0  0  0  0  0  0  0
   39.2290   34.4810   40.0980 H   0  0  0  0  0  0  0  0  0  0  0  0
   41.4770   32.6400   40.3150 S   0  0  0  0  0  0  0  0  0  0  0  0
   41.7090   34.4160   40.5880 C   0  0  0  0  0  2  0  0  0  0  0  0
   42.0440   34.6290   41.6240 H   0  0  0  0  0  0  0  0  0  0  0  0
  1  3  1  0  0  0  0
  1  4  1  0  0  0  0
  1  2  1  0  0  0  0
  4  5  1  0  0  0  0
  5  6  2  0  0  0  0
  5 10  1  0  0  0  0
  6 11  1  0  0  0  0
  7  6  1  0  0  0  0
  8  7  2  0  0  0  0
  9  8  1  0  0  0  0
  9  4  2  0  0  0  0
 12 13  1  0  0  0  0
 12  8  1  0  0  0  0
 13 18  1  0  0  0  0
 14 19  1  0  0  0  0
 14 13  2  0  0  0  0
 15 14  1  0  0  0  0
 16 15  2  0  0  0  0
 16 17  1  0  0  0  0
 17 12  2  0  0  0  0
 20 15  1  0  0  0  0
 21 16  1  0  0  0  0
 22 23  1  0  0  0  0
 22  1  1  0  0  0  0
 24 22  1  0  0  0  0
 25 30  1  0  0  0  0
 25 22  1  0  0  0  0
 26 27  1  0  0  0  0
 26 25  1  0  0  0  0
 27 28  1  0  0  0  0
 27 34  1  0  0  0  0
 28 29  1  0  0  0  0
 28 35  1  0  0  0  0
 29 30  2  0  0  0  0
 29 37  1  0  0  0  0
 30 38  1  0  0  0  0
 31 26  1  0  0  0  0
 32 26  1  0  0  0  0
 33 27  1  0  0  0  0
 36 28  1  0  0  0  0
 38 39  1  0  0  0  0
 39 40  1  0  0  0  0
M  END
>  <minimizedAffinity>
-5.08247662

$$$$

 OpenBabel03252507053D

 40 42  0  0  0  0  0  0  0  0999 V2000
   37.7880   31.5480   38.6890 C   0  0  0  0  0  0  0  0  0  0  0  0
   37.9680   31.4340   37.5910 H   0  0  0  0  0  0  0  0  0  0  0  0
   36.7010   31.7790   38.8340 H   0  0  0  0  0  0  0  0  0  0  0  0
   38.5630   32.6780   39.2300 C   0  0  0  0  0  0  0  0  0  0  0  0
   37.9370   33.6720   39.9490 C   0  0  0  0  0  0  0  0  0  0  0  0
   38.7060   34.7240   40.4290 C   0  0  0  0  0  0  0  0  0  0  0  0
   40.0450   34.7160   40.1640 N   0  0  0  0  0  0  0  0  0  0  0  0
   40.6140   33.7350   39.4670 C   0  0  0  0  0  0  0  0  0  0  0  0
   39.8570   32.7340   39.0130 N   0  0  0  0  0  0  0  0  0  0  0  0
   36.9230   33.8380   40.2650 H   0  0  0  0  0  0  0  0  0  0  0  0
   38.3830   35.5860   41.0080 H   0  0  0  0  0  0  0  0  0  0  0  0
   42.0610   33.7980   39.2620 C   0  0  0  0  0  0  0  0  0  0  0  0
   42.9240   33.9260   40.3480 C   0  0  0  0  0  0  0  0  0  0  0  0
   44.2800   33.9970   40.1640 C   0  0  0  0  0  0  0  0  0  0  0  0
   44.6740   33.9300   38.8380 C   0  0  0  0  0  0  0  0  0  0  0  0
   43.8580   33.8030   37.7220 C   0  0  0  0  0  0  0  0  0  0  0  0
   42.5300   33.7410   38.0050 N   0  0  0  0  0  0  0  0  0  0  0  0
   42.5280   33.9710   41.3570 H   0  0  0  0  0  0  0  0  0  0  0  0
   45.0110   34.0950   40.9380 H   0  0  0  0  0  0  0  0  0  0  0  0
   45.7410   33.9810   38.6150 H   0  0  0  0  0  0  0  0  0  0  0  0
   44.2640   33.7600   36.7360 H   0  0  0  0  0  0  0  0  0  0  0  0
   38.1530   30.3230   39.4520 C   0  0  0  0  0  0  0  0  0  0  0  0
   38.0520   29.4620   38.7560 H   0  0  0  0  0  0  0  0  0  0  0  0
   39.2860   30.4060   39.5770 H   0  0  0  0  0  0  0  0  0  0  0  0
   37.4830   30.1810   40.5880 N   0  0  0  0  0  0  0  0  0  0  0  0
   36.0920   30.2460   40.8280 C   0  0  0  0  0  0  0  0  0  0  0  0
   35.8250   28.7390   41.0220 C   0  0  0  0  0  0  0  0  0  0  0  0
   36.5410   28.1790   42.1570 C   0  0  0  0  0  0  0  0  0  0  0  0
   37.7710   28.7950   42.6060 C   0  0  0  0  0  0  0  0  0  0  0  0
   38.3370   29.8970   41.7580 C   0  0  0  0  0  0  0  0  0  0  0  0
   35.7050   30.8620   41.6200 H   0  0  0  0  0  0  0  0  0  0  0  0
   35.5530   30.4920   39.8860 H   0  0  0  0  0  0  0  0  0  0  0  0
   34.7190   28.6420   41.0980 H   0  0  0  0  0  0  0  0  0  0  0  0
   36.1010   28.2740   40.0450 H   0  0  0  0  0  0  0  0  0  0  0  0
   36.7420   27.0830   41.9850 H   0  0  0  0  0  0  0  0  0  0  0  0
   35.8410   28.1690   43.0440 H   0  0  0  0  0  0  0  0  0  0  0  0
   38.3430   28.5520   43.4630 H   0  0  0  0  0  0  0  0  0  0  0  0
   39.8640   30.6710   42.1640 S   0  0  0  0  0  0  0  0  0  0  0  0
   41.0210   29.3620   42.6400 C   0  0  0  0  0  2  0  0  0  0  0  0
   41.8790   29.3000   41.9380 H   0  0  0  0  0  0  0  0  0  0  0  0
  1  3  1  0  0  0  0
  1  4  1  0  0  0  0
  1 22  1  0  0  0  0
  2  1  1  0  0  0  0
  4  5  1  0  0  0  0
  5 10  1  0  0  0  0
  5  6  2  0  0  0  0
  6 11  1  0  0  0  0
  7  6  1  0  0  0  0
  8  7  2  0  0  0  0
  9  4  2  0  0  0  0
  9  8  1  0  0  0  0
 12  8  1  0  0  0  0
 12 13  1  0  0  0  0
 13 18  1  0  0  0  0
 14 13  2  0  0  0  0
 14 19  1  0  0  0  0
 15 14  1  0  0  0  0
 16 17  1  0  0  0  0
 16 15  2  0  0  0  0
 17 12  2  0  0  0  0
 20 15  1  0  0  0  0
 21 16  1  0  0  0  0
 22 24  1  0  0  0  0
 22 25  1  0  0  0  0
 23 22  1  0  0  0  0
 25 26  1  0  0  0  0
 25 30  1  0  0  0  0
 26 27  1  0  0  0  0
 26 31  1  0  0  0  0
 27 33  1  0  0  0  0
 27 28  1  0  0  0  0
 28 29  1  0  0  0  0
 28 36  1  0  0  0  0
 29 37  1  0  0  0  0
 30 38  1  0  0  0  0
 30 29  2  0  0  0  0
 32 26  1  0  0  0  0
 34 27  1  0  0  0  0
 35 28  1  0  0  0  0
 38 39  1  0  0  0  0
 40 39  1  0  0  0  0
M  END
>  <minimizedAffinity>
-5.06248951

$$$$
