
 OpenBabel03252509013D

 38 39  0  0  1  0  0  0  0  0999 V2000
   37.7870   26.9550   42.7100 N   0  0  0  0  0  0  0  0  0  0  0  0
   39.0090   26.6930   43.3740 C   0  0  0  0  0  0  0  0  0  0  0  0
   40.1370   27.6430   43.0470 C   0  0  0  0  0  0  0  0  0  0  0  0
   39.6950   29.0560   42.7580 C   0  0  0  0  0  0  0  0  0  0  0  0
   38.2080   29.2270   42.9530 C   0  0  0  0  0  0  0  0  0  0  0  0
   37.5890   28.1320   42.0070 C   0  0  2  0  0  0  0  0  0  0  0  0
   38.8160   26.8500   44.4640 H   0  0  0  0  0  0  0  0  0  0  0  0
   39.4000   25.6780   43.2930 H   0  0  0  0  0  0  0  0  0  0  0  0
   40.6410   27.2040   42.1470 H   0  0  0  0  0  0  0  0  0  0  0  0
   40.8860   27.5760   43.8700 H   0  0  0  0  0  0  0  0  0  0  0  0
   40.3070   29.7390   43.3510 H   0  0  0  0  0  0  0  0  0  0  0  0
   39.8970   29.2850   41.6800 H   0  0  0  0  0  0  0  0  0  0  0  0
   37.8950   30.2100   42.5890 H   0  0  0  0  0  0  0  0  0  0  0  0
   37.9060   28.9820   43.9800 H   0  0  0  0  0  0  0  0  0  0  0  0
   38.1000   28.2210   41.0210 H   0  0  0  0  0  0  0  0  0  0  0  0
   37.0850   25.7740   42.2880 C   0  0  0  0  0  0  0  0  0  0  0  0
   36.4490   25.9540   41.3800 H   0  0  0  0  0  0  0  0  0  0  0  0
   36.3600   25.5330   43.0970 H   0  0  0  0  0  0  0  0  0  0  0  0
   38.0630   24.6640   42.1180 C   0  0  0  0  0  0  0  0  0  0  0  0
   39.0360   25.0680   41.8400 H   0  0  0  0  0  0  0  0  0  0  0  0
   38.2210   24.1010   43.0680 H   0  0  0  0  0  0  0  0  0  0  0  0
   35.8610   23.0640   39.5280 C   0  0  0  0  0  0  0  0  0  0  0  0
   36.3430   23.9430   40.5150 C   0  0  0  0  0  0  0  0  0  0  0  0
   37.5730   23.7240   41.0770 C   0  0  0  0  0  0  0  0  0  0  0  0
   38.2700   22.6630   40.6530 N   0  0  0  0  0  0  0  0  0  0  0  0
   37.8140   21.8220   39.7120 C   0  0  0  0  0  0  0  0  0  0  0  0
   36.6120   22.0070   39.1390 N   0  0  0  0  0  0  0  0  0  0  0  0
   34.8870   23.2120   39.0630 H   0  0  0  0  0  0  0  0  0  0  0  0
   35.6890   24.7600   40.7710 H   0  0  0  0  0  0  0  0  0  0  0  0
   38.4620   20.9830   39.4330 H   0  0  0  0  0  0  0  0  0  0  0  0
   36.2540   28.5040   41.9840 O   0  0  0  0  0  0  0  0  0  0  0  0
   37.0590   29.6250   39.7110 O   0  0  0  0  0  0  0  0  0  0  0  0
   35.8780   29.5020   40.6850 P   0  0  2  0  0  0  0  0  0  0  0  0
   35.6820   31.0750   41.3310 O   0  0  0  0  0  0  0  0  0  0  0  0
   34.8130   31.0740   41.8250 H   0  0  0  0  0  0  0  0  0  0  0  0
   34.4650   29.0770   39.9170 O   0  0  0  0  0  0  0  0  0  0  0  0
   34.7310   28.8660   38.5660 C   0  0  0  0  0  2  0  0  0  0  0  0
   34.4450   29.7730   37.9940 H   0  0  0  0  0  0  0  0  0  0  0  0
  1  2  1  0  0  0  0
  2  7  1  0  0  0  0
  3  2  1  0  0  0  0
  3 10  1  0  0  0  0
  4  5  1  0  0  0  0
  4  3  1  0  0  0  0
  4 11  1  0  0  0  0
  5 14  1  0  0  0  0
  6 15  1  6  0  0  0
  6  1  1  0  0  0  0
  6  5  1  0  0  0  0
  8  2  1  0  0  0  0
  9  3  1  0  0  0  0
 12  4  1  0  0  0  0
 13  5  1  0  0  0  0
 16  1  1  0  0  0  0
 16 18  1  0  0  0  0
 17 16  1  0  0  0  0
 19 16  1  0  0  0  0
 19 21  1  0  0  0  0
 20 19  1  0  0  0  0
 22 23  1  0  0  0  0
 23 29  1  0  0  0  0
 23 24  2  0  0  0  0
 24 19  1  0  0  0  0
 25 24  1  0  0  0  0
 26 25  2  0  0  0  0
 27 22  2  0  0  0  0
 27 26  1  0  0  0  0
 28 22  1  0  0  0  0
 30 26  1  0  0  0  0
 31  6  1  0  0  0  0
 33 32  2  6  0  0  0
 33 34  1  0  0  0  0
 33 31  1  0  0  0  0
 34 35  1  0  0  0  0
 36 33  1  0  0  0  0
 37 36  1  0  0  0  0
 38 37  1  0  0  0  0
M  END
>  <minimizedAffinity>
-4.99212122

$$$$

 OpenBabel03252509013D

 38 39  0  0  1  0  0  0  0  0999 V2000
   38.4610   26.1340   42.8850 N   0  0  0  0  0  0  0  0  0  0  0  0
   37.1490   26.0100   42.3700 C   0  0  0  0  0  0  0  0  0  0  0  0
   37.0460   25.3420   41.0190 C   0  0  0  0  0  0  0  0  0  0  0  0
   38.0830   24.2740   40.7750 C   0  0  0  0  0  0  0  0  0  0  0  0
   38.9470   24.0450   41.9910 C   0  0  0  0  0  0  0  0  0  0  0  0
   39.5280   25.4750   42.2970 C   0  0  2  0  0  0  0  0  0  0  0  0
   36.5990   25.3270   43.0630 H   0  0  0  0  0  0  0  0  0  0  0  0
   36.5520   26.9220   42.3310 H   0  0  0  0  0  0  0  0  0  0  0  0
   37.1610   26.1690   40.2700 H   0  0  0  0  0  0  0  0  0  0  0  0
   36.0010   24.9760   40.8990 H   0  0  0  0  0  0  0  0  0  0  0  0
   37.5780   23.3780   40.4080 H   0  0  0  0  0  0  0  0  0  0  0  0
   38.7730   24.6170   39.9620 H   0  0  0  0  0  0  0  0  0  0  0  0
   39.7810   23.3840   41.7370 H   0  0  0  0  0  0  0  0  0  0  0  0
   38.3470   23.7420   42.8590 H   0  0  0  0  0  0  0  0  0  0  0  0
   39.9080   25.8900   41.3360 H   0  0  0  0  0  0  0  0  0  0  0  0
   38.7070   27.3750   43.5670 C   0  0  0  0  0  0  0  0  0  0  0  0
   39.6640   27.8630   43.2380 H   0  0  0  0  0  0  0  0  0  0  0  0
   38.8750   27.1170   44.6360 H   0  0  0  0  0  0  0  0  0  0  0  0
   37.5120   28.2520   43.4240 C   0  0  0  0  0  0  0  0  0  0  0  0
   36.6920   27.6890   42.9800 H   0  0  0  0  0  0  0  0  0  0  0  0
   37.1420   28.6130   44.4130 H   0  0  0  0  0  0  0  0  0  0  0  0
   39.4510   31.0840   41.8950 C   0  0  0  0  0  0  0  0  0  0  0  0
   39.1060   29.9720   42.6850 C   0  0  0  0  0  0  0  0  0  0  0  0
   37.8550   29.4250   42.5810 C   0  0  0  0  0  0  0  0  0  0  0  0
   37.0020   29.9880   41.7160 N   0  0  0  0  0  0  0  0  0  0  0  0
   37.3260   31.0490   40.9600 C   0  0  0  0  0  0  0  0  0  0  0  0
   38.5450   31.6090   41.0370 N   0  0  0  0  0  0  0  0  0  0  0  0
   40.4380   31.5400   41.9560 H   0  0  0  0  0  0  0  0  0  0  0  0
   39.8800   29.6110   43.3430 H   0  0  0  0  0  0  0  0  0  0  0  0
   36.5550   31.4340   40.2820 H   0  0  0  0  0  0  0  0  0  0  0  0
   40.5240   25.1810   43.2150 O   0  0  0  0  0  0  0  0  0  0  0  0
   42.2680   25.2620   41.2090 O   0  0  0  0  0  0  0  0  0  0  0  0
   42.0540   25.6310   42.6840 P   0  0  2  0  0  0  0  0  0  0  0  0
   43.1660   24.6540   43.5430 O   0  0  0  0  0  0  0  0  0  0  0  0
   43.1840   24.9980   44.4810 H   0  0  0  0  0  0  0  0  0  0  0  0
   42.4160   27.2250   42.9960 O   0  0  0  0  0  0  0  0  0  0  0  0
   42.2290   27.9670   41.8320 C   0  0  0  0  0  2  0  0  0  0  0  0
   43.2130   28.1260   41.3430 H   0  0  0  0  0  0  0  0  0  0  0  0
  1 16  1  0  0  0  0
  2  1  1  0  0  0  0
  2  7  1  0  0  0  0
  3  2  1  0  0  0  0
  4  3  1  0  0  0  0
  4  5  1  0  0  0  0
  5  6  1  0  0  0  0
  5 14  1  0  0  0  0
  6 15  1  6  0  0  0
  6  1  1  0  0  0  0
  6 31  1  0  0  0  0
  8  2  1  0  0  0  0
  9  3  1  0  0  0  0
 10  3  1  0  0  0  0
 11  4  1  0  0  0  0
 12  4  1  0  0  0  0
 13  5  1  0  0  0  0
 16 18  1  0  0  0  0
 17 16  1  0  0  0  0
 19 16  1  0  0  0  0
 19 21  1  0  0  0  0
 20 19  1  0  0  0  0
 22 28  1  0  0  0  0
 22 23  1  0  0  0  0
 23 29  1  0  0  0  0
 24 23  2  0  0  0  0
 24 19  1  0  0  0  0
 25 24  1  0  0  0  0
 26 27  1  0  0  0  0
 26 25  2  0  0  0  0
 27 22  2  0  0  0  0
 30 26  1  0  0  0  0
 33 32  2  6  0  0  0
 33 36  1  0  0  0  0
 33 31  1  0  0  0  0
 33 34  1  0  0  0  0
 34 35  1  0  0  0  0
 37 36  1  0  0  0  0
 38 37  1  0  0  0  0
M  END
>  <minimizedAffinity>
-4.80382919

$$$$

 OpenBabel03252509013D

 38 39  0  0  1  0  0  0  0  0999 V2000
   38.9540   28.4480   41.6370 N   0  0  0  0  0  0  0  0  0  0  0  0
   39.3490   27.5800   42.6830 C   0  0  0  0  0  0  0  0  0  0  0  0
   38.2660   27.2380   43.6800 C   0  0  0  0  0  0  0  0  0  0  0  0
   36.8800   27.1670   43.0900 C   0  0  0  0  0  0  0  0  0  0  0  0
   36.8970   27.3690   41.5940 C   0  0  0  0  0  0  0  0  0  0  0  0
   37.6210   28.7560   41.4230 C   0  0  2  0  0  0  0  0  0  0  0  0
   39.6090   26.6040   42.2040 H   0  0  0  0  0  0  0  0  0  0  0  0
   40.2360   27.8690   43.2480 H   0  0  0  0  0  0  0  0  0  0  0  0
   38.3150   28.0440   44.4570 H   0  0  0  0  0  0  0  0  0  0  0  0
   38.5700   26.3010   44.2020 H   0  0  0  0  0  0  0  0  0  0  0  0
   36.4130   26.2340   43.4120 H   0  0  0  0  0  0  0  0  0  0  0  0
   36.2640   28.0040   43.5100 H   0  0  0  0  0  0  0  0  0  0  0  0
   35.8740   27.4670   41.2190 H   0  0  0  0  0  0  0  0  0  0  0  0
   37.5160   26.6120   41.0940 H   0  0  0  0  0  0  0  0  0  0  0  0
   37.1470   29.4650   42.1390 H   0  0  0  0  0  0  0  0  0  0  0  0
   39.9530   29.4160   41.2720 C   0  0  0  0  0  0  0  0  0  0  0  0
   39.9090   29.6870   40.1820 H   0  0  0  0  0  0  0  0  0  0  0  0
   40.9370   28.9140   41.3980 H   0  0  0  0  0  0  0  0  0  0  0  0
   39.8450   30.5900   42.1810 C   0  0  0  0  0  0  0  0  0  0  0  0
   38.9490   30.5010   42.7940 H   0  0  0  0  0  0  0  0  0  0  0  0
   40.7040   30.6440   42.8920 H   0  0  0  0  0  0  0  0  0  0  0  0
   40.9670   33.5570   40.1660 C   0  0  0  0  0  0  0  0  0  0  0  0
   40.9830   32.3740   40.9290 C   0  0  0  0  0  0  0  0  0  0  0  0
   39.8050   31.8380   41.3780 C   0  0  0  0  0  0  0  0  0  0  0  0
   38.6720   32.4800   41.0650 N   0  0  0  0  0  0  0  0  0  0  0  0
   38.6520   33.6080   40.3380 C   0  0  0  0  0  0  0  0  0  0  0  0
   39.7890   34.1600   39.8810 N   0  0  0  0  0  0  0  0  0  0  0  0
   41.8870   34.0060   39.7950 H   0  0  0  0  0  0  0  0  0  0  0  0
   41.9570   31.9530   41.1130 H   0  0  0  0  0  0  0  0  0  0  0  0
   37.6710   34.0550   40.1360 H   0  0  0  0  0  0  0  0  0  0  0  0
   37.3630   29.0430   40.0920 O   0  0  0  0  0  0  0  0  0  0  0  0
   36.4050   31.2040   38.8730 O   0  0  0  0  0  0  0  0  0  0  0  0
   36.0750   30.1040   39.8920 P   0  0  2  0  0  0  0  0  0  0  0  0
   35.8990   30.9290   41.3810 O   0  0  0  0  0  0  0  0  0  0  0  0
   35.5050   30.2750   42.0260 H   0  0  0  0  0  0  0  0  0  0  0  0
   34.6370   29.3370   39.5520 O   0  0  0  0  0  0  0  0  0  0  0  0
   34.8090   28.5350   38.4260 C   0  0  0  0  0  2  0  0  0  0  0  0
   34.4160   29.0710   37.5360 H   0  0  0  0  0  0  0  0  0  0  0  0
  1  2  1  0  0  0  0
  2  8  1  0  0  0  0
  2  3  1  0  0  0  0
  3 10  1  0  0  0  0
  3  9  1  0  0  0  0
  4 11  1  0  0  0  0
  4 12  1  0  0  0  0
  4  3  1  0  0  0  0
  5  4  1  0  0  0  0
  6  5  1  0  0  0  0
  6  1  1  0  0  0  0
  6 15  1  1  0  0  0
  7  2  1  0  0  0  0
 13  5  1  0  0  0  0
 14  5  1  0  0  0  0
 16 18  1  0  0  0  0
 16  1  1  0  0  0  0
 16 19  1  0  0  0  0
 17 16  1  0  0  0  0
 19 20  1  0  0  0  0
 19 21  1  0  0  0  0
 22 23  1  0  0  0  0
 23 29  1  0  0  0  0
 23 24  2  0  0  0  0
 24 19  1  0  0  0  0
 25 24  1  0  0  0  0
 26 25  2  0  0  0  0
 27 22  2  0  0  0  0
 27 26  1  0  0  0  0
 28 22  1  0  0  0  0
 30 26  1  0  0  0  0
 31  6  1  0  0  0  0
 33 32  2  6  0  0  0
 33 31  1  0  0  0  0
 33 34  1  0  0  0  0
 34 35  1  0  0  0  0
 36 33  1  0  0  0  0
 37 36  1  0  0  0  0
 38 37  1  0  0  0  0
M  END
>  <minimizedAffinity>
-4.78023624

$$$$

 OpenBabel03252509013D

 38 39  0  0  1  0  0  0  0  0999 V2000
   37.0820   26.7070   41.6900 N   0  0  0  0  0  0  0  0  0  0  0  0
   37.2060   25.3060   41.8470 C   0  0  0  0  0  0  0  0  0  0  0  0
   36.5360   24.4750   40.7780 C   0  0  0  0  0  0  0  0  0  0  0  0
   36.5360   25.1080   39.4090 C   0  0  0  0  0  0  0  0  0  0  0  0
   37.2980   26.4100   39.3960 C   0  0  0  0  0  0  0  0  0  0  0  0
   36.5910   27.2570   40.5180 C   0  0  2  0  0  0  0  0  0  0  0  0
   38.2940   25.0710   41.7450 H   0  0  0  0  0  0  0  0  0  0  0  0
   36.9120   24.8960   42.8140 H   0  0  0  0  0  0  0  0  0  0  0  0
   35.4830   24.3270   41.1360 H   0  0  0  0  0  0  0  0  0  0  0  0
   37.0000   23.4620   40.7950 H   0  0  0  0  0  0  0  0  0  0  0  0
   36.8920   24.3710   38.6870 H   0  0  0  0  0  0  0  0  0  0  0  0
   35.4810   25.3610   39.1270 H   0  0  0  0  0  0  0  0  0  0  0  0
   37.1510   26.9180   38.4380 H   0  0  0  0  0  0  0  0  0  0  0  0
   38.3430   26.2670   39.7020 H   0  0  0  0  0  0  0  0  0  0  0  0
   35.4930   27.1800   40.3470 H   0  0  0  0  0  0  0  0  0  0  0  0
   36.8840   27.4190   42.9220 C   0  0  0  0  0  0  0  0  0  0  0  0
   36.0200   27.0160   43.5170 H   0  0  0  0  0  0  0  0  0  0  0  0
   36.5770   28.4510   42.6430 H   0  0  0  0  0  0  0  0  0  0  0  0
   38.1660   27.4440   43.6800 C   0  0  0  0  0  0  0  0  0  0  0  0
   37.9670   27.6190   44.7370 H   0  0  0  0  0  0  0  0  0  0  0  0
   38.7000   26.4660   43.6220 H   0  0  0  0  0  0  0  0  0  0  0  0
   41.1960   29.1900   42.3070 C   0  0  0  0  0  0  0  0  0  0  0  0
   40.3450   28.1970   42.8270 C   0  0  0  0  0  0  0  0  0  0  0  0
   39.0460   28.5060   43.1320 C   0  0  0  0  0  0  0  0  0  0  0  0
   38.6410   29.7640   42.9180 N   0  0  0  0  0  0  0  0  0  0  0  0
   39.4490   30.7150   42.4220 C   0  0  0  0  0  0  0  0  0  0  0  0
   40.7290   30.4450   42.1110 N   0  0  0  0  0  0  0  0  0  0  0  0
   42.2330   28.9740   42.0550 H   0  0  0  0  0  0  0  0  0  0  0  0
   40.7890   27.2240   42.9540 H   0  0  0  0  0  0  0  0  0  0  0  0
   39.0190   31.7140   42.2830 H   0  0  0  0  0  0  0  0  0  0  0  0
   37.1090   28.5210   40.2810 O   0  0  0  0  0  0  0  0  0  0  0  0
   36.3170   30.7090   38.9940 O   0  0  0  0  0  0  0  0  0  0  0  0
   35.9160   29.6840   40.0660 P   0  0  2  0  0  0  0  0  0  0  0  0
   35.8520   30.5810   41.5220 O   0  0  0  0  0  0  0  0  0  0  0  0
   35.4180   29.9900   42.2020 H   0  0  0  0  0  0  0  0  0  0  0  0
   34.4080   29.0370   39.7890 O   0  0  0  0  0  0  0  0  0  0  0  0
   34.2160   28.9100   38.4150 C   0  0  0  0  0  2  0  0  0  0  0  0
   33.6110   29.7680   38.0530 H   0  0  0  0  0  0  0  0  0  0  0  0
  1  2  1  0  0  0  0
  1 16  1  0  0  0  0
  2  8  1  0  0  0  0
  3 10  1  0  0  0  0
  3  9  1  0  0  0  0
  3  2  1  0  0  0  0
  4  3  1  0  0  0  0
  5  4  1  0  0  0  0
  5 14  1  0  0  0  0
  5  6  1  0  0  0  0
  6 15  1  6  0  0  0
  6  1  1  0  0  0  0
  7  2  1  0  0  0  0
 11  4  1  0  0  0  0
 12  4  1  0  0  0  0
 13  5  1  0  0  0  0
 16 17  1  0  0  0  0
 16 19  1  0  0  0  0
 18 16  1  0  0  0  0
 19 20  1  0  0  0  0
 21 19  1  0  0  0  0
 22 23  1  0  0  0  0
 23 29  1  0  0  0  0
 23 24  2  0  0  0  0
 24 19  1  0  0  0  0
 25 24  1  0  0  0  0
 26 25  2  0  0  0  0
 27 22  2  0  0  0  0
 27 26  1  0  0  0  0
 28 22  1  0  0  0  0
 30 26  1  0  0  0  0
 31  6  1  0  0  0  0
 33 32  2  6  0  0  0
 33 31  1  0  0  0  0
 33 34  1  0  0  0  0
 34 35  1  0  0  0  0
 36 33  1  0  0  0  0
 37 36  1  0  0  0  0
 38 37  1  0  0  0  0
M  END
>  <minimizedAffinity>
-4.71014071

$$$$

 OpenBabel03252509013D

 38 39  0  0  1  0  0  0  0  0999 V2000
   36.8570   27.8600   38.7910 N   0  0  0  0  0  0  0  0  0  0  0  0
   36.0810   26.9850   37.9950 C   0  0  0  0  0  0  0  0  0  0  0  0
   34.6280   27.3710   37.8400 C   0  0  0  0  0  0  0  0  0  0  0  0
   34.3800   28.8590   37.8320 C   0  0  0  0  0  0  0  0  0  0  0  0
   35.6690   29.6420   37.8910 C   0  0  0  0  0  0  0  0  0  0  0  0
   36.3690   29.0930   39.1890 C   0  0  2  0  0  0  0  0  0  0  0  0
   36.4990   27.0430   36.9600 H   0  0  0  0  0  0  0  0  0  0  0  0
   36.1130   25.9270   38.2590 H   0  0  0  0  0  0  0  0  0  0  0  0
   34.1020   26.8960   38.7080 H   0  0  0  0  0  0  0  0  0  0  0  0
   34.2350   26.8550   36.9340 H   0  0  0  0  0  0  0  0  0  0  0  0
   33.7460   29.1000   36.9760 H   0  0  0  0  0  0  0  0  0  0  0  0
   33.8050   29.1350   38.7540 H   0  0  0  0  0  0  0  0  0  0  0  0
   35.4540   30.7040   38.0400 H   0  0  0  0  0  0  0  0  0  0  0  0
   36.3230   29.4040   37.0410 H   0  0  0  0  0  0  0  0  0  0  0  0
   35.6060   29.0930   40.0000 H   0  0  0  0  0  0  0  0  0  0  0  0
   37.8130   27.1920   39.6320 C   0  0  0  0  0  0  0  0  0  0  0  0
   38.6810   27.8520   39.9030 H   0  0  0  0  0  0  0  0  0  0  0  0
   38.2580   26.3790   39.0180 H   0  0  0  0  0  0  0  0  0  0  0  0
   37.1060   26.6250   40.8140 C   0  0  0  0  0  0  0  0  0  0  0  0
   36.4390   27.3740   41.2390 H   0  0  0  0  0  0  0  0  0  0  0  0
   36.4620   25.7580   40.5350 H   0  0  0  0  0  0  0  0  0  0  0  0
   39.4210   24.4250   42.7940 C   0  0  0  0  0  0  0  0  0  0  0  0
   38.4790   24.8650   41.8450 C   0  0  0  0  0  0  0  0  0  0  0  0
   38.1020   26.1820   41.8230 C   0  0  0  0  0  0  0  0  0  0  0  0
   38.6570   27.0020   42.7230 N   0  0  0  0  0  0  0  0  0  0  0  0
   39.5550   26.5870   43.6300 C   0  0  0  0  0  0  0  0  0  0  0  0
   39.9490   25.3020   43.6790 N   0  0  0  0  0  0  0  0  0  0  0  0
   39.7410   23.3850   42.8360 H   0  0  0  0  0  0  0  0  0  0  0  0
   38.1060   24.1100   41.1750 H   0  0  0  0  0  0  0  0  0  0  0  0
   39.9510   27.3380   44.3230 H   0  0  0  0  0  0  0  0  0  0  0  0
   37.3840   30.0180   39.3720 O   0  0  0  0  0  0  0  0  0  0  0  0
   37.9210   30.2220   41.9680 O   0  0  0  0  0  0  0  0  0  0  0  0
   37.2120   30.9040   40.7890 P   0  0  2  0  0  0  0  0  0  0  0  0
   35.5490   30.8470   41.1910 O   0  0  0  0  0  0  0  0  0  0  0  0
   35.0780   31.4400   40.5400 H   0  0  0  0  0  0  0  0  0  0  0  0
   37.6510   32.5010   40.6250 O   0  0  0  0  0  0  0  0  0  0  0  0
   37.2730   32.9450   39.3610 C   0  0  0  0  0  2  0  0  0  0  0  0
   38.1560   32.9190   38.6880 H   0  0  0  0  0  0  0  0  0  0  0  0
  1  6  1  0  0  0  0
  1 16  1  0  0  0  0
  2  8  1  0  0  0  0
  2  1  1  0  0  0  0
  3  2  1  0  0  0  0
  3  9  1  0  0  0  0
  4  3  1  0  0  0  0
  4  5  1  0  0  0  0
  4 12  1  0  0  0  0
  5 13  1  0  0  0  0
  5  6  1  0  0  0  0
  6 31  1  0  0  0  0
  6 15  1  1  0  0  0
  7  2  1  0  0  0  0
 10  3  1  0  0  0  0
 11  4  1  0  0  0  0
 14  5  1  0  0  0  0
 16 17  1  0  0  0  0
 16 19  1  0  0  0  0
 18 16  1  0  0  0  0
 19 20  1  0  0  0  0
 19 24  1  0  0  0  0
 21 19  1  0  0  0  0
 22 28  1  0  0  0  0
 22 27  1  0  0  0  0
 23 22  2  0  0  0  0
 24 23  1  0  0  0  0
 24 25  2  0  0  0  0
 25 26  1  0  0  0  0
 26 27  2  0  0  0  0
 26 30  1  0  0  0  0
 29 23  1  0  0  0  0
 31 33  1  0  0  0  0
 33 34  1  0  0  0  0
 33 32  2  1  0  0  0
 35 34  1  0  0  0  0
 36 33  1  0  0  0  0
 37 36  1  0  0  0  0
 38 37  1  0  0  0  0
M  END
>  <minimizedAffinity>
-4.69039726

$$$$

 OpenBabel03252509013D

 38 39  0  0  1  0  0  0  0  0999 V2000
   37.8180   28.4720   42.5690 N   0  0  0  0  0  0  0  0  0  0  0  0
   38.7410   27.7130   43.3270 C   0  0  0  0  0  0  0  0  0  0  0  0
   40.1970   27.9640   43.0110 C   0  0  0  0  0  0  0  0  0  0  0  0
   40.5060   29.3810   42.5990 C   0  0  0  0  0  0  0  0  0  0  0  0
   39.2870   30.2680   42.6850 C   0  0  0  0  0  0  0  0  0  0  0  0
   38.2360   29.5280   41.7770 C   0  0  2  0  0  0  0  0  0  0  0  0
   38.6230   28.0400   44.3890 H   0  0  0  0  0  0  0  0  0  0  0  0
   38.5890   26.6320   43.3400 H   0  0  0  0  0  0  0  0  0  0  0  0
   40.4440   27.2570   42.1770 H   0  0  0  0  0  0  0  0  0  0  0  0
   40.7980   27.6170   43.8830 H   0  0  0  0  0  0  0  0  0  0  0  0
   41.3590   29.7330   43.1820 H   0  0  0  0  0  0  0  0  0  0  0  0
   40.8200   29.3860   41.5230 H   0  0  0  0  0  0  0  0  0  0  0  0
   39.5020   31.2420   42.2360 H   0  0  0  0  0  0  0  0  0  0  0  0
   38.8800   30.2930   43.7050 H   0  0  0  0  0  0  0  0  0  0  0  0
   38.7480   29.2690   40.8230 H   0  0  0  0  0  0  0  0  0  0  0  0
   36.6390   27.7450   42.1830 C   0  0  0  0  0  0  0  0  0  0  0  0
   35.6960   28.3260   42.3710 H   0  0  0  0  0  0  0  0  0  0  0  0
   36.5720   26.8690   42.8670 H   0  0  0  0  0  0  0  0  0  0  0  0
   36.7880   27.2940   40.7720 C   0  0  0  0  0  0  0  0  0  0  0  0
   35.8110   27.2570   40.2910 H   0  0  0  0  0  0  0  0  0  0  0  0
   37.4020   28.0060   40.1710 H   0  0  0  0  0  0  0  0  0  0  0  0
   39.2420   24.5490   40.0220 C   0  0  0  0  0  0  0  0  0  0  0  0
   38.6130   25.8080   40.0620 C   0  0  0  0  0  0  0  0  0  0  0  0
   37.4350   25.9570   40.7420 C   0  0  0  0  0  0  0  0  0  0  0  0
   36.9260   24.8770   41.3480 N   0  0  0  0  0  0  0  0  0  0  0  0
   37.5210   23.6740   41.3120 C   0  0  0  0  0  0  0  0  0  0  0  0
   38.6800   23.4930   40.6540 N   0  0  0  0  0  0  0  0  0  0  0  0
   40.1800   24.4000   39.4890 H   0  0  0  0  0  0  0  0  0  0  0  0
   39.1220   26.5990   39.5360 H   0  0  0  0  0  0  0  0  0  0  0  0
   37.0240   22.8540   41.8410 H   0  0  0  0  0  0  0  0  0  0  0  0
   37.2530   30.4960   41.6430 O   0  0  0  0  0  0  0  0  0  0  0  0
   38.6480   31.2950   39.5250 O   0  0  0  0  0  0  0  0  0  0  0  0
   37.2340   31.1990   40.1170 P   0  0  2  0  0  0  0  0  0  0  0  0
   36.7470   32.8240   40.3440 O   0  0  0  0  0  0  0  0  0  0  0  0
   35.7700   32.8020   40.5530 H   0  0  0  0  0  0  0  0  0  0  0  0
   36.1580   30.4760   39.0730 O   0  0  0  0  0  0  0  0  0  0  0  0
   36.8530   30.0140   37.9580 C   0  0  0  0  0  2  0  0  0  0  0  0
   36.7380   30.7460   37.1310 H   0  0  0  0  0  0  0  0  0  0  0  0
  1  2  1  0  0  0  0
  2  8  1  0  0  0  0
  2  7  1  0  0  0  0
  3  2  1  0  0  0  0
  3 10  1  0  0  0  0
  4  5  1  0  0  0  0
  4  3  1  0  0  0  0
  4 11  1  0  0  0  0
  5 14  1  0  0  0  0
  6 15  1  6  0  0  0
  6  1  1  0  0  0  0
  6  5  1  0  0  0  0
  9  3  1  0  0  0  0
 12  4  1  0  0  0  0
 13  5  1  0  0  0  0
 16 17  1  0  0  0  0
 16  1  1  0  0  0  0
 16 18  1  0  0  0  0
 19 16  1  0  0  0  0
 20 19  1  0  0  0  0
 21 19  1  0  0  0  0
 22 23  2  0  0  0  0
 22 27  1  0  0  0  0
 23 24  1  0  0  0  0
 24 19  1  0  0  0  0
 24 25  2  0  0  0  0
 26 25  1  0  0  0  0
 26 30  1  0  0  0  0
 27 26  2  0  0  0  0
 28 22  1  0  0  0  0
 29 23  1  0  0  0  0
 31  6  1  0  0  0  0
 33 32  2  6  0  0  0
 33 34  1  0  0  0  0
 33 31  1  0  0  0  0
 34 35  1  0  0  0  0
 36 33  1  0  0  0  0
 37 36  1  0  0  0  0
 38 37  1  0  0  0  0
M  END
>  <minimizedAffinity>
-4.55508661

$$$$

 OpenBabel03252509013D

 38 39  0  0  1  0  0  0  0  0999 V2000
   37.4350   30.3820   41.7760 N   0  0  0  0  0  0  0  0  0  0  0  0
   37.3430   29.2140   42.5700 C   0  0  0  0  0  0  0  0  0  0  0  0
   38.5900   28.3620   42.6110 C   0  0  0  0  0  0  0  0  0  0  0  0
   39.8770   29.1430   42.5200 C   0  0  0  0  0  0  0  0  0  0  0  0
   39.6280   30.6310   42.4990 C   0  0  0  0  0  0  0  0  0  0  0  0
   38.6520   30.8190   41.2790 C   0  0  2  0  0  0  0  0  0  0  0  0
   37.2020   29.5580   43.6240 H   0  0  0  0  0  0  0  0  0  0  0  0
   36.5000   28.5520   42.3670 H   0  0  0  0  0  0  0  0  0  0  0  0
   38.4990   27.6630   41.7390 H   0  0  0  0  0  0  0  0  0  0  0  0
   38.5300   27.7170   43.5180 H   0  0  0  0  0  0  0  0  0  0  0  0
   40.5420   28.8090   43.3190 H   0  0  0  0  0  0  0  0  0  0  0  0
   40.3820   28.8970   41.5500 H   0  0  0  0  0  0  0  0  0  0  0  0
   40.5590   31.1610   42.2770 H   0  0  0  0  0  0  0  0  0  0  0  0
   39.0960   30.9620   43.4000 H   0  0  0  0  0  0  0  0  0  0  0  0
   39.0790   30.2500   40.4230 H   0  0  0  0  0  0  0  0  0  0  0  0
   36.2400   30.6820   41.0350 C   0  0  0  0  0  0  0  0  0  0  0  0
   36.4080   31.4680   40.2500 H   0  0  0  0  0  0  0  0  0  0  0  0
   35.5330   31.1490   41.7560 H   0  0  0  0  0  0  0  0  0  0  0  0
   35.6730   29.4150   40.4960 C   0  0  0  0  0  0  0  0  0  0  0  0
   36.2230   28.5640   40.8970 H   0  0  0  0  0  0  0  0  0  0  0  0
   34.6100   29.2710   40.8060 H   0  0  0  0  0  0  0  0  0  0  0  0
   34.7750   28.8650   36.8890 C   0  0  0  0  0  0  0  0  0  0  0  0
   34.7250   28.8620   38.2960 C   0  0  0  0  0  0  0  0  0  0  0  0
   35.7450   29.4290   39.0130 C   0  0  0  0  0  0  0  0  0  0  0  0
   36.7610   29.9690   38.3280 N   0  0  0  0  0  0  0  0  0  0  0  0
   36.8120   29.9740   36.9860 C   0  0  0  0  0  0  0  0  0  0  0  0
   35.8280   29.4270   36.2520 N   0  0  0  0  0  0  0  0  0  0  0  0
   33.9790   28.4230   36.2920 H   0  0  0  0  0  0  0  0  0  0  0  0
   33.8550   28.3980   38.7300 H   0  0  0  0  0  0  0  0  0  0  0  0
   37.6880   30.4420   36.5210 H   0  0  0  0  0  0  0  0  0  0  0  0
   38.6780   32.1940   41.1100 O   0  0  0  0  0  0  0  0  0  0  0  0
   39.9000   33.9730   39.5550 O   0  0  0  0  0  0  0  0  0  0  0  0
   39.1180   32.6510   39.5540 P   0  0  2  0  0  0  0  0  0  0  0  0
   37.6620   33.0080   38.7290 O   0  0  0  0  0  0  0  0  0  0  0  0
   37.2130   32.1330   38.5490 H   0  0  0  0  0  0  0  0  0  0  0  0
   39.9080   31.4500   38.7140 O   0  0  0  0  0  0  0  0  0  0  0  0
   40.4750   31.9990   37.5670 C   0  0  0  0  0  2  0  0  0  0  0  0
   39.8130   31.7890   36.7000 H   0  0  0  0  0  0  0  0  0  0  0  0
  1  2  1  0  0  0  0
  2  3  1  0  0  0  0
  2  7  1  0  0  0  0
  3 10  1  0  0  0  0
  4  3  1  0  0  0  0
  4 11  1  0  0  0  0
  5  4  1  0  0  0  0
  5 14  1  0  0  0  0
  6 15  1  6  0  0  0
  6  1  1  0  0  0  0
  6  5  1  0  0  0  0
  8  2  1  0  0  0  0
  9  3  1  0  0  0  0
 12  4  1  0  0  0  0
 13  5  1  0  0  0  0
 16 18  1  0  0  0  0
 16  1  1  0  0  0  0
 17 16  1  0  0  0  0
 19 21  1  0  0  0  0
 19 20  1  0  0  0  0
 19 16  1  0  0  0  0
 22 23  1  0  0  0  0
 23 29  1  0  0  0  0
 23 24  2  0  0  0  0
 24 19  1  0  0  0  0
 25 24  1  0  0  0  0
 26 25  2  0  0  0  0
 27 22  2  0  0  0  0
 27 26  1  0  0  0  0
 28 22  1  0  0  0  0
 30 26  1  0  0  0  0
 31  6  1  0  0  0  0
 33 32  2  1  0  0  0
 33 31  1  0  0  0  0
 34 33  1  0  0  0  0
 35 34  1  0  0  0  0
 36 33  1  0  0  0  0
 37 36  1  0  0  0  0
 38 37  1  0  0  0  0
M  END
>  <minimizedAffinity>
-4.51910019

$$$$

 OpenBabel03252509013D

 38 39  0  0  1  0  0  0  0  0999 V2000
   37.1430   29.6050   38.4060 N   0  0  0  0  0  0  0  0  0  0  0  0
   36.2720   28.6030   37.9170 C   0  0  0  0  0  0  0  0  0  0  0  0
   36.4900   28.2050   36.4760 C   0  0  0  0  0  0  0  0  0  0  0  0
   37.9280   28.2750   36.0240 C   0  0  0  0  0  0  0  0  0  0  0  0
   38.8530   28.6470   37.1580 C   0  0  0  0  0  0  0  0  0  0  0  0
   38.2550   30.0050   37.6830 C   0  0  2  0  0  0  0  0  0  0  0  0
   36.4950   27.6770   38.5020 H   0  0  0  0  0  0  0  0  0  0  0  0
   35.2040   28.7780   38.0510 H   0  0  0  0  0  0  0  0  0  0  0  0
   35.8610   28.9120   35.8750 H   0  0  0  0  0  0  0  0  0  0  0  0
   36.0310   27.2000   36.3290 H   0  0  0  0  0  0  0  0  0  0  0  0
   38.1810   27.3370   35.5270 H   0  0  0  0  0  0  0  0  0  0  0  0
   38.0280   29.0890   35.2600 H   0  0  0  0  0  0  0  0  0  0  0  0
   39.8570   28.8410   36.7710 H   0  0  0  0  0  0  0  0  0  0  0  0
   38.7920   27.9220   37.9800 H   0  0  0  0  0  0  0  0  0  0  0  0
   38.0730   30.6510   36.7950 H   0  0  0  0  0  0  0  0  0  0  0  0
   36.5110   30.5550   39.2800 C   0  0  0  0  0  0  0  0  0  0  0  0
   35.9090   31.3210   38.7190 H   0  0  0  0  0  0  0  0  0  0  0  0
   37.3310   31.1360   39.7580 H   0  0  0  0  0  0  0  0  0  0  0  0
   35.7250   29.8190   40.3090 C   0  0  0  0  0  0  0  0  0  0  0  0
   34.9550   30.4700   40.7200 H   0  0  0  0  0  0  0  0  0  0  0  0
   35.1900   28.9420   39.8720 H   0  0  0  0  0  0  0  0  0  0  0  0
   37.2650   27.6410   42.9550 C   0  0  0  0  0  0  0  0  0  0  0  0
   36.4150   28.1100   41.9360 C   0  0  0  0  0  0  0  0  0  0  0  0
   36.6340   29.3430   41.3820 C   0  0  0  0  0  0  0  0  0  0  0  0
   37.6660   30.0580   41.8470 N   0  0  0  0  0  0  0  0  0  0  0  0
   38.4800   29.6150   42.8190 C   0  0  0  0  0  0  0  0  0  0  0  0
   38.2930   28.4090   43.3830 N   0  0  0  0  0  0  0  0  0  0  0  0
   37.1160   26.6640   43.4140 H   0  0  0  0  0  0  0  0  0  0  0  0
   35.6200   27.4420   41.6480 H   0  0  0  0  0  0  0  0  0  0  0  0
   39.2970   30.2770   43.1280 H   0  0  0  0  0  0  0  0  0  0  0  0
   39.2740   30.4570   38.5080 O   0  0  0  0  0  0  0  0  0  0  0  0
   40.4830   32.8120   38.7640 O   0  0  0  0  0  0  0  0  0  0  0  0
   40.2090   31.6550   37.7910 P   0  0  2  0  0  0  0  0  0  0  0  0
   39.2420   32.3440   36.5580 O   0  0  0  0  0  0  0  0  0  0  0  0
   39.2000   31.6720   35.8200 H   0  0  0  0  0  0  0  0  0  0  0  0
   41.6030   31.0720   37.0930 O   0  0  0  0  0  0  0  0  0  0  0  0
   42.2710   30.2730   38.0170 C   0  0  0  0  0  2  0  0  0  0  0  0
   43.0830   30.8650   38.4880 H   0  0  0  0  0  0  0  0  0  0  0  0
  1 16  1  0  0  0  0
  2  8  1  0  0  0  0
  2  1  1  0  0  0  0
  2  7  1  0  0  0  0
  3  2  1  0  0  0  0
  4  3  1  0  0  0  0
  4  5  1  0  0  0  0
  5  6  1  0  0  0  0
  5 14  1  0  0  0  0
  6 15  1  6  0  0  0
  6  1  1  0  0  0  0
  6 31  1  0  0  0  0
  9  3  1  0  0  0  0
 10  3  1  0  0  0  0
 11  4  1  0  0  0  0
 12  4  1  0  0  0  0
 13  5  1  0  0  0  0
 16 18  1  0  0  0  0
 16 19  1  0  0  0  0
 17 16  1  0  0  0  0
 19 20  1  0  0  0  0
 19 24  1  0  0  0  0
 21 19  1  0  0  0  0
 22 27  1  0  0  0  0
 22 28  1  0  0  0  0
 23 22  2  0  0  0  0
 24 25  2  0  0  0  0
 24 23  1  0  0  0  0
 25 26  1  0  0  0  0
 26 30  1  0  0  0  0
 26 27  2  0  0  0  0
 29 23  1  0  0  0  0
 33 31  1  0  0  0  0
 33 32  2  1  0  0  0
 34 33  1  0  0  0  0
 35 34  1  0  0  0  0
 36 33  1  0  0  0  0
 36 37  1  0  0  0  0
 37 38  1  0  0  0  0
M  END
>  <minimizedAffinity>
-4.47335005

$$$$

 OpenBabel03252509013D

 38 39  0  0  1  0  0  0  0  0999 V2000
   40.5200   31.7960   41.5960 N   0  0  0  0  0  0  0  0  0  0  0  0
   41.8530   32.1930   41.3350 C   0  0  0  0  0  0  0  0  0  0  0  0
   42.2070   32.3450   39.8740 C   0  0  0  0  0  0  0  0  0  0  0  0
   41.0680   32.8200   39.0070 C   0  0  0  0  0  0  0  0  0  0  0  0
   39.8360   33.1300   39.8210 C   0  0  0  0  0  0  0  0  0  0  0  0
   39.5640   31.7860   40.5940 C   0  0  2  0  0  0  0  0  0  0  0  0
   41.9670   33.2210   41.7600 H   0  0  0  0  0  0  0  0  0  0  0  0
   42.6390   31.5990   41.8040 H   0  0  0  0  0  0  0  0  0  0  0  0
   42.5450   31.3270   39.5450 H   0  0  0  0  0  0  0  0  0  0  0  0
   43.1100   32.9940   39.8090 H   0  0  0  0  0  0  0  0  0  0  0  0
   41.4230   33.6510   38.3940 H   0  0  0  0  0  0  0  0  0  0  0  0
   40.7790   31.9950   38.3050 H   0  0  0  0  0  0  0  0  0  0  0  0
   38.9880   33.3200   39.1570 H   0  0  0  0  0  0  0  0  0  0  0  0
   40.0350   33.9060   40.5720 H   0  0  0  0  0  0  0  0  0  0  0  0
   39.6240   30.9590   39.8510 H   0  0  0  0  0  0  0  0  0  0  0  0
   40.3890   30.8660   42.6840 C   0  0  0  0  0  0  0  0  0  0  0  0
   39.4170   30.9850   43.2360 H   0  0  0  0  0  0  0  0  0  0  0  0
   41.1710   31.1380   43.4270 H   0  0  0  0  0  0  0  0  0  0  0  0
   40.6150   29.4860   42.1720 C   0  0  0  0  0  0  0  0  0  0  0  0
   40.7700   29.5130   41.0930 H   0  0  0  0  0  0  0  0  0  0  0  0
   41.5360   29.0280   42.6060 H   0  0  0  0  0  0  0  0  0  0  0  0
   37.3220   28.3710   43.5960 C   0  0  0  0  0  0  0  0  0  0  0  0
   38.4370   29.1630   43.2650 C   0  0  0  0  0  0  0  0  0  0  0  0
   39.4480   28.6320   42.5090 C   0  0  0  0  0  0  0  0  0  0  0  0
   39.3250   27.3590   42.1150 N   0  0  0  0  0  0  0  0  0  0  0  0
   38.2640   26.5990   42.4290 C   0  0  0  0  0  0  0  0  0  0  0  0
   37.2540   27.0890   43.1680 N   0  0  0  0  0  0  0  0  0  0  0  0
   36.5020   28.7660   44.1950 H   0  0  0  0  0  0  0  0  0  0  0  0
   38.4180   30.1730   43.6410 H   0  0  0  0  0  0  0  0  0  0  0  0
   38.2590   25.5680   42.0560 H   0  0  0  0  0  0  0  0  0  0  0  0
   38.2890   32.0040   41.0920 O   0  0  0  0  0  0  0  0  0  0  0  0
   36.6450   31.9540   39.0030 O   0  0  0  0  0  0  0  0  0  0  0  0
   37.1050   31.1690   40.2400 P   0  0  2  0  0  0  0  0  0  0  0  0
   35.7300   31.1150   41.2570 O   0  0  0  0  0  0  0  0  0  0  0  0
   35.9370   30.4590   41.9820 H   0  0  0  0  0  0  0  0  0  0  0  0
   37.5390   29.6060   39.8710 O   0  0  0  0  0  0  0  0  0  0  0  0
   36.4190   28.7870   39.9850 C   0  0  0  0  0  2  0  0  0  0  0  0
   36.4460   28.2700   40.9670 H   0  0  0  0  0  0  0  0  0  0  0  0
  1 16  1  0  0  0  0
  2  1  1  0  0  0  0
  2  7  1  0  0  0  0
  2  8  1  0  0  0  0
  3  2  1  0  0  0  0
  4  5  1  0  0  0  0
  4  3  1  0  0  0  0
  5 14  1  0  0  0  0
  5  6  1  0  0  0  0
  6 15  1  6  0  0  0
  6 31  1  0  0  0  0
  6  1  1  0  0  0  0
  9  3  1  0  0  0  0
 10  3  1  0  0  0  0
 11  4  1  0  0  0  0
 12  4  1  0  0  0  0
 13  5  1  0  0  0  0
 16 17  1  0  0  0  0
 16 18  1  0  0  0  0
 19 24  1  0  0  0  0
 19 21  1  0  0  0  0
 19 16  1  0  0  0  0
 20 19  1  0  0  0  0
 22 28  1  0  0  0  0
 23 22  1  0  0  0  0
 23 29  1  0  0  0  0
 24 23  2  0  0  0  0
 25 26  2  0  0  0  0
 25 24  1  0  0  0  0
 26 27  1  0  0  0  0
 27 22  2  0  0  0  0
 30 26  1  0  0  0  0
 33 32  2  6  0  0  0
 33 31  1  0  0  0  0
 33 34  1  0  0  0  0
 34 35  1  0  0  0  0
 36 37  1  0  0  0  0
 36 33  1  0  0  0  0
 37 38  1  0  0  0  0
M  END
>  <minimizedAffinity>
-4.46082783

$$$$
