
 OpenBabel03252504473D

 20 20  0  0  0  0  0  0  0  0999 V2000
   37.5160   28.0730   43.1720 C   0  0  0  0  0  0  0  0  0  0  0  0
   38.7470   27.4700   43.4550 C   0  0  0  0  0  0  0  0  0  0  0  0
   39.8960   28.1070   42.9840 C   0  0  0  0  0  0  0  0  0  0  0  0
   39.7650   29.2480   42.2940 N   0  0  0  0  0  0  0  0  0  0  0  0
   38.5400   29.8000   42.0430 C   0  0  0  0  0  0  0  0  0  0  0  0
   37.4140   29.2060   42.4860 N   0  0  0  0  0  0  0  0  0  0  0  0
   38.8640   26.5470   44.0110 H   0  0  0  0  0  0  0  0  0  0  0  0
   40.8740   27.6700   43.1830 H   0  0  0  0  0  0  0  0  0  0  0  0
   36.2820   27.3770   43.6800 C   0  0  0  0  0  0  0  0  0  0  0  0
   36.5500   26.5900   44.4070 H   0  0  0  0  0  0  0  0  0  0  0  0
   35.7880   26.9280   42.7810 H   0  0  0  0  0  0  0  0  0  0  0  0
   35.6630   28.1650   44.1530 H   0  0  0  0  0  0  0  0  0  0  0  0
   38.5530   30.9870   41.3150 O   0  0  0  0  0  0  0  0  0  0  0  0
   37.2640   30.7890   39.0890 O   0  0  0  0  0  0  0  0  0  0  0  0
   37.2780   31.5760   40.3920 P   0  0  1  0  0  0  0  0  0  0  0  0
   35.7680   31.3390   41.1070 O   0  0  0  0  0  0  0  0  0  0  0  0
   35.1710   32.1050   40.8960 H   0  0  0  0  0  0  0  0  0  0  0  0
   37.4700   33.2360   40.0920 O   0  0  0  0  0  0  0  0  0  0  0  0
   38.7400   33.5820   40.5950 C   0  0  0  0  0  2  0  0  0  0  0  0
   38.8380   34.6700   40.7750 H   0  0  0  0  0  0  0  0  0  0  0  0
  1  2  1  0  0  0  0
  1  9  1  0  0  0  0
  2  7  1  0  0  0  0
  3  8  1  0  0  0  0
  3  2  2  0  0  0  0
  4  3  1  0  0  0  0
  5  4  2  0  0  0  0
  5  6  1  0  0  0  0
  6  1  2  0  0  0  0
  9 12  1  0  0  0  0
  9 10  1  0  0  0  0
 11  9  1  0  0  0  0
 13  5  1  0  0  0  0
 15 14  2  6  0  0  0
 15 16  1  0  0  0  0
 15 13  1  0  0  0  0
 17 16  1  0  0  0  0
 18 15  1  0  0  0  0
 18 19  1  0  0  0  0
 19 20  1  0  0  0  0
M  END
>  <minimizedAffinity>
-4.32261229

$$$$

 OpenBabel03252504473D

 20 20  0  0  0  0  0  0  0  0999 V2000
   39.6820   27.8040   43.2440 C   0  0  0  0  0  0  0  0  0  0  0  0
   38.5030   27.1900   43.6800 C   0  0  0  0  0  0  0  0  0  0  0  0
   37.3000   27.8380   43.3990 C   0  0  0  0  0  0  0  0  0  0  0  0
   37.3340   29.0020   42.7340 N   0  0  0  0  0  0  0  0  0  0  0  0
   38.5120   29.5640   42.3270 C   0  0  0  0  0  0  0  0  0  0  0  0
   39.6880   28.9580   42.5860 N   0  0  0  0  0  0  0  0  0  0  0  0
   38.4650   26.2500   44.2190 H   0  0  0  0  0  0  0  0  0  0  0  0
   36.3590   27.3920   43.7210 H   0  0  0  0  0  0  0  0  0  0  0  0
   40.9760   27.1000   43.5560 C   0  0  0  0  0  0  0  0  0  0  0  0
   40.7840   26.0680   43.8990 H   0  0  0  0  0  0  0  0  0  0  0  0
   41.4660   27.6970   44.3660 H   0  0  0  0  0  0  0  0  0  0  0  0
   41.5590   27.1070   42.6140 H   0  0  0  0  0  0  0  0  0  0  0  0
   38.3970   30.7730   41.6460 O   0  0  0  0  0  0  0  0  0  0  0  0
   37.1290   30.2540   39.4610 O   0  0  0  0  0  0  0  0  0  0  0  0
   37.1200   31.2100   40.6460 P   0  0  1  0  0  0  0  0  0  0  0  0
   35.6090   31.0440   41.3790 O   0  0  0  0  0  0  0  0  0  0  0  0
   35.0000   31.7630   41.0630 H   0  0  0  0  0  0  0  0  0  0  0  0
   37.2860   32.8170   40.1260 O   0  0  0  0  0  0  0  0  0  0  0  0
   38.5730   33.2280   40.5230 C   0  0  0  0  0  2  0  0  0  0  0  0
   38.6700   34.3300   40.5560 H   0  0  0  0  0  0  0  0  0  0  0  0
  1  9  1  0  0  0  0
  1  2  1  0  0  0  0
  2  7  1  0  0  0  0
  3  2  2  0  0  0  0
  3  8  1  0  0  0  0
  4  3  1  0  0  0  0
  5  6  1  0  0  0  0
  5  4  2  0  0  0  0
  6  1  2  0  0  0  0
  9 10  1  0  0  0  0
  9 11  1  0  0  0  0
 12  9  1  0  0  0  0
 13  5  1  0  0  0  0
 15 14  2  6  0  0  0
 15 16  1  0  0  0  0
 15 13  1  0  0  0  0
 17 16  1  0  0  0  0
 18 19  1  0  0  0  0
 18 15  1  0  0  0  0
 19 20  1  0  0  0  0
M  END
>  <minimizedAffinity>
-4.26727819

$$$$

 OpenBabel03252504473D

 20 20  0  0  0  0  0  0  0  0999 V2000
   37.2260   26.5000   42.0690 C   0  0  0  0  0  0  0  0  0  0  0  0
   37.0670   26.9010   43.4000 C   0  0  0  0  0  0  0  0  0  0  0  0
   37.1790   28.2640   43.6770 C   0  0  0  0  0  0  0  0  0  0  0  0
   37.4300   29.1090   42.6670 N   0  0  0  0  0  0  0  0  0  0  0  0
   37.5770   28.6700   41.3810 C   0  0  0  0  0  0  0  0  0  0  0  0
   37.4730   27.3580   41.0860 N   0  0  0  0  0  0  0  0  0  0  0  0
   36.8640   26.2250   44.2230 H   0  0  0  0  0  0  0  0  0  0  0  0
   37.0610   28.6170   44.7010 H   0  0  0  0  0  0  0  0  0  0  0  0
   37.1080   25.0270   41.7800 C   0  0  0  0  0  0  0  0  0  0  0  0
   36.6860   24.4920   42.6490 H   0  0  0  0  0  0  0  0  0  0  0  0
   38.1470   24.6690   41.5680 H   0  0  0  0  0  0  0  0  0  0  0  0
   36.4440   24.9430   40.8970 H   0  0  0  0  0  0  0  0  0  0  0  0
   37.8340   29.6580   40.4340 O   0  0  0  0  0  0  0  0  0  0  0  0
   36.5060   31.2010   38.8510 O   0  0  0  0  0  0  0  0  0  0  0  0
   36.9980   31.1080   40.2880 P   0  0  1  0  0  0  0  0  0  0  0  0
   35.6250   31.1890   41.2670 O   0  0  0  0  0  0  0  0  0  0  0  0
   35.4980   32.1190   41.5930 H   0  0  0  0  0  0  0  0  0  0  0  0
   38.0020   32.4220   40.6700 O   0  0  0  0  0  0  0  0  0  0  0  0
   37.6270   33.4680   39.8040 C   0  0  0  0  0  2  0  0  0  0  0  0
   38.4150   34.2400   39.7120 H   0  0  0  0  0  0  0  0  0  0  0  0
  1  2  1  0  0  0  0
  2  3  2  0  0  0  0
  2  7  1  0  0  0  0
  3  8  1  0  0  0  0
  4  3  1  0  0  0  0
  5  4  2  0  0  0  0
  6  5  1  0  0  0  0
  6  1  2  0  0  0  0
  9  1  1  0  0  0  0
  9 10  1  0  0  0  0
 11  9  1  0  0  0  0
 12  9  1  0  0  0  0
 13  5  1  0  0  0  0
 15 14  2  6  0  0  0
 15 13  1  0  0  0  0
 15 18  1  0  0  0  0
 15 16  1  0  0  0  0
 16 17  1  0  0  0  0
 19 18  1  0  0  0  0
 20 19  1  0  0  0  0
M  END
>  <minimizedAffinity>
-4.2627883

$$$$

 OpenBabel03252504473D

 20 20  0  0  0  0  0  0  0  0999 V2000
   38.2820   25.6340   42.5070 C   0  0  0  0  0  0  0  0  0  0  0  0
   39.5420   25.7670   43.1030 C   0  0  0  0  0  0  0  0  0  0  0  0
   39.9250   27.0440   43.5160 C   0  0  0  0  0  0  0  0  0  0  0  0
   39.0770   28.0650   43.3240 N   0  0  0  0  0  0  0  0  0  0  0  0
   37.8550   27.8860   42.7380 C   0  0  0  0  0  0  0  0  0  0  0  0
   37.4610   26.6630   42.3300 N   0  0  0  0  0  0  0  0  0  0  0  0
   40.2340   24.9480   43.2610 H   0  0  0  0  0  0  0  0  0  0  0  0
   40.8970   27.1900   43.9840 H   0  0  0  0  0  0  0  0  0  0  0  0
   37.8800   24.2540   42.0600 C   0  0  0  0  0  0  0  0  0  0  0  0
   38.5650   23.4950   42.4770 H   0  0  0  0  0  0  0  0  0  0  0  0
   37.9380   24.2610   40.9430 H   0  0  0  0  0  0  0  0  0  0  0  0
   36.8460   24.1060   42.4290 H   0  0  0  0  0  0  0  0  0  0  0  0
   37.0790   29.0340   42.6030 O   0  0  0  0  0  0  0  0  0  0  0  0
   35.4340   28.6380   40.6560 O   0  0  0  0  0  0  0  0  0  0  0  0
   36.4720   29.6330   41.1550 P   0  0  1  0  0  0  0  0  0  0  0  0
   35.6730   31.1100   41.3240 O   0  0  0  0  0  0  0  0  0  0  0  0
   35.8280   31.6710   40.5200 H   0  0  0  0  0  0  0  0  0  0  0  0
   37.7160   29.8290   40.0170 O   0  0  0  0  0  0  0  0  0  0  0  0
   37.4260   28.9440   38.9600 C   0  0  0  0  0  2  0  0  0  0  0  0
   38.3160   28.7250   38.3400 H   0  0  0  0  0  0  0  0  0  0  0  0
  1  2  1  0  0  0  0
  2  7  1  0  0  0  0
  2  3  2  0  0  0  0
  3  8  1  0  0  0  0
  4  3  1  0  0  0  0
  5  4  2  0  0  0  0
  6  1  2  0  0  0  0
  6  5  1  0  0  0  0
  9 12  1  0  0  0  0
  9 10  1  0  0  0  0
  9  1  1  0  0  0  0
 11  9  1  0  0  0  0
 13  5  1  0  0  0  0
 15 14  2  6  0  0  0
 15 16  1  0  0  0  0
 15 13  1  0  0  0  0
 17 16  1  0  0  0  0
 18 15  1  0  0  0  0
 19 18  1  0  0  0  0
 20 19  1  0  0  0  0
M  END
>  <minimizedAffinity>
-4.03658819

$$$$

 OpenBabel03252504473D

 20 20  0  0  0  0  0  0  0  0999 V2000
   36.0150   29.7780   38.0710 C   0  0  0  0  0  0  0  0  0  0  0  0
   35.1000   28.9580   38.7400 C   0  0  0  0  0  0  0  0  0  0  0  0
   34.9600   29.1410   40.1170 C   0  0  0  0  0  0  0  0  0  0  0  0
   35.7000   30.0820   40.7200 N   0  0  0  0  0  0  0  0  0  0  0  0
   36.5820   30.8600   40.0240 C   0  0  0  0  0  0  0  0  0  0  0  0
   36.7370   30.7030   38.6940 N   0  0  0  0  0  0  0  0  0  0  0  0
   34.4970   28.1950   38.2610 H   0  0  0  0  0  0  0  0  0  0  0  0
   34.2570   28.5230   40.6740 H   0  0  0  0  0  0  0  0  0  0  0  0
   36.1630   29.5700   36.5880 C   0  0  0  0  0  0  0  0  0  0  0  0
   35.3470   28.9350   36.2010 H   0  0  0  0  0  0  0  0  0  0  0  0
   37.1520   29.0680   36.4420 H   0  0  0  0  0  0  0  0  0  0  0  0
   36.1320   30.5810   36.1360 H   0  0  0  0  0  0  0  0  0  0  0  0
   37.2850   31.7960   40.7800 O   0  0  0  0  0  0  0  0  0  0  0  0
   37.0960   33.9640   39.3950 O   0  0  0  0  0  0  0  0  0  0  0  0
   38.1070   33.1250   40.1630 P   0  0  1  0  0  0  0  0  0  0  0  0
   38.7490   34.1280   41.3580 O   0  0  0  0  0  0  0  0  0  0  0  0
   39.6140   34.5090   41.0500 H   0  0  0  0  0  0  0  0  0  0  0  0
   39.3740   32.6290   39.1480 O   0  0  0  0  0  0  0  0  0  0  0  0
   40.4330   33.5310   39.3710 C   0  0  0  0  0  2  0  0  0  0  0  0
   41.1660   33.5310   38.5410 H   0  0  0  0  0  0  0  0  0  0  0  0
  1  6  2  0  0  0  0
  1  2  1  0  0  0  0
  2  3  2  0  0  0  0
  3  8  1  0  0  0  0
  3  4  1  0  0  0  0
  5  4  2  0  0  0  0
  5 13  1  0  0  0  0
  6  5  1  0  0  0  0
  7  2  1  0  0  0  0
  9  1  1  0  0  0  0
 10  9  1  0  0  0  0
 11  9  1  0  0  0  0
 12  9  1  0  0  0  0
 15 14  2  6  0  0  0
 15 13  1  0  0  0  0
 15 16  1  0  0  0  0
 17 16  1  0  0  0  0
 18 19  1  0  0  0  0
 18 15  1  0  0  0  0
 20 19  1  0  0  0  0
M  END
>  <minimizedAffinity>
-3.95331478

$$$$

 OpenBabel03252504473D

 20 20  0  0  0  0  0  0  0  0999 V2000
   38.6300   31.8760   40.8880 C   0  0  0  0  0  0  0  0  0  0  0  0
   37.3520   32.0740   40.3530 C   0  0  0  0  0  0  0  0  0  0  0  0
   36.3670   31.1420   40.6820 C   0  0  0  0  0  0  0  0  0  0  0  0
   36.6910   30.1180   41.4840 N   0  0  0  0  0  0  0  0  0  0  0  0
   37.9540   29.9660   41.9830 C   0  0  0  0  0  0  0  0  0  0  0  0
   38.9240   30.8520   41.6810 N   0  0  0  0  0  0  0  0  0  0  0  0
   37.0810   32.8990   39.7040 H   0  0  0  0  0  0  0  0  0  0  0  0
   35.3590   31.2620   40.2860 H   0  0  0  0  0  0  0  0  0  0  0  0
   39.6880   32.8830   40.5240 C   0  0  0  0  0  0  0  0  0  0  0  0
   39.2330   33.7730   40.0540 H   0  0  0  0  0  0  0  0  0  0  0  0
   40.3720   32.3680   39.8040 H   0  0  0  0  0  0  0  0  0  0  0  0
   40.1940   33.1470   41.4730 H   0  0  0  0  0  0  0  0  0  0  0  0
   38.1470   28.8560   42.8020 O   0  0  0  0  0  0  0  0  0  0  0  0
   36.2430   27.3320   43.6420 O   0  0  0  0  0  0  0  0  0  0  0  0
   37.3770   27.3730   42.6280 P   0  0  1  0  0  0  0  0  0  0  0  0
   36.6680   27.1610   41.1110 O   0  0  0  0  0  0  0  0  0  0  0  0
   36.7370   26.2090   40.8360 H   0  0  0  0  0  0  0  0  0  0  0  0
   38.4660   26.0970   42.8880 O   0  0  0  0  0  0  0  0  0  0  0  0
   39.5170   26.6280   43.6600 C   0  0  0  0  0  2  0  0  0  0  0  0
   40.4350   26.0110   43.6020 H   0  0  0  0  0  0  0  0  0  0  0  0
  1  6  1  0  0  0  0
  2  3  1  0  0  0  0
  2  1  2  0  0  0  0
  3  4  2  0  0  0  0
  4  5  1  0  0  0  0
  5 13  1  0  0  0  0
  6  5  2  0  0  0  0
  7  2  1  0  0  0  0
  8  3  1  0  0  0  0
  9  1  1  0  0  0  0
  9 12  1  0  0  0  0
 10  9  1  0  0  0  0
 11  9  1  0  0  0  0
 15 13  1  0  0  0  0
 15 18  1  0  0  0  0
 15 14  2  1  0  0  0
 16 15  1  0  0  0  0
 17 16  1  0  0  0  0
 18 19  1  0  0  0  0
 20 19  1  0  0  0  0
M  END
>  <minimizedAffinity>
-3.69377398

$$$$

 OpenBabel03252504473D

 20 20  0  0  0  0  0  0  0  0999 V2000
   37.4670   26.9720   41.7230 C   0  0  0  0  0  0  0  0  0  0  0  0
   37.4200   27.0770   43.1180 C   0  0  0  0  0  0  0  0  0  0  0  0
   37.6560   28.3340   43.6760 C   0  0  0  0  0  0  0  0  0  0  0  0
   37.9130   29.3640   42.8580 N   0  0  0  0  0  0  0  0  0  0  0  0
   37.9480   29.2140   41.5000 C   0  0  0  0  0  0  0  0  0  0  0  0
   37.7240   28.0100   40.9350 N   0  0  0  0  0  0  0  0  0  0  0  0
   37.2140   26.2490   43.7880 H   0  0  0  0  0  0  0  0  0  0  0  0
   37.6280   28.4570   44.7580 H   0  0  0  0  0  0  0  0  0  0  0  0
   37.2160   25.6120   41.1310 C   0  0  0  0  0  0  0  0  0  0  0  0
   36.8040   24.9260   41.8920 H   0  0  0  0  0  0  0  0  0  0  0  0
   38.2080   25.2430   40.7680 H   0  0  0  0  0  0  0  0  0  0  0  0
   36.4950   25.7700   40.3040 H   0  0  0  0  0  0  0  0  0  0  0  0
   38.2270   30.3690   40.7740 O   0  0  0  0  0  0  0  0  0  0  0  0
   35.7680   31.1360   40.9040 O   0  0  0  0  0  0  0  0  0  0  0  0
   37.0840   31.4650   40.2130 P   0  0  1  0  0  0  0  0  0  0  0  0
   37.4410   33.0670   40.6070 O   0  0  0  0  0  0  0  0  0  0  0  0
   37.1480   33.6680   39.8730 H   0  0  0  0  0  0  0  0  0  0  0  0
   36.9240   31.3550   38.5260 O   0  0  0  0  0  0  0  0  0  0  0  0
   37.9730   30.5250   38.0850 C   0  0  0  0  0  2  0  0  0  0  0  0
   38.1850   30.6550   37.0060 H   0  0  0  0  0  0  0  0  0  0  0  0
  1  2  1  0  0  0  0
  2  3  2  0  0  0  0
  2  7  1  0  0  0  0
  3  8  1  0  0  0  0
  4  3  1  0  0  0  0
  5  4  2  0  0  0  0
  6  5  1  0  0  0  0
  6  1  2  0  0  0  0
  9  1  1  0  0  0  0
  9 10  1  0  0  0  0
 11  9  1  0  0  0  0
 12  9  1  0  0  0  0
 13  5  1  0  0  0  0
 15 16  1  0  0  0  0
 15 13  1  0  0  0  0
 15 14  2  1  0  0  0
 17 16  1  0  0  0  0
 18 15  1  0  0  0  0
 19 18  1  0  0  0  0
 20 19  1  0  0  0  0
M  END
>  <minimizedAffinity>
-3.67952657

$$$$

 OpenBabel03252504473D

 20 20  0  0  0  0  0  0  0  0999 V2000
   37.0290   28.5020   42.3450 C   0  0  0  0  0  0  0  0  0  0  0  0
   36.5510   27.7240   41.2850 C   0  0  0  0  0  0  0  0  0  0  0  0
   36.4040   28.3480   40.0460 C   0  0  0  0  0  0  0  0  0  0  0  0
   36.7240   29.6450   39.9360 N   0  0  0  0  0  0  0  0  0  0  0  0
   37.1880   30.3650   41.0010 C   0  0  0  0  0  0  0  0  0  0  0  0
   37.3390   29.7860   42.2090 N   0  0  0  0  0  0  0  0  0  0  0  0
   36.2890   26.6740   41.3640 H   0  0  0  0  0  0  0  0  0  0  0  0
   36.0350   27.7770   39.1950 H   0  0  0  0  0  0  0  0  0  0  0  0
   37.1790   27.8210   43.6800 C   0  0  0  0  0  0  0  0  0  0  0  0
   37.0970   26.7250   43.5690 H   0  0  0  0  0  0  0  0  0  0  0  0
   36.3510   28.2130   44.3230 H   0  0  0  0  0  0  0  0  0  0  0  0
   38.1800   28.1100   44.0560 H   0  0  0  0  0  0  0  0  0  0  0  0
   37.4810   31.7020   40.7420 O   0  0  0  0  0  0  0  0  0  0  0  0
   38.8030   33.9040   40.9770 O   0  0  0  0  0  0  0  0  0  0  0  0
   39.0050   32.4010   40.8420 P   0  0  1  0  0  0  0  0  0  0  0  0
   39.8770   31.9140   42.2030 O   0  0  0  0  0  0  0  0  0  0  0  0
   40.8430   31.8510   41.9800 H   0  0  0  0  0  0  0  0  0  0  0  0
   39.9250   32.0370   39.4630 O   0  0  0  0  0  0  0  0  0  0  0  0
   40.5540   33.2390   39.0810 C   0  0  0  0  0  2  0  0  0  0  0  0
   40.8910   33.2200   38.0270 H   0  0  0  0  0  0  0  0  0  0  0  0
  1  9  1  0  0  0  0
  2  7  1  0  0  0  0
  2  1  2  0  0  0  0
  3  2  1  0  0  0  0
  4  3  2  0  0  0  0
  4  5  1  0  0  0  0
  5  6  2  0  0  0  0
  6  1  1  0  0  0  0
  8  3  1  0  0  0  0
  9 12  1  0  0  0  0
  9 11  1  0  0  0  0
 10  9  1  0  0  0  0
 13 15  1  0  0  0  0
 13  5  1  0  0  0  0
 15 14  2  1  0  0  0
 15 16  1  0  0  0  0
 17 16  1  0  0  0  0
 18 15  1  0  0  0  0
 19 18  1  0  0  0  0
 20 19  1  0  0  0  0
M  END
>  <minimizedAffinity>
-3.676301

$$$$

 OpenBabel03252504473D

 20 20  0  0  0  0  0  0  0  0999 V2000
   39.3550   26.2250   41.5830 C   0  0  0  0  0  0  0  0  0  0  0  0
   38.3600   25.2910   41.8950 C   0  0  0  0  0  0  0  0  0  0  0  0
   37.1320   25.7850   42.3350 C   0  0  0  0  0  0  0  0  0  0  0  0
   36.9690   27.1120   42.4360 N   0  0  0  0  0  0  0  0  0  0  0  0
   37.9710   27.9860   42.1200 C   0  0  0  0  0  0  0  0  0  0  0  0
   39.1670   27.5350   41.6920 N   0  0  0  0  0  0  0  0  0  0  0  0
   38.4830   24.2170   41.8170 H   0  0  0  0  0  0  0  0  0  0  0  0
   36.3310   25.0910   42.5870 H   0  0  0  0  0  0  0  0  0  0  0  0
   40.6790   25.6830   41.1140 C   0  0  0  0  0  0  0  0  0  0  0  0
   40.5950   24.6100   40.8690 H   0  0  0  0  0  0  0  0  0  0  0  0
   41.3940   25.8360   41.9610 H   0  0  0  0  0  0  0  0  0  0  0  0
   40.9490   26.2780   40.2190 H   0  0  0  0  0  0  0  0  0  0  0  0
   37.6610   29.3350   42.2720 O   0  0  0  0  0  0  0  0  0  0  0  0
   36.9160   29.4940   39.8080 O   0  0  0  0  0  0  0  0  0  0  0  0
   37.0950   30.3470   41.0560 P   0  0  1  0  0  0  0  0  0  0  0  0
   35.5840   31.0190   41.3940 O   0  0  0  0  0  0  0  0  0  0  0  0
   35.5350   31.9410   41.0260 H   0  0  0  0  0  0  0  0  0  0  0  0
   38.1880   31.6140   40.7700 O   0  0  0  0  0  0  0  0  0  0  0  0
   39.2960   31.3730   41.6060 C   0  0  0  0  0  2  0  0  0  0  0  0
   39.9040   32.2840   41.7700 H   0  0  0  0  0  0  0  0  0  0  0  0
  1  6  2  0  0  0  0
  1  2  1  0  0  0  0
  2  3  2  0  0  0  0
  3  4  1  0  0  0  0
  3  8  1  0  0  0  0
  5 13  1  0  0  0  0
  5  4  2  0  0  0  0
  6  5  1  0  0  0  0
  7  2  1  0  0  0  0
  9  1  1  0  0  0  0
  9 11  1  0  0  0  0
 10  9  1  0  0  0  0
 12  9  1  0  0  0  0
 15 14  2  6  0  0  0
 15 16  1  0  0  0  0
 15 13  1  0  0  0  0
 17 16  1  0  0  0  0
 18 15  1  0  0  0  0
 18 19  1  0  0  0  0
 19 20  1  0  0  0  0
M  END
>  <minimizedAffinity>
-3.63479137

$$$$
