
 OpenBabel03252500233D

 18 18  0  0  0  0  0  0  0  0999 V2000
   39.3220   31.9680   37.9880 C   0  0  0  0  0  0  0  0  0  0  0  0
   39.7950   32.7090   39.0830 C   0  0  0  0  0  0  0  0  0  0  0  0
   39.3070   32.3380   40.3560 C   0  0  0  0  0  0  0  0  0  0  0  0
   38.4370   31.3210   40.4580 N   0  0  0  0  0  0  0  0  0  0  0  0
   38.0110   30.6330   39.3540 C   0  0  0  0  0  0  0  0  0  0  0  0
   38.4610   30.9700   38.1390 N   0  0  0  0  0  0  0  0  0  0  0  0
   40.4990   33.5240   38.9530 H   0  0  0  0  0  0  0  0  0  0  0  0
   39.6470   32.8820   41.2250 H   0  0  0  0  0  0  0  0  0  0  0  0
   39.8000   32.3340   36.7540 O   0  0  0  0  0  0  0  0  0  0  0  0
   40.6170   31.9480   36.3130 H   0  0  0  0  0  0  0  0  0  0  0  0
   37.1030   29.5700   39.4370 O   0  0  0  0  0  0  0  0  0  0  0  0
   34.5740   29.2120   39.8450 O   0  0  0  0  0  0  0  0  0  0  0  0
   35.8490   29.5090   40.5950 P   0  0  2  0  0  0  0  0  0  0  0  0
   35.6630   30.9990   41.3740 O   0  0  0  0  0  0  0  0  0  0  0  0
   36.3050   31.6690   40.9950 H   0  0  0  0  0  0  0  0  0  0  0  0
   36.0950   28.3020   41.7230 O   0  0  0  0  0  0  0  0  0  0  0  0
   37.2060   28.6840   42.5060 C   0  0  0  0  0  2  0  0  0  0  0  0
   37.6580   29.5450   41.9990 H   0  0  0  0  0  0  0  0  0  0  0  0
  1  6  2  0  0  0  0
  1  2  1  0  0  0  0
  2  3  2  0  0  0  0
  3  4  1  0  0  0  0
  3  8  1  0  0  0  0
  5 11  1  0  0  0  0
  5  4  2  0  0  0  0
  6  5  1  0  0  0  0
  7  2  1  0  0  0  0
  9  1  1  0  0  0  0
 10  9  1  0  0  0  0
 11 13  1  0  0  0  0
 13 12  2  6  0  0  0
 13 14  1  0  0  0  0
 13 16  1  0  0  0  0
 15 14  1  0  0  0  0
 16 17  1  0  0  0  0
 18 17  1  0  0  0  0
M  END
>  <minimizedAffinity>
-4.30524063

$$$$

 OpenBabel03252500233D

 18 18  0  0  0  0  0  0  0  0999 V2000
   36.8350   31.5980   39.9810 C   0  0  0  0  0  0  0  0  0  0  0  0
   37.1450   31.3080   38.6420 C   0  0  0  0  0  0  0  0  0  0  0  0
   37.0440   29.9530   38.2490 C   0  0  0  0  0  0  0  0  0  0  0  0
   36.6660   29.0320   39.1490 N   0  0  0  0  0  0  0  0  0  0  0  0
   36.3750   29.3750   40.4420 C   0  0  0  0  0  0  0  0  0  0  0  0
   36.4640   30.6520   40.8340 N   0  0  0  0  0  0  0  0  0  0  0  0
   37.4470   32.0850   37.9490 H   0  0  0  0  0  0  0  0  0  0  0  0
   37.2740   29.6870   37.2280 H   0  0  0  0  0  0  0  0  0  0  0  0
   36.9350   32.9150   40.3560 O   0  0  0  0  0  0  0  0  0  0  0  0
   36.1850   33.5840   40.3220 H   0  0  0  0  0  0  0  0  0  0  0  0
   35.9790   28.4300   41.3970 O   0  0  0  0  0  0  0  0  0  0  0  0
   36.1280   27.0630   43.5880 O   0  0  0  0  0  0  0  0  0  0  0  0
   36.9450   28.0070   42.7400 P   0  0  2  0  0  0  0  0  0  0  0  0
   37.3170   29.3640   43.6790 O   0  0  0  0  0  0  0  0  0  0  0  0
   36.8750   30.1800   43.2960 H   0  0  0  0  0  0  0  0  0  0  0  0
   38.3490   27.2290   42.2820 O   0  0  0  0  0  0  0  0  0  0  0  0
   39.2580   27.3410   43.3570 C   0  0  0  0  0  2  0  0  0  0  0  0
   38.8170   28.0620   44.0560 H   0  0  0  0  0  0  0  0  0  0  0  0
  1  9  1  0  0  0  0
  1  6  1  0  0  0  0
  2  1  2  0  0  0  0
  3  2  1  0  0  0  0
  3  4  2  0  0  0  0
  4  5  1  0  0  0  0
  5  6  2  0  0  0  0
  5 11  1  0  0  0  0
  7  2  1  0  0  0  0
  8  3  1  0  0  0  0
 10  9  1  0  0  0  0
 11 13  1  0  0  0  0
 13 12  2  1  0  0  0
 13 14  1  0  0  0  0
 15 14  1  0  0  0  0
 16 13  1  0  0  0  0
 16 17  1  0  0  0  0
 17 18  1  0  0  0  0
M  END
>  <minimizedAffinity>
-4.25686836

$$$$

 OpenBabel03252500233D

 18 18  0  0  0  0  0  0  0  0999 V2000
   35.7520   29.4090   40.8740 C   0  0  0  0  0  0  0  0  0  0  0  0
   36.1590   28.2020   41.4660 C   0  0  0  0  0  0  0  0  0  0  0  0
   37.4560   28.1780   42.0280 C   0  0  0  0  0  0  0  0  0  0  0  0
   38.2190   29.2810   41.9720 N   0  0  0  0  0  0  0  0  0  0  0  0
   37.7690   30.4310   41.3810 C   0  0  0  0  0  0  0  0  0  0  0  0
   36.5430   30.4740   40.8440 N   0  0  0  0  0  0  0  0  0  0  0  0
   35.5080   27.3340   41.4880 H   0  0  0  0  0  0  0  0  0  0  0  0
   37.8070   27.2680   42.4930 H   0  0  0  0  0  0  0  0  0  0  0  0
   34.4920   29.4250   40.3300 O   0  0  0  0  0  0  0  0  0  0  0  0
   33.6560   29.6990   40.8170 H   0  0  0  0  0  0  0  0  0  0  0  0
   38.5480   31.5920   41.3120 O   0  0  0  0  0  0  0  0  0  0  0  0
   39.2170   33.9450   40.4720 O   0  0  0  0  0  0  0  0  0  0  0  0
   38.3520   32.7700   40.0910 P   0  0  2  0  0  0  0  0  0  0  0  0
   36.7490   33.3040   40.0080 O   0  0  0  0  0  0  0  0  0  0  0  0
   36.1990   32.8560   40.7170 H   0  0  0  0  0  0  0  0  0  0  0  0
   38.8450   32.2110   38.5960 O   0  0  0  0  0  0  0  0  0  0  0  0
   37.6790   31.8990   37.8630 C   0  0  0  0  0  2  0  0  0  0  0  0
   36.8480   31.9410   38.5760 H   0  0  0  0  0  0  0  0  0  0  0  0
  1  2  1  0  0  0  0
  2  7  1  0  0  0  0
  2  3  2  0  0  0  0
  3  8  1  0  0  0  0
  4  3  1  0  0  0  0
  5  4  2  0  0  0  0
  6  1  2  0  0  0  0
  6  5  1  0  0  0  0
  9 10  1  0  0  0  0
  9  1  1  0  0  0  0
 11  5  1  0  0  0  0
 13 12  2  1  0  0  0
 13 11  1  0  0  0  0
 14 13  1  0  0  0  0
 14 15  1  0  0  0  0
 16 13  1  0  0  0  0
 17 18  1  0  0  0  0
 17 16  1  0  0  0  0
M  END
>  <minimizedAffinity>
-4.04491138

$$$$

 OpenBabel03252500233D

 18 18  0  0  0  0  0  0  0  0999 V2000
   36.7410   27.4820   42.5110 C   0  0  0  0  0  0  0  0  0  0  0  0
   37.3650   26.2630   42.2030 C   0  0  0  0  0  0  0  0  0  0  0  0
   38.1090   26.2190   41.0010 C   0  0  0  0  0  0  0  0  0  0  0  0
   38.1830   27.3160   40.2310 N   0  0  0  0  0  0  0  0  0  0  0  0
   37.5530   28.4790   40.5840 C   0  0  0  0  0  0  0  0  0  0  0  0
   36.8440   28.5410   41.7180 N   0  0  0  0  0  0  0  0  0  0  0  0
   37.2770   25.4000   42.8550 H   0  0  0  0  0  0  0  0  0  0  0  0
   38.6050   25.2990   40.7270 H   0  0  0  0  0  0  0  0  0  0  0  0
   36.0200   27.5180   43.6790 O   0  0  0  0  0  0  0  0  0  0  0  0
   36.3850   27.7900   44.5750 H   0  0  0  0  0  0  0  0  0  0  0  0
   37.6170   29.6340   39.7960 O   0  0  0  0  0  0  0  0  0  0  0  0
   38.2230   31.6110   41.3490 O   0  0  0  0  0  0  0  0  0  0  0  0
   37.1610   31.1760   40.3700 P   0  0  2  0  0  0  0  0  0  0  0  0
   35.6850   31.1110   41.1950 O   0  0  0  0  0  0  0  0  0  0  0  0
   35.3510   30.1650   41.2290 H   0  0  0  0  0  0  0  0  0  0  0  0
   37.0780   32.3040   39.1420 O   0  0  0  0  0  0  0  0  0  0  0  0
   37.3960   31.6350   37.9400 C   0  0  0  0  0  2  0  0  0  0  0  0
   37.7790   30.6500   38.2300 H   0  0  0  0  0  0  0  0  0  0  0  0
  1  9  1  0  0  0  0
  2  1  1  0  0  0  0
  2  7  1  0  0  0  0
  3  2  2  0  0  0  0
  4  5  2  0  0  0  0
  4  3  1  0  0  0  0
  5  6  1  0  0  0  0
  6  1  2  0  0  0  0
  8  3  1  0  0  0  0
  9 10  1  0  0  0  0
 11 13  1  0  0  0  0
 11  5  1  0  0  0  0
 13 14  1  0  0  0  0
 13 12  2  1  0  0  0
 14 15  1  0  0  0  0
 16 13  1  0  0  0  0
 17 18  1  0  0  0  0
 17 16  1  0  0  0  0
M  END
>  <minimizedAffinity>
-4.03284883

$$$$

 OpenBabel03252500233D

 18 18  0  0  0  0  0  0  0  0999 V2000
   39.2800   27.7600   43.0340 C   0  0  0  0  0  0  0  0  0  0  0  0
   38.1510   27.2300   43.6800 C   0  0  0  0  0  0  0  0  0  0  0  0
   36.8910   27.5880   43.1480 C   0  0  0  0  0  0  0  0  0  0  0  0
   36.8330   28.3970   42.0780 N   0  0  0  0  0  0  0  0  0  0  0  0
   37.9700   28.8840   41.4890 C   0  0  0  0  0  0  0  0  0  0  0  0
   39.1720   28.5560   41.9780 N   0  0  0  0  0  0  0  0  0  0  0  0
   38.2450   26.5790   44.5430 H   0  0  0  0  0  0  0  0  0  0  0  0
   35.9970   27.2020   43.6150 H   0  0  0  0  0  0  0  0  0  0  0  0
   40.5000   27.4080   43.5560 O   0  0  0  0  0  0  0  0  0  0  0  0
   41.0450   26.6140   43.2660 H   0  0  0  0  0  0  0  0  0  0  0  0
   37.9320   29.7290   40.3730 O   0  0  0  0  0  0  0  0  0  0  0  0
   38.0100   32.2370   40.9990 O   0  0  0  0  0  0  0  0  0  0  0  0
   37.0960   31.2180   40.3650 P   0  0  2  0  0  0  0  0  0  0  0  0
   35.6840   31.1330   41.2920 O   0  0  0  0  0  0  0  0  0  0  0  0
   35.6020   30.2260   41.7130 H   0  0  0  0  0  0  0  0  0  0  0  0
   36.7310   31.7240   38.8160 O   0  0  0  0  0  0  0  0  0  0  0  0
   37.0690   30.6680   37.9420 C   0  0  0  0  0  2  0  0  0  0  0  0
   37.6350   29.9440   38.5410 H   0  0  0  0  0  0  0  0  0  0  0  0
  1  9  1  0  0  0  0
  1  2  1  0  0  0  0
  2  7  1  0  0  0  0
  3  8  1  0  0  0  0
  3  2  2  0  0  0  0
  4  3  1  0  0  0  0
  5  6  1  0  0  0  0
  5  4  2  0  0  0  0
  6  1  2  0  0  0  0
 10  9  1  0  0  0  0
 11  5  1  0  0  0  0
 13 11  1  0  0  0  0
 13 12  2  1  0  0  0
 13 14  1  0  0  0  0
 14 15  1  0  0  0  0
 16 13  1  0  0  0  0
 17 18  1  0  0  0  0
 17 16  1  0  0  0  0
M  END
>  <minimizedAffinity>
-4.00146341

$$$$

 OpenBabel03252500233D

 18 18  0  0  0  0  0  0  0  0999 V2000
   36.7890   30.4650   41.1400 C   0  0  0  0  0  0  0  0  0  0  0  0
   37.4160   29.6970   42.1350 C   0  0  0  0  0  0  0  0  0  0  0  0
   38.6830   29.1580   41.8140 C   0  0  0  0  0  0  0  0  0  0  0  0
   39.2150   29.3990   40.6060 N   0  0  0  0  0  0  0  0  0  0  0  0
   38.5560   30.1570   39.6740 C   0  0  0  0  0  0  0  0  0  0  0  0
   37.3560   30.6760   39.9590 N   0  0  0  0  0  0  0  0  0  0  0  0
   36.9480   29.5270   43.0990 H   0  0  0  0  0  0  0  0  0  0  0  0
   39.1990   28.5610   42.5510 H   0  0  0  0  0  0  0  0  0  0  0  0
   35.5590   30.9850   41.4580 O   0  0  0  0  0  0  0  0  0  0  0  0
   35.4020   31.8880   41.8700 H   0  0  0  0  0  0  0  0  0  0  0  0
   39.0930   30.4200   38.4080 O   0  0  0  0  0  0  0  0  0  0  0  0
   39.9700   32.7220   39.1960 O   0  0  0  0  0  0  0  0  0  0  0  0
   40.1870   31.6970   38.1110 P   0  0  2  0  0  0  0  0  0  0  0  0
   39.8760   32.4360   36.6220 O   0  0  0  0  0  0  0  0  0  0  0  0
   39.0780   32.0120   36.1860 H   0  0  0  0  0  0  0  0  0  0  0  0
   41.7770   31.1880   38.1740 O   0  0  0  0  0  0  0  0  0  0  0  0
   42.1970   31.2990   39.5170 C   0  0  0  0  0  2  0  0  0  0  0  0
   41.4120   31.8600   40.0390 H   0  0  0  0  0  0  0  0  0  0  0  0
  1  9  1  0  0  0  0
  1  2  1  0  0  0  0
  2  7  1  0  0  0  0
  3  2  2  0  0  0  0
  3  8  1  0  0  0  0
  4  3  1  0  0  0  0
  5  6  1  0  0  0  0
  5  4  2  0  0  0  0
  6  1  2  0  0  0  0
  9 10  1  0  0  0  0
 11  5  1  0  0  0  0
 13 16  1  0  0  0  0
 13 11  1  0  0  0  0
 13 12  2  1  0  0  0
 14 13  1  0  0  0  0
 15 14  1  0  0  0  0
 16 17  1  0  0  0  0
 17 18  1  0  0  0  0
M  END
>  <minimizedAffinity>
-3.94939566

$$$$

 OpenBabel03252500233D

 18 18  0  0  0  0  0  0  0  0999 V2000
   37.5010   26.3700   41.0610 C   0  0  0  0  0  0  0  0  0  0  0  0
   36.9370   26.2560   42.3420 C   0  0  0  0  0  0  0  0  0  0  0  0
   36.7640   27.4570   43.0670 C   0  0  0  0  0  0  0  0  0  0  0  0
   37.1370   28.6210   42.5120 N   0  0  0  0  0  0  0  0  0  0  0  0
   37.6820   28.6710   41.2570 C   0  0  0  0  0  0  0  0  0  0  0  0
   37.8540   27.5450   40.5550 N   0  0  0  0  0  0  0  0  0  0  0  0
   36.6510   25.2930   42.7510 H   0  0  0  0  0  0  0  0  0  0  0  0
   36.3340   27.4130   44.0570 H   0  0  0  0  0  0  0  0  0  0  0  0
   37.6660   25.2000   40.3630 O   0  0  0  0  0  0  0  0  0  0  0  0
   36.9910   24.8030   39.7330 H   0  0  0  0  0  0  0  0  0  0  0  0
   38.0780   29.8750   40.6600 O   0  0  0  0  0  0  0  0  0  0  0  0
   37.7300   32.4370   40.7080 O   0  0  0  0  0  0  0  0  0  0  0  0
   36.9970   31.1630   40.3650 P   0  0  2  0  0  0  0  0  0  0  0  0
   35.6340   31.0600   41.3620 O   0  0  0  0  0  0  0  0  0  0  0  0
   35.7160   30.2720   41.9770 H   0  0  0  0  0  0  0  0  0  0  0  0
   36.5290   31.2350   38.7640 O   0  0  0  0  0  0  0  0  0  0  0  0
   37.6980   31.1180   37.9820 C   0  0  0  0  0  2  0  0  0  0  0  0
   38.5420   31.2120   38.6760 H   0  0  0  0  0  0  0  0  0  0  0  0
  1  2  1  0  0  0  0
  2  7  1  0  0  0  0
  2  3  2  0  0  0  0
  3  8  1  0  0  0  0
  4  3  1  0  0  0  0
  5  4  2  0  0  0  0
  6  1  2  0  0  0  0
  6  5  1  0  0  0  0
  9  1  1  0  0  0  0
 10  9  1  0  0  0  0
 11  5  1  0  0  0  0
 13 11  1  0  0  0  0
 13 12  2  1  0  0  0
 13 14  1  0  0  0  0
 14 15  1  0  0  0  0
 16 13  1  0  0  0  0
 17 18  1  0  0  0  0
 17 16  1  0  0  0  0
M  END
>  <minimizedAffinity>
-3.91111255

$$$$

 OpenBabel03252500233D

 18 18  0  0  0  0  0  0  0  0999 V2000
   37.5050   25.5110   42.2300 C   0  0  0  0  0  0  0  0  0  0  0  0
   38.8530   25.2500   42.5250 C   0  0  0  0  0  0  0  0  0  0  0  0
   39.6470   26.3610   42.8920 C   0  0  0  0  0  0  0  0  0  0  0  0
   39.0900   27.5820   42.9410 N   0  0  0  0  0  0  0  0  0  0  0  0
   37.7680   27.7750   42.6420 C   0  0  0  0  0  0  0  0  0  0  0  0
   37.0000   26.7360   42.2930 N   0  0  0  0  0  0  0  0  0  0  0  0
   39.2610   24.2470   42.4720 H   0  0  0  0  0  0  0  0  0  0  0  0
   40.6890   26.2050   43.1260 H   0  0  0  0  0  0  0  0  0  0  0  0
   36.7410   24.4270   41.8740 O   0  0  0  0  0  0  0  0  0  0  0  0
   36.2090   23.8610   42.5120 H   0  0  0  0  0  0  0  0  0  0  0  0
   37.1670   29.0390   42.6860 O   0  0  0  0  0  0  0  0  0  0  0  0
   38.2250   30.9770   41.3380 O   0  0  0  0  0  0  0  0  0  0  0  0
   37.0330   30.0520   41.3180 P   0  0  2  0  0  0  0  0  0  0  0  0
   35.6340   30.9990   41.3910 O   0  0  0  0  0  0  0  0  0  0  0  0
   35.1420   30.8220   42.2470 H   0  0  0  0  0  0  0  0  0  0  0  0
   37.0600   29.1840   39.8910 O   0  0  0  0  0  0  0  0  0  0  0  0
   38.3300   29.3810   39.3070 C   0  0  0  0  0  2  0  0  0  0  0  0
   38.8090   30.1860   39.8780 H   0  0  0  0  0  0  0  0  0  0  0  0
  1  6  2  0  0  0  0
  1  2  1  0  0  0  0
  2  3  2  0  0  0  0
  3  4  1  0  0  0  0
  3  8  1  0  0  0  0
  5 11  1  0  0  0  0
  5  4  2  0  0  0  0
  6  5  1  0  0  0  0
  7  2  1  0  0  0  0
  9  1  1  0  0  0  0
  9 10  1  0  0  0  0
 13 12  2  6  0  0  0
 13 14  1  0  0  0  0
 13 11  1  0  0  0  0
 14 15  1  0  0  0  0
 16 13  1  0  0  0  0
 17 18  1  0  0  0  0
 17 16  1  0  0  0  0
M  END
>  <minimizedAffinity>
-3.89885163

$$$$

 OpenBabel03252500233D

 18 18  0  0  0  0  0  0  0  0999 V2000
   36.8720   28.9010   36.0660 C   0  0  0  0  0  0  0  0  0  0  0  0
   35.8590   27.9880   36.3980 C   0  0  0  0  0  0  0  0  0  0  0  0
   35.1400   28.2450   37.5880 C   0  0  0  0  0  0  0  0  0  0  0  0
   35.4510   29.3220   38.3260 N   0  0  0  0  0  0  0  0  0  0  0  0
   36.4520   30.1790   37.9520 C   0  0  0  0  0  0  0  0  0  0  0  0
   37.1430   29.9520   36.8280 N   0  0  0  0  0  0  0  0  0  0  0  0
   35.6420   27.1290   35.7700 H   0  0  0  0  0  0  0  0  0  0  0  0
   34.3520   27.5670   37.8790 H   0  0  0  0  0  0  0  0  0  0  0  0
   37.5660   28.6450   34.9090 O   0  0  0  0  0  0  0  0  0  0  0  0
   37.3250   29.0000   34.0000 H   0  0  0  0  0  0  0  0  0  0  0  0
   36.7930   31.3070   38.7070 O   0  0  0  0  0  0  0  0  0  0  0  0
   37.9610   30.0270   40.6270 O   0  0  0  0  0  0  0  0  0  0  0  0
   37.1000   31.2420   40.3850 P   0  0  2  0  0  0  0  0  0  0  0  0
   35.6670   31.0500   41.2630 O   0  0  0  0  0  0  0  0  0  0  0  0
   34.8870   30.9760   40.6380 H   0  0  0  0  0  0  0  0  0  0  0  0
   37.9230   32.5910   40.9250 O   0  0  0  0  0  0  0  0  0  0  0  0
   38.1970   33.3920   39.7950 C   0  0  0  0  0  2  0  0  0  0  0  0
   37.9540   32.7790   38.9190 H   0  0  0  0  0  0  0  0  0  0  0  0
  1  2  2  0  0  0  0
  1  6  1  0  0  0  0
  2  3  1  0  0  0  0
  3  8  1  0  0  0  0
  3  4  2  0  0  0  0
  5  4  1  0  0  0  0
  5 11  1  0  0  0  0
  6  5  2  0  0  0  0
  7  2  1  0  0  0  0
  9  1  1  0  0  0  0
 10  9  1  0  0  0  0
 11 13  1  0  0  0  0
 13 12  2  1  0  0  0
 13 16  1  0  0  0  0
 13 14  1  0  0  0  0
 15 14  1  0  0  0  0
 17 16  1  0  0  0  0
 18 17  1  0  0  0  0
M  END
>  <minimizedAffinity>
-3.78556895

$$$$
