
 OpenBabel03252509323D

 20 20  0  0  0  0  0  0  0  0999 V2000
   36.6130   27.8570   42.6200 C   0  0  0  0  0  0  0  0  0  0  0  0
   35.6640   27.5910   43.1310 H   0  0  0  0  0  0  0  0  0  0  0  0
   37.0790   28.6450   43.2600 H   0  0  0  0  0  0  0  0  0  0  0  0
   37.9020   24.3790   42.1710 C   0  0  0  0  0  0  0  0  0  0  0  0
   37.0470   25.4810   42.1360 C   0  0  0  0  0  0  0  0  0  0  0  0
   37.4910   26.6800   42.6430 C   0  0  0  0  0  0  0  0  0  0  0  0
   38.7670   26.7490   43.1670 N   0  0  0  0  0  0  0  0  0  0  0  0
   39.5660   25.6640   43.1840 C   0  0  0  0  0  0  0  0  0  0  0  0
   39.1460   24.4940   42.6950 N   0  0  0  0  0  0  0  0  0  0  0  0
   37.4690   23.4750   41.7500 H   0  0  0  0  0  0  0  0  0  0  0  0
   36.0490   25.4450   41.7310 H   0  0  0  0  0  0  0  0  0  0  0  0
   40.5810   25.7350   43.6040 H   0  0  0  0  0  0  0  0  0  0  0  0
   36.3920   28.2770   41.3190 O   0  0  0  0  0  0  0  0  0  0  0  0
   38.0360   30.1010   42.2100 O   0  0  0  0  0  0  0  0  0  0  0  0
   36.9500   29.8680   41.2160 P   0  0  2  0  0  0  0  0  0  0  0  0
   35.6150   30.8790   41.4530 O   0  0  0  0  0  0  0  0  0  0  0  0
   35.4470   31.0780   42.3930 H   0  0  0  0  0  0  0  0  0  0  0  0
   37.5820   30.0960   39.6670 O   0  0  0  0  0  0  0  0  0  0  0  0
   36.9250   31.1190   38.9810 C   0  0  0  0  0  2  0  0  0  0  0  0
   35.9290   31.2210   39.4320 H   0  0  0  0  0  0  0  0  0  0  0  0
  1  6  1  0  0  0  0
  1  2  1  0  0  0  0
  1  3  1  0  0  0  0
  4  9  1  0  0  0  0
  5  4  2  0  0  0  0
  5  6  1  0  0  0  0
  6  7  2  0  0  0  0
  7  8  1  0  0  0  0
  8 12  1  0  0  0  0
  9  8  2  0  0  0  0
 10  4  1  0  0  0  0
 11  5  1  0  0  0  0
 13  1  1  0  0  0  0
 15 13  1  0  0  0  0
 15 16  1  0  0  0  0
 15 14  2  1  0  0  0
 16 17  1  0  0  0  0
 18 15  1  0  0  0  0
 19 20  1  0  0  0  0
 19 18  1  0  0  0  0
M  END
>  <minimizedAffinity>
-3.98785377

$$$$

 OpenBabel03252509323D

 20 20  0  0  0  0  0  0  0  0999 V2000
   35.9550   29.8460   40.7360 C   0  0  0  0  0  0  0  0  0  0  0  0
   36.2460   29.7010   39.6740 H   0  0  0  0  0  0  0  0  0  0  0  0
   34.8660   29.6030   40.7760 H   0  0  0  0  0  0  0  0  0  0  0  0
   37.3980   26.6120   41.9280 C   0  0  0  0  0  0  0  0  0  0  0  0
   36.7120   27.5360   41.1400 C   0  0  0  0  0  0  0  0  0  0  0  0
   36.6700   28.8500   41.5460 C   0  0  0  0  0  0  0  0  0  0  0  0
   37.3100   29.2050   42.7170 N   0  0  0  0  0  0  0  0  0  0  0  0
   37.9630   28.2860   43.4530 C   0  0  0  0  0  0  0  0  0  0  0  0
   38.0110   27.0060   43.0700 N   0  0  0  0  0  0  0  0  0  0  0  0
   37.3790   25.6000   41.5330 H   0  0  0  0  0  0  0  0  0  0  0  0
   36.2080   27.2770   40.2230 H   0  0  0  0  0  0  0  0  0  0  0  0
   38.4690   28.5850   44.3840 H   0  0  0  0  0  0  0  0  0  0  0  0
   36.2410   31.1290   41.1740 O   0  0  0  0  0  0  0  0  0  0  0  0
   38.6640   31.5170   40.2770 O   0  0  0  0  0  0  0  0  0  0  0  0
   37.2330   31.8360   40.0030 P   0  0  2  0  0  0  0  0  0  0  0  0
   36.9160   33.4970   40.0200 O   0  0  0  0  0  0  0  0  0  0  0  0
   37.4590   33.9850   40.6670 H   0  0  0  0  0  0  0  0  0  0  0  0
   36.8140   31.1800   38.5050 O   0  0  0  0  0  0  0  0  0  0  0  0
   37.6900   31.5820   37.4960 C   0  0  0  0  0  2  0  0  0  0  0  0
   38.1520   32.5230   37.8260 H   0  0  0  0  0  0  0  0  0  0  0  0
  1  3  1  0  0  0  0
  1 13  1  0  0  0  0
  1  6  1  0  0  0  0
  2  1  1  0  0  0  0
  4  9  1  0  0  0  0
  5  6  1  0  0  0  0
  5  4  2  0  0  0  0
  6  7  2  0  0  0  0
  7  8  1  0  0  0  0
  8 12  1  0  0  0  0
  9  8  2  0  0  0  0
 10  4  1  0  0  0  0
 11  5  1  0  0  0  0
 15 16  1  0  0  0  0
 15 14  2  1  0  0  0
 15 13  1  0  0  0  0
 16 17  1  0  0  0  0
 18 15  1  0  0  0  0
 19 20  1  0  0  0  0
 19 18  1  0  0  0  0
M  END
>  <minimizedAffinity>
-3.95809865

$$$$

 OpenBabel03252509323D

 20 20  0  0  0  0  0  0  0  0999 V2000
   36.6320   27.8440   42.8370 C   0  0  0  0  0  0  0  0  0  0  0  0
   35.9630   27.5450   42.0030 H   0  0  0  0  0  0  0  0  0  0  0  0
   36.0230   27.7060   43.7630 H   0  0  0  0  0  0  0  0  0  0  0  0
   39.9110   26.2600   43.6790 C   0  0  0  0  0  0  0  0  0  0  0  0
   38.8620   27.1800   43.6480 C   0  0  0  0  0  0  0  0  0  0  0  0
   37.7520   26.8940   42.8880 C   0  0  0  0  0  0  0  0  0  0  0  0
   37.7160   25.7060   42.1850 N   0  0  0  0  0  0  0  0  0  0  0  0
   38.7460   24.8400   42.2390 C   0  0  0  0  0  0  0  0  0  0  0  0
   39.8310   25.1070   42.9730 N   0  0  0  0  0  0  0  0  0  0  0  0
   40.7450   26.5680   44.3030 H   0  0  0  0  0  0  0  0  0  0  0  0
   38.8730   28.1110   44.1910 H   0  0  0  0  0  0  0  0  0  0  0  0
   38.7020   23.8970   41.6720 H   0  0  0  0  0  0  0  0  0  0  0  0
   37.0970   29.1390   42.6810 O   0  0  0  0  0  0  0  0  0  0  0  0
   37.7570   29.7880   40.2380 O   0  0  0  0  0  0  0  0  0  0  0  0
   36.5890   29.6610   41.1560 P   0  0  2  0  0  0  0  0  0  0  0  0
   35.7660   31.1220   41.3790 O   0  0  0  0  0  0  0  0  0  0  0  0
   36.3550   31.8990   41.3670 H   0  0  0  0  0  0  0  0  0  0  0  0
   35.5410   28.4940   40.5330 O   0  0  0  0  0  0  0  0  0  0  0  0
   34.6900   29.0230   39.5610 C   0  0  0  0  0  2  0  0  0  0  0  0
   34.6210   30.1030   39.7480 H   0  0  0  0  0  0  0  0  0  0  0  0
  1  6  1  0  0  0  0
  1  3  1  0  0  0  0
  2  1  1  0  0  0  0
  4 10  1  0  0  0  0
  5  4  1  0  0  0  0
  5 11  1  0  0  0  0
  6  5  2  0  0  0  0
  7  8  2  0  0  0  0
  7  6  1  0  0  0  0
  8  9  1  0  0  0  0
  9  4  2  0  0  0  0
 12  8  1  0  0  0  0
 13  1  1  0  0  0  0
 15 14  2  6  0  0  0
 15 16  1  0  0  0  0
 15 13  1  0  0  0  0
 17 16  1  0  0  0  0
 18 15  1  0  0  0  0
 19 20  1  0  0  0  0
 19 18  1  0  0  0  0
M  END
>  <minimizedAffinity>
-3.93481898

$$$$

 OpenBabel03252509323D

 20 20  0  0  0  0  0  0  0  0999 V2000
   36.8870   30.9880   38.7880 C   0  0  0  0  0  0  0  0  0  0  0  0
   35.8660   31.3860   38.9680 H   0  0  0  0  0  0  0  0  0  0  0  0
   36.9460   30.8220   37.6850 H   0  0  0  0  0  0  0  0  0  0  0  0
   40.0640   32.9330   39.0840 C   0  0  0  0  0  0  0  0  0  0  0  0
   39.1660   31.9230   38.7370 C   0  0  0  0  0  0  0  0  0  0  0  0
   37.8550   32.0350   39.1390 C   0  0  0  0  0  0  0  0  0  0  0  0
   37.4770   33.1440   39.8710 N   0  0  0  0  0  0  0  0  0  0  0  0
   38.3710   34.1000   40.1870 C   0  0  0  0  0  0  0  0  0  0  0  0
   39.6470   34.0020   39.8030 N   0  0  0  0  0  0  0  0  0  0  0  0
   41.0750   32.7620   38.7250 H   0  0  0  0  0  0  0  0  0  0  0  0
   39.4440   31.0520   38.1660 H   0  0  0  0  0  0  0  0  0  0  0  0
   38.0540   34.9780   40.7710 H   0  0  0  0  0  0  0  0  0  0  0  0
   37.1240   29.8370   39.5220 O   0  0  0  0  0  0  0  0  0  0  0  0
   34.5850   29.2540   39.7240 O   0  0  0  0  0  0  0  0  0  0  0  0
   35.7860   29.6160   40.5300 P   0  0  2  0  0  0  0  0  0  0  0  0
   35.5820   31.0490   41.4060 O   0  0  0  0  0  0  0  0  0  0  0  0
   35.0300   31.7060   40.9420 H   0  0  0  0  0  0  0  0  0  0  0  0
   36.1340   28.3400   41.5790 O   0  0  0  0  0  0  0  0  0  0  0  0
   37.1930   28.6430   42.4360 C   0  0  0  0  0  2  0  0  0  0  0  0
   37.7880   29.4270   41.9480 H   0  0  0  0  0  0  0  0  0  0  0  0
  1  2  1  0  0  0  0
  1  6  1  0  0  0  0
  1 13  1  0  0  0  0
  3  1  1  0  0  0  0
  4  9  1  0  0  0  0
  5  4  2  0  0  0  0
  5  6  1  0  0  0  0
  6  7  2  0  0  0  0
  7  8  1  0  0  0  0
  8 12  1  0  0  0  0
  9  8  2  0  0  0  0
 10  4  1  0  0  0  0
 11  5  1  0  0  0  0
 13 15  1  0  0  0  0
 15 14  2  6  0  0  0
 15 16  1  0  0  0  0
 15 18  1  0  0  0  0
 17 16  1  0  0  0  0
 18 19  1  0  0  0  0
 20 19  1  0  0  0  0
M  END
>  <minimizedAffinity>
-3.8820436

$$$$

 OpenBabel03252509323D

 20 20  0  0  0  0  0  0  0  0999 V2000
   38.5680   30.8740   41.7460 C   0  0  0  0  0  0  0  0  0  0  0  0
   37.7770   31.5130   42.1910 H   0  0  0  0  0  0  0  0  0  0  0  0
   39.5310   31.3710   42.0130 H   0  0  0  0  0  0  0  0  0  0  0  0
   39.6240   27.5910   43.1860 C   0  0  0  0  0  0  0  0  0  0  0  0
   39.6860   28.8270   42.5430 C   0  0  0  0  0  0  0  0  0  0  0  0
   38.5330   29.5680   42.4180 C   0  0  0  0  0  0  0  0  0  0  0  0
   37.3580   29.0610   42.9360 N   0  0  0  0  0  0  0  0  0  0  0  0
   37.3350   27.8630   43.5520 C   0  0  0  0  0  0  0  0  0  0  0  0
   38.4480   27.1340   43.6790 N   0  0  0  0  0  0  0  0  0  0  0  0
   40.5790   27.0770   43.2390 H   0  0  0  0  0  0  0  0  0  0  0  0
   40.5940   29.2390   42.1330 H   0  0  0  0  0  0  0  0  0  0  0  0
   36.3900   27.4720   43.9600 H   0  0  0  0  0  0  0  0  0  0  0  0
   38.3960   30.7250   40.3790 O   0  0  0  0  0  0  0  0  0  0  0  0
   37.2670   33.0410   39.9470 O   0  0  0  0  0  0  0  0  0  0  0  0
   36.9950   31.5750   39.9670 P   0  0  2  0  0  0  0  0  0  0  0  0
   35.8040   31.1430   41.0870 O   0  0  0  0  0  0  0  0  0  0  0  0
   35.8140   31.6960   41.8900 H   0  0  0  0  0  0  0  0  0  0  0  0
   36.5360   31.0930   38.4160 O   0  0  0  0  0  0  0  0  0  0  0  0
   36.0750   29.7750   38.3940 C   0  0  0  0  0  2  0  0  0  0  0  0
   36.5130   29.2670   39.2640 H   0  0  0  0  0  0  0  0  0  0  0  0
  1  3  1  0  0  0  0
  1  2  1  0  0  0  0
  1  6  1  0  0  0  0
  4 10  1  0  0  0  0
  4  9  1  0  0  0  0
  5  4  2  0  0  0  0
  6  5  1  0  0  0  0
  6  7  2  0  0  0  0
  7  8  1  0  0  0  0
  8  9  2  0  0  0  0
  8 12  1  0  0  0  0
 11  5  1  0  0  0  0
 13  1  1  0  0  0  0
 15 14  2  1  0  0  0
 15 13  1  0  0  0  0
 15 16  1  0  0  0  0
 16 17  1  0  0  0  0
 18 15  1  0  0  0  0
 19 18  1  0  0  0  0
 19 20  1  0  0  0  0
M  END
>  <minimizedAffinity>
-3.72571039

$$$$

 OpenBabel03252509323D

 20 20  0  0  0  0  0  0  0  0999 V2000
   36.5570   27.4560   42.9510 C   0  0  0  0  0  0  0  0  0  0  0  0
   35.6290   27.0470   43.4030 H   0  0  0  0  0  0  0  0  0  0  0  0
   36.9920   28.1250   43.7320 H   0  0  0  0  0  0  0  0  0  0  0  0
   37.9730   24.1520   41.9280 C   0  0  0  0  0  0  0  0  0  0  0  0
   37.0640   25.1940   42.1160 C   0  0  0  0  0  0  0  0  0  0  0  0
   37.4920   26.3430   42.7400 C   0  0  0  0  0  0  0  0  0  0  0  0
   38.8060   26.4230   43.1560 N   0  0  0  0  0  0  0  0  0  0  0  0
   39.6570   25.3970   42.9570 C   0  0  0  0  0  0  0  0  0  0  0  0
   39.2530   24.2760   42.3530 N   0  0  0  0  0  0  0  0  0  0  0  0
   37.5490   23.2860   41.4290 H   0  0  0  0  0  0  0  0  0  0  0  0
   36.0350   25.1490   41.7980 H   0  0  0  0  0  0  0  0  0  0  0  0
   40.7020   25.4770   43.2950 H   0  0  0  0  0  0  0  0  0  0  0  0
   36.2990   28.1110   41.7580 O   0  0  0  0  0  0  0  0  0  0  0  0
   38.3270   29.3350   40.6550 O   0  0  0  0  0  0  0  0  0  0  0  0
   37.2960   29.4750   41.7230 P   0  0  2  0  0  0  0  0  0  0  0  0
   37.9690   29.6390   43.2670 O   0  0  0  0  0  0  0  0  0  0  0  0
   38.7930   29.1310   43.3820 H   0  0  0  0  0  0  0  0  0  0  0  0
   36.3310   30.8130   41.3660 O   0  0  0  0  0  0  0  0  0  0  0  0
   36.9350   31.6580   40.4340 C   0  0  0  0  0  2  0  0  0  0  0  0
   38.0170   31.4790   40.4910 H   0  0  0  0  0  0  0  0  0  0  0  0
  1  2  1  0  0  0  0
  1  3  1  0  0  0  0
  4  5  2  0  0  0  0
  4  9  1  0  0  0  0
  5  6  1  0  0  0  0
  6  1  1  0  0  0  0
  6  7  2  0  0  0  0
  8  7  1  0  0  0  0
  8 12  1  0  0  0  0
  9  8  2  0  0  0  0
 10  4  1  0  0  0  0
 11  5  1  0  0  0  0
 13  1  1  0  0  0  0
 15 14  2  6  0  0  0
 15 13  1  0  0  0  0
 15 16  1  0  0  0  0
 16 17  1  0  0  0  0
 18 15  1  0  0  0  0
 19 20  1  0  0  0  0
 19 18  1  0  0  0  0
M  END
>  <minimizedAffinity>
-3.69780517

$$$$

 OpenBabel03252509323D

 20 20  0  0  0  0  0  0  0  0999 V2000
   38.6850   30.6850   41.3830 C   0  0  0  0  0  0  0  0  0  0  0  0
   39.2740   31.2710   42.1200 H   0  0  0  0  0  0  0  0  0  0  0  0
   39.4050   30.4290   40.5700 H   0  0  0  0  0  0  0  0  0  0  0  0
   38.7080   27.5740   43.4540 C   0  0  0  0  0  0  0  0  0  0  0  0
   39.1330   28.7610   42.8560 C   0  0  0  0  0  0  0  0  0  0  0  0
   38.2650   29.4330   42.0260 C   0  0  0  0  0  0  0  0  0  0  0  0
   37.0060   28.9070   41.8160 N   0  0  0  0  0  0  0  0  0  0  0  0
   36.6290   27.7580   42.4100 C   0  0  0  0  0  0  0  0  0  0  0  0
   37.4630   27.0970   43.2180 N   0  0  0  0  0  0  0  0  0  0  0  0
   39.4570   27.1130   44.0920 H   0  0  0  0  0  0  0  0  0  0  0  0
   40.1120   29.1860   43.0090 H   0  0  0  0  0  0  0  0  0  0  0  0
   35.6210   27.3520   42.2330 H   0  0  0  0  0  0  0  0  0  0  0  0
   37.5850   31.3940   40.9290 O   0  0  0  0  0  0  0  0  0  0  0  0
   39.1610   33.4760   41.0220 O   0  0  0  0  0  0  0  0  0  0  0  0
   38.1780   32.7710   40.1500 P   0  0  2  0  0  0  0  0  0  0  0  0
   36.8440   33.7320   39.7540 O   0  0  0  0  0  0  0  0  0  0  0  0
   36.5840   34.3410   40.4710 H   0  0  0  0  0  0  0  0  0  0  0  0
   38.9690   32.2700   38.7450 O   0  0  0  0  0  0  0  0  0  0  0  0
   40.3020   32.6830   38.7210 C   0  0  0  0  0  2  0  0  0  0  0  0
   40.3800   33.5570   39.3820 H   0  0  0  0  0  0  0  0  0  0  0  0
  1  6  1  0  0  0  0
  1  2  1  0  0  0  0
  3  1  1  0  0  0  0
  4 10  1  0  0  0  0
  5 11  1  0  0  0  0
  5  4  2  0  0  0  0
  6  5  1  0  0  0  0
  7  6  2  0  0  0  0
  7  8  1  0  0  0  0
  8  9  2  0  0  0  0
  9  4  1  0  0  0  0
 12  8  1  0  0  0  0
 13  1  1  0  0  0  0
 15 13  1  0  0  0  0
 15 14  2  1  0  0  0
 16 15  1  0  0  0  0
 16 17  1  0  0  0  0
 18 15  1  0  0  0  0
 19 18  1  0  0  0  0
 19 20  1  0  0  0  0
M  END
>  <minimizedAffinity>
-3.66943669

$$$$

 OpenBabel03252509323D

 20 20  0  0  0  0  0  0  0  0999 V2000
   36.4540   31.1030   40.8400 C   0  0  0  0  0  0  0  0  0  0  0  0
   35.3940   31.2540   41.1340 H   0  0  0  0  0  0  0  0  0  0  0  0
   37.0040   31.9730   41.2730 H   0  0  0  0  0  0  0  0  0  0  0  0
   36.7650   27.5520   41.9620 C   0  0  0  0  0  0  0  0  0  0  0  0
   36.2790   28.6930   41.3230 C   0  0  0  0  0  0  0  0  0  0  0  0
   36.9420   29.8860   41.5010 C   0  0  0  0  0  0  0  0  0  0  0  0
   38.0650   29.9080   42.3050 N   0  0  0  0  0  0  0  0  0  0  0  0
   38.5060   28.7870   42.9070 C   0  0  0  0  0  0  0  0  0  0  0  0
   37.8710   27.6230   42.7420 N   0  0  0  0  0  0  0  0  0  0  0  0
   36.1810   26.6580   41.7650 H   0  0  0  0  0  0  0  0  0  0  0  0
   35.4060   28.6940   40.6910 H   0  0  0  0  0  0  0  0  0  0  0  0
   39.4030   28.8210   43.5440 H   0  0  0  0  0  0  0  0  0  0  0  0
   36.5940   31.0040   39.4660 O   0  0  0  0  0  0  0  0  0  0  0  0
   37.0870   33.5690   39.4870 O   0  0  0  0  0  0  0  0  0  0  0  0
   37.6090   32.2660   38.9850 P   0  0  2  0  0  0  0  0  0  0  0  0
   37.7120   32.2060   37.2970 O   0  0  0  0  0  0  0  0  0  0  0  0
   37.0030   32.7060   36.8520 H   0  0  0  0  0  0  0  0  0  0  0  0
   39.1290   31.9970   39.6680 O   0  0  0  0  0  0  0  0  0  0  0  0
   39.8170   33.1900   39.8970 C   0  0  0  0  0  2  0  0  0  0  0  0
   39.4000   33.9380   39.2100 H   0  0  0  0  0  0  0  0  0  0  0  0
  1  2  1  0  0  0  0
  1  3  1  0  0  0  0
  1  6  1  0  0  0  0
  4  9  1  0  0  0  0
  5  6  1  0  0  0  0
  5  4  2  0  0  0  0
  6  7  2  0  0  0  0
  7  8  1  0  0  0  0
  8 12  1  0  0  0  0
  9  8  2  0  0  0  0
 10  4  1  0  0  0  0
 11  5  1  0  0  0  0
 13  1  1  0  0  0  0
 15 13  1  0  0  0  0
 15 14  2  1  0  0  0
 15 18  1  0  0  0  0
 16 15  1  0  0  0  0
 17 16  1  0  0  0  0
 18 19  1  0  0  0  0
 20 19  1  0  0  0  0
M  END
>  <minimizedAffinity>
-3.59794855

$$$$

 OpenBabel03252509323D

 20 20  0  0  0  0  0  0  0  0999 V2000
   37.3210   27.8070   40.0820 C   0  0  0  0  0  0  0  0  0  0  0  0
   38.3120   28.2450   40.3240 H   0  0  0  0  0  0  0  0  0  0  0  0
   37.2500   27.8410   38.9680 H   0  0  0  0  0  0  0  0  0  0  0  0
   37.1140   24.7100   42.1620 C   0  0  0  0  0  0  0  0  0  0  0  0
   37.0960   26.0570   41.8020 C   0  0  0  0  0  0  0  0  0  0  0  0
   37.3330   26.3960   40.4900 C   0  0  0  0  0  0  0  0  0  0  0  0
   37.5770   25.3880   39.5770 N   0  0  0  0  0  0  0  0  0  0  0  0
   37.5860   24.0970   39.9600 C   0  0  0  0  0  0  0  0  0  0  0  0
   37.3580   23.7560   41.2320 N   0  0  0  0  0  0  0  0  0  0  0  0
   36.9170   24.5350   43.2160 H   0  0  0  0  0  0  0  0  0  0  0  0
   36.9070   26.8560   42.5010 H   0  0  0  0  0  0  0  0  0  0  0  0
   37.7820   23.3060   39.2210 H   0  0  0  0  0  0  0  0  0  0  0  0
   36.2930   28.4890   40.7110 O   0  0  0  0  0  0  0  0  0  0  0  0
   37.8460   29.9090   42.2590 O   0  0  0  0  0  0  0  0  0  0  0  0
   36.8940   30.0150   41.1160 P   0  0  2  0  0  0  0  0  0  0  0  0
   35.5620   30.9990   41.4610 O   0  0  0  0  0  0  0  0  0  0  0  0
   35.2770   30.9460   42.3920 H   0  0  0  0  0  0  0  0  0  0  0  0
   37.7270   30.6150   39.7760 O   0  0  0  0  0  0  0  0  0  0  0  0
   37.0510   31.6780   39.1740 C   0  0  0  0  0  2  0  0  0  0  0  0
   35.9920   31.5790   39.4450 H   0  0  0  0  0  0  0  0  0  0  0  0
  1  2  1  0  0  0  0
  1  6  1  0  0  0  0
  1 13  1  0  0  0  0
  3  1  1  0  0  0  0
  4 10  1  0  0  0  0
  5  4  1  0  0  0  0
  5 11  1  0  0  0  0
  6  5  2  0  0  0  0
  7  8  2  0  0  0  0
  7  6  1  0  0  0  0
  8  9  1  0  0  0  0
  9  4  2  0  0  0  0
 12  8  1  0  0  0  0
 13 15  1  0  0  0  0
 15 16  1  0  0  0  0
 15 14  2  1  0  0  0
 16 17  1  0  0  0  0
 18 15  1  0  0  0  0
 19 20  1  0  0  0  0
 19 18  1  0  0  0  0
M  END
>  <minimizedAffinity>
-3.55807114

$$$$
