
 OpenBabel03242518443D

 28 29  0  0  1  0  0  0  0  0999 V2000
   37.3050   28.8510   42.4080 C   0  0  2  0  0  0  0  0  0  0  0  0
   38.3020   29.8620   42.0240 C   0  0  1  0  0  0  0  0  0  0  0  0
   39.6960   29.2250   41.7890 C   0  0  0  0  0  0  0  0  0  0  0  0
   39.9560   28.5690   42.9990 O   0  0  0  0  0  0  0  0  0  0  0  0
   39.1960   27.4340   43.1560 C   0  0  0  0  0  0  0  0  0  0  0  0
   37.9210   27.4460   42.3170 C   0  0  1  0  0  0  0  0  0  0  0  0
   36.9890   28.9460   43.4730 H   0  0  0  0  0  0  0  0  0  0  0  0
   38.4640   30.6320   42.8070 H   0  0  0  0  0  0  0  0  0  0  0  0
   40.4300   30.0520   41.7120 H   0  0  0  0  0  0  0  0  0  0  0  0
   39.6930   28.5490   40.9390 H   0  0  0  0  0  0  0  0  0  0  0  0
   38.8800   27.3450   44.2170 H   0  0  0  0  0  0  0  0  0  0  0  0
   39.8190   26.5560   42.9200 H   0  0  0  0  0  0  0  0  0  0  0  0
   38.2210   27.1830   41.2940 H   0  0  0  0  0  0  0  0  0  0  0  0
   37.2760   32.5090   39.6980 C   0  0  0  0  0  0  0  0  0  0  0  0
   37.4890   31.9490   38.4300 C   0  0  0  0  0  0  0  0  0  0  0  0
   37.9940   30.6220   38.4010 C   0  0  0  0  0  0  0  0  0  0  0  0
   38.2350   29.9890   39.5740 N   0  0  0  0  0  0  0  0  0  0  0  0
   38.0140   30.5720   40.7540 C   0  0  0  0  0  0  0  0  0  0  0  0
   37.5370   31.8250   40.7940 N   0  0  0  0  0  0  0  0  0  0  0  0
   37.3110   32.4160   37.4720 H   0  0  0  0  0  0  0  0  0  0  0  0
   38.1880   30.1080   37.4630 H   0  0  0  0  0  0  0  0  0  0  0  0
   36.7940   33.7840   39.7220 O   0  0  0  0  0  0  0  0  0  0  0  0
   35.8960   34.0450   39.3390 H   0  0  0  0  0  0  0  0  0  0  0  0
   36.1320   28.8770   41.6610 O   0  0  0  0  0  0  0  0  0  0  0  0
   36.1440   28.2940   40.8670 H   0  0  0  0  0  0  0  0  0  0  0  0
   36.9910   26.5700   42.8590 O   0  0  0  0  0  0  0  0  0  0  0  0
   36.9330   25.3330   42.2840 C   0  0  0  0  0  2  0  0  0  0  0  0
   36.3580   24.6630   42.9870 H   0  0  0  0  0  0  0  0  0  0  0  0
  1  7  1  1  0  0  0
  2  1  1  0  0  0  0
  2  8  1  1  0  0  0
  3  2  1  0  0  0  0
  3  4  1  0  0  0  0
  4  5  1  0  0  0  0
  5 11  1  0  0  0  0
  6 13  1  6  0  0  0
  6  1  1  0  0  0  0
  6 26  1  0  0  0  0
  6  5  1  0  0  0  0
  9  3  1  0  0  0  0
 10  3  1  0  0  0  0
 12  5  1  0  0  0  0
 14 22  1  0  0  0  0
 14 19  1  0  0  0  0
 15 14  2  0  0  0  0
 16 15  1  0  0  0  0
 16 17  2  0  0  0  0
 17 18  1  0  0  0  0
 18 19  2  0  0  0  0
 18  2  1  0  0  0  0
 20 15  1  0  0  0  0
 21 16  1  0  0  0  0
 23 22  1  0  0  0  0
 24  1  1  0  0  0  0
 25 24  1  0  0  0  0
 27 26  1  0  0  0  0
 27 28  1  0  0  0  0
M  END
>  <minimizedAffinity>
-4.78602409

$$$$

 OpenBabel03242518443D

 28 29  0  0  1  0  0  0  0  0999 V2000
   36.8780   28.0790   40.6730 C   0  0  2  0  0  0  0  0  0  0  0  0
   36.7950   29.1510   41.6760 C   0  0  1  0  0  0  0  0  0  0  0  0
   37.4240   28.7190   43.0250 C   0  0  0  0  0  0  0  0  0  0  0  0
   36.7180   27.5530   43.3470 O   0  0  0  0  0  0  0  0  0  0  0  0
   37.0780   26.4850   42.5600 C   0  0  0  0  0  0  0  0  0  0  0  0
   37.6970   26.9030   41.2290 C   0  0  1  0  0  0  0  0  0  0  0  0
   35.8830   27.6350   40.4380 H   0  0  0  0  0  0  0  0  0  0  0  0
   35.7510   29.4360   41.9210 H   0  0  0  0  0  0  0  0  0  0  0  0
   37.1430   29.4790   43.7810 H   0  0  0  0  0  0  0  0  0  0  0  0
   38.4930   28.5490   42.9360 H   0  0  0  0  0  0  0  0  0  0  0  0
   36.1770   25.8830   42.3180 H   0  0  0  0  0  0  0  0  0  0  0  0
   37.7650   25.8390   43.1320 H   0  0  0  0  0  0  0  0  0  0  0  0
   38.7370   27.1800   41.4440 H   0  0  0  0  0  0  0  0  0  0  0  0
   37.4550   32.5330   40.4110 C   0  0  0  0  0  0  0  0  0  0  0  0
   38.8180   32.7340   40.6720 C   0  0  0  0  0  0  0  0  0  0  0  0
   39.5080   31.6600   41.2950 C   0  0  0  0  0  0  0  0  0  0  0  0
   38.8240   30.5300   41.5930 N   0  0  0  0  0  0  0  0  0  0  0  0
   37.5240   30.3940   41.3220 C   0  0  0  0  0  0  0  0  0  0  0  0
   36.8620   31.4010   40.7340 N   0  0  0  0  0  0  0  0  0  0  0  0
   39.4020   33.6160   40.4510 H   0  0  0  0  0  0  0  0  0  0  0  0
   40.5670   31.7270   41.5320 H   0  0  0  0  0  0  0  0  0  0  0  0
   36.7950   33.5680   39.8160 O   0  0  0  0  0  0  0  0  0  0  0  0
   37.0280   33.9190   38.8980 H   0  0  0  0  0  0  0  0  0  0  0  0
   37.4190   28.4640   39.4510 O   0  0  0  0  0  0  0  0  0  0  0  0
   38.3950   28.3480   39.3840 H   0  0  0  0  0  0  0  0  0  0  0  0
   37.5830   25.8710   40.3100 O   0  0  0  0  0  0  0  0  0  0  0  0
   36.8770   24.7790   40.7260 C   0  0  0  0  0  2  0  0  0  0  0  0
   36.6330   24.1680   39.8080 H   0  0  0  0  0  0  0  0  0  0  0  0
  1  7  1  6  0  0  0
  1  6  1  0  0  0  0
  1  2  1  0  0  0  0
  2  8  1  1  0  0  0
  2  3  1  0  0  0  0
  3  4  1  0  0  0  0
  3  9  1  0  0  0  0
  5 12  1  0  0  0  0
  5  4  1  0  0  0  0
  6 13  1  1  0  0  0
  6  5  1  0  0  0  0
 10  3  1  0  0  0  0
 11  5  1  0  0  0  0
 14 15  2  0  0  0  0
 14 19  1  0  0  0  0
 15 16  1  0  0  0  0
 16 21  1  0  0  0  0
 16 17  2  0  0  0  0
 18 17  1  0  0  0  0
 18  2  1  0  0  0  0
 19 18  2  0  0  0  0
 20 15  1  0  0  0  0
 22 14  1  0  0  0  0
 23 22  1  0  0  0  0
 24  1  1  0  0  0  0
 25 24  1  0  0  0  0
 26 27  1  0  0  0  0
 26  6  1  0  0  0  0
 28 27  1  0  0  0  0
M  END
>  <minimizedAffinity>
-4.64194679

$$$$

 OpenBabel03242518443D

 28 29  0  0  1  0  0  0  0  0999 V2000
   38.8790   28.0950   41.3130 C   0  0  2  0  0  0  0  0  0  0  0  0
   37.5520   28.3330   40.7250 C   0  0  1  0  0  0  0  0  0  0  0  0
   36.4750   28.5440   41.8180 C   0  0  0  0  0  0  0  0  0  0  0  0
   36.5770   27.3840   42.5960 O   0  0  0  0  0  0  0  0  0  0  0  0
   37.7100   27.3690   43.3740 C   0  0  0  0  0  0  0  0  0  0  0  0
   38.8170   28.2730   42.8380 C   0  0  1  0  0  0  0  0  0  0  0  0
   39.2270   27.0450   41.1720 H   0  0  0  0  0  0  0  0  0  0  0  0
   37.1860   27.4780   40.1190 H   0  0  0  0  0  0  0  0  0  0  0  0
   35.4850   28.5070   41.3210 H   0  0  0  0  0  0  0  0  0  0  0  0
   36.6540   29.4490   42.3930 H   0  0  0  0  0  0  0  0  0  0  0  0
   38.1250   26.3390   43.4030 H   0  0  0  0  0  0  0  0  0  0  0  0
   37.4360   27.6460   44.4050 H   0  0  0  0  0  0  0  0  0  0  0  0
   38.5490   29.2970   43.1300 H   0  0  0  0  0  0  0  0  0  0  0  0
   37.1260   31.8500   39.7650 C   0  0  0  0  0  0  0  0  0  0  0  0
   37.2870   31.8440   38.3720 C   0  0  0  0  0  0  0  0  0  0  0  0
   37.5420   30.5830   37.7690 C   0  0  0  0  0  0  0  0  0  0  0  0
   37.6130   29.4850   38.5580 N   0  0  0  0  0  0  0  0  0  0  0  0
   37.4520   29.5490   39.8820 C   0  0  0  0  0  0  0  0  0  0  0  0
   37.2110   30.7340   40.4620 N   0  0  0  0  0  0  0  0  0  0  0  0
   37.2370   32.6940   37.7050 H   0  0  0  0  0  0  0  0  0  0  0  0
   37.6780   30.4840   36.6950 H   0  0  0  0  0  0  0  0  0  0  0  0
   36.8830   33.0620   40.3400 O   0  0  0  0  0  0  0  0  0  0  0  0
   36.0660   33.6190   40.1370 H   0  0  0  0  0  0  0  0  0  0  0  0
   39.8940   28.9010   40.8070 O   0  0  0  0  0  0  0  0  0  0  0  0
   40.0300   29.7410   41.3030 H   0  0  0  0  0  0  0  0  0  0  0  0
   40.0450   27.8630   43.3350 O   0  0  0  0  0  0  0  0  0  0  0  0
   40.1380   26.5460   43.6800 C   0  0  0  0  0  2  0  0  0  0  0  0
   41.2350   26.3050   43.7910 H   0  0  0  0  0  0  0  0  0  0  0  0
  1  7  1  6  0  0  0
  1  6  1  0  0  0  0
  2  8  1  6  0  0  0
  2  1  1  0  0  0  0
  2  3  1  0  0  0  0
  3 10  1  0  0  0  0
  3  4  1  0  0  0  0
  4  5  1  0  0  0  0
  5 11  1  0  0  0  0
  5 12  1  0  0  0  0
  6 13  1  1  0  0  0
  6 26  1  0  0  0  0
  6  5  1  0  0  0  0
  9  3  1  0  0  0  0
 14 22  1  0  0  0  0
 14 19  1  0  0  0  0
 15 14  2  0  0  0  0
 16 15  1  0  0  0  0
 16 17  2  0  0  0  0
 17 18  1  0  0  0  0
 18 19  2  0  0  0  0
 18  2  1  0  0  0  0
 20 15  1  0  0  0  0
 21 16  1  0  0  0  0
 23 22  1  0  0  0  0
 24 25  1  0  0  0  0
 24  1  1  0  0  0  0
 26 27  1  0  0  0  0
 27 28  1  0  0  0  0
M  END
>  <minimizedAffinity>
-4.4759407

$$$$

 OpenBabel03242518443D

 28 29  0  0  1  0  0  0  0  0999 V2000
   37.2350   25.7440   40.8700 C   0  0  2  0  0  0  0  0  0  0  0  0
   37.6320   26.7330   41.8840 C   0  0  1  0  0  0  0  0  0  0  0  0
   39.0670   26.4670   42.4060 C   0  0  0  0  0  0  0  0  0  0  0  0
   38.9990   25.1450   42.8650 O   0  0  0  0  0  0  0  0  0  0  0  0
   38.9440   24.2340   41.8380 C   0  0  0  0  0  0  0  0  0  0  0  0
   38.4240   24.8310   40.5340 C   0  0  1  0  0  0  0  0  0  0  0  0
   36.4470   25.0470   41.2400 H   0  0  0  0  0  0  0  0  0  0  0  0
   36.9860   26.7140   42.7860 H   0  0  0  0  0  0  0  0  0  0  0  0
   39.2190   27.1060   43.2990 H   0  0  0  0  0  0  0  0  0  0  0  0
   39.8120   26.6010   41.6270 H   0  0  0  0  0  0  0  0  0  0  0  0
   38.2510   23.4100   42.1120 H   0  0  0  0  0  0  0  0  0  0  0  0
   39.9450   23.7930   41.7020 H   0  0  0  0  0  0  0  0  0  0  0  0
   39.2630   25.3810   40.0890 H   0  0  0  0  0  0  0  0  0  0  0  0
   36.6230   30.2000   41.2220 C   0  0  0  0  0  0  0  0  0  0  0  0
   37.7270   30.7540   40.5570 C   0  0  0  0  0  0  0  0  0  0  0  0
   38.8320   29.8900   40.3370 C   0  0  0  0  0  0  0  0  0  0  0  0
   38.7580   28.6100   40.7730 N   0  0  0  0  0  0  0  0  0  0  0  0
   37.6800   28.1350   41.4020 C   0  0  0  0  0  0  0  0  0  0  0  0
   36.6300   28.9420   41.6150 N   0  0  0  0  0  0  0  0  0  0  0  0
   37.8280   31.7670   40.1930 H   0  0  0  0  0  0  0  0  0  0  0  0
   39.7290   30.2340   39.8280 H   0  0  0  0  0  0  0  0  0  0  0  0
   35.5640   31.0330   41.4340 O   0  0  0  0  0  0  0  0  0  0  0  0
   35.0350   31.4580   40.6860 H   0  0  0  0  0  0  0  0  0  0  0  0
   36.7370   26.2870   39.6900 O   0  0  0  0  0  0  0  0  0  0  0  0
   37.4190   26.4470   38.9980 H   0  0  0  0  0  0  0  0  0  0  0  0
   37.9320   23.8250   39.7160 O   0  0  0  0  0  0  0  0  0  0  0  0
   37.7270   22.6160   40.3180 C   0  0  0  0  0  2  0  0  0  0  0  0
   37.0790   22.0030   39.6260 H   0  0  0  0  0  0  0  0  0  0  0  0
  1  7  1  1  0  0  0
  1  2  1  0  0  0  0
  2  3  1  0  0  0  0
  2  8  1  1  0  0  0
  3  4  1  0  0  0  0
  3  9  1  0  0  0  0
  5 11  1  0  0  0  0
  5  4  1  0  0  0  0
  6 13  1  6  0  0  0
  6  1  1  0  0  0  0
  6  5  1  0  0  0  0
 10  3  1  0  0  0  0
 12  5  1  0  0  0  0
 14 22  1  0  0  0  0
 14 19  1  0  0  0  0
 15 14  2  0  0  0  0
 16 15  1  0  0  0  0
 16 17  2  0  0  0  0
 17 18  1  0  0  0  0
 18 19  2  0  0  0  0
 18  2  1  0  0  0  0
 20 15  1  0  0  0  0
 21 16  1  0  0  0  0
 23 22  1  0  0  0  0
 24  1  1  0  0  0  0
 25 24  1  0  0  0  0
 26 27  1  0  0  0  0
 26  6  1  0  0  0  0
 28 27  1  0  0  0  0
M  END
>  <minimizedAffinity>
-4.31522465

$$$$

 OpenBabel03242518443D

 28 29  0  0  1  0  0  0  0  0999 V2000
   37.9480   28.9110   42.3370 C   0  0  2  0  0  0  0  0  0  0  0  0
   36.9710   27.8750   41.9710 C   0  0  1  0  0  0  0  0  0  0  0  0
   36.1680   28.2720   40.7050 C   0  0  0  0  0  0  0  0  0  0  0  0
   35.6140   29.5100   41.0540 O   0  0  0  0  0  0  0  0  0  0  0  0
   36.5470   30.5180   41.0740 C   0  0  0  0  0  0  0  0  0  0  0  0
   37.9740   30.0110   41.2640 C   0  0  1  0  0  0  0  0  0  0  0  0
   37.6710   29.4480   43.2750 H   0  0  0  0  0  0  0  0  0  0  0  0
   36.2060   27.7020   42.7560 H   0  0  0  0  0  0  0  0  0  0  0  0
   35.3230   27.5610   40.6110 H   0  0  0  0  0  0  0  0  0  0  0  0
   36.8030   28.3320   39.8260 H   0  0  0  0  0  0  0  0  0  0  0  0
   36.3350   31.2020   41.9230 H   0  0  0  0  0  0  0  0  0  0  0  0
   36.4550   31.1040   40.1440 H   0  0  0  0  0  0  0  0  0  0  0  0
   38.3020   29.6360   40.2860 H   0  0  0  0  0  0  0  0  0  0  0  0
   38.7050   24.6600   42.3270 C   0  0  0  0  0  0  0  0  0  0  0  0
   38.6400   24.0950   41.0450 C   0  0  0  0  0  0  0  0  0  0  0  0
   37.9820   24.8630   40.0470 C   0  0  0  0  0  0  0  0  0  0  0  0
   37.4670   26.0690   40.3850 N   0  0  0  0  0  0  0  0  0  0  0  0
   37.5580   26.5580   41.6240 C   0  0  0  0  0  0  0  0  0  0  0  0
   38.1780   25.8420   42.5740 N   0  0  0  0  0  0  0  0  0  0  0  0
   39.0360   23.1390   40.7320 H   0  0  0  0  0  0  0  0  0  0  0  0
   37.8860   24.5030   39.0260 H   0  0  0  0  0  0  0  0  0  0  0  0
   39.3360   23.9190   43.2830 O   0  0  0  0  0  0  0  0  0  0  0  0
   40.3110   23.6610   43.2310 H   0  0  0  0  0  0  0  0  0  0  0  0
   39.2440   28.4460   42.5360 O   0  0  0  0  0  0  0  0  0  0  0  0
   39.8090   28.4620   41.7290 H   0  0  0  0  0  0  0  0  0  0  0  0
   38.7760   31.0290   41.7590 O   0  0  0  0  0  0  0  0  0  0  0  0
   38.8820   32.1390   40.9720 C   0  0  0  0  0  2  0  0  0  0  0  0
   39.3150   32.9630   41.6100 H   0  0  0  0  0  0  0  0  0  0  0  0
  1 24  1  0  0  0  0
  1  7  1  1  0  0  0
  2  1  1  0  0  0  0
  2  8  1  1  0  0  0
  3  4  1  0  0  0  0
  3  2  1  0  0  0  0
  4  5  1  0  0  0  0
  5  6  1  0  0  0  0
  5 11  1  0  0  0  0
  6 13  1  6  0  0  0
  6 26  1  0  0  0  0
  6  1  1  0  0  0  0
  9  3  1  0  0  0  0
 10  3  1  0  0  0  0
 12  5  1  0  0  0  0
 14 19  1  0  0  0  0
 14 22  1  0  0  0  0
 15 14  2  0  0  0  0
 16 17  2  0  0  0  0
 16 15  1  0  0  0  0
 17 18  1  0  0  0  0
 18  2  1  0  0  0  0
 18 19  2  0  0  0  0
 20 15  1  0  0  0  0
 21 16  1  0  0  0  0
 23 22  1  0  0  0  0
 25 24  1  0  0  0  0
 27 28  1  0  0  0  0
 27 26  1  0  0  0  0
M  END
>  <minimizedAffinity>
-4.30013609

$$$$

 OpenBabel03242518443D

 28 29  0  0  1  0  0  0  0  0999 V2000
   40.7650   31.5040   39.9260 C   0  0  2  0  0  0  0  0  0  0  0  0
   40.0380   31.9170   41.1360 C   0  0  1  0  0  0  0  0  0  0  0  0
   39.2140   33.2070   40.8910 C   0  0  0  0  0  0  0  0  0  0  0  0
   40.1760   34.1200   40.4390 O   0  0  0  0  0  0  0  0  0  0  0  0
   40.5930   33.8530   39.1570 C   0  0  0  0  0  0  0  0  0  0  0  0
   40.3690   32.4020   38.7430 C   0  0  1  0  0  0  0  0  0  0  0  0
   41.8680   31.6430   40.0210 H   0  0  0  0  0  0  0  0  0  0  0  0
   40.7100   32.1590   41.9850 H   0  0  0  0  0  0  0  0  0  0  0  0
   38.8690   33.5730   41.8790 H   0  0  0  0  0  0  0  0  0  0  0  0
   38.4180   33.0480   40.1700 H   0  0  0  0  0  0  0  0  0  0  0  0
   41.6840   34.0440   39.0760 H   0  0  0  0  0  0  0  0  0  0  0  0
   40.0820   34.5460   38.4680 H   0  0  0  0  0  0  0  0  0  0  0  0
   39.3050   32.3130   38.4870 H   0  0  0  0  0  0  0  0  0  0  0  0
   36.8480   30.1530   41.5640 C   0  0  0  0  0  0  0  0  0  0  0  0
   37.1440   29.1320   42.4790 C   0  0  0  0  0  0  0  0  0  0  0  0
   38.4830   29.0740   42.9510 C   0  0  0  0  0  0  0  0  0  0  0  0
   39.3750   29.9880   42.4990 N   0  0  0  0  0  0  0  0  0  0  0  0
   39.0360   30.9390   41.6260 C   0  0  0  0  0  0  0  0  0  0  0  0
   37.7760   31.0040   41.1740 N   0  0  0  0  0  0  0  0  0  0  0  0
   36.4650   28.3850   42.8650 H   0  0  0  0  0  0  0  0  0  0  0  0
   38.8010   28.3170   43.6630 H   0  0  0  0  0  0  0  0  0  0  0  0
   35.5630   30.2050   41.1110 O   0  0  0  0  0  0  0  0  0  0  0  0
   34.7690   30.3690   41.7140 H   0  0  0  0  0  0  0  0  0  0  0  0
   40.5820   30.1740   39.5620 O   0  0  0  0  0  0  0  0  0  0  0  0
   39.8350   30.0230   38.9390 H   0  0  0  0  0  0  0  0  0  0  0  0
   41.2160   32.0730   37.6950 O   0  0  0  0  0  0  0  0  0  0  0  0
   42.0710   33.0570   37.2900 C   0  0  0  0  0  2  0  0  0  0  0  0
   42.8630   32.5700   36.6500 H   0  0  0  0  0  0  0  0  0  0  0  0
  1  7  1  1  0  0  0
  1  2  1  0  0  0  0
  2 18  1  0  0  0  0
  2  8  1  1  0  0  0
  3  2  1  0  0  0  0
  3  9  1  0  0  0  0
  4  3  1  0  0  0  0
  5  4  1  0  0  0  0
  6 13  1  6  0  0  0
  6  5  1  0  0  0  0
  6  1  1  0  0  0  0
 10  3  1  0  0  0  0
 11  5  1  0  0  0  0
 12  5  1  0  0  0  0
 14 15  1  0  0  0  0
 15 20  1  0  0  0  0
 15 16  2  0  0  0  0
 16 21  1  0  0  0  0
 17 16  1  0  0  0  0
 18 17  2  0  0  0  0
 19 14  2  0  0  0  0
 19 18  1  0  0  0  0
 22 14  1  0  0  0  0
 22 23  1  0  0  0  0
 24  1  1  0  0  0  0
 25 24  1  0  0  0  0
 26  6  1  0  0  0  0
 27 26  1  0  0  0  0
 28 27  1  0  0  0  0
M  END
>  <minimizedAffinity>
-4.28499222

$$$$

 OpenBabel03242518443D

 28 29  0  0  1  0  0  0  0  0999 V2000
   38.9330   31.6040   40.6810 C   0  0  2  0  0  0  0  0  0  0  0  0
   37.5160   31.9750   40.5460 C   0  0  1  0  0  0  0  0  0  0  0  0
   37.3300   33.1610   39.5670 C   0  0  0  0  0  0  0  0  0  0  0  0
   38.1520   34.1570   40.1110 O   0  0  0  0  0  0  0  0  0  0  0  0
   39.4880   33.8960   39.9230 C   0  0  0  0  0  0  0  0  0  0  0  0
   39.7850   32.4170   39.6940 C   0  0  1  0  0  0  0  0  0  0  0  0
   39.3490   31.8620   41.6830 H   0  0  0  0  0  0  0  0  0  0  0  0
   37.0630   32.3130   41.5010 H   0  0  0  0  0  0  0  0  0  0  0  0
   36.2860   33.5190   39.6730 H   0  0  0  0  0  0  0  0  0  0  0  0
   37.6110   32.8960   38.5520 H   0  0  0  0  0  0  0  0  0  0  0  0
   40.0550   34.2000   40.8280 H   0  0  0  0  0  0  0  0  0  0  0  0
   39.8530   34.5090   39.0820 H   0  0  0  0  0  0  0  0  0  0  0  0
   39.5280   32.2080   38.6470 H   0  0  0  0  0  0  0  0  0  0  0  0
   35.8930   29.7450   38.1240 C   0  0  0  0  0  0  0  0  0  0  0  0
   35.0660   28.9320   38.9120 C   0  0  0  0  0  0  0  0  0  0  0  0
   35.0800   29.1810   40.3100 C   0  0  0  0  0  0  0  0  0  0  0  0
   35.8740   30.1670   40.7900 N   0  0  0  0  0  0  0  0  0  0  0  0
   36.6430   30.9120   39.9920 C   0  0  0  0  0  0  0  0  0  0  0  0
   36.6380   30.6860   38.6700 N   0  0  0  0  0  0  0  0  0  0  0  0
   34.4170   28.1360   38.5720 H   0  0  0  0  0  0  0  0  0  0  0  0
   34.4680   28.6000   40.9970 H   0  0  0  0  0  0  0  0  0  0  0  0
   35.8780   29.5020   36.7820 O   0  0  0  0  0  0  0  0  0  0  0  0
   35.0530   29.6030   36.2090 H   0  0  0  0  0  0  0  0  0  0  0  0
   39.2010   30.2510   40.4980 O   0  0  0  0  0  0  0  0  0  0  0  0
   39.4170   30.0020   39.5690 H   0  0  0  0  0  0  0  0  0  0  0  0
   41.1100   32.1480   39.9990 O   0  0  0  0  0  0  0  0  0  0  0  0
   41.6250   32.8250   41.0670 C   0  0  0  0  0  2  0  0  0  0  0  0
   42.5850   32.3100   41.3600 H   0  0  0  0  0  0  0  0  0  0  0  0
  1  7  1  1  0  0  0
  2  1  1  0  0  0  0
  2  8  1  1  0  0  0
  3  9  1  0  0  0  0
  3  4  1  0  0  0  0
  3  2  1  0  0  0  0
  5  4  1  0  0  0  0
  5 11  1  0  0  0  0
  6 13  1  6  0  0  0
  6  5  1  0  0  0  0
  6 26  1  0  0  0  0
  6  1  1  0  0  0  0
 10  3  1  0  0  0  0
 12  5  1  0  0  0  0
 14 19  2  0  0  0  0
 14 15  1  0  0  0  0
 15 16  2  0  0  0  0
 16 17  1  0  0  0  0
 16 21  1  0  0  0  0
 18  2  1  0  0  0  0
 18 17  2  0  0  0  0
 19 18  1  0  0  0  0
 20 15  1  0  0  0  0
 22 14  1  0  0  0  0
 23 22  1  0  0  0  0
 24  1  1  0  0  0  0
 25 24  1  0  0  0  0
 26 27  1  0  0  0  0
 27 28  1  0  0  0  0
M  END
>  <minimizedAffinity>
-4.21240997

$$$$

 OpenBabel03242518443D

 28 29  0  0  1  0  0  0  0  0999 V2000
   38.5570   28.4560   40.7560 C   0  0  2  0  0  0  0  0  0  0  0  0
   37.7650   29.5180   40.1190 C   0  0  1  0  0  0  0  0  0  0  0  0
   36.6210   30.0070   41.0420 C   0  0  0  0  0  0  0  0  0  0  0  0
   35.9130   28.8310   41.3240 O   0  0  0  0  0  0  0  0  0  0  0  0
   36.5880   28.0060   42.1920 C   0  0  0  0  0  0  0  0  0  0  0  0
   38.0940   28.2550   42.2080 C   0  0  1  0  0  0  0  0  0  0  0  0
   38.4020   27.4610   40.2770 H   0  0  0  0  0  0  0  0  0  0  0  0
   37.2630   29.1850   39.1860 H   0  0  0  0  0  0  0  0  0  0  0  0
   35.9490   30.6420   40.4310 H   0  0  0  0  0  0  0  0  0  0  0  0
   37.0020   30.4890   41.9380 H   0  0  0  0  0  0  0  0  0  0  0  0
   36.4430   26.9480   41.8860 H   0  0  0  0  0  0  0  0  0  0  0  0
   36.1560   28.1220   43.1990 H   0  0  0  0  0  0  0  0  0  0  0  0
   38.2540   29.1470   42.8270 H   0  0  0  0  0  0  0  0  0  0  0  0
   39.5590   32.0750   38.1910 C   0  0  0  0  0  0  0  0  0  0  0  0
   39.8980   33.0450   39.1450 C   0  0  0  0  0  0  0  0  0  0  0  0
   39.4920   32.7860   40.4820 C   0  0  0  0  0  0  0  0  0  0  0  0
   38.8170   31.6440   40.7500 N   0  0  0  0  0  0  0  0  0  0  0  0
   38.5210   30.7540   39.8000 C   0  0  0  0  0  0  0  0  0  0  0  0
   38.8980   30.9880   38.5340 N   0  0  0  0  0  0  0  0  0  0  0  0
   40.4350   33.9680   38.9760 H   0  0  0  0  0  0  0  0  0  0  0  0
   39.7140   33.4820   41.2870 H   0  0  0  0  0  0  0  0  0  0  0  0
   39.9480   32.3280   36.9080 O   0  0  0  0  0  0  0  0  0  0  0  0
   40.9140   32.4180   36.6300 H   0  0  0  0  0  0  0  0  0  0  0  0
   39.9320   28.6700   40.7490 O   0  0  0  0  0  0  0  0  0  0  0  0
   40.2730   29.1430   41.5420 H   0  0  0  0  0  0  0  0  0  0  0  0
   38.7540   27.1320   42.6820 O   0  0  0  0  0  0  0  0  0  0  0  0
   38.1450   25.9350   42.4360 C   0  0  0  0  0  2  0  0  0  0  0  0
   38.9100   25.1250   42.6190 H   0  0  0  0  0  0  0  0  0  0  0  0
  1  7  1  6  0  0  0
  1  6  1  0  0  0  0
  2  8  1  6  0  0  0
  2  1  1  0  0  0  0
  2  3  1  0  0  0  0
  3  4  1  0  0  0  0
  3 10  1  0  0  0  0
  4  5  1  0  0  0  0
  5  6  1  0  0  0  0
  5 12  1  0  0  0  0
  6 26  1  0  0  0  0
  6 13  1  1  0  0  0
  9  3  1  0  0  0  0
 11  5  1  0  0  0  0
 14 19  2  0  0  0  0
 14 15  1  0  0  0  0
 15 16  2  0  0  0  0
 16 17  1  0  0  0  0
 16 21  1  0  0  0  0
 18  2  1  0  0  0  0
 18 17  2  0  0  0  0
 19 18  1  0  0  0  0
 20 15  1  0  0  0  0
 22 14  1  0  0  0  0
 23 22  1  0  0  0  0
 24  1  1  0  0  0  0
 24 25  1  0  0  0  0
 27 28  1  0  0  0  0
 27 26  1  0  0  0  0
M  END
>  <minimizedAffinity>
-4.20192623

$$$$

 OpenBabel03242518443D

 28 29  0  0  1  0  0  0  0  0999 V2000
   38.1880   31.5910   38.1490 C   0  0  2  0  0  0  0  0  0  0  0  0
   39.2930   31.7040   39.1140 C   0  0  1  0  0  0  0  0  0  0  0  0
   39.3790   30.4560   40.0290 C   0  0  0  0  0  0  0  0  0  0  0  0
   38.1010   30.3900   40.6000 O   0  0  0  0  0  0  0  0  0  0  0  0
   37.1470   29.9680   39.7050 C   0  0  0  0  0  0  0  0  0  0  0  0
   37.5440   30.1990   38.2500 C   0  0  1  0  0  0  0  0  0  0  0  0
   37.3550   32.2980   38.3700 H   0  0  0  0  0  0  0  0  0  0  0  0
   39.1790   32.5640   39.8060 H   0  0  0  0  0  0  0  0  0  0  0  0
   40.0820   30.6960   40.8520 H   0  0  0  0  0  0  0  0  0  0  0  0
   39.6330   29.5600   39.4700 H   0  0  0  0  0  0  0  0  0  0  0  0
   36.2060   30.5340   39.8740 H   0  0  0  0  0  0  0  0  0  0  0  0
   36.9310   28.9030   39.8940 H   0  0  0  0  0  0  0  0  0  0  0  0
   38.2420   29.3930   37.9880 H   0  0  0  0  0  0  0  0  0  0  0  0
   42.1760   33.0440   37.2800 C   0  0  0  0  0  0  0  0  0  0  0  0
   43.1460   32.0370   37.3880 C   0  0  0  0  0  0  0  0  0  0  0  0
   42.7720   30.8730   38.1110 C   0  0  0  0  0  0  0  0  0  0  0  0
   41.5280   30.8060   38.6420 N   0  0  0  0  0  0  0  0  0  0  0  0
   40.6440   31.7970   38.5070 C   0  0  0  0  0  0  0  0  0  0  0  0
   40.9860   32.9010   37.8270 N   0  0  0  0  0  0  0  0  0  0  0  0
   44.1480   32.0490   36.9810 H   0  0  0  0  0  0  0  0  0  0  0  0
   43.4600   30.0420   38.2440 H   0  0  0  0  0  0  0  0  0  0  0  0
   42.5390   34.1610   36.5870 O   0  0  0  0  0  0  0  0  0  0  0  0
   42.7900   34.1500   35.6080 H   0  0  0  0  0  0  0  0  0  0  0  0
   38.5440   31.8260   36.8250 O   0  0  0  0  0  0  0  0  0  0  0  0
   38.8140   31.0200   36.3280 H   0  0  0  0  0  0  0  0  0  0  0  0
   36.4120   30.2280   37.4500 O   0  0  0  0  0  0  0  0  0  0  0  0
   35.8630   29.0140   37.1510 C   0  0  0  0  0  2  0  0  0  0  0  0
   34.8260   29.2050   36.7500 H   0  0  0  0  0  0  0  0  0  0  0  0
  1  6  1  0  0  0  0
  1  7  1  1  0  0  0
  1  2  1  0  0  0  0
  2  8  1  1  0  0  0
  2  3  1  0  0  0  0
  3  4  1  0  0  0  0
  3  9  1  0  0  0  0
  5 11  1  0  0  0  0
  5 12  1  0  0  0  0
  5  4  1  0  0  0  0
  6 13  1  6  0  0  0
  6  5  1  0  0  0  0
 10  3  1  0  0  0  0
 14 15  2  0  0  0  0
 14 19  1  0  0  0  0
 15 16  1  0  0  0  0
 16 21  1  0  0  0  0
 16 17  2  0  0  0  0
 18 17  1  0  0  0  0
 18  2  1  0  0  0  0
 19 18  2  0  0  0  0
 20 15  1  0  0  0  0
 22 14  1  0  0  0  0
 23 22  1  0  0  0  0
 24  1  1  0  0  0  0
 25 24  1  0  0  0  0
 26  6  1  0  0  0  0
 27 26  1  0  0  0  0
 28 27  1  0  0  0  0
M  END
>  <minimizedAffinity>
-4.18612862

$$$$
