
 OpenBabel03252501093D

 33 35  0  0  1  0  0  0  0  0999 V2000
   37.1300   29.4150   39.6040 O   0  0  0  0  0  0  0  0  0  0  0  0
   37.2690   30.7270   37.5770 C   0  0  1  0  0  0  0  0  0  0  0  0
   38.1430   29.5750   37.3210 C   0  0  0  0  0  0  0  0  0  0  0  0
   36.9370   29.4860   38.2740 C   0  0  1  0  0  0  0  0  0  0  0  0
   36.6560   31.1300   36.7650 H   0  0  0  0  0  0  0  0  0  0  0  0
   39.1050   29.4700   37.8990 H   0  0  0  0  0  0  0  0  0  0  0  0
   38.0930   28.9940   36.3780 H   0  0  0  0  0  0  0  0  0  0  0  0
   36.1570   28.8120   37.8730 H   0  0  0  0  0  0  0  0  0  0  0  0
   39.8230   32.9240   39.3110 C   0  0  0  0  0  0  0  0  0  0  0  0
   39.2800   31.9180   38.5190 C   0  0  0  0  0  0  0  0  0  0  0  0
   37.8800   31.8170   38.4120 C   0  0  0  0  0  0  0  0  0  0  0  0
   37.1030   32.7050   39.0820 N   0  0  0  0  0  0  0  0  0  0  0  0
   37.6620   33.6790   39.8490 C   0  0  0  0  0  0  0  0  0  0  0  0
   39.0160   33.7860   39.9610 N   0  0  0  0  0  0  0  0  0  0  0  0
   40.8890   33.0200   39.4070 H   0  0  0  0  0  0  0  0  0  0  0  0
   39.9410   31.2510   38.0160 H   0  0  0  0  0  0  0  0  0  0  0  0
   36.9390   34.3280   40.3350 H   0  0  0  0  0  0  0  0  0  0  0  0
   34.5170   29.2430   39.8520 O   0  0  0  0  0  0  0  0  0  0  0  0
   35.8300   29.5000   40.5920 P   0  0  2  0  0  0  0  0  0  0  0  0
   35.6170   30.9960   41.3630 O   0  0  0  0  0  0  0  0  0  0  0  0
   35.0850   31.5920   40.7530 H   0  0  0  0  0  0  0  0  0  0  0  0
   35.8900   28.3200   41.7830 O   0  0  0  0  0  0  0  0  0  0  0  0
   37.0560   27.7630   42.2740 C   0  0  0  0  0  0  0  0  0  0  0  0
   38.0640   28.3770   42.9860 C   0  0  0  0  0  0  0  0  0  0  0  0
   39.1610   27.6960   43.4070 C   0  0  0  0  0  0  0  0  0  0  0  0
   39.2990   26.3510   43.1290 C   0  0  0  0  0  0  0  0  0  0  0  0
   38.2550   25.7650   42.4050 C   0  0  0  0  0  0  0  0  0  0  0  0
   37.1750   26.4640   41.9980 N   0  0  0  0  0  0  0  0  0  0  0  0
   37.8950   29.4390   43.1730 H   0  0  0  0  0  0  0  0  0  0  0  0
   39.9170   28.2430   43.9640 H   0  0  0  0  0  0  0  0  0  0  0  0
   40.1620   25.7890   43.4540 H   0  0  0  0  0  0  0  0  0  0  0  0
   38.3760   24.2970   42.0860 C   0  0  0  0  0  2  0  0  0  0  0  0
   37.3680   23.8250   42.2780 H   0  0  0  0  0  0  0  0  0  0  0  0
  1 19  1  0  0  0  0
  2  5  1  6  0  0  0
  2  4  1  0  0  0  0
  2 11  1  0  0  0  0
  3  2  1  0  0  0  0
  3  6  1  0  0  0  0
  3  4  1  0  0  0  0
  4  8  1  6  0  0  0
  4  1  1  0  0  0  0
  7  3  1  0  0  0  0
  9 15  1  0  0  0  0
  9 14  1  0  0  0  0
 10  9  2  0  0  0  0
 11 10  1  0  0  0  0
 11 12  2  0  0  0  0
 12 13  1  0  0  0  0
 13 14  2  0  0  0  0
 13 17  1  0  0  0  0
 16 10  1  0  0  0  0
 19 18  2  6  0  0  0
 19 20  1  0  0  0  0
 19 22  1  0  0  0  0
 21 20  1  0  0  0  0
 22 23  1  0  0  0  0
 23 24  1  0  0  0  0
 24 29  1  0  0  0  0
 24 25  2  0  0  0  0
 25 30  1  0  0  0  0
 26 25  1  0  0  0  0
 26 31  1  0  0  0  0
 27 26  2  0  0  0  0
 28 23  2  0  0  0  0
 28 27  1  0  0  0  0
 32 33  1  0  0  0  0
 32 27  1  0  0  0  0
M  END
>  <minimizedAffinity>
-5.77185869

$$$$

 OpenBabel03252501093D

 33 35  0  0  1  0  0  0  0  0999 V2000
   36.8710   29.5760   39.3190 O   0  0  0  0  0  0  0  0  0  0  0  0
   37.1260   31.4170   37.7710 C   0  0  1  0  0  0  0  0  0  0  0  0
   37.6060   30.2490   37.0230 C   0  0  0  0  0  0  0  0  0  0  0  0
   36.5470   30.1260   38.1330 C   0  0  1  0  0  0  0  0  0  0  0  0
   36.5570   32.1940   37.2510 H   0  0  0  0  0  0  0  0  0  0  0  0
   38.5630   29.7430   37.3390 H   0  0  0  0  0  0  0  0  0  0  0  0
   37.2830   30.0400   35.9830 H   0  0  0  0  0  0  0  0  0  0  0  0
   35.5680   29.8170   37.7210 H   0  0  0  0  0  0  0  0  0  0  0  0
   40.3840   32.3170   39.4830 C   0  0  0  0  0  0  0  0  0  0  0  0
   39.4910   31.7810   38.5620 C   0  0  0  0  0  0  0  0  0  0  0  0
   38.1120   32.0010   38.7430 C   0  0  0  0  0  0  0  0  0  0  0  0
   37.6970   32.7310   39.8100 N   0  0  0  0  0  0  0  0  0  0  0  0
   38.5930   33.2420   40.6940 C   0  0  0  0  0  0  0  0  0  0  0  0
   39.9300   33.0350   40.5290 N   0  0  0  0  0  0  0  0  0  0  0  0
   41.4410   32.1620   39.3650 H   0  0  0  0  0  0  0  0  0  0  0  0
   39.8760   31.2190   37.7430 H   0  0  0  0  0  0  0  0  0  0  0  0
   38.1410   33.8070   41.5050 H   0  0  0  0  0  0  0  0  0  0  0  0
   34.3370   29.2890   39.9640 O   0  0  0  0  0  0  0  0  0  0  0  0
   35.7440   29.5470   40.5030 P   0  0  2  0  0  0  0  0  0  0  0  0
   35.6180   30.9790   41.4030 O   0  0  0  0  0  0  0  0  0  0  0  0
   34.9780   31.5940   40.9300 H   0  0  0  0  0  0  0  0  0  0  0  0
   36.0260   28.2930   41.5820 O   0  0  0  0  0  0  0  0  0  0  0  0
   37.2470   28.0330   42.1770 C   0  0  0  0  0  0  0  0  0  0  0  0
   37.6770   26.8670   42.7740 C   0  0  0  0  0  0  0  0  0  0  0  0
   38.9150   26.7570   43.3210 C   0  0  0  0  0  0  0  0  0  0  0  0
   39.7900   27.8250   43.2930 C   0  0  0  0  0  0  0  0  0  0  0  0
   39.3160   28.9880   42.6780 C   0  0  0  0  0  0  0  0  0  0  0  0
   38.0800   29.0720   42.1420 N   0  0  0  0  0  0  0  0  0  0  0  0
   36.9400   26.0610   42.7630 H   0  0  0  0  0  0  0  0  0  0  0  0
   39.1890   25.8080   43.7760 H   0  0  0  0  0  0  0  0  0  0  0  0
   40.7790   27.7610   43.7210 H   0  0  0  0  0  0  0  0  0  0  0  0
   40.2480   30.1720   42.6310 C   0  0  0  0  0  2  0  0  0  0  0  0
   40.1760   30.6180   41.5970 H   0  0  0  0  0  0  0  0  0  0  0  0
  1 19  1  0  0  0  0
  2  5  1  6  0  0  0
  2  4  1  0  0  0  0
  2 11  1  0  0  0  0
  3  6  1  0  0  0  0
  3  2  1  0  0  0  0
  3  4  1  0  0  0  0
  4  8  1  6  0  0  0
  4  1  1  0  0  0  0
  7  3  1  0  0  0  0
  9 14  1  0  0  0  0
 10 11  1  0  0  0  0
 10  9  2  0  0  0  0
 11 12  2  0  0  0  0
 12 13  1  0  0  0  0
 13 17  1  0  0  0  0
 14 13  2  0  0  0  0
 15  9  1  0  0  0  0
 16 10  1  0  0  0  0
 19 18  2  6  0  0  0
 19 20  1  0  0  0  0
 19 22  1  0  0  0  0
 21 20  1  0  0  0  0
 22 23  1  0  0  0  0
 23 24  1  0  0  0  0
 24 25  2  0  0  0  0
 25 30  1  0  0  0  0
 26 25  1  0  0  0  0
 26 31  1  0  0  0  0
 27 26  2  0  0  0  0
 28 23  2  0  0  0  0
 28 27  1  0  0  0  0
 29 24  1  0  0  0  0
 32 27  1  0  0  0  0
 33 32  1  0  0  0  0
M  END
>  <minimizedAffinity>
-5.57352924

$$$$

 OpenBabel03252501093D

 33 35  0  0  1  0  0  0  0  0999 V2000
   37.0050   29.5670   39.4780 O   0  0  0  0  0  0  0  0  0  0  0  0
   37.2930   31.2690   37.7840 C   0  0  1  0  0  0  0  0  0  0  0  0
   37.8770   30.0630   37.1850 C   0  0  0  0  0  0  0  0  0  0  0  0
   36.7450   29.9890   38.2260 C   0  0  1  0  0  0  0  0  0  0  0  0
   36.7300   31.9660   37.1550 H   0  0  0  0  0  0  0  0  0  0  0  0
   38.8290   29.6370   37.6120 H   0  0  0  0  0  0  0  0  0  0  0  0
   37.6410   29.7440   36.1490 H   0  0  0  0  0  0  0  0  0  0  0  0
   35.8140   29.5950   37.7790 H   0  0  0  0  0  0  0  0  0  0  0  0
   38.4980   33.7030   40.4250 C   0  0  0  0  0  0  0  0  0  0  0  0
   37.6560   33.0400   39.5390 C   0  0  0  0  0  0  0  0  0  0  0  0
   38.1780   31.9890   38.7620 C   0  0  0  0  0  0  0  0  0  0  0  0
   39.4860   31.6530   38.9030 N   0  0  0  0  0  0  0  0  0  0  0  0
   40.2850   32.3190   39.7770 C   0  0  0  0  0  0  0  0  0  0  0  0
   39.7910   33.3390   40.5350 N   0  0  0  0  0  0  0  0  0  0  0  0
   38.1210   34.5090   41.0300 H   0  0  0  0  0  0  0  0  0  0  0  0
   36.6380   33.3470   39.4740 H   0  0  0  0  0  0  0  0  0  0  0  0
   41.3100   31.9610   39.8010 H   0  0  0  0  0  0  0  0  0  0  0  0
   34.4310   29.2460   39.9150 O   0  0  0  0  0  0  0  0  0  0  0  0
   35.7840   29.5380   40.5650 P   0  0  2  0  0  0  0  0  0  0  0  0
   35.5590   30.9830   41.4240 O   0  0  0  0  0  0  0  0  0  0  0  0
   34.9520   31.5780   40.8870 H   0  0  0  0  0  0  0  0  0  0  0  0
   35.9960   28.3080   41.6870 O   0  0  0  0  0  0  0  0  0  0  0  0
   37.2250   27.8190   42.0880 C   0  0  0  0  0  0  0  0  0  0  0  0
   38.0830   28.3330   43.0360 C   0  0  0  0  0  0  0  0  0  0  0  0
   39.2680   27.7380   43.3270 C   0  0  0  0  0  0  0  0  0  0  0  0
   39.6520   26.5850   42.6720 C   0  0  0  0  0  0  0  0  0  0  0  0
   38.7540   26.0950   41.7190 C   0  0  0  0  0  0  0  0  0  0  0  0
   37.5810   26.7050   41.4480 N   0  0  0  0  0  0  0  0  0  0  0  0
   37.7230   29.2450   43.5170 H   0  0  0  0  0  0  0  0  0  0  0  0
   39.8970   28.1980   44.0860 H   0  0  0  0  0  0  0  0  0  0  0  0
   40.5900   26.0940   42.8880 H   0  0  0  0  0  0  0  0  0  0  0  0
   39.1440   24.8360   40.9860 C   0  0  0  0  0  2  0  0  0  0  0  0
   38.2300   24.1750   40.9400 H   0  0  0  0  0  0  0  0  0  0  0  0
  1 19  1  0  0  0  0
  2  5  1  6  0  0  0
  2  4  1  0  0  0  0
  2 11  1  0  0  0  0
  3  6  1  0  0  0  0
  3  2  1  0  0  0  0
  3  4  1  0  0  0  0
  4  8  1  6  0  0  0
  4  1  1  0  0  0  0
  7  3  1  0  0  0  0
  9 14  1  0  0  0  0
  9 15  1  0  0  0  0
 10  9  2  0  0  0  0
 11 12  2  0  0  0  0
 11 10  1  0  0  0  0
 12 13  1  0  0  0  0
 13 17  1  0  0  0  0
 13 14  2  0  0  0  0
 16 10  1  0  0  0  0
 19 18  2  6  0  0  0
 19 20  1  0  0  0  0
 19 22  1  0  0  0  0
 21 20  1  0  0  0  0
 22 23  1  0  0  0  0
 23 24  1  0  0  0  0
 24 25  2  0  0  0  0
 24 29  1  0  0  0  0
 25 30  1  0  0  0  0
 26 31  1  0  0  0  0
 26 25  1  0  0  0  0
 27 26  2  0  0  0  0
 28 27  1  0  0  0  0
 28 23  2  0  0  0  0
 32 27  1  0  0  0  0
 33 32  1  0  0  0  0
M  END
>  <minimizedAffinity>
-5.50647163

$$$$

 OpenBabel03252501093D

 33 35  0  0  1  0  0  0  0  0999 V2000
   37.5880   29.6150   39.9620 O   0  0  0  0  0  0  0  0  0  0  0  0
   38.6680   30.7430   38.1150 C   0  0  1  0  0  0  0  0  0  0  0  0
   37.3110   31.3020   38.1340 C   0  0  0  0  0  0  0  0  0  0  0  0
   37.9920   30.7750   39.4100 C   0  0  1  0  0  0  0  0  0  0  0  0
   39.5160   31.3930   37.8760 H   0  0  0  0  0  0  0  0  0  0  0  0
   36.4370   30.6460   37.8590 H   0  0  0  0  0  0  0  0  0  0  0  0
   37.1200   32.3930   38.0710 H   0  0  0  0  0  0  0  0  0  0  0  0
   38.1940   31.5930   40.1260 H   0  0  0  0  0  0  0  0  0  0  0  0
   37.8830   27.6550   36.0660 C   0  0  0  0  0  0  0  0  0  0  0  0
   37.7520   28.9110   36.6480 C   0  0  0  0  0  0  0  0  0  0  0  0
   38.7940   29.3960   37.4620 C   0  0  0  0  0  0  0  0  0  0  0  0
   39.8930   28.6240   37.6530 N   0  0  0  0  0  0  0  0  0  0  0  0
   39.9930   27.3990   37.0710 C   0  0  0  0  0  0  0  0  0  0  0  0
   38.9910   26.9190   36.2820 N   0  0  0  0  0  0  0  0  0  0  0  0
   37.1000   27.2650   35.4410 H   0  0  0  0  0  0  0  0  0  0  0  0
   36.8660   29.4720   36.4600 H   0  0  0  0  0  0  0  0  0  0  0  0
   40.9180   26.8760   37.2980 H   0  0  0  0  0  0  0  0  0  0  0  0
   35.2050   28.7590   40.6750 O   0  0  0  0  0  0  0  0  0  0  0  0
   36.3840   29.6500   41.0670 P   0  0  2  0  0  0  0  0  0  0  0  0
   35.7100   31.1820   41.3390 O   0  0  0  0  0  0  0  0  0  0  0  0
   34.9780   31.3290   40.6650 H   0  0  0  0  0  0  0  0  0  0  0  0
   36.8980   29.0520   42.5490 O   0  0  0  0  0  0  0  0  0  0  0  0
   37.7750   27.9940   42.7030 C   0  0  0  0  0  0  0  0  0  0  0  0
   39.0640   28.0150   43.1900 C   0  0  0  0  0  0  0  0  0  0  0  0
   39.8120   26.8850   43.2850 C   0  0  0  0  0  0  0  0  0  0  0  0
   39.2940   25.6680   42.8910 C   0  0  0  0  0  0  0  0  0  0  0  0
   37.9830   25.6890   42.4040 C   0  0  0  0  0  0  0  0  0  0  0  0
   37.2600   26.8260   42.3190 N   0  0  0  0  0  0  0  0  0  0  0  0
   39.4140   29.0060   43.4840 H   0  0  0  0  0  0  0  0  0  0  0  0
   40.8220   26.9740   43.6780 H   0  0  0  0  0  0  0  0  0  0  0  0
   39.8700   24.7560   42.9580 H   0  0  0  0  0  0  0  0  0  0  0  0
   37.3890   24.3750   41.9650 C   0  0  0  0  0  2  0  0  0  0  0  0
   36.3330   24.3320   42.3630 H   0  0  0  0  0  0  0  0  0  0  0  0
  1 19  1  0  0  0  0
  2  5  1  6  0  0  0
  2  3  1  0  0  0  0
  2  4  1  0  0  0  0
  3  4  1  0  0  0  0
  4  1  1  0  0  0  0
  4  8  1  1  0  0  0
  6  3  1  0  0  0  0
  7  3  1  0  0  0  0
  9 14  2  0  0  0  0
  9 10  1  0  0  0  0
 10 11  2  0  0  0  0
 11 12  1  0  0  0  0
 11  2  1  0  0  0  0
 13 17  1  0  0  0  0
 13 12  2  0  0  0  0
 14 13  1  0  0  0  0
 15  9  1  0  0  0  0
 16 10  1  0  0  0  0
 19 18  2  6  0  0  0
 19 20  1  0  0  0  0
 19 22  1  0  0  0  0
 21 20  1  0  0  0  0
 22 23  1  0  0  0  0
 23 24  1  0  0  0  0
 24 25  2  0  0  0  0
 24 29  1  0  0  0  0
 25 30  1  0  0  0  0
 26 31  1  0  0  0  0
 26 25  1  0  0  0  0
 27 26  2  0  0  0  0
 28 27  1  0  0  0  0
 28 23  2  0  0  0  0
 32 33  1  0  0  0  0
 32 27  1  0  0  0  0
M  END
>  <minimizedAffinity>
-5.11866236

$$$$

 OpenBabel03252501093D

 33 35  0  0  1  0  0  0  0  0999 V2000
   37.7390   30.4430   40.3970 O   0  0  0  0  0  0  0  0  0  0  0  0
   38.0620   32.8400   40.3720 C   0  0  1  0  0  0  0  0  0  0  0  0
   37.0690   32.5990   39.3180 C   0  0  0  0  0  0  0  0  0  0  0  0
   37.2020   31.6700   40.5370 C   0  0  1  0  0  0  0  0  0  0  0  0
   37.9740   33.7300   41.0020 H   0  0  0  0  0  0  0  0  0  0  0  0
   37.3780   32.0570   38.3780 H   0  0  0  0  0  0  0  0  0  0  0  0
   36.1410   33.2000   39.2320 H   0  0  0  0  0  0  0  0  0  0  0  0
   36.3060   31.7220   41.1820 H   0  0  0  0  0  0  0  0  0  0  0  0
   41.7870   32.1870   40.5890 C   0  0  0  0  0  0  0  0  0  0  0  0
   40.4720   32.4190   40.9750 C   0  0  0  0  0  0  0  0  0  0  0  0
   39.4870   32.5700   39.9800 C   0  0  0  0  0  0  0  0  0  0  0  0
   39.8510   32.4830   38.6760 N   0  0  0  0  0  0  0  0  0  0  0  0
   41.1450   32.2550   38.3290 C   0  0  0  0  0  0  0  0  0  0  0  0
   42.1070   32.1070   39.2820 N   0  0  0  0  0  0  0  0  0  0  0  0
   42.5560   32.0680   41.3320 H   0  0  0  0  0  0  0  0  0  0  0  0
   40.2460   32.4760   42.0150 H   0  0  0  0  0  0  0  0  0  0  0  0
   41.3130   32.2050   37.2560 H   0  0  0  0  0  0  0  0  0  0  0  0
   35.7140   28.8460   40.9170 O   0  0  0  0  0  0  0  0  0  0  0  0
   37.1460   29.2190   41.3040 P   0  0  2  0  0  0  0  0  0  0  0  0
   37.0870   29.5300   42.9710 O   0  0  0  0  0  0  0  0  0  0  0  0
   36.2160   29.9880   43.1750 H   0  0  0  0  0  0  0  0  0  0  0  0
   38.0310   27.8100   41.0820 O   0  0  0  0  0  0  0  0  0  0  0  0
   37.4960   26.5360   41.1260 C   0  0  0  0  0  0  0  0  0  0  0  0
   37.3510   25.7050   42.2160 C   0  0  0  0  0  0  0  0  0  0  0  0
   36.8030   24.4680   42.1050 C   0  0  0  0  0  0  0  0  0  0  0  0
   36.3680   24.0020   40.8810 C   0  0  0  0  0  0  0  0  0  0  0  0
   36.5320   24.8750   39.8000 C   0  0  0  0  0  0  0  0  0  0  0  0
   37.0810   26.1000   39.9360 N   0  0  0  0  0  0  0  0  0  0  0  0
   37.7140   26.1310   43.1530 H   0  0  0  0  0  0  0  0  0  0  0  0
   36.7190   23.8650   43.0070 H   0  0  0  0  0  0  0  0  0  0  0  0
   35.9280   23.0220   40.7690 H   0  0  0  0  0  0  0  0  0  0  0  0
   36.0670   24.3950   38.4490 C   0  0  0  0  0  2  0  0  0  0  0  0
   35.5180   25.2500   37.9570 H   0  0  0  0  0  0  0  0  0  0  0  0
  1  4  1  0  0  0  0
  1 19  1  0  0  0  0
  2  4  1  0  0  0  0
  2  5  1  1  0  0  0
  3  2  1  0  0  0  0
  3  4  1  0  0  0  0
  4  8  1  1  0  0  0
  6  3  1  0  0  0  0
  7  3  1  0  0  0  0
  9 10  1  0  0  0  0
  9 15  1  0  0  0  0
 10 16  1  0  0  0  0
 11  2  1  0  0  0  0
 11 10  2  0  0  0  0
 12 11  1  0  0  0  0
 13 12  2  0  0  0  0
 13 14  1  0  0  0  0
 14  9  2  0  0  0  0
 17 13  1  0  0  0  0
 19 18  2  6  0  0  0
 19 20  1  0  0  0  0
 20 21  1  0  0  0  0
 22 23  1  0  0  0  0
 22 19  1  0  0  0  0
 23 24  1  0  0  0  0
 24 29  1  0  0  0  0
 25 24  2  0  0  0  0
 25 30  1  0  0  0  0
 26 25  1  0  0  0  0
 27 28  1  0  0  0  0
 27 26  2  0  0  0  0
 28 23  2  0  0  0  0
 31 26  1  0  0  0  0
 32 27  1  0  0  0  0
 33 32  1  0  0  0  0
M  END
>  <minimizedAffinity>
-5.02859259

$$$$

 OpenBabel03252501093D

 33 35  0  0  1  0  0  0  0  0999 V2000
   39.6340   31.3660   40.8140 O   0  0  0  0  0  0  0  0  0  0  0  0
   40.7370   30.2600   42.6610 C   0  0  1  0  0  0  0  0  0  0  0  0
   41.7060   30.1780   41.5620 C   0  0  0  0  0  0  0  0  0  0  0  0
   40.6810   31.3230   41.6600 C   0  0  1  0  0  0  0  0  0  0  0  0
   41.0920   30.4300   43.6830 H   0  0  0  0  0  0  0  0  0  0  0  0
   41.4800   29.5270   40.6700 H   0  0  0  0  0  0  0  0  0  0  0  0
   42.7760   30.4380   41.6980 H   0  0  0  0  0  0  0  0  0  0  0  0
   41.1790   32.2930   41.8460 H   0  0  0  0  0  0  0  0  0  0  0  0
   38.7330   27.1680   41.7790 C   0  0  0  0  0  0  0  0  0  0  0  0
   39.7750   28.0880   41.8200 C   0  0  0  0  0  0  0  0  0  0  0  0
   39.6330   29.2420   42.6150 C   0  0  0  0  0  0  0  0  0  0  0  0
   38.4850   29.4200   43.3170 N   0  0  0  0  0  0  0  0  0  0  0  0
   37.4830   28.5030   43.2570 C   0  0  0  0  0  0  0  0  0  0  0  0
   37.6090   27.3830   42.4910 N   0  0  0  0  0  0  0  0  0  0  0  0
   38.8200   26.2800   41.1800 H   0  0  0  0  0  0  0  0  0  0  0  0
   40.6520   27.8940   41.2490 H   0  0  0  0  0  0  0  0  0  0  0  0
   36.6160   28.7560   43.8610 H   0  0  0  0  0  0  0  0  0  0  0  0
   39.8150   33.4670   39.2420 O   0  0  0  0  0  0  0  0  0  0  0  0
   39.0320   32.8250   40.3870 P   0  0  2  0  0  0  0  0  0  0  0  0
   39.0270   33.9850   41.6240 O   0  0  0  0  0  0  0  0  0  0  0  0
   39.9180   34.4500   41.6250 H   0  0  0  0  0  0  0  0  0  0  0  0
   37.4620   32.6910   39.8110 O   0  0  0  0  0  0  0  0  0  0  0  0
   36.7840   31.4960   39.6560 C   0  0  0  0  0  0  0  0  0  0  0  0
   36.1380   30.7480   40.6170 C   0  0  0  0  0  0  0  0  0  0  0  0
   35.5100   29.5830   40.3140 C   0  0  0  0  0  0  0  0  0  0  0  0
   35.5010   29.1080   39.0170 C   0  0  0  0  0  0  0  0  0  0  0  0
   36.1680   29.8960   38.0730 C   0  0  0  0  0  0  0  0  0  0  0  0
   36.7850   31.0510   38.3990 N   0  0  0  0  0  0  0  0  0  0  0  0
   36.1810   31.1760   41.6200 H   0  0  0  0  0  0  0  0  0  0  0  0
   35.0200   29.0440   41.1210 H   0  0  0  0  0  0  0  0  0  0  0  0
   35.0080   28.1850   38.7530 H   0  0  0  0  0  0  0  0  0  0  0  0
   36.1760   29.4060   36.6480 C   0  0  0  0  0  2  0  0  0  0  0  0
   35.9680   30.2940   35.9830 H   0  0  0  0  0  0  0  0  0  0  0  0
  1  4  1  0  0  0  0
  2  5  1  1  0  0  0
  3  4  1  0  0  0  0
  3  7  1  0  0  0  0
  3  2  1  0  0  0  0
  4  8  1  1  0  0  0
  4  2  1  0  0  0  0
  6  3  1  0  0  0  0
  9 10  2  0  0  0  0
  9 14  1  0  0  0  0
 10 11  1  0  0  0  0
 11  2  1  0  0  0  0
 11 12  2  0  0  0  0
 13 12  1  0  0  0  0
 13 17  1  0  0  0  0
 14 13  2  0  0  0  0
 15  9  1  0  0  0  0
 16 10  1  0  0  0  0
 19 18  2  6  0  0  0
 19  1  1  0  0  0  0
 19 20  1  0  0  0  0
 20 21  1  0  0  0  0
 22 19  1  0  0  0  0
 23 22  1  0  0  0  0
 23 24  1  0  0  0  0
 24 29  1  0  0  0  0
 25 24  2  0  0  0  0
 25 30  1  0  0  0  0
 26 25  1  0  0  0  0
 27 28  1  0  0  0  0
 27 26  2  0  0  0  0
 28 23  2  0  0  0  0
 31 26  1  0  0  0  0
 32 27  1  0  0  0  0
 33 32  1  0  0  0  0
M  END
>  <minimizedAffinity>
-4.9703145

$$$$

 OpenBabel03252501093D

 33 35  0  0  1  0  0  0  0  0999 V2000
   36.4370   30.9680   40.6570 O   0  0  0  0  0  0  0  0  0  0  0  0
   36.3010   28.6390   40.0200 C   0  0  1  0  0  0  0  0  0  0  0  0
   34.9090   29.0210   40.2870 C   0  0  0  0  0  0  0  0  0  0  0  0
   35.9550   30.0420   39.8060 C   0  0  1  0  0  0  0  0  0  0  0  0
   36.5240   27.9540   39.1960 H   0  0  0  0  0  0  0  0  0  0  0  0
   34.5900   29.2560   41.3430 H   0  0  0  0  0  0  0  0  0  0  0  0
   34.0830   28.7690   39.5900 H   0  0  0  0  0  0  0  0  0  0  0  0
   35.7200   30.4110   38.7900 H   0  0  0  0  0  0  0  0  0  0  0  0
   39.2680   27.9940   42.2850 C   0  0  0  0  0  0  0  0  0  0  0  0
   38.5280   28.2960   41.1480 C   0  0  0  0  0  0  0  0  0  0  0  0
   37.1230   28.3330   41.2400 C   0  0  0  0  0  0  0  0  0  0  0  0
   36.5350   28.0760   42.4360 N   0  0  0  0  0  0  0  0  0  0  0  0
   37.2850   27.7850   43.5310 C   0  0  0  0  0  0  0  0  0  0  0  0
   38.6450   27.7450   43.4540 N   0  0  0  0  0  0  0  0  0  0  0  0
   40.3420   27.9600   42.2390 H   0  0  0  0  0  0  0  0  0  0  0  0
   39.0450   28.4900   40.2370 H   0  0  0  0  0  0  0  0  0  0  0  0
   36.7020   27.5980   44.4290 H   0  0  0  0  0  0  0  0  0  0  0  0
   38.8370   32.0240   40.8600 O   0  0  0  0  0  0  0  0  0  0  0  0
   37.5130   32.0640   40.0960 P   0  0  2  0  0  0  0  0  0  0  0  0
   37.0000   33.6780   40.1840 O   0  0  0  0  0  0  0  0  0  0  0  0
   37.2390   34.0360   41.0930 H   0  0  0  0  0  0  0  0  0  0  0  0
   37.9280   31.7500   38.5010 O   0  0  0  0  0  0  0  0  0  0  0  0
   39.1440   31.2300   38.0970 C   0  0  0  0  0  0  0  0  0  0  0  0
   39.4970   29.9070   37.9330 C   0  0  0  0  0  0  0  0  0  0  0  0
   40.7410   29.5430   37.5270 C   0  0  0  0  0  0  0  0  0  0  0  0
   41.6990   30.5010   37.2630 C   0  0  0  0  0  0  0  0  0  0  0  0
   41.3010   31.8300   37.4400 C   0  0  0  0  0  0  0  0  0  0  0  0
   40.0590   32.1660   37.8460 N   0  0  0  0  0  0  0  0  0  0  0  0
   38.6960   29.2000   38.1580 H   0  0  0  0  0  0  0  0  0  0  0  0
   40.9510   28.4820   37.4190 H   0  0  0  0  0  0  0  0  0  0  0  0
   42.6940   30.2350   36.9380 H   0  0  0  0  0  0  0  0  0  0  0  0
   42.3250   32.9000   37.1600 C   0  0  0  0  0  2  0  0  0  0  0  0
   41.8090   33.7180   36.5770 H   0  0  0  0  0  0  0  0  0  0  0  0
  2  5  1  6  0  0  0
  2  3  1  0  0  0  0
  2 11  1  0  0  0  0
  3  6  1  0  0  0  0
  4  8  1  6  0  0  0
  4  2  1  0  0  0  0
  4  3  1  0  0  0  0
  4  1  1  0  0  0  0
  7  3  1  0  0  0  0
  9 14  1  0  0  0  0
 10 11  1  0  0  0  0
 10  9  2  0  0  0  0
 11 12  2  0  0  0  0
 12 13  1  0  0  0  0
 13 17  1  0  0  0  0
 14 13  2  0  0  0  0
 15  9  1  0  0  0  0
 16 10  1  0  0  0  0
 19 20  1  0  0  0  0
 19  1  1  0  0  0  0
 19 18  2  1  0  0  0
 20 21  1  0  0  0  0
 22 19  1  0  0  0  0
 23 22  1  0  0  0  0
 24 23  1  0  0  0  0
 24 29  1  0  0  0  0
 25 24  2  0  0  0  0
 26 27  2  0  0  0  0
 26 25  1  0  0  0  0
 27 28  1  0  0  0  0
 28 23  2  0  0  0  0
 30 25  1  0  0  0  0
 31 26  1  0  0  0  0
 32 27  1  0  0  0  0
 33 32  1  0  0  0  0
M  END
>  <minimizedAffinity>
-4.94281673

$$$$

 OpenBabel03252501093D

 33 35  0  0  1  0  0  0  0  0999 V2000
   36.5660   31.0300   40.5450 O   0  0  0  0  0  0  0  0  0  0  0  0
   36.3640   28.7000   39.9290 C   0  0  1  0  0  0  0  0  0  0  0  0
   34.9840   29.1220   40.1970 C   0  0  0  0  0  0  0  0  0  0  0  0
   36.0560   30.1110   39.7040 C   0  0  1  0  0  0  0  0  0  0  0  0
   36.5650   28.0020   39.1090 H   0  0  0  0  0  0  0  0  0  0  0  0
   34.6760   29.3750   41.2520 H   0  0  0  0  0  0  0  0  0  0  0  0
   34.1490   28.8880   39.5060 H   0  0  0  0  0  0  0  0  0  0  0  0
   35.8270   30.4770   38.6860 H   0  0  0  0  0  0  0  0  0  0  0  0
   37.3190   27.7140   43.4600 C   0  0  0  0  0  0  0  0  0  0  0  0
   36.5430   27.9870   42.3390 C   0  0  0  0  0  0  0  0  0  0  0  0
   37.1830   28.3820   41.1480 C   0  0  0  0  0  0  0  0  0  0  0  0
   38.5360   28.4830   41.1300 N   0  0  0  0  0  0  0  0  0  0  0  0
   39.2680   28.2100   42.2420 C   0  0  0  0  0  0  0  0  0  0  0  0
   38.6610   27.8270   43.4000 N   0  0  0  0  0  0  0  0  0  0  0  0
   36.8530   27.4110   44.3800 H   0  0  0  0  0  0  0  0  0  0  0  0
   35.4850   27.8890   42.4130 H   0  0  0  0  0  0  0  0  0  0  0  0
   40.3400   28.3260   42.1040 H   0  0  0  0  0  0  0  0  0  0  0  0
   38.8710   32.2890   40.7020 O   0  0  0  0  0  0  0  0  0  0  0  0
   37.5490   32.1880   39.9400 P   0  0  2  0  0  0  0  0  0  0  0  0
   36.9040   33.7560   39.9640 O   0  0  0  0  0  0  0  0  0  0  0  0
   37.1120   34.1690   40.8570 H   0  0  0  0  0  0  0  0  0  0  0  0
   37.9910   31.8460   38.3570 O   0  0  0  0  0  0  0  0  0  0  0  0
   39.2330   31.3690   37.9780 C   0  0  0  0  0  0  0  0  0  0  0  0
   40.3290   32.0860   37.5470 C   0  0  0  0  0  0  0  0  0  0  0  0
   41.4930   31.4750   37.2040 C   0  0  0  0  0  0  0  0  0  0  0  0
   41.6120   30.1020   37.2810 C   0  0  0  0  0  0  0  0  0  0  0  0
   40.4790   29.4130   37.7240 C   0  0  0  0  0  0  0  0  0  0  0  0
   39.3330   30.0430   38.0580 N   0  0  0  0  0  0  0  0  0  0  0  0
   40.1710   33.1650   37.5080 H   0  0  0  0  0  0  0  0  0  0  0  0
   42.3180   32.1010   36.8730 H   0  0  0  0  0  0  0  0  0  0  0  0
   42.5280   29.5950   37.0150 H   0  0  0  0  0  0  0  0  0  0  0  0
   40.5770   27.9120   37.8180 C   0  0  0  0  0  2  0  0  0  0  0  0
   40.0970   27.6020   38.7920 H   0  0  0  0  0  0  0  0  0  0  0  0
  2  5  1  6  0  0  0
  2  3  1  0  0  0  0
  2 11  1  0  0  0  0
  3  6  1  0  0  0  0
  4  8  1  6  0  0  0
  4  2  1  0  0  0  0
  4  3  1  0  0  0  0
  4  1  1  0  0  0  0
  7  3  1  0  0  0  0
  9 15  1  0  0  0  0
 10 16  1  0  0  0  0
 10  9  2  0  0  0  0
 11 10  1  0  0  0  0
 12 11  2  0  0  0  0
 12 13  1  0  0  0  0
 13 14  2  0  0  0  0
 14  9  1  0  0  0  0
 17 13  1  0  0  0  0
 19 20  1  0  0  0  0
 19  1  1  0  0  0  0
 19 18  2  1  0  0  0
 20 21  1  0  0  0  0
 22 19  1  0  0  0  0
 23 28  1  0  0  0  0
 23 22  1  0  0  0  0
 24 23  2  0  0  0  0
 25 26  2  0  0  0  0
 25 24  1  0  0  0  0
 26 27  1  0  0  0  0
 27 32  1  0  0  0  0
 27 28  2  0  0  0  0
 29 24  1  0  0  0  0
 30 25  1  0  0  0  0
 31 26  1  0  0  0  0
 32 33  1  0  0  0  0
M  END
>  <minimizedAffinity>
-4.9042387

$$$$

 OpenBabel03252501093D

 33 35  0  0  1  0  0  0  0  0999 V2000
   37.5230   29.4660   39.9200 O   0  0  0  0  0  0  0  0  0  0  0  0
   38.9150   31.3430   39.2960 C   0  0  1  0  0  0  0  0  0  0  0  0
   38.9400   30.4690   38.1170 C   0  0  0  0  0  0  0  0  0  0  0  0
   37.7420   30.4980   39.0830 C   0  0  1  0  0  0  0  0  0  0  0  0
   38.8920   32.4290   39.1620 H   0  0  0  0  0  0  0  0  0  0  0  0
   39.4650   29.4720   38.1760 H   0  0  0  0  0  0  0  0  0  0  0  0
   38.7780   30.8570   37.0900 H   0  0  0  0  0  0  0  0  0  0  0  0
   36.8400   30.9080   38.5920 H   0  0  0  0  0  0  0  0  0  0  0  0
   41.7050   29.6430   41.2140 C   0  0  0  0  0  0  0  0  0  0  0  0
   40.8760   30.0190   40.1640 C   0  0  0  0  0  0  0  0  0  0  0  0
   39.8360   30.9360   40.4110 C   0  0  0  0  0  0  0  0  0  0  0  0
   39.6760   31.4250   41.6670 N   0  0  0  0  0  0  0  0  0  0  0  0
   40.5030   31.0400   42.6740 C   0  0  0  0  0  0  0  0  0  0  0  0
   41.5130   30.1530   42.4470 N   0  0  0  0  0  0  0  0  0  0  0  0
   42.5060   28.9450   41.0480 H   0  0  0  0  0  0  0  0  0  0  0  0
   41.0510   29.6010   39.1990 H   0  0  0  0  0  0  0  0  0  0  0  0
   40.2760   31.4990   43.6330 H   0  0  0  0  0  0  0  0  0  0  0  0
   35.0570   28.8070   40.5560 O   0  0  0  0  0  0  0  0  0  0  0  0
   36.3000   29.5780   41.0000 P   0  0  2  0  0  0  0  0  0  0  0  0
   35.7580   31.1560   41.3020 O   0  0  0  0  0  0  0  0  0  0  0  0
   35.0580   31.3860   40.6170 H   0  0  0  0  0  0  0  0  0  0  0  0
   36.7250   28.8970   42.4740 O   0  0  0  0  0  0  0  0  0  0  0  0
   37.5890   27.8280   42.6210 C   0  0  0  0  0  0  0  0  0  0  0  0
   38.8520   27.8190   43.1740 C   0  0  0  0  0  0  0  0  0  0  0  0
   39.5910   26.6820   43.2510 C   0  0  0  0  0  0  0  0  0  0  0  0
   39.0910   25.4880   42.7730 C   0  0  0  0  0  0  0  0  0  0  0  0
   37.8070   25.5390   42.2210 C   0  0  0  0  0  0  0  0  0  0  0  0
   37.0920   26.6820   42.1550 N   0  0  0  0  0  0  0  0  0  0  0  0
   39.1900   28.7930   43.5330 H   0  0  0  0  0  0  0  0  0  0  0  0
   40.5800   26.7470   43.7000 H   0  0  0  0  0  0  0  0  0  0  0  0
   39.6600   24.5720   42.8250 H   0  0  0  0  0  0  0  0  0  0  0  0
   37.2320   24.2510   41.6900 C   0  0  0  0  0  2  0  0  0  0  0  0
   36.1570   24.1940   42.0310 H   0  0  0  0  0  0  0  0  0  0  0  0
  1 19  1  0  0  0  0
  2  5  1  6  0  0  0
  2 11  1  0  0  0  0
  3  6  1  0  0  0  0
  3  4  1  0  0  0  0
  3  2  1  0  0  0  0
  4  8  1  6  0  0  0
  4  2  1  0  0  0  0
  4  1  1  0  0  0  0
  7  3  1  0  0  0  0
  9 14  1  0  0  0  0
 10 11  1  0  0  0  0
 10  9  2  0  0  0  0
 11 12  2  0  0  0  0
 12 13  1  0  0  0  0
 13 17  1  0  0  0  0
 14 13  2  0  0  0  0
 15  9  1  0  0  0  0
 16 10  1  0  0  0  0
 19 18  2  6  0  0  0
 19 20  1  0  0  0  0
 19 22  1  0  0  0  0
 21 20  1  0  0  0  0
 22 23  1  0  0  0  0
 23 24  1  0  0  0  0
 24 25  2  0  0  0  0
 24 29  1  0  0  0  0
 25 30  1  0  0  0  0
 26 31  1  0  0  0  0
 26 25  1  0  0  0  0
 27 26  2  0  0  0  0
 28 27  1  0  0  0  0
 28 23  2  0  0  0  0
 32 33  1  0  0  0  0
 32 27  1  0  0  0  0
M  END
>  <minimizedAffinity>
-4.90343952

$$$$
