
 OpenBabel03252504343D

 33 34  0  0  0  0  0  0  0  0999 V2000
   38.7810   29.1540   42.8240 C   0  0  0  0  0  0  0  0  0  0  0  0
   39.3030   29.8150   43.5550 H   0  0  0  0  0  0  0  0  0  0  0  0
   39.2660   29.2630   41.8470 H   0  0  0  0  0  0  0  0  0  0  0  0
   39.8490   26.8770   43.0640 C   0  0  0  0  0  3  0  0  0  0  0  0
   38.8680   27.7300   43.3470 C   0  0  0  0  0  3  0  0  0  0  0  0
   39.7490   25.6220   43.6420 O   0  0  0  0  0  0  0  0  0  0  0  0
   39.8150   24.4080   43.0310 C   0  0  0  0  0  0  0  0  0  0  0  0
   40.7950   24.0870   42.6130 H   0  0  0  0  0  0  0  0  0  0  0  0
   39.4990   23.6060   43.7310 H   0  0  0  0  0  0  0  0  0  0  0  0
   37.5210   24.2450   42.1860 C   0  0  0  0  0  0  0  0  0  0  0  0
   38.8910   24.3000   41.8510 C   0  0  0  0  0  0  0  0  0  0  0  0
   39.2140   24.2540   40.5340 C   0  0  0  0  0  0  0  0  0  0  0  0
   38.2210   24.1630   39.6630 N   0  0  0  0  0  0  0  0  0  0  0  0
   36.9350   24.1120   39.9730 C   0  0  0  0  0  0  0  0  0  0  0  0
   36.5250   24.1540   41.3040 N   0  0  0  0  0  0  0  0  0  0  0  0
   37.1950   24.2770   43.2180 H   0  0  0  0  0  0  0  0  0  0  0  0
   40.2730   24.2990   40.3290 H   0  0  0  0  0  0  0  0  0  0  0  0
   35.9330   24.0100   38.8940 C   0  0  0  0  0  2  0  0  0  0  0  0
   36.3180   24.5490   37.9990 H   0  0  0  0  0  0  0  0  0  0  0  0
   37.4420   29.4900   42.8050 O   0  0  0  0  0  0  0  0  0  0  0  0
   36.7060   28.9070   40.3160 O   0  0  0  0  0  0  0  0  0  0  0  0
   36.9810   30.0380   41.2790 P   0  0  1  0  0  0  0  0  0  0  0  0
   35.5400   30.9430   41.3930 O   0  0  0  0  0  0  0  0  0  0  0  0
   35.7280   31.8950   41.3690 H   0  0  0  0  0  0  0  0  0  0  0  0
   38.1600   31.0670   40.6460 O   0  0  0  0  0  0  0  0  0  0  0  0
   37.7060   32.3630   40.5230 C   0  0  0  0  0  0  0  0  0  0  0  0
   37.3420   32.8890   39.1710 C   0  0  0  0  0  0  0  0  0  0  0  0
   38.6370   33.3170   39.8150 C   0  0  0  0  0  0  0  0  0  0  0  0
   37.1390   32.7440   41.3770 H   0  0  0  0  0  0  0  0  0  0  0  0
   36.5860   33.6990   39.1680 H   0  0  0  0  0  0  0  0  0  0  0  0
   37.3640   32.1670   38.3460 H   0  0  0  0  0  0  0  0  0  0  0  0
   39.5420   32.9210   39.3080 H   0  0  0  0  0  0  0  0  0  0  0  0
   38.7580   34.3440   40.2030 H   0  0  0  0  0  0  0  0  0  0  0  0
  1  5  1  0  0  0  0
  1  2  1  0  0  0  0
  3  1  1  0  0  0  0
  4  5  2  0  0  0  0
  4  6  1  0  0  0  0
  7  6  1  0  0  0  0
  7  9  1  0  0  0  0
  8  7  1  0  0  0  0
 10 16  1  0  0  0  0
 11 10  1  0  0  0  0
 11  7  1  0  0  0  0
 12 11  2  0  0  0  0
 13 14  2  0  0  0  0
 13 12  1  0  0  0  0
 14 15  1  0  0  0  0
 15 10  2  0  0  0  0
 17 12  1  0  0  0  0
 18 14  1  0  0  0  0
 19 18  1  0  0  0  0
 20  1  1  0  0  0  0
 22 21  2  6  0  0  0
 22 23  1  0  0  0  0
 22 20  1  0  0  0  0
 24 23  1  0  0  0  0
 25 22  1  0  0  0  0
 26 25  1  0  0  0  0
 26 29  1  0  0  0  0
 27 28  1  0  0  0  0
 27 26  1  0  0  0  0
 28 33  1  0  0  0  0
 28 26  1  0  0  0  0
 30 27  1  0  0  0  0
 31 27  1  0  0  0  0
 32 28  1  0  0  0  0
M  END
>  <minimizedAffinity>
-4.7515974

$$$$

 OpenBabel03252504343D

 33 34  0  0  0  0  0  0  0  0999 V2000
   37.4120   32.8820   39.3200 C   0  0  0  0  0  0  0  0  0  0  0  0
   36.9490   33.1950   38.3550 H   0  0  0  0  0  0  0  0  0  0  0  0
   37.1950   33.6460   40.0760 H   0  0  0  0  0  0  0  0  0  0  0  0
   36.3320   31.2220   40.8890 C   0  0  0  0  0  3  0  0  0  0  0  0
   36.8290   31.5300   39.6940 C   0  0  0  0  0  3  0  0  0  0  0  0
   35.8430   29.9340   41.0310 O   0  0  0  0  0  0  0  0  0  0  0  0
   36.4160   28.7690   40.6250 C   0  0  0  0  0  0  0  0  0  0  0  0
   35.7480   27.9050   40.4150 H   0  0  0  0  0  0  0  0  0  0  0  0
   37.0100   28.9330   39.7010 H   0  0  0  0  0  0  0  0  0  0  0  0
   38.5490   27.6500   41.0720 C   0  0  0  0  0  0  0  0  0  0  0  0
   37.3830   28.2130   41.6330 C   0  0  0  0  0  0  0  0  0  0  0  0
   37.2670   28.1960   42.9840 C   0  0  0  0  0  0  0  0  0  0  0  0
   38.2580   27.6530   43.6750 N   0  0  0  0  0  0  0  0  0  0  0  0
   39.3530   27.1240   43.1550 C   0  0  0  0  0  0  0  0  0  0  0  0
   39.5430   27.1050   41.7740 N   0  0  0  0  0  0  0  0  0  0  0  0
   38.7040   27.6310   40.0010 H   0  0  0  0  0  0  0  0  0  0  0  0
   36.3590   28.6380   43.3640 H   0  0  0  0  0  0  0  0  0  0  0  0
   40.3780   26.5510   44.0490 C   0  0  0  0  0  2  0  0  0  0  0  0
   40.3790   27.1260   45.0030 H   0  0  0  0  0  0  0  0  0  0  0  0
   38.7640   32.6900   39.1170 O   0  0  0  0  0  0  0  0  0  0  0  0
   40.4050   34.7230   39.6140 O   0  0  0  0  0  0  0  0  0  0  0  0
   39.6710   33.5620   40.2400 P   0  0  1  0  0  0  0  0  0  0  0  0
   38.6470   34.2190   41.4350 O   0  0  0  0  0  0  0  0  0  0  0  0
   38.6770   33.6860   42.2450 H   0  0  0  0  0  0  0  0  0  0  0  0
   40.7600   32.5420   41.0300 O   0  0  0  0  0  0  0  0  0  0  0  0
   40.2190   31.2970   41.2750 C   0  0  0  0  0  0  0  0  0  0  0  0
   39.7300   30.9650   42.6480 C   0  0  0  0  0  0  0  0  0  0  0  0
   41.0390   30.3930   42.1640 C   0  0  0  0  0  0  0  0  0  0  0  0
   39.6920   30.8410   40.4320 H   0  0  0  0  0  0  0  0  0  0  0  0
   38.9280   30.2020   42.6920 H   0  0  0  0  0  0  0  0  0  0  0  0
   39.7380   31.7830   43.3790 H   0  0  0  0  0  0  0  0  0  0  0  0
   41.9280   30.8020   42.6880 H   0  0  0  0  0  0  0  0  0  0  0  0
   41.1240   29.3200   41.9140 H   0  0  0  0  0  0  0  0  0  0  0  0
  1  5  1  0  0  0  0
  1  3  1  0  0  0  0
  2  1  1  0  0  0  0
  4  6  1  0  0  0  0
  5  4  2  0  0  0  0
  7  6  1  0  0  0  0
  7 11  1  0  0  0  0
  8  7  1  0  0  0  0
  9  7  1  0  0  0  0
 10 11  2  0  0  0  0
 10 15  1  0  0  0  0
 11 12  1  0  0  0  0
 12 17  1  0  0  0  0
 12 13  2  0  0  0  0
 14 13  1  0  0  0  0
 14 18  1  0  0  0  0
 15 14  2  0  0  0  0
 16 10  1  0  0  0  0
 18 19  1  0  0  0  0
 20  1  1  0  0  0  0
 20 22  1  0  0  0  0
 22 21  2  6  0  0  0
 22 25  1  0  0  0  0
 22 23  1  0  0  0  0
 23 24  1  0  0  0  0
 25 26  1  0  0  0  0
 26 28  1  0  0  0  0
 26 27  1  0  0  0  0
 27 30  1  0  0  0  0
 27 31  1  0  0  0  0
 28 27  1  0  0  0  0
 28 32  1  0  0  0  0
 29 26  1  0  0  0  0
 33 28  1  0  0  0  0
M  END
>  <minimizedAffinity>
-4.6377244

$$$$

 OpenBabel03252504343D

 33 34  0  0  0  0  0  0  0  0999 V2000
   36.9440   31.3980   38.8920 C   0  0  0  0  0  0  0  0  0  0  0  0
   36.0690   31.6030   39.5540 H   0  0  0  0  0  0  0  0  0  0  0  0
   36.5830   31.2700   37.8650 H   0  0  0  0  0  0  0  0  0  0  0  0
   37.7500   33.5860   39.8650 C   0  0  0  0  0  3  0  0  0  0  0  0
   37.9000   32.5730   39.0170 C   0  0  0  0  0  3  0  0  0  0  0  0
   38.7330   34.5600   39.8290 O   0  0  0  0  0  0  0  0  0  0  0  0
   39.7930   34.7160   40.6670 C   0  0  0  0  0  0  0  0  0  0  0  0
   39.9590   35.7200   41.1180 H   0  0  0  0  0  0  0  0  0  0  0  0
   39.7210   34.0040   41.5160 H   0  0  0  0  0  0  0  0  0  0  0  0
   42.2290   34.5370   40.8540 C   0  0  0  0  0  0  0  0  0  0  0  0
   41.1090   34.4200   40.0040 C   0  0  0  0  0  0  0  0  0  0  0  0
   41.3360   34.0600   38.7160 C   0  0  0  0  0  0  0  0  0  0  0  0
   42.5910   33.8430   38.3540 N   0  0  0  0  0  0  0  0  0  0  0  0
   43.6450   33.9500   39.1470 C   0  0  0  0  0  0  0  0  0  0  0  0
   43.4910   34.3160   40.4830 N   0  0  0  0  0  0  0  0  0  0  0  0
   42.1180   34.8210   41.8920 H   0  0  0  0  0  0  0  0  0  0  0  0
   40.4480   33.9850   38.1060 H   0  0  0  0  0  0  0  0  0  0  0  0
   44.9910   33.6780   38.6070 C   0  0  0  0  0  2  0  0  0  0  0  0
   44.9060   32.8970   37.8170 H   0  0  0  0  0  0  0  0  0  0  0  0
   37.6100   30.2900   39.3750 O   0  0  0  0  0  0  0  0  0  0  0  0
   38.3580   30.6170   41.9060 O   0  0  0  0  0  0  0  0  0  0  0  0
   37.2790   30.0540   41.0110 P   0  0  1  0  0  0  0  0  0  0  0  0
   35.8310   30.8480   41.4350 O   0  0  0  0  0  0  0  0  0  0  0  0
   35.0950   30.2170   41.4850 H   0  0  0  0  0  0  0  0  0  0  0  0
   37.0550   28.4120   41.3320 O   0  0  0  0  0  0  0  0  0  0  0  0
   36.6130   28.1910   42.6190 C   0  0  0  0  0  0  0  0  0  0  0  0
   37.5990   27.8370   43.6850 C   0  0  0  0  0  0  0  0  0  0  0  0
   36.7090   26.7660   43.1070 C   0  0  0  0  0  0  0  0  0  0  0  0
   35.7380   28.7750   42.9210 H   0  0  0  0  0  0  0  0  0  0  0  0
   37.3030   28.1190   44.7150 H   0  0  0  0  0  0  0  0  0  0  0  0
   38.6570   27.8690   43.3990 H   0  0  0  0  0  0  0  0  0  0  0  0
   37.2500   26.0140   42.4950 H   0  0  0  0  0  0  0  0  0  0  0  0
   35.8820   26.3410   43.7040 H   0  0  0  0  0  0  0  0  0  0  0  0
  1  5  1  0  0  0  0
  1 20  1  0  0  0  0
  1  2  1  0  0  0  0
  3  1  1  0  0  0  0
  5  4  2  0  0  0  0
  6  4  1  0  0  0  0
  6  7  1  0  0  0  0
  7  8  1  0  0  0  0
  7  9  1  0  0  0  0
 10 16  1  0  0  0  0
 11  7  1  0  0  0  0
 11 10  2  0  0  0  0
 12 11  1  0  0  0  0
 13 12  2  0  0  0  0
 13 14  1  0  0  0  0
 14 15  2  0  0  0  0
 15 10  1  0  0  0  0
 17 12  1  0  0  0  0
 18 14  1  0  0  0  0
 19 18  1  0  0  0  0
 20 22  1  0  0  0  0
 22 25  1  0  0  0  0
 22 23  1  0  0  0  0
 22 21  2  1  0  0  0
 23 24  1  0  0  0  0
 25 26  1  0  0  0  0
 26 29  1  0  0  0  0
 26 28  1  0  0  0  0
 26 27  1  0  0  0  0
 27 30  1  0  0  0  0
 28 27  1  0  0  0  0
 28 33  1  0  0  0  0
 31 27  1  0  0  0  0
 32 28  1  0  0  0  0
M  END
>  <minimizedAffinity>
-4.52000284

$$$$

 OpenBabel03252504343D

 33 34  0  0  0  0  0  0  0  0999 V2000
   40.4830   32.0260   37.5900 C   0  0  0  0  0  0  0  0  0  0  0  0
   41.1090   31.1590   37.9060 H   0  0  0  0  0  0  0  0  0  0  0  0
   40.4680   32.0670   36.4950 H   0  0  0  0  0  0  0  0  0  0  0  0
   38.1170   31.1390   37.5850 C   0  0  0  0  0  3  0  0  0  0  0  0
   39.0930   31.8260   38.1710 C   0  0  0  0  0  3  0  0  0  0  0  0
   36.9210   31.0700   38.2780 O   0  0  0  0  0  0  0  0  0  0  0  0
   36.1170   29.9870   38.4590 C   0  0  0  0  0  0  0  0  0  0  0  0
   35.0170   30.1530   38.4910 H   0  0  0  0  0  0  0  0  0  0  0  0
   36.2930   29.2370   37.6600 H   0  0  0  0  0  0  0  0  0  0  0  0
   36.6520   30.1220   40.8460 C   0  0  0  0  0  0  0  0  0  0  0  0
   36.3880   29.2700   39.7520 C   0  0  0  0  0  0  0  0  0  0  0  0
   36.4050   27.9330   39.9830 C   0  0  0  0  0  0  0  0  0  0  0  0
   36.6650   27.5290   41.2160 N   0  0  0  0  0  0  0  0  0  0  0  0
   36.9120   28.3230   42.2450 C   0  0  0  0  0  0  0  0  0  0  0  0
   36.9130   29.7080   42.0870 N   0  0  0  0  0  0  0  0  0  0  0  0
   36.6540   31.1980   40.7310 H   0  0  0  0  0  0  0  0  0  0  0  0
   36.1980   27.3250   39.1150 H   0  0  0  0  0  0  0  0  0  0  0  0
   37.1880   27.7320   43.5690 C   0  0  0  0  0  2  0  0  0  0  0  0
   36.6110   26.7840   43.6620 H   0  0  0  0  0  0  0  0  0  0  0  0
   40.9940   33.1720   38.1670 O   0  0  0  0  0  0  0  0  0  0  0  0
   43.2610   32.0610   37.3290 O   0  0  0  0  0  0  0  0  0  0  0  0
   42.6310   33.3490   37.8030 P   0  0  1  0  0  0  0  0  0  0  0  0
   42.8320   34.4830   36.5450 O   0  0  0  0  0  0  0  0  0  0  0  0
   43.1060   35.3440   36.8990 H   0  0  0  0  0  0  0  0  0  0  0  0
   43.4660   33.9460   39.1440 O   0  0  0  0  0  0  0  0  0  0  0  0
   42.8020   33.6890   40.3250 C   0  0  0  0  0  0  0  0  0  0  0  0
   42.7960   34.7220   41.4050 C   0  0  0  0  0  0  0  0  0  0  0  0
   43.6780   33.5060   41.5400 C   0  0  0  0  0  0  0  0  0  0  0  0
   41.9160   33.0540   40.2350 H   0  0  0  0  0  0  0  0  0  0  0  0
   41.9230   34.6870   42.0870 H   0  0  0  0  0  0  0  0  0  0  0  0
   43.2480   35.6900   41.1560 H   0  0  0  0  0  0  0  0  0  0  0  0
   44.7630   33.7290   41.4700 H   0  0  0  0  0  0  0  0  0  0  0  0
   43.4330   32.7140   42.2700 H   0  0  0  0  0  0  0  0  0  0  0  0
  1  2  1  0  0  0  0
  1 20  1  0  0  0  0
  1  5  1  0  0  0  0
  3  1  1  0  0  0  0
  4  5  2  0  0  0  0
  4  6  1  0  0  0  0
  6  7  1  0  0  0  0
  7  8  1  0  0  0  0
  7 11  1  0  0  0  0
  9  7  1  0  0  0  0
 10 15  1  0  0  0  0
 11 12  1  0  0  0  0
 11 10  2  0  0  0  0
 12 13  2  0  0  0  0
 13 14  1  0  0  0  0
 14 18  1  0  0  0  0
 15 14  2  0  0  0  0
 16 10  1  0  0  0  0
 17 12  1  0  0  0  0
 18 19  1  0  0  0  0
 22 21  2  6  0  0  0
 22 20  1  0  0  0  0
 22 25  1  0  0  0  0
 23 24  1  0  0  0  0
 23 22  1  0  0  0  0
 25 26  1  0  0  0  0
 26 27  1  0  0  0  0
 26 28  1  0  0  0  0
 27 28  1  0  0  0  0
 27 30  1  0  0  0  0
 28 33  1  0  0  0  0
 29 26  1  0  0  0  0
 31 27  1  0  0  0  0
 32 28  1  0  0  0  0
M  END
>  <minimizedAffinity>
-4.48606586

$$$$

 OpenBabel03252504343D

 33 34  0  0  0  0  0  0  0  0999 V2000
   35.8710   29.4910   39.1290 C   0  0  0  0  0  0  0  0  0  0  0  0
   35.9660   29.9140   38.1010 H   0  0  0  0  0  0  0  0  0  0  0  0
   35.1270   30.0770   39.6810 H   0  0  0  0  0  0  0  0  0  0  0  0
   36.2710   27.0500   38.6120 C   0  0  0  0  0  3  0  0  0  0  0  0
   35.4600   28.0340   38.9910 C   0  0  0  0  0  3  0  0  0  0  0  0
   35.7070   25.7870   38.5500 O   0  0  0  0  0  0  0  0  0  0  0  0
   36.3260   24.5830   38.6810 C   0  0  0  0  0  0  0  0  0  0  0  0
   35.6960   23.6930   38.9020 H   0  0  0  0  0  0  0  0  0  0  0  0
   36.8950   24.3390   37.7590 H   0  0  0  0  0  0  0  0  0  0  0  0
   36.7990   24.2700   41.0650 C   0  0  0  0  0  0  0  0  0  0  0  0
   37.3370   24.5670   39.7940 C   0  0  0  0  0  0  0  0  0  0  0  0
   38.6720   24.7950   39.7180 C   0  0  0  0  0  0  0  0  0  0  0  0
   39.3690   24.7200   40.8410 N   0  0  0  0  0  0  0  0  0  0  0  0
   38.8700   24.4410   42.0340 C   0  0  0  0  0  0  0  0  0  0  0  0
   37.5080   24.1960   42.1920 N   0  0  0  0  0  0  0  0  0  0  0  0
   35.7420   24.0780   41.1950 H   0  0  0  0  0  0  0  0  0  0  0  0
   39.0350   25.0180   38.7260 H   0  0  0  0  0  0  0  0  0  0  0  0
   39.7690   24.3920   43.2030 C   0  0  0  0  0  2  0  0  0  0  0  0
   40.7700   24.0340   42.8690 H   0  0  0  0  0  0  0  0  0  0  0  0
   37.1170   29.4980   39.7240 O   0  0  0  0  0  0  0  0  0  0  0  0
   37.8970   31.8300   40.7370 O   0  0  0  0  0  0  0  0  0  0  0  0
   37.1490   30.5540   41.0390 P   0  0  1  0  0  0  0  0  0  0  0  0
   35.5610   31.0070   41.4630 O   0  0  0  0  0  0  0  0  0  0  0  0
   35.2540   30.5040   42.2340 H   0  0  0  0  0  0  0  0  0  0  0  0
   37.8210   29.7900   42.3860 O   0  0  0  0  0  0  0  0  0  0  0  0
   37.7980   28.4160   42.2670 C   0  0  0  0  0  0  0  0  0  0  0  0
   36.5700   27.6630   42.6660 C   0  0  0  0  0  0  0  0  0  0  0  0
   37.7800   27.6490   43.5660 C   0  0  0  0  0  0  0  0  0  0  0  0
   38.3900   28.0070   41.4420 H   0  0  0  0  0  0  0  0  0  0  0  0
   36.4200   26.6960   42.1470 H   0  0  0  0  0  0  0  0  0  0  0  0
   35.6980   28.2670   42.9460 H   0  0  0  0  0  0  0  0  0  0  0  0
   37.6340   28.1950   44.5220 H   0  0  0  0  0  0  0  0  0  0  0  0
   38.3940   26.7360   43.6660 H   0  0  0  0  0  0  0  0  0  0  0  0
  1  3  1  0  0  0  0
  1 20  1  0  0  0  0
  2  1  1  0  0  0  0
  4  5  2  0  0  0  0
  5  1  1  0  0  0  0
  6  4  1  0  0  0  0
  6  7  1  0  0  0  0
  7  8  1  0  0  0  0
  7 11  1  0  0  0  0
  9  7  1  0  0  0  0
 10 16  1  0  0  0  0
 10 15  1  0  0  0  0
 11 10  2  0  0  0  0
 12 11  1  0  0  0  0
 12 13  2  0  0  0  0
 13 14  1  0  0  0  0
 14 15  2  0  0  0  0
 14 18  1  0  0  0  0
 17 12  1  0  0  0  0
 19 18  1  0  0  0  0
 20 22  1  0  0  0  0
 22 21  2  6  0  0  0
 22 23  1  0  0  0  0
 22 25  1  0  0  0  0
 23 24  1  0  0  0  0
 26 25  1  0  0  0  0
 26 27  1  0  0  0  0
 26 28  1  0  0  0  0
 27 31  1  0  0  0  0
 27 28  1  0  0  0  0
 28 33  1  0  0  0  0
 28 32  1  0  0  0  0
 29 26  1  0  0  0  0
 30 27  1  0  0  0  0
M  END
>  <minimizedAffinity>
-4.46540833

$$$$

 OpenBabel03252504343D

 33 34  0  0  0  0  0  0  0  0999 V2000
   37.4750   29.2690   38.7800 C   0  0  0  0  0  0  0  0  0  0  0  0
   38.0380   28.3470   38.5020 H   0  0  0  0  0  0  0  0  0  0  0  0
   38.1860   30.0970   38.8810 H   0  0  0  0  0  0  0  0  0  0  0  0
   35.4390   28.7180   37.3880 C   0  0  0  0  0  3  0  0  0  0  0  0
   36.4510   29.5280   37.6880 C   0  0  0  0  0  3  0  0  0  0  0  0
   34.6110   29.1340   36.3590 O   0  0  0  0  0  0  0  0  0  0  0  0
   33.4230   28.5980   35.9680 C   0  0  0  0  0  0  0  0  0  0  0  0
   33.3660   28.1360   34.9570 H   0  0  0  0  0  0  0  0  0  0  0  0
   33.0990   27.8140   36.6850 H   0  0  0  0  0  0  0  0  0  0  0  0
   32.1550   30.2740   34.7090 C   0  0  0  0  0  0  0  0  0  0  0  0
   32.3100   29.6070   35.9430 C   0  0  0  0  0  0  0  0  0  0  0  0
   31.4560   29.9390   36.9440 C   0  0  0  0  0  0  0  0  0  0  0  0
   30.5410   30.8610   36.6860 N   0  0  0  0  0  0  0  0  0  0  0  0
   30.3920   31.4880   35.5300 C   0  0  0  0  0  0  0  0  0  0  0  0
   31.2320   31.2020   34.4560 N   0  0  0  0  0  0  0  0  0  0  0  0
   32.8030   30.0560   33.8690 H   0  0  0  0  0  0  0  0  0  0  0  0
   31.6140   29.4020   37.8670 H   0  0  0  0  0  0  0  0  0  0  0  0
   29.3260   32.4980   35.3850 C   0  0  0  0  0  2  0  0  0  0  0  0
   28.4660   32.2020   36.0280 H   0  0  0  0  0  0  0  0  0  0  0  0
   36.7670   29.0190   39.9380 O   0  0  0  0  0  0  0  0  0  0  0  0
   38.0010   31.2830   40.5910 O   0  0  0  0  0  0  0  0  0  0  0  0
   37.0220   30.2390   41.0740 P   0  0  1  0  0  0  0  0  0  0  0  0
   35.5590   31.0550   41.3950 O   0  0  0  0  0  0  0  0  0  0  0  0
   35.1700   30.7470   42.2300 H   0  0  0  0  0  0  0  0  0  0  0  0
   37.5490   29.5770   42.5340 O   0  0  0  0  0  0  0  0  0  0  0  0
   37.4430   28.2020   42.5480 C   0  0  0  0  0  0  0  0  0  0  0  0
   36.6560   27.5370   43.6310 C   0  0  0  0  0  0  0  0  0  0  0  0
   38.1630   27.5040   43.6760 C   0  0  0  0  0  0  0  0  0  0  0  0
   37.4480   27.7220   41.5650 H   0  0  0  0  0  0  0  0  0  0  0  0
   36.2210   26.5530   43.3620 H   0  0  0  0  0  0  0  0  0  0  0  0
   36.1110   28.1990   44.3150 H   0  0  0  0  0  0  0  0  0  0  0  0
   38.6000   28.1050   44.5010 H   0  0  0  0  0  0  0  0  0  0  0  0
   38.7100   26.5660   43.4710 H   0  0  0  0  0  0  0  0  0  0  0  0
  1  3  1  0  0  0  0
  1 20  1  0  0  0  0
  2  1  1  0  0  0  0
  4  5  2  0  0  0  0
  5  1  1  0  0  0  0
  6  4  1  0  0  0  0
  7  6  1  0  0  0  0
  7  9  1  0  0  0  0
  8  7  1  0  0  0  0
 10 11  1  0  0  0  0
 11  7  1  0  0  0  0
 11 12  2  0  0  0  0
 12 17  1  0  0  0  0
 13 12  1  0  0  0  0
 14 13  2  0  0  0  0
 15 10  2  0  0  0  0
 15 14  1  0  0  0  0
 16 10  1  0  0  0  0
 18 14  1  0  0  0  0
 18 19  1  0  0  0  0
 20 22  1  0  0  0  0
 22 21  2  6  0  0  0
 22 23  1  0  0  0  0
 22 25  1  0  0  0  0
 23 24  1  0  0  0  0
 25 26  1  0  0  0  0
 26 27  1  0  0  0  0
 26 28  1  0  0  0  0
 27 28  1  0  0  0  0
 27 31  1  0  0  0  0
 28 32  1  0  0  0  0
 29 26  1  0  0  0  0
 30 27  1  0  0  0  0
 33 28  1  0  0  0  0
M  END
>  <minimizedAffinity>
-4.46282768

$$$$

 OpenBabel03252504343D

 33 34  0  0  0  0  0  0  0  0999 V2000
   36.3410   28.4730   41.3110 C   0  0  0  0  0  0  0  0  0  0  0  0
   35.8530   28.6890   42.2910 H   0  0  0  0  0  0  0  0  0  0  0  0
   35.6470   27.8870   40.6960 H   0  0  0  0  0  0  0  0  0  0  0  0
   36.2020   30.9830   41.0510 C   0  0  0  0  0  3  0  0  0  0  0  0
   36.6860   29.8050   40.6660 C   0  0  0  0  0  3  0  0  0  0  0  0
   36.6410   32.0840   40.3370 O   0  0  0  0  0  0  0  0  0  0  0  0
   37.6040   32.1330   39.3760 C   0  0  0  0  0  0  0  0  0  0  0  0
   38.0320   31.1710   39.0180 H   0  0  0  0  0  0  0  0  0  0  0  0
   37.2240   32.6580   38.4750 H   0  0  0  0  0  0  0  0  0  0  0  0
   39.9260   32.1000   40.1560 C   0  0  0  0  0  0  0  0  0  0  0  0
   38.8190   32.9040   39.8100 C   0  0  0  0  0  0  0  0  0  0  0  0
   38.9710   34.2490   39.8990 C   0  0  0  0  0  0  0  0  0  0  0  0
   40.1460   34.7060   40.3030 N   0  0  0  0  0  0  0  0  0  0  0  0
   41.1870   33.9570   40.6290 C   0  0  0  0  0  0  0  0  0  0  0  0
   41.1080   32.5670   40.5620 N   0  0  0  0  0  0  0  0  0  0  0  0
   39.8730   31.0200   40.1070 H   0  0  0  0  0  0  0  0  0  0  0  0
   38.0970   34.8200   39.6240 H   0  0  0  0  0  0  0  0  0  0  0  0
   42.4400   34.6050   41.0640 C   0  0  0  0  0  2  0  0  0  0  0  0
   42.5390   35.5800   40.5350 H   0  0  0  0  0  0  0  0  0  0  0  0
   37.5360   27.8240   41.5470 O   0  0  0  0  0  0  0  0  0  0  0  0
   39.2060   29.3750   42.9170 O   0  0  0  0  0  0  0  0  0  0  0  0
   38.1800   28.2730   43.0390 P   0  0  1  0  0  0  0  0  0  0  0  0
   36.9450   28.8660   44.0550 O   0  0  0  0  0  0  0  0  0  0  0  0
   36.6710   28.1890   44.6940 H   0  0  0  0  0  0  0  0  0  0  0  0
   38.8550   26.9330   43.8120 O   0  0  0  0  0  0  0  0  0  0  0  0
   39.8450   26.3420   43.0550 C   0  0  0  0  0  0  0  0  0  0  0  0
   40.1890   24.9060   43.2870 C   0  0  0  0  0  0  0  0  0  0  0  0
   41.1100   25.9860   43.7990 C   0  0  0  0  0  0  0  0  0  0  0  0
   39.9440   26.7220   42.0340 H   0  0  0  0  0  0  0  0  0  0  0  0
   40.6110   24.3740   42.4110 H   0  0  0  0  0  0  0  0  0  0  0  0
   39.5540   24.3610   43.9960 H   0  0  0  0  0  0  0  0  0  0  0  0
   41.1340   26.0670   44.9050 H   0  0  0  0  0  0  0  0  0  0  0  0
   42.0890   26.1630   43.3180 H   0  0  0  0  0  0  0  0  0  0  0  0
  1 20  1  0  0  0  0
  1  2  1  0  0  0  0
  3  1  1  0  0  0  0
  5  4  2  0  0  0  0
  5  1  1  0  0  0  0
  6  4  1  0  0  0  0
  7 11  1  0  0  0  0
  7  6  1  0  0  0  0
  8  7  1  0  0  0  0
  9  7  1  0  0  0  0
 10 15  1  0  0  0  0
 11 12  1  0  0  0  0
 11 10  2  0  0  0  0
 12 13  2  0  0  0  0
 13 14  1  0  0  0  0
 14 18  1  0  0  0  0
 15 14  2  0  0  0  0
 16 10  1  0  0  0  0
 17 12  1  0  0  0  0
 19 18  1  0  0  0  0
 20 22  1  0  0  0  0
 22 21  2  6  0  0  0
 22 25  1  0  0  0  0
 22 23  1  0  0  0  0
 23 24  1  0  0  0  0
 26 27  1  0  0  0  0
 26 28  1  0  0  0  0
 26 25  1  0  0  0  0
 27 28  1  0  0  0  0
 27 31  1  0  0  0  0
 28 32  1  0  0  0  0
 29 26  1  0  0  0  0
 30 27  1  0  0  0  0
 33 28  1  0  0  0  0
M  END
>  <minimizedAffinity>
-4.44316196

$$$$

 OpenBabel03252504343D

 33 34  0  0  0  0  0  0  0  0999 V2000
   37.2490   32.7570   39.3780 C   0  0  0  0  0  0  0  0  0  0  0  0
   36.5370   33.0170   38.5600 H   0  0  0  0  0  0  0  0  0  0  0  0
   37.1070   33.4640   40.2040 H   0  0  0  0  0  0  0  0  0  0  0  0
   36.4800   30.9650   40.9850 C   0  0  0  0  0  3  0  0  0  0  0  0
   36.9620   31.3250   39.7990 C   0  0  0  0  0  3  0  0  0  0  0  0
   36.2840   29.6080   41.1760 O   0  0  0  0  0  0  0  0  0  0  0  0
   36.8600   28.7980   42.1040 C   0  0  0  0  0  0  0  0  0  0  0  0
   37.9180   28.9970   42.3860 H   0  0  0  0  0  0  0  0  0  0  0  0
   36.2790   28.8190   43.0500 H   0  0  0  0  0  0  0  0  0  0  0  0
   36.5970   27.1430   40.3160 C   0  0  0  0  0  0  0  0  0  0  0  0
   36.8880   27.3560   41.6810 C   0  0  0  0  0  0  0  0  0  0  0  0
   37.1580   26.2640   42.4400 C   0  0  0  0  0  0  0  0  0  0  0  0
   37.1290   25.0820   41.8430 N   0  0  0  0  0  0  0  0  0  0  0  0
   36.8580   24.8780   40.5640 C   0  0  0  0  0  0  0  0  0  0  0  0
   36.5700   25.9500   39.7210 N   0  0  0  0  0  0  0  0  0  0  0  0
   36.3730   27.9700   39.6550 H   0  0  0  0  0  0  0  0  0  0  0  0
   37.3740   26.4780   43.4760 H   0  0  0  0  0  0  0  0  0  0  0  0
   36.8610   23.5010   40.0330 C   0  0  0  0  0  2  0  0  0  0  0  0
   37.6180   22.9050   40.5920 H   0  0  0  0  0  0  0  0  0  0  0  0
   38.5310   32.7710   38.8670 O   0  0  0  0  0  0  0  0  0  0  0  0
   40.4930   34.4520   39.5000 O   0  0  0  0  0  0  0  0  0  0  0  0
   39.6320   33.3240   40.0180 P   0  0  1  0  0  0  0  0  0  0  0  0
   38.8010   33.9290   41.3790 O   0  0  0  0  0  0  0  0  0  0  0  0
   38.8030   33.2790   42.0990 H   0  0  0  0  0  0  0  0  0  0  0  0
   40.6020   32.0520   40.5570 O   0  0  0  0  0  0  0  0  0  0  0  0
   40.1550   31.5310   41.7540 C   0  0  0  0  0  0  0  0  0  0  0  0
   41.1480   31.0950   42.7820 C   0  0  0  0  0  0  0  0  0  0  0  0
   40.4180   30.0600   41.9640 C   0  0  0  0  0  0  0  0  0  0  0  0
   39.2050   31.9360   42.1150 H   0  0  0  0  0  0  0  0  0  0  0  0
   40.7900   31.1330   43.8300 H   0  0  0  0  0  0  0  0  0  0  0  0
   42.2020   31.3090   42.5640 H   0  0  0  0  0  0  0  0  0  0  0  0
   41.0680   29.5130   41.2490 H   0  0  0  0  0  0  0  0  0  0  0  0
   39.6360   29.4300   42.4250 H   0  0  0  0  0  0  0  0  0  0  0  0
  1  5  1  0  0  0  0
  1  3  1  0  0  0  0
  2  1  1  0  0  0  0
  4  6  1  0  0  0  0
  5  4  2  0  0  0  0
  6  7  1  0  0  0  0
  7  8  1  0  0  0  0
  7  9  1  0  0  0  0
 10 11  1  0  0  0  0
 11  7  1  0  0  0  0
 11 12  2  0  0  0  0
 12 17  1  0  0  0  0
 13 12  1  0  0  0  0
 14 13  2  0  0  0  0
 15 10  2  0  0  0  0
 15 14  1  0  0  0  0
 16 10  1  0  0  0  0
 18 14  1  0  0  0  0
 18 19  1  0  0  0  0
 20  1  1  0  0  0  0
 20 22  1  0  0  0  0
 22 21  2  6  0  0  0
 22 25  1  0  0  0  0
 22 23  1  0  0  0  0
 23 24  1  0  0  0  0
 25 26  1  0  0  0  0
 26 28  1  0  0  0  0
 26 29  1  0  0  0  0
 26 27  1  0  0  0  0
 27 30  1  0  0  0  0
 28 33  1  0  0  0  0
 28 27  1  0  0  0  0
 31 27  1  0  0  0  0
 32 28  1  0  0  0  0
M  END
>  <minimizedAffinity>
-4.34366322

$$$$

 OpenBabel03252504343D

 33 34  0  0  0  0  0  0  0  0999 V2000
   36.2210   28.3880   40.7110 C   0  0  0  0  0  0  0  0  0  0  0  0
   35.6840   28.4270   41.6880 H   0  0  0  0  0  0  0  0  0  0  0  0
   35.5500   27.9530   39.9600 H   0  0  0  0  0  0  0  0  0  0  0  0
   36.1740   30.9030   40.9560 C   0  0  0  0  0  3  0  0  0  0  0  0
   36.6300   29.8080   40.3540 C   0  0  0  0  0  3  0  0  0  0  0  0
   36.6720   32.1060   40.4880 O   0  0  0  0  0  0  0  0  0  0  0  0
   37.3200   32.3480   39.3160 C   0  0  0  0  0  0  0  0  0  0  0  0
   37.4780   31.4940   38.6210 H   0  0  0  0  0  0  0  0  0  0  0  0
   36.7860   33.1270   38.7330 H   0  0  0  0  0  0  0  0  0  0  0  0
   38.7780   34.0490   40.3080 C   0  0  0  0  0  0  0  0  0  0  0  0
   38.7110   32.8800   39.5200 C   0  0  0  0  0  0  0  0  0  0  0  0
   39.8800   32.3760   39.0490 C   0  0  0  0  0  0  0  0  0  0  0  0
   40.9940   33.0180   39.3660 N   0  0  0  0  0  0  0  0  0  0  0  0
   41.0610   34.1130   40.1050 C   0  0  0  0  0  0  0  0  0  0  0  0
   39.9040   34.6900   40.6240 N   0  0  0  0  0  0  0  0  0  0  0  0
   37.8840   34.5030   40.7150 H   0  0  0  0  0  0  0  0  0  0  0  0
   39.7760   31.4830   38.4520 H   0  0  0  0  0  0  0  0  0  0  0  0
   42.3770   34.7240   40.3780 C   0  0  0  0  0  2  0  0  0  0  0  0
   43.1420   33.9150   40.4240 H   0  0  0  0  0  0  0  0  0  0  0  0
   37.3870   27.6680   40.8780 O   0  0  0  0  0  0  0  0  0  0  0  0
   38.7620   27.4630   43.1450 O   0  0  0  0  0  0  0  0  0  0  0  0
   37.4920   27.0470   42.4420 P   0  0  1  0  0  0  0  0  0  0  0  0
   36.1970   27.6270   43.3890 O   0  0  0  0  0  0  0  0  0  0  0  0
   35.5030   26.9540   43.4710 H   0  0  0  0  0  0  0  0  0  0  0  0
   37.3670   25.3640   42.4120 O   0  0  0  0  0  0  0  0  0  0  0  0
   37.4640   24.8600   41.1320 C   0  0  0  0  0  0  0  0  0  0  0  0
   36.3940   23.9520   40.6170 C   0  0  0  0  0  0  0  0  0  0  0  0
   37.7240   23.3760   41.0330 C   0  0  0  0  0  0  0  0  0  0  0  0
   37.9580   25.5130   40.4070 H   0  0  0  0  0  0  0  0  0  0  0  0
   36.2630   23.9550   39.5160 H   0  0  0  0  0  0  0  0  0  0  0  0
   35.5210   23.8120   41.2650 H   0  0  0  0  0  0  0  0  0  0  0  0
   37.6750   22.7510   41.9490 H   0  0  0  0  0  0  0  0  0  0  0  0
   38.4350   23.0000   40.2750 H   0  0  0  0  0  0  0  0  0  0  0  0
  1 20  1  0  0  0  0
  1  2  1  0  0  0  0
  3  1  1  0  0  0  0
  5  1  1  0  0  0  0
  5  4  2  0  0  0  0
  6  4  1  0  0  0  0
  7 11  1  0  0  0  0
  7  6  1  0  0  0  0
  8  7  1  0  0  0  0
  9  7  1  0  0  0  0
 10 15  1  0  0  0  0
 10 16  1  0  0  0  0
 11 10  2  0  0  0  0
 12 13  2  0  0  0  0
 12 11  1  0  0  0  0
 13 14  1  0  0  0  0
 14 18  1  0  0  0  0
 14 15  2  0  0  0  0
 17 12  1  0  0  0  0
 18 19  1  0  0  0  0
 20 22  1  0  0  0  0
 22 21  2  1  0  0  0
 22 23  1  0  0  0  0
 23 24  1  0  0  0  0
 25 22  1  0  0  0  0
 26 25  1  0  0  0  0
 27 28  1  0  0  0  0
 27 26  1  0  0  0  0
 27 31  1  0  0  0  0
 28 26  1  0  0  0  0
 28 32  1  0  0  0  0
 29 26  1  0  0  0  0
 30 27  1  0  0  0  0
 33 28  1  0  0  0  0
M  END
>  <minimizedAffinity>
-4.29669714

$$$$
