
 OpenBabel03252509143D

 38 41  0  0  1  0  0  0  0  0999 V2000
   47.5050   32.5370   44.3440 C   0  0  0  0  0  0  0  0  0  0  0  0
   46.7980   33.5030   43.6290 C   0  0  0  0  0  0  0  0  0  0  0  0
   45.7500   34.2390   44.1800 C   0  0  0  0  0  0  0  0  0  0  0  0
   45.3830   34.0090   45.5030 C   0  0  0  0  0  0  0  0  0  0  0  0
   44.4580   34.5050   46.3470 N   0  0  0  0  0  0  0  0  0  0  0  0
   44.5530   33.8960   47.5490 C   0  0  0  0  0  0  0  0  0  0  0  0
   45.5560   33.0160   47.4280 N   0  0  0  0  0  0  0  0  0  0  0  0
   46.0810   33.0590   46.1960 C   0  0  0  0  0  0  0  0  0  0  0  0
   47.1280   32.3090   45.6810 C   0  0  0  0  0  0  0  0  0  0  0  0
   48.3130   31.9840   43.8840 H   0  0  0  0  0  0  0  0  0  0  0  0
   43.7620   35.2560   46.1040 H   0  0  0  0  0  0  0  0  0  0  0  0
   43.9770   34.0420   48.4510 H   0  0  0  0  0  0  0  0  0  0  0  0
   47.6680   31.5650   46.2430 H   0  0  0  0  0  0  0  0  0  0  0  0
   47.0430   33.1760   39.9940 C   0  0  0  0  0  0  0  0  0  0  0  0
   47.8690   34.2330   39.6270 C   0  0  0  0  0  0  0  0  0  0  0  0
   48.3370   35.0550   40.6430 C   0  0  0  0  0  0  0  0  0  0  0  0
   47.9810   34.8070   41.9500 N   0  0  0  0  0  0  0  0  0  0  0  0
   47.1720   33.7580   42.2380 C   0  0  0  0  0  0  0  0  0  0  0  0
   46.6810   32.9170   41.2860 N   0  0  0  0  0  0  0  0  0  0  0  0
   46.6350   32.4880   39.2560 H   0  0  0  0  0  0  0  0  0  0  0  0
   48.1170   34.3820   38.5900 H   0  0  0  0  0  0  0  0  0  0  0  0
   48.9830   35.8900   40.4080 H   0  0  0  0  0  0  0  0  0  0  0  0
   44.8700   35.4600   43.2500 S   0  0  0  0  0  0  0  0  0  0  0  0
   42.3660   35.2870   42.4870 N   0  0  0  0  0  0  0  0  0  0  0  0
   43.6660   34.7820   42.0930 C   0  0  1  0  0  0  0  0  0  0  0  0
   44.0620   35.2910   40.7120 C   0  0  0  0  0  0  0  0  0  0  0  0
   43.0310   35.2520   39.7940 O   0  0  0  0  0  0  0  0  0  0  0  0
   41.9090   34.5750   40.1920 C   0  0  0  0  0  0  0  0  0  0  0  0
   41.3790   35.2060   41.4590 C   0  0  1  0  0  0  0  0  0  0  0  0
   42.1170   34.7940   43.3740 H   0  0  0  0  0  0  0  0  0  0  0  0
   43.6940   33.6640   42.1160 H   0  0  0  0  0  0  0  0  0  0  0  0
   44.8380   34.6670   40.2790 H   0  0  0  0  0  0  0  0  0  0  0  0
   44.4240   36.3350   40.8320 H   0  0  0  0  0  0  0  0  0  0  0  0
   42.2000   33.5360   40.4430 H   0  0  0  0  0  0  0  0  0  0  0  0
   41.1660   34.6280   39.4040 H   0  0  0  0  0  0  0  0  0  0  0  0
   41.1080   36.2510   41.1850 H   0  0  0  0  0  0  0  0  0  0  0  0
   40.1140   34.5620   41.9430 C   0  0  0  0  0  2  0  0  0  0  0  0
   39.5330   35.3400   42.5130 H   0  0  0  0  0  0  0  0  0  0  0  0
  1  9  1  0  0  0  0
  2  3  1  0  0  0  0
  2  1  2  0  0  0  0
  3  4  2  0  0  0  0
  4  8  1  0  0  0  0
  4  5  1  0  0  0  0
  5  6  1  0  0  0  0
  6 12  1  0  0  0  0
  7  6  2  0  0  0  0
  8  7  1  0  0  0  0
  9  8  2  0  0  0  0
  9 13  1  0  0  0  0
 10  1  1  0  0  0  0
 11  5  1  0  0  0  0
 14 19  1  0  0  0  0
 15 14  2  0  0  0  0
 15 16  1  0  0  0  0
 16 17  2  0  0  0  0
 17 18  1  0  0  0  0
 18  2  1  0  0  0  0
 19 18  2  0  0  0  0
 20 14  1  0  0  0  0
 21 15  1  0  0  0  0
 22 16  1  0  0  0  0
 23  3  1  0  0  0  0
 24 30  1  0  0  0  0
 25 31  1  1  0  0  0
 25 24  1  0  0  0  0
 25 23  1  0  0  0  0
 26 33  1  0  0  0  0
 26 25  1  0  0  0  0
 27 28  1  0  0  0  0
 27 26  1  0  0  0  0
 28 34  1  0  0  0  0
 28 29  1  0  0  0  0
 29 36  1  6  0  0  0
 29 37  1  0  0  0  0
 29 24  1  0  0  0  0
 32 26  1  0  0  0  0
 35 28  1  0  0  0  0
 37 38  1  0  0  0  0
M  END
>  <minimizedAffinity>
-5.65702295

>  <minimizedRMSD>
0.299120367

$$$$
