
 OpenBabel03252509143D

 38 41  0  0  1  0  0  0  0  0999 V2000
   47.5050   32.5370   44.3430 C   0  0  0  0  0  0  0  0  0  0  0  0
   46.7980   33.5030   43.6290 C   0  0  0  0  0  0  0  0  0  0  0  0
   45.7500   34.2400   44.1800 C   0  0  0  0  0  0  0  0  0  0  0  0
   45.3830   34.0090   45.5020 C   0  0  0  0  0  0  0  0  0  0  0  0
   44.4580   34.5050   46.3460 N   0  0  0  0  0  0  0  0  0  0  0  0
   44.5530   33.8970   47.5490 C   0  0  0  0  0  0  0  0  0  0  0  0
   45.5550   33.0170   47.4270 N   0  0  0  0  0  0  0  0  0  0  0  0
   46.0810   33.0600   46.1950 C   0  0  0  0  0  0  0  0  0  0  0  0
   47.1280   32.3100   45.6800 C   0  0  0  0  0  0  0  0  0  0  0  0
   48.3130   31.9840   43.8830 H   0  0  0  0  0  0  0  0  0  0  0  0
   43.7620   35.2570   46.1030 H   0  0  0  0  0  0  0  0  0  0  0  0
   43.9770   34.0420   48.4500 H   0  0  0  0  0  0  0  0  0  0  0  0
   47.6680   31.5650   46.2420 H   0  0  0  0  0  0  0  0  0  0  0  0
   47.0430   33.1760   39.9930 C   0  0  0  0  0  0  0  0  0  0  0  0
   47.8690   34.2330   39.6260 C   0  0  0  0  0  0  0  0  0  0  0  0
   48.3370   35.0550   40.6430 C   0  0  0  0  0  0  0  0  0  0  0  0
   47.9810   34.8070   41.9500 N   0  0  0  0  0  0  0  0  0  0  0  0
   47.1720   33.7580   42.2370 C   0  0  0  0  0  0  0  0  0  0  0  0
   46.6810   32.9170   41.2860 N   0  0  0  0  0  0  0  0  0  0  0  0
   46.6350   32.4880   39.2550 H   0  0  0  0  0  0  0  0  0  0  0  0
   48.1170   34.3820   38.5890 H   0  0  0  0  0  0  0  0  0  0  0  0
   48.9830   35.8900   40.4070 H   0  0  0  0  0  0  0  0  0  0  0  0
   44.8700   35.4610   43.2490 S   0  0  0  0  0  0  0  0  0  0  0  0
   42.3660   35.2870   42.4860 N   0  0  0  0  0  0  0  0  0  0  0  0
   43.6660   34.7820   42.0920 C   0  0  1  0  0  0  0  0  0  0  0  0
   44.0620   35.2910   40.7110 C   0  0  0  0  0  0  0  0  0  0  0  0
   43.0310   35.2530   39.7930 O   0  0  0  0  0  0  0  0  0  0  0  0
   41.9080   34.5760   40.1920 C   0  0  0  0  0  0  0  0  0  0  0  0
   41.3790   35.2060   41.4590 C   0  0  1  0  0  0  0  0  0  0  0  0
   42.1170   34.7940   43.3740 H   0  0  0  0  0  0  0  0  0  0  0  0
   43.6940   33.6640   42.1160 H   0  0  0  0  0  0  0  0  0  0  0  0
   44.8380   34.6680   40.2780 H   0  0  0  0  0  0  0  0  0  0  0  0
   44.4240   36.3350   40.8310 H   0  0  0  0  0  0  0  0  0  0  0  0
   42.2000   33.5360   40.4420 H   0  0  0  0  0  0  0  0  0  0  0  0
   41.1650   34.6280   39.4040 H   0  0  0  0  0  0  0  0  0  0  0  0
   41.1080   36.2510   41.1850 H   0  0  0  0  0  0  0  0  0  0  0  0
   40.1140   34.5620   41.9430 C   0  0  0  0  0  2  0  0  0  0  0  0
   40.4040   33.7000   42.6060 H   0  0  0  0  0  0  0  0  0  0  0  0
  1  9  1  0  0  0  0
  2  3  1  0  0  0  0
  2  1  2  0  0  0  0
  3  4  2  0  0  0  0
  4  8  1  0  0  0  0
  4  5  1  0  0  0  0
  5  6  1  0  0  0  0
  6 12  1  0  0  0  0
  7  6  2  0  0  0  0
  8  7  1  0  0  0  0
  9  8  2  0  0  0  0
  9 13  1  0  0  0  0
 10  1  1  0  0  0  0
 11  5  1  0  0  0  0
 14 19  1  0  0  0  0
 15 14  2  0  0  0  0
 15 16  1  0  0  0  0
 16 17  2  0  0  0  0
 17 18  1  0  0  0  0
 18  2  1  0  0  0  0
 19 18  2  0  0  0  0
 20 14  1  0  0  0  0
 21 15  1  0  0  0  0
 22 16  1  0  0  0  0
 23  3  1  0  0  0  0
 24 30  1  0  0  0  0
 25 31  1  1  0  0  0
 25 24  1  0  0  0  0
 25 23  1  0  0  0  0
 26 33  1  0  0  0  0
 26 25  1  0  0  0  0
 27 28  1  0  0  0  0
 27 26  1  0  0  0  0
 28 34  1  0  0  0  0
 28 29  1  0  0  0  0
 29 36  1  6  0  0  0
 29 37  1  0  0  0  0
 29 24  1  0  0  0  0
 32 26  1  0  0  0  0
 35 28  1  0  0  0  0
 37 38  1  0  0  0  0
M  END
>  <minimizedAffinity>
-5.66007948

>  <minimizedRMSD>
0.298985809

$$$$
