
 OpenBabel03252509153D

 38 41  0  0  1  0  0  0  0  0999 V2000
   37.2850   33.0280   39.6540 C   0  0  0  0  0  0  0  0  0  0  0  0
   37.6240   31.6770   39.6770 C   0  0  0  0  0  0  0  0  0  0  0  0
   38.9080   31.2210   39.9740 C   0  0  0  0  0  0  0  0  0  0  0  0
   39.9050   32.1470   40.2640 C   0  0  0  0  0  0  0  0  0  0  0  0
   41.2120   32.0880   40.5850 N   0  0  0  0  0  0  0  0  0  0  0  0
   41.7030   33.3340   40.7630 C   0  0  0  0  0  0  0  0  0  0  0  0
   40.6710   34.1610   40.5450 N   0  0  0  0  0  0  0  0  0  0  0  0
   39.5640   33.4710   40.2380 C   0  0  0  0  0  0  0  0  0  0  0  0
   38.2990   33.9600   39.9480 C   0  0  0  0  0  0  0  0  0  0  0  0
   36.2780   33.3470   39.4190 H   0  0  0  0  0  0  0  0  0  0  0  0
   41.7690   31.2000   40.6820 H   0  0  0  0  0  0  0  0  0  0  0  0
   42.6980   33.6600   41.0240 H   0  0  0  0  0  0  0  0  0  0  0  0
   38.0480   35.0080   39.9330 H   0  0  0  0  0  0  0  0  0  0  0  0
   34.8790   29.2970   40.1070 C   0  0  0  0  0  0  0  0  0  0  0  0
   34.6400   28.8390   38.8160 C   0  0  0  0  0  0  0  0  0  0  0  0
   35.4330   29.3580   37.8010 C   0  0  0  0  0  0  0  0  0  0  0  0
   36.4080   30.2860   38.0940 N   0  0  0  0  0  0  0  0  0  0  0  0
   36.5870   30.6890   39.3760 C   0  0  0  0  0  0  0  0  0  0  0  0
   35.8420   30.2180   40.4130 N   0  0  0  0  0  0  0  0  0  0  0  0
   34.3000   28.9380   40.9560 H   0  0  0  0  0  0  0  0  0  0  0  0
   33.8660   28.1110   38.6420 H   0  0  0  0  0  0  0  0  0  0  0  0
   35.2860   29.0320   36.7810 H   0  0  0  0  0  0  0  0  0  0  0  0
   39.3110   29.4970   39.9960 S   0  0  0  0  0  0  0  0  0  0  0  0
   37.8360   28.1540   41.6990 N   0  0  0  0  0  0  0  0  0  0  0  0
   39.1650   28.7250   41.6170 C   0  0  1  0  0  0  0  0  0  0  0  0
   40.2370   27.6420   41.6760 C   0  0  0  0  0  0  0  0  0  0  0  0
   39.9890   26.6730   42.6280 O   0  0  0  0  0  0  0  0  0  0  0  0
   38.9670   26.9460   43.4990 C   0  0  0  0  0  0  0  0  0  0  0  0
   37.6950   27.1580   42.7110 C   0  0  1  0  0  0  0  0  0  0  0  0
   37.1750   28.9600   41.7820 H   0  0  0  0  0  0  0  0  0  0  0  0
   39.3340   29.4810   42.4230 H   0  0  0  0  0  0  0  0  0  0  0  0
   41.1960   28.0640   41.9560 H   0  0  0  0  0  0  0  0  0  0  0  0
   40.2960   27.1770   40.6680 H   0  0  0  0  0  0  0  0  0  0  0  0
   39.1940   27.9010   44.0140 H   0  0  0  0  0  0  0  0  0  0  0  0
   38.8530   26.1130   44.1840 H   0  0  0  0  0  0  0  0  0  0  0  0
   37.4970   26.1930   42.1920 H   0  0  0  0  0  0  0  0  0  0  0  0
   36.5050   27.4110   43.5880 C   0  0  0  0  0  2  0  0  0  0  0  0
   36.8260   28.1210   44.4010 H   0  0  0  0  0  0  0  0  0  0  0  0
  1  2  2  0  0  0  0
  1  9  1  0  0  0  0
  2  3  1  0  0  0  0
  3 23  1  0  0  0  0
  3  4  2  0  0  0  0
  4  5  1  0  0  0  0
  5 11  1  0  0  0  0
  5  6  1  0  0  0  0
  6 12  1  0  0  0  0
  7  6  2  0  0  0  0
  8  4  1  0  0  0  0
  8  7  1  0  0  0  0
  9  8  2  0  0  0  0
 10  1  1  0  0  0  0
 13  9  1  0  0  0  0
 14 19  1  0  0  0  0
 14 20  1  0  0  0  0
 15 14  2  0  0  0  0
 16 17  2  0  0  0  0
 16 15  1  0  0  0  0
 17 18  1  0  0  0  0
 18  2  1  0  0  0  0
 18 19  2  0  0  0  0
 21 15  1  0  0  0  0
 22 16  1  0  0  0  0
 23 25  1  0  0  0  0
 24 30  1  0  0  0  0
 24 29  1  0  0  0  0
 25 26  1  0  0  0  0
 25 24  1  0  0  0  0
 25 31  1  1  0  0  0
 26 32  1  0  0  0  0
 26 27  1  0  0  0  0
 27 28  1  0  0  0  0
 28 34  1  0  0  0  0
 28 35  1  0  0  0  0
 29 36  1  6  0  0  0
 29 28  1  0  0  0  0
 29 37  1  0  0  0  0
 33 26  1  0  0  0  0
 37 38  1  0  0  0  0
M  END
>  <minimizedAffinity>
-5.88217878

$$$$

 OpenBabel03252509153D

 38 41  0  0  1  0  0  0  0  0999 V2000
   39.4430   30.4180   42.0970 C   0  0  0  0  0  0  0  0  0  0  0  0
   38.2200   29.9470   41.6230 C   0  0  0  0  0  0  0  0  0  0  0  0
   37.3380   30.7350   40.8830 C   0  0  0  0  0  0  0  0  0  0  0  0
   37.6830   32.0520   40.5980 C   0  0  0  0  0  0  0  0  0  0  0  0
   37.1120   33.0770   39.9360 N   0  0  0  0  0  0  0  0  0  0  0  0
   37.9170   34.1610   39.9750 C   0  0  0  0  0  0  0  0  0  0  0  0
   38.9960   33.7830   40.6740 N   0  0  0  0  0  0  0  0  0  0  0  0
   38.8850   32.5060   41.0670 C   0  0  0  0  0  0  0  0  0  0  0  0
   39.7860   31.7520   41.8050 C   0  0  0  0  0  0  0  0  0  0  0  0
   40.1030   29.7790   42.6680 H   0  0  0  0  0  0  0  0  0  0  0  0
   36.1740   33.0380   39.4600 H   0  0  0  0  0  0  0  0  0  0  0  0
   37.7790   35.1460   39.5550 H   0  0  0  0  0  0  0  0  0  0  0  0
   40.7290   32.1270   42.1660 H   0  0  0  0  0  0  0  0  0  0  0  0
   36.8120   27.0230   43.3120 C   0  0  0  0  0  0  0  0  0  0  0  0
   37.1310   25.9710   42.4610 C   0  0  0  0  0  0  0  0  0  0  0  0
   37.8330   26.2810   41.3030 C   0  0  0  0  0  0  0  0  0  0  0  0
   38.1850   27.5860   41.0380 N   0  0  0  0  0  0  0  0  0  0  0  0
   37.8430   28.5640   41.9130 C   0  0  0  0  0  0  0  0  0  0  0  0
   37.1550   28.3230   43.0630 N   0  0  0  0  0  0  0  0  0  0  0  0
   36.2640   26.8620   44.2380 H   0  0  0  0  0  0  0  0  0  0  0  0
   36.8320   24.9680   42.7150 H   0  0  0  0  0  0  0  0  0  0  0  0
   38.1040   25.4970   40.6100 H   0  0  0  0  0  0  0  0  0  0  0  0
   35.7910   30.1100   40.2930 S   0  0  0  0  0  0  0  0  0  0  0  0
   36.9830   28.8110   38.3510 N   0  0  0  0  0  0  0  0  0  0  0  0
   35.8020   29.6260   38.5580 C   0  0  1  0  0  0  0  0  0  0  0  0
   34.5280   28.8230   38.3260 C   0  0  0  0  0  0  0  0  0  0  0  0
   34.5840   28.0090   37.2110 O   0  0  0  0  0  0  0  0  0  0  0  0
   35.6580   28.2100   36.3850 C   0  0  0  0  0  0  0  0  0  0  0  0
   36.9300   28.0040   37.1750 C   0  0  1  0  0  0  0  0  0  0  0  0
   37.8000   29.4600   38.4010 H   0  0  0  0  0  0  0  0  0  0  0  0
   35.8140   30.5320   37.9030 H   0  0  0  0  0  0  0  0  0  0  0  0
   33.6850   29.4820   38.1430 H   0  0  0  0  0  0  0  0  0  0  0  0
   34.3500   28.2090   39.2350 H   0  0  0  0  0  0  0  0  0  0  0  0
   35.6480   29.2680   36.0530 H   0  0  0  0  0  0  0  0  0  0  0  0
   35.6060   27.5080   35.5610 H   0  0  0  0  0  0  0  0  0  0  0  0
   36.9080   26.9420   37.5090 H   0  0  0  0  0  0  0  0  0  0  0  0
   38.1640   28.1520   36.3360 C   0  0  0  0  0  2  0  0  0  0  0  0
   38.0170   29.0470   35.6690 H   0  0  0  0  0  0  0  0  0  0  0  0
  1 10  1  0  0  0  0
  2 18  1  0  0  0  0
  2  1  2  0  0  0  0
  3  2  1  0  0  0  0
  4  3  2  0  0  0  0
  4  8  1  0  0  0  0
  5  6  1  0  0  0  0
  5  4  1  0  0  0  0
  6  7  2  0  0  0  0
  7  8  1  0  0  0  0
  8  9  2  0  0  0  0
  9  1  1  0  0  0  0
  9 13  1  0  0  0  0
 11  5  1  0  0  0  0
 12  6  1  0  0  0  0
 14 20  1  0  0  0  0
 15 21  1  0  0  0  0
 15 14  2  0  0  0  0
 16 15  1  0  0  0  0
 17 16  2  0  0  0  0
 17 18  1  0  0  0  0
 18 19  2  0  0  0  0
 19 14  1  0  0  0  0
 22 16  1  0  0  0  0
 23  3  1  0  0  0  0
 24 30  1  0  0  0  0
 24 25  1  0  0  0  0
 25 31  1  6  0  0  0
 25 23  1  0  0  0  0
 26 25  1  0  0  0  0
 26 33  1  0  0  0  0
 27 26  1  0  0  0  0
 28 29  1  0  0  0  0
 28 27  1  0  0  0  0
 29 36  1  1  0  0  0
 29 24  1  0  0  0  0
 32 26  1  0  0  0  0
 34 28  1  0  0  0  0
 35 28  1  0  0  0  0
 37 29  1  0  0  0  0
 38 37  1  0  0  0  0
M  END
>  <minimizedAffinity>
-5.58341074

$$$$

 OpenBabel03252509153D

 38 41  0  0  1  0  0  0  0  0999 V2000
   37.7000   30.9610   37.1840 C   0  0  0  0  0  0  0  0  0  0  0  0
   37.4790   31.1220   38.5500 C   0  0  0  0  0  0  0  0  0  0  0  0
   36.5070   30.4080   39.2510 C   0  0  0  0  0  0  0  0  0  0  0  0
   35.7140   29.4930   38.5670 C   0  0  0  0  0  0  0  0  0  0  0  0
   34.7130   28.6520   38.8910 N   0  0  0  0  0  0  0  0  0  0  0  0
   34.2990   27.9780   37.7950 C   0  0  0  0  0  0  0  0  0  0  0  0
   35.0670   28.4210   36.7900 N   0  0  0  0  0  0  0  0  0  0  0  0
   35.9370   29.3430   37.2260 C   0  0  0  0  0  0  0  0  0  0  0  0
   36.8940   30.0330   36.4970 C   0  0  0  0  0  0  0  0  0  0  0  0
   38.4630   31.5320   36.6710 H   0  0  0  0  0  0  0  0  0  0  0  0
   34.3110   28.5390   39.8570 H   0  0  0  0  0  0  0  0  0  0  0  0
   33.5250   27.2340   37.6870 H   0  0  0  0  0  0  0  0  0  0  0  0
   37.0560   29.9010   35.4400 H   0  0  0  0  0  0  0  0  0  0  0  0
   38.5390   34.1610   40.2890 C   0  0  0  0  0  0  0  0  0  0  0  0
   39.8480   33.8800   40.6650 C   0  0  0  0  0  0  0  0  0  0  0  0
   40.3570   32.6370   40.3150 C   0  0  0  0  0  0  0  0  0  0  0  0
   39.5730   31.7410   39.6220 N   0  0  0  0  0  0  0  0  0  0  0  0
   38.3050   32.0800   39.2860 C   0  0  0  0  0  0  0  0  0  0  0  0
   37.7490   33.2820   39.6010 N   0  0  0  0  0  0  0  0  0  0  0  0
   38.0690   35.1130   40.5270 H   0  0  0  0  0  0  0  0  0  0  0  0
   40.4180   34.6170   41.2060 H   0  0  0  0  0  0  0  0  0  0  0  0
   41.3710   32.3730   40.5840 H   0  0  0  0  0  0  0  0  0  0  0  0
   36.2480   30.6320   40.9880 S   0  0  0  0  0  0  0  0  0  0  0  0
   36.9560   28.1170   41.2180 N   0  0  0  0  0  0  0  0  0  0  0  0
   36.9520   29.3290   42.0130 C   0  0  1  0  0  0  0  0  0  0  0  0
   38.3710   29.7690   42.3560 C   0  0  0  0  0  0  0  0  0  0  0  0
   39.1940   28.7280   42.7390 O   0  0  0  0  0  0  0  0  0  0  0  0
   38.5690   27.5300   42.9600 C   0  0  0  0  0  0  0  0  0  0  0  0
   37.8480   27.1120   41.6990 C   0  0  1  0  0  0  0  0  0  0  0  0
   35.9580   27.8160   41.1390 H   0  0  0  0  0  0  0  0  0  0  0  0
   36.3500   29.2020   42.9470 H   0  0  0  0  0  0  0  0  0  0  0  0
   38.3700   30.4450   43.2050 H   0  0  0  0  0  0  0  0  0  0  0  0
   38.7900   30.2730   41.4590 H   0  0  0  0  0  0  0  0  0  0  0  0
   37.7970   27.6780   43.7430 H   0  0  0  0  0  0  0  0  0  0  0  0
   39.3110   26.7880   43.2350 H   0  0  0  0  0  0  0  0  0  0  0  0
   38.6400   26.9840   40.9280 H   0  0  0  0  0  0  0  0  0  0  0  0
   37.1750   25.7780   41.8310 C   0  0  0  0  0  2  0  0  0  0  0  0
   36.6750   25.7470   42.8390 H   0  0  0  0  0  0  0  0  0  0  0  0
  1  2  1  0  0  0  0
  2  3  2  0  0  0  0
  2 18  1  0  0  0  0
  3 23  1  0  0  0  0
  4  5  1  0  0  0  0
  4  3  1  0  0  0  0
  5 11  1  0  0  0  0
  6  5  1  0  0  0  0
  7  8  1  0  0  0  0
  7  6  2  0  0  0  0
  8  4  2  0  0  0  0
  9  1  2  0  0  0  0
  9  8  1  0  0  0  0
 10  1  1  0  0  0  0
 12  6  1  0  0  0  0
 13  9  1  0  0  0  0
 14 20  1  0  0  0  0
 14 15  1  0  0  0  0
 15 21  1  0  0  0  0
 16 22  1  0  0  0  0
 16 15  2  0  0  0  0
 17 16  1  0  0  0  0
 18 19  1  0  0  0  0
 18 17  2  0  0  0  0
 19 14  2  0  0  0  0
 23 25  1  0  0  0  0
 24 29  1  0  0  0  0
 24 25  1  0  0  0  0
 25 26  1  0  0  0  0
 25 31  1  1  0  0  0
 26 27  1  0  0  0  0
 26 32  1  0  0  0  0
 27 28  1  0  0  0  0
 28 35  1  0  0  0  0
 28 34  1  0  0  0  0
 29 36  1  6  0  0  0
 29 37  1  0  0  0  0
 29 28  1  0  0  0  0
 30 24  1  0  0  0  0
 33 26  1  0  0  0  0
 37 38  1  0  0  0  0
M  END
>  <minimizedAffinity>
-5.53392029

$$$$

 OpenBabel03252509153D

 38 41  0  0  1  0  0  0  0  0999 V2000
   36.7580   30.1710   39.8320 C   0  0  0  0  0  0  0  0  0  0  0  0
   37.6490   29.8020   40.8380 C   0  0  0  0  0  0  0  0  0  0  0  0
   38.5500   30.6950   41.4190 C   0  0  0  0  0  0  0  0  0  0  0  0
   38.5700   32.0160   40.9840 C   0  0  0  0  0  0  0  0  0  0  0  0
   39.2720   33.1230   41.2940 N   0  0  0  0  0  0  0  0  0  0  0  0
   38.8620   34.1610   40.5330 C   0  0  0  0  0  0  0  0  0  0  0  0
   37.8940   33.6710   39.7470 N   0  0  0  0  0  0  0  0  0  0  0  0
   37.6920   32.3690   39.9960 C   0  0  0  0  0  0  0  0  0  0  0  0
   36.7830   31.5100   39.3970 C   0  0  0  0  0  0  0  0  0  0  0  0
   36.0720   29.4530   39.4040 H   0  0  0  0  0  0  0  0  0  0  0  0
   40.0290   33.1710   42.0230 H   0  0  0  0  0  0  0  0  0  0  0  0
   39.2010   35.1860   40.5130 H   0  0  0  0  0  0  0  0  0  0  0  0
   36.0980   31.8070   38.6200 H   0  0  0  0  0  0  0  0  0  0  0  0
   36.8740   26.8180   42.8070 C   0  0  0  0  0  0  0  0  0  0  0  0
   37.6200   25.8200   42.1920 C   0  0  0  0  0  0  0  0  0  0  0  0
   38.3890   26.1860   41.0950 C   0  0  0  0  0  0  0  0  0  0  0  0
   38.3910   27.4930   40.6600 N   0  0  0  0  0  0  0  0  0  0  0  0
   37.6400   28.4170   41.3080 C   0  0  0  0  0  0  0  0  0  0  0  0
   36.8660   28.1190   42.3880 N   0  0  0  0  0  0  0  0  0  0  0  0
   36.2460   26.6110   43.6720 H   0  0  0  0  0  0  0  0  0  0  0  0
   37.5820   24.8130   42.5730 H   0  0  0  0  0  0  0  0  0  0  0  0
   38.9870   25.4440   40.5830 H   0  0  0  0  0  0  0  0  0  0  0  0
   39.6710   30.1980   42.6950 S   0  0  0  0  0  0  0  0  0  0  0  0
   41.7680   31.7670   42.8500 N   0  0  0  0  0  0  0  0  0  0  0  0
   41.4070   30.4750   42.3020 C   0  0  1  0  0  0  0  0  0  0  0  0
   42.1860   29.3510   42.9760 C   0  0  0  0  0  0  0  0  0  0  0  0
   43.5240   29.6420   43.1630 O   0  0  0  0  0  0  0  0  0  0  0  0
   43.9780   30.7700   42.5310 C   0  0  0  0  0  0  0  0  0  0  0  0
   43.1730   31.9570   43.0080 C   0  0  1  0  0  0  0  0  0  0  0  0
   41.2930   32.4810   42.2530 H   0  0  0  0  0  0  0  0  0  0  0  0
   41.5640   30.4440   41.1940 H   0  0  0  0  0  0  0  0  0  0  0  0
   42.1830   28.4570   42.3610 H   0  0  0  0  0  0  0  0  0  0  0  0
   41.7020   29.1510   43.9560 H   0  0  0  0  0  0  0  0  0  0  0  0
   43.7860   30.6610   41.4450 H   0  0  0  0  0  0  0  0  0  0  0  0
   45.0280   30.9070   42.7630 H   0  0  0  0  0  0  0  0  0  0  0  0
   43.3700   32.0350   44.1010 H   0  0  0  0  0  0  0  0  0  0  0  0
   43.6370   33.2500   42.4080 C   0  0  0  0  0  2  0  0  0  0  0  0
   43.8350   33.0670   41.3140 H   0  0  0  0  0  0  0  0  0  0  0  0
  1  2  1  0  0  0  0
  2 18  1  0  0  0  0
  2  3  2  0  0  0  0
  3 23  1  0  0  0  0
  4  5  1  0  0  0  0
  4  3  1  0  0  0  0
  5 11  1  0  0  0  0
  6  5  1  0  0  0  0
  7  8  1  0  0  0  0
  7  6  2  0  0  0  0
  8  4  2  0  0  0  0
  9  1  2  0  0  0  0
  9  8  1  0  0  0  0
 10  1  1  0  0  0  0
 12  6  1  0  0  0  0
 13  9  1  0  0  0  0
 14 20  1  0  0  0  0
 15 21  1  0  0  0  0
 15 14  2  0  0  0  0
 16 15  1  0  0  0  0
 17 16  2  0  0  0  0
 17 18  1  0  0  0  0
 18 19  2  0  0  0  0
 19 14  1  0  0  0  0
 22 16  1  0  0  0  0
 24 29  1  0  0  0  0
 25 31  1  6  0  0  0
 25 23  1  0  0  0  0
 25 24  1  0  0  0  0
 25 26  1  0  0  0  0
 26 27  1  0  0  0  0
 26 33  1  0  0  0  0
 28 35  1  0  0  0  0
 28 29  1  0  0  0  0
 28 27  1  0  0  0  0
 29 36  1  1  0  0  0
 30 24  1  0  0  0  0
 32 26  1  0  0  0  0
 34 28  1  0  0  0  0
 37 29  1  0  0  0  0
 38 37  1  0  0  0  0
M  END
>  <minimizedAffinity>
-5.39822054

$$$$

 OpenBabel03252509153D

 38 41  0  0  1  0  0  0  0  0999 V2000
   36.6370   26.4490   39.3330 C   0  0  0  0  0  0  0  0  0  0  0  0
   36.2840   27.7920   39.2190 C   0  0  0  0  0  0  0  0  0  0  0  0
   36.2650   28.6670   40.3050 C   0  0  0  0  0  0  0  0  0  0  0  0
   36.6120   28.1890   41.5640 C   0  0  0  0  0  0  0  0  0  0  0  0
   36.7080   28.7130   42.8020 N   0  0  0  0  0  0  0  0  0  0  0  0
   37.1010   27.7640   43.6790 C   0  0  0  0  0  0  0  0  0  0  0  0
   37.2460   26.6460   42.9570 N   0  0  0  0  0  0  0  0  0  0  0  0
   36.9560   26.8700   41.6670 C   0  0  0  0  0  0  0  0  0  0  0  0
   36.9870   25.9720   40.6100 C   0  0  0  0  0  0  0  0  0  0  0  0
   36.6410   25.7980   38.4680 H   0  0  0  0  0  0  0  0  0  0  0  0
   36.5040   29.7160   43.0480 H   0  0  0  0  0  0  0  0  0  0  0  0
   37.2780   27.8290   44.7420 H   0  0  0  0  0  0  0  0  0  0  0  0
   37.2620   24.9350   40.7100 H   0  0  0  0  0  0  0  0  0  0  0  0
   36.5430   29.3090   35.8990 C   0  0  0  0  0  0  0  0  0  0  0  0
   35.2360   29.2830   35.4270 C   0  0  0  0  0  0  0  0  0  0  0  0
   34.2690   28.7380   36.2630 C   0  0  0  0  0  0  0  0  0  0  0  0
   34.6230   28.2530   37.5020 N   0  0  0  0  0  0  0  0  0  0  0  0
   35.9180   28.3110   37.9000 C   0  0  0  0  0  0  0  0  0  0  0  0
   36.9100   28.8320   37.1270 N   0  0  0  0  0  0  0  0  0  0  0  0
   37.3570   29.7190   35.3040 H   0  0  0  0  0  0  0  0  0  0  0  0
   35.0130   29.6760   34.4490 H   0  0  0  0  0  0  0  0  0  0  0  0
   33.2380   28.6960   35.9400 H   0  0  0  0  0  0  0  0  0  0  0  0
   35.8130   30.3690   40.1310 S   0  0  0  0  0  0  0  0  0  0  0  0
   38.2800   30.7620   40.9290 N   0  0  0  0  0  0  0  0  0  0  0  0
   37.0750   31.5290   40.6840 C   0  0  1  0  0  0  0  0  0  0  0  0
   37.2750   32.5240   39.5460 C   0  0  0  0  0  0  0  0  0  0  0  0
   38.4840   33.1890   39.6010 O   0  0  0  0  0  0  0  0  0  0  0  0
   39.2000   33.0210   40.7570 C   0  0  0  0  0  0  0  0  0  0  0  0
   39.4710   31.5480   40.9570 C   0  0  1  0  0  0  0  0  0  0  0  0
   38.1020   30.2050   41.7960 H   0  0  0  0  0  0  0  0  0  0  0  0
   36.7360   32.0610   41.6070 H   0  0  0  0  0  0  0  0  0  0  0  0
   36.5270   33.3090   39.5850 H   0  0  0  0  0  0  0  0  0  0  0  0
   37.1960   31.9590   38.5920 H   0  0  0  0  0  0  0  0  0  0  0  0
   38.5720   33.3560   41.6070 H   0  0  0  0  0  0  0  0  0  0  0  0
   40.1320   33.5710   40.6790 H   0  0  0  0  0  0  0  0  0  0  0  0
   40.0890   31.2340   40.0860 H   0  0  0  0  0  0  0  0  0  0  0  0
   40.2990   31.2720   42.1760 C   0  0  0  0  0  2  0  0  0  0  0  0
   39.9090   31.9220   43.0080 H   0  0  0  0  0  0  0  0  0  0  0  0
  1  9  1  0  0  0  0
  2  1  2  0  0  0  0
  2  3  1  0  0  0  0
  3  4  2  0  0  0  0
  4  8  1  0  0  0  0
  4  5  1  0  0  0  0
  5 11  1  0  0  0  0
  5  6  1  0  0  0  0
  6 12  1  0  0  0  0
  7  6  2  0  0  0  0
  8  7  1  0  0  0  0
  9 13  1  0  0  0  0
  9  8  2  0  0  0  0
 10  1  1  0  0  0  0
 14 19  1  0  0  0  0
 15 14  2  0  0  0  0
 15 16  1  0  0  0  0
 16 17  2  0  0  0  0
 17 18  1  0  0  0  0
 18  2  1  0  0  0  0
 19 18  2  0  0  0  0
 20 14  1  0  0  0  0
 21 15  1  0  0  0  0
 22 16  1  0  0  0  0
 23  3  1  0  0  0  0
 23 25  1  0  0  0  0
 24 29  1  0  0  0  0
 24 30  1  0  0  0  0
 25 24  1  0  0  0  0
 25 31  1  1  0  0  0
 26 32  1  0  0  0  0
 26 27  1  0  0  0  0
 26 25  1  0  0  0  0
 27 28  1  0  0  0  0
 28 29  1  0  0  0  0
 28 34  1  0  0  0  0
 29 36  1  6  0  0  0
 29 37  1  0  0  0  0
 33 26  1  0  0  0  0
 35 28  1  0  0  0  0
 37 38  1  0  0  0  0
M  END
>  <minimizedAffinity>
-5.39590693

$$$$

 OpenBabel03252509153D

 38 41  0  0  1  0  0  0  0  0999 V2000
   37.0030   30.0850   36.9450 C   0  0  0  0  0  0  0  0  0  0  0  0
   36.3590   29.4390   38.0000 C   0  0  0  0  0  0  0  0  0  0  0  0
   36.2530   29.9910   39.2760 C   0  0  0  0  0  0  0  0  0  0  0  0
   36.8110   31.2420   39.5210 C   0  0  0  0  0  0  0  0  0  0  0  0
   36.9060   32.0640   40.5840 N   0  0  0  0  0  0  0  0  0  0  0  0
   37.5760   33.1870   40.2440 C   0  0  0  0  0  0  0  0  0  0  0  0
   37.8910   33.0400   38.9510 N   0  0  0  0  0  0  0  0  0  0  0  0
   37.4410   31.8680   38.4810 C   0  0  0  0  0  0  0  0  0  0  0  0
   37.5650   31.3500   37.2000 C   0  0  0  0  0  0  0  0  0  0  0  0
   37.0660   29.6270   35.9670 H   0  0  0  0  0  0  0  0  0  0  0  0
   36.5150   31.8600   41.5400 H   0  0  0  0  0  0  0  0  0  0  0  0
   37.8330   34.0510   40.8390 H   0  0  0  0  0  0  0  0  0  0  0  0
   38.0650   31.8580   36.3920 H   0  0  0  0  0  0  0  0  0  0  0  0
   33.9540   26.8410   37.0800 C   0  0  0  0  0  0  0  0  0  0  0  0
   34.6510   25.6590   37.3030 C   0  0  0  0  0  0  0  0  0  0  0  0
   35.9530   25.7680   37.7720 C   0  0  0  0  0  0  0  0  0  0  0  0
   36.5030   27.0110   37.9970 N   0  0  0  0  0  0  0  0  0  0  0  0
   35.7660   28.1240   37.7580 C   0  0  0  0  0  0  0  0  0  0  0  0
   34.4860   28.0810   37.2990 N   0  0  0  0  0  0  0  0  0  0  0  0
   32.9290   26.8380   36.7130 H   0  0  0  0  0  0  0  0  0  0  0  0
   34.1740   24.7120   37.1110 H   0  0  0  0  0  0  0  0  0  0  0  0
   36.5360   24.8770   37.9620 H   0  0  0  0  0  0  0  0  0  0  0  0
   35.4300   29.1490   40.5970 S   0  0  0  0  0  0  0  0  0  0  0  0
   37.4820   27.5280   40.8000 N   0  0  0  0  0  0  0  0  0  0  0  0
   36.5260   28.1950   41.6620 C   0  0  1  0  0  0  0  0  0  0  0  0
   37.2150   29.1980   42.5800 C   0  0  0  0  0  0  0  0  0  0  0  0
   38.3870   28.7220   43.1350 O   0  0  0  0  0  0  0  0  0  0  0  0
   38.6270   27.3850   42.9560 C   0  0  0  0  0  0  0  0  0  0  0  0
   38.6590   27.0860   41.4750 C   0  0  1  0  0  0  0  0  0  0  0  0
   36.9530   26.7760   40.3020 H   0  0  0  0  0  0  0  0  0  0  0  0
   35.9380   27.4590   42.2640 H   0  0  0  0  0  0  0  0  0  0  0  0
   36.5860   29.4350   43.4320 H   0  0  0  0  0  0  0  0  0  0  0  0
   37.4210   30.1110   41.9820 H   0  0  0  0  0  0  0  0  0  0  0  0
   37.7770   26.8180   43.3850 H   0  0  0  0  0  0  0  0  0  0  0  0
   39.5770   27.1320   43.4140 H   0  0  0  0  0  0  0  0  0  0  0  0
   39.5100   27.6770   41.0660 H   0  0  0  0  0  0  0  0  0  0  0  0
   38.9710   25.6490   41.1810 C   0  0  0  0  0  2  0  0  0  0  0  0
   38.3800   25.0170   41.9020 H   0  0  0  0  0  0  0  0  0  0  0  0
  1  9  2  0  0  0  0
  1  2  1  0  0  0  0
  2  3  2  0  0  0  0
  3  4  1  0  0  0  0
  3 23  1  0  0  0  0
  4  5  1  0  0  0  0
  5 11  1  0  0  0  0
  6  5  1  0  0  0  0
  6 12  1  0  0  0  0
  7  6  2  0  0  0  0
  8  7  1  0  0  0  0
  8  4  2  0  0  0  0
  9  8  1  0  0  0  0
 10  1  1  0  0  0  0
 13  9  1  0  0  0  0
 14 19  2  0  0  0  0
 14 15  1  0  0  0  0
 15 16  2  0  0  0  0
 16 22  1  0  0  0  0
 16 17  1  0  0  0  0
 18 17  2  0  0  0  0
 18  2  1  0  0  0  0
 19 18  1  0  0  0  0
 20 14  1  0  0  0  0
 21 15  1  0  0  0  0
 23 25  1  0  0  0  0
 24 29  1  0  0  0  0
 24 25  1  0  0  0  0
 25 31  1  1  0  0  0
 25 26  1  0  0  0  0
 26 27  1  0  0  0  0
 26 32  1  0  0  0  0
 28 27  1  0  0  0  0
 28 34  1  0  0  0  0
 28 35  1  0  0  0  0
 29 36  1  6  0  0  0
 29 28  1  0  0  0  0
 30 24  1  0  0  0  0
 33 26  1  0  0  0  0
 37 29  1  0  0  0  0
 37 38  1  0  0  0  0
M  END
>  <minimizedAffinity>
-5.33086061

$$$$

 OpenBabel03252509153D

 38 41  0  0  1  0  0  0  0  0999 V2000
   34.9690   28.5650   39.3260 C   0  0  0  0  0  0  0  0  0  0  0  0
   36.3390   28.6400   39.5730 C   0  0  0  0  0  0  0  0  0  0  0  0
   37.2720   28.9520   38.5840 C   0  0  0  0  0  0  0  0  0  0  0  0
   36.8290   29.2000   37.2890 C   0  0  0  0  0  0  0  0  0  0  0  0
   37.4080   29.5190   36.1150 N   0  0  0  0  0  0  0  0  0  0  0  0
   36.4690   29.6450   35.1530 C   0  0  0  0  0  0  0  0  0  0  0  0
   35.3000   29.3980   35.7570 N   0  0  0  0  0  0  0  0  0  0  0  0
   35.4830   29.1230   37.0560 C   0  0  0  0  0  0  0  0  0  0  0  0
   34.5280   28.8170   38.0140 C   0  0  0  0  0  0  0  0  0  0  0  0
   34.2730   28.3200   40.1180 H   0  0  0  0  0  0  0  0  0  0  0  0
   38.4430   29.6500   35.9710 H   0  0  0  0  0  0  0  0  0  0  0  0
   36.5730   29.8900   34.1060 H   0  0  0  0  0  0  0  0  0  0  0  0
   33.4700   28.7620   37.8120 H   0  0  0  0  0  0  0  0  0  0  0  0
   37.3990   26.8690   42.5930 C   0  0  0  0  0  0  0  0  0  0  0  0
   37.7290   27.8940   43.4720 C   0  0  0  0  0  0  0  0  0  0  0  0
   37.5830   29.1960   43.0130 C   0  0  0  0  0  0  0  0  0  0  0  0
   37.1270   29.4300   41.7350 N   0  0  0  0  0  0  0  0  0  0  0  0
   36.8220   28.3830   40.9290 C   0  0  0  0  0  0  0  0  0  0  0  0
   36.9450   27.0850   41.3220 N   0  0  0  0  0  0  0  0  0  0  0  0
   37.4870   25.8220   42.8780 H   0  0  0  0  0  0  0  0  0  0  0  0
   38.0810   27.6570   44.4620 H   0  0  0  0  0  0  0  0  0  0  0  0
   37.8260   30.0280   43.6600 H   0  0  0  0  0  0  0  0  0  0  0  0
   39.0070   29.0410   38.9250 S   0  0  0  0  0  0  0  0  0  0  0  0
   38.4150   31.4600   39.7470 N   0  0  0  0  0  0  0  0  0  0  0  0
   39.5840   30.6830   39.3900 C   0  0  1  0  0  0  0  0  0  0  0  0
   40.5080   30.4910   40.5880 C   0  0  0  0  0  0  0  0  0  0  0  0
   40.6780   31.6360   41.3410 O   0  0  0  0  0  0  0  0  0  0  0  0
   40.1850   32.7880   40.7870 C   0  0  0  0  0  0  0  0  0  0  0  0
   38.7060   32.6160   40.5320 C   0  0  1  0  0  0  0  0  0  0  0  0
   37.9070   31.6530   38.8530 H   0  0  0  0  0  0  0  0  0  0  0  0
   40.1430   31.1520   38.5420 H   0  0  0  0  0  0  0  0  0  0  0  0
   41.5080   30.2240   40.2640 H   0  0  0  0  0  0  0  0  0  0  0  0
   40.0740   29.6840   41.2170 H   0  0  0  0  0  0  0  0  0  0  0  0
   40.6710   32.9360   39.8020 H   0  0  0  0  0  0  0  0  0  0  0  0
   40.3580   33.6120   41.4710 H   0  0  0  0  0  0  0  0  0  0  0  0
   38.2440   32.4550   41.5320 H   0  0  0  0  0  0  0  0  0  0  0  0
   38.0660   33.8520   39.9730 C   0  0  0  0  0  2  0  0  0  0  0  0
   38.7600   34.2700   39.1900 H   0  0  0  0  0  0  0  0  0  0  0  0
  1  2  1  0  0  0  0
  1 10  1  0  0  0  0
  2 18  1  0  0  0  0
  3 23  1  0  0  0  0
  3  2  2  0  0  0  0
  4  3  1  0  0  0  0
  5  4  1  0  0  0  0
  6  7  2  0  0  0  0
  6  5  1  0  0  0  0
  7  8  1  0  0  0  0
  8  4  2  0  0  0  0
  8  9  1  0  0  0  0
  9  1  2  0  0  0  0
 11  5  1  0  0  0  0
 12  6  1  0  0  0  0
 13  9  1  0  0  0  0
 14 20  1  0  0  0  0
 14 15  1  0  0  0  0
 15 21  1  0  0  0  0
 16 15  2  0  0  0  0
 16 22  1  0  0  0  0
 17 16  1  0  0  0  0
 18 19  1  0  0  0  0
 18 17  2  0  0  0  0
 19 14  2  0  0  0  0
 23 25  1  0  0  0  0
 24 29  1  0  0  0  0
 25 31  1  6  0  0  0
 25 24  1  0  0  0  0
 25 26  1  0  0  0  0
 26 33  1  0  0  0  0
 26 27  1  0  0  0  0
 28 27  1  0  0  0  0
 28 35  1  0  0  0  0
 29 28  1  0  0  0  0
 29 36  1  1  0  0  0
 30 24  1  0  0  0  0
 32 26  1  0  0  0  0
 34 28  1  0  0  0  0
 37 29  1  0  0  0  0
 38 37  1  0  0  0  0
M  END
>  <minimizedAffinity>
-5.29654551

$$$$

 OpenBabel03252509153D

 38 41  0  0  1  0  0  0  0  0999 V2000
   36.9630   32.4970   39.2560 C   0  0  0  0  0  0  0  0  0  0  0  0
   37.3530   31.1750   39.0530 C   0  0  0  0  0  0  0  0  0  0  0  0
   38.6320   30.7060   39.3520 C   0  0  0  0  0  0  0  0  0  0  0  0
   39.5710   31.5880   39.8790 C   0  0  0  0  0  0  0  0  0  0  0  0
   40.8550   31.5050   40.2770 N   0  0  0  0  0  0  0  0  0  0  0  0
   41.2830   32.7090   40.7170 C   0  0  0  0  0  0  0  0  0  0  0  0
   40.2360   33.5340   40.5810 N   0  0  0  0  0  0  0  0  0  0  0  0
   39.1790   32.8840   40.0740 C   0  0  0  0  0  0  0  0  0  0  0  0
   37.9180   33.3840   39.7890 C   0  0  0  0  0  0  0  0  0  0  0  0
   35.9620   32.8270   39.0120 H   0  0  0  0  0  0  0  0  0  0  0  0
   41.4390   30.6300   40.2480 H   0  0  0  0  0  0  0  0  0  0  0  0
   42.2460   33.0060   41.1040 H   0  0  0  0  0  0  0  0  0  0  0  0
   37.6270   34.4090   39.9500 H   0  0  0  0  0  0  0  0  0  0  0  0
   34.6300   28.7420   38.8320 C   0  0  0  0  0  0  0  0  0  0  0  0
   34.5470   28.4690   37.4710 C   0  0  0  0  0  0  0  0  0  0  0  0
   35.4370   29.1310   36.6350 C   0  0  0  0  0  0  0  0  0  0  0  0
   36.3520   30.0150   37.1630 N   0  0  0  0  0  0  0  0  0  0  0  0
   36.3780   30.2330   38.5010 C   0  0  0  0  0  0  0  0  0  0  0  0
   35.5330   29.6150   39.3700 N   0  0  0  0  0  0  0  0  0  0  0  0
   33.9680   28.2630   39.5510 H   0  0  0  0  0  0  0  0  0  0  0  0
   33.8130   27.7690   37.1090 H   0  0  0  0  0  0  0  0  0  0  0  0
   35.4120   28.9520   35.5690 H   0  0  0  0  0  0  0  0  0  0  0  0
   39.1010   29.0200   39.0840 S   0  0  0  0  0  0  0  0  0  0  0  0
   37.8570   28.6760   41.3670 N   0  0  0  0  0  0  0  0  0  0  0  0
   38.6160   27.8990   40.4080 C   0  0  1  0  0  0  0  0  0  0  0  0
   37.7530   26.8190   39.7640 C   0  0  0  0  0  0  0  0  0  0  0  0
   36.9420   26.1540   40.6620 O   0  0  0  0  0  0  0  0  0  0  0  0
   37.1920   26.4050   41.9850 C   0  0  0  0  0  0  0  0  0  0  0  0
   37.0470   27.8880   42.2390 C   0  0  1  0  0  0  0  0  0  0  0  0
   38.5440   29.2980   41.8500 H   0  0  0  0  0  0  0  0  0  0  0  0
   39.5210   27.4410   40.8800 H   0  0  0  0  0  0  0  0  0  0  0  0
   38.3720   26.0430   39.3260 H   0  0  0  0  0  0  0  0  0  0  0  0
   37.1330   27.3090   38.9840 H   0  0  0  0  0  0  0  0  0  0  0  0
   38.2470   26.1400   42.1970 H   0  0  0  0  0  0  0  0  0  0  0  0
   36.4870   25.8470   42.5910 H   0  0  0  0  0  0  0  0  0  0  0  0
   35.9850   28.1310   42.0060 H   0  0  0  0  0  0  0  0  0  0  0  0
   37.2510   28.2520   43.6790 C   0  0  0  0  0  2  0  0  0  0  0  0
   38.1380   27.6690   44.0560 H   0  0  0  0  0  0  0  0  0  0  0  0
  1  9  1  0  0  0  0
  2  1  2  0  0  0  0
  2  3  1  0  0  0  0
  3  4  2  0  0  0  0
  4  8  1  0  0  0  0
  4  5  1  0  0  0  0
  5  6  1  0  0  0  0
  6 12  1  0  0  0  0
  7  6  2  0  0  0  0
  8  7  1  0  0  0  0
  9 13  1  0  0  0  0
  9  8  2  0  0  0  0
 10  1  1  0  0  0  0
 11  5  1  0  0  0  0
 14 19  1  0  0  0  0
 14 20  1  0  0  0  0
 15 14  2  0  0  0  0
 16 17  2  0  0  0  0
 16 15  1  0  0  0  0
 17 18  1  0  0  0  0
 18  2  1  0  0  0  0
 18 19  2  0  0  0  0
 21 15  1  0  0  0  0
 22 16  1  0  0  0  0
 23  3  1  0  0  0  0
 23 25  1  0  0  0  0
 24 30  1  0  0  0  0
 24 29  1  0  0  0  0
 25 31  1  1  0  0  0
 25 24  1  0  0  0  0
 26 25  1  0  0  0  0
 26 27  1  0  0  0  0
 27 28  1  0  0  0  0
 28 34  1  0  0  0  0
 28 29  1  0  0  0  0
 28 35  1  0  0  0  0
 29 36  1  6  0  0  0
 29 37  1  0  0  0  0
 32 26  1  0  0  0  0
 33 26  1  0  0  0  0
 37 38  1  0  0  0  0
M  END
>  <minimizedAffinity>
-5.28609705

$$$$

 OpenBabel03252509153D

 38 41  0  0  1  0  0  0  0  0999 V2000
   37.3040   30.8860   36.7410 C   0  0  0  0  0  0  0  0  0  0  0  0
   37.1260   30.8130   38.1220 C   0  0  0  0  0  0  0  0  0  0  0  0
   36.3170   29.8560   38.7330 C   0  0  0  0  0  0  0  0  0  0  0  0
   35.6520   28.9260   37.9410 C   0  0  0  0  0  0  0  0  0  0  0  0
   34.8170   27.8920   38.1620 N   0  0  0  0  0  0  0  0  0  0  0  0
   34.4660   27.3200   36.9900 C   0  0  0  0  0  0  0  0  0  0  0  0
   35.1020   28.0210   36.0430 N   0  0  0  0  0  0  0  0  0  0  0  0
   35.8310   29.0050   36.5870 C   0  0  0  0  0  0  0  0  0  0  0  0
   36.6280   29.9420   35.9450 C   0  0  0  0  0  0  0  0  0  0  0  0
   37.9400   31.6430   36.3000 H   0  0  0  0  0  0  0  0  0  0  0  0
   34.4850   27.5780   39.1100 H   0  0  0  0  0  0  0  0  0  0  0  0
   33.8180   26.4790   36.7920 H   0  0  0  0  0  0  0  0  0  0  0  0
   36.7580   29.9890   34.8770 H   0  0  0  0  0  0  0  0  0  0  0  0
   37.8710   33.8650   39.9960 C   0  0  0  0  0  0  0  0  0  0  0  0
   39.1150   33.6050   40.5600 C   0  0  0  0  0  0  0  0  0  0  0  0
   39.6900   32.3710   40.2880 C   0  0  0  0  0  0  0  0  0  0  0  0
   39.0310   31.4640   39.4880 N   0  0  0  0  0  0  0  0  0  0  0  0
   37.8200   31.7830   38.9700 C   0  0  0  0  0  0  0  0  0  0  0  0
   37.2040   32.9760   39.2000 N   0  0  0  0  0  0  0  0  0  0  0  0
   37.3550   34.8090   40.1630 H   0  0  0  0  0  0  0  0  0  0  0  0
   39.5880   34.3490   41.1790 H   0  0  0  0  0  0  0  0  0  0  0  0
   40.6570   32.1220   40.7030 H   0  0  0  0  0  0  0  0  0  0  0  0
   36.1090   29.7860   40.4900 S   0  0  0  0  0  0  0  0  0  0  0  0
   38.3200   29.5690   41.8840 N   0  0  0  0  0  0  0  0  0  0  0  0
   37.2880   28.7150   41.3310 C   0  0  1  0  0  0  0  0  0  0  0  0
   36.5120   28.0010   42.4320 C   0  0  0  0  0  0  0  0  0  0  0  0
   37.3160   27.5020   43.4380 O   0  0  0  0  0  0  0  0  0  0  0  0
   38.6620   27.5290   43.1880 C   0  0  0  0  0  0  0  0  0  0  0  0
   39.0840   28.9560   42.9220 C   0  0  1  0  0  0  0  0  0  0  0  0
   38.8810   29.9150   41.0730 H   0  0  0  0  0  0  0  0  0  0  0  0
   37.7160   27.9710   40.6140 H   0  0  0  0  0  0  0  0  0  0  0  0
   35.9950   27.1320   42.0370 H   0  0  0  0  0  0  0  0  0  0  0  0
   35.7850   28.7280   42.8530 H   0  0  0  0  0  0  0  0  0  0  0  0
   38.8570   26.9530   42.2610 H   0  0  0  0  0  0  0  0  0  0  0  0
   39.1900   27.1330   44.0490 H   0  0  0  0  0  0  0  0  0  0  0  0
   38.8650   29.5150   43.8610 H   0  0  0  0  0  0  0  0  0  0  0  0
   40.5590   29.0910   42.6910 C   0  0  0  0  0  2  0  0  0  0  0  0
   40.8780   28.2430   42.0220 H   0  0  0  0  0  0  0  0  0  0  0  0
  1  2  1  0  0  0  0
  2  3  2  0  0  0  0
  2 18  1  0  0  0  0
  3 23  1  0  0  0  0
  4  5  1  0  0  0  0
  4  3  1  0  0  0  0
  5 11  1  0  0  0  0
  6  5  1  0  0  0  0
  7  8  1  0  0  0  0
  7  6  2  0  0  0  0
  8  4  2  0  0  0  0
  9  8  1  0  0  0  0
  9  1  2  0  0  0  0
 10  1  1  0  0  0  0
 12  6  1  0  0  0  0
 13  9  1  0  0  0  0
 14 20  1  0  0  0  0
 14 15  1  0  0  0  0
 15 21  1  0  0  0  0
 16 15  2  0  0  0  0
 16 22  1  0  0  0  0
 17 16  1  0  0  0  0
 18 19  1  0  0  0  0
 18 17  2  0  0  0  0
 19 14  2  0  0  0  0
 23 25  1  0  0  0  0
 24 29  1  0  0  0  0
 25 31  1  6  0  0  0
 25 24  1  0  0  0  0
 25 26  1  0  0  0  0
 26 33  1  0  0  0  0
 26 27  1  0  0  0  0
 28 27  1  0  0  0  0
 28 35  1  0  0  0  0
 29 28  1  0  0  0  0
 29 36  1  1  0  0  0
 30 24  1  0  0  0  0
 32 26  1  0  0  0  0
 34 28  1  0  0  0  0
 37 29  1  0  0  0  0
 38 37  1  0  0  0  0
M  END
>  <minimizedAffinity>
-5.27890682

$$$$
