
 OpenBabel03242516113D

 32 34  0  0  0  0  0  0  0  0999 V2000
   48.0950   34.5470   41.6080 C   0  0  0  0  0  0  0  0  0  0  0  0
   48.8920   35.7680   41.2480 C   0  0  0  0  0  0  0  0  0  0  0  0
   49.5330   34.5970   41.8780 C   0  0  0  0  0  0  0  0  0  0  0  0
   49.0580   36.0530   40.1870 H   0  0  0  0  0  0  0  0  0  0  0  0
   48.7070   36.6670   41.8850 H   0  0  0  0  0  0  0  0  0  0  0  0
   50.2300   34.0130   41.2110 H   0  0  0  0  0  0  0  0  0  0  0  0
   49.9550   34.7600   42.8920 H   0  0  0  0  0  0  0  0  0  0  0  0
   47.6450   33.7250   40.4300 C   0  0  0  0  0  0  0  0  0  0  0  0
   48.0740   34.2440   39.0930 C   0  0  0  0  0  0  0  0  0  0  0  0
   47.6210   33.2090   38.0660 C   0  0  0  0  0  0  0  0  0  0  0  0
   46.2380   33.3500   37.9450 O   0  0  0  0  0  0  0  0  0  0  0  0
   45.7410   32.8060   39.1490 C   0  0  0  0  0  0  0  0  0  0  0  0
   46.1170   33.7180   40.3070 C   0  0  0  0  0  0  0  0  0  0  0  0
   48.0320   32.6730   40.5010 H   0  0  0  0  0  0  0  0  0  0  0  0
   47.6860   35.2320   38.8400 H   0  0  0  0  0  0  0  0  0  0  0  0
   49.2010   34.1730   39.0610 H   0  0  0  0  0  0  0  0  0  0  0  0
   47.9380   32.2030   38.3710 H   0  0  0  0  0  0  0  0  0  0  0  0
   48.0530   33.5420   37.0940 H   0  0  0  0  0  0  0  0  0  0  0  0
   46.0500   31.7700   39.3080 H   0  0  0  0  0  0  0  0  0  0  0  0
   44.6240   32.9280   39.0450 H   0  0  0  0  0  0  0  0  0  0  0  0
   45.8300   34.7410   40.0620 H   0  0  0  0  0  0  0  0  0  0  0  0
   45.6630   33.3190   41.2240 H   0  0  0  0  0  0  0  0  0  0  0  0
   46.1750   35.6570   42.7480 C   0  0  0  0  0  0  0  0  0  0  0  0
   47.1330   34.6520   42.7550 C   0  0  0  0  0  0  0  0  0  0  0  0
   47.1700   33.7450   43.8660 C   0  0  0  0  0  0  0  0  0  0  0  0
   46.2450   33.9400   44.8480 N   0  0  0  0  0  0  0  0  0  0  0  0
   45.3460   34.9260   44.7870 C   0  0  0  0  0  0  0  0  0  0  0  0
   45.2950   35.7840   43.7590 N   0  0  0  0  0  0  0  0  0  0  0  0
   46.1590   36.3360   41.9030 H   0  0  0  0  0  0  0  0  0  0  0  0
   47.9270   33.0020   43.8060 H   0  0  0  0  0  0  0  0  0  0  0  0
   44.3810   35.0510   45.9140 C   0  0  0  0  0  0  0  0  0  0  0  0
   43.9750   36.1030   45.9320 H   0  0  0  0  0  0  0  0  0  0  0  0
  1  3  1  0  0  0  0
  1 24  1  0  0  0  0
  2  1  1  0  0  0  0
  2  3  1  0  0  0  0
  2  5  1  0  0  0  0
  3  7  1  0  0  0  0
  4  2  1  0  0  0  0
  6  3  1  0  0  0  0
  8 14  1  0  0  0  0
  8  1  1  0  0  0  0
  9  8  1  0  0  0  0
 10 17  1  0  0  0  0
 10  9  1  0  0  0  0
 11 10  1  0  0  0  0
 11 12  1  0  0  0  0
 12 19  1  0  0  0  0
 12 13  1  0  0  0  0
 13  8  1  0  0  0  0
 13 22  1  0  0  0  0
 15  9  1  0  0  0  0
 16  9  1  0  0  0  0
 18 10  1  0  0  0  0
 20 12  1  0  0  0  0
 21 13  1  0  0  0  0
 23 24  2  0  0  0  0
 23 28  1  0  0  0  0
 24 25  1  0  0  0  0
 25 26  2  0  0  0  0
 27 26  1  0  0  0  0
 27 31  1  0  0  0  0
 28 27  2  0  0  0  0
 29 23  1  0  0  0  0
 30 25  1  0  0  0  0
 31 32  1  0  0  0  0
M  END
>  <minimizedAffinity>
-4.65121508

>  <minimizedRMSD>
0.432954013

$$$$
