
 OpenBabel03252503023D

 26 26  0  0  0  0  0  0  0  0999 V2000
   43.4300   35.5110   41.6690 C   0  0  0  0  0  0  0  0  0  0  0  0
   42.6550   36.1900   41.2270 H   0  0  0  0  0  0  0  0  0  0  0  0
   44.3920   35.8850   41.3150 H   0  0  0  0  0  0  0  0  0  0  0  0
   43.2640   35.5890   43.1170 N   0  0  0  0  0  0  0  0  0  0  0  0
   42.6170   36.3600   43.4010 H   0  0  0  0  0  0  0  0  0  0  0  0
   44.7480   35.8660   43.9410 S   0  0  0  0  0  0  0  0  0  0  0  0
   45.9130   35.3180   43.2110 O   0  0  0  0  0  0  0  0  0  0  0  0
   46.1930   35.5990   42.3260 H   0  0  0  0  0  0  0  0  0  0  0  0
   44.8820   37.3800   44.0520 O   0  0  0  0  0  0  0  0  0  0  0  0
   45.3100   37.9580   43.3760 H   0  0  0  0  0  0  0  0  0  0  0  0
   44.6590   35.2720   45.4870 O   0  0  0  0  0  0  0  0  0  0  0  0
   45.3920   34.1060   45.6570 C   0  0  0  0  0  0  0  0  0  0  0  0
   45.1460   33.4210   44.8010 H   0  0  0  0  0  0  0  0  0  0  0  0
   45.0700   33.5760   46.5730 H   0  0  0  0  0  0  0  0  0  0  0  0
   46.4800   34.2940   45.7270 H   0  0  0  0  0  0  0  0  0  0  0  0
   43.0880   33.8090   41.2080 S   0  0  0  0  0  0  0  0  0  0  0  0
   40.5470   33.0260   40.4250 C   0  0  0  0  0  0  0  0  0  0  0  0
   41.6790   33.7700   40.0910 C   0  0  0  0  0  0  0  0  0  0  0  0
   41.7270   34.4850   38.8940 C   0  0  0  0  0  0  0  0  0  0  0  0
   40.6310   34.4160   38.0900 N   0  0  0  0  0  0  0  0  0  0  0  0
   39.5650   33.6890   38.4530 C   0  0  0  0  0  0  0  0  0  0  0  0
   39.4950   33.0040   39.5770 N   0  0  0  0  0  0  0  0  0  0  0  0
   40.5250   32.4700   41.3680 H   0  0  0  0  0  0  0  0  0  0  0  0
   42.6120   35.0700   38.6270 H   0  0  0  0  0  0  0  0  0  0  0  0
   38.3970   33.6620   37.5170 C   0  0  0  0  0  0  0  0  0  0  0  0
   38.3280   34.6590   37.0390 H   0  0  0  0  0  0  0  0  0  0  0  0
  1  4  1  0  0  0  0
  2  1  1  0  0  0  0
  3  1  1  0  0  0  0
  4  5  1  0  0  0  0
  4  6  1  0  0  0  0
  6  9  1  0  0  0  0
  6 11  1  0  0  0  0
  7  6  1  0  0  0  0
  8  7  1  0  0  0  0
 10  9  1  0  0  0  0
 11 12  1  0  0  0  0
 12 15  1  0  0  0  0
 12 14  1  0  0  0  0
 13 12  1  0  0  0  0
 16  1  1  0  0  0  0
 17 23  1  0  0  0  0
 18 17  1  0  0  0  0
 18 16  1  0  0  0  0
 19 18  2  0  0  0  0
 20 21  2  0  0  0  0
 20 19  1  0  0  0  0
 21 22  1  0  0  0  0
 22 17  2  0  0  0  0
 24 19  1  0  0  0  0
 25 21  1  0  0  0  0
 26 25  1  0  0  0  0
M  END
>  <minimizedAffinity>
-4.6857276

>  <minimizedRMSD>
1.06259477

$$$$
