
 OpenBabel03242515263D

 24 25  0  0  0  0  0  0  0  0999 V2000
   36.9150   32.0160   40.1100 C   0  0  0  0  0  0  0  0  0  0  0  0
   36.0090   32.0660   39.5170 H   0  0  0  0  0  0  0  0  0  0  0  0
   36.8330   32.8340   40.8710 H   0  0  0  0  0  0  0  0  0  0  0  0
   38.1420   32.1880   39.3520 N   0  0  0  0  0  0  0  0  0  0  0  0
   38.4160   31.3400   38.3460 C   0  0  0  0  0  0  0  0  0  0  0  0
   39.6060   31.5440   37.6470 C   0  0  0  0  0  0  0  0  0  0  0  0
   40.4610   32.5760   37.9770 C   0  0  0  0  0  0  0  0  0  0  0  0
   41.5140   32.7150   37.3210 O   0  0  0  0  0  0  0  0  0  0  0  0
   40.1370   33.3950   38.9930 N   0  0  0  0  0  0  0  0  0  0  0  0
   38.9810   33.2060   39.6820 C   0  0  0  0  0  0  0  0  0  0  0  0
   38.7440   34.0120   40.6190 O   0  0  0  0  0  0  0  0  0  0  0  0
   37.7360   30.5390   38.1010 H   0  0  0  0  0  0  0  0  0  0  0  0
   39.8620   30.8810   36.8290 H   0  0  0  0  0  0  0  0  0  0  0  0
   40.8090   34.1580   39.2080 H   0  0  0  0  0  0  0  0  0  0  0  0
   35.9630   29.8590   40.6850 C   0  0  0  0  0  0  0  0  0  0  0  0
   37.0000   30.7660   40.8700 C   0  0  0  0  0  0  0  0  0  0  0  0
   37.9980   30.3940   41.7470 C   0  0  0  0  0  0  0  0  0  0  0  0
   37.9190   29.2000   42.3660 N   0  0  0  0  0  0  0  0  0  0  0  0
   36.8930   28.3510   42.1570 C   0  0  0  0  0  0  0  0  0  0  0  0
   35.8850   28.6540   41.3110 N   0  0  0  0  0  0  0  0  0  0  0  0
   35.1280   30.0580   40.0140 H   0  0  0  0  0  0  0  0  0  0  0  0
   38.8000   31.1110   41.8820 H   0  0  0  0  0  0  0  0  0  0  0  0
   36.8340   27.0340   42.8580 C   0  0  0  0  0  2  0  0  0  0  0  0
   37.7630   26.4380   42.6630 H   0  0  0  0  0  0  0  0  0  0  0  0
  1 16  1  0  0  0  0
  1  3  1  0  0  0  0
  2  1  1  0  0  0  0
  4 10  1  0  0  0  0
  4  1  1  0  0  0  0
  5  4  1  0  0  0  0
  6  7  1  0  0  0  0
  6  5  2  0  0  0  0
  7  9  1  0  0  0  0
  8  7  2  0  0  0  0
  9 14  1  0  0  0  0
  9 10  1  0  0  0  0
 10 11  2  0  0  0  0
 12  5  1  0  0  0  0
 13  6  1  0  0  0  0
 15 16  2  0  0  0  0
 15 20  1  0  0  0  0
 16 17  1  0  0  0  0
 17 22  1  0  0  0  0
 17 18  2  0  0  0  0
 19 18  1  0  0  0  0
 19 23  1  0  0  0  0
 20 19  2  0  0  0  0
 21 15  1  0  0  0  0
 24 23  1  0  0  0  0
M  END
>  <minimizedAffinity>
-4.52737236

$$$$

 OpenBabel03242515263D

 24 25  0  0  0  0  0  0  0  0999 V2000
   37.0040   31.6070   39.3070 C   0  0  0  0  0  0  0  0  0  0  0  0
   36.1790   31.6720   38.6070 H   0  0  0  0  0  0  0  0  0  0  0  0
   36.7820   32.3480   40.1180 H   0  0  0  0  0  0  0  0  0  0  0  0
   38.3050   31.8990   38.7330 N   0  0  0  0  0  0  0  0  0  0  0  0
   39.3280   32.2060   39.5490 C   0  0  0  0  0  0  0  0  0  0  0  0
   40.5600   32.4790   38.9520 C   0  0  0  0  0  0  0  0  0  0  0  0
   40.7150   32.4340   37.5820 C   0  0  0  0  0  0  0  0  0  0  0  0
   41.8370   32.6870   37.0970 O   0  0  0  0  0  0  0  0  0  0  0  0
   39.6570   32.1210   36.8120 N   0  0  0  0  0  0  0  0  0  0  0  0
   38.4530   31.8530   37.3820 C   0  0  0  0  0  0  0  0  0  0  0  0
   37.5100   31.5680   36.6000 O   0  0  0  0  0  0  0  0  0  0  0  0
   39.1890   32.2370   40.6180 H   0  0  0  0  0  0  0  0  0  0  0  0
   41.4080   32.7310   39.5760 H   0  0  0  0  0  0  0  0  0  0  0  0
   39.8200   32.0990   35.7860 H   0  0  0  0  0  0  0  0  0  0  0  0
   36.8670   30.2870   41.3400 C   0  0  0  0  0  0  0  0  0  0  0  0
   37.0590   30.2980   39.9630 C   0  0  0  0  0  0  0  0  0  0  0  0
   37.2800   29.0760   39.3610 C   0  0  0  0  0  0  0  0  0  0  0  0
   37.2990   27.9620   40.1180 N   0  0  0  0  0  0  0  0  0  0  0  0
   37.1080   28.0000   41.4520 C   0  0  0  0  0  0  0  0  0  0  0  0
   36.8870   29.1620   42.1030 N   0  0  0  0  0  0  0  0  0  0  0  0
   36.6860   31.1990   41.9090 H   0  0  0  0  0  0  0  0  0  0  0  0
   37.4280   29.0980   38.2870 H   0  0  0  0  0  0  0  0  0  0  0  0
   37.1350   26.7470   42.2650 C   0  0  0  0  0  2  0  0  0  0  0  0
   36.3920   26.0050   41.8760 H   0  0  0  0  0  0  0  0  0  0  0  0
  1 16  1  0  0  0  0
  1  3  1  0  0  0  0
  2  1  1  0  0  0  0
  4  1  1  0  0  0  0
  4  5  1  0  0  0  0
  5 12  1  0  0  0  0
  6  5  2  0  0  0  0
  6 13  1  0  0  0  0
  7  6  1  0  0  0  0
  8  7  2  0  0  0  0
  9 10  1  0  0  0  0
  9  7  1  0  0  0  0
 10  4  1  0  0  0  0
 11 10  2  0  0  0  0
 14  9  1  0  0  0  0
 15 21  1  0  0  0  0
 15 20  1  0  0  0  0
 16 15  2  0  0  0  0
 17 16  1  0  0  0  0
 17 18  2  0  0  0  0
 18 19  1  0  0  0  0
 19 20  2  0  0  0  0
 19 23  1  0  0  0  0
 22 17  1  0  0  0  0
 24 23  1  0  0  0  0
M  END
>  <minimizedAffinity>
-4.50000048

$$$$

 OpenBabel03242515263D

 24 25  0  0  0  0  0  0  0  0999 V2000
   38.3610   29.0190   43.0720 C   0  0  0  0  0  0  0  0  0  0  0  0
   39.3440   29.2200   43.4810 H   0  0  0  0  0  0  0  0  0  0  0  0
   37.6430   29.1180   43.9270 H   0  0  0  0  0  0  0  0  0  0  0  0
   38.2130   27.7050   42.4720 N   0  0  0  0  0  0  0  0  0  0  0  0
   39.1230   27.2860   41.5770 C   0  0  0  0  0  0  0  0  0  0  0  0
   38.9400   26.0170   41.0270 C   0  0  0  0  0  0  0  0  0  0  0  0
   37.8680   25.2290   41.3920 C   0  0  0  0  0  0  0  0  0  0  0  0
   37.7480   24.1010   40.8700 O   0  0  0  0  0  0  0  0  0  0  0  0
   36.9860   25.6980   42.2930 N   0  0  0  0  0  0  0  0  0  0  0  0
   37.1550   26.9330   42.8350 C   0  0  0  0  0  0  0  0  0  0  0  0
   36.2910   27.3040   43.6710 O   0  0  0  0  0  0  0  0  0  0  0  0
   39.9560   27.9160   41.3030 H   0  0  0  0  0  0  0  0  0  0  0  0
   39.6530   25.6450   40.3020 H   0  0  0  0  0  0  0  0  0  0  0  0
   36.1950   25.0710   42.5380 H   0  0  0  0  0  0  0  0  0  0  0  0
   38.9440   30.9370   41.7030 C   0  0  0  0  0  0  0  0  0  0  0  0
   37.9610   30.0340   42.0930 C   0  0  0  0  0  0  0  0  0  0  0  0
   36.7170   30.1870   41.5160 C   0  0  0  0  0  0  0  0  0  0  0  0
   36.5210   31.1810   40.6270 N   0  0  0  0  0  0  0  0  0  0  0  0
   37.5040   32.0350   40.2800 C   0  0  0  0  0  0  0  0  0  0  0  0
   38.7440   31.9390   40.8060 N   0  0  0  0  0  0  0  0  0  0  0  0
   39.9590   30.9010   42.1000 H   0  0  0  0  0  0  0  0  0  0  0  0
   35.9610   29.4770   41.8290 H   0  0  0  0  0  0  0  0  0  0  0  0
   37.2550   33.1260   39.2910 C   0  0  0  0  0  2  0  0  0  0  0  0
   36.8650   32.7080   38.3280 H   0  0  0  0  0  0  0  0  0  0  0  0
  1  2  1  0  0  0  0
  1  3  1  0  0  0  0
  4 10  1  0  0  0  0
  4  1  1  0  0  0  0
  5  4  1  0  0  0  0
  6  7  1  0  0  0  0
  6  5  2  0  0  0  0
  7  9  1  0  0  0  0
  8  7  2  0  0  0  0
  9 14  1  0  0  0  0
  9 10  1  0  0  0  0
 10 11  2  0  0  0  0
 12  5  1  0  0  0  0
 13  6  1  0  0  0  0
 15 16  1  0  0  0  0
 15 21  1  0  0  0  0
 16  1  1  0  0  0  0
 17 22  1  0  0  0  0
 17 16  2  0  0  0  0
 18 17  1  0  0  0  0
 19 18  2  0  0  0  0
 19 20  1  0  0  0  0
 20 15  2  0  0  0  0
 23 19  1  0  0  0  0
 24 23  1  0  0  0  0
M  END
>  <minimizedAffinity>
-4.49401379

$$$$

 OpenBabel03242515263D

 24 25  0  0  0  0  0  0  0  0999 V2000
   36.3120   30.7410   41.2220 C   0  0  0  0  0  0  0  0  0  0  0  0
   35.3010   30.3630   41.3220 H   0  0  0  0  0  0  0  0  0  0  0  0
   36.3530   31.6840   41.8260 H   0  0  0  0  0  0  0  0  0  0  0  0
   36.7180   31.0270   39.8570 N   0  0  0  0  0  0  0  0  0  0  0  0
   36.5400   30.0910   38.9090 C   0  0  0  0  0  0  0  0  0  0  0  0
   36.9450   30.4120   37.6140 C   0  0  0  0  0  0  0  0  0  0  0  0
   37.5030   31.6390   37.3230 C   0  0  0  0  0  0  0  0  0  0  0  0
   37.8500   31.8770   36.1470 O   0  0  0  0  0  0  0  0  0  0  0  0
   37.6590   32.5390   38.3100 N   0  0  0  0  0  0  0  0  0  0  0  0
   37.2680   32.2380   39.5760 C   0  0  0  0  0  0  0  0  0  0  0  0
   37.4430   33.1290   40.4470 O   0  0  0  0  0  0  0  0  0  0  0  0
   36.1020   29.1360   39.1550 H   0  0  0  0  0  0  0  0  0  0  0  0
   36.8180   29.6830   36.8220 H   0  0  0  0  0  0  0  0  0  0  0  0
   38.0830   33.4500   38.0460 H   0  0  0  0  0  0  0  0  0  0  0  0
   36.8370   28.5650   42.1610 C   0  0  0  0  0  0  0  0  0  0  0  0
   37.2930   29.8340   41.8260 C   0  0  0  0  0  0  0  0  0  0  0  0
   38.6190   30.1050   42.0970 C   0  0  0  0  0  0  0  0  0  0  0  0
   39.3850   29.1510   42.6590 N   0  0  0  0  0  0  0  0  0  0  0  0
   38.8990   27.9320   42.9680 C   0  0  0  0  0  0  0  0  0  0  0  0
   37.6120   27.6020   42.7290 N   0  0  0  0  0  0  0  0  0  0  0  0
   35.8070   28.2510   41.9880 H   0  0  0  0  0  0  0  0  0  0  0  0
   38.9610   31.0990   41.8310 H   0  0  0  0  0  0  0  0  0  0  0  0
   39.7740   26.8940   43.5910 C   0  0  0  0  0  2  0  0  0  0  0  0
   40.6790   26.7060   42.9580 H   0  0  0  0  0  0  0  0  0  0  0  0
  1  2  1  0  0  0  0
  1  3  1  0  0  0  0
  1 16  1  0  0  0  0
  4  1  1  0  0  0  0
  5 12  1  0  0  0  0
  5  4  1  0  0  0  0
  6  5  2  0  0  0  0
  7  6  1  0  0  0  0
  7  9  1  0  0  0  0
  8  7  2  0  0  0  0
  9 10  1  0  0  0  0
 10  4  1  0  0  0  0
 10 11  2  0  0  0  0
 13  6  1  0  0  0  0
 14  9  1  0  0  0  0
 15 20  1  0  0  0  0
 16 17  1  0  0  0  0
 16 15  2  0  0  0  0
 17 18  2  0  0  0  0
 18 19  1  0  0  0  0
 19 23  1  0  0  0  0
 20 19  2  0  0  0  0
 21 15  1  0  0  0  0
 22 17  1  0  0  0  0
 24 23  1  0  0  0  0
M  END
>  <minimizedAffinity>
-4.48558235

$$$$

 OpenBabel03242515263D

 24 25  0  0  0  0  0  0  0  0999 V2000
   36.6030   27.4520   42.8110 C   0  0  0  0  0  0  0  0  0  0  0  0
   36.2290   27.8170   43.7600 H   0  0  0  0  0  0  0  0  0  0  0  0
   35.8130   26.7660   42.4090 H   0  0  0  0  0  0  0  0  0  0  0  0
   37.8630   26.7350   42.8940 N   0  0  0  0  0  0  0  0  0  0  0  0
   38.8940   27.2930   43.5510 C   0  0  0  0  0  0  0  0  0  0  0  0
   40.0840   26.5680   43.6040 C   0  0  0  0  0  0  0  0  0  0  0  0
   40.1930   25.3300   43.0060 C   0  0  0  0  0  0  0  0  0  0  0  0
   41.2800   24.7210   43.0820 O   0  0  0  0  0  0  0  0  0  0  0  0
   39.1300   24.8180   42.3610 N   0  0  0  0  0  0  0  0  0  0  0  0
   37.9650   25.5150   42.3020 C   0  0  0  0  0  0  0  0  0  0  0  0
   37.0130   24.9730   41.6820 O   0  0  0  0  0  0  0  0  0  0  0  0
   38.7910   28.2630   44.0130 H   0  0  0  0  0  0  0  0  0  0  0  0
   40.9370   26.9850   44.1250 H   0  0  0  0  0  0  0  0  0  0  0  0
   39.2570   23.8830   41.9250 H   0  0  0  0  0  0  0  0  0  0  0  0
   36.3290   28.2380   40.5300 C   0  0  0  0  0  0  0  0  0  0  0  0
   36.7360   28.5300   41.8270 C   0  0  0  0  0  0  0  0  0  0  0  0
   37.2200   29.8030   42.0510 C   0  0  0  0  0  0  0  0  0  0  0  0
   37.2740   30.6770   41.0270 N   0  0  0  0  0  0  0  0  0  0  0  0
   36.8680   30.3490   39.7840 C   0  0  0  0  0  0  0  0  0  0  0  0
   36.3840   29.1220   39.4980 N   0  0  0  0  0  0  0  0  0  0  0  0
   35.9320   27.2620   40.2500 H   0  0  0  0  0  0  0  0  0  0  0  0
   37.5340   30.0180   43.0660 H   0  0  0  0  0  0  0  0  0  0  0  0
   36.9410   31.3410   38.6690 C   0  0  0  0  0  2  0  0  0  0  0  0
   36.3820   32.2750   38.9320 H   0  0  0  0  0  0  0  0  0  0  0  0
  1  4  1  0  0  0  0
  1  2  1  0  0  0  0
  3  1  1  0  0  0  0
  4  5  1  0  0  0  0
  5  6  2  0  0  0  0
  5 12  1  0  0  0  0
  6 13  1  0  0  0  0
  7  8  2  0  0  0  0
  7  6  1  0  0  0  0
  9  7  1  0  0  0  0
 10  9  1  0  0  0  0
 10  4  1  0  0  0  0
 11 10  2  0  0  0  0
 14  9  1  0  0  0  0
 15 16  1  0  0  0  0
 16 17  2  0  0  0  0
 16  1  1  0  0  0  0
 17 22  1  0  0  0  0
 18 17  1  0  0  0  0
 19 18  2  0  0  0  0
 20 19  1  0  0  0  0
 20 15  2  0  0  0  0
 21 15  1  0  0  0  0
 23 24  1  0  0  0  0
 23 19  1  0  0  0  0
M  END
>  <minimizedAffinity>
-4.36645985

$$$$

 OpenBabel03242515263D

 24 25  0  0  0  0  0  0  0  0999 V2000
   37.9220   28.9540   43.0950 C   0  0  0  0  0  0  0  0  0  0  0  0
   37.1840   28.9570   43.8890 H   0  0  0  0  0  0  0  0  0  0  0  0
   38.9060   29.1740   43.5860 H   0  0  0  0  0  0  0  0  0  0  0  0
   37.6820   29.9260   42.0440 N   0  0  0  0  0  0  0  0  0  0  0  0
   36.4920   29.9390   41.4210 C   0  0  0  0  0  0  0  0  0  0  0  0
   36.3080   30.8900   40.4170 C   0  0  0  0  0  0  0  0  0  0  0  0
   37.3090   31.7780   40.0820 C   0  0  0  0  0  0  0  0  0  0  0  0
   37.0940   32.6090   39.1760 O   0  0  0  0  0  0  0  0  0  0  0  0
   38.4820   31.7210   40.7380 N   0  0  0  0  0  0  0  0  0  0  0  0
   38.6730   30.7990   41.7170 C   0  0  0  0  0  0  0  0  0  0  0  0
   39.7950   30.8050   42.2870 O   0  0  0  0  0  0  0  0  0  0  0  0
   35.7200   29.2370   41.6960 H   0  0  0  0  0  0  0  0  0  0  0  0
   35.3610   30.9320   39.8920 H   0  0  0  0  0  0  0  0  0  0  0  0
   39.2070   32.4080   40.4530 H   0  0  0  0  0  0  0  0  0  0  0  0
   37.0580   26.7080   42.7730 C   0  0  0  0  0  0  0  0  0  0  0  0
   38.0630   27.6270   42.4900 C   0  0  0  0  0  0  0  0  0  0  0  0
   39.0840   27.1920   41.6690 C   0  0  0  0  0  0  0  0  0  0  0  0
   39.0570   25.9310   41.1960 N   0  0  0  0  0  0  0  0  0  0  0  0
   38.0610   25.0740   41.4980 C   0  0  0  0  0  0  0  0  0  0  0  0
   37.0330   25.4360   42.2940 N   0  0  0  0  0  0  0  0  0  0  0  0
   36.2080   26.9530   43.4100 H   0  0  0  0  0  0  0  0  0  0  0  0
   39.8610   27.9170   41.4570 H   0  0  0  0  0  0  0  0  0  0  0  0
   38.0600   23.6810   40.9570 C   0  0  0  0  0  2  0  0  0  0  0  0
   38.1220   23.6900   39.8390 H   0  0  0  0  0  0  0  0  0  0  0  0
  1  3  1  0  0  0  0
  1  2  1  0  0  0  0
  4  1  1  0  0  0  0
  5 12  1  0  0  0  0
  5  4  1  0  0  0  0
  6  5  2  0  0  0  0
  7  6  1  0  0  0  0
  7  9  1  0  0  0  0
  8  7  2  0  0  0  0
  9 10  1  0  0  0  0
 10  4  1  0  0  0  0
 10 11  2  0  0  0  0
 13  6  1  0  0  0  0
 14  9  1  0  0  0  0
 15 21  1  0  0  0  0
 16 15  1  0  0  0  0
 16  1  1  0  0  0  0
 17 16  2  0  0  0  0
 18 19  2  0  0  0  0
 18 17  1  0  0  0  0
 19 20  1  0  0  0  0
 20 15  2  0  0  0  0
 22 17  1  0  0  0  0
 23 19  1  0  0  0  0
 24 23  1  0  0  0  0
M  END
>  <minimizedAffinity>
-4.35275221

$$$$

 OpenBabel03242515263D

 24 25  0  0  0  0  0  0  0  0999 V2000
   37.1560   27.1880   43.1090 C   0  0  0  0  0  0  0  0  0  0  0  0
   36.3270   26.9810   43.7770 H   0  0  0  0  0  0  0  0  0  0  0  0
   38.0500   27.3500   43.7650 H   0  0  0  0  0  0  0  0  0  0  0  0
   36.9680   28.3510   42.2590 N   0  0  0  0  0  0  0  0  0  0  0  0
   35.9460   28.3690   41.3880 C   0  0  0  0  0  0  0  0  0  0  0  0
   35.8060   29.5070   40.5920 C   0  0  0  0  0  0  0  0  0  0  0  0
   36.6840   30.5660   40.7010 C   0  0  0  0  0  0  0  0  0  0  0  0
   36.5160   31.5610   39.9650 O   0  0  0  0  0  0  0  0  0  0  0  0
   37.6910   30.4950   41.5890 N   0  0  0  0  0  0  0  0  0  0  0  0
   37.8360   29.3920   42.3700 C   0  0  0  0  0  0  0  0  0  0  0  0
   38.8000   29.3960   43.1790 O   0  0  0  0  0  0  0  0  0  0  0  0
   35.2690   27.5320   41.3170 H   0  0  0  0  0  0  0  0  0  0  0  0
   34.9940   29.5590   39.8780 H   0  0  0  0  0  0  0  0  0  0  0  0
   38.3270   31.3140   41.6370 H   0  0  0  0  0  0  0  0  0  0  0  0
   38.6540   26.1150   41.5300 C   0  0  0  0  0  0  0  0  0  0  0  0
   37.4780   26.0330   42.2670 C   0  0  0  0  0  0  0  0  0  0  0  0
   36.7410   24.8750   42.1270 C   0  0  0  0  0  0  0  0  0  0  0  0
   37.1860   23.9060   41.3050 N   0  0  0  0  0  0  0  0  0  0  0  0
   38.3340   24.0290   40.6090 C   0  0  0  0  0  0  0  0  0  0  0  0
   39.1020   25.1350   40.7000 N   0  0  0  0  0  0  0  0  0  0  0  0
   39.3080   26.9870   41.5700 H   0  0  0  0  0  0  0  0  0  0  0  0
   35.8260   24.8250   42.7070 H   0  0  0  0  0  0  0  0  0  0  0  0
   38.8010   22.9360   39.7040 C   0  0  0  0  0  2  0  0  0  0  0  0
   38.8890   21.9690   40.2620 H   0  0  0  0  0  0  0  0  0  0  0  0
  1  3  1  0  0  0  0
  1  2  1  0  0  0  0
  4 10  1  0  0  0  0
  4  1  1  0  0  0  0
  5  4  1  0  0  0  0
  6  7  1  0  0  0  0
  6  5  2  0  0  0  0
  7  9  1  0  0  0  0
  8  7  2  0  0  0  0
  9 14  1  0  0  0  0
  9 10  1  0  0  0  0
 10 11  2  0  0  0  0
 12  5  1  0  0  0  0
 13  6  1  0  0  0  0
 15 21  1  0  0  0  0
 15 16  1  0  0  0  0
 16  1  1  0  0  0  0
 17 16  2  0  0  0  0
 17 22  1  0  0  0  0
 18 17  1  0  0  0  0
 19 20  1  0  0  0  0
 19 18  2  0  0  0  0
 20 15  2  0  0  0  0
 23 24  1  0  0  0  0
 23 19  1  0  0  0  0
M  END
>  <minimizedAffinity>
-4.24667263

$$$$

 OpenBabel03242515263D

 24 25  0  0  0  0  0  0  0  0999 V2000
   37.5820   28.9120   39.8550 C   0  0  0  0  0  0  0  0  0  0  0  0
   37.8450   28.5340   38.8740 H   0  0  0  0  0  0  0  0  0  0  0  0
   36.4770   28.7610   39.9600 H   0  0  0  0  0  0  0  0  0  0  0  0
   37.8960   30.3140   40.0650 N   0  0  0  0  0  0  0  0  0  0  0  0
   39.1500   30.7460   39.8480 C   0  0  0  0  0  0  0  0  0  0  0  0
   39.4040   32.1010   40.0640 C   0  0  0  0  0  0  0  0  0  0  0  0
   38.4060   32.9570   40.4810 C   0  0  0  0  0  0  0  0  0  0  0  0
   38.6850   34.1610   40.6600 O   0  0  0  0  0  0  0  0  0  0  0  0
   37.1680   32.4720   40.6830 N   0  0  0  0  0  0  0  0  0  0  0  0
   36.9090   31.1540   40.4760 C   0  0  0  0  0  0  0  0  0  0  0  0
   35.7280   30.7720   40.6850 O   0  0  0  0  0  0  0  0  0  0  0  0
   39.9180   30.0630   39.5220 H   0  0  0  0  0  0  0  0  0  0  0  0
   40.4030   32.4870   39.8990 H   0  0  0  0  0  0  0  0  0  0  0  0
   36.4480   33.1520   40.9970 H   0  0  0  0  0  0  0  0  0  0  0  0
   39.1210   27.1600   40.5300 C   0  0  0  0  0  0  0  0  0  0  0  0
   38.2000   28.1240   40.9250 C   0  0  0  0  0  0  0  0  0  0  0  0
   37.9670   28.2360   42.2800 C   0  0  0  0  0  0  0  0  0  0  0  0
   38.6260   27.4270   43.1320 N   0  0  0  0  0  0  0  0  0  0  0  0
   39.5110   26.5040   42.7020 C   0  0  0  0  0  0  0  0  0  0  0  0
   39.7850   26.3430   41.3900 N   0  0  0  0  0  0  0  0  0  0  0  0
   39.3750   26.9920   39.4830 H   0  0  0  0  0  0  0  0  0  0  0  0
   37.2470   28.9910   42.5750 H   0  0  0  0  0  0  0  0  0  0  0  0
   40.2260   25.6210   43.6710 C   0  0  0  0  0  2  0  0  0  0  0  0
   40.7720   26.2300   44.4360 H   0  0  0  0  0  0  0  0  0  0  0  0
  1  3  1  0  0  0  0
  1  4  1  0  0  0  0
  1 16  1  0  0  0  0
  2  1  1  0  0  0  0
  4 10  1  0  0  0  0
  5  6  2  0  0  0  0
  5  4  1  0  0  0  0
  6  7  1  0  0  0  0
  7  8  2  0  0  0  0
  7  9  1  0  0  0  0
  9 14  1  0  0  0  0
 10  9  1  0  0  0  0
 10 11  2  0  0  0  0
 12  5  1  0  0  0  0
 13  6  1  0  0  0  0
 15 16  2  0  0  0  0
 15 20  1  0  0  0  0
 16 17  1  0  0  0  0
 17 22  1  0  0  0  0
 17 18  2  0  0  0  0
 19 18  1  0  0  0  0
 19 23  1  0  0  0  0
 20 19  2  0  0  0  0
 21 15  1  0  0  0  0
 23 24  1  0  0  0  0
M  END
>  <minimizedAffinity>
-4.19089603

$$$$

 OpenBabel03242515263D

 24 25  0  0  0  0  0  0  0  0999 V2000
   38.5410   31.6940   40.8030 C   0  0  0  0  0  0  0  0  0  0  0  0
   39.0220   32.4740   41.3830 H   0  0  0  0  0  0  0  0  0  0  0  0
   37.6540   32.1730   40.3150 H   0  0  0  0  0  0  0  0  0  0  0  0
   38.1020   30.5490   41.5800 N   0  0  0  0  0  0  0  0  0  0  0  0
   38.9750   29.9350   42.3970 C   0  0  0  0  0  0  0  0  0  0  0  0
   38.5070   28.8390   43.1230 C   0  0  0  0  0  0  0  0  0  0  0  0
   37.2010   28.4090   43.0050 C   0  0  0  0  0  0  0  0  0  0  0  0
   36.8320   27.4230   43.6760 O   0  0  0  0  0  0  0  0  0  0  0  0
   36.3690   29.0600   42.1730 N   0  0  0  0  0  0  0  0  0  0  0  0
   36.8140   30.1290   41.4600 C   0  0  0  0  0  0  0  0  0  0  0  0
   35.9800   30.6890   40.7020 O   0  0  0  0  0  0  0  0  0  0  0  0
   39.9920   30.2850   42.4770 H   0  0  0  0  0  0  0  0  0  0  0  0
   39.1810   28.3180   43.7920 H   0  0  0  0  0  0  0  0  0  0  0  0
   35.3960   28.7020   42.1150 H   0  0  0  0  0  0  0  0  0  0  0  0
   40.7050   31.6940   39.7030 C   0  0  0  0  0  0  0  0  0  0  0  0
   39.3970   31.2230   39.7100 C   0  0  0  0  0  0  0  0  0  0  0  0
   39.0440   30.3640   38.6900 C   0  0  0  0  0  0  0  0  0  0  0  0
   39.9610   30.0320   37.7610 N   0  0  0  0  0  0  0  0  0  0  0  0
   41.2200   30.5140   37.7940 C   0  0  0  0  0  0  0  0  0  0  0  0
   41.6300   31.3580   38.7640 N   0  0  0  0  0  0  0  0  0  0  0  0
   41.0830   32.3760   40.4650 H   0  0  0  0  0  0  0  0  0  0  0  0
   38.0210   30.0050   38.7070 H   0  0  0  0  0  0  0  0  0  0  0  0
   42.2150   30.1280   36.7480 C   0  0  0  0  0  2  0  0  0  0  0  0
   42.3190   29.0140   36.6920 H   0  0  0  0  0  0  0  0  0  0  0  0
  1  2  1  0  0  0  0
  1  4  1  0  0  0  0
  3  1  1  0  0  0  0
  4  5  1  0  0  0  0
  5 12  1  0  0  0  0
  5  6  2  0  0  0  0
  6 13  1  0  0  0  0
  7  6  1  0  0  0  0
  7  8  2  0  0  0  0
  9  7  1  0  0  0  0
 10  4  1  0  0  0  0
 10  9  1  0  0  0  0
 11 10  2  0  0  0  0
 14  9  1  0  0  0  0
 15 16  1  0  0  0  0
 15 21  1  0  0  0  0
 16  1  1  0  0  0  0
 17 22  1  0  0  0  0
 17 16  2  0  0  0  0
 18 19  2  0  0  0  0
 18 17  1  0  0  0  0
 19 20  1  0  0  0  0
 20 15  2  0  0  0  0
 23 19  1  0  0  0  0
 24 23  1  0  0  0  0
M  END
>  <minimizedAffinity>
-4.17357635

$$$$
