
 OpenBabel03242518523D

 32 33  0  0  1  0  0  0  0  0999 V2000
   45.8690   31.2480   46.3700 C   0  0  2  0  0  0  0  0  0  0  0  0
   45.6060   30.5640   47.6940 C   0  0  0  0  0  0  0  0  0  0  0  0
   44.9310   29.2680   47.3740 C   0  0  0  0  0  0  0  0  0  0  0  0
   44.6310   29.0230   45.9340 C   0  0  0  0  0  0  0  0  0  0  0  0
   45.8980   29.1550   45.1100 C   0  0  0  0  0  0  0  0  0  0  0  0
   46.6540   30.3240   45.4990 C   0  0  2  0  0  0  0  0  0  0  0  0
   44.8610   31.3990   45.9290 H   0  0  0  0  0  0  0  0  0  0  0  0
   46.5350   30.3680   48.2480 H   0  0  0  0  0  0  0  0  0  0  0  0
   45.0030   31.2720   48.2950 H   0  0  0  0  0  0  0  0  0  0  0  0
   45.3910   28.3950   47.8820 H   0  0  0  0  0  0  0  0  0  0  0  0
   43.9180   29.3410   47.8720 H   0  0  0  0  0  0  0  0  0  0  0  0
   43.8160   29.6830   45.5760 H   0  0  0  0  0  0  0  0  0  0  0  0
   44.2310   27.9970   45.8580 H   0  0  0  0  0  0  0  0  0  0  0  0
   46.4050   28.1530   45.2810 H   0  0  0  0  0  0  0  0  0  0  0  0
   45.4950   29.0040   44.0770 H   0  0  0  0  0  0  0  0  0  0  0  0
   46.8000   30.6350   44.4580 H   0  0  0  0  0  0  0  0  0  0  0  0
   46.4540   32.5910   46.5020 C   0  0  0  0  0  0  0  0  0  0  0  0
   47.2710   32.8980   47.4120 O   0  0  0  0  0  0  0  0  0  0  0  0
   44.6700   35.3680   44.9390 C   0  0  0  0  0  0  0  0  0  0  0  0
   45.2540   35.4810   43.6560 C   0  0  0  0  0  0  0  0  0  0  0  0
   46.2830   34.5870   43.3650 C   0  0  0  0  0  0  0  0  0  0  0  0
   46.6000   33.7250   44.3400 N   0  0  0  0  0  0  0  0  0  0  0  0
   46.0650   33.6130   45.5270 C   0  0  0  0  0  0  0  0  0  0  0  0
   45.0610   34.4710   45.8350 N   0  0  0  0  0  0  0  0  0  0  0  0
   43.8670   36.0330   45.2260 H   0  0  0  0  0  0  0  0  0  0  0  0
   44.9340   36.2010   42.9460 H   0  0  0  0  0  0  0  0  0  0  0  0
   46.8590   34.6670   42.0260 C   0  0  0  0  0  0  0  0  0  0  0  0
   47.6410   33.5520   41.7850 F   0  0  0  0  0  0  0  0  0  0  0  0
   47.6770   35.7630   42.0410 F   0  0  0  0  0  0  0  0  0  0  0  0
   45.9060   34.7210   41.0300 F   0  0  0  0  0  0  0  0  0  0  0  0
   47.8380   29.7830   46.2640 C   0  0  0  0  0  0  0  0  0  0  0  0
   47.7290   28.7110   46.5590 H   0  0  0  0  0  0  0  0  0  0  0  0
  1  7  1  6  0  0  0
  1 17  1  0  0  0  0
  1  2  1  0  0  0  0
  2  8  1  0  0  0  0
  2  9  1  0  0  0  0
  3  2  1  0  0  0  0
  3 11  1  0  0  0  0
  3 10  1  0  0  0  0
  4  3  1  0  0  0  0
  5 14  1  0  0  0  0
  5  6  1  0  0  0  0
  5  4  1  0  0  0  0
  6 16  1  6  0  0  0
  6 31  1  0  0  0  0
  6  1  1  0  0  0  0
 12  4  1  0  0  0  0
 13  4  1  0  0  0  0
 15  5  1  0  0  0  0
 17 18  2  0  0  0  0
 19 25  1  0  0  0  0
 19 24  1  0  0  0  0
 20 19  2  0  0  0  0
 21 20  1  0  0  0  0
 21 22  2  0  0  0  0
 22 23  1  0  0  0  0
 23 24  2  0  0  0  0
 23 17  1  0  0  0  0
 26 20  1  0  0  0  0
 27 29  1  0  0  0  0
 27 21  1  0  0  0  0
 28 27  1  0  0  0  0
 30 27  1  0  0  0  0
 31 32  1  0  0  0  0
M  END
>  <minimizedAffinity>
-5.2042799

>  <minimizedRMSD>
1.68231249

$$$$
