
 OpenBabel03252505553D

 26 27  0  0  0  0  0  0  0  0999 V2000
   36.9660   28.4100   42.4250 O   0  0  0  0  0  0  0  0  0  0  0  0
   38.7240   31.3250   41.3690 C   0  0  0  0  0  0  0  0  0  0  0  0
   37.7720   32.0370   40.6290 C   0  0  0  0  0  0  0  0  0  0  0  0
   36.4990   31.4670   40.5110 C   0  0  0  0  0  0  0  0  0  0  0  0
   36.2510   30.2780   41.1050 N   0  0  0  0  0  0  0  0  0  0  0  0
   37.2030   29.6280   41.8090 C   0  0  0  0  0  0  0  0  0  0  0  0
   38.4240   30.1440   41.9410 N   0  0  0  0  0  0  0  0  0  0  0  0
   39.7330   31.6950   41.5100 H   0  0  0  0  0  0  0  0  0  0  0  0
   35.7670   32.0250   39.9350 H   0  0  0  0  0  0  0  0  0  0  0  0
   38.1750   33.3400   40.0230 C   0  0  0  0  0  0  0  0  0  0  0  0
   37.0170   33.8390   39.4500 F   0  0  0  0  0  0  0  0  0  0  0  0
   39.1150   33.0300   39.0280 F   0  0  0  0  0  0  0  0  0  0  0  0
   38.6980   34.1340   40.9910 F   0  0  0  0  0  0  0  0  0  0  0  0
   37.6250   28.0540   43.6170 C   0  0  0  0  0  0  0  0  0  0  0  0
   38.3020   28.8870   43.8980 H   0  0  0  0  0  0  0  0  0  0  0  0
   36.9070   27.8740   44.4600 H   0  0  0  0  0  0  0  0  0  0  0  0
   38.4560   26.8700   43.3230 C   0  0  0  0  0  0  0  0  0  0  0  0
   39.7470   26.5820   43.6790 C   0  0  0  0  0  0  0  0  0  0  0  0
   40.3090   25.3970   43.2790 C   0  0  0  0  0  0  0  0  0  0  0  0
   39.6310   24.5220   42.5530 N   0  0  0  0  0  0  0  0  0  0  0  0
   38.3650   24.7980   42.1990 C   0  0  0  0  0  0  0  0  0  0  0  0
   37.7680   25.9600   42.5740 N   0  0  0  0  0  0  0  0  0  0  0  0
   40.2020   27.3590   44.2670 H   0  0  0  0  0  0  0  0  0  0  0  0
   41.3340   25.2170   43.5880 H   0  0  0  0  0  0  0  0  0  0  0  0
   37.6130   23.7850   41.3710 C   0  0  0  0  0  2  0  0  0  0  0  0
   37.9870   23.7220   40.3480 H   0  0  0  0  0  0  0  0  0  0  0  0
  1 14  1  0  0  0  0
  2  8  1  0  0  0  0
  2  7  1  0  0  0  0
  3  2  2  0  0  0  0
  4  3  1  0  0  0  0
  4  5  2  0  0  0  0
  5  6  1  0  0  0  0
  6  7  2  0  0  0  0
  6  1  1  0  0  0  0
  9  4  1  0  0  0  0
 10  3  1  0  0  0  0
 10 13  1  0  0  0  0
 11 10  1  0  0  0  0
 12 10  1  0  0  0  0
 14 15  1  0  0  0  0
 14 16  1  0  0  0  0
 17 14  1  0  0  0  0
 17 18  1  0  0  0  0
 18 23  1  0  0  0  0
 19 24  1  0  0  0  0
 19 18  2  0  0  0  0
 20 19  1  0  0  0  0
 21 20  2  0  0  0  0
 21 22  1  0  0  0  0
 22 17  2  0  0  0  0
 25 21  1  0  0  0  0
 26 25  1  0  0  0  0
M  END
>  <minimizedAffinity>
-5.2684617

$$$$

 OpenBabel03252505553D

 26 27  0  0  0  0  0  0  0  0999 V2000
   36.4300   28.2350   41.9780 O   0  0  0  0  0  0  0  0  0  0  0  0
   36.5030   31.4550   40.4530 C   0  0  0  0  0  0  0  0  0  0  0  0
   37.8170   31.8920   40.6620 C   0  0  0  0  0  0  0  0  0  0  0  0
   38.6750   31.0270   41.3520 C   0  0  0  0  0  0  0  0  0  0  0  0
   38.2050   29.8330   41.7760 N   0  0  0  0  0  0  0  0  0  0  0  0
   36.9280   29.4560   41.5510 C   0  0  0  0  0  0  0  0  0  0  0  0
   36.0880   30.2560   40.8970 N   0  0  0  0  0  0  0  0  0  0  0  0
   35.7750   32.0630   39.9280 H   0  0  0  0  0  0  0  0  0  0  0  0
   39.6920   31.3730   41.5100 H   0  0  0  0  0  0  0  0  0  0  0  0
   38.2100   33.2350   40.1420 C   0  0  0  0  0  0  0  0  0  0  0  0
   37.0410   33.7730   39.6290 F   0  0  0  0  0  0  0  0  0  0  0  0
   39.1280   32.9960   39.1090 F   0  0  0  0  0  0  0  0  0  0  0  0
   38.7530   33.9590   41.1520 F   0  0  0  0  0  0  0  0  0  0  0  0
   36.9360   27.6030   43.1300 C   0  0  0  0  0  0  0  0  0  0  0  0
   37.7500   28.2360   43.5410 H   0  0  0  0  0  0  0  0  0  0  0  0
   36.1500   27.4720   43.9190 H   0  0  0  0  0  0  0  0  0  0  0  0
   37.5260   26.3190   42.7030 C   0  0  0  0  0  0  0  0  0  0  0  0
   36.9410   25.2290   42.1150 C   0  0  0  0  0  0  0  0  0  0  0  0
   37.7110   24.1360   41.8070 C   0  0  0  0  0  0  0  0  0  0  0  0
   39.0080   24.1090   42.0670 N   0  0  0  0  0  0  0  0  0  0  0  0
   39.5870   25.1750   42.6440 C   0  0  0  0  0  0  0  0  0  0  0  0
   38.8630   26.2800   42.9670 N   0  0  0  0  0  0  0  0  0  0  0  0
   35.8860   25.3570   41.9480 H   0  0  0  0  0  0  0  0  0  0  0  0
   37.1990   23.2980   41.3410 H   0  0  0  0  0  0  0  0  0  0  0  0
   41.0670   25.1210   42.9310 C   0  0  0  0  0  2  0  0  0  0  0  0
   41.3110   24.4300   43.7400 H   0  0  0  0  0  0  0  0  0  0  0  0
  1 14  1  0  0  0  0
  2  3  2  0  0  0  0
  2  7  1  0  0  0  0
  3  4  1  0  0  0  0
  4  9  1  0  0  0  0
  4  5  2  0  0  0  0
  6  5  1  0  0  0  0
  6  1  1  0  0  0  0
  7  6  2  0  0  0  0
  8  2  1  0  0  0  0
 10  3  1  0  0  0  0
 10 13  1  0  0  0  0
 11 10  1  0  0  0  0
 12 10  1  0  0  0  0
 14 15  1  0  0  0  0
 14 16  1  0  0  0  0
 17 22  1  0  0  0  0
 17 14  1  0  0  0  0
 18 17  2  0  0  0  0
 19 20  2  0  0  0  0
 19 18  1  0  0  0  0
 20 21  1  0  0  0  0
 21 25  1  0  0  0  0
 21 22  2  0  0  0  0
 23 18  1  0  0  0  0
 24 19  1  0  0  0  0
 25 26  1  0  0  0  0
M  END
>  <minimizedAffinity>
-5.09655952

$$$$

 OpenBabel03252505553D

 26 27  0  0  0  0  0  0  0  0999 V2000
   36.1230   28.0130   41.9230 O   0  0  0  0  0  0  0  0  0  0  0  0
   37.2810   31.2240   40.8980 C   0  0  0  0  0  0  0  0  0  0  0  0
   37.1340   31.2010   39.5060 C   0  0  0  0  0  0  0  0  0  0  0  0
   36.6180   30.0300   38.9380 C   0  0  0  0  0  0  0  0  0  0  0  0
   36.2920   28.9940   39.7430 N   0  0  0  0  0  0  0  0  0  0  0  0
   36.4520   29.0640   41.0830 C   0  0  0  0  0  0  0  0  0  0  0  0
   36.9400   30.1640   41.6540 N   0  0  0  0  0  0  0  0  0  0  0  0
   37.6720   32.0910   41.4180 H   0  0  0  0  0  0  0  0  0  0  0  0
   36.5070   30.0200   37.8580 H   0  0  0  0  0  0  0  0  0  0  0  0
   37.5320   32.4130   38.7310 C   0  0  0  0  0  0  0  0  0  0  0  0
   37.3130   32.0750   37.4060 F   0  0  0  0  0  0  0  0  0  0  0  0
   38.9030   32.5890   38.9670 F   0  0  0  0  0  0  0  0  0  0  0  0
   36.7990   33.4710   39.1590 F   0  0  0  0  0  0  0  0  0  0  0  0
   37.0550   27.4920   42.8420 C   0  0  0  0  0  0  0  0  0  0  0  0
   37.9090   28.1980   42.9030 H   0  0  0  0  0  0  0  0  0  0  0  0
   36.6160   27.3700   43.8660 H   0  0  0  0  0  0  0  0  0  0  0  0
   37.5530   26.2180   42.2870 C   0  0  0  0  0  0  0  0  0  0  0  0
   36.9310   25.0040   42.1620 C   0  0  0  0  0  0  0  0  0  0  0  0
   37.6120   23.9520   41.6050 C   0  0  0  0  0  0  0  0  0  0  0  0
   38.8610   24.0830   41.1840 N   0  0  0  0  0  0  0  0  0  0  0  0
   39.4760   25.2710   41.3030 C   0  0  0  0  0  0  0  0  0  0  0  0
   38.8390   26.3400   41.8500 N   0  0  0  0  0  0  0  0  0  0  0  0
   35.9220   25.0090   42.5350 H   0  0  0  0  0  0  0  0  0  0  0  0
   37.0740   23.0110   41.5280 H   0  0  0  0  0  0  0  0  0  0  0  0
   40.8980   25.3960   40.8170 C   0  0  0  0  0  2  0  0  0  0  0  0
   41.6050   24.8570   41.4500 H   0  0  0  0  0  0  0  0  0  0  0  0
  1 14  1  0  0  0  0
  2  8  1  0  0  0  0
  2  7  1  0  0  0  0
  3  2  2  0  0  0  0
  4  3  1  0  0  0  0
  4  5  2  0  0  0  0
  5  6  1  0  0  0  0
  6  7  2  0  0  0  0
  6  1  1  0  0  0  0
  9  4  1  0  0  0  0
 10 12  1  0  0  0  0
 10 13  1  0  0  0  0
 10  3  1  0  0  0  0
 11 10  1  0  0  0  0
 14 15  1  0  0  0  0
 14 16  1  0  0  0  0
 17 14  1  0  0  0  0
 18 17  1  0  0  0  0
 18 23  1  0  0  0  0
 19 18  2  0  0  0  0
 20 21  2  0  0  0  0
 20 19  1  0  0  0  0
 21 22  1  0  0  0  0
 22 17  2  0  0  0  0
 24 19  1  0  0  0  0
 25 21  1  0  0  0  0
 25 26  1  0  0  0  0
M  END
>  <minimizedAffinity>
-4.73140383

$$$$

 OpenBabel03252505553D

 26 27  0  0  0  0  0  0  0  0999 V2000
   36.7390   30.1320   38.2260 O   0  0  0  0  0  0  0  0  0  0  0  0
   37.6800   27.3850   40.2930 C   0  0  0  0  0  0  0  0  0  0  0  0
   36.9070   27.5580   41.4480 C   0  0  0  0  0  0  0  0  0  0  0  0
   36.0480   28.6630   41.4810 C   0  0  0  0  0  0  0  0  0  0  0  0
   36.0050   29.4970   40.4180 N   0  0  0  0  0  0  0  0  0  0  0  0
   36.7710   29.2880   39.3250 C   0  0  0  0  0  0  0  0  0  0  0  0
   37.5980   28.2460   39.2620 N   0  0  0  0  0  0  0  0  0  0  0  0
   38.3700   26.5560   40.1850 H   0  0  0  0  0  0  0  0  0  0  0  0
   35.4530   28.7900   42.3790 H   0  0  0  0  0  0  0  0  0  0  0  0
   37.0500   26.5640   42.5520 C   0  0  0  0  0  0  0  0  0  0  0  0
   38.3760   26.6530   42.9410 F   0  0  0  0  0  0  0  0  0  0  0  0
   36.7950   25.3090   41.9780 F   0  0  0  0  0  0  0  0  0  0  0  0
   36.1640   26.8650   43.5340 F   0  0  0  0  0  0  0  0  0  0  0  0
   37.9070   30.7650   37.7570 C   0  0  0  0  0  0  0  0  0  0  0  0
   38.7600   30.0740   37.9170 H   0  0  0  0  0  0  0  0  0  0  0  0
   37.8430   31.0110   36.6650 H   0  0  0  0  0  0  0  0  0  0  0  0
   38.1230   31.9610   38.5940 C   0  0  0  0  0  0  0  0  0  0  0  0
   37.2280   32.8800   39.0740 C   0  0  0  0  0  0  0  0  0  0  0  0
   37.6790   33.9220   39.8430 C   0  0  0  0  0  0  0  0  0  0  0  0
   38.9630   34.0630   40.1320 N   0  0  0  0  0  0  0  0  0  0  0  0
   39.8460   33.1650   39.6630 C   0  0  0  0  0  0  0  0  0  0  0  0
   39.4440   32.1170   38.8980 N   0  0  0  0  0  0  0  0  0  0  0  0
   36.2150   32.6710   38.7800 H   0  0  0  0  0  0  0  0  0  0  0  0
   36.9280   34.6230   40.1990 H   0  0  0  0  0  0  0  0  0  0  0  0
   41.3040   33.3460   40.0060 C   0  0  0  0  0  2  0  0  0  0  0  0
   41.7510   34.1990   39.4910 H   0  0  0  0  0  0  0  0  0  0  0  0
  1  6  1  0  0  0  0
  2  3  1  0  0  0  0
  3  4  2  0  0  0  0
  3 10  1  0  0  0  0
  4  9  1  0  0  0  0
  5  4  1  0  0  0  0
  6  5  2  0  0  0  0
  7  6  1  0  0  0  0
  7  2  2  0  0  0  0
  8  2  1  0  0  0  0
 10 11  1  0  0  0  0
 10 13  1  0  0  0  0
 12 10  1  0  0  0  0
 14 15  1  0  0  0  0
 14  1  1  0  0  0  0
 14 17  1  0  0  0  0
 16 14  1  0  0  0  0
 17 22  2  0  0  0  0
 17 18  1  0  0  0  0
 18 19  2  0  0  0  0
 19 20  1  0  0  0  0
 19 24  1  0  0  0  0
 21 25  1  0  0  0  0
 21 20  2  0  0  0  0
 22 21  1  0  0  0  0
 23 18  1  0  0  0  0
 26 25  1  0  0  0  0
M  END
>  <minimizedAffinity>
-4.68618202

$$$$

 OpenBabel03252505553D

 26 27  0  0  0  0  0  0  0  0999 V2000
   38.9930   30.2670   42.9340 O   0  0  0  0  0  0  0  0  0  0  0  0
   38.9570   26.8840   41.8130 C   0  0  0  0  0  0  0  0  0  0  0  0
   37.7560   26.3770   42.3250 C   0  0  0  0  0  0  0  0  0  0  0  0
   36.9610   27.2540   43.0730 C   0  0  0  0  0  0  0  0  0  0  0  0
   37.3810   28.5250   43.2640 N   0  0  0  0  0  0  0  0  0  0  0  0
   38.5480   28.9680   42.7490 C   0  0  0  0  0  0  0  0  0  0  0  0
   39.3270   28.1590   42.0330 N   0  0  0  0  0  0  0  0  0  0  0  0
   39.6300   26.2730   41.2230 H   0  0  0  0  0  0  0  0  0  0  0  0
   36.0320   26.8530   43.4660 H   0  0  0  0  0  0  0  0  0  0  0  0
   37.4090   24.9540   42.0420 C   0  0  0  0  0  0  0  0  0  0  0  0
   38.5000   24.2260   42.4880 F   0  0  0  0  0  0  0  0  0  0  0  0
   37.2970   24.8530   40.6470 F   0  0  0  0  0  0  0  0  0  0  0  0
   36.2470   24.6480   42.6710 F   0  0  0  0  0  0  0  0  0  0  0  0
   40.2510   30.6830   42.4560 C   0  0  0  0  0  0  0  0  0  0  0  0
   40.8380   31.0650   43.3160 H   0  0  0  0  0  0  0  0  0  0  0  0
   40.8190   29.8440   41.9760 H   0  0  0  0  0  0  0  0  0  0  0  0
   40.0170   31.8070   41.5270 C   0  0  0  0  0  0  0  0  0  0  0  0
   38.8460   32.3180   41.0320 C   0  0  0  0  0  0  0  0  0  0  0  0
   38.8860   33.3840   40.1710 C   0  0  0  0  0  0  0  0  0  0  0  0
   40.0340   33.9320   39.8030 N   0  0  0  0  0  0  0  0  0  0  0  0
   41.1850   33.4360   40.2850 C   0  0  0  0  0  0  0  0  0  0  0  0
   41.1930   32.3800   41.1420 N   0  0  0  0  0  0  0  0  0  0  0  0
   37.9760   31.7990   41.3950 H   0  0  0  0  0  0  0  0  0  0  0  0
   37.9300   33.7500   39.8080 H   0  0  0  0  0  0  0  0  0  0  0  0
   42.4810   34.0770   39.8520 C   0  0  0  0  0  2  0  0  0  0  0  0
   42.7180   33.8740   38.8060 H   0  0  0  0  0  0  0  0  0  0  0  0
  2  7  2  0  0  0  0
  2  3  1  0  0  0  0
  3  4  2  0  0  0  0
  4  5  1  0  0  0  0
  4  9  1  0  0  0  0
  6  1  1  0  0  0  0
  6  5  2  0  0  0  0
  7  6  1  0  0  0  0
  8  2  1  0  0  0  0
 10  3  1  0  0  0  0
 10 11  1  0  0  0  0
 10 13  1  0  0  0  0
 12 10  1  0  0  0  0
 14  1  1  0  0  0  0
 14 15  1  0  0  0  0
 16 14  1  0  0  0  0
 17 14  1  0  0  0  0
 18 23  1  0  0  0  0
 18 17  2  0  0  0  0
 19 18  1  0  0  0  0
 20 19  2  0  0  0  0
 20 21  1  0  0  0  0
 21 22  2  0  0  0  0
 22 17  1  0  0  0  0
 24 19  1  0  0  0  0
 25 21  1  0  0  0  0
 26 25  1  0  0  0  0
M  END
>  <minimizedAffinity>
-4.66383839

$$$$

 OpenBabel03252505553D

 26 27  0  0  0  0  0  0  0  0999 V2000
   37.6010   30.2110   41.6360 O   0  0  0  0  0  0  0  0  0  0  0  0
   39.1960   27.0280   41.4660 C   0  0  0  0  0  0  0  0  0  0  0  0
   38.3790   26.2050   42.2510 C   0  0  0  0  0  0  0  0  0  0  0  0
   37.2540   26.7960   42.8400 C   0  0  0  0  0  0  0  0  0  0  0  0
   37.0140   28.1090   42.6290 N   0  0  0  0  0  0  0  0  0  0  0  0
   37.8330   28.8630   41.8640 C   0  0  0  0  0  0  0  0  0  0  0  0
   38.9090   28.3310   41.2890 N   0  0  0  0  0  0  0  0  0  0  0  0
   40.0840   26.6500   40.9750 H   0  0  0  0  0  0  0  0  0  0  0  0
   36.6270   26.1510   43.4470 H   0  0  0  0  0  0  0  0  0  0  0  0
   38.7570   24.7690   42.4040 C   0  0  0  0  0  0  0  0  0  0  0  0
   37.5550   24.1010   42.5680 F   0  0  0  0  0  0  0  0  0  0  0  0
   39.5190   24.6930   43.5790 F   0  0  0  0  0  0  0  0  0  0  0  0
   39.4610   24.3790   41.3120 F   0  0  0  0  0  0  0  0  0  0  0  0
   36.3700   30.6630   41.1230 C   0  0  0  0  0  0  0  0  0  0  0  0
   35.5600   30.0760   41.6020 H   0  0  0  0  0  0  0  0  0  0  0  0
   36.1980   31.7510   41.3340 H   0  0  0  0  0  0  0  0  0  0  0  0
   36.3600   30.3620   39.6770 C   0  0  0  0  0  0  0  0  0  0  0  0
   37.2140   30.7630   38.6840 C   0  0  0  0  0  0  0  0  0  0  0  0
   36.9940   30.3450   37.3970 C   0  0  0  0  0  0  0  0  0  0  0  0
   35.9720   29.5610   37.0900 N   0  0  0  0  0  0  0  0  0  0  0  0
   35.1310   29.1650   38.0600 C   0  0  0  0  0  0  0  0  0  0  0  0
   35.3110   29.5550   39.3500 N   0  0  0  0  0  0  0  0  0  0  0  0
   38.0070   31.3950   39.0420 H   0  0  0  0  0  0  0  0  0  0  0  0
   37.6990   30.6910   36.6460 H   0  0  0  0  0  0  0  0  0  0  0  0
   33.9730   28.2720   37.6870 C   0  0  0  0  0  2  0  0  0  0  0  0
   33.2110   28.7960   37.1070 H   0  0  0  0  0  0  0  0  0  0  0  0
  1  6  1  0  0  0  0
  2  3  1  0  0  0  0
  3 10  1  0  0  0  0
  3  4  2  0  0  0  0
  4  9  1  0  0  0  0
  5  4  1  0  0  0  0
  6  5  2  0  0  0  0
  7  2  2  0  0  0  0
  7  6  1  0  0  0  0
  8  2  1  0  0  0  0
 10 11  1  0  0  0  0
 10 12  1  0  0  0  0
 13 10  1  0  0  0  0
 14 16  1  0  0  0  0
 14 15  1  0  0  0  0
 14  1  1  0  0  0  0
 17 14  1  0  0  0  0
 18 23  1  0  0  0  0
 18 17  2  0  0  0  0
 19 18  1  0  0  0  0
 20 19  2  0  0  0  0
 20 21  1  0  0  0  0
 21 22  2  0  0  0  0
 22 17  1  0  0  0  0
 24 19  1  0  0  0  0
 25 21  1  0  0  0  0
 26 25  1  0  0  0  0
M  END
>  <minimizedAffinity>
-4.50339985

$$$$

 OpenBabel03252505553D

 26 27  0  0  0  0  0  0  0  0999 V2000
   36.9830   28.4300   42.4460 O   0  0  0  0  0  0  0  0  0  0  0  0
   36.6910   25.8940   39.9590 C   0  0  0  0  0  0  0  0  0  0  0  0
   36.8060   24.7020   40.6840 C   0  0  0  0  0  0  0  0  0  0  0  0
   36.9880   24.8130   42.0680 C   0  0  0  0  0  0  0  0  0  0  0  0
   37.0440   26.0410   42.6300 N   0  0  0  0  0  0  0  0  0  0  0  0
   36.9290   27.1630   41.8870 C   0  0  0  0  0  0  0  0  0  0  0  0
   36.7540   27.0920   40.5690 N   0  0  0  0  0  0  0  0  0  0  0  0
   36.5470   25.8980   38.8840 H   0  0  0  0  0  0  0  0  0  0  0  0
   37.0760   23.8840   42.6230 H   0  0  0  0  0  0  0  0  0  0  0  0
   36.7260   23.4100   39.9420 C   0  0  0  0  0  0  0  0  0  0  0  0
   37.5360   22.5400   40.6550 F   0  0  0  0  0  0  0  0  0  0  0  0
   37.2760   23.6560   38.6760 F   0  0  0  0  0  0  0  0  0  0  0  0
   35.4290   23.0210   39.8690 F   0  0  0  0  0  0  0  0  0  0  0  0
   38.1370   28.8840   43.1130 C   0  0  0  0  0  0  0  0  0  0  0  0
   37.8310   29.2660   44.1090 H   0  0  0  0  0  0  0  0  0  0  0  0
   38.8910   28.0670   43.2570 H   0  0  0  0  0  0  0  0  0  0  0  0
   38.6760   30.0170   42.3350 C   0  0  0  0  0  0  0  0  0  0  0  0
   39.9200   30.5900   42.3510 C   0  0  0  0  0  0  0  0  0  0  0  0
   40.1860   31.6500   41.5220 C   0  0  0  0  0  0  0  0  0  0  0  0
   39.2640   32.1350   40.7050 N   0  0  0  0  0  0  0  0  0  0  0  0
   38.0420   31.5770   40.6840 C   0  0  0  0  0  0  0  0  0  0  0  0
   37.7350   30.5250   41.4890 N   0  0  0  0  0  0  0  0  0  0  0  0
   40.5900   30.1190   43.0500 H   0  0  0  0  0  0  0  0  0  0  0  0
   41.1870   32.0670   41.5740 H   0  0  0  0  0  0  0  0  0  0  0  0
   37.0080   32.1470   39.7440 C   0  0  0  0  0  2  0  0  0  0  0  0
   36.6590   33.1330   40.0560 H   0  0  0  0  0  0  0  0  0  0  0  0
  1 14  1  0  0  0  0
  2  7  2  0  0  0  0
  2  3  1  0  0  0  0
  3  4  2  0  0  0  0
  4  9  1  0  0  0  0
  4  5  1  0  0  0  0
  6  1  1  0  0  0  0
  6  5  2  0  0  0  0
  7  6  1  0  0  0  0
  8  2  1  0  0  0  0
 10 11  1  0  0  0  0
 10  3  1  0  0  0  0
 12 10  1  0  0  0  0
 13 10  1  0  0  0  0
 14 16  1  0  0  0  0
 14 15  1  0  0  0  0
 17 18  1  0  0  0  0
 17 14  1  0  0  0  0
 18 23  1  0  0  0  0
 19 24  1  0  0  0  0
 19 18  2  0  0  0  0
 20 19  1  0  0  0  0
 21 20  2  0  0  0  0
 21 22  1  0  0  0  0
 22 17  2  0  0  0  0
 25 26  1  0  0  0  0
 25 21  1  0  0  0  0
M  END
>  <minimizedAffinity>
-4.47113895

$$$$

 OpenBabel03252505553D

 26 27  0  0  0  0  0  0  0  0999 V2000
   37.5960   30.3300   41.8440 O   0  0  0  0  0  0  0  0  0  0  0  0
   36.9630   26.9180   41.0300 C   0  0  0  0  0  0  0  0  0  0  0  0
   37.6730   26.2060   42.0050 C   0  0  0  0  0  0  0  0  0  0  0  0
   38.3790   26.9560   42.9550 C   0  0  0  0  0  0  0  0  0  0  0  0
   38.3440   28.3050   42.8880 N   0  0  0  0  0  0  0  0  0  0  0  0
   37.6440   28.9470   41.9270 C   0  0  0  0  0  0  0  0  0  0  0  0
   36.9620   28.2630   41.0100 N   0  0  0  0  0  0  0  0  0  0  0  0
   36.3900   26.4150   40.2600 H   0  0  0  0  0  0  0  0  0  0  0  0
   38.9270   26.3970   43.7070 H   0  0  0  0  0  0  0  0  0  0  0  0
   37.6300   24.7150   41.9670 C   0  0  0  0  0  0  0  0  0  0  0  0
   36.3690   24.3840   42.4350 F   0  0  0  0  0  0  0  0  0  0  0  0
   38.6120   24.2770   42.8680 F   0  0  0  0  0  0  0  0  0  0  0  0
   37.8760   24.2980   40.7000 F   0  0  0  0  0  0  0  0  0  0  0  0
   38.7070   31.0730   41.4010 C   0  0  0  0  0  0  0  0  0  0  0  0
   38.7040   32.0470   41.9320 H   0  0  0  0  0  0  0  0  0  0  0  0
   39.6760   30.5510   41.6120 H   0  0  0  0  0  0  0  0  0  0  0  0
   38.5110   31.3370   39.9610 C   0  0  0  0  0  0  0  0  0  0  0  0
   37.3600   31.4120   39.2230 C   0  0  0  0  0  0  0  0  0  0  0  0
   37.4360   31.6740   37.8790 C   0  0  0  0  0  0  0  0  0  0  0  0
   38.6010   31.8560   37.2760 N   0  0  0  0  0  0  0  0  0  0  0  0
   39.7340   31.7830   37.9950 C   0  0  0  0  0  0  0  0  0  0  0  0
   39.7050   31.5260   39.3290 N   0  0  0  0  0  0  0  0  0  0  0  0
   36.4740   31.2500   39.8110 H   0  0  0  0  0  0  0  0  0  0  0  0
   36.4950   31.7240   37.3400 H   0  0  0  0  0  0  0  0  0  0  0  0
   41.0490   31.9930   37.2850 C   0  0  0  0  0  2  0  0  0  0  0  0
   41.3020   31.1650   36.6220 H   0  0  0  0  0  0  0  0  0  0  0  0
  1  6  1  0  0  0  0
  2  3  1  0  0  0  0
  3  4  2  0  0  0  0
  4  9  1  0  0  0  0
  5  4  1  0  0  0  0
  6  5  2  0  0  0  0
  7  2  2  0  0  0  0
  7  6  1  0  0  0  0
  8  2  1  0  0  0  0
 10  3  1  0  0  0  0
 10 11  1  0  0  0  0
 10 12  1  0  0  0  0
 13 10  1  0  0  0  0
 14 16  1  0  0  0  0
 14  1  1  0  0  0  0
 14 15  1  0  0  0  0
 17 14  1  0  0  0  0
 18 23  1  0  0  0  0
 18 17  2  0  0  0  0
 19 18  1  0  0  0  0
 20 19  2  0  0  0  0
 20 21  1  0  0  0  0
 21 22  2  0  0  0  0
 22 17  1  0  0  0  0
 24 19  1  0  0  0  0
 25 21  1  0  0  0  0
 26 25  1  0  0  0  0
M  END
>  <minimizedAffinity>
-4.45358419

$$$$

 OpenBabel03252505553D

 26 27  0  0  0  0  0  0  0  0999 V2000
   35.4210   29.2610   37.8420 O   0  0  0  0  0  0  0  0  0  0  0  0
   36.5740   27.3210   40.6000 C   0  0  0  0  0  0  0  0  0  0  0  0
   36.6120   28.2370   41.6590 C   0  0  0  0  0  0  0  0  0  0  0  0
   36.2220   29.5530   41.3780 C   0  0  0  0  0  0  0  0  0  0  0  0
   35.8350   29.8720   40.1230 N   0  0  0  0  0  0  0  0  0  0  0  0
   35.8150   28.9510   39.1340 C   0  0  0  0  0  0  0  0  0  0  0  0
   36.1800   27.6920   39.3690 N   0  0  0  0  0  0  0  0  0  0  0  0
   36.8590   26.2840   40.7320 H   0  0  0  0  0  0  0  0  0  0  0  0
   36.2540   30.2570   42.2030 H   0  0  0  0  0  0  0  0  0  0  0  0
   37.0590   27.7560   42.9980 C   0  0  0  0  0  0  0  0  0  0  0  0
   37.8480   26.6490   42.7330 F   0  0  0  0  0  0  0  0  0  0  0  0
   35.8950   27.3700   43.6800 F   0  0  0  0  0  0  0  0  0  0  0  0
   37.7130   28.7600   43.6330 F   0  0  0  0  0  0  0  0  0  0  0  0
   34.7790   28.3090   37.0270 C   0  0  0  0  0  0  0  0  0  0  0  0
   35.4660   28.0480   36.1950 H   0  0  0  0  0  0  0  0  0  0  0  0
   34.5250   27.3730   37.5900 H   0  0  0  0  0  0  0  0  0  0  0  0
   33.5860   28.9590   36.4490 C   0  0  0  0  0  0  0  0  0  0  0  0
   33.3060   29.3030   35.1530 C   0  0  0  0  0  0  0  0  0  0  0  0
   32.1110   29.9070   34.8590 C   0  0  0  0  0  0  0  0  0  0  0  0
   31.2190   30.1690   35.8020 N   0  0  0  0  0  0  0  0  0  0  0  0
   31.4880   29.8350   37.0750 C   0  0  0  0  0  0  0  0  0  0  0  0
   32.6600   29.2340   37.4110 N   0  0  0  0  0  0  0  0  0  0  0  0
   34.0970   29.0450   34.4700 H   0  0  0  0  0  0  0  0  0  0  0  0
   31.9370   30.1590   33.8170 H   0  0  0  0  0  0  0  0  0  0  0  0
   30.4570   30.1430   38.1320 C   0  0  0  0  0  2  0  0  0  0  0  0
   30.3690   31.2130   38.3300 H   0  0  0  0  0  0  0  0  0  0  0  0
  1  6  1  0  0  0  0
  2  8  1  0  0  0  0
  2  3  1  0  0  0  0
  3 10  1  0  0  0  0
  4  3  2  0  0  0  0
  4  9  1  0  0  0  0
  5  4  1  0  0  0  0
  6  7  1  0  0  0  0
  6  5  2  0  0  0  0
  7  2  2  0  0  0  0
 10 13  1  0  0  0  0
 10 12  1  0  0  0  0
 11 10  1  0  0  0  0
 14 16  1  0  0  0  0
 14  1  1  0  0  0  0
 15 14  1  0  0  0  0
 17 14  1  0  0  0  0
 17 22  1  0  0  0  0
 18 17  2  0  0  0  0
 19 18  1  0  0  0  0
 19 20  2  0  0  0  0
 20 21  1  0  0  0  0
 21 22  2  0  0  0  0
 21 25  1  0  0  0  0
 23 18  1  0  0  0  0
 24 19  1  0  0  0  0
 25 26  1  0  0  0  0
M  END
>  <minimizedAffinity>
-4.43711567

$$$$
