
 OpenBabel03252503033D

 26 26  0  0  0  0  0  0  0  0999 V2000
   40.4570   33.3210   40.0510 C   0  0  0  0  0  0  0  0  0  0  0  0
   40.8210   32.2760   39.8740 H   0  0  0  0  0  0  0  0  0  0  0  0
   40.9410   33.6540   40.9710 H   0  0  0  0  0  0  0  0  0  0  0  0
   40.8390   34.0920   38.8730 N   0  0  0  0  0  0  0  0  0  0  0  0
   40.0350   34.6280   38.4720 H   0  0  0  0  0  0  0  0  0  0  0  0
   41.4510   33.1050   37.6040 S   0  0  0  0  0  0  0  0  0  0  0  0
   40.3750   32.4930   36.7920 O   0  0  0  0  0  0  0  0  0  0  0  0
   39.7210   32.9890   36.2770 H   0  0  0  0  0  0  0  0  0  0  0  0
   42.2860   34.0310   36.7280 O   0  0  0  0  0  0  0  0  0  0  0  0
   41.9360   34.5520   35.9660 H   0  0  0  0  0  0  0  0  0  0  0  0
   42.4810   31.9600   38.2210 O   0  0  0  0  0  0  0  0  0  0  0  0
   43.5400   31.6780   37.3700 C   0  0  0  0  0  0  0  0  0  0  0  0
   43.1190   31.5260   36.3400 H   0  0  0  0  0  0  0  0  0  0  0  0
   44.0160   30.7190   37.6490 H   0  0  0  0  0  0  0  0  0  0  0  0
   44.3150   32.4680   37.3790 H   0  0  0  0  0  0  0  0  0  0  0  0
   38.6620   33.3420   40.1160 S   0  0  0  0  0  0  0  0  0  0  0  0
   36.7370   31.4150   40.6230 C   0  0  0  0  0  0  0  0  0  0  0  0
   38.0740   31.7770   40.7790 C   0  0  0  0  0  0  0  0  0  0  0  0
   38.9620   30.9350   41.4480 C   0  0  0  0  0  0  0  0  0  0  0  0
   38.4590   29.7650   41.9280 N   0  0  0  0  0  0  0  0  0  0  0  0
   37.1660   29.4580   41.7530 C   0  0  0  0  0  0  0  0  0  0  0  0
   36.3070   30.2360   41.1260 N   0  0  0  0  0  0  0  0  0  0  0  0
   36.0530   32.0880   40.0960 H   0  0  0  0  0  0  0  0  0  0  0  0
   40.0120   31.2140   41.5740 H   0  0  0  0  0  0  0  0  0  0  0  0
   36.6850   28.1530   42.3090 C   0  0  0  0  0  2  0  0  0  0  0  0
   37.5110   27.4220   42.2070 H   0  0  0  0  0  0  0  0  0  0  0  0
  1 16  1  0  0  0  0
  1  3  1  0  0  0  0
  2  1  1  0  0  0  0
  4  1  1  0  0  0  0
  5  4  1  0  0  0  0
  6 11  1  0  0  0  0
  6  4  1  0  0  0  0
  7  6  1  0  0  0  0
  8  7  1  0  0  0  0
  9  6  1  0  0  0  0
 10  9  1  0  0  0  0
 12 15  1  0  0  0  0
 12 14  1  0  0  0  0
 12 11  1  0  0  0  0
 13 12  1  0  0  0  0
 16 18  1  0  0  0  0
 17 18  2  0  0  0  0
 17 22  1  0  0  0  0
 18 19  1  0  0  0  0
 19 24  1  0  0  0  0
 19 20  2  0  0  0  0
 21 20  1  0  0  0  0
 21 25  1  0  0  0  0
 22 21  2  0  0  0  0
 23 17  1  0  0  0  0
 26 25  1  0  0  0  0
M  END
>  <minimizedAffinity>
-4.54217291

$$$$

 OpenBabel03252503033D

 26 26  0  0  0  0  0  0  0  0999 V2000
   39.3800   30.9580   40.8710 C   0  0  0  0  0  0  0  0  0  0  0  0
   38.8130   30.3220   40.1430 H   0  0  0  0  0  0  0  0  0  0  0  0
   40.3950   31.0300   40.4780 H   0  0  0  0  0  0  0  0  0  0  0  0
   38.6790   32.2360   40.9300 N   0  0  0  0  0  0  0  0  0  0  0  0
   38.5040   32.5480   41.9130 H   0  0  0  0  0  0  0  0  0  0  0  0
   37.1470   32.1900   40.1500 S   0  0  0  0  0  0  0  0  0  0  0  0
   36.0870   31.6200   41.0120 O   0  0  0  0  0  0  0  0  0  0  0  0
   35.8000   31.9990   41.8570 H   0  0  0  0  0  0  0  0  0  0  0  0
   36.8100   33.6380   39.8170 O   0  0  0  0  0  0  0  0  0  0  0  0
   36.3290   34.2570   40.4180 H   0  0  0  0  0  0  0  0  0  0  0  0
   37.2680   31.3760   38.7090 O   0  0  0  0  0  0  0  0  0  0  0  0
   36.4130   30.2860   38.6360 C   0  0  0  0  0  0  0  0  0  0  0  0
   36.5180   29.7060   39.5920 H   0  0  0  0  0  0  0  0  0  0  0  0
   36.7300   29.5990   37.8280 H   0  0  0  0  0  0  0  0  0  0  0  0
   35.3620   30.5800   38.4510 H   0  0  0  0  0  0  0  0  0  0  0  0
   39.2770   30.2440   42.5170 S   0  0  0  0  0  0  0  0  0  0  0  0
   37.4200   28.3700   41.6690 C   0  0  0  0  0  0  0  0  0  0  0  0
   38.5870   28.5870   42.4010 C   0  0  0  0  0  0  0  0  0  0  0  0
   39.2250   27.5270   43.0460 C   0  0  0  0  0  0  0  0  0  0  0  0
   38.6550   26.2980   42.9230 N   0  0  0  0  0  0  0  0  0  0  0  0
   37.5330   26.1360   42.2070 C   0  0  0  0  0  0  0  0  0  0  0  0
   36.9110   27.1200   41.5900 N   0  0  0  0  0  0  0  0  0  0  0  0
   36.9310   29.2130   41.1690 H   0  0  0  0  0  0  0  0  0  0  0  0
   40.1400   27.6910   43.6220 H   0  0  0  0  0  0  0  0  0  0  0  0
   36.9650   24.7530   42.1160 C   0  0  0  0  0  2  0  0  0  0  0  0
   37.8150   24.0440   42.0960 H   0  0  0  0  0  0  0  0  0  0  0  0
  1  4  1  0  0  0  0
  1 16  1  0  0  0  0
  2  1  1  0  0  0  0
  3  1  1  0  0  0  0
  4  5  1  0  0  0  0
  6  4  1  0  0  0  0
  6  7  1  0  0  0  0
  7  8  1  0  0  0  0
  9  6  1  0  0  0  0
  9 10  1  0  0  0  0
 11  6  1  0  0  0  0
 12 11  1  0  0  0  0
 12 13  1  0  0  0  0
 14 12  1  0  0  0  0
 15 12  1  0  0  0  0
 17 18  1  0  0  0  0
 18 16  1  0  0  0  0
 18 19  2  0  0  0  0
 19 24  1  0  0  0  0
 20 19  1  0  0  0  0
 21 20  2  0  0  0  0
 22 17  2  0  0  0  0
 22 21  1  0  0  0  0
 23 17  1  0  0  0  0
 25 21  1  0  0  0  0
 26 25  1  0  0  0  0
M  END
>  <minimizedAffinity>
-4.32868385

$$$$

 OpenBabel03252503033D

 26 26  0  0  0  0  0  0  0  0999 V2000
   36.9220   30.5840   40.3930 C   0  0  0  0  0  0  0  0  0  0  0  0
   35.9660   30.0020   40.3300 H   0  0  0  0  0  0  0  0  0  0  0  0
   37.4260   30.4340   39.4370 H   0  0  0  0  0  0  0  0  0  0  0  0
   36.5420   31.9690   40.6490 N   0  0  0  0  0  0  0  0  0  0  0  0
   35.5800   32.1880   40.3010 H   0  0  0  0  0  0  0  0  0  0  0  0
   37.6020   33.0970   39.9000 S   0  0  0  0  0  0  0  0  0  0  0  0
   36.8760   34.1610   39.1700 O   0  0  0  0  0  0  0  0  0  0  0  0
   36.2680   34.7940   39.5790 H   0  0  0  0  0  0  0  0  0  0  0  0
   38.4110   33.7170   41.0320 O   0  0  0  0  0  0  0  0  0  0  0  0
   38.1430   34.5190   41.5420 H   0  0  0  0  0  0  0  0  0  0  0  0
   38.6750   32.3010   38.9160 O   0  0  0  0  0  0  0  0  0  0  0  0
   39.9960   32.6140   39.1990 C   0  0  0  0  0  0  0  0  0  0  0  0
   40.0710   33.7320   39.2860 H   0  0  0  0  0  0  0  0  0  0  0  0
   40.6520   32.3300   38.3540 H   0  0  0  0  0  0  0  0  0  0  0  0
   40.3670   32.1100   40.1120 H   0  0  0  0  0  0  0  0  0  0  0  0
   37.8720   30.0450   41.8200 S   0  0  0  0  0  0  0  0  0  0  0  0
   38.9170   27.5660   41.1550 C   0  0  0  0  0  0  0  0  0  0  0  0
   37.9210   28.2470   41.8530 C   0  0  0  0  0  0  0  0  0  0  0  0
   36.9590   27.5450   42.5790 C   0  0  0  0  0  0  0  0  0  0  0  0
   37.0470   26.1870   42.5660 N   0  0  0  0  0  0  0  0  0  0  0  0
   38.0240   25.5750   41.8810 C   0  0  0  0  0  0  0  0  0  0  0  0
   38.9430   26.2150   41.1870 N   0  0  0  0  0  0  0  0  0  0  0  0
   39.6650   28.1320   40.5900 H   0  0  0  0  0  0  0  0  0  0  0  0
   36.1750   28.0730   43.1290 H   0  0  0  0  0  0  0  0  0  0  0  0
   38.0560   24.0770   41.9150 C   0  0  0  0  0  2  0  0  0  0  0  0
   37.7160   23.7580   42.9180 H   0  0  0  0  0  0  0  0  0  0  0  0
  1  4  1  0  0  0  0
  1 16  1  0  0  0  0
  2  1  1  0  0  0  0
  3  1  1  0  0  0  0
  5  4  1  0  0  0  0
  6  4  1  0  0  0  0
  6  9  1  0  0  0  0
  7  8  1  0  0  0  0
  7  6  1  0  0  0  0
  9 10  1  0  0  0  0
 11 12  1  0  0  0  0
 11  6  1  0  0  0  0
 12 13  1  0  0  0  0
 12 15  1  0  0  0  0
 14 12  1  0  0  0  0
 16 18  1  0  0  0  0
 17 22  2  0  0  0  0
 17 18  1  0  0  0  0
 18 19  2  0  0  0  0
 19 24  1  0  0  0  0
 20 19  1  0  0  0  0
 21 25  1  0  0  0  0
 21 20  2  0  0  0  0
 22 21  1  0  0  0  0
 23 17  1  0  0  0  0
 25 26  1  0  0  0  0
M  END
>  <minimizedAffinity>
-4.29674768

$$$$

 OpenBabel03252503033D

 26 26  0  0  0  0  0  0  0  0999 V2000
   37.2110   28.3000   43.5920 C   0  0  0  0  0  0  0  0  0  0  0  0
   37.1070   28.4830   44.6930 H   0  0  0  0  0  0  0  0  0  0  0  0
   36.3350   27.7170   43.3020 H   0  0  0  0  0  0  0  0  0  0  0  0
   37.2780   29.6150   42.9630 N   0  0  0  0  0  0  0  0  0  0  0  0
   36.8440   30.3600   43.5540 H   0  0  0  0  0  0  0  0  0  0  0  0
   36.4760   29.6650   41.4430 S   0  0  0  0  0  0  0  0  0  0  0  0
   35.4870   28.5750   41.2870 O   0  0  0  0  0  0  0  0  0  0  0  0
   34.7080   28.4510   41.8500 H   0  0  0  0  0  0  0  0  0  0  0  0
   35.7620   31.0110   41.3980 O   0  0  0  0  0  0  0  0  0  0  0  0
   34.8470   31.1740   41.7300 H   0  0  0  0  0  0  0  0  0  0  0  0
   37.5880   29.6640   40.2120 O   0  0  0  0  0  0  0  0  0  0  0  0
   37.6970   28.4300   39.5880 C   0  0  0  0  0  0  0  0  0  0  0  0
   37.7810   27.6490   40.3910 H   0  0  0  0  0  0  0  0  0  0  0  0
   38.6370   28.3710   39.0080 H   0  0  0  0  0  0  0  0  0  0  0  0
   36.8510   28.2220   38.9050 H   0  0  0  0  0  0  0  0  0  0  0  0
   38.7790   27.4910   43.2510 S   0  0  0  0  0  0  0  0  0  0  0  0
   37.1710   25.4760   42.2340 C   0  0  0  0  0  0  0  0  0  0  0  0
   38.4740   25.9600   42.3580 C   0  0  0  0  0  0  0  0  0  0  0  0
   39.5430   25.2650   41.7950 C   0  0  0  0  0  0  0  0  0  0  0  0
   39.2490   24.1130   41.1320 N   0  0  0  0  0  0  0  0  0  0  0  0
   37.9820   23.6870   41.0370 C   0  0  0  0  0  0  0  0  0  0  0  0
   36.9540   24.3250   41.5600 N   0  0  0  0  0  0  0  0  0  0  0  0
   36.3430   26.0350   42.6820 H   0  0  0  0  0  0  0  0  0  0  0  0
   40.5670   25.6390   41.8890 H   0  0  0  0  0  0  0  0  0  0  0  0
   37.7360   22.4110   40.2920 C   0  0  0  0  0  2  0  0  0  0  0  0
   38.4650   22.3640   39.4590 H   0  0  0  0  0  0  0  0  0  0  0  0
  1  2  1  0  0  0  0
  3  1  1  0  0  0  0
  4  5  1  0  0  0  0
  4  1  1  0  0  0  0
  6  4  1  0  0  0  0
  7  6  1  0  0  0  0
  7  8  1  0  0  0  0
  9  6  1  0  0  0  0
  9 10  1  0  0  0  0
 11  6  1  0  0  0  0
 12 11  1  0  0  0  0
 12 13  1  0  0  0  0
 14 12  1  0  0  0  0
 15 12  1  0  0  0  0
 16  1  1  0  0  0  0
 17 18  1  0  0  0  0
 17 23  1  0  0  0  0
 18 16  1  0  0  0  0
 19 24  1  0  0  0  0
 19 18  2  0  0  0  0
 20 19  1  0  0  0  0
 21 20  2  0  0  0  0
 21 22  1  0  0  0  0
 22 17  2  0  0  0  0
 25 21  1  0  0  0  0
 26 25  1  0  0  0  0
M  END
>  <minimizedAffinity>
-4.25875092

$$$$

 OpenBabel03252503033D

 26 26  0  0  0  0  0  0  0  0999 V2000
   36.6930   30.7410   38.8070 C   0  0  0  0  0  0  0  0  0  0  0  0
   35.6860   30.7410   38.3150 H   0  0  0  0  0  0  0  0  0  0  0  0
   37.1370   29.7700   38.5800 H   0  0  0  0  0  0  0  0  0  0  0  0
   37.4240   31.8690   38.2400 N   0  0  0  0  0  0  0  0  0  0  0  0
   36.9580   32.2570   37.3880 H   0  0  0  0  0  0  0  0  0  0  0  0
   39.0280   31.4550   37.7760 S   0  0  0  0  0  0  0  0  0  0  0  0
   39.1390   30.0550   37.3070 O   0  0  0  0  0  0  0  0  0  0  0  0
   38.6750   29.6920   36.5370 H   0  0  0  0  0  0  0  0  0  0  0  0
   39.3860   32.4040   36.6390 O   0  0  0  0  0  0  0  0  0  0  0  0
   39.2120   32.2280   35.6830 H   0  0  0  0  0  0  0  0  0  0  0  0
   40.0790   31.7700   39.0200 O   0  0  0  0  0  0  0  0  0  0  0  0
   40.6810   33.0150   38.9110 C   0  0  0  0  0  0  0  0  0  0  0  0
   41.0480   33.1250   37.8550 H   0  0  0  0  0  0  0  0  0  0  0  0
   41.5820   33.0670   39.5520 H   0  0  0  0  0  0  0  0  0  0  0  0
   40.0030   33.8420   39.1950 H   0  0  0  0  0  0  0  0  0  0  0  0
   36.5180   31.0770   40.5630 S   0  0  0  0  0  0  0  0  0  0  0  0
   38.6380   30.0370   42.0120 C   0  0  0  0  0  0  0  0  0  0  0  0
   37.3640   29.7960   41.4990 C   0  0  0  0  0  0  0  0  0  0  0  0
   36.7410   28.5660   41.7040 C   0  0  0  0  0  0  0  0  0  0  0  0
   37.4310   27.6360   42.4180 N   0  0  0  0  0  0  0  0  0  0  0  0
   38.6530   27.9130   42.8940 C   0  0  0  0  0  0  0  0  0  0  0  0
   39.2650   29.0670   42.7130 N   0  0  0  0  0  0  0  0  0  0  0  0
   39.1140   31.0090   41.8410 H   0  0  0  0  0  0  0  0  0  0  0  0
   35.7420   28.3700   41.3030 H   0  0  0  0  0  0  0  0  0  0  0  0
   39.3520   26.8400   43.6720 C   0  0  0  0  0  2  0  0  0  0  0  0
   38.5810   26.2850   44.2410 H   0  0  0  0  0  0  0  0  0  0  0  0
  1 16  1  0  0  0  0
  2  1  1  0  0  0  0
  3  1  1  0  0  0  0
  4  1  1  0  0  0  0
  5  4  1  0  0  0  0
  6  4  1  0  0  0  0
  6 11  1  0  0  0  0
  7  6  1  0  0  0  0
  8  7  1  0  0  0  0
  9  6  1  0  0  0  0
 10  9  1  0  0  0  0
 12 11  1  0  0  0  0
 12 15  1  0  0  0  0
 12 14  1  0  0  0  0
 13 12  1  0  0  0  0
 16 18  1  0  0  0  0
 17 22  1  0  0  0  0
 18 19  1  0  0  0  0
 18 17  2  0  0  0  0
 19 20  2  0  0  0  0
 20 21  1  0  0  0  0
 21 25  1  0  0  0  0
 22 21  2  0  0  0  0
 23 17  1  0  0  0  0
 24 19  1  0  0  0  0
 25 26  1  0  0  0  0
M  END
>  <minimizedAffinity>
-4.11124468

$$$$

 OpenBabel03252503033D

 26 26  0  0  0  0  0  0  0  0999 V2000
   37.0590   32.3150   39.4510 C   0  0  0  0  0  0  0  0  0  0  0  0
   36.4220   33.1280   39.8860 H   0  0  0  0  0  0  0  0  0  0  0  0
   36.3720   31.5140   39.1730 H   0  0  0  0  0  0  0  0  0  0  0  0
   37.7630   32.9070   38.3190 N   0  0  0  0  0  0  0  0  0  0  0  0
   37.2430   33.7160   37.9070 H   0  0  0  0  0  0  0  0  0  0  0  0
   38.0230   31.7880   37.0400 S   0  0  0  0  0  0  0  0  0  0  0  0
   37.9370   32.4210   35.7040 O   0  0  0  0  0  0  0  0  0  0  0  0
   38.5220   33.1270   35.3900 H   0  0  0  0  0  0  0  0  0  0  0  0
   39.4270   31.2360   37.2530 O   0  0  0  0  0  0  0  0  0  0  0  0
   40.2510   31.6360   36.8840 H   0  0  0  0  0  0  0  0  0  0  0  0
   36.9730   30.5110   37.1800 O   0  0  0  0  0  0  0  0  0  0  0  0
   37.6240   29.2950   37.3310 C   0  0  0  0  0  0  0  0  0  0  0  0
   38.4340   29.2440   36.5540 H   0  0  0  0  0  0  0  0  0  0  0  0
   36.9370   28.4570   37.1080 H   0  0  0  0  0  0  0  0  0  0  0  0
   38.0290   29.1520   38.3510 H   0  0  0  0  0  0  0  0  0  0  0  0
   38.3190   31.8250   40.6350 S   0  0  0  0  0  0  0  0  0  0  0  0
   36.6680   29.6330   41.0180 C   0  0  0  0  0  0  0  0  0  0  0  0
   37.7950   30.3200   41.4690 C   0  0  0  0  0  0  0  0  0  0  0  0
   38.5190   29.8500   42.5640 C   0  0  0  0  0  0  0  0  0  0  0  0
   38.0730   28.7070   43.1530 N   0  0  0  0  0  0  0  0  0  0  0  0
   36.9860   28.0790   42.6840 C   0  0  0  0  0  0  0  0  0  0  0  0
   36.2840   28.5030   41.6520 N   0  0  0  0  0  0  0  0  0  0  0  0
   36.1100   30.0150   40.1570 H   0  0  0  0  0  0  0  0  0  0  0  0
   39.4030   30.3850   42.9230 H   0  0  0  0  0  0  0  0  0  0  0  0
   36.5560   26.8260   43.3850 C   0  0  0  0  0  2  0  0  0  0  0  0
   37.4710   26.3030   43.7240 H   0  0  0  0  0  0  0  0  0  0  0  0
  1  2  1  0  0  0  0
  1 16  1  0  0  0  0
  3  1  1  0  0  0  0
  4  1  1  0  0  0  0
  5  4  1  0  0  0  0
  6 11  1  0  0  0  0
  6  9  1  0  0  0  0
  6  4  1  0  0  0  0
  7  6  1  0  0  0  0
  8  7  1  0  0  0  0
 10  9  1  0  0  0  0
 11 12  1  0  0  0  0
 12 15  1  0  0  0  0
 13 12  1  0  0  0  0
 14 12  1  0  0  0  0
 16 18  1  0  0  0  0
 17 18  2  0  0  0  0
 17 22  1  0  0  0  0
 18 19  1  0  0  0  0
 19 24  1  0  0  0  0
 19 20  2  0  0  0  0
 21 20  1  0  0  0  0
 21 25  1  0  0  0  0
 22 21  2  0  0  0  0
 23 17  1  0  0  0  0
 25 26  1  0  0  0  0
M  END
>  <minimizedAffinity>
-4.10946989

$$$$

 OpenBabel03252503033D

 26 26  0  0  0  0  0  0  0  0999 V2000
   39.9240   31.1980   39.1030 C   0  0  0  0  0  0  0  0  0  0  0  0
   39.1440   30.5800   38.5880 H   0  0  0  0  0  0  0  0  0  0  0  0
   40.5920   31.5530   38.3160 H   0  0  0  0  0  0  0  0  0  0  0  0
   39.2090   32.2660   39.7940 N   0  0  0  0  0  0  0  0  0  0  0  0
   39.2340   32.1520   40.8340 H   0  0  0  0  0  0  0  0  0  0  0  0
   37.5510   32.3500   39.3500 S   0  0  0  0  0  0  0  0  0  0  0  0
   36.8210   33.4140   40.0760 O   0  0  0  0  0  0  0  0  0  0  0  0
   37.0260   34.3590   40.0230 H   0  0  0  0  0  0  0  0  0  0  0  0
   37.5390   32.6530   37.8560 O   0  0  0  0  0  0  0  0  0  0  0  0
   37.5460   33.5600   37.4660 H   0  0  0  0  0  0  0  0  0  0  0  0
   36.8320   30.8680   39.5490 O   0  0  0  0  0  0  0  0  0  0  0  0
   36.0910   30.7840   40.7190 C   0  0  0  0  0  0  0  0  0  0  0  0
   36.7230   31.1940   41.5530 H   0  0  0  0  0  0  0  0  0  0  0  0
   35.8940   29.7270   40.9780 H   0  0  0  0  0  0  0  0  0  0  0  0
   35.1210   31.3130   40.6480 H   0  0  0  0  0  0  0  0  0  0  0  0
   40.7380   30.2230   40.3740 S   0  0  0  0  0  0  0  0  0  0  0  0
   38.8630   28.2460   40.8830 C   0  0  0  0  0  0  0  0  0  0  0  0
   39.4920   29.3920   41.3700 C   0  0  0  0  0  0  0  0  0  0  0  0
   39.1600   29.9000   42.6250 C   0  0  0  0  0  0  0  0  0  0  0  0
   38.2100   29.2290   43.3310 N   0  0  0  0  0  0  0  0  0  0  0  0
   37.6340   28.1310   42.8230 C   0  0  0  0  0  0  0  0  0  0  0  0
   37.9280   27.6300   41.6400 N   0  0  0  0  0  0  0  0  0  0  0  0
   39.1350   27.8590   39.8950 H   0  0  0  0  0  0  0  0  0  0  0  0
   39.6490   30.7990   43.0130 H   0  0  0  0  0  0  0  0  0  0  0  0
   36.5970   27.4450   43.6600 C   0  0  0  0  0  2  0  0  0  0  0  0
   36.9020   27.5460   44.7190 H   0  0  0  0  0  0  0  0  0  0  0  0
  1  4  1  0  0  0  0
  1 16  1  0  0  0  0
  2  1  1  0  0  0  0
  3  1  1  0  0  0  0
  4  5  1  0  0  0  0
  6 11  1  0  0  0  0
  6  4  1  0  0  0  0
  6  7  1  0  0  0  0
  8  7  1  0  0  0  0
  9  6  1  0  0  0  0
 10  9  1  0  0  0  0
 11 12  1  0  0  0  0
 12 14  1  0  0  0  0
 12 13  1  0  0  0  0
 15 12  1  0  0  0  0
 16 18  1  0  0  0  0
 17 18  2  0  0  0  0
 17 22  1  0  0  0  0
 18 19  1  0  0  0  0
 19 24  1  0  0  0  0
 19 20  2  0  0  0  0
 21 20  1  0  0  0  0
 21 25  1  0  0  0  0
 22 21  2  0  0  0  0
 23 17  1  0  0  0  0
 25 26  1  0  0  0  0
M  END
>  <minimizedAffinity>
-4.00764704

$$$$

 OpenBabel03252503033D

 26 26  0  0  0  0  0  0  0  0999 V2000
   38.1190   31.2780   37.4050 C   0  0  0  0  0  0  0  0  0  0  0  0
   38.3820   31.5620   36.3530 H   0  0  0  0  0  0  0  0  0  0  0  0
   39.0590   30.9940   37.8810 H   0  0  0  0  0  0  0  0  0  0  0  0
   37.4880   32.4510   38.0000 N   0  0  0  0  0  0  0  0  0  0  0  0
   37.5980   33.3050   37.4070 H   0  0  0  0  0  0  0  0  0  0  0  0
   38.1340   32.8400   39.5450 S   0  0  0  0  0  0  0  0  0  0  0  0
   38.8070   34.1580   39.5640 O   0  0  0  0  0  0  0  0  0  0  0  0
   38.3700   35.0040   39.3810 H   0  0  0  0  0  0  0  0  0  0  0  0
   36.9440   32.8610   40.4970 O   0  0  0  0  0  0  0  0  0  0  0  0
   36.3880   33.6550   40.6840 H   0  0  0  0  0  0  0  0  0  0  0  0
   39.1450   31.6290   40.0600 O   0  0  0  0  0  0  0  0  0  0  0  0
   38.9180   31.2650   41.3790 C   0  0  0  0  0  0  0  0  0  0  0  0
   38.8530   32.2080   41.9870 H   0  0  0  0  0  0  0  0  0  0  0  0
   39.7820   30.7030   41.7800 H   0  0  0  0  0  0  0  0  0  0  0  0
   38.0110   30.6410   41.4990 H   0  0  0  0  0  0  0  0  0  0  0  0
   36.8770   29.9800   37.3960 S   0  0  0  0  0  0  0  0  0  0  0  0
   37.7650   28.3170   39.4270 C   0  0  0  0  0  0  0  0  0  0  0  0
   36.7910   29.2320   39.0300 C   0  0  0  0  0  0  0  0  0  0  0  0
   35.7480   29.5730   39.8900 C   0  0  0  0  0  0  0  0  0  0  0  0
   35.7360   28.9740   41.1120 N   0  0  0  0  0  0  0  0  0  0  0  0
   36.6950   28.1010   41.4510 C   0  0  0  0  0  0  0  0  0  0  0  0
   37.6900   27.7620   40.6570 N   0  0  0  0  0  0  0  0  0  0  0  0
   38.5780   28.0600   38.7390 H   0  0  0  0  0  0  0  0  0  0  0  0
   34.9800   30.2900   39.5840 H   0  0  0  0  0  0  0  0  0  0  0  0
   36.6150   27.4830   42.8130 C   0  0  0  0  0  2  0  0  0  0  0  0
   36.2060   28.2460   43.5030 H   0  0  0  0  0  0  0  0  0  0  0  0
  1  3  1  0  0  0  0
  1  4  1  0  0  0  0
  2  1  1  0  0  0  0
  4  6  1  0  0  0  0
  5  4  1  0  0  0  0
  6  7  1  0  0  0  0
  6 11  1  0  0  0  0
  6  9  1  0  0  0  0
  8  7  1  0  0  0  0
  9 10  1  0  0  0  0
 11 12  1  0  0  0  0
 12 15  1  0  0  0  0
 12 14  1  0  0  0  0
 12 13  1  0  0  0  0
 16  1  1  0  0  0  0
 16 18  1  0  0  0  0
 17 22  1  0  0  0  0
 18 17  2  0  0  0  0
 18 19  1  0  0  0  0
 19 20  2  0  0  0  0
 20 21  1  0  0  0  0
 21 25  1  0  0  0  0
 22 21  2  0  0  0  0
 23 17  1  0  0  0  0
 24 19  1  0  0  0  0
 25 26  1  0  0  0  0
M  END
>  <minimizedAffinity>
-3.95657611

$$$$

 OpenBabel03252503033D

 26 26  0  0  0  0  0  0  0  0999 V2000
   38.4070   29.4840   39.4630 C   0  0  0  0  0  0  0  0  0  0  0  0
   38.7180   29.0750   40.4590 H   0  0  0  0  0  0  0  0  0  0  0  0
   38.6190   28.6960   38.7380 H   0  0  0  0  0  0  0  0  0  0  0  0
   36.9900   29.8110   39.5800 N   0  0  0  0  0  0  0  0  0  0  0  0
   36.7550   30.7240   39.1280 H   0  0  0  0  0  0  0  0  0  0  0  0
   36.4660   29.9220   41.2140 S   0  0  0  0  0  0  0  0  0  0  0  0
   35.5980   31.0980   41.4530 O   0  0  0  0  0  0  0  0  0  0  0  0
   34.7430   31.2490   41.0240 H   0  0  0  0  0  0  0  0  0  0  0  0
   35.6810   28.6450   41.4840 O   0  0  0  0  0  0  0  0  0  0  0  0
   34.7120   28.5370   41.3260 H   0  0  0  0  0  0  0  0  0  0  0  0
   37.7760   29.9110   42.2320 O   0  0  0  0  0  0  0  0  0  0  0  0
   37.7090   28.9000   43.1800 C   0  0  0  0  0  0  0  0  0  0  0  0
   36.6790   28.9200   43.6280 H   0  0  0  0  0  0  0  0  0  0  0  0
   38.4060   29.1050   44.0150 H   0  0  0  0  0  0  0  0  0  0  0  0
   37.9510   27.9050   42.7600 H   0  0  0  0  0  0  0  0  0  0  0  0
   39.2630   31.0300   39.1420 S   0  0  0  0  0  0  0  0  0  0  0  0
   41.3720   31.8020   37.5180 C   0  0  0  0  0  0  0  0  0  0  0  0
   40.6150   30.7310   37.9950 C   0  0  0  0  0  0  0  0  0  0  0  0
   40.8990   29.4280   37.5870 C   0  0  0  0  0  0  0  0  0  0  0  0
   41.9330   29.2650   36.7180 N   0  0  0  0  0  0  0  0  0  0  0  0
   42.6330   30.3230   36.2880 C   0  0  0  0  0  0  0  0  0  0  0  0
   42.3850   31.5640   36.6560 N   0  0  0  0  0  0  0  0  0  0  0  0
   41.1360   32.8190   37.8480 H   0  0  0  0  0  0  0  0  0  0  0  0
   40.3090   28.5840   37.9570 H   0  0  0  0  0  0  0  0  0  0  0  0
   43.7580   30.0650   35.3320 C   0  0  0  0  0  2  0  0  0  0  0  0
   44.2160   29.0960   35.6090 H   0  0  0  0  0  0  0  0  0  0  0  0
  1  4  1  0  0  0  0
  1  2  1  0  0  0  0
  3  1  1  0  0  0  0
  4  6  1  0  0  0  0
  5  4  1  0  0  0  0
  6  7  1  0  0  0  0
  6  9  1  0  0  0  0
  6 11  1  0  0  0  0
  8  7  1  0  0  0  0
 10  9  1  0  0  0  0
 11 12  1  0  0  0  0
 12 13  1  0  0  0  0
 12 14  1  0  0  0  0
 15 12  1  0  0  0  0
 16  1  1  0  0  0  0
 17 23  1  0  0  0  0
 17 18  1  0  0  0  0
 18 16  1  0  0  0  0
 19 24  1  0  0  0  0
 19 18  2  0  0  0  0
 20 19  1  0  0  0  0
 21 22  1  0  0  0  0
 21 20  2  0  0  0  0
 22 17  2  0  0  0  0
 25 26  1  0  0  0  0
 25 21  1  0  0  0  0
M  END
>  <minimizedAffinity>
-3.90468192

$$$$
