
 OpenBabel03252508363D

 24 25  0  0  0  0  0  0  0  0999 V2000
   37.5630   28.1620   41.0020 C   0  0  0  0  0  0  0  0  0  0  0  0
   37.7600   29.1850   41.8900 C   0  0  0  0  0  0  0  0  0  0  0  0
   37.5060   28.9370   43.2090 C   0  0  0  0  0  0  0  0  0  0  0  0
   37.0630   27.7100   43.6800 C   0  0  0  0  0  0  0  0  0  0  0  0
   36.8730   26.7000   42.7690 C   0  0  0  0  0  0  0  0  0  0  0  0
   37.1190   26.9110   41.4230 C   0  0  0  0  0  0  0  0  0  0  0  0
   37.6690   29.7610   43.8980 H   0  0  0  0  0  0  0  0  0  0  0  0
   36.8780   27.5750   44.7430 H   0  0  0  0  0  0  0  0  0  0  0  0
   36.5280   25.7270   43.0920 H   0  0  0  0  0  0  0  0  0  0  0  0
   37.8330   32.6170   40.3190 C   0  0  0  0  0  0  0  0  0  0  0  0
   37.3380   31.4040   40.8360 C   0  0  0  0  0  0  0  0  0  0  0  0
   38.2240   30.4470   41.3490 C   0  0  0  0  0  0  0  0  0  0  0  0
   39.5460   30.7750   41.3070 N   0  0  0  0  0  0  0  0  0  0  0  0
   39.9990   31.9320   40.8130 C   0  0  0  0  0  0  0  0  0  0  0  0
   39.1480   32.8550   40.3180 N   0  0  0  0  0  0  0  0  0  0  0  0
   36.9050   33.5440   39.8180 N   0  0  0  0  0  0  0  0  0  0  0  0
   36.2760   31.2130   40.8370 H   0  0  0  0  0  0  0  0  0  0  0  0
   41.0750   32.0600   40.8420 H   0  0  0  0  0  0  0  0  0  0  0  0
   36.4950   33.9800   40.6770 H   0  0  0  0  0  0  0  0  0  0  0  0
   36.9190   33.5030   38.7730 H   0  0  0  0  0  0  0  0  0  0  0  0
   37.9960   28.4860   38.4470 N   0  0  0  0  0  0  0  0  0  0  0  0
   37.8030   28.3300   39.5950 C   0  0  0  0  0  0  0  0  0  0  0  0
   36.9160   25.8200   40.4210 C   0  0  0  0  0  2  0  0  0  0  0  0
   37.8710   25.2690   40.2360 H   0  0  0  0  0  0  0  0  0  0  0  0
  1  6  2  0  0  0  0
  1  2  1  0  0  0  0
  2  3  2  0  0  0  0
  3  4  1  0  0  0  0
  3  7  1  0  0  0  0
  4  8  1  0  0  0  0
  5  9  1  0  0  0  0
  5  4  2  0  0  0  0
  6  5  1  0  0  0  0
 10 11  1  0  0  0  0
 11 17  1  0  0  0  0
 11 12  2  0  0  0  0
 12  2  1  0  0  0  0
 13 12  1  0  0  0  0
 14 18  1  0  0  0  0
 14 13  2  0  0  0  0
 15 10  2  0  0  0  0
 15 14  1  0  0  0  0
 16 10  1  0  0  0  0
 16 19  1  0  0  0  0
 20 16  1  0  0  0  0
 21 22  3  0  0  0  0
 22  1  1  0  0  0  0
 23  6  1  0  0  0  0
 24 23  1  0  0  0  0
M  END
>  <minimizedAffinity>
-5.04735518

$$$$

 OpenBabel03252508363D

 24 25  0  0  0  0  0  0  0  0999 V2000
   37.4350   28.9000   41.6890 C   0  0  0  0  0  0  0  0  0  0  0  0
   38.4420   29.6930   41.2060 C   0  0  0  0  0  0  0  0  0  0  0  0
   39.6690   29.5880   41.7960 C   0  0  0  0  0  0  0  0  0  0  0  0
   39.9350   28.7250   42.8480 C   0  0  0  0  0  0  0  0  0  0  0  0
   38.9090   27.9410   43.3150 C   0  0  0  0  0  0  0  0  0  0  0  0
   37.6500   28.0170   42.7450 C   0  0  0  0  0  0  0  0  0  0  0  0
   40.4540   30.2240   41.3980 H   0  0  0  0  0  0  0  0  0  0  0  0
   40.9350   28.6880   43.2760 H   0  0  0  0  0  0  0  0  0  0  0  0
   39.0720   27.2540   44.1350 H   0  0  0  0  0  0  0  0  0  0  0  0
   37.3890   32.7220   39.2150 C   0  0  0  0  0  0  0  0  0  0  0  0
   37.6980   31.8980   40.3140 C   0  0  0  0  0  0  0  0  0  0  0  0
   38.1140   30.5760   40.1050 C   0  0  0  0  0  0  0  0  0  0  0  0
   38.1890   30.1740   38.8050 N   0  0  0  0  0  0  0  0  0  0  0  0
   37.8920   30.9700   37.7730 C   0  0  0  0  0  0  0  0  0  0  0  0
   37.4920   32.2430   37.9720 N   0  0  0  0  0  0  0  0  0  0  0  0
   36.9780   34.0400   39.4770 N   0  0  0  0  0  0  0  0  0  0  0  0
   37.6150   32.2870   41.3180 H   0  0  0  0  0  0  0  0  0  0  0  0
   37.9970   30.5170   36.7930 H   0  0  0  0  0  0  0  0  0  0  0  0
   37.8690   34.5400   39.7090 H   0  0  0  0  0  0  0  0  0  0  0  0
   35.9410   34.0980   39.3600 H   0  0  0  0  0  0  0  0  0  0  0  0
   35.0370   28.9800   40.6590 N   0  0  0  0  0  0  0  0  0  0  0  0
   36.1110   28.9420   41.1320 C   0  0  0  0  0  0  0  0  0  0  0  0
   36.5240   27.1700   43.2420 C   0  0  0  0  0  2  0  0  0  0  0  0
   36.4440   26.2260   42.6470 H   0  0  0  0  0  0  0  0  0  0  0  0
  1  6  1  0  0  0  0
  2  1  2  0  0  0  0
  2  3  1  0  0  0  0
  3  4  2  0  0  0  0
  4  8  1  0  0  0  0
  4  5  1  0  0  0  0
  5  9  1  0  0  0  0
  6 23  1  0  0  0  0
  6  5  2  0  0  0  0
  7  3  1  0  0  0  0
 10 16  1  0  0  0  0
 10 11  1  0  0  0  0
 11 17  1  0  0  0  0
 12 11  2  0  0  0  0
 12  2  1  0  0  0  0
 13 12  1  0  0  0  0
 14 15  1  0  0  0  0
 14 13  2  0  0  0  0
 15 10  2  0  0  0  0
 16 19  1  0  0  0  0
 18 14  1  0  0  0  0
 20 16  1  0  0  0  0
 21 22  3  0  0  0  0
 22  1  1  0  0  0  0
 24 23  1  0  0  0  0
M  END
>  <minimizedAffinity>
-4.99451208

$$$$

 OpenBabel03252508363D

 24 25  0  0  0  0  0  0  0  0999 V2000
   38.8370   28.7370   41.9370 C   0  0  0  0  0  0  0  0  0  0  0  0
   37.5730   28.9990   41.4800 C   0  0  0  0  0  0  0  0  0  0  0  0
   36.5340   28.3450   42.0800 C   0  0  0  0  0  0  0  0  0  0  0  0
   36.7040   27.4390   43.1160 C   0  0  0  0  0  0  0  0  0  0  0  0
   37.9820   27.1940   43.5560 C   0  0  0  0  0  0  0  0  0  0  0  0
   39.0610   27.8360   42.9740 C   0  0  0  0  0  0  0  0  0  0  0  0
   35.5400   28.5660   41.7030 H   0  0  0  0  0  0  0  0  0  0  0  0
   35.8360   26.9490   43.5520 H   0  0  0  0  0  0  0  0  0  0  0  0
   38.1600   26.4950   44.3610 H   0  0  0  0  0  0  0  0  0  0  0  0
   37.1310   32.2120   39.5480 C   0  0  0  0  0  0  0  0  0  0  0  0
   37.2470   31.3200   40.6310 C   0  0  0  0  0  0  0  0  0  0  0  0
   37.4480   29.9530   40.3960 C   0  0  0  0  0  0  0  0  0  0  0  0
   37.5200   29.5780   39.0880 N   0  0  0  0  0  0  0  0  0  0  0  0
   37.4080   30.4390   38.0710 C   0  0  0  0  0  0  0  0  0  0  0  0
   37.2140   31.7550   38.2950 N   0  0  0  0  0  0  0  0  0  0  0  0
   36.9300   33.5720   39.8370 N   0  0  0  0  0  0  0  0  0  0  0  0
   37.1800   31.6910   41.6430 H   0  0  0  0  0  0  0  0  0  0  0  0
   37.4840   30.0010   37.0820 H   0  0  0  0  0  0  0  0  0  0  0  0
   37.8780   33.9110   40.1230 H   0  0  0  0  0  0  0  0  0  0  0  0
   35.9230   33.8050   39.6770 H   0  0  0  0  0  0  0  0  0  0  0  0
   40.9220   29.9080   40.8870 N   0  0  0  0  0  0  0  0  0  0  0  0
   39.9910   29.3780   41.3670 C   0  0  0  0  0  0  0  0  0  0  0  0
   40.4570   27.5790   43.4430 C   0  0  0  0  0  2  0  0  0  0  0  0
   40.7630   28.3320   44.2110 H   0  0  0  0  0  0  0  0  0  0  0  0
  1  6  1  0  0  0  0
  2  1  2  0  0  0  0
  2  3  1  0  0  0  0
  3  4  2  0  0  0  0
  4  8  1  0  0  0  0
  4  5  1  0  0  0  0
  5  9  1  0  0  0  0
  6 23  1  0  0  0  0
  6  5  2  0  0  0  0
  7  3  1  0  0  0  0
 10 16  1  0  0  0  0
 10 11  1  0  0  0  0
 11 17  1  0  0  0  0
 12 11  2  0  0  0  0
 12  2  1  0  0  0  0
 13 12  1  0  0  0  0
 14 15  1  0  0  0  0
 14 13  2  0  0  0  0
 15 10  2  0  0  0  0
 16 19  1  0  0  0  0
 18 14  1  0  0  0  0
 20 16  1  0  0  0  0
 21 22  3  0  0  0  0
 22  1  1  0  0  0  0
 23 24  1  0  0  0  0
M  END
>  <minimizedAffinity>
-4.94625282

$$$$

 OpenBabel03252508363D

 24 25  0  0  0  0  0  0  0  0999 V2000
   38.6290   26.3510   41.9110 C   0  0  0  0  0  0  0  0  0  0  0  0
   37.5640   26.5500   41.0730 C   0  0  0  0  0  0  0  0  0  0  0  0
   36.7570   25.4790   40.8110 C   0  0  0  0  0  0  0  0  0  0  0  0
   36.9690   24.2190   41.3480 C   0  0  0  0  0  0  0  0  0  0  0  0
   38.0440   24.0460   42.1850 C   0  0  0  0  0  0  0  0  0  0  0  0
   38.8860   25.1050   42.4760 C   0  0  0  0  0  0  0  0  0  0  0  0
   35.9180   25.6570   40.1450 H   0  0  0  0  0  0  0  0  0  0  0  0
   36.2900   23.4050   41.1000 H   0  0  0  0  0  0  0  0  0  0  0  0
   38.2470   23.0790   42.6260 H   0  0  0  0  0  0  0  0  0  0  0  0
   36.4600   30.1330   40.6380 C   0  0  0  0  0  0  0  0  0  0  0  0
   36.6060   28.8470   41.1940 C   0  0  0  0  0  0  0  0  0  0  0  0
   37.3860   27.8850   40.5390 C   0  0  0  0  0  0  0  0  0  0  0  0
   37.9650   28.2810   39.3700 N   0  0  0  0  0  0  0  0  0  0  0  0
   37.8150   29.5070   38.8570 C   0  0  0  0  0  0  0  0  0  0  0  0
   37.0650   30.4350   39.4860 N   0  0  0  0  0  0  0  0  0  0  0  0
   35.6690   31.0620   41.3340 N   0  0  0  0  0  0  0  0  0  0  0  0
   36.1170   28.6050   42.1250 H   0  0  0  0  0  0  0  0  0  0  0  0
   38.3320   29.6840   37.9200 H   0  0  0  0  0  0  0  0  0  0  0  0
   36.2850   31.3800   42.1190 H   0  0  0  0  0  0  0  0  0  0  0  0
   34.7410   31.1380   40.8570 H   0  0  0  0  0  0  0  0  0  0  0  0
   40.2860   28.2780   42.5150 N   0  0  0  0  0  0  0  0  0  0  0  0
   39.5330   27.4190   42.2450 C   0  0  0  0  0  0  0  0  0  0  0  0
   40.0600   24.9310   43.3850 C   0  0  0  0  0  2  0  0  0  0  0  0
   39.7920   25.2030   44.4360 H   0  0  0  0  0  0  0  0  0  0  0  0
  1 22  1  0  0  0  0
  1  6  1  0  0  0  0
  2  1  2  0  0  0  0
  3  2  1  0  0  0  0
  3  4  2  0  0  0  0
  4  5  1  0  0  0  0
  5  6  2  0  0  0  0
  5  9  1  0  0  0  0
  6 23  1  0  0  0  0
  7  3  1  0  0  0  0
  8  4  1  0  0  0  0
 10 11  1  0  0  0  0
 10 16  1  0  0  0  0
 11 17  1  0  0  0  0
 12  2  1  0  0  0  0
 12 11  2  0  0  0  0
 13 12  1  0  0  0  0
 14 13  2  0  0  0  0
 14 15  1  0  0  0  0
 15 10  2  0  0  0  0
 16 19  1  0  0  0  0
 18 14  1  0  0  0  0
 20 16  1  0  0  0  0
 22 21  3  0  0  0  0
 23 24  1  0  0  0  0
M  END
>  <minimizedAffinity>
-4.79196358

$$$$

 OpenBabel03252508363D

 24 25  0  0  0  0  0  0  0  0999 V2000
   38.1440   29.3110   42.0060 C   0  0  0  0  0  0  0  0  0  0  0  0
   39.3770   29.8360   41.7240 C   0  0  0  0  0  0  0  0  0  0  0  0
   40.4690   29.2050   42.2480 C   0  0  0  0  0  0  0  0  0  0  0  0
   40.3830   28.0730   43.0430 C   0  0  0  0  0  0  0  0  0  0  0  0
   39.1340   27.5660   43.3120 C   0  0  0  0  0  0  0  0  0  0  0  0
   38.0030   28.1760   42.7990 C   0  0  0  0  0  0  0  0  0  0  0  0
   41.4380   29.6370   42.0130 H   0  0  0  0  0  0  0  0  0  0  0  0
   41.2900   27.6160   43.4320 H   0  0  0  0  0  0  0  0  0  0  0  0
   39.0210   26.6840   43.9280 H   0  0  0  0  0  0  0  0  0  0  0  0
   39.5390   32.1150   38.7190 C   0  0  0  0  0  0  0  0  0  0  0  0
   39.5060   30.9390   39.4920 C   0  0  0  0  0  0  0  0  0  0  0  0
   39.4130   31.0200   40.8880 C   0  0  0  0  0  0  0  0  0  0  0  0
   39.3610   32.2780   41.4100 N   0  0  0  0  0  0  0  0  0  0  0  0
   39.3930   33.3840   40.6600 C   0  0  0  0  0  0  0  0  0  0  0  0
   39.4820   33.3090   39.3170 N   0  0  0  0  0  0  0  0  0  0  0  0
   39.6310   31.9810   37.3230 N   0  0  0  0  0  0  0  0  0  0  0  0
   39.5510   29.9750   39.0080 H   0  0  0  0  0  0  0  0  0  0  0  0
   39.3440   34.3180   41.2090 H   0  0  0  0  0  0  0  0  0  0  0  0
   38.6610   31.7160   37.0320 H   0  0  0  0  0  0  0  0  0  0  0  0
   40.6140   32.1830   37.0300 H   0  0  0  0  0  0  0  0  0  0  0  0
   35.9570   30.3860   41.0650 N   0  0  0  0  0  0  0  0  0  0  0  0
   36.9380   29.9070   41.4980 C   0  0  0  0  0  0  0  0  0  0  0  0
   36.6380   27.6350   43.0830 C   0  0  0  0  0  2  0  0  0  0  0  0
   36.3090   26.9420   42.2690 H   0  0  0  0  0  0  0  0  0  0  0  0
  1  6  1  0  0  0  0
  2  1  2  0  0  0  0
  2  3  1  0  0  0  0
  3  4  2  0  0  0  0
  4  5  1  0  0  0  0
  4  8  1  0  0  0  0
  5  9  1  0  0  0  0
  6 23  1  0  0  0  0
  6  5  2  0  0  0  0
  7  3  1  0  0  0  0
 10 15  2  0  0  0  0
 10 11  1  0  0  0  0
 11 12  2  0  0  0  0
 12 13  1  0  0  0  0
 12  2  1  0  0  0  0
 14 18  1  0  0  0  0
 14 13  2  0  0  0  0
 15 14  1  0  0  0  0
 16 10  1  0  0  0  0
 17 11  1  0  0  0  0
 19 16  1  0  0  0  0
 20 16  1  0  0  0  0
 21 22  3  0  0  0  0
 22  1  1  0  0  0  0
 24 23  1  0  0  0  0
M  END
>  <minimizedAffinity>
-4.78596687

$$$$

 OpenBabel03252508363D

 24 25  0  0  0  0  0  0  0  0999 V2000
   36.8070   25.9720   39.8630 C   0  0  0  0  0  0  0  0  0  0  0  0
   37.1410   26.5370   41.0650 C   0  0  0  0  0  0  0  0  0  0  0  0
   37.1850   25.7190   42.1580 C   0  0  0  0  0  0  0  0  0  0  0  0
   36.9090   24.3620   42.1040 C   0  0  0  0  0  0  0  0  0  0  0  0
   36.5760   23.8190   40.8870 C   0  0  0  0  0  0  0  0  0  0  0  0
   36.5200   24.6130   39.7550 C   0  0  0  0  0  0  0  0  0  0  0  0
   37.4530   26.1870   43.1020 H   0  0  0  0  0  0  0  0  0  0  0  0
   36.9610   23.7640   43.0110 H   0  0  0  0  0  0  0  0  0  0  0  0
   36.3520   22.7650   40.7990 H   0  0  0  0  0  0  0  0  0  0  0  0
   36.7230   30.2860   41.2020 C   0  0  0  0  0  0  0  0  0  0  0  0
   36.4050   28.9140   41.2030 C   0  0  0  0  0  0  0  0  0  0  0  0
   37.4210   27.9590   41.0690 C   0  0  0  0  0  0  0  0  0  0  0  0
   38.6870   28.4480   40.9430 N   0  0  0  0  0  0  0  0  0  0  0  0
   38.9710   29.7550   40.9440 C   0  0  0  0  0  0  0  0  0  0  0  0
   37.9940   30.6770   41.0720 N   0  0  0  0  0  0  0  0  0  0  0  0
   35.6690   31.2040   41.3400 N   0  0  0  0  0  0  0  0  0  0  0  0
   35.3780   28.6000   41.3080 H   0  0  0  0  0  0  0  0  0  0  0  0
   40.0210   30.0020   40.8350 H   0  0  0  0  0  0  0  0  0  0  0  0
   35.4390   31.1720   42.3610 H   0  0  0  0  0  0  0  0  0  0  0  0
   35.4550   31.6150   40.4020 H   0  0  0  0  0  0  0  0  0  0  0  0
   36.6580   27.3980   37.6800 N   0  0  0  0  0  0  0  0  0  0  0  0
   36.7350   26.7530   38.6580 C   0  0  0  0  0  0  0  0  0  0  0  0
   36.1590   24.0360   38.4230 C   0  0  0  0  0  2  0  0  0  0  0  0
   37.0770   23.7500   37.8530 H   0  0  0  0  0  0  0  0  0  0  0  0
  1  2  1  0  0  0  0
  2 12  1  0  0  0  0
  2  3  2  0  0  0  0
  3  7  1  0  0  0  0
  4  3  1  0  0  0  0
  4  8  1  0  0  0  0
  5  4  2  0  0  0  0
  6  1  2  0  0  0  0
  6  5  1  0  0  0  0
  9  5  1  0  0  0  0
 10 11  1  0  0  0  0
 10 16  1  0  0  0  0
 11 17  1  0  0  0  0
 12 11  2  0  0  0  0
 13 14  2  0  0  0  0
 13 12  1  0  0  0  0
 14 15  1  0  0  0  0
 15 10  2  0  0  0  0
 16 19  1  0  0  0  0
 18 14  1  0  0  0  0
 20 16  1  0  0  0  0
 21 22  3  0  0  0  0
 22  1  1  0  0  0  0
 23  6  1  0  0  0  0
 24 23  1  0  0  0  0
M  END
>  <minimizedAffinity>
-4.78081417

$$$$

 OpenBabel03252508363D

 24 25  0  0  0  0  0  0  0  0999 V2000
   38.3570   26.0730   41.4280 C   0  0  0  0  0  0  0  0  0  0  0  0
   38.7860   27.2570   41.9660 C   0  0  0  0  0  0  0  0  0  0  0  0
   39.5750   27.1960   43.0800 C   0  0  0  0  0  0  0  0  0  0  0  0
   39.9520   26.0040   43.6800 C   0  0  0  0  0  0  0  0  0  0  0  0
   39.5080   24.8310   43.1200 C   0  0  0  0  0  0  0  0  0  0  0  0
   38.7080   24.8500   41.9910 C   0  0  0  0  0  0  0  0  0  0  0  0
   39.9050   28.1450   43.4920 H   0  0  0  0  0  0  0  0  0  0  0  0
   40.5820   26.0220   44.5670 H   0  0  0  0  0  0  0  0  0  0  0  0
   39.7790   23.8780   43.5550 H   0  0  0  0  0  0  0  0  0  0  0  0
   36.8300   30.3390   41.0070 C   0  0  0  0  0  0  0  0  0  0  0  0
   37.2020   29.1590   41.6790 C   0  0  0  0  0  0  0  0  0  0  0  0
   38.3650   28.4740   41.3030 C   0  0  0  0  0  0  0  0  0  0  0  0
   39.0740   29.0230   40.2770 N   0  0  0  0  0  0  0  0  0  0  0  0
   38.7060   30.1450   39.6490 C   0  0  0  0  0  0  0  0  0  0  0  0
   37.5870   30.8060   40.0090 N   0  0  0  0  0  0  0  0  0  0  0  0
   35.6550   30.9890   41.4220 N   0  0  0  0  0  0  0  0  0  0  0  0
   36.5890   28.7830   42.4850 H   0  0  0  0  0  0  0  0  0  0  0  0
   39.3650   30.4670   38.8500 H   0  0  0  0  0  0  0  0  0  0  0  0
   35.9370   31.4790   42.3030 H   0  0  0  0  0  0  0  0  0  0  0  0
   34.8940   30.7790   40.7350 H   0  0  0  0  0  0  0  0  0  0  0  0
   36.8580   26.0170   39.2900 N   0  0  0  0  0  0  0  0  0  0  0  0
   37.5230   26.0390   40.2570 C   0  0  0  0  0  0  0  0  0  0  0  0
   38.2170   23.5800   41.3710 C   0  0  0  0  0  2  0  0  0  0  0  0
   38.9030   23.2470   40.5530 H   0  0  0  0  0  0  0  0  0  0  0  0
  1  2  2  0  0  0  0
  1  6  1  0  0  0  0
  2  3  1  0  0  0  0
  3  7  1  0  0  0  0
  3  4  2  0  0  0  0
  4  8  1  0  0  0  0
  5  9  1  0  0  0  0
  5  4  1  0  0  0  0
  6  5  2  0  0  0  0
 10 16  1  0  0  0  0
 10 11  1  0  0  0  0
 11 17  1  0  0  0  0
 12 11  2  0  0  0  0
 12  2  1  0  0  0  0
 13 12  1  0  0  0  0
 14 15  1  0  0  0  0
 14 13  2  0  0  0  0
 15 10  2  0  0  0  0
 16 19  1  0  0  0  0
 18 14  1  0  0  0  0
 20 16  1  0  0  0  0
 21 22  3  0  0  0  0
 22  1  1  0  0  0  0
 23  6  1  0  0  0  0
 24 23  1  0  0  0  0
M  END
>  <minimizedAffinity>
-4.75618792

$$$$

 OpenBabel03252508363D

 24 25  0  0  0  0  0  0  0  0999 V2000
   38.5290   29.3220   41.8430 C   0  0  0  0  0  0  0  0  0  0  0  0
   37.8550   30.0860   40.9290 C   0  0  0  0  0  0  0  0  0  0  0  0
   36.5640   29.7420   40.6450 C   0  0  0  0  0  0  0  0  0  0  0  0
   35.9170   28.6670   41.2350 C   0  0  0  0  0  0  0  0  0  0  0  0
   36.6150   27.9170   42.1490 C   0  0  0  0  0  0  0  0  0  0  0  0
   37.9250   28.2320   42.4640 C   0  0  0  0  0  0  0  0  0  0  0  0
   36.0460   30.3600   39.9170 H   0  0  0  0  0  0  0  0  0  0  0  0
   34.8860   28.4430   40.9660 H   0  0  0  0  0  0  0  0  0  0  0  0
   36.1490   27.0690   42.6330 H   0  0  0  0  0  0  0  0  0  0  0  0
   39.6700   32.3000   38.4670 C   0  0  0  0  0  0  0  0  0  0  0  0
   38.9720   31.1970   38.9970 C   0  0  0  0  0  0  0  0  0  0  0  0
   38.5740   31.1980   40.3410 C   0  0  0  0  0  0  0  0  0  0  0  0
   38.9060   32.3080   41.0590 N   0  0  0  0  0  0  0  0  0  0  0  0
   39.5690   33.3470   40.5400 C   0  0  0  0  0  0  0  0  0  0  0  0
   39.9530   33.3480   39.2470 N   0  0  0  0  0  0  0  0  0  0  0  0
   40.0460   32.2500   37.1150 N   0  0  0  0  0  0  0  0  0  0  0  0
   38.7440   30.3520   38.3660 H   0  0  0  0  0  0  0  0  0  0  0  0
   39.7650   34.1620   41.2270 H   0  0  0  0  0  0  0  0  0  0  0  0
   39.1580   32.4570   36.5990 H   0  0  0  0  0  0  0  0  0  0  0  0
   41.0660   32.0280   37.0570 H   0  0  0  0  0  0  0  0  0  0  0  0
   40.9980   29.8610   42.5020 N   0  0  0  0  0  0  0  0  0  0  0  0
   39.8900   29.6080   42.2050 C   0  0  0  0  0  0  0  0  0  0  0  0
   38.6960   27.4240   43.4580 C   0  0  0  0  0  2  0  0  0  0  0  0
   38.6230   27.8740   44.4790 H   0  0  0  0  0  0  0  0  0  0  0  0
  1 22  1  0  0  0  0
  1  6  1  0  0  0  0
  2  1  2  0  0  0  0
  3  2  1  0  0  0  0
  3  4  2  0  0  0  0
  4  5  1  0  0  0  0
  5  6  2  0  0  0  0
  5  9  1  0  0  0  0
  6 23  1  0  0  0  0
  7  3  1  0  0  0  0
  8  4  1  0  0  0  0
 10 11  2  0  0  0  0
 10 15  1  0  0  0  0
 11 12  1  0  0  0  0
 12  2  1  0  0  0  0
 12 13  2  0  0  0  0
 14 13  1  0  0  0  0
 14 18  1  0  0  0  0
 15 14  2  0  0  0  0
 16 10  1  0  0  0  0
 17 11  1  0  0  0  0
 19 16  1  0  0  0  0
 20 16  1  0  0  0  0
 22 21  3  0  0  0  0
 23 24  1  0  0  0  0
M  END
>  <minimizedAffinity>
-4.68696404

$$$$

 OpenBabel03252508363D

 24 25  0  0  0  0  0  0  0  0999 V2000
   36.7050   27.6380   41.2220 C   0  0  0  0  0  0  0  0  0  0  0  0
   36.5640   26.9460   40.0490 C   0  0  0  0  0  0  0  0  0  0  0  0
   36.7000   25.5880   40.0940 C   0  0  0  0  0  0  0  0  0  0  0  0
   36.9720   24.8900   41.2610 C   0  0  0  0  0  0  0  0  0  0  0  0
   37.1100   25.6080   42.4250 C   0  0  0  0  0  0  0  0  0  0  0  0
   36.9790   26.9850   42.4210 C   0  0  0  0  0  0  0  0  0  0  0  0
   36.5840   25.0570   39.1540 H   0  0  0  0  0  0  0  0  0  0  0  0
   37.0700   23.8070   41.2330 H   0  0  0  0  0  0  0  0  0  0  0  0
   37.3230   25.1040   43.3580 H   0  0  0  0  0  0  0  0  0  0  0  0
   36.9370   28.7300   36.7430 C   0  0  0  0  0  0  0  0  0  0  0  0
   37.2570   27.9720   37.8860 C   0  0  0  0  0  0  0  0  0  0  0  0
   36.2790   27.7200   38.8570 C   0  0  0  0  0  0  0  0  0  0  0  0
   35.0470   28.2480   38.6130 N   0  0  0  0  0  0  0  0  0  0  0  0
   34.7600   28.9650   37.5210 C   0  0  0  0  0  0  0  0  0  0  0  0
   35.6990   29.2090   36.5850 N   0  0  0  0  0  0  0  0  0  0  0  0
   37.9520   28.9540   35.7980 N   0  0  0  0  0  0  0  0  0  0  0  0
   38.2570   27.5860   38.0120 H   0  0  0  0  0  0  0  0  0  0  0  0
   33.7380   29.3230   37.4570 H   0  0  0  0  0  0  0  0  0  0  0  0
   38.0190   28.0460   35.2810 H   0  0  0  0  0  0  0  0  0  0  0  0
   38.3070   29.9310   35.9110 H   0  0  0  0  0  0  0  0  0  0  0  0
   36.4750   30.2370   41.3310 N   0  0  0  0  0  0  0  0  0  0  0  0
   36.5790   29.0690   41.2710 C   0  0  0  0  0  0  0  0  0  0  0  0
   37.1260   27.7790   43.6800 C   0  0  0  0  0  2  0  0  0  0  0  0
   36.1300   27.9520   44.1580 H   0  0  0  0  0  0  0  0  0  0  0  0
  1 22  1  0  0  0  0
  1  6  1  0  0  0  0
  2  3  1  0  0  0  0
  2  1  2  0  0  0  0
  3  4  2  0  0  0  0
  4  5  1  0  0  0  0
  5  9  1  0  0  0  0
  6  5  2  0  0  0  0
  6 23  1  0  0  0  0
  7  3  1  0  0  0  0
  8  4  1  0  0  0  0
 10 11  1  0  0  0  0
 11 17  1  0  0  0  0
 11 12  2  0  0  0  0
 12  2  1  0  0  0  0
 13 12  1  0  0  0  0
 14 13  2  0  0  0  0
 15 10  2  0  0  0  0
 15 14  1  0  0  0  0
 16 20  1  0  0  0  0
 16 10  1  0  0  0  0
 18 14  1  0  0  0  0
 19 16  1  0  0  0  0
 22 21  3  0  0  0  0
 23 24  1  0  0  0  0
M  END
>  <minimizedAffinity>
-4.65215921

$$$$
