
 OpenBabel03242518583D

 25 27  0  0  1  0  0  0  0  0999 V2000
   39.5140   30.4390   41.4100 C   0  0  1  0  0  0  0  0  0  0  0  0
   40.4140   30.5430   42.6700 C   0  0  0  0  0  0  0  0  0  0  0  0
   39.0710   29.9200   42.6860 C   0  0  2  0  0  0  0  0  0  0  0  0
   39.8910   29.7340   40.6300 H   0  0  0  0  0  0  0  0  0  0  0  0
   40.5630   31.5480   43.1090 H   0  0  0  0  0  0  0  0  0  0  0  0
   41.3330   29.9270   42.6030 H   0  0  0  0  0  0  0  0  0  0  0  0
   38.3300   30.4790   43.3290 H   0  0  0  0  0  0  0  0  0  0  0  0
   39.1120   31.7600   40.8730 C   0  0  0  0  0  0  0  0  0  0  0  0
   37.7770   31.9110   40.4450 C   0  0  0  0  0  0  0  0  0  0  0  0
   37.3670   33.1570   39.9320 C   0  0  0  0  0  0  0  0  0  0  0  0
   38.3140   34.1600   39.8850 N   0  0  0  0  0  0  0  0  0  0  0  0
   39.5850   33.9550   40.3130 C   0  0  0  0  0  0  0  0  0  0  0  0
   39.9830   32.7640   40.8050 N   0  0  0  0  0  0  0  0  0  0  0  0
   37.0470   31.1260   40.4860 H   0  0  0  0  0  0  0  0  0  0  0  0
   36.3630   33.3560   39.5840 H   0  0  0  0  0  0  0  0  0  0  0  0
   40.2480   34.8230   40.2280 H   0  0  0  0  0  0  0  0  0  0  0  0
   37.7560   28.0620   43.6200 C   0  0  2  0  0  3  0  0  0  0  0  0
   39.0320   28.4340   42.9010 C   0  0  1  0  0  3  0  0  0  0  0  0
   38.9130   27.6750   41.6000 C   0  0  0  0  0  3  0  0  0  0  0  0
   39.6580   26.8500   41.5660 H   0  0  0  0  0  0  0  0  0  0  0  0
   37.6430   27.1600   41.5120 O   0  0  0  0  0  0  0  0  0  0  0  0
   37.1950   26.9260   42.8050 C   0  0  0  0  0  3  0  0  0  0  0  0
   36.0720   26.9930   42.7400 H   0  0  0  0  0  0  0  0  0  0  0  0
   36.8320   29.0940   43.5980 O   0  0  0  0  0  0  0  0  0  0  0  0
   36.3080   29.0750   42.7650 H   0  0  0  0  0  0  0  0  0  0  0  0
  1  4  1  6  0  0  0
  1  2  1  0  0  0  0
  1  3  1  0  0  0  0
  2  3  1  0  0  0  0
  2  5  1  0  0  0  0
  3 18  1  0  0  0  0
  3  7  1  1  0  0  0
  6  2  1  0  0  0  0
  8  1  1  0  0  0  0
  9 14  1  0  0  0  0
  9  8  2  0  0  0  0
 10  9  1  0  0  0  0
 11 10  2  0  0  0  0
 11 12  1  0  0  0  0
 12 13  2  0  0  0  0
 13  8  1  0  0  0  0
 15 10  1  0  0  0  0
 16 12  1  0  0  0  0
 17 24  1  6  0  0  0
 18 19  1  6  0  0  0
 18 17  1  0  0  0  0
 20 19  1  0  0  0  0
 21 19  1  0  0  0  0
 21 22  1  0  0  0  0
 22 17  1  0  0  0  0
 23 22  1  0  0  0  0
 25 24  1  0  0  0  0
M  END
>  <minimizedAffinity>
-4.64948463

$$$$

 OpenBabel03242518583D

 25 27  0  0  1  0  0  0  0  0999 V2000
   37.8100   30.3470   40.2110 C   0  0  1  0  0  0  0  0  0  0  0  0
   36.5660   31.2570   40.0200 C   0  0  0  0  0  0  0  0  0  0  0  0
   37.8870   31.7720   40.4490 C   0  0  2  0  0  0  0  0  0  0  0  0
   38.2220   29.9240   39.2630 H   0  0  0  0  0  0  0  0  0  0  0  0
   35.7460   31.1600   40.7540 H   0  0  0  0  0  0  0  0  0  0  0  0
   36.2360   31.3300   38.9640 H   0  0  0  0  0  0  0  0  0  0  0  0
   37.8780   32.2010   41.4940 H   0  0  0  0  0  0  0  0  0  0  0  0
   37.6320   29.3410   41.2830 C   0  0  0  0  0  0  0  0  0  0  0  0
   37.1320   28.0750   40.9130 C   0  0  0  0  0  0  0  0  0  0  0  0
   36.9550   27.0970   41.9110 C   0  0  0  0  0  0  0  0  0  0  0  0
   37.2900   27.4510   43.2030 N   0  0  0  0  0  0  0  0  0  0  0  0
   37.7700   28.6860   43.4990 C   0  0  0  0  0  0  0  0  0  0  0  0
   37.9400   29.6250   42.5460 N   0  0  0  0  0  0  0  0  0  0  0  0
   36.8740   27.8090   39.9060 H   0  0  0  0  0  0  0  0  0  0  0  0
   36.5780   26.1050   41.7120 H   0  0  0  0  0  0  0  0  0  0  0  0
   38.0010   28.8520   44.5560 H   0  0  0  0  0  0  0  0  0  0  0  0
   38.9500   33.9650   40.1130 C   0  0  2  0  0  3  0  0  0  0  0  0
   38.6110   32.6440   39.4630 C   0  0  1  0  0  3  0  0  0  0  0  0
   39.9710   32.0890   39.1080 C   0  0  0  0  0  3  0  0  0  0  0  0
   40.1110   32.0910   38.0050 H   0  0  0  0  0  0  0  0  0  0  0  0
   40.9290   32.8770   39.7000 O   0  0  0  0  0  0  0  0  0  0  0  0
   40.4120   34.1610   39.8030 C   0  0  0  0  0  3  0  0  0  0  0  0
   40.9510   34.6220   40.6780 H   0  0  0  0  0  0  0  0  0  0  0  0
   38.8150   33.9130   41.4900 O   0  0  0  0  0  0  0  0  0  0  0  0
   39.6320   33.5560   41.9080 H   0  0  0  0  0  0  0  0  0  0  0  0
  1  4  1  6  0  0  0
  1  3  1  0  0  0  0
  1  8  1  0  0  0  0
  2  1  1  0  0  0  0
  2  3  1  0  0  0  0
  2  5  1  0  0  0  0
  3  7  1  1  0  0  0
  6  2  1  0  0  0  0
  8 13  1  0  0  0  0
  9  8  2  0  0  0  0
  9 10  1  0  0  0  0
 10 11  2  0  0  0  0
 11 12  1  0  0  0  0
 12 16  1  0  0  0  0
 13 12  2  0  0  0  0
 14  9  1  0  0  0  0
 15 10  1  0  0  0  0
 17 24  1  1  0  0  0
 18 19  1  1  0  0  0
 18 17  1  0  0  0  0
 18  3  1  0  0  0  0
 19 21  1  0  0  0  0
 20 19  1  0  0  0  0
 21 22  1  0  0  0  0
 22 17  1  0  0  0  0
 22 23  1  0  0  0  0
 24 25  1  0  0  0  0
M  END
>  <minimizedAffinity>
-4.45472765

$$$$

 OpenBabel03242518583D

 25 27  0  0  1  0  0  0  0  0999 V2000
   37.3970   26.9400   42.0540 C   0  0  1  0  0  0  0  0  0  0  0  0
   36.3250   27.2290   43.1390 C   0  0  0  0  0  0  0  0  0  0  0  0
   36.8710   28.2740   42.2420 C   0  0  2  0  0  0  0  0  0  0  0  0
   37.0330   26.3200   41.1990 H   0  0  0  0  0  0  0  0  0  0  0  0
   36.6450   27.1860   44.1970 H   0  0  0  0  0  0  0  0  0  0  0  0
   35.3500   26.7460   42.9300 H   0  0  0  0  0  0  0  0  0  0  0  0
   37.4540   29.0700   42.7920 H   0  0  0  0  0  0  0  0  0  0  0  0
   38.6830   26.4730   42.6210 C   0  0  0  0  0  0  0  0  0  0  0  0
   39.5670   27.4500   43.1250 C   0  0  0  0  0  0  0  0  0  0  0  0
   40.7960   27.0350   43.6720 C   0  0  0  0  0  0  0  0  0  0  0  0
   41.0550   25.6790   43.6780 N   0  0  0  0  0  0  0  0  0  0  0  0
   40.1640   24.7840   43.1800 C   0  0  0  0  0  0  0  0  0  0  0  0
   38.9860   25.1770   42.6550 N   0  0  0  0  0  0  0  0  0  0  0  0
   39.3570   28.5030   43.1150 H   0  0  0  0  0  0  0  0  0  0  0  0
   41.5280   27.7180   44.0770 H   0  0  0  0  0  0  0  0  0  0  0  0
   40.4780   23.7370   43.2400 H   0  0  0  0  0  0  0  0  0  0  0  0
   36.2720   30.2850   40.9570 C   0  0  2  0  0  3  0  0  0  0  0  0
   35.9200   28.8400   41.2260 C   0  0  1  0  0  3  0  0  0  0  0  0
   36.0930   28.1980   39.8690 C   0  0  0  0  0  3  0  0  0  0  0  0
   35.1040   27.8990   39.4570 H   0  0  0  0  0  0  0  0  0  0  0  0
   36.6920   29.1070   39.0320 O   0  0  0  0  0  0  0  0  0  0  0  0
   36.3180   30.3750   39.4540 C   0  0  0  0  0  3  0  0  0  0  0  0
   37.1540   31.0510   39.1160 H   0  0  0  0  0  0  0  0  0  0  0  0
   37.5290   30.6080   41.4380 O   0  0  0  0  0  0  0  0  0  0  0  0
   38.2250   30.3700   40.7840 H   0  0  0  0  0  0  0  0  0  0  0  0
  1  4  1  6  0  0  0
  1  3  1  0  0  0  0
  1  8  1  0  0  0  0
  1  2  1  0  0  0  0
  2  5  1  0  0  0  0
  3  7  1  1  0  0  0
  3  2  1  0  0  0  0
  6  2  1  0  0  0  0
  8 13  2  0  0  0  0
  8  9  1  0  0  0  0
  9 10  2  0  0  0  0
 10 11  1  0  0  0  0
 10 15  1  0  0  0  0
 12 16  1  0  0  0  0
 12 11  2  0  0  0  0
 13 12  1  0  0  0  0
 14  9  1  0  0  0  0
 17 18  1  0  0  0  0
 17 24  1  1  0  0  0
 18 19  1  6  0  0  0
 18  3  1  0  0  0  0
 20 19  1  0  0  0  0
 21 22  1  0  0  0  0
 21 19  1  0  0  0  0
 22 17  1  0  0  0  0
 23 22  1  0  0  0  0
 25 24  1  0  0  0  0
M  END
>  <minimizedAffinity>
-4.35484028

$$$$

 OpenBabel03242518583D

 25 27  0  0  1  0  0  0  0  0999 V2000
   39.7290   29.7110   41.2750 C   0  0  1  0  0  0  0  0  0  0  0  0
   40.7850   29.5940   42.4060 C   0  0  0  0  0  0  0  0  0  0  0  0
   39.3340   29.4000   42.6320 C   0  0  2  0  0  0  0  0  0  0  0  0
   39.7740   28.8950   40.5140 H   0  0  0  0  0  0  0  0  0  0  0  0
   41.2770   30.5250   42.7430 H   0  0  0  0  0  0  0  0  0  0  0  0
   41.4670   28.7290   42.2800 H   0  0  0  0  0  0  0  0  0  0  0  0
   38.8830   30.1800   43.3130 H   0  0  0  0  0  0  0  0  0  0  0  0
   39.6580   31.0690   40.6870 C   0  0  0  0  0  0  0  0  0  0  0  0
   40.4000   31.3100   39.5120 C   0  0  0  0  0  0  0  0  0  0  0  0
   40.3500   32.5910   38.9290 C   0  0  0  0  0  0  0  0  0  0  0  0
   39.5640   33.5370   39.5580 N   0  0  0  0  0  0  0  0  0  0  0  0
   38.8700   33.2450   40.6870 C   0  0  0  0  0  0  0  0  0  0  0  0
   38.9150   32.0200   41.2480 N   0  0  0  0  0  0  0  0  0  0  0  0
   41.0090   30.5690   39.0310 H   0  0  0  0  0  0  0  0  0  0  0  0
   40.8880   32.8580   38.0310 H   0  0  0  0  0  0  0  0  0  0  0  0
   38.2810   34.0740   41.0950 H   0  0  0  0  0  0  0  0  0  0  0  0
   37.5640   28.0510   43.6800 C   0  0  2  0  0  3  0  0  0  0  0  0
   38.8950   28.0030   42.9670 C   0  0  1  0  0  3  0  0  0  0  0  0
   38.5820   27.1950   41.7300 C   0  0  0  0  0  3  0  0  0  0  0  0
   39.0770   26.2000   41.7850 H   0  0  0  0  0  0  0  0  0  0  0  0
   37.2200   27.0330   41.6510 O   0  0  0  0  0  0  0  0  0  0  0  0
   36.7200   27.0410   42.9460 C   0  0  0  0  0  3  0  0  0  0  0  0
   35.6570   27.4000   42.8450 H   0  0  0  0  0  0  0  0  0  0  0  0
   36.9520   29.2860   43.5480 O   0  0  0  0  0  0  0  0  0  0  0  0
   36.4450   29.3370   42.7060 H   0  0  0  0  0  0  0  0  0  0  0  0
  1  4  1  6  0  0  0
  1  2  1  0  0  0  0
  1  3  1  0  0  0  0
  2  3  1  0  0  0  0
  2  5  1  0  0  0  0
  3 18  1  0  0  0  0
  3  7  1  1  0  0  0
  6  2  1  0  0  0  0
  8 13  1  0  0  0  0
  8  1  1  0  0  0  0
  9  8  2  0  0  0  0
 10  9  1  0  0  0  0
 10 11  2  0  0  0  0
 11 12  1  0  0  0  0
 12 16  1  0  0  0  0
 12 13  2  0  0  0  0
 14  9  1  0  0  0  0
 15 10  1  0  0  0  0
 17 24  1  6  0  0  0
 18 19  1  6  0  0  0
 18 17  1  0  0  0  0
 19 20  1  0  0  0  0
 21 19  1  0  0  0  0
 21 22  1  0  0  0  0
 22 17  1  0  0  0  0
 23 22  1  0  0  0  0
 25 24  1  0  0  0  0
M  END
>  <minimizedAffinity>
-4.3128581

$$$$

 OpenBabel03242518583D

 25 27  0  0  1  0  0  0  0  0999 V2000
   38.5110   32.5270   40.0320 C   0  0  1  0  0  0  0  0  0  0  0  0
   37.1860   33.1420   39.5080 C   0  0  0  0  0  0  0  0  0  0  0  0
   37.3910   31.6840   39.6740 C   0  0  2  0  0  0  0  0  0  0  0  0
   38.7220   32.7350   41.1090 H   0  0  0  0  0  0  0  0  0  0  0  0
   37.1960   33.5890   38.4960 H   0  0  0  0  0  0  0  0  0  0  0  0
   36.6470   33.7370   40.2710 H   0  0  0  0  0  0  0  0  0  0  0  0
   37.3630   31.1180   38.6970 H   0  0  0  0  0  0  0  0  0  0  0  0
   39.6640   32.7890   39.1400 C   0  0  0  0  0  0  0  0  0  0  0  0
   40.4910   33.8900   39.4480 C   0  0  0  0  0  0  0  0  0  0  0  0
   41.5960   34.1610   38.6190 C   0  0  0  0  0  0  0  0  0  0  0  0
   41.7980   33.3160   37.5460 N   0  0  0  0  0  0  0  0  0  0  0  0
   40.9690   32.2700   37.3000 C   0  0  0  0  0  0  0  0  0  0  0  0
   39.9100   32.0070   38.0910 N   0  0  0  0  0  0  0  0  0  0  0  0
   40.3260   34.5410   40.2850 H   0  0  0  0  0  0  0  0  0  0  0  0
   42.2770   34.9830   38.7850 H   0  0  0  0  0  0  0  0  0  0  0  0
   41.2280   31.6700   36.4220 H   0  0  0  0  0  0  0  0  0  0  0  0
   35.6360   30.0260   40.1470 C   0  0  2  0  0  3  0  0  0  0  0  0
   36.5930   31.0220   40.7600 C   0  0  1  0  0  3  0  0  0  0  0  0
   37.4540   30.1520   41.6470 C   0  0  0  0  0  3  0  0  0  0  0  0
   37.2420   30.3670   42.7180 H   0  0  0  0  0  0  0  0  0  0  0  0
   37.1720   28.8370   41.3700 O   0  0  0  0  0  0  0  0  0  0  0  0
   35.8500   28.7700   40.9510 C   0  0  0  0  0  3  0  0  0  0  0  0
   35.8000   27.8570   40.2930 H   0  0  0  0  0  0  0  0  0  0  0  0
   35.9590   29.7440   38.8300 O   0  0  0  0  0  0  0  0  0  0  0  0
   36.6430   29.0390   38.7820 H   0  0  0  0  0  0  0  0  0  0  0  0
  1  4  1  1  0  0  0
  2  3  1  0  0  0  0
  2  1  1  0  0  0  0
  2  6  1  0  0  0  0
  3  7  1  6  0  0  0
  3  1  1  0  0  0  0
  3 18  1  0  0  0  0
  5  2  1  0  0  0  0
  8  9  1  0  0  0  0
  8  1  1  0  0  0  0
  9 14  1  0  0  0  0
 10 15  1  0  0  0  0
 10  9  2  0  0  0  0
 11 10  1  0  0  0  0
 12 11  2  0  0  0  0
 12 13  1  0  0  0  0
 13  8  2  0  0  0  0
 16 12  1  0  0  0  0
 17 24  1  6  0  0  0
 17 18  1  0  0  0  0
 17 22  1  0  0  0  0
 18 19  1  1  0  0  0
 19 20  1  0  0  0  0
 21 19  1  0  0  0  0
 22 21  1  0  0  0  0
 23 22  1  0  0  0  0
 25 24  1  0  0  0  0
M  END
>  <minimizedAffinity>
-4.28786087

$$$$

 OpenBabel03242518583D

 25 27  0  0  1  0  0  0  0  0999 V2000
   37.1370   27.1360   41.9600 C   0  0  1  0  0  0  0  0  0  0  0  0
   36.5500   27.2680   43.3920 C   0  0  0  0  0  0  0  0  0  0  0  0
   37.7980   27.9420   42.9640 C   0  0  2  0  0  0  0  0  0  0  0  0
   36.5310   27.6340   41.1650 H   0  0  0  0  0  0  0  0  0  0  0  0
   36.6000   26.3780   44.0470 H   0  0  0  0  0  0  0  0  0  0  0  0
   35.5850   27.8110   43.4200 H   0  0  0  0  0  0  0  0  0  0  0  0
   38.7130   27.5730   43.5140 H   0  0  0  0  0  0  0  0  0  0  0  0
   37.5350   25.7500   41.6230 C   0  0  0  0  0  0  0  0  0  0  0  0
   36.6760   25.0110   40.7830 C   0  0  0  0  0  0  0  0  0  0  0  0
   37.0310   23.6910   40.4430 C   0  0  0  0  0  0  0  0  0  0  0  0
   38.2130   23.2050   40.9630 N   0  0  0  0  0  0  0  0  0  0  0  0
   39.0010   23.9640   41.7650 C   0  0  0  0  0  0  0  0  0  0  0  0
   38.6660   25.2280   42.0930 N   0  0  0  0  0  0  0  0  0  0  0  0
   35.7580   25.3970   40.3840 H   0  0  0  0  0  0  0  0  0  0  0  0
   36.4290   23.0580   39.8070 H   0  0  0  0  0  0  0  0  0  0  0  0
   39.9150   23.4730   42.1170 H   0  0  0  0  0  0  0  0  0  0  0  0
   39.1440   29.9920   42.7610 C   0  0  2  0  0  3  0  0  0  0  0  0
   37.7400   29.4390   42.8590 C   0  0  1  0  0  3  0  0  0  0  0  0
   37.1140   29.8930   41.5600 C   0  0  0  0  0  3  0  0  0  0  0  0
   36.3450   30.6720   41.7570 H   0  0  0  0  0  0  0  0  0  0  0  0
   38.1030   30.4060   40.7570 O   0  0  0  0  0  0  0  0  0  0  0  0
   39.0850   30.9320   41.5850 C   0  0  0  0  0  3  0  0  0  0  0  0
   40.0340   30.8790   40.9800 H   0  0  0  0  0  0  0  0  0  0  0  0
   40.0680   29.0040   42.4660 O   0  0  0  0  0  0  0  0  0  0  0  0
   40.1160   28.8500   41.4950 H   0  0  0  0  0  0  0  0  0  0  0  0
  1  4  1  6  0  0  0
  1  3  1  0  0  0  0
  1  2  1  0  0  0  0
  2  6  1  0  0  0  0
  2  5  1  0  0  0  0
  3  2  1  0  0  0  0
  3  7  1  1  0  0  0
  8  1  1  0  0  0  0
  8 13  1  0  0  0  0
  9  8  2  0  0  0  0
 10  9  1  0  0  0  0
 10 11  2  0  0  0  0
 11 12  1  0  0  0  0
 12 13  2  0  0  0  0
 12 16  1  0  0  0  0
 14  9  1  0  0  0  0
 15 10  1  0  0  0  0
 17 24  1  6  0  0  0
 17 18  1  0  0  0  0
 18 19  1  6  0  0  0
 18  3  1  0  0  0  0
 19 20  1  0  0  0  0
 21 19  1  0  0  0  0
 21 22  1  0  0  0  0
 22 17  1  0  0  0  0
 23 22  1  0  0  0  0
 25 24  1  0  0  0  0
M  END
>  <minimizedAffinity>
-4.27304888

$$$$

 OpenBabel03242518583D

 25 27  0  0  1  0  0  0  0  0999 V2000
   36.7540   29.5950   40.9330 C   0  0  1  0  0  0  0  0  0  0  0  0
   35.3850   28.8700   40.8280 C   0  0  0  0  0  0  0  0  0  0  0  0
   36.6700   28.1520   40.9930 C   0  0  2  0  0  0  0  0  0  0  0  0
   36.8970   30.1780   41.8740 H   0  0  0  0  0  0  0  0  0  0  0  0
   34.8780   28.8760   39.8460 H   0  0  0  0  0  0  0  0  0  0  0  0
   34.7210   29.0630   41.6940 H   0  0  0  0  0  0  0  0  0  0  0  0
   36.9340   27.5040   40.1060 H   0  0  0  0  0  0  0  0  0  0  0  0
   37.1040   30.3500   39.7070 C   0  0  0  0  0  0  0  0  0  0  0  0
   36.9870   31.7550   39.7510 C   0  0  0  0  0  0  0  0  0  0  0  0
   37.3160   32.4990   38.6020 C   0  0  0  0  0  0  0  0  0  0  0  0
   37.7380   31.7910   37.4940 N   0  0  0  0  0  0  0  0  0  0  0  0
   37.8320   30.4370   37.5120 C   0  0  0  0  0  0  0  0  0  0  0  0
   37.5180   29.7210   38.6100 N   0  0  0  0  0  0  0  0  0  0  0  0
   36.6580   32.2970   40.6170 H   0  0  0  0  0  0  0  0  0  0  0  0
   37.2540   33.5770   38.5520 H   0  0  0  0  0  0  0  0  0  0  0  0
   38.1780   29.9850   36.5760 H   0  0  0  0  0  0  0  0  0  0  0  0
   37.9320   26.3860   42.1510 C   0  0  2  0  0  3  0  0  0  0  0  0
   36.8790   27.4580   42.3080 C   0  0  1  0  0  3  0  0  0  0  0  0
   37.4900   28.3750   43.3420 C   0  0  0  0  0  3  0  0  0  0  0  0
   36.9270   28.3050   44.2990 H   0  0  0  0  0  0  0  0  0  0  0  0
   38.7960   27.9960   43.5410 O   0  0  0  0  0  0  0  0  0  0  0  0
   38.8790   26.6320   43.2970 C   0  0  0  0  0  3  0  0  0  0  0  0
   39.9460   26.4580   42.9830 H   0  0  0  0  0  0  0  0  0  0  0  0
   38.6480   26.5340   40.9750 O   0  0  0  0  0  0  0  0  0  0  0  0
   39.3870   27.1710   41.0940 H   0  0  0  0  0  0  0  0  0  0  0  0
  1  3  1  0  0  0  0
  1  4  1  1  0  0  0
  2  1  1  0  0  0  0
  2  3  1  0  0  0  0
  2  6  1  0  0  0  0
  3  7  1  6  0  0  0
  3 18  1  0  0  0  0
  5  2  1  0  0  0  0
  8  9  1  0  0  0  0
  8  1  1  0  0  0  0
  9 14  1  0  0  0  0
 10  9  2  0  0  0  0
 11 12  2  0  0  0  0
 11 10  1  0  0  0  0
 12 13  1  0  0  0  0
 13  8  2  0  0  0  0
 15 10  1  0  0  0  0
 16 12  1  0  0  0  0
 17 24  1  6  0  0  0
 17 18  1  0  0  0  0
 17 22  1  0  0  0  0
 18 19  1  1  0  0  0
 19 21  1  0  0  0  0
 19 20  1  0  0  0  0
 22 21  1  0  0  0  0
 23 22  1  0  0  0  0
 24 25  1  0  0  0  0
M  END
>  <minimizedAffinity>
-4.24889469

$$$$

 OpenBabel03242518583D

 25 27  0  0  1  0  0  0  0  0999 V2000
   37.6740   27.6130   42.1620 C   0  0  1  0  0  0  0  0  0  0  0  0
   36.8660   27.3230   43.4560 C   0  0  0  0  0  0  0  0  0  0  0  0
   36.8410   26.4340   42.2710 C   0  0  2  0  0  0  0  0  0  0  0  0
   38.7810   27.5170   42.2780 H   0  0  0  0  0  0  0  0  0  0  0  0
   36.0010   27.9770   43.6740 H   0  0  0  0  0  0  0  0  0  0  0  0
   37.5070   27.0970   44.3300 H   0  0  0  0  0  0  0  0  0  0  0  0
   35.8260   26.3780   41.7800 H   0  0  0  0  0  0  0  0  0  0  0  0
   37.2530   28.8600   41.4820 C   0  0  0  0  0  0  0  0  0  0  0  0
   36.0400   28.8330   40.7630 C   0  0  0  0  0  0  0  0  0  0  0  0
   35.6140   30.0050   40.1090 C   0  0  0  0  0  0  0  0  0  0  0  0
   36.4250   31.1170   40.2200 N   0  0  0  0  0  0  0  0  0  0  0  0
   37.5820   31.0830   40.9280 C   0  0  0  0  0  0  0  0  0  0  0  0
   37.9940   29.9630   41.5560 N   0  0  0  0  0  0  0  0  0  0  0  0
   35.4160   27.9640   40.6820 H   0  0  0  0  0  0  0  0  0  0  0  0
   34.6990   30.0680   39.5380 H   0  0  0  0  0  0  0  0  0  0  0  0
   38.1410   32.0240   40.9460 H   0  0  0  0  0  0  0  0  0  0  0  0
   37.0570   24.1800   41.3110 C   0  0  2  0  0  3  0  0  0  0  0  0
   37.4890   25.0890   42.4370 C   0  0  1  0  0  3  0  0  0  0  0  0
   38.9880   25.1550   42.2540 C   0  0  0  0  0  3  0  0  0  0  0  0
   39.5000   24.6200   43.0840 H   0  0  0  0  0  0  0  0  0  0  0  0
   39.3050   24.5680   41.0540 O   0  0  0  0  0  0  0  0  0  0  0  0
   38.3470   23.5970   40.7960 C   0  0  0  0  0  3  0  0  0  0  0  0
   38.3270   23.5000   39.6740 H   0  0  0  0  0  0  0  0  0  0  0  0
   36.4700   24.8850   40.2740 O   0  0  0  0  0  0  0  0  0  0  0  0
   37.1540   25.2360   39.6600 H   0  0  0  0  0  0  0  0  0  0  0  0
  1  3  1  0  0  0  0
  1  4  1  1  0  0  0
  1  2  1  0  0  0  0
  2  5  1  0  0  0  0
  2  6  1  0  0  0  0
  3  7  1  6  0  0  0
  3 18  1  0  0  0  0
  3  2  1  0  0  0  0
  8 13  1  0  0  0  0
  8  1  1  0  0  0  0
  9  8  2  0  0  0  0
 10 11  2  0  0  0  0
 10  9  1  0  0  0  0
 11 12  1  0  0  0  0
 12 16  1  0  0  0  0
 12 13  2  0  0  0  0
 14  9  1  0  0  0  0
 15 10  1  0  0  0  0
 17 24  1  6  0  0  0
 17 18  1  0  0  0  0
 18 19  1  6  0  0  0
 19 20  1  0  0  0  0
 21 19  1  0  0  0  0
 22 21  1  0  0  0  0
 22 17  1  0  0  0  0
 23 22  1  0  0  0  0
 25 24  1  0  0  0  0
M  END
>  <minimizedAffinity>
-4.19808197

$$$$

 OpenBabel03242518583D

 25 27  0  0  1  0  0  0  0  0999 V2000
   37.9640   29.6280   39.2330 C   0  0  1  0  0  0  0  0  0  0  0  0
   37.0530   29.6380   37.9760 C   0  0  0  0  0  0  0  0  0  0  0  0
   37.0750   30.7390   38.9680 C   0  0  2  0  0  0  0  0  0  0  0  0
   39.0540   29.7310   39.0140 H   0  0  0  0  0  0  0  0  0  0  0  0
   36.2040   28.9300   37.9560 H   0  0  0  0  0  0  0  0  0  0  0  0
   37.6190   29.7100   37.0270 H   0  0  0  0  0  0  0  0  0  0  0  0
   36.0960   30.8600   39.5180 H   0  0  0  0  0  0  0  0  0  0  0  0
   37.6470   28.5240   40.1690 C   0  0  0  0  0  0  0  0  0  0  0  0
   36.8920   28.8400   41.3180 C   0  0  0  0  0  0  0  0  0  0  0  0
   36.5740   27.8100   42.2240 C   0  0  0  0  0  0  0  0  0  0  0  0
   37.0290   26.5430   41.9200 N   0  0  0  0  0  0  0  0  0  0  0  0
   37.7520   26.2990   40.7970 C   0  0  0  0  0  0  0  0  0  0  0  0
   38.0590   27.2820   39.9270 N   0  0  0  0  0  0  0  0  0  0  0  0
   36.5420   29.8290   41.5460 H   0  0  0  0  0  0  0  0  0  0  0  0
   36.0000   27.9670   43.1270 H   0  0  0  0  0  0  0  0  0  0  0  0
   38.0580   25.2560   40.6610 H   0  0  0  0  0  0  0  0  0  0  0  0
   37.2290   33.1490   39.4390 C   0  0  2  0  0  3  0  0  0  0  0  0
   37.6510   32.0440   38.4980 C   0  0  1  0  0  3  0  0  0  0  0  0
   39.1580   32.0720   38.6080 C   0  0  0  0  0  3  0  0  0  0  0  0
   39.6050   32.4450   37.6600 H   0  0  0  0  0  0  0  0  0  0  0  0
   39.5020   32.9040   39.6450 O   0  0  0  0  0  0  0  0  0  0  0  0
   38.5130   33.8710   39.7530 C   0  0  0  0  0  3  0  0  0  0  0  0
   38.5390   34.1950   40.8320 H   0  0  0  0  0  0  0  0  0  0  0  0
   36.7240   32.6490   40.6270 O   0  0  0  0  0  0  0  0  0  0  0  0
   37.4510   32.4560   41.2620 H   0  0  0  0  0  0  0  0  0  0  0  0
  1  4  1  6  0  0  0
  1  8  1  0  0  0  0
  2  3  1  0  0  0  0
  2  1  1  0  0  0  0
  3  1  1  0  0  0  0
  3  7  1  1  0  0  0
  5  2  1  0  0  0  0
  6  2  1  0  0  0  0
  8  9  1  0  0  0  0
  9 14  1  0  0  0  0
  9 10  2  0  0  0  0
 10 15  1  0  0  0  0
 11 10  1  0  0  0  0
 12 11  2  0  0  0  0
 13  8  2  0  0  0  0
 13 12  1  0  0  0  0
 16 12  1  0  0  0  0
 17 22  1  0  0  0  0
 17 24  1  1  0  0  0
 18 19  1  1  0  0  0
 18  3  1  0  0  0  0
 18 17  1  0  0  0  0
 19 21  1  0  0  0  0
 20 19  1  0  0  0  0
 21 22  1  0  0  0  0
 22 23  1  0  0  0  0
 24 25  1  0  0  0  0
M  END
>  <minimizedAffinity>
-4.18631601

$$$$
