
 OpenBabel03242517143D

 23 24  0  0  1  0  0  0  0  0999 V2000
   42.6430   35.3800   39.7290 C   0  0  0  0  0  0  0  0  0  0  0  0
   43.4980   35.7990   39.1810 H   0  0  0  0  0  0  0  0  0  0  0  0
   41.8460   36.1470   39.7790 H   0  0  0  0  0  0  0  0  0  0  0  0
   40.5620   32.4370   39.0480 C   0  0  1  0  0  3  0  0  0  0  0  0
   41.5800   33.1310   39.9630 C   0  0  0  0  0  3  0  0  0  0  0  0
   42.2790   32.3750   40.3330 H   0  0  0  0  0  0  0  0  0  0  0  0
   42.1620   34.1220   39.0040 C   0  0  1  0  0  3  0  0  0  0  0  0
   41.1880   34.4540   38.0790 O   0  0  0  0  0  0  0  0  0  0  0  0
   40.0610   33.6920   38.3200 C   0  0  0  0  0  3  0  0  0  0  0  0
   39.5280   33.4350   37.4040 H   0  0  0  0  0  0  0  0  0  0  0  0
   41.2310   31.6780   38.1080 O   0  0  0  0  0  0  0  0  0  0  0  0
   41.8280   30.9820   38.4840 H   0  0  0  0  0  0  0  0  0  0  0  0
   44.0240   35.4280   41.7830 C   0  0  0  0  0  3  0  0  0  0  0  0
   43.0550   34.8940   41.0810 C   0  0  0  0  0  3  0  0  0  0  0  0
   44.3160   35.7800   44.2410 C   0  0  0  0  0  0  0  0  0  0  0  0
   44.4680   35.0040   43.0950 C   0  0  0  0  0  0  0  0  0  0  0  0
   45.0810   33.7630   43.2370 C   0  0  0  0  0  0  0  0  0  0  0  0
   45.5040   33.3610   44.4840 N   0  0  0  0  0  0  0  0  0  0  0  0
   45.3330   34.1500   45.5650 C   0  0  0  0  0  0  0  0  0  0  0  0
   44.7420   35.3500   45.4330 N   0  0  0  0  0  0  0  0  0  0  0  0
   43.8420   36.7500   44.1540 H   0  0  0  0  0  0  0  0  0  0  0  0
   45.2240   33.1210   42.3720 H   0  0  0  0  0  0  0  0  0  0  0  0
   45.7230   33.6770   46.4590 H   0  0  0  0  0  0  0  0  0  0  0  0
  1  3  1  0  0  0  0
  1 14  1  0  0  0  0
  2  1  1  0  0  0  0
  4 11  1  6  0  0  0
  4  5  1  0  0  0  0
  5  6  1  0  0  0  0
  7  1  1  1  0  0  0
  7  5  1  0  0  0  0
  8  9  1  0  0  0  0
  8  7  1  0  0  0  0
  9  4  1  0  0  0  0
 10  9  1  0  0  0  0
 11 12  1  0  0  0  0
 13 16  1  0  0  0  0
 14 13  2  0  0  0  0
 15 20  1  0  0  0  0
 16 17  1  0  0  0  0
 16 15  2  0  0  0  0
 17 18  2  0  0  0  0
 18 19  1  0  0  0  0
 19 23  1  0  0  0  0
 20 19  2  0  0  0  0
 21 15  1  0  0  0  0
 22 17  1  0  0  0  0
M  END
>  <minimizedAffinity>
-4.03174019

>  <minimizedRMSD>
0.811307132

$$$$
