
 OpenBabel03242523233D

 43 46  0  0  1  0  0  0  0  0999 V2000
   47.2960   32.9300   43.8870 C   0  0  0  0  0  0  0  0  0  0  0  0
   48.0010   33.2010   42.7930 C   0  0  0  0  0  0  0  0  0  0  0  0
   48.8650   32.1980   42.4060 C   0  0  0  0  0  0  0  0  0  0  0  0
   48.9160   31.0280   43.1780 N   0  0  0  0  0  0  0  0  0  0  0  0
   48.1970   30.8250   44.2440 C   0  0  0  0  0  0  0  0  0  0  0  0
   47.3190   31.8040   44.6650 N   0  0  0  0  0  0  0  0  0  0  0  0
   49.5430   32.1670   41.5650 H   0  0  0  0  0  0  0  0  0  0  0  0
   48.3350   29.8670   44.7550 H   0  0  0  0  0  0  0  0  0  0  0  0
   48.0410   34.4170   42.0720 C   0  0  1  0  0  0  0  0  0  0  0  0
   48.8640   34.7800   41.0510 C   0  0  0  0  0  0  0  0  0  0  0  0
   47.4610   34.4690   40.6290 C   0  0  1  0  0  0  0  0  0  0  0  0
   47.7430   35.2900   42.7150 H   0  0  0  0  0  0  0  0  0  0  0  0
   49.6780   34.0690   40.7190 H   0  0  0  0  0  0  0  0  0  0  0  0
   49.1850   35.8030   40.7520 H   0  0  0  0  0  0  0  0  0  0  0  0
   46.7640   35.3170   40.4630 H   0  0  0  0  0  0  0  0  0  0  0  0
   46.0350   33.2010   38.9610 C   0  0  1  0  0  3  0  0  0  0  0  0
   47.2800   33.2950   39.7840 C   0  0  1  0  0  3  0  0  0  0  0  0
   48.3570   33.3370   38.7250 C   0  0  0  0  0  3  0  0  0  0  0  0
   49.2420   33.8910   39.1010 H   0  0  0  0  0  0  0  0  0  0  0  0
   47.7780   34.0490   37.6990 O   0  0  0  0  0  0  0  0  0  0  0  0
   46.4840   33.5370   37.5760 C   0  0  0  0  0  3  0  0  0  0  0  0
   45.7940   34.2810   37.1470 H   0  0  0  0  0  0  0  0  0  0  0  0
   45.6370   31.8490   38.9430 O   0  0  0  0  0  0  0  0  0  0  0  0
   45.8150   31.4070   38.0820 H   0  0  0  0  0  0  0  0  0  0  0  0
   46.2490   33.7830   44.4900 C   0  0  0  0  0  0  0  0  0  0  0  0
   45.7310   34.3780   45.3900 O   0  0  0  0  0  0  0  0  0  0  0  0
   44.5380   31.5310   43.2520 Cl  0  0  0  0  0  0  0  0  0  0  0  0
   44.4020   33.2090   42.7480 C   0  0  0  0  0  0  0  0  0  0  0  0
   45.2510   34.1220   43.4260 C   0  0  0  0  0  0  0  0  0  0  0  0
   45.0480   35.3970   42.9490 C   0  0  0  0  0  0  0  0  0  0  0  0
   44.2340   35.8560   42.0100 C   0  0  0  0  0  0  0  0  0  0  0  0
   43.4420   34.9100   41.3940 C   0  0  0  0  0  0  0  0  0  0  0  0
   43.5190   33.5980   41.7550 C   0  0  0  0  0  0  0  0  0  0  0  0
   45.6290   36.2230   43.4220 H   0  0  0  0  0  0  0  0  0  0  0  0
   44.1450   36.8950   41.6960 H   0  0  0  0  0  0  0  0  0  0  0  0
   42.7500   35.2530   40.6040 H   0  0  0  0  0  0  0  0  0  0  0  0
   42.6790   32.7590   41.0720 O   0  0  0  0  0  0  0  0  0  0  0  0
   40.5270   31.4650   40.3140 O   0  0  0  0  0  0  0  0  0  0  0  0
   41.1300   32.2040   41.4840 P   0  0  0  0  0  0  0  0  0  0  0  0
   41.2360   31.2070   42.8500 O   0  0  0  0  0  0  0  0  0  0  0  0
   41.3470   31.7390   43.6600 H   0  0  0  0  0  0  0  0  0  0  0  0
   40.1160   33.4830   41.9340 O   0  0  0  0  0  0  0  0  0  0  0  0
   39.3280   33.1070   42.4070 H   0  0  0  0  0  0  0  0  0  0  0  0
  1 25  1  0  0  0  0
  1  6  1  0  0  0  0
  2  1  2  0  0  0  0
  3  2  1  0  0  0  0
  3  4  2  0  0  0  0
  4  5  1  0  0  0  0
  5  6  2  0  0  0  0
  5  8  1  0  0  0  0
  7  3  1  0  0  0  0
  9 12  1  1  0  0  0
  9  2  1  0  0  0  0
 10  9  1  0  0  0  0
 11 15  1  6  0  0  0
 11 10  1  0  0  0  0
 11  9  1  0  0  0  0
 13 10  1  0  0  0  0
 14 10  1  0  0  0  0
 16 23  1  6  0  0  0
 16 17  1  0  0  0  0
 17 18  1  6  0  0  0
 17 11  1  0  0  0  0
 18 19  1  0  0  0  0
 20 18  1  0  0  0  0
 21 20  1  0  0  0  0
 21 16  1  0  0  0  0
 22 21  1  0  0  0  0
 24 23  1  0  0  0  0
 25 26  2  0  0  0  0
 28 27  1  0  0  0  0
 28 29  1  0  0  0  0
 29 25  1  0  0  0  0
 30 34  1  0  0  0  0
 30 29  2  0  0  0  0
 31 30  1  0  0  0  0
 32 33  1  0  0  0  0
 32 31  2  0  0  0  0
 33 28  2  0  0  0  0
 35 31  1  0  0  0  0
 36 32  1  0  0  0  0
 37 39  1  0  0  0  0
 37 33  1  0  0  0  0
 38 39  2  0  0  0  0
 39 42  1  0  0  0  0
 39 40  1  0  0  0  0
 40 41  1  0  0  0  0
 42 43  1  0  0  0  0
M  END
>  <minimizedAffinity>
-5.620152

>  <minimizedRMSD>
1.60515928

$$$$
