
 OpenBabel03242517133D

 23 24  0  0  1  0  0  0  0  0999 V2000
   42.5850   35.1700   39.7740 C   0  0  0  0  0  0  0  0  0  0  0  0
   43.3610   34.8890   39.0490 H   0  0  0  0  0  0  0  0  0  0  0  0
   42.3850   36.2550   39.6760 H   0  0  0  0  0  0  0  0  0  0  0  0
   39.0520   34.5000   39.0460 C   0  0  1  0  0  3  0  0  0  0  0  0
   40.1050   35.0170   40.0370 C   0  0  0  0  0  3  0  0  0  0  0  0
   39.8100   34.7030   41.0430 H   0  0  0  0  0  0  0  0  0  0  0  0
   41.3280   34.3450   39.4940 C   0  0  1  0  0  3  0  0  0  0  0  0
   41.1630   34.1840   38.1300 O   0  0  0  0  0  0  0  0  0  0  0  0
   39.9010   34.6200   37.7750 C   0  0  0  0  0  3  0  0  0  0  0  0
   39.4750   34.0390   36.9550 H   0  0  0  0  0  0  0  0  0  0  0  0
   38.8450   33.1520   39.2570 O   0  0  0  0  0  0  0  0  0  0  0  0
   38.5450   32.9150   40.1710 H   0  0  0  0  0  0  0  0  0  0  0  0
   44.0390   35.2530   41.7760 C   0  0  0  0  0  3  0  0  0  0  0  0
   42.9800   34.7840   41.1620 C   0  0  0  0  0  3  0  0  0  0  0  0
   44.2960   35.7630   44.2100 C   0  0  0  0  0  0  0  0  0  0  0  0
   44.4730   34.9200   43.1160 C   0  0  0  0  0  0  0  0  0  0  0  0
   45.1020   33.6990   43.3440 C   0  0  0  0  0  0  0  0  0  0  0  0
   45.5150   33.3830   44.6180 N   0  0  0  0  0  0  0  0  0  0  0  0
   45.3190   34.2350   45.6460 C   0  0  0  0  0  0  0  0  0  0  0  0
   44.7130   35.4160   45.4320 N   0  0  0  0  0  0  0  0  0  0  0  0
   43.8080   36.7190   44.0570 H   0  0  0  0  0  0  0  0  0  0  0  0
   45.2640   33.0060   42.5230 H   0  0  0  0  0  0  0  0  0  0  0  0
   45.7050   33.8260   46.5720 H   0  0  0  0  0  0  0  0  0  0  0  0
  1 14  1  0  0  0  0
  2  1  1  0  0  0  0
  3  1  1  0  0  0  0
  4 11  1  1  0  0  0
  4  5  1  0  0  0  0
  5  6  1  0  0  0  0
  7  1  1  6  0  0  0
  7  5  1  0  0  0  0
  8  7  1  0  0  0  0
  9  8  1  0  0  0  0
  9  4  1  0  0  0  0
 10  9  1  0  0  0  0
 11 12  1  0  0  0  0
 13 16  1  0  0  0  0
 14 13  2  0  0  0  0
 15 20  1  0  0  0  0
 16 17  1  0  0  0  0
 16 15  2  0  0  0  0
 17 18  2  0  0  0  0
 18 19  1  0  0  0  0
 19 23  1  0  0  0  0
 20 19  2  0  0  0  0
 21 15  1  0  0  0  0
 22 17  1  0  0  0  0
M  END
>  <minimizedAffinity>
-4.57482624

>  <minimizedRMSD>
1.85756624

$$$$
