
 OpenBabel03252508293D

 39 42  0  0  1  0  0  0  0  0999 V2000
   42.6940   33.0520   40.2050 N   0  0  0  0  0  0  0  0  0  0  0  0
   42.4850   34.0310   41.2770 C   0  0  2  0  0  0  0  0  0  0  0  0
   41.7120   35.2170   40.8170 C   0  0  0  0  0  0  0  0  0  0  0  0
   41.0980   35.0130   39.5250 N   0  0  0  0  0  0  0  0  0  0  0  0
   41.9650   34.5090   38.5220 C   0  0  0  0  0  0  0  0  0  0  0  0
   43.1970   33.8220   39.0780 C   0  0  2  0  0  0  0  0  0  0  0  0
   43.3300   32.3350   40.5430 H   0  0  0  0  0  0  0  0  0  0  0  0
   42.0080   33.4770   42.1250 H   0  0  0  0  0  0  0  0  0  0  0  0
   40.8890   35.3800   41.5430 H   0  0  0  0  0  0  0  0  0  0  0  0
   42.2920   36.1360   40.6210 H   0  0  0  0  0  0  0  0  0  0  0  0
   40.1410   34.6490   39.5430 H   0  0  0  0  0  0  0  0  0  0  0  0
   42.2340   35.4000   37.8880 H   0  0  0  0  0  0  0  0  0  0  0  0
   41.3770   33.7500   37.9520 H   0  0  0  0  0  0  0  0  0  0  0  0
   43.8530   34.6390   39.4490 H   0  0  0  0  0  0  0  0  0  0  0  0
   45.9330   34.6140   42.1470 C   0  0  0  0  0  0  0  0  0  0  0  0
   45.2600   35.7270   42.6670 C   0  0  0  0  0  0  0  0  0  0  0  0
   43.9070   35.6190   42.4020 C   0  0  0  0  0  0  0  0  0  0  0  0
   43.7870   34.4710   41.7400 N   0  0  0  0  0  0  0  0  0  0  0  0
   44.9620   33.8890   41.5930 N   0  0  0  0  0  0  0  0  0  0  0  0
   45.8640   36.4920   43.1850 H   0  0  0  0  0  0  0  0  0  0  0  0
   43.3870   36.4780   42.8130 H   0  0  0  0  0  0  0  0  0  0  0  0
   49.6750   34.9980   42.1630 C   0  0  0  0  0  0  0  0  0  0  0  0
   48.3050   35.3830   42.0220 C   0  0  0  0  0  0  0  0  0  0  0  0
   47.3740   34.3730   42.2420 C   0  0  0  0  0  0  0  0  0  0  0  0
   47.7830   33.1270   42.5650 N   0  0  0  0  0  0  0  0  0  0  0  0
   49.0950   32.8050   42.6880 C   0  0  0  0  0  0  0  0  0  0  0  0
   50.0110   33.7430   42.4860 N   0  0  0  0  0  0  0  0  0  0  0  0
   50.4100   35.7710   41.9960 H   0  0  0  0  0  0  0  0  0  0  0  0
   47.9860   36.3700   41.7670 H   0  0  0  0  0  0  0  0  0  0  0  0
   49.3100   31.7910   42.9480 H   0  0  0  0  0  0  0  0  0  0  0  0
   45.3950   33.0130   38.1160 C   0  0  2  0  0  3  0  0  0  0  0  0
   43.9140   32.9820   38.1080 C   0  0  1  0  0  3  0  0  0  0  0  0
   43.6540   31.5150   38.3550 C   0  0  0  0  0  3  0  0  0  0  0  0
   42.7200   31.3060   38.8640 H   0  0  0  0  0  0  0  0  0  0  0  0
   44.6730   31.2240   39.2920 O   0  0  0  0  0  0  0  0  0  0  0  0
   45.7850   31.6150   38.5730 C   0  0  0  0  0  3  0  0  0  0  0  0
   45.9100   30.9170   37.7180 H   0  0  0  0  0  0  0  0  0  0  0  0
   46.0340   33.8920   38.9170 O   0  0  0  0  0  0  0  0  0  0  0  0
   46.4370   34.6220   38.3720 H   0  0  0  0  0  0  0  0  0  0  0  0
  1  7  1  0  0  0  0
  1  2  1  0  0  0  0
  2 18  1  0  0  0  0
  2  8  1  1  0  0  0
  3  2  1  0  0  0  0
  3  9  1  0  0  0  0
  4 11  1  0  0  0  0
  4  3  1  0  0  0  0
  5  6  1  0  0  0  0
  5  4  1  0  0  0  0
  6 14  1  1  0  0  0
  6  1  1  0  0  0  0
 10  3  1  0  0  0  0
 12  5  1  0  0  0  0
 13  5  1  0  0  0  0
 15 24  1  0  0  0  0
 15 16  1  0  0  0  0
 16 20  1  0  0  0  0
 17 16  2  0  0  0  0
 17 21  1  0  0  0  0
 18 17  1  0  0  0  0
 19 18  1  0  0  0  0
 19 15  2  0  0  0  0
 22 27  1  0  0  0  0
 23 22  2  0  0  0  0
 23 24  1  0  0  0  0
 24 25  2  0  0  0  0
 25 26  1  0  0  0  0
 26 30  1  0  0  0  0
 27 26  2  0  0  0  0
 28 22  1  0  0  0  0
 29 23  1  0  0  0  0
 31 36  1  0  0  0  0
 31 38  1  1  0  0  0
 32 31  1  0  0  0  0
 32 33  1  1  0  0  0
 32  6  1  0  0  0  0
 33 34  1  0  0  0  0
 33 35  1  0  0  0  0
 36 35  1  0  0  0  0
 37 36  1  0  0  0  0
 39 38  1  0  0  0  0
M  END
>  <minimizedAffinity>
-4.99666643

>  <minimizedRMSD>
1.57051754

$$$$
