
 OpenBabel03242515383D

 36 39  0  0  1  0  0  0  0  0999 V2000
   43.9680   34.4610   40.6490 C   0  0  0  0  0  0  0  0  0  0  0  0
   44.0690   33.5660   39.5930 C   0  0  0  0  0  0  0  0  0  0  0  0
   45.3550   33.1280   39.2590 C   0  0  0  0  0  0  0  0  0  0  0  0
   46.4170   33.5800   39.9540 N   0  0  0  0  0  0  0  0  0  0  0  0
   46.2740   34.4530   40.9770 C   0  0  0  0  0  0  0  0  0  0  0  0
   45.0580   34.8660   41.2930 N   0  0  0  0  0  0  0  0  0  0  0  0
   43.1950   33.2110   39.0410 H   0  0  0  0  0  0  0  0  0  0  0  0
   44.9910   32.7010   36.8490 C   0  0  2  0  0  3  0  0  0  0  0  0
   45.5260   32.1740   38.1450 C   0  0  1  0  0  3  0  0  0  0  0  0
   46.9820   31.9660   37.8010 C   0  0  0  0  0  3  0  0  0  0  0  0
   47.5380   32.8980   38.0260 H   0  0  0  0  0  0  0  0  0  0  0  0
   47.0680   31.6830   36.4680 O   0  0  0  0  0  0  0  0  0  0  0  0
   45.8760   32.0030   35.8460 C   0  0  0  0  0  3  0  0  0  0  0  0
   45.3570   31.0850   35.5060 H   0  0  0  0  0  0  0  0  0  0  0  0
   45.2680   34.0820   36.8200 O   0  0  0  0  0  0  0  0  0  0  0  0
   46.2380   34.2320   36.6110 H   0  0  0  0  0  0  0  0  0  0  0  0
   42.3000   35.0130   41.0640 S   0  0  0  0  0  0  0  0  0  0  0  0
   39.9020   33.8110   40.8160 C   0  0  0  0  0  0  0  0  0  0  0  0
   41.2040   33.6110   41.2410 C   0  0  0  0  0  0  0  0  0  0  0  0
   41.5890   32.4040   41.7570 C   0  0  0  0  0  0  0  0  0  0  0  0
   40.7100   31.3430   41.8780 C   0  0  0  0  0  0  0  0  0  0  0  0
   39.3990   31.5540   41.4470 C   0  0  0  0  0  0  0  0  0  0  0  0
   38.9750   32.7600   40.9200 C   0  0  0  0  0  0  0  0  0  0  0  0
   38.6980   30.3440   41.6670 O   0  0  0  0  0  0  0  0  0  0  0  0
   39.5020   29.5540   42.4840 C   0  0  0  0  0  0  0  0  0  0  0  0
   40.8200   30.0330   42.3540 O   0  0  0  0  0  0  0  0  0  0  0  0
   39.4890   34.7260   40.3920 H   0  0  0  0  0  0  0  0  0  0  0  0
   42.6280   32.2790   42.0850 H   0  0  0  0  0  0  0  0  0  0  0  0
   37.9580   32.8890   40.5980 H   0  0  0  0  0  0  0  0  0  0  0  0
   39.1580   29.4790   43.5290 H   0  0  0  0  0  0  0  0  0  0  0  0
   39.4860   28.5160   42.0830 H   0  0  0  0  0  0  0  0  0  0  0  0
   47.3090   34.9530   41.7260 O   0  0  0  0  0  0  0  0  0  0  0  0
   48.5640   35.1380   41.1140 C   0  0  0  0  0  0  0  0  0  0  0  0
   49.4210   34.1060   41.3670 F   0  0  0  0  0  0  0  0  0  0  0  0
   48.3020   35.3300   39.7600 F   0  0  0  0  0  0  0  0  0  0  0  0
   49.1220   36.2940   41.6640 F   0  0  0  0  0  0  0  0  0  0  0  0
  1 17  1  0  0  0  0
  1  6  1  0  0  0  0
  2  1  2  0  0  0  0
  3  2  1  0  0  0  0
  3  4  2  0  0  0  0
  4  5  1  0  0  0  0
  5  6  2  0  0  0  0
  5 32  1  0  0  0  0
  7  2  1  0  0  0  0
  8 15  1  1  0  0  0
  8  9  1  0  0  0  0
  9  3  1  1  0  0  0
 10 11  1  0  0  0  0
 10  9  1  0  0  0  0
 12 10  1  0  0  0  0
 13 12  1  0  0  0  0
 13  8  1  0  0  0  0
 14 13  1  0  0  0  0
 16 15  1  0  0  0  0
 17 19  1  0  0  0  0
 18 23  2  0  0  0  0
 18 19  1  0  0  0  0
 19 20  2  0  0  0  0
 20 21  1  0  0  0  0
 20 28  1  0  0  0  0
 21 26  1  0  0  0  0
 22 24  1  0  0  0  0
 22 21  2  0  0  0  0
 23 22  1  0  0  0  0
 24 25  1  0  0  0  0
 25 30  1  0  0  0  0
 26 25  1  0  0  0  0
 27 18  1  0  0  0  0
 29 23  1  0  0  0  0
 31 25  1  0  0  0  0
 33 34  1  0  0  0  0
 33 36  1  0  0  0  0
 33 32  1  0  0  0  0
 35 33  1  0  0  0  0
M  END
>  <minimizedAffinity>
-6.09561253

>  <minimizedRMSD>
1.34629488

$$$$
