
 OpenBabel03252501463D

 23 24  0  0  1  0  0  0  0  0999 V2000
   38.2840   30.0450   41.7990 C   0  0  0  0  0  0  0  0  0  0  0  0
   37.1240   30.2600   41.0590 C   0  0  0  0  0  0  0  0  0  0  0  0
   36.2040   29.2190   40.9890 C   0  0  0  0  0  0  0  0  0  0  0  0
   36.4650   28.0520   41.6330 N   0  0  0  0  0  0  0  0  0  0  0  0
   37.6120   27.8870   42.3440 C   0  0  0  0  0  0  0  0  0  0  0  0
   38.5140   28.8780   42.4250 N   0  0  0  0  0  0  0  0  0  0  0  0
   39.0350   30.8420   41.8770 H   0  0  0  0  0  0  0  0  0  0  0  0
   35.2760   29.2920   40.4410 H   0  0  0  0  0  0  0  0  0  0  0  0
   38.0990   25.4380   42.2200 C   0  0  1  0  0  3  0  0  0  0  0  0
   37.9830   26.6580   43.0760 C   0  0  1  0  0  3  0  0  0  0  0  0
   39.4400   26.8270   43.5000 C   0  0  0  0  0  3  0  0  0  0  0  0
   39.4430   27.4620   44.3930 H   0  0  0  0  0  0  0  0  0  0  0  0
   39.9360   25.5530   43.6790 O   0  0  0  0  0  0  0  0  0  0  0  0
   39.2780   24.7090   42.8040 C   0  0  0  0  0  3  0  0  0  0  0  0
   38.8890   23.8540   43.4180 H   0  0  0  0  0  0  0  0  0  0  0  0
   36.9570   24.6550   42.1900 O   0  0  0  0  0  0  0  0  0  0  0  0
   36.9880   24.1100   41.3450 H   0  0  0  0  0  0  0  0  0  0  0  0
   36.8600   31.5110   40.3780 C   0  0  0  0  0  3  0  0  0  0  0  0
   37.7000   32.5310   40.2900 C   0  0  0  0  0  3  0  0  0  0  0  0
   37.3240   33.7940   39.5540 C   0  0  0  0  0  0  0  0  0  0  0  0
   36.9820   34.5900   40.2400 H   0  0  0  0  0  0  0  0  0  0  0  0
   36.4840   33.5070   38.8850 H   0  0  0  0  0  0  0  0  0  0  0  0
   38.1590   34.0850   38.9130 H   0  0  0  0  0  0  0  0  0  0  0  0
  1  7  1  0  0  0  0
  1  6  1  0  0  0  0
  2  1  2  0  0  0  0
  3  2  1  0  0  0  0
  3  4  2  0  0  0  0
  4  5  1  0  0  0  0
  5  6  2  0  0  0  0
  8  3  1  0  0  0  0
  9 16  1  1  0  0  0
  9 14  1  0  0  0  0
  9 10  1  0  0  0  0
 10  5  1  6  0  0  0
 10 11  1  0  0  0  0
 11 13  1  0  0  0  0
 11 12  1  0  0  0  0
 14 15  1  0  0  0  0
 14 13  1  0  0  0  0
 17 16  1  0  0  0  0
 18  2  1  0  0  0  0
 19 18  2  0  0  0  0
 20 21  1  0  0  0  0
 20 19  1  0  0  0  0
 22 20  1  0  0  0  0
 23 20  1  0  0  0  0
M  END
>  <minimizedAffinity>
-4.59723186

$$$$

 OpenBabel03252501463D

 23 24  0  0  1  0  0  0  0  0999 V2000
   36.4400   29.1250   41.3130 C   0  0  0  0  0  0  0  0  0  0  0  0
   37.2500   30.2570   41.3410 C   0  0  0  0  0  0  0  0  0  0  0  0
   38.4580   30.1670   42.0250 C   0  0  0  0  0  0  0  0  0  0  0  0
   38.7980   28.9990   42.6290 N   0  0  0  0  0  0  0  0  0  0  0  0
   37.9750   27.9190   42.5760 C   0  0  0  0  0  0  0  0  0  0  0  0
   36.8040   27.9830   41.9220 N   0  0  0  0  0  0  0  0  0  0  0  0
   35.4780   29.1570   40.7850 H   0  0  0  0  0  0  0  0  0  0  0  0
   39.1520   30.9910   42.1000 H   0  0  0  0  0  0  0  0  0  0  0  0
   38.2600   25.4570   42.2490 C   0  0  1  0  0  3  0  0  0  0  0  0
   38.2580   26.6090   43.2000 C   0  0  1  0  0  3  0  0  0  0  0  0
   39.7320   26.6280   43.6010 C   0  0  0  0  0  3  0  0  0  0  0  0
   39.8020   27.1870   44.5410 H   0  0  0  0  0  0  0  0  0  0  0  0
   40.1260   25.3090   43.6680 O   0  0  0  0  0  0  0  0  0  0  0  0
   39.3860   24.5920   42.7460 C   0  0  0  0  0  3  0  0  0  0  0  0
   38.9410   23.7240   43.3000 H   0  0  0  0  0  0  0  0  0  0  0  0
   37.0580   24.7720   42.1860 O   0  0  0  0  0  0  0  0  0  0  0  0
   37.0300   24.2950   41.3000 H   0  0  0  0  0  0  0  0  0  0  0  0
   36.8730   31.4960   40.6910 C   0  0  0  0  0  3  0  0  0  0  0  0
   37.7060   32.3460   40.1120 C   0  0  0  0  0  3  0  0  0  0  0  0
   37.2070   33.6120   39.4620 C   0  0  0  0  0  0  0  0  0  0  0  0
   37.3230   34.4930   40.1190 H   0  0  0  0  0  0  0  0  0  0  0  0
   36.1240   33.4420   39.2740 H   0  0  0  0  0  0  0  0  0  0  0  0
   37.6880   33.7170   38.4880 H   0  0  0  0  0  0  0  0  0  0  0  0
  1  2  2  0  0  0  0
  1  6  1  0  0  0  0
  2  3  1  0  0  0  0
  3  8  1  0  0  0  0
  3  4  2  0  0  0  0
  5  4  1  0  0  0  0
  6  5  2  0  0  0  0
  7  1  1  0  0  0  0
  9 16  1  1  0  0  0
  9 14  1  0  0  0  0
  9 10  1  0  0  0  0
 10  5  1  6  0  0  0
 10 11  1  0  0  0  0
 11 13  1  0  0  0  0
 11 12  1  0  0  0  0
 14 15  1  0  0  0  0
 14 13  1  0  0  0  0
 17 16  1  0  0  0  0
 18  2  1  0  0  0  0
 19 18  2  0  0  0  0
 20 19  1  0  0  0  0
 20 21  1  0  0  0  0
 22 20  1  0  0  0  0
 23 20  1  0  0  0  0
M  END
>  <minimizedAffinity>
-4.5535078

$$$$

 OpenBabel03252501463D

 23 24  0  0  1  0  0  0  0  0999 V2000
   37.1860   29.6170   41.7440 C   0  0  0  0  0  0  0  0  0  0  0  0
   37.3950   28.3700   41.1600 C   0  0  0  0  0  0  0  0  0  0  0  0
   37.9980   28.3410   39.9070 C   0  0  0  0  0  0  0  0  0  0  0  0
   38.3550   29.5070   39.3090 N   0  0  0  0  0  0  0  0  0  0  0  0
   38.1310   30.7020   39.9170 C   0  0  0  0  0  0  0  0  0  0  0  0
   37.5500   30.7540   41.1270 N   0  0  0  0  0  0  0  0  0  0  0  0
   36.7120   29.6830   42.7320 H   0  0  0  0  0  0  0  0  0  0  0  0
   38.2020   27.4220   39.3760 H   0  0  0  0  0  0  0  0  0  0  0  0
   38.1100   33.1840   40.2050 C   0  0  1  0  0  3  0  0  0  0  0  0
   38.4840   32.0190   39.3480 C   0  0  1  0  0  3  0  0  0  0  0  0
   40.0070   32.1230   39.4030 C   0  0  0  0  0  3  0  0  0  0  0  0
   40.3990   31.5550   38.5510 H   0  0  0  0  0  0  0  0  0  0  0  0
   40.2970   33.4710   39.3980 O   0  0  0  0  0  0  0  0  0  0  0  0
   39.2620   34.1360   40.0260 C   0  0  0  0  0  3  0  0  0  0  0  0
   38.9350   34.9510   39.3280 H   0  0  0  0  0  0  0  0  0  0  0  0
   36.8940   33.7620   39.8790 O   0  0  0  0  0  0  0  0  0  0  0  0
   36.5650   34.2500   40.6950 H   0  0  0  0  0  0  0  0  0  0  0  0
   37.0080   27.1350   41.8110 C   0  0  0  0  0  3  0  0  0  0  0  0
   37.3730   25.9200   41.4340 C   0  0  0  0  0  3  0  0  0  0  0  0
   36.9120   24.6950   42.1840 C   0  0  0  0  0  0  0  0  0  0  0  0
   36.0500   24.2060   41.6960 H   0  0  0  0  0  0  0  0  0  0  0  0
   36.5990   25.0630   43.1860 H   0  0  0  0  0  0  0  0  0  0  0  0
   37.7690   24.0370   42.3380 H   0  0  0  0  0  0  0  0  0  0  0  0
  1  7  1  0  0  0  0
  2  1  1  0  0  0  0
  2 18  1  0  0  0  0
  3  2  2  0  0  0  0
  4  3  1  0  0  0  0
  4  5  2  0  0  0  0
  5  6  1  0  0  0  0
  6  1  2  0  0  0  0
  8  3  1  0  0  0  0
  9 16  1  6  0  0  0
 10 11  1  0  0  0  0
 10  5  1  1  0  0  0
 10  9  1  0  0  0  0
 12 11  1  0  0  0  0
 13 11  1  0  0  0  0
 13 14  1  0  0  0  0
 14  9  1  0  0  0  0
 15 14  1  0  0  0  0
 16 17  1  0  0  0  0
 19 18  2  0  0  0  0
 19 20  1  0  0  0  0
 20 23  1  0  0  0  0
 20 22  1  0  0  0  0
 21 20  1  0  0  0  0
M  END
>  <minimizedAffinity>
-4.52107096

$$$$

 OpenBabel03252501463D

 23 24  0  0  1  0  0  0  0  0999 V2000
   37.2180   29.0890   41.5580 C   0  0  0  0  0  0  0  0  0  0  0  0
   37.9320   28.1770   42.3320 C   0  0  0  0  0  0  0  0  0  0  0  0
   39.1620   28.5870   42.8380 C   0  0  0  0  0  0  0  0  0  0  0  0
   39.6130   29.8380   42.5640 N   0  0  0  0  0  0  0  0  0  0  0  0
   38.8820   30.6950   41.8030 C   0  0  0  0  0  0  0  0  0  0  0  0
   37.6930   30.3210   41.3050 N   0  0  0  0  0  0  0  0  0  0  0  0
   36.2450   28.8030   41.1400 H   0  0  0  0  0  0  0  0  0  0  0  0
   39.7860   27.9520   43.4490 H   0  0  0  0  0  0  0  0  0  0  0  0
   40.6880   32.1930   40.9440 C   0  0  1  0  0  3  0  0  0  0  0  0
   39.2890   32.0720   41.4530 C   0  0  1  0  0  3  0  0  0  0  0  0
   38.5120   32.4470   40.1920 C   0  0  0  0  0  3  0  0  0  0  0  0
   37.5030   32.7350   40.5100 H   0  0  0  0  0  0  0  0  0  0  0  0
   39.2420   33.4400   39.5750 O   0  0  0  0  0  0  0  0  0  0  0  0
   40.5790   33.2280   39.8570 C   0  0  0  0  0  3  0  0  0  0  0  0
   40.9780   34.1980   40.2580 H   0  0  0  0  0  0  0  0  0  0  0  0
   41.6150   32.5430   41.9120 O   0  0  0  0  0  0  0  0  0  0  0  0
   42.5180   32.2390   41.5870 H   0  0  0  0  0  0  0  0  0  0  0  0
   37.4360   26.8460   42.6150 C   0  0  0  0  0  3  0  0  0  0  0  0
   37.2940   25.8740   41.7290 C   0  0  0  0  0  3  0  0  0  0  0  0
   36.7660   24.5180   42.1300 C   0  0  0  0  0  0  0  0  0  0  0  0
   35.6910   24.4050   41.9030 H   0  0  0  0  0  0  0  0  0  0  0  0
   36.9120   24.4590   43.2310 H   0  0  0  0  0  0  0  0  0  0  0  0
   37.4000   23.7500   41.6810 H   0  0  0  0  0  0  0  0  0  0  0  0
  1  2  1  0  0  0  0
  2 18  1  0  0  0  0
  2  3  2  0  0  0  0
  3  8  1  0  0  0  0
  4  3  1  0  0  0  0
  5  4  2  0  0  0  0
  6  1  2  0  0  0  0
  6  5  1  0  0  0  0
  7  1  1  0  0  0  0
  9 10  1  0  0  0  0
  9 16  1  1  0  0  0
 10  5  1  6  0  0  0
 11 12  1  0  0  0  0
 11 10  1  0  0  0  0
 13 14  1  0  0  0  0
 13 11  1  0  0  0  0
 14 15  1  0  0  0  0
 14  9  1  0  0  0  0
 17 16  1  0  0  0  0
 19 20  1  0  0  0  0
 19 18  2  0  0  0  0
 20 22  1  0  0  0  0
 21 20  1  0  0  0  0
 23 20  1  0  0  0  0
M  END
>  <minimizedAffinity>
-4.26079369

$$$$

 OpenBabel03252501463D

 23 24  0  0  1  0  0  0  0  0999 V2000
   36.5070   26.9550   39.5150 C   0  0  0  0  0  0  0  0  0  0  0  0
   35.8550   28.1620   39.7510 C   0  0  0  0  0  0  0  0  0  0  0  0
   35.9040   28.6770   41.0430 C   0  0  0  0  0  0  0  0  0  0  0  0
   36.5740   27.9970   42.0080 N   0  0  0  0  0  0  0  0  0  0  0  0
   37.1970   26.8210   41.7310 C   0  0  0  0  0  0  0  0  0  0  0  0
   37.1630   26.3050   40.4920 N   0  0  0  0  0  0  0  0  0  0  0  0
   36.4910   26.5160   38.5090 H   0  0  0  0  0  0  0  0  0  0  0  0
   35.4290   29.6070   41.3220 H   0  0  0  0  0  0  0  0  0  0  0  0
   38.7310   24.8860   42.1170 C   0  0  1  0  0  3  0  0  0  0  0  0
   37.9490   26.0110   42.7130 C   0  0  1  0  0  3  0  0  0  0  0  0
   39.0900   26.8910   43.2200 C   0  0  0  0  0  3  0  0  0  0  0  0
   38.6650   27.5650   43.9730 H   0  0  0  0  0  0  0  0  0  0  0  0
   40.0620   26.0290   43.6800 O   0  0  0  0  0  0  0  0  0  0  0  0
   39.9980   24.8700   42.9290 C   0  0  0  0  0  3  0  0  0  0  0  0
   39.9340   24.0200   43.6580 H   0  0  0  0  0  0  0  0  0  0  0  0
   38.0760   23.6660   42.1400 O   0  0  0  0  0  0  0  0  0  0  0  0
   38.4820   23.0930   41.4200 H   0  0  0  0  0  0  0  0  0  0  0  0
   35.1440   28.8760   38.7100 C   0  0  0  0  0  3  0  0  0  0  0  0
   34.2920   28.3370   37.8530 C   0  0  0  0  0  3  0  0  0  0  0  0
   33.6030   29.1730   36.8020 C   0  0  0  0  0  0  0  0  0  0  0  0
   34.0970   29.0970   35.8170 H   0  0  0  0  0  0  0  0  0  0  0  0
   33.6770   30.2220   37.1640 H   0  0  0  0  0  0  0  0  0  0  0  0
   32.5420   28.9130   36.7900 H   0  0  0  0  0  0  0  0  0  0  0  0
  1  2  2  0  0  0  0
  1  6  1  0  0  0  0
  2  3  1  0  0  0  0
  3  8  1  0  0  0  0
  3  4  2  0  0  0  0
  5  4  1  0  0  0  0
  6  5  2  0  0  0  0
  7  1  1  0  0  0  0
  9 16  1  1  0  0  0
  9 10  1  0  0  0  0
  9 14  1  0  0  0  0
 10  5  1  6  0  0  0
 10 11  1  0  0  0  0
 11 13  1  0  0  0  0
 11 12  1  0  0  0  0
 14 15  1  0  0  0  0
 14 13  1  0  0  0  0
 17 16  1  0  0  0  0
 18  2  1  0  0  0  0
 19 18  2  0  0  0  0
 20 22  1  0  0  0  0
 20 19  1  0  0  0  0
 21 20  1  0  0  0  0
 23 20  1  0  0  0  0
M  END
>  <minimizedAffinity>
-4.24941492

$$$$

 OpenBabel03252501463D

 23 24  0  0  1  0  0  0  0  0999 V2000
   34.5680   29.0430   39.6520 C   0  0  0  0  0  0  0  0  0  0  0  0
   34.8660   29.1770   38.2980 C   0  0  0  0  0  0  0  0  0  0  0  0
   36.0740   29.7810   37.9630 C   0  0  0  0  0  0  0  0  0  0  0  0
   36.9030   30.2110   38.9480 N   0  0  0  0  0  0  0  0  0  0  0  0
   36.5700   30.0600   40.2580 C   0  0  0  0  0  0  0  0  0  0  0  0
   35.4100   29.4790   40.6050 N   0  0  0  0  0  0  0  0  0  0  0  0
   33.6250   28.5720   39.9580 H   0  0  0  0  0  0  0  0  0  0  0  0
   36.3920   29.9280   36.9410 H   0  0  0  0  0  0  0  0  0  0  0  0
   37.7810   29.3990   42.3420 C   0  0  1  0  0  3  0  0  0  0  0  0
   37.4050   30.4940   41.3970 C   0  0  1  0  0  3  0  0  0  0  0  0
   38.7780   30.8380   40.8250 C   0  0  0  0  0  3  0  0  0  0  0  0
   38.7020   31.8410   40.3880 H   0  0  0  0  0  0  0  0  0  0  0  0
   39.6690   30.7150   41.8690 O   0  0  0  0  0  0  0  0  0  0  0  0
   39.1980   29.7350   42.7220 C   0  0  0  0  0  3  0  0  0  0  0  0
   39.1850   30.1850   43.7500 H   0  0  0  0  0  0  0  0  0  0  0  0
   36.9510   29.2910   43.4450 O   0  0  0  0  0  0  0  0  0  0  0  0
   37.0370   28.3520   43.7950 H   0  0  0  0  0  0  0  0  0  0  0  0
   33.9710   28.7130   37.2580 C   0  0  0  0  0  3  0  0  0  0  0  0
   32.7270   29.1260   37.0740 C   0  0  0  0  0  3  0  0  0  0  0  0
   31.8770   28.5760   35.9550 C   0  0  0  0  0  0  0  0  0  0  0  0
   31.1880   27.7850   36.3050 H   0  0  0  0  0  0  0  0  0  0  0  0
   32.5940   28.1360   35.2280 H   0  0  0  0  0  0  0  0  0  0  0  0
   31.3800   29.4080   35.4520 H   0  0  0  0  0  0  0  0  0  0  0  0
  1  7  1  0  0  0  0
  1  6  1  0  0  0  0
  2  1  2  0  0  0  0
  3  2  1  0  0  0  0
  3  4  2  0  0  0  0
  4  5  1  0  0  0  0
  5  6  2  0  0  0  0
  8  3  1  0  0  0  0
  9 14  1  0  0  0  0
  9 16  1  1  0  0  0
 10  5  1  6  0  0  0
 10  9  1  0  0  0  0
 11 10  1  0  0  0  0
 11 13  1  0  0  0  0
 12 11  1  0  0  0  0
 13 14  1  0  0  0  0
 14 15  1  0  0  0  0
 16 17  1  0  0  0  0
 18  2  1  0  0  0  0
 19 18  2  0  0  0  0
 20 21  1  0  0  0  0
 20 19  1  0  0  0  0
 22 20  1  0  0  0  0
 23 20  1  0  0  0  0
M  END
>  <minimizedAffinity>
-4.2095418

$$$$

 OpenBabel03252501463D

 23 24  0  0  1  0  0  0  0  0999 V2000
   37.4840   27.0320   40.9690 C   0  0  0  0  0  0  0  0  0  0  0  0
   37.4890   26.0550   39.9770 C   0  0  0  0  0  0  0  0  0  0  0  0
   37.0500   26.4240   38.7090 C   0  0  0  0  0  0  0  0  0  0  0  0
   36.6410   27.7000   38.4890 N   0  0  0  0  0  0  0  0  0  0  0  0
   36.6530   28.6210   39.4880 C   0  0  0  0  0  0  0  0  0  0  0  0
   37.0720   28.2870   40.7200 N   0  0  0  0  0  0  0  0  0  0  0  0
   37.8220   26.7810   41.9830 H   0  0  0  0  0  0  0  0  0  0  0  0
   37.0190   25.7360   37.8770 H   0  0  0  0  0  0  0  0  0  0  0  0
   36.6060   30.9100   40.4920 C   0  0  1  0  0  3  0  0  0  0  0  0
   36.2270   30.0290   39.3450 C   0  0  1  0  0  3  0  0  0  0  0  0
   37.0940   30.6360   38.2440 C   0  0  0  0  0  3  0  0  0  0  0  0
   36.6640   30.3190   37.2860 H   0  0  0  0  0  0  0  0  0  0  0  0
   37.1000   31.9950   38.4680 O   0  0  0  0  0  0  0  0  0  0  0  0
   36.9830   32.2070   39.8280 C   0  0  0  0  0  3  0  0  0  0  0  0
   36.1340   32.9280   39.9670 H   0  0  0  0  0  0  0  0  0  0  0  0
   35.6070   31.0720   41.4370 O   0  0  0  0  0  0  0  0  0  0  0  0
   36.0510   31.3380   42.3000 H   0  0  0  0  0  0  0  0  0  0  0  0
   37.9290   24.6980   40.2280 C   0  0  0  0  0  3  0  0  0  0  0  0
   37.2220   23.6040   39.9940 C   0  0  0  0  0  3  0  0  0  0  0  0
   37.7770   22.2340   40.2930 C   0  0  0  0  0  0  0  0  0  0  0  0
   37.4120   21.8370   41.2580 H   0  0  0  0  0  0  0  0  0  0  0  0
   38.8790   22.3670   40.3500 H   0  0  0  0  0  0  0  0  0  0  0  0
   37.5770   21.5820   39.4400 H   0  0  0  0  0  0  0  0  0  0  0  0
  1  7  1  0  0  0  0
  2 18  1  0  0  0  0
  2  1  2  0  0  0  0
  3  2  1  0  0  0  0
  4  3  2  0  0  0  0
  4  5  1  0  0  0  0
  5  6  2  0  0  0  0
  6  1  1  0  0  0  0
  8  3  1  0  0  0  0
  9 16  1  1  0  0  0
 10  5  1  1  0  0  0
 10  9  1  0  0  0  0
 11 13  1  0  0  0  0
 11 10  1  0  0  0  0
 12 11  1  0  0  0  0
 13 14  1  0  0  0  0
 14 15  1  0  0  0  0
 14  9  1  0  0  0  0
 16 17  1  0  0  0  0
 19 18  2  0  0  0  0
 19 20  1  0  0  0  0
 20 22  1  0  0  0  0
 20 21  1  0  0  0  0
 23 20  1  0  0  0  0
M  END
>  <minimizedAffinity>
-4.14530754

$$$$

 OpenBabel03252501463D

 23 24  0  0  1  0  0  0  0  0999 V2000
   40.4560   30.4470   37.9330 C   0  0  0  0  0  0  0  0  0  0  0  0
   41.5490   31.3070   37.8650 C   0  0  0  0  0  0  0  0  0  0  0  0
   41.6490   32.2970   38.8370 C   0  0  0  0  0  0  0  0  0  0  0  0
   40.6960   32.3870   39.8000 N   0  0  0  0  0  0  0  0  0  0  0  0
   39.6450   31.5250   39.8270 C   0  0  0  0  0  0  0  0  0  0  0  0
   39.5280   30.5620   38.8990 N   0  0  0  0  0  0  0  0  0  0  0  0
   40.3410   29.6530   37.1840 H   0  0  0  0  0  0  0  0  0  0  0  0
   42.4610   33.0090   38.8670 H   0  0  0  0  0  0  0  0  0  0  0  0
   37.1980   31.7750   40.2670 C   0  0  1  0  0  3  0  0  0  0  0  0
   38.5620   31.5440   40.8320 C   0  0  1  0  0  3  0  0  0  0  0  0
   38.4060   30.1090   41.3310 C   0  0  0  0  0  3  0  0  0  0  0  0
   39.2010   29.9370   42.0660 H   0  0  0  0  0  0  0  0  0  0  0  0
   37.1200   30.0120   41.8180 O   0  0  0  0  0  0  0  0  0  0  0  0
   36.3190   30.8720   41.0900 C   0  0  0  0  0  3  0  0  0  0  0  0
   35.7710   31.5060   41.8370 H   0  0  0  0  0  0  0  0  0  0  0  0
   36.7820   33.0960   40.3100 O   0  0  0  0  0  0  0  0  0  0  0  0
   36.0730   33.2100   39.6050 H   0  0  0  0  0  0  0  0  0  0  0  0
   42.5580   31.1970   36.8310 C   0  0  0  0  0  3  0  0  0  0  0  0
   42.9000   30.0830   36.2050 C   0  0  0  0  0  3  0  0  0  0  0  0
   43.9690   30.0790   35.1400 C   0  0  0  0  0  0  0  0  0  0  0  0
   44.9460   29.7430   35.5300 H   0  0  0  0  0  0  0  0  0  0  0  0
   44.0560   31.1350   34.8050 H   0  0  0  0  0  0  0  0  0  0  0  0
   43.6080   29.5010   34.2860 H   0  0  0  0  0  0  0  0  0  0  0  0
  1  6  1  0  0  0  0
  2  1  2  0  0  0  0
  2  3  1  0  0  0  0
  3  8  1  0  0  0  0
  3  4  2  0  0  0  0
  4  5  1  0  0  0  0
  6  5  2  0  0  0  0
  7  1  1  0  0  0  0
  9 16  1  1  0  0  0
  9 10  1  0  0  0  0
  9 14  1  0  0  0  0
 10  5  1  6  0  0  0
 10 11  1  0  0  0  0
 11 13  1  0  0  0  0
 11 12  1  0  0  0  0
 14 13  1  0  0  0  0
 14 15  1  0  0  0  0
 17 16  1  0  0  0  0
 18  2  1  0  0  0  0
 19 18  2  0  0  0  0
 20 21  1  0  0  0  0
 20 19  1  0  0  0  0
 22 20  1  0  0  0  0
 23 20  1  0  0  0  0
M  END
>  <minimizedAffinity>
-4.13104439

$$$$

 OpenBabel03252501463D

 23 24  0  0  1  0  0  0  0  0999 V2000
   35.7950   27.5020   38.5000 C   0  0  0  0  0  0  0  0  0  0  0  0
   34.7080   28.3720   38.5250 C   0  0  0  0  0  0  0  0  0  0  0  0
   34.5880   29.2200   39.6220 C   0  0  0  0  0  0  0  0  0  0  0  0
   35.5190   29.1700   40.6090 N   0  0  0  0  0  0  0  0  0  0  0  0
   36.5640   28.3040   40.5430 C   0  0  0  0  0  0  0  0  0  0  0  0
   36.7000   27.4770   39.4940 N   0  0  0  0  0  0  0  0  0  0  0  0
   35.9240   26.8170   37.6520 H   0  0  0  0  0  0  0  0  0  0  0  0
   33.7800   29.9290   39.7290 H   0  0  0  0  0  0  0  0  0  0  0  0
   37.1220   28.1020   42.9710 C   0  0  1  0  0  3  0  0  0  0  0  0
   37.6240   28.1780   41.5650 C   0  0  1  0  0  3  0  0  0  0  0  0
   38.2100   26.7750   41.4140 C   0  0  0  0  0  3  0  0  0  0  0  0
   38.9090   26.8090   40.5700 H   0  0  0  0  0  0  0  0  0  0  0  0
   38.7700   26.4620   42.6330 O   0  0  0  0  0  0  0  0  0  0  0  0
   38.0400   27.1010   43.6180 C   0  0  0  0  0  3  0  0  0  0  0  0
   38.7790   27.6630   44.2490 H   0  0  0  0  0  0  0  0  0  0  0  0
   37.1130   29.3160   43.6360 O   0  0  0  0  0  0  0  0  0  0  0  0
   36.4430   29.2450   44.3830 H   0  0  0  0  0  0  0  0  0  0  0  0
   33.7240   28.4120   37.4630 C   0  0  0  0  0  3  0  0  0  0  0  0
   32.6590   29.1980   37.4310 C   0  0  0  0  0  3  0  0  0  0  0  0
   31.6930   29.1610   36.2720 C   0  0  0  0  0  0  0  0  0  0  0  0
   30.7990   28.5510   36.4940 H   0  0  0  0  0  0  0  0  0  0  0  0
   32.2530   28.6910   35.4350 H   0  0  0  0  0  0  0  0  0  0  0  0
   31.4690   30.1870   35.9720 H   0  0  0  0  0  0  0  0  0  0  0  0
  1  2  2  0  0  0  0
  1  6  1  0  0  0  0
  2  3  1  0  0  0  0
  3  8  1  0  0  0  0
  3  4  2  0  0  0  0
  5  4  1  0  0  0  0
  6  5  2  0  0  0  0
  7  1  1  0  0  0  0
  9 14  1  0  0  0  0
  9 16  1  1  0  0  0
 10  5  1  6  0  0  0
 10  9  1  0  0  0  0
 11 10  1  0  0  0  0
 11 13  1  0  0  0  0
 12 11  1  0  0  0  0
 13 14  1  0  0  0  0
 14 15  1  0  0  0  0
 16 17  1  0  0  0  0
 18  2  1  0  0  0  0
 19 18  2  0  0  0  0
 20 21  1  0  0  0  0
 20 19  1  0  0  0  0
 22 20  1  0  0  0  0
 23 20  1  0  0  0  0
M  END
>  <minimizedAffinity>
-4.10109186

$$$$
