
 OpenBabel03242517133D

 23 24  0  0  1  0  0  0  0  0999 V2000
   42.2210   35.0170   39.7970 C   0  0  0  0  0  0  0  0  0  0  0  0
   42.9070   34.4510   39.1530 H   0  0  0  0  0  0  0  0  0  0  0  0
   42.1130   36.0390   39.3850 H   0  0  0  0  0  0  0  0  0  0  0  0
   38.5890   34.5700   39.5340 C   0  0  1  0  0  3  0  0  0  0  0  0
   39.7740   35.2130   40.2680 C   0  0  0  0  0  3  0  0  0  0  0  0
   39.5540   35.2130   41.3390 H   0  0  0  0  0  0  0  0  0  0  0  0
   40.8760   34.2900   39.8440 C   0  0  1  0  0  3  0  0  0  0  0  0
   40.5650   33.7910   38.5930 O   0  0  0  0  0  0  0  0  0  0  0  0
   39.3170   34.2520   38.2220 C   0  0  0  0  0  3  0  0  0  0  0  0
   38.7640   33.5230   37.6260 H   0  0  0  0  0  0  0  0  0  0  0  0
   38.2890   33.3570   40.1210 O   0  0  0  0  0  0  0  0  0  0  0  0
   38.0600   33.4060   41.0840 H   0  0  0  0  0  0  0  0  0  0  0  0
   43.8600   34.5620   41.5960 C   0  0  0  0  0  3  0  0  0  0  0  0
   42.6920   35.0190   41.2150 C   0  0  0  0  0  3  0  0  0  0  0  0
   44.2490   35.6060   43.8350 C   0  0  0  0  0  0  0  0  0  0  0  0
   44.3710   34.5370   42.9500 C   0  0  0  0  0  0  0  0  0  0  0  0
   45.0230   33.3970   43.4110 C   0  0  0  0  0  0  0  0  0  0  0  0
   45.5100   33.3740   44.6980 N   0  0  0  0  0  0  0  0  0  0  0  0
   45.3650   34.4370   45.5170 C   0  0  0  0  0  0  0  0  0  0  0  0
   44.7370   35.5410   45.0770 N   0  0  0  0  0  0  0  0  0  0  0  0
   43.7460   36.5050   43.4980 H   0  0  0  0  0  0  0  0  0  0  0  0
   45.1440   32.5360   42.7590 H   0  0  0  0  0  0  0  0  0  0  0  0
   45.8060   34.2450   46.4870 H   0  0  0  0  0  0  0  0  0  0  0  0
  1 14  1  0  0  0  0
  2  1  1  0  0  0  0
  3  1  1  0  0  0  0
  4 11  1  1  0  0  0
  4  5  1  0  0  0  0
  5  6  1  0  0  0  0
  7  1  1  6  0  0  0
  7  5  1  0  0  0  0
  8  7  1  0  0  0  0
  9  8  1  0  0  0  0
  9  4  1  0  0  0  0
 10  9  1  0  0  0  0
 11 12  1  0  0  0  0
 13 16  1  0  0  0  0
 14 13  2  0  0  0  0
 15 20  1  0  0  0  0
 16 17  1  0  0  0  0
 16 15  2  0  0  0  0
 17 18  2  0  0  0  0
 18 19  1  0  0  0  0
 19 23  1  0  0  0  0
 20 19  2  0  0  0  0
 21 15  1  0  0  0  0
 22 17  1  0  0  0  0
M  END
>  <minimizedAffinity>
-4.40092325

>  <minimizedRMSD>
2.71447206

$$$$
