
 OpenBabel03252503203D

 39 42  0  0  1  0  0  0  0  0999 V2000
   37.6250   30.5630   41.0860 C   0  0  0  0  0  0  0  0  0  0  0  0
   38.9120   31.0590   41.1180 C   0  0  0  0  0  0  0  0  0  0  0  0
   38.8230   32.2860   40.5660 N   0  0  0  0  0  0  0  0  0  0  0  0
   37.5410   32.5190   40.2180 C   0  0  0  0  0  0  0  0  0  0  0  0
   36.8050   31.4510   40.5410 N   0  0  0  0  0  0  0  0  0  0  0  0
   36.9510   33.6580   39.6090 N   0  0  0  0  0  0  0  0  0  0  0  0
   39.7920   30.5880   41.4920 H   0  0  0  0  0  0  0  0  0  0  0  0
   37.4680   33.8840   38.7290 H   0  0  0  0  0  0  0  0  0  0  0  0
   36.1180   34.0930   40.1060 H   0  0  0  0  0  0  0  0  0  0  0  0
   39.8800   33.2510   40.3450 C   0  0  0  0  0  0  0  0  0  0  0  0
   40.4590   33.3830   41.2800 H   0  0  0  0  0  0  0  0  0  0  0  0
   39.3900   34.2140   40.1180 H   0  0  0  0  0  0  0  0  0  0  0  0
   42.3390   33.2790   37.5580 C   0  0  1  0  0  3  0  0  0  0  0  0
   41.7040   33.9580   38.7800 C   0  0  0  0  0  3  0  0  0  0  0  0
   42.4710   34.2780   39.5100 H   0  0  0  0  0  0  0  0  0  0  0  0
   40.8370   32.8170   39.2710 C   0  0  2  0  0  3  0  0  0  0  0  0
   40.2240   32.4350   38.1060 O   0  0  0  0  0  0  0  0  0  0  0  0
   41.3350   32.1950   37.2750 C   0  0  0  0  0  3  0  0  0  0  0  0
   41.0450   32.1680   36.2070 H   0  0  0  0  0  0  0  0  0  0  0  0
   42.5300   34.1600   36.5190 O   0  0  0  0  0  0  0  0  0  0  0  0
   43.4870   34.2260   36.2110 H   0  0  0  0  0  0  0  0  0  0  0  0
   37.1880   29.2130   41.5870 C   0  0  0  0  0  0  0  0  0  0  0  0
   36.8780   28.9660   42.7900 O   0  0  0  0  0  0  0  0  0  0  0  0
   36.1240   28.1070   39.6750 C   0  0  0  0  0  0  0  0  0  0  0  0
   37.1020   28.1170   40.6990 C   0  0  0  0  0  0  0  0  0  0  0  0
   37.9090   26.9960   40.7190 C   0  0  0  0  0  0  0  0  0  0  0  0
   37.7890   25.9870   39.8570 N   0  0  0  0  0  0  0  0  0  0  0  0
   36.8240   26.0310   38.8890 C   0  0  0  0  0  0  0  0  0  0  0  0
   36.0110   27.0830   38.8100 N   0  0  0  0  0  0  0  0  0  0  0  0
   35.4500   28.9470   39.5870 H   0  0  0  0  0  0  0  0  0  0  0  0
   36.7040   25.2380   38.1840 H   0  0  0  0  0  0  0  0  0  0  0  0
   38.9210   26.9280   41.7240 C   0  0  0  0  0  0  0  0  0  0  0  0
   39.0180   26.3310   42.9480 C   0  0  0  0  0  0  0  0  0  0  0  0
   40.1140   26.4420   43.6800 C   0  0  0  0  0  0  0  0  0  0  0  0
   41.1260   27.1600   43.1740 C   0  0  0  0  0  0  0  0  0  0  0  0
   40.5040   27.7280   41.5510 S   0  0  0  0  0  0  0  0  0  0  0  0
   38.1100   25.7670   43.2480 H   0  0  0  0  0  0  0  0  0  0  0  0
   40.2570   25.9950   44.6580 H   0  0  0  0  0  0  0  0  0  0  0  0
   42.1270   27.4070   43.5630 H   0  0  0  0  0  0  0  0  0  0  0  0
  1  2  2  0  0  0  0
  1 22  1  0  0  0  0
  2  7  1  0  0  0  0
  3  2  1  0  0  0  0
  4  5  2  0  0  0  0
  4  3  1  0  0  0  0
  5  1  1  0  0  0  0
  6  9  1  0  0  0  0
  6  4  1  0  0  0  0
  8  6  1  0  0  0  0
 10  3  1  0  0  0  0
 10 11  1  0  0  0  0
 12 10  1  0  0  0  0
 13 20  1  6  0  0  0
 13 14  1  0  0  0  0
 14 16  1  0  0  0  0
 14 15  1  0  0  0  0
 16 10  1  1  0  0  0
 17 16  1  0  0  0  0
 18 13  1  0  0  0  0
 18 17  1  0  0  0  0
 19 18  1  0  0  0  0
 21 20  1  0  0  0  0
 22 23  2  0  0  0  0
 24 25  1  0  0  0  0
 25 26  2  0  0  0  0
 25 22  1  0  0  0  0
 26 32  1  0  0  0  0
 27 26  1  0  0  0  0
 28 27  2  0  0  0  0
 29 28  1  0  0  0  0
 29 24  2  0  0  0  0
 30 24  1  0  0  0  0
 31 28  1  0  0  0  0
 32 33  2  0  0  0  0
 33 37  1  0  0  0  0
 33 34  1  0  0  0  0
 34 38  1  0  0  0  0
 35 39  1  0  0  0  0
 35 34  2  0  0  0  0
 36 32  1  0  0  0  0
 36 35  1  0  0  0  0
M  END
>  <minimizedAffinity>
-6.27234602

$$$$

 OpenBabel03252503203D

 39 42  0  0  1  0  0  0  0  0999 V2000
   37.6540   29.2050   42.0900 C   0  0  0  0  0  0  0  0  0  0  0  0
   38.8710   29.8530   42.1250 C   0  0  0  0  0  0  0  0  0  0  0  0
   38.6460   31.0430   41.5310 N   0  0  0  0  0  0  0  0  0  0  0  0
   37.3520   31.1090   41.1570 C   0  0  0  0  0  0  0  0  0  0  0  0
   36.7430   29.9710   41.5040 N   0  0  0  0  0  0  0  0  0  0  0  0
   36.6410   32.1490   40.5020 N   0  0  0  0  0  0  0  0  0  0  0  0
   39.7940   29.5040   42.5270 H   0  0  0  0  0  0  0  0  0  0  0  0
   37.1430   32.4080   39.6230 H   0  0  0  0  0  0  0  0  0  0  0  0
   35.7520   32.4960   40.9720 H   0  0  0  0  0  0  0  0  0  0  0  0
   39.5830   32.1210   41.2940 C   0  0  0  0  0  0  0  0  0  0  0  0
   40.3310   32.1460   42.1120 H   0  0  0  0  0  0  0  0  0  0  0  0
   39.0070   33.0620   41.3420 H   0  0  0  0  0  0  0  0  0  0  0  0
   40.5550   32.3020   37.7110 C   0  0  1  0  0  3  0  0  0  0  0  0
   39.8090   32.8860   38.9190 C   0  0  0  0  0  3  0  0  0  0  0  0
   40.0710   33.9480   39.0820 H   0  0  0  0  0  0  0  0  0  0  0  0
   40.3280   31.9590   39.9990 C   0  0  2  0  0  3  0  0  0  0  0  0
   40.1420   30.7370   39.4060 O   0  0  0  0  0  0  0  0  0  0  0  0
   40.8460   30.9080   38.1980 C   0  0  0  0  0  3  0  0  0  0  0  0
   40.5630   30.1420   37.4510 H   0  0  0  0  0  0  0  0  0  0  0  0
   39.7990   32.3540   36.5630 O   0  0  0  0  0  0  0  0  0  0  0  0
   40.2360   32.8620   35.8100 H   0  0  0  0  0  0  0  0  0  0  0  0
   37.3730   27.8290   42.6300 C   0  0  0  0  0  0  0  0  0  0  0  0
   36.2780   27.4830   43.1630 O   0  0  0  0  0  0  0  0  0  0  0  0
   39.1910   26.5620   43.6790 C   0  0  0  0  0  0  0  0  0  0  0  0
   38.3620   26.8220   42.5610 C   0  0  0  0  0  0  0  0  0  0  0  0
   38.6240   26.0190   41.4670 C   0  0  0  0  0  0  0  0  0  0  0  0
   39.5690   25.0810   41.4520 N   0  0  0  0  0  0  0  0  0  0  0  0
   40.3410   24.8750   42.5620 C   0  0  0  0  0  0  0  0  0  0  0  0
   40.1430   25.6120   43.6530 N   0  0  0  0  0  0  0  0  0  0  0  0
   39.0540   27.1450   44.5790 H   0  0  0  0  0  0  0  0  0  0  0  0
   41.1060   24.1310   42.5800 H   0  0  0  0  0  0  0  0  0  0  0  0
   37.8310   26.2190   40.2960 C   0  0  0  0  0  0  0  0  0  0  0  0
   36.6350   25.7330   39.8540 C   0  0  0  0  0  0  0  0  0  0  0  0
   36.1290   26.1100   38.6920 C   0  0  0  0  0  0  0  0  0  0  0  0
   36.8350   26.9880   37.9650 C   0  0  0  0  0  0  0  0  0  0  0  0
   38.3210   27.3160   38.9790 S   0  0  0  0  0  0  0  0  0  0  0  0
   36.1550   25.0140   40.5510 H   0  0  0  0  0  0  0  0  0  0  0  0
   35.1870   25.7650   38.2810 H   0  0  0  0  0  0  0  0  0  0  0  0
   36.6500   27.4580   36.9860 H   0  0  0  0  0  0  0  0  0  0  0  0
  1  2  2  0  0  0  0
  1 22  1  0  0  0  0
  2  7  1  0  0  0  0
  3  2  1  0  0  0  0
  4  5  2  0  0  0  0
  4  3  1  0  0  0  0
  5  1  1  0  0  0  0
  6  9  1  0  0  0  0
  6  4  1  0  0  0  0
  8  6  1  0  0  0  0
 10 12  1  0  0  0  0
 10  3  1  0  0  0  0
 10 11  1  0  0  0  0
 13 20  1  6  0  0  0
 13 18  1  0  0  0  0
 13 14  1  0  0  0  0
 14 15  1  0  0  0  0
 14 16  1  0  0  0  0
 16 10  1  1  0  0  0
 17 16  1  0  0  0  0
 18 17  1  0  0  0  0
 19 18  1  0  0  0  0
 21 20  1  0  0  0  0
 22 23  2  0  0  0  0
 24 30  1  0  0  0  0
 25 22  1  0  0  0  0
 25 24  2  0  0  0  0
 26 25  1  0  0  0  0
 27 26  2  0  0  0  0
 27 28  1  0  0  0  0
 28 31  1  0  0  0  0
 28 29  2  0  0  0  0
 29 24  1  0  0  0  0
 32 26  1  0  0  0  0
 33 32  2  0  0  0  0
 33 37  1  0  0  0  0
 34 33  1  0  0  0  0
 35 34  2  0  0  0  0
 35 36  1  0  0  0  0
 36 32  1  0  0  0  0
 38 34  1  0  0  0  0
 39 35  1  0  0  0  0
M  END
>  <minimizedAffinity>
-6.11170864

$$$$

 OpenBabel03252503203D

 39 42  0  0  1  0  0  0  0  0999 V2000
   37.2600   30.8410   40.7310 C   0  0  0  0  0  0  0  0  0  0  0  0
   38.5550   31.2660   40.9480 C   0  0  0  0  0  0  0  0  0  0  0  0
   38.6080   32.5010   40.4080 N   0  0  0  0  0  0  0  0  0  0  0  0
   37.4000   32.8060   39.8910 C   0  0  0  0  0  0  0  0  0  0  0  0
   36.5710   31.7780   40.0930 N   0  0  0  0  0  0  0  0  0  0  0  0
   36.9610   33.9820   39.2250 N   0  0  0  0  0  0  0  0  0  0  0  0
   39.3480   30.7450   41.4310 H   0  0  0  0  0  0  0  0  0  0  0  0
   37.6060   34.1870   38.4290 H   0  0  0  0  0  0  0  0  0  0  0  0
   36.0910   34.4570   39.6100 H   0  0  0  0  0  0  0  0  0  0  0  0
   39.7340   33.4090   40.3510 C   0  0  0  0  0  0  0  0  0  0  0  0
   40.2090   33.4710   41.3510 H   0  0  0  0  0  0  0  0  0  0  0  0
   39.3280   34.4080   40.1140 H   0  0  0  0  0  0  0  0  0  0  0  0
   42.3220   33.3820   37.6820 C   0  0  1  0  0  3  0  0  0  0  0  0
   41.5630   34.1220   38.7930 C   0  0  0  0  0  3  0  0  0  0  0  0
   42.2560   34.5940   39.5130 H   0  0  0  0  0  0  0  0  0  0  0  0
   40.7840   32.9590   39.3740 C   0  0  2  0  0  3  0  0  0  0  0  0
   40.2700   32.3950   38.2340 O   0  0  0  0  0  0  0  0  0  0  0  0
   41.4410   32.1790   37.4820 C   0  0  0  0  0  3  0  0  0  0  0  0
   41.2110   32.0090   36.4130 H   0  0  0  0  0  0  0  0  0  0  0  0
   42.4820   34.1610   36.5600 O   0  0  0  0  0  0  0  0  0  0  0  0
   43.4430   34.2890   36.2860 H   0  0  0  0  0  0  0  0  0  0  0  0
   36.6880   29.5130   41.1450 C   0  0  0  0  0  0  0  0  0  0  0  0
   35.4660   29.1980   41.0360 O   0  0  0  0  0  0  0  0  0  0  0  0
   37.7020   28.4380   43.1010 C   0  0  0  0  0  0  0  0  0  0  0  0
   37.5250   28.5180   41.6990 C   0  0  0  0  0  0  0  0  0  0  0  0
   38.2270   27.5640   40.9860 C   0  0  0  0  0  0  0  0  0  0  0  0
   39.0050   26.6450   41.5560 N   0  0  0  0  0  0  0  0  0  0  0  0
   39.1390   26.6160   42.9160 C   0  0  0  0  0  0  0  0  0  0  0  0
   38.4900   27.5050   43.6660 N   0  0  0  0  0  0  0  0  0  0  0  0
   37.1890   29.1460   43.7350 H   0  0  0  0  0  0  0  0  0  0  0  0
   39.7550   25.8910   43.4010 H   0  0  0  0  0  0  0  0  0  0  0  0
   38.1040   27.5790   39.5640 C   0  0  0  0  0  0  0  0  0  0  0  0
   38.7810   28.1920   38.5490 C   0  0  0  0  0  0  0  0  0  0  0  0
   38.4320   28.0130   37.2860 C   0  0  0  0  0  0  0  0  0  0  0  0
   37.3890   27.2080   37.0400 C   0  0  0  0  0  0  0  0  0  0  0  0
   36.8510   26.6530   38.6980 S   0  0  0  0  0  0  0  0  0  0  0  0
   39.6220   28.8310   38.8900 H   0  0  0  0  0  0  0  0  0  0  0  0
   38.9240   28.4680   36.4340 H   0  0  0  0  0  0  0  0  0  0  0  0
   36.9000   26.8920   36.1040 H   0  0  0  0  0  0  0  0  0  0  0  0
  1  2  2  0  0  0  0
  1 22  1  0  0  0  0
  2  7  1  0  0  0  0
  3  2  1  0  0  0  0
  4  5  2  0  0  0  0
  4  3  1  0  0  0  0
  5  1  1  0  0  0  0
  6  9  1  0  0  0  0
  6  4  1  0  0  0  0
  8  6  1  0  0  0  0
 10  3  1  0  0  0  0
 10 11  1  0  0  0  0
 12 10  1  0  0  0  0
 13 20  1  6  0  0  0
 13 14  1  0  0  0  0
 14 16  1  0  0  0  0
 14 15  1  0  0  0  0
 16 10  1  1  0  0  0
 17 16  1  0  0  0  0
 18 13  1  0  0  0  0
 18 17  1  0  0  0  0
 19 18  1  0  0  0  0
 21 20  1  0  0  0  0
 22 25  1  0  0  0  0
 23 22  2  0  0  0  0
 24 29  1  0  0  0  0
 24 30  1  0  0  0  0
 25 24  2  0  0  0  0
 26 27  2  0  0  0  0
 26 25  1  0  0  0  0
 27 28  1  0  0  0  0
 28 31  1  0  0  0  0
 28 29  2  0  0  0  0
 32 26  1  0  0  0  0
 33 37  1  0  0  0  0
 33 32  2  0  0  0  0
 34 33  1  0  0  0  0
 35 34  2  0  0  0  0
 35 36  1  0  0  0  0
 36 32  1  0  0  0  0
 38 34  1  0  0  0  0
 39 35  1  0  0  0  0
M  END
>  <minimizedAffinity>
-6.07660961

$$$$

 OpenBabel03252503203D

 39 42  0  0  1  0  0  0  0  0999 V2000
   36.3240   30.2410   39.1030 C   0  0  0  0  0  0  0  0  0  0  0  0
   36.7680   31.2290   39.9570 C   0  0  0  0  0  0  0  0  0  0  0  0
   37.5190   32.0410   39.1840 N   0  0  0  0  0  0  0  0  0  0  0  0
   37.5250   31.5630   37.9230 C   0  0  0  0  0  0  0  0  0  0  0  0
   36.7850   30.4510   37.8780 N   0  0  0  0  0  0  0  0  0  0  0  0
   38.1660   32.0640   36.7580 N   0  0  0  0  0  0  0  0  0  0  0  0
   36.5710   31.3400   40.9980 H   0  0  0  0  0  0  0  0  0  0  0  0
   39.1840   32.1940   36.9550 H   0  0  0  0  0  0  0  0  0  0  0  0
   37.5550   32.2260   35.9040 H   0  0  0  0  0  0  0  0  0  0  0  0
   38.2320   33.2400   39.5690 C   0  0  0  0  0  0  0  0  0  0  0  0
   37.8510   33.6000   40.5460 H   0  0  0  0  0  0  0  0  0  0  0  0
   37.9930   34.0110   38.8150 H   0  0  0  0  0  0  0  0  0  0  0  0
   41.5850   32.4770   40.9820 C   0  0  1  0  0  3  0  0  0  0  0  0
   40.0580   32.3220   41.0190 C   0  0  0  0  0  3  0  0  0  0  0  0
   39.7590   31.2590   41.0560 H   0  0  0  0  0  0  0  0  0  0  0  0
   39.7100   33.0070   39.7130 C   0  0  2  0  0  3  0  0  0  0  0  0
   40.4420   34.1610   39.8210 O   0  0  0  0  0  0  0  0  0  0  0  0
   41.7340   33.6480   40.0480 C   0  0  0  0  0  3  0  0  0  0  0  0
   42.4120   34.4200   40.4590 H   0  0  0  0  0  0  0  0  0  0  0  0
   42.1140   32.6810   42.2350 O   0  0  0  0  0  0  0  0  0  0  0  0
   42.8050   31.9980   42.5020 H   0  0  0  0  0  0  0  0  0  0  0  0
   35.4440   29.0800   39.4820 C   0  0  0  0  0  0  0  0  0  0  0  0
   34.3130   29.1960   40.0400 O   0  0  0  0  0  0  0  0  0  0  0  0
   35.4480   27.1010   38.0340 C   0  0  0  0  0  0  0  0  0  0  0  0
   35.8610   27.7550   39.2200 C   0  0  0  0  0  0  0  0  0  0  0  0
   36.6700   26.9870   40.0350 C   0  0  0  0  0  0  0  0  0  0  0  0
   37.0370   25.7400   39.7430 N   0  0  0  0  0  0  0  0  0  0  0  0
   36.6060   25.1580   38.5830 C   0  0  0  0  0  0  0  0  0  0  0  0
   35.8240   25.8420   37.7490 N   0  0  0  0  0  0  0  0  0  0  0  0
   34.8120   27.6310   37.3390 H   0  0  0  0  0  0  0  0  0  0  0  0
   36.8830   24.1610   38.3220 H   0  0  0  0  0  0  0  0  0  0  0  0
   37.1290   27.5740   41.2530 C   0  0  0  0  0  0  0  0  0  0  0  0
   36.6060   27.7130   42.5070 C   0  0  0  0  0  0  0  0  0  0  0  0
   37.2820   28.3200   43.4670 C   0  0  0  0  0  0  0  0  0  0  0  0
   38.4990   28.7930   43.1650 C   0  0  0  0  0  0  0  0  0  0  0  0
   38.7230   28.3580   41.4020 S   0  0  0  0  0  0  0  0  0  0  0  0
   35.5920   27.2780   42.6230 H   0  0  0  0  0  0  0  0  0  0  0  0
   36.9280   28.4650   44.4820 H   0  0  0  0  0  0  0  0  0  0  0  0
   39.2570   29.3260   43.7610 H   0  0  0  0  0  0  0  0  0  0  0  0
  1 22  1  0  0  0  0
  1  2  2  0  0  0  0
  2  7  1  0  0  0  0
  3 10  1  0  0  0  0
  3  2  1  0  0  0  0
  4  3  1  0  0  0  0
  5  4  2  0  0  0  0
  5  1  1  0  0  0  0
  6  8  1  0  0  0  0
  6  4  1  0  0  0  0
  9  6  1  0  0  0  0
 10 11  1  0  0  0  0
 12 10  1  0  0  0  0
 13 14  1  0  0  0  0
 13 20  1  1  0  0  0
 14 15  1  0  0  0  0
 16 10  1  1  0  0  0
 16 17  1  0  0  0  0
 16 14  1  0  0  0  0
 17 18  1  0  0  0  0
 18 19  1  0  0  0  0
 18 13  1  0  0  0  0
 20 21  1  0  0  0  0
 22 23  2  0  0  0  0
 24 25  1  0  0  0  0
 25 22  1  0  0  0  0
 25 26  2  0  0  0  0
 26 32  1  0  0  0  0
 27 26  1  0  0  0  0
 28 27  2  0  0  0  0
 29 24  2  0  0  0  0
 29 28  1  0  0  0  0
 30 24  1  0  0  0  0
 31 28  1  0  0  0  0
 32 36  1  0  0  0  0
 32 33  2  0  0  0  0
 33 37  1  0  0  0  0
 33 34  1  0  0  0  0
 34 38  1  0  0  0  0
 35 34  2  0  0  0  0
 35 39  1  0  0  0  0
 36 35  1  0  0  0  0
M  END
>  <minimizedAffinity>
-5.92973804

$$$$

 OpenBabel03252503203D

 39 42  0  0  1  0  0  0  0  0999 V2000
   37.6330   31.4770   40.6750 C   0  0  0  0  0  0  0  0  0  0  0  0
   38.2330   30.7170   41.6580 C   0  0  0  0  0  0  0  0  0  0  0  0
   37.3470   29.7340   41.9220 N   0  0  0  0  0  0  0  0  0  0  0  0
   36.2660   29.8940   41.1330 C   0  0  0  0  0  0  0  0  0  0  0  0
   36.4470   30.9720   40.3640 N   0  0  0  0  0  0  0  0  0  0  0  0
   35.0780   29.1200   41.0410 N   0  0  0  0  0  0  0  0  0  0  0  0
   39.1830   30.8620   42.1180 H   0  0  0  0  0  0  0  0  0  0  0  0
   34.6530   29.0290   41.9910 H   0  0  0  0  0  0  0  0  0  0  0  0
   34.8080   28.7650   40.0750 H   0  0  0  0  0  0  0  0  0  0  0  0
   37.4640   28.6530   42.8780 C   0  0  0  0  0  0  0  0  0  0  0  0
   36.4520   28.3430   43.2090 H   0  0  0  0  0  0  0  0  0  0  0  0
   37.9900   29.0610   43.7590 H   0  0  0  0  0  0  0  0  0  0  0  0
   38.2610   25.1600   41.8860 C   0  0  1  0  0  3  0  0  0  0  0  0
   37.2300   26.2400   42.2460 C   0  0  0  0  0  3  0  0  0  0  0  0
   36.4390   26.3170   41.4780 H   0  0  0  0  0  0  0  0  0  0  0  0
   38.1450   27.4450   42.2990 C   0  0  2  0  0  3  0  0  0  0  0  0
   39.1660   26.9630   43.0770 O   0  0  0  0  0  0  0  0  0  0  0  0
   39.5330   25.8060   42.3630 C   0  0  0  0  0  3  0  0  0  0  0  0
   40.1370   25.1190   42.9870 H   0  0  0  0  0  0  0  0  0  0  0  0
   37.9770   23.9550   42.4850 O   0  0  0  0  0  0  0  0  0  0  0  0
   37.8640   23.1930   41.8350 H   0  0  0  0  0  0  0  0  0  0  0  0
   38.2180   32.7050   40.0320 C   0  0  0  0  0  0  0  0  0  0  0  0
   37.6250   33.8220   39.9600 O   0  0  0  0  0  0  0  0  0  0  0  0
   40.5620   33.4260   40.0160 C   0  0  0  0  0  0  0  0  0  0  0  0
   39.5080   32.6630   39.4560 C   0  0  0  0  0  0  0  0  0  0  0  0
   39.8760   31.9200   38.3500 C   0  0  0  0  0  0  0  0  0  0  0  0
   41.1080   31.9130   37.8460 N   0  0  0  0  0  0  0  0  0  0  0  0
   42.0860   32.6710   38.4280 C   0  0  0  0  0  0  0  0  0  0  0  0
   41.8030   33.4110   39.4980 N   0  0  0  0  0  0  0  0  0  0  0  0
   40.3610   34.0360   40.8850 H   0  0  0  0  0  0  0  0  0  0  0  0
   43.0830   32.6860   38.0450 H   0  0  0  0  0  0  0  0  0  0  0  0
   38.8690   31.1240   37.7250 C   0  0  0  0  0  0  0  0  0  0  0  0
   37.7630   31.3950   36.9720 C   0  0  0  0  0  0  0  0  0  0  0  0
   36.9930   30.4240   36.5110 C   0  0  0  0  0  0  0  0  0  0  0  0
   37.3380   29.1640   36.8120 C   0  0  0  0  0  0  0  0  0  0  0  0
   38.8570   29.3440   37.8150 S   0  0  0  0  0  0  0  0  0  0  0  0
   37.5910   32.4780   36.7970 H   0  0  0  0  0  0  0  0  0  0  0  0
   36.1020   30.5680   35.9090 H   0  0  0  0  0  0  0  0  0  0  0  0
   36.8850   28.1910   36.5630 H   0  0  0  0  0  0  0  0  0  0  0  0
  1  2  2  0  0  0  0
  2  3  1  0  0  0  0
  2  7  1  0  0  0  0
  3 10  1  0  0  0  0
  4  3  1  0  0  0  0
  5  1  1  0  0  0  0
  5  4  2  0  0  0  0
  6  4  1  0  0  0  0
  6  8  1  0  0  0  0
  9  6  1  0  0  0  0
 10 11  1  0  0  0  0
 10 12  1  0  0  0  0
 13 14  1  0  0  0  0
 13 18  1  0  0  0  0
 13 20  1  1  0  0  0
 14 16  1  0  0  0  0
 15 14  1  0  0  0  0
 16 10  1  1  0  0  0
 16 17  1  0  0  0  0
 18 19  1  0  0  0  0
 18 17  1  0  0  0  0
 21 20  1  0  0  0  0
 22  1  1  0  0  0  0
 23 22  2  0  0  0  0
 24 30  1  0  0  0  0
 25 24  2  0  0  0  0
 25 22  1  0  0  0  0
 26 25  1  0  0  0  0
 27 26  2  0  0  0  0
 27 28  1  0  0  0  0
 28 29  2  0  0  0  0
 29 24  1  0  0  0  0
 31 28  1  0  0  0  0
 32 36  1  0  0  0  0
 32 26  1  0  0  0  0
 33 32  2  0  0  0  0
 34 35  2  0  0  0  0
 34 33  1  0  0  0  0
 35 36  1  0  0  0  0
 37 33  1  0  0  0  0
 38 34  1  0  0  0  0
 39 35  1  0  0  0  0
M  END
>  <minimizedAffinity>
-5.79016447

$$$$

 OpenBabel03252503203D

 39 42  0  0  1  0  0  0  0  0999 V2000
   38.2890   28.7610   41.7520 C   0  0  0  0  0  0  0  0  0  0  0  0
   38.7740   29.3100   40.5830 C   0  0  0  0  0  0  0  0  0  0  0  0
   37.8740   30.2570   40.2470 N   0  0  0  0  0  0  0  0  0  0  0  0
   36.8930   30.2770   41.1720 C   0  0  0  0  0  0  0  0  0  0  0  0
   37.1530   29.3510   42.1000 N   0  0  0  0  0  0  0  0  0  0  0  0
   35.7330   31.0930   41.2570 N   0  0  0  0  0  0  0  0  0  0  0  0
   39.6610   29.0530   40.0510 H   0  0  0  0  0  0  0  0  0  0  0  0
   35.1980   31.0240   40.3620 H   0  0  0  0  0  0  0  0  0  0  0  0
   35.5840   31.6250   42.1650 H   0  0  0  0  0  0  0  0  0  0  0  0
   37.8860   31.1410   39.1020 C   0  0  0  0  0  0  0  0  0  0  0  0
   36.8490   31.2850   38.7350 H   0  0  0  0  0  0  0  0  0  0  0  0
   38.4510   30.6260   38.3060 H   0  0  0  0  0  0  0  0  0  0  0  0
   40.1700   33.8810   40.1480 C   0  0  1  0  0  3  0  0  0  0  0  0
   39.9540   32.4780   39.5650 C   0  0  0  0  0  3  0  0  0  0  0  0
   40.4840   32.3530   38.6020 H   0  0  0  0  0  0  0  0  0  0  0  0
   38.4450   32.4970   39.4290 C   0  0  2  0  0  3  0  0  0  0  0  0
   38.0790   32.9600   40.6670 O   0  0  0  0  0  0  0  0  0  0  0  0
   38.8150   34.1580   40.7420 C   0  0  0  0  0  3  0  0  0  0  0  0
   38.8880   34.5260   41.7830 H   0  0  0  0  0  0  0  0  0  0  0  0
   41.2030   33.9100   41.0550 O   0  0  0  0  0  0  0  0  0  0  0  0
   41.9330   34.5650   40.8210 H   0  0  0  0  0  0  0  0  0  0  0  0
   38.9330   27.6510   42.5370 C   0  0  0  0  0  0  0  0  0  0  0  0
   38.5440   27.2670   43.6800 O   0  0  0  0  0  0  0  0  0  0  0  0
   41.3590   27.4460   42.2400 C   0  0  0  0  0  0  0  0  0  0  0  0
   40.0490   26.9600   42.0110 C   0  0  0  0  0  0  0  0  0  0  0  0
   40.0010   25.8020   41.2580 C   0  0  0  0  0  0  0  0  0  0  0  0
   41.0830   25.1880   40.7840 N   0  0  0  0  0  0  0  0  0  0  0  0
   42.3240   25.7040   41.0370 C   0  0  0  0  0  0  0  0  0  0  0  0
   42.4450   26.8180   41.7570 N   0  0  0  0  0  0  0  0  0  0  0  0
   41.4880   28.3480   42.8210 H   0  0  0  0  0  0  0  0  0  0  0  0
   43.2100   25.2340   40.6700 H   0  0  0  0  0  0  0  0  0  0  0  0
   38.7150   25.2480   40.9800 C   0  0  0  0  0  0  0  0  0  0  0  0
   37.8790   24.3900   41.6350 C   0  0  0  0  0  0  0  0  0  0  0  0
   36.7100   24.0450   41.1210 C   0  0  0  0  0  0  0  0  0  0  0  0
   36.3780   24.5690   39.9330 C   0  0  0  0  0  0  0  0  0  0  0  0
   37.8040   25.6270   39.4960 S   0  0  0  0  0  0  0  0  0  0  0  0
   38.2750   24.0290   42.6080 H   0  0  0  0  0  0  0  0  0  0  0  0
   36.0000   23.3700   41.5860 H   0  0  0  0  0  0  0  0  0  0  0  0
   35.4870   24.4540   39.2950 H   0  0  0  0  0  0  0  0  0  0  0  0
  1  5  1  0  0  0  0
  1 22  1  0  0  0  0
  2  1  2  0  0  0  0
  3  2  1  0  0  0  0
  3  4  1  0  0  0  0
  4  6  1  0  0  0  0
  4  5  2  0  0  0  0
  6  9  1  0  0  0  0
  7  2  1  0  0  0  0
  8  6  1  0  0  0  0
 10  3  1  0  0  0  0
 11 10  1  0  0  0  0
 12 10  1  0  0  0  0
 13 18  1  0  0  0  0
 13 20  1  1  0  0  0
 14 13  1  0  0  0  0
 15 14  1  0  0  0  0
 16 10  1  1  0  0  0
 16 14  1  0  0  0  0
 16 17  1  0  0  0  0
 17 18  1  0  0  0  0
 18 19  1  0  0  0  0
 21 20  1  0  0  0  0
 22 23  2  0  0  0  0
 24 30  1  0  0  0  0
 25 24  1  0  0  0  0
 25 22  1  0  0  0  0
 26 25  2  0  0  0  0
 27 28  2  0  0  0  0
 27 26  1  0  0  0  0
 28 29  1  0  0  0  0
 29 24  2  0  0  0  0
 31 28  1  0  0  0  0
 32 26  1  0  0  0  0
 32 33  2  0  0  0  0
 33 37  1  0  0  0  0
 34 38  1  0  0  0  0
 34 33  1  0  0  0  0
 35 34  2  0  0  0  0
 36 35  1  0  0  0  0
 36 32  1  0  0  0  0
 39 35  1  0  0  0  0
M  END
>  <minimizedAffinity>
-5.75771093

$$$$

 OpenBabel03252503203D

 39 42  0  0  1  0  0  0  0  0999 V2000
   37.4970   26.1330   41.4630 C   0  0  0  0  0  0  0  0  0  0  0  0
   36.8100   26.8650   40.5160 C   0  0  0  0  0  0  0  0  0  0  0  0
   36.5100   28.0280   41.1290 N   0  0  0  0  0  0  0  0  0  0  0  0
   36.9960   27.9990   42.3870 C   0  0  0  0  0  0  0  0  0  0  0  0
   37.6050   26.8260   42.5880 N   0  0  0  0  0  0  0  0  0  0  0  0
   36.9370   28.9790   43.4130 N   0  0  0  0  0  0  0  0  0  0  0  0
   36.5620   26.5850   39.5180 H   0  0  0  0  0  0  0  0  0  0  0  0
   35.9420   29.2600   43.5630 H   0  0  0  0  0  0  0  0  0  0  0  0
   37.8590   29.2690   43.8560 H   0  0  0  0  0  0  0  0  0  0  0  0
   35.7900   29.1650   40.5960 C   0  0  0  0  0  0  0  0  0  0  0  0
   35.1910   29.6330   41.4030 H   0  0  0  0  0  0  0  0  0  0  0  0
   35.0830   28.7710   39.8440 H   0  0  0  0  0  0  0  0  0  0  0  0
   37.4270   32.4200   39.8610 C   0  0  1  0  0  3  0  0  0  0  0  0
   36.6180   31.5200   40.8060 C   0  0  0  0  0  3  0  0  0  0  0  0
   37.0750   31.4750   41.8120 H   0  0  0  0  0  0  0  0  0  0  0  0
   36.7070   30.2170   40.0400 C   0  0  2  0  0  3  0  0  0  0  0  0
   36.3680   30.6320   38.7780 O   0  0  0  0  0  0  0  0  0  0  0  0
   37.3040   31.6630   38.5660 C   0  0  0  0  0  3  0  0  0  0  0  0
   37.0020   32.3210   37.7290 H   0  0  0  0  0  0  0  0  0  0  0  0
   36.9290   33.7010   39.8170 O   0  0  0  0  0  0  0  0  0  0  0  0
   37.6000   34.4090   40.0700 H   0  0  0  0  0  0  0  0  0  0  0  0
   38.0530   24.7480   41.2720 C   0  0  0  0  0  0  0  0  0  0  0  0
   37.7100   23.7430   41.9610 O   0  0  0  0  0  0  0  0  0  0  0  0
   38.6610   23.8220   39.0850 C   0  0  0  0  0  0  0  0  0  0  0  0
   39.0230   24.5000   40.2740 C   0  0  0  0  0  0  0  0  0  0  0  0
   40.3540   24.8650   40.3330 C   0  0  0  0  0  0  0  0  0  0  0  0
   41.2300   24.6090   39.3630 N   0  0  0  0  0  0  0  0  0  0  0  0
   40.8250   23.9490   38.2360 C   0  0  0  0  0  0  0  0  0  0  0  0
   39.5540   23.5680   38.1120 N   0  0  0  0  0  0  0  0  0  0  0  0
   37.6380   23.5000   38.9570 H   0  0  0  0  0  0  0  0  0  0  0  0
   41.5040   23.7290   37.4430 H   0  0  0  0  0  0  0  0  0  0  0  0
   40.8000   25.5520   41.5020 C   0  0  0  0  0  0  0  0  0  0  0  0
   41.0940   25.1760   42.7820 C   0  0  0  0  0  0  0  0  0  0  0  0
   41.4990   26.0590   43.6790 C   0  0  0  0  0  0  0  0  0  0  0  0
   41.6110   27.3360   43.2860 C   0  0  0  0  0  0  0  0  0  0  0  0
   41.1120   27.3070   41.5260 S   0  0  0  0  0  0  0  0  0  0  0  0
   40.9590   24.0920   42.9750 H   0  0  0  0  0  0  0  0  0  0  0  0
   41.7490   25.8290   44.7090 H   0  0  0  0  0  0  0  0  0  0  0  0
   41.9200   28.2510   43.8170 H   0  0  0  0  0  0  0  0  0  0  0  0
  1  5  1  0  0  0  0
  2  3  1  0  0  0  0
  2  1  2  0  0  0  0
  3  4  1  0  0  0  0
  4  5  2  0  0  0  0
  4  6  1  0  0  0  0
  6  8  1  0  0  0  0
  6  9  1  0  0  0  0
  7  2  1  0  0  0  0
 10  3  1  0  0  0  0
 10 11  1  0  0  0  0
 12 10  1  0  0  0  0
 13 20  1  6  0  0  0
 13 14  1  0  0  0  0
 14 15  1  0  0  0  0
 16 10  1  1  0  0  0
 16 14  1  0  0  0  0
 17 16  1  0  0  0  0
 18 17  1  0  0  0  0
 18 13  1  0  0  0  0
 19 18  1  0  0  0  0
 20 21  1  0  0  0  0
 22  1  1  0  0  0  0
 22 23  2  0  0  0  0
 24 25  1  0  0  0  0
 25 26  2  0  0  0  0
 25 22  1  0  0  0  0
 26 32  1  0  0  0  0
 27 26  1  0  0  0  0
 28 27  2  0  0  0  0
 29 28  1  0  0  0  0
 29 24  2  0  0  0  0
 30 24  1  0  0  0  0
 31 28  1  0  0  0  0
 32 36  1  0  0  0  0
 32 33  2  0  0  0  0
 33 37  1  0  0  0  0
 33 34  1  0  0  0  0
 34 38  1  0  0  0  0
 35 34  2  0  0  0  0
 35 39  1  0  0  0  0
 36 35  1  0  0  0  0
M  END
>  <minimizedAffinity>
-5.67846155

$$$$

 OpenBabel03252503203D

 39 42  0  0  1  0  0  0  0  0999 V2000
   38.7860   31.6770   39.9600 C   0  0  0  0  0  0  0  0  0  0  0  0
   38.7180   30.3580   39.5620 C   0  0  0  0  0  0  0  0  0  0  0  0
   37.5320   29.9170   40.0310 N   0  0  0  0  0  0  0  0  0  0  0  0
   36.9140   30.9250   40.6790 C   0  0  0  0  0  0  0  0  0  0  0  0
   37.6930   32.0100   40.6330 N   0  0  0  0  0  0  0  0  0  0  0  0
   35.6560   30.9530   41.3370 N   0  0  0  0  0  0  0  0  0  0  0  0
   39.4360   29.7980   39.0090 H   0  0  0  0  0  0  0  0  0  0  0  0
   35.6160   30.1770   42.0360 H   0  0  0  0  0  0  0  0  0  0  0  0
   34.9750   31.7140   41.0420 H   0  0  0  0  0  0  0  0  0  0  0  0
   36.9510   28.5970   39.9030 C   0  0  0  0  0  0  0  0  0  0  0  0
   37.3430   28.1080   38.9880 H   0  0  0  0  0  0  0  0  0  0  0  0
   35.8640   28.7390   39.7640 H   0  0  0  0  0  0  0  0  0  0  0  0
   37.2290   25.6570   42.1600 C   0  0  1  0  0  3  0  0  0  0  0  0
   37.0900   26.2420   40.7470 C   0  0  0  0  0  3  0  0  0  0  0  0
   37.8570   25.8370   40.0630 H   0  0  0  0  0  0  0  0  0  0  0  0
   37.2780   27.7100   41.0700 C   0  0  2  0  0  3  0  0  0  0  0  0
   36.4220   27.8560   42.1310 O   0  0  0  0  0  0  0  0  0  0  0  0
   36.8910   26.8550   43.0040 C   0  0  0  0  0  3  0  0  0  0  0  0
   36.1440   26.6140   43.7840 H   0  0  0  0  0  0  0  0  0  0  0  0
   36.4010   24.5750   42.3540 O   0  0  0  0  0  0  0  0  0  0  0  0
   36.8870   23.7340   42.6220 H   0  0  0  0  0  0  0  0  0  0  0  0
   39.9230   32.6230   39.6850 C   0  0  0  0  0  0  0  0  0  0  0  0
   39.9770   33.8150   40.1090 O   0  0  0  0  0  0  0  0  0  0  0  0
   41.0470   32.4450   37.5130 C   0  0  0  0  0  0  0  0  0  0  0  0
   41.0270   32.2030   38.9090 C   0  0  0  0  0  0  0  0  0  0  0  0
   42.1470   31.5480   39.3840 C   0  0  0  0  0  0  0  0  0  0  0  0
   43.1630   31.1730   38.6090 N   0  0  0  0  0  0  0  0  0  0  0  0
   43.1280   31.4320   37.2670 C   0  0  0  0  0  0  0  0  0  0  0  0
   42.0790   32.0610   36.7400 N   0  0  0  0  0  0  0  0  0  0  0  0
   40.2090   32.9530   37.0580 H   0  0  0  0  0  0  0  0  0  0  0  0
   43.9280   31.1430   36.6210 H   0  0  0  0  0  0  0  0  0  0  0  0
   42.2030   31.2640   40.7820 C   0  0  0  0  0  0  0  0  0  0  0  0
   41.8500   30.1980   41.5580 C   0  0  0  0  0  0  0  0  0  0  0  0
   42.0260   30.2170   42.8690 C   0  0  0  0  0  0  0  0  0  0  0  0
   42.5630   31.3220   43.4060 C   0  0  0  0  0  0  0  0  0  0  0  0
   42.8480   32.4220   41.9730 S   0  0  0  0  0  0  0  0  0  0  0  0
   41.4170   29.3490   40.9890 H   0  0  0  0  0  0  0  0  0  0  0  0
   41.7690   29.4080   43.5430 H   0  0  0  0  0  0  0  0  0  0  0  0
   42.8130   31.5960   44.4440 H   0  0  0  0  0  0  0  0  0  0  0  0
  1  5  1  0  0  0  0
  2  1  2  0  0  0  0
  2  3  1  0  0  0  0
  3  4  1  0  0  0  0
  4  6  1  0  0  0  0
  5  4  2  0  0  0  0
  6  8  1  0  0  0  0
  7  2  1  0  0  0  0
  9  6  1  0  0  0  0
 10  3  1  0  0  0  0
 11 10  1  0  0  0  0
 12 10  1  0  0  0  0
 13 20  1  6  0  0  0
 13 18  1  0  0  0  0
 14 16  1  0  0  0  0
 14 13  1  0  0  0  0
 15 14  1  0  0  0  0
 16 10  1  6  0  0  0
 16 17  1  0  0  0  0
 17 18  1  0  0  0  0
 18 19  1  0  0  0  0
 20 21  1  0  0  0  0
 22  1  1  0  0  0  0
 22 23  2  0  0  0  0
 24 25  1  0  0  0  0
 25 26  2  0  0  0  0
 25 22  1  0  0  0  0
 26 32  1  0  0  0  0
 27 26  1  0  0  0  0
 28 27  2  0  0  0  0
 29 28  1  0  0  0  0
 29 24  2  0  0  0  0
 30 24  1  0  0  0  0
 31 28  1  0  0  0  0
 32 33  2  0  0  0  0
 32 36  1  0  0  0  0
 33 34  1  0  0  0  0
 34 35  2  0  0  0  0
 34 38  1  0  0  0  0
 35 39  1  0  0  0  0
 36 35  1  0  0  0  0
 37 33  1  0  0  0  0
M  END
>  <minimizedAffinity>
-5.59266853

$$$$

 OpenBabel03252503203D

 39 42  0  0  1  0  0  0  0  0999 V2000
   39.4830   29.8650   42.1660 C   0  0  0  0  0  0  0  0  0  0  0  0
   40.2520   29.5930   41.0530 C   0  0  0  0  0  0  0  0  0  0  0  0
   41.3340   30.3880   41.1780 N   0  0  0  0  0  0  0  0  0  0  0  0
   41.2220   31.1050   42.3140 C   0  0  0  0  0  0  0  0  0  0  0  0
   40.0770   30.7790   42.9210 N   0  0  0  0  0  0  0  0  0  0  0  0
   42.1000   32.0700   42.8770 N   0  0  0  0  0  0  0  0  0  0  0  0
   40.0480   28.9090   40.2610 H   0  0  0  0  0  0  0  0  0  0  0  0
   42.3030   32.8070   42.1640 H   0  0  0  0  0  0  0  0  0  0  0  0
   42.4060   31.9140   43.8830 H   0  0  0  0  0  0  0  0  0  0  0  0
   42.4660   30.5120   40.2840 C   0  0  0  0  0  0  0  0  0  0  0  0
   42.6110   29.5580   39.7380 H   0  0  0  0  0  0  0  0  0  0  0  0
   43.3570   30.6700   40.9170 H   0  0  0  0  0  0  0  0  0  0  0  0
   41.0050   32.7000   37.6580 C   0  0  1  0  0  3  0  0  0  0  0  0
   40.8250   31.7520   38.8530 C   0  0  0  0  0  3  0  0  0  0  0  0
   40.1880   32.2030   39.6370 H   0  0  0  0  0  0  0  0  0  0  0  0
   42.2750   31.5980   39.2640 C   0  0  2  0  0  3  0  0  0  0  0  0
   42.8610   31.3270   38.0540 O   0  0  0  0  0  0  0  0  0  0  0  0
   42.4380   32.4310   37.2890 C   0  0  0  0  0  3  0  0  0  0  0  0
   42.5570   32.2440   36.2050 H   0  0  0  0  0  0  0  0  0  0  0  0
   40.1020   32.4400   36.6540 O   0  0  0  0  0  0  0  0  0  0  0  0
   39.5270   33.2300   36.4080 H   0  0  0  0  0  0  0  0  0  0  0  0
   38.1580   29.2330   42.4970 C   0  0  0  0  0  0  0  0  0  0  0  0
   37.8340   28.8210   43.6500 O   0  0  0  0  0  0  0  0  0  0  0  0
   36.3320   30.1420   41.1380 C   0  0  0  0  0  0  0  0  0  0  0  0
   37.1780   29.0630   41.4930 C   0  0  0  0  0  0  0  0  0  0  0  0
   36.9430   27.9030   40.7810 C   0  0  0  0  0  0  0  0  0  0  0  0
   36.0050   27.7940   39.8410 N   0  0  0  0  0  0  0  0  0  0  0  0
   35.2150   28.8690   39.5400 C   0  0  0  0  0  0  0  0  0  0  0  0
   35.3880   30.0200   40.1870 N   0  0  0  0  0  0  0  0  0  0  0  0
   36.4480   31.0880   41.6460 H   0  0  0  0  0  0  0  0  0  0  0  0
   34.4560   28.8120   38.7920 H   0  0  0  0  0  0  0  0  0  0  0  0
   37.7540   26.7670   41.0810 C   0  0  0  0  0  0  0  0  0  0  0  0
   38.9650   26.3120   40.6460 C   0  0  0  0  0  0  0  0  0  0  0  0
   39.4880   25.1930   41.1190 C   0  0  0  0  0  0  0  0  0  0  0  0
   38.7840   24.5230   42.0420 C   0  0  0  0  0  0  0  0  0  0  0  0
   37.2740   25.5300   42.2710 S   0  0  0  0  0  0  0  0  0  0  0  0
   39.4420   26.9610   39.8810 H   0  0  0  0  0  0  0  0  0  0  0  0
   40.4420   24.7760   40.8170 H   0  0  0  0  0  0  0  0  0  0  0  0
   38.9810   23.5870   42.5890 H   0  0  0  0  0  0  0  0  0  0  0  0
  1 22  1  0  0  0  0
  1  5  1  0  0  0  0
  2  3  1  0  0  0  0
  2  1  2  0  0  0  0
  3  4  1  0  0  0  0
  4  6  1  0  0  0  0
  4  5  2  0  0  0  0
  6  9  1  0  0  0  0
  7  2  1  0  0  0  0
  8  6  1  0  0  0  0
 10 12  1  0  0  0  0
 10  3  1  0  0  0  0
 11 10  1  0  0  0  0
 13 20  1  6  0  0  0
 13 14  1  0  0  0  0
 14 16  1  0  0  0  0
 14 15  1  0  0  0  0
 16 10  1  1  0  0  0
 17 16  1  0  0  0  0
 18 13  1  0  0  0  0
 18 17  1  0  0  0  0
 19 18  1  0  0  0  0
 21 20  1  0  0  0  0
 22 23  2  0  0  0  0
 24 25  1  0  0  0  0
 24 30  1  0  0  0  0
 25 22  1  0  0  0  0
 26 32  1  0  0  0  0
 26 25  2  0  0  0  0
 27 26  1  0  0  0  0
 28 27  2  0  0  0  0
 28 29  1  0  0  0  0
 29 24  2  0  0  0  0
 31 28  1  0  0  0  0
 32 36  1  0  0  0  0
 33 32  2  0  0  0  0
 33 34  1  0  0  0  0
 34 35  2  0  0  0  0
 35 36  1  0  0  0  0
 35 39  1  0  0  0  0
 37 33  1  0  0  0  0
 38 34  1  0  0  0  0
M  END
>  <minimizedAffinity>
-5.4612546

$$$$
