
 OpenBabel03252501023D

 25 27  0  0  1  0  0  0  0  0999 V2000
   36.8450   28.0160   42.1620 C   0  0  1  0  0  0  0  0  0  0  0  0
   37.8630   28.1520   43.2730 C   0  0  0  0  0  0  0  0  0  0  0  0
   37.9770   28.9070   41.9380 C   0  0  2  0  0  0  0  0  0  0  0  0
   35.8360   28.4310   42.3510 H   0  0  0  0  0  0  0  0  0  0  0  0
   37.4790   28.6540   44.1610 H   0  0  0  0  0  0  0  0  0  0  0  0
   38.5390   27.2980   43.4650 H   0  0  0  0  0  0  0  0  0  0  0  0
   38.8050   28.4580   41.3030 H   0  0  0  0  0  0  0  0  0  0  0  0
   37.0850   24.3040   41.5490 C   0  0  0  0  0  0  0  0  0  0  0  0
   37.1050   25.5120   42.2690 C   0  0  0  0  0  0  0  0  0  0  0  0
   36.8690   26.6520   41.5210 C   0  0  0  0  0  0  0  0  0  0  0  0
   36.6350   26.5490   40.1690 N   0  0  0  0  0  0  0  0  0  0  0  0
   36.6250   25.3620   39.5240 C   0  0  0  0  0  0  0  0  0  0  0  0
   36.8550   24.2390   40.2400 N   0  0  0  0  0  0  0  0  0  0  0  0
   37.2650   23.3780   42.0880 H   0  0  0  0  0  0  0  0  0  0  0  0
   37.2900   25.5700   43.3310 H   0  0  0  0  0  0  0  0  0  0  0  0
   36.4220   25.5110   38.4720 H   0  0  0  0  0  0  0  0  0  0  0  0
   36.8490   30.8090   40.8740 C   0  0  2  0  0  3  0  0  0  0  0  0
   37.8750   30.3900   41.9050 C   0  0  2  0  0  3  0  0  0  0  0  0
   39.0970   31.1300   41.4380 C   0  0  0  0  0  3  0  0  0  0  0  0
   39.6740   30.6470   40.6440 H   0  0  0  0  0  0  0  0  0  0  0  0
   38.6470   32.3300   40.8950 O   0  0  0  0  0  0  0  0  0  0  0  0
   37.3670   32.1320   40.4210 C   0  0  0  0  0  3  0  0  0  0  0  0
   37.4130   32.1070   39.3070 H   0  0  0  0  0  0  0  0  0  0  0  0
   35.5850   30.9260   41.4260 O   0  0  0  0  0  0  0  0  0  0  0  0
   35.0090   31.3370   40.7310 H   0  0  0  0  0  0  0  0  0  0  0  0
  1  4  1  1  0  0  0
  1  2  1  0  0  0  0
  2  6  1  0  0  0  0
  2  5  1  0  0  0  0
  3  7  1  6  0  0  0
  3  1  1  0  0  0  0
  3  2  1  0  0  0  0
  8 14  1  0  0  0  0
  8  9  1  0  0  0  0
  9 15  1  0  0  0  0
 10  1  1  0  0  0  0
 10  9  2  0  0  0  0
 11 10  1  0  0  0  0
 12 11  2  0  0  0  0
 12 13  1  0  0  0  0
 13  8  2  0  0  0  0
 16 12  1  0  0  0  0
 17 24  1  1  0  0  0
 17 18  1  0  0  0  0
 18 19  1  6  0  0  0
 18  3  1  0  0  0  0
 20 19  1  0  0  0  0
 21 19  1  0  0  0  0
 22 17  1  0  0  0  0
 22 21  1  0  0  0  0
 23 22  1  0  0  0  0
 25 24  1  0  0  0  0
M  END
>  <minimizedAffinity>
-4.83874178

$$$$

 OpenBabel03252501023D

 25 27  0  0  1  0  0  0  0  0999 V2000
   37.3100   28.2140   42.2640 C   0  0  1  0  0  0  0  0  0  0  0  0
   37.7760   28.9910   43.4750 C   0  0  0  0  0  0  0  0  0  0  0  0
   38.2960   29.2680   42.0540 C   0  0  2  0  0  0  0  0  0  0  0  0
   36.2600   28.3610   41.9450 H   0  0  0  0  0  0  0  0  0  0  0  0
   37.0040   29.6230   43.9140 H   0  0  0  0  0  0  0  0  0  0  0  0
   38.4380   28.4790   44.1970 H   0  0  0  0  0  0  0  0  0  0  0  0
   39.3630   28.8930   41.9480 H   0  0  0  0  0  0  0  0  0  0  0  0
   37.4800   24.4530   42.0830 C   0  0  0  0  0  0  0  0  0  0  0  0
   36.9050   25.7360   42.0570 C   0  0  0  0  0  0  0  0  0  0  0  0
   37.7830   26.7830   42.2780 C   0  0  0  0  0  0  0  0  0  0  0  0
   39.1160   26.5250   42.5020 N   0  0  0  0  0  0  0  0  0  0  0  0
   39.6190   25.2710   42.5160 C   0  0  0  0  0  0  0  0  0  0  0  0
   38.7750   24.2380   42.3030 N   0  0  0  0  0  0  0  0  0  0  0  0
   36.8350   23.5940   41.9160 H   0  0  0  0  0  0  0  0  0  0  0  0
   35.8560   25.9170   41.8790 H   0  0  0  0  0  0  0  0  0  0  0  0
   40.6830   25.2990   42.7090 H   0  0  0  0  0  0  0  0  0  0  0  0
   36.6760   30.4760   40.6610 C   0  0  2  0  0  3  0  0  0  0  0  0
   38.0010   30.5630   41.3880 C   0  0  2  0  0  3  0  0  0  0  0  0
   38.9310   30.9670   40.2780 C   0  0  0  0  0  3  0  0  0  0  0  0
   39.3100   30.1540   39.6530 H   0  0  0  0  0  0  0  0  0  0  0  0
   38.1940   31.7830   39.4240 O   0  0  0  0  0  0  0  0  0  0  0  0
   36.8670   31.4170   39.5220 C   0  0  0  0  0  3  0  0  0  0  0  0
   36.5920   30.8700   38.5900 H   0  0  0  0  0  0  0  0  0  0  0  0
   35.6210   30.8700   41.4680 O   0  0  0  0  0  0  0  0  0  0  0  0
   34.8220   30.9190   40.8830 H   0  0  0  0  0  0  0  0  0  0  0  0
  1  4  1  6  0  0  0
  1 10  1  0  0  0  0
  1  2  1  0  0  0  0
  2  5  1  0  0  0  0
  2  6  1  0  0  0  0
  3  7  1  6  0  0  0
  3  1  1  0  0  0  0
  3  2  1  0  0  0  0
  8 13  1  0  0  0  0
  9  8  2  0  0  0  0
  9 10  1  0  0  0  0
 10 11  2  0  0  0  0
 11 12  1  0  0  0  0
 12 16  1  0  0  0  0
 13 12  2  0  0  0  0
 14  8  1  0  0  0  0
 15  9  1  0  0  0  0
 17 18  1  0  0  0  0
 17 24  1  1  0  0  0
 18 19  1  6  0  0  0
 18  3  1  0  0  0  0
 20 19  1  0  0  0  0
 21 22  1  0  0  0  0
 21 19  1  0  0  0  0
 22 17  1  0  0  0  0
 23 22  1  0  0  0  0
 25 24  1  0  0  0  0
M  END
>  <minimizedAffinity>
-4.74852228

$$$$

 OpenBabel03252501023D

 25 27  0  0  1  0  0  0  0  0999 V2000
   37.7320   27.8460   42.5620 C   0  0  1  0  0  0  0  0  0  0  0  0
   36.5540   27.4380   43.4200 C   0  0  0  0  0  0  0  0  0  0  0  0
   36.9540   26.6880   42.1380 C   0  0  2  0  0  0  0  0  0  0  0  0
   38.7420   27.7120   42.9960 H   0  0  0  0  0  0  0  0  0  0  0  0
   36.8390   27.0500   44.3980 H   0  0  0  0  0  0  0  0  0  0  0  0
   35.6550   28.0810   43.4060 H   0  0  0  0  0  0  0  0  0  0  0  0
   36.2090   26.9060   41.3080 H   0  0  0  0  0  0  0  0  0  0  0  0
   36.2010   30.7300   40.6790 C   0  0  0  0  0  0  0  0  0  0  0  0
   36.2800   29.4670   41.2930 C   0  0  0  0  0  0  0  0  0  0  0  0
   37.5060   29.1590   41.8570 C   0  0  0  0  0  0  0  0  0  0  0  0
   38.5390   30.0650   41.7920 N   0  0  0  0  0  0  0  0  0  0  0  0
   38.4100   31.2680   41.1900 C   0  0  0  0  0  0  0  0  0  0  0  0
   37.2200   31.5850   40.6330 N   0  0  0  0  0  0  0  0  0  0  0  0
   35.2610   31.0240   40.2190 H   0  0  0  0  0  0  0  0  0  0  0  0
   35.4570   28.7710   41.3330 H   0  0  0  0  0  0  0  0  0  0  0  0
   39.3390   31.8180   41.2550 H   0  0  0  0  0  0  0  0  0  0  0  0
   38.8200   25.1900   41.5940 C   0  0  2  0  0  3  0  0  0  0  0  0
   37.4410   25.2860   42.2110 C   0  0  2  0  0  3  0  0  0  0  0  0
   36.6750   24.2730   41.4060 C   0  0  0  0  0  3  0  0  0  0  0  0
   36.2870   24.6210   40.4460 H   0  0  0  0  0  0  0  0  0  0  0  0
   37.5730   23.2540   41.0990 O   0  0  0  0  0  0  0  0  0  0  0  0
   38.8410   23.7980   41.0610 C   0  0  0  0  0  3  0  0  0  0  0  0
   39.1570   23.8560   39.9930 H   0  0  0  0  0  0  0  0  0  0  0  0
   39.8180   25.3830   42.5340 O   0  0  0  0  0  0  0  0  0  0  0  0
   40.6750   25.1660   42.0850 H   0  0  0  0  0  0  0  0  0  0  0  0
  1  4  1  1  0  0  0
  1  2  1  0  0  0  0
  2  5  1  0  0  0  0
  3  7  1  6  0  0  0
  3 18  1  0  0  0  0
  3  1  1  0  0  0  0
  3  2  1  0  0  0  0
  6  2  1  0  0  0  0
  8  9  1  0  0  0  0
  9 15  1  0  0  0  0
  9 10  2  0  0  0  0
 10  1  1  0  0  0  0
 11 10  1  0  0  0  0
 12 16  1  0  0  0  0
 12 11  2  0  0  0  0
 13  8  2  0  0  0  0
 13 12  1  0  0  0  0
 14  8  1  0  0  0  0
 17 18  1  0  0  0  0
 17 24  1  1  0  0  0
 18 19  1  6  0  0  0
 20 19  1  0  0  0  0
 21 19  1  0  0  0  0
 22 21  1  0  0  0  0
 22 17  1  0  0  0  0
 23 22  1  0  0  0  0
 25 24  1  0  0  0  0
M  END
>  <minimizedAffinity>
-4.4943428

$$$$

 OpenBabel03252501023D

 25 27  0  0  1  0  0  0  0  0999 V2000
   38.6090   32.7360   39.7440 C   0  0  1  0  0  0  0  0  0  0  0  0
   38.9380   33.9650   40.5640 C   0  0  0  0  0  0  0  0  0  0  0  0
   40.0130   33.1110   39.8700 C   0  0  2  0  0  0  0  0  0  0  0  0
   38.0720   32.8970   38.7890 H   0  0  0  0  0  0  0  0  0  0  0  0
   38.5970   34.8970   40.1130 H   0  0  0  0  0  0  0  0  0  0  0  0
   38.8290   33.9010   41.6620 H   0  0  0  0  0  0  0  0  0  0  0  0
   40.5890   32.5050   40.6400 H   0  0  0  0  0  0  0  0  0  0  0  0
   38.3080   29.8930   42.2010 C   0  0  0  0  0  0  0  0  0  0  0  0
   38.9220   30.9210   41.4630 C   0  0  0  0  0  0  0  0  0  0  0  0
   38.0920   31.6000   40.5890 C   0  0  0  0  0  0  0  0  0  0  0  0
   36.7640   31.2500   40.4910 N   0  0  0  0  0  0  0  0  0  0  0  0
   36.2220   30.2530   41.2240 C   0  0  0  0  0  0  0  0  0  0  0  0
   37.0190   29.5790   42.0820 N   0  0  0  0  0  0  0  0  0  0  0  0
   38.9140   29.3270   42.9030 H   0  0  0  0  0  0  0  0  0  0  0  0
   39.9650   31.1800   41.5560 H   0  0  0  0  0  0  0  0  0  0  0  0
   35.1710   30.1480   40.9910 H   0  0  0  0  0  0  0  0  0  0  0  0
   41.1330   32.6030   37.7460 C   0  0  2  0  0  3  0  0  0  0  0  0
   40.8250   33.6810   38.7630 C   0  0  2  0  0  3  0  0  0  0  0  0
   42.2020   34.1600   39.1280 C   0  0  0  0  0  3  0  0  0  0  0  0
   42.7270   33.5730   39.8860 H   0  0  0  0  0  0  0  0  0  0  0  0
   42.9730   34.0550   37.9740 O   0  0  0  0  0  0  0  0  0  0  0  0
   42.4490   33.0400   37.2000 C   0  0  0  0  0  3  0  0  0  0  0  0
   43.1410   32.1680   37.2620 H   0  0  0  0  0  0  0  0  0  0  0  0
   40.1710   32.5440   36.7530 O   0  0  0  0  0  0  0  0  0  0  0  0
   40.5150   31.9220   36.0620 H   0  0  0  0  0  0  0  0  0  0  0  0
  1  4  1  6  0  0  0
  1  3  1  0  0  0  0
  1  2  1  0  0  0  0
  1 10  1  0  0  0  0
  2  6  1  0  0  0  0
  3  2  1  0  0  0  0
  3  7  1  1  0  0  0
  5  2  1  0  0  0  0
  8 14  1  0  0  0  0
  9 15  1  0  0  0  0
  9  8  2  0  0  0  0
 10  9  1  0  0  0  0
 11 10  2  0  0  0  0
 11 12  1  0  0  0  0
 12 13  2  0  0  0  0
 13  8  1  0  0  0  0
 16 12  1  0  0  0  0
 17 24  1  6  0  0  0
 17 18  1  0  0  0  0
 18 19  1  1  0  0  0
 18  3  1  0  0  0  0
 19 20  1  0  0  0  0
 21 19  1  0  0  0  0
 22 23  1  0  0  0  0
 22 17  1  0  0  0  0
 22 21  1  0  0  0  0
 25 24  1  0  0  0  0
M  END
>  <minimizedAffinity>
-4.49335575

$$$$

 OpenBabel03252501023D

 25 27  0  0  1  0  0  0  0  0999 V2000
   36.5030   30.3900   40.7410 C   0  0  1  0  0  0  0  0  0  0  0  0
   35.9620   29.9300   39.4050 C   0  0  0  0  0  0  0  0  0  0  0  0
   36.9170   29.0770   40.2590 C   0  0  2  0  0  0  0  0  0  0  0  0
   35.7790   30.4760   41.5750 H   0  0  0  0  0  0  0  0  0  0  0  0
   34.8900   29.7320   39.4110 H   0  0  0  0  0  0  0  0  0  0  0  0
   36.3510   30.4170   38.4930 H   0  0  0  0  0  0  0  0  0  0  0  0
   37.9510   29.0590   39.7890 H   0  0  0  0  0  0  0  0  0  0  0  0
   38.1080   33.6930   39.8940 C   0  0  0  0  0  0  0  0  0  0  0  0
   37.1200   32.6930   39.9290 C   0  0  0  0  0  0  0  0  0  0  0  0
   37.4690   31.5390   40.6090 C   0  0  0  0  0  0  0  0  0  0  0  0
   38.7110   31.4340   41.1900 N   0  0  0  0  0  0  0  0  0  0  0  0
   39.6270   32.4270   41.1270 C   0  0  0  0  0  0  0  0  0  0  0  0
   39.3020   33.5600   40.4670 N   0  0  0  0  0  0  0  0  0  0  0  0
   37.8870   34.6210   39.3720 H   0  0  0  0  0  0  0  0  0  0  0  0
   36.1500   32.7970   39.4670 H   0  0  0  0  0  0  0  0  0  0  0  0
   40.5280   32.1350   41.6480 H   0  0  0  0  0  0  0  0  0  0  0  0
   37.0870   27.5900   42.2040 C   0  0  2  0  0  3  0  0  0  0  0  0
   36.4540   27.7920   40.8440 C   0  0  2  0  0  3  0  0  0  0  0  0
   36.8760   26.5430   40.1220 C   0  0  0  0  0  3  0  0  0  0  0  0
   37.8750   26.5630   39.6770 H   0  0  0  0  0  0  0  0  0  0  0  0
   36.9120   25.5300   41.0770 O   0  0  0  0  0  0  0  0  0  0  0  0
   37.1800   26.1050   42.3020 C   0  0  0  0  0  3  0  0  0  0  0  0
   38.2310   25.8560   42.5760 H   0  0  0  0  0  0  0  0  0  0  0  0
   36.3030   28.1130   43.2180 O   0  0  0  0  0  0  0  0  0  0  0  0
   36.7110   27.8180   44.0720 H   0  0  0  0  0  0  0  0  0  0  0  0
  1  4  1  1  0  0  0
  2  5  1  0  0  0  0
  2  3  1  0  0  0  0
  2  1  1  0  0  0  0
  3  7  1  6  0  0  0
  3  1  1  0  0  0  0
  3 18  1  0  0  0  0
  6  2  1  0  0  0  0
  8  9  2  0  0  0  0
  8 13  1  0  0  0  0
  9 10  1  0  0  0  0
 10  1  1  0  0  0  0
 10 11  2  0  0  0  0
 12 11  1  0  0  0  0
 12 16  1  0  0  0  0
 13 12  2  0  0  0  0
 14  8  1  0  0  0  0
 15  9  1  0  0  0  0
 17 22  1  0  0  0  0
 17 24  1  1  0  0  0
 18 19  1  6  0  0  0
 18 17  1  0  0  0  0
 19 21  1  0  0  0  0
 20 19  1  0  0  0  0
 21 22  1  0  0  0  0
 22 23  1  0  0  0  0
 24 25  1  0  0  0  0
M  END
>  <minimizedAffinity>
-4.37887192

$$$$

 OpenBabel03252501023D

 25 27  0  0  1  0  0  0  0  0999 V2000
   37.2730   26.7610   42.2390 C   0  0  1  0  0  0  0  0  0  0  0  0
   36.5320   27.4280   43.3770 C   0  0  0  0  0  0  0  0  0  0  0  0
   37.1230   28.2110   42.1920 C   0  0  2  0  0  0  0  0  0  0  0  0
   36.6790   26.1160   41.5620 H   0  0  0  0  0  0  0  0  0  0  0  0
   35.4690   27.1910   43.4070 H   0  0  0  0  0  0  0  0  0  0  0  0
   37.0340   27.4850   44.3600 H   0  0  0  0  0  0  0  0  0  0  0  0
   38.0460   28.7850   42.5230 H   0  0  0  0  0  0  0  0  0  0  0  0
   40.1890   24.4630   42.8860 C   0  0  0  0  0  0  0  0  0  0  0  0
   38.9130   24.8610   42.4490 C   0  0  0  0  0  0  0  0  0  0  0  0
   38.5990   26.1900   42.6690 C   0  0  0  0  0  0  0  0  0  0  0  0
   39.5140   27.0200   43.2780 N   0  0  0  0  0  0  0  0  0  0  0  0
   40.7300   26.5870   43.6790 C   0  0  0  0  0  0  0  0  0  0  0  0
   41.0510   25.2910   43.4720 N   0  0  0  0  0  0  0  0  0  0  0  0
   40.4870   23.4270   42.7390 H   0  0  0  0  0  0  0  0  0  0  0  0
   38.2110   24.1940   41.9730 H   0  0  0  0  0  0  0  0  0  0  0  0
   41.2840   27.3990   44.1300 H   0  0  0  0  0  0  0  0  0  0  0  0
   36.6080   28.5770   39.8210 C   0  0  2  0  0  3  0  0  0  0  0  0
   36.2280   28.9250   41.2440 C   0  0  2  0  0  3  0  0  0  0  0  0
   36.3350   30.4240   41.2310 C   0  0  0  0  0  3  0  0  0  0  0  0
   37.3380   30.8330   41.3810 H   0  0  0  0  0  0  0  0  0  0  0  0
   35.9520   30.8340   39.9570 O   0  0  0  0  0  0  0  0  0  0  0  0
   36.2350   29.8120   39.0740 C   0  0  0  0  0  3  0  0  0  0  0  0
   37.1220   30.1150   38.4710 H   0  0  0  0  0  0  0  0  0  0  0  0
   35.9050   27.4780   39.3560 O   0  0  0  0  0  0  0  0  0  0  0  0
   36.1020   27.4050   38.3870 H   0  0  0  0  0  0  0  0  0  0  0  0
  1  4  1  6  0  0  0
  1 10  1  0  0  0  0
  1  2  1  0  0  0  0
  2  5  1  0  0  0  0
  2  6  1  0  0  0  0
  3  1  1  0  0  0  0
  3  7  1  1  0  0  0
  3  2  1  0  0  0  0
  8 13  1  0  0  0  0
  9 10  1  0  0  0  0
  9  8  2  0  0  0  0
 10 11  2  0  0  0  0
 11 12  1  0  0  0  0
 12 16  1  0  0  0  0
 13 12  2  0  0  0  0
 14  8  1  0  0  0  0
 15  9  1  0  0  0  0
 17 24  1  6  0  0  0
 17 18  1  0  0  0  0
 18 19  1  6  0  0  0
 18  3  1  0  0  0  0
 19 20  1  0  0  0  0
 21 19  1  0  0  0  0
 22 17  1  0  0  0  0
 22 21  1  0  0  0  0
 23 22  1  0  0  0  0
 25 24  1  0  0  0  0
M  END
>  <minimizedAffinity>
-4.34675264

$$$$

 OpenBabel03252501023D

 25 27  0  0  1  0  0  0  0  0999 V2000
   36.8440   29.1470   41.8370 C   0  0  1  0  0  0  0  0  0  0  0  0
   35.8620   28.4930   40.8890 C   0  0  0  0  0  0  0  0  0  0  0  0
   37.2360   27.8850   41.2200 C   0  0  2  0  0  0  0  0  0  0  0  0
   36.5630   29.1810   42.9080 H   0  0  0  0  0  0  0  0  0  0  0  0
   34.9620   28.1210   41.3780 H   0  0  0  0  0  0  0  0  0  0  0  0
   35.7070   28.9600   39.8990 H   0  0  0  0  0  0  0  0  0  0  0  0
   37.9380   27.9990   40.3330 H   0  0  0  0  0  0  0  0  0  0  0  0
   37.2950   32.4620   40.1010 C   0  0  0  0  0  0  0  0  0  0  0  0
   36.6390   31.3000   40.5450 C   0  0  0  0  0  0  0  0  0  0  0  0
   37.4180   30.4250   41.2820 C   0  0  0  0  0  0  0  0  0  0  0  0
   38.7370   30.7250   41.5330 N   0  0  0  0  0  0  0  0  0  0  0  0
   39.3210   31.8580   41.0820 C   0  0  0  0  0  0  0  0  0  0  0  0
   38.5740   32.7230   40.3600 N   0  0  0  0  0  0  0  0  0  0  0  0
   36.7290   33.1840   39.5160 H   0  0  0  0  0  0  0  0  0  0  0  0
   35.6020   31.0840   40.3380 H   0  0  0  0  0  0  0  0  0  0  0  0
   40.3560   31.8920   41.3920 H   0  0  0  0  0  0  0  0  0  0  0  0
   38.7540   26.3660   42.4070 C   0  0  2  0  0  3  0  0  0  0  0  0
   37.3290   26.5950   41.9500 C   0  0  2  0  0  3  0  0  0  0  0  0
   37.0640   25.3540   41.1440 C   0  0  0  0  0  3  0  0  0  0  0  0
   37.4150   25.3730   40.1090 H   0  0  0  0  0  0  0  0  0  0  0  0
   37.7710   24.3260   41.7610 O   0  0  0  0  0  0  0  0  0  0  0  0
   38.8620   24.8790   42.3990 C   0  0  0  0  0  3  0  0  0  0  0  0
   39.7730   24.6160   41.8110 H   0  0  0  0  0  0  0  0  0  0  0  0
   38.9750   26.8790   43.6740 O   0  0  0  0  0  0  0  0  0  0  0  0
   39.8740   26.5660   43.9520 H   0  0  0  0  0  0  0  0  0  0  0  0
  1  4  1  1  0  0  0
  2  3  1  0  0  0  0
  2  5  1  0  0  0  0
  2  1  1  0  0  0  0
  3  7  1  6  0  0  0
  3  1  1  0  0  0  0
  3 18  1  0  0  0  0
  6  2  1  0  0  0  0
  8 13  2  0  0  0  0
  8  9  1  0  0  0  0
  9 10  2  0  0  0  0
 10 11  1  0  0  0  0
 10  1  1  0  0  0  0
 12 16  1  0  0  0  0
 12 11  2  0  0  0  0
 13 12  1  0  0  0  0
 14  8  1  0  0  0  0
 15  9  1  0  0  0  0
 17 24  1  1  0  0  0
 18 19  1  6  0  0  0
 18 17  1  0  0  0  0
 19 21  1  0  0  0  0
 20 19  1  0  0  0  0
 21 22  1  0  0  0  0
 22 17  1  0  0  0  0
 23 22  1  0  0  0  0
 24 25  1  0  0  0  0
M  END
>  <minimizedAffinity>
-4.23874521

$$$$

 OpenBabel03252501023D

 25 27  0  0  1  0  0  0  0  0999 V2000
   38.1700   26.7080   42.8380 C   0  0  1  0  0  0  0  0  0  0  0  0
   39.4270   26.6770   43.6800 C   0  0  0  0  0  0  0  0  0  0  0  0
   39.2480   27.6210   42.4780 C   0  0  2  0  0  0  0  0  0  0  0  0
   37.2500   27.0930   43.3210 H   0  0  0  0  0  0  0  0  0  0  0  0
   39.2840   27.0440   44.6960 H   0  0  0  0  0  0  0  0  0  0  0  0
   40.0970   25.8040   43.5800 H   0  0  0  0  0  0  0  0  0  0  0  0
   39.8840   27.2680   41.6050 H   0  0  0  0  0  0  0  0  0  0  0  0
   38.7620   23.5170   40.9210 C   0  0  0  0  0  0  0  0  0  0  0  0
   39.0720   24.6670   41.6690 C   0  0  0  0  0  0  0  0  0  0  0  0
   37.9900   25.4540   42.0230 C   0  0  0  0  0  0  0  0  0  0  0  0
   36.7200   25.0850   41.6410 N   0  0  0  0  0  0  0  0  0  0  0  0
   36.4750   23.9680   40.9210 C   0  0  0  0  0  0  0  0  0  0  0  0
   37.5210   23.1890   40.5670 N   0  0  0  0  0  0  0  0  0  0  0  0
   39.5750   22.8640   40.6150 H   0  0  0  0  0  0  0  0  0  0  0  0
   40.0760   24.9370   41.9590 H   0  0  0  0  0  0  0  0  0  0  0  0
   35.4150   23.8710   40.7330 H   0  0  0  0  0  0  0  0  0  0  0  0
   38.0640   29.6820   41.8690 C   0  0  2  0  0  3  0  0  0  0  0  0
   39.1960   29.0920   42.6820 C   0  0  2  0  0  3  0  0  0  0  0  0
   40.3750   29.8750   42.1750 C   0  0  0  0  0  3  0  0  0  0  0  0
   40.8290   29.5110   41.2500 H   0  0  0  0  0  0  0  0  0  0  0  0
   39.9030   31.1520   41.8830 O   0  0  0  0  0  0  0  0  0  0  0  0
   38.5670   31.0500   41.5570 C   0  0  0  0  0  3  0  0  0  0  0  0
   38.4700   31.1950   40.4550 H   0  0  0  0  0  0  0  0  0  0  0  0
   36.8840   29.7330   42.5930 O   0  0  0  0  0  0  0  0  0  0  0  0
   36.2410   30.2550   42.0490 H   0  0  0  0  0  0  0  0  0  0  0  0
  1  4  1  1  0  0  0
  1  2  1  0  0  0  0
  2  5  1  0  0  0  0
  3  7  1  6  0  0  0
  3 18  1  0  0  0  0
  3  1  1  0  0  0  0
  3  2  1  0  0  0  0
  6  2  1  0  0  0  0
  8  9  1  0  0  0  0
  9 15  1  0  0  0  0
  9 10  2  0  0  0  0
 10  1  1  0  0  0  0
 11 10  1  0  0  0  0
 12 11  2  0  0  0  0
 13  8  2  0  0  0  0
 13 12  1  0  0  0  0
 14  8  1  0  0  0  0
 16 12  1  0  0  0  0
 17 24  1  1  0  0  0
 17 18  1  0  0  0  0
 18 19  1  6  0  0  0
 20 19  1  0  0  0  0
 21 19  1  0  0  0  0
 22 17  1  0  0  0  0
 22 21  1  0  0  0  0
 23 22  1  0  0  0  0
 25 24  1  0  0  0  0
M  END
>  <minimizedAffinity>
-4.16791582

$$$$

 OpenBabel03252501023D

 25 27  0  0  1  0  0  0  0  0999 V2000
   35.8170   29.6650   40.3060 C   0  0  1  0  0  0  0  0  0  0  0  0
   36.6170   30.7450   39.6120 C   0  0  0  0  0  0  0  0  0  0  0  0
   36.2210   29.4270   38.9250 C   0  0  2  0  0  0  0  0  0  0  0  0
   34.7610   29.8970   40.5470 H   0  0  0  0  0  0  0  0  0  0  0  0
   36.0510   31.6580   39.4240 H   0  0  0  0  0  0  0  0  0  0  0  0
   37.6680   30.8930   39.9220 H   0  0  0  0  0  0  0  0  0  0  0  0
   37.1300   28.7540   38.8160 H   0  0  0  0  0  0  0  0  0  0  0  0
   37.2910   27.1200   42.6630 C   0  0  0  0  0  0  0  0  0  0  0  0
   36.5040   27.6230   41.6120 C   0  0  0  0  0  0  0  0  0  0  0  0
   36.5930   28.9890   41.4070 C   0  0  0  0  0  0  0  0  0  0  0  0
   37.4130   29.7510   42.2080 N   0  0  0  0  0  0  0  0  0  0  0  0
   38.1500   29.2170   43.2060 C   0  0  0  0  0  0  0  0  0  0  0  0
   38.0740   27.8850   43.4200 N   0  0  0  0  0  0  0  0  0  0  0  0
   37.2590   26.0520   42.8680 H   0  0  0  0  0  0  0  0  0  0  0  0
   35.8680   27.0070   40.9950 H   0  0  0  0  0  0  0  0  0  0  0  0
   38.7180   29.9910   43.7040 H   0  0  0  0  0  0  0  0  0  0  0  0
   34.1700   28.4390   38.0090 C   0  0  2  0  0  3  0  0  0  0  0  0
   35.2850   29.4350   37.7710 C   0  0  2  0  0  3  0  0  0  0  0  0
   35.8440   28.9590   36.4590 C   0  0  0  0  0  3  0  0  0  0  0  0
   36.5660   28.1400   36.5160 H   0  0  0  0  0  0  0  0  0  0  0  0
   34.7670   28.4590   35.7310 O   0  0  0  0  0  0  0  0  0  0  0  0
   33.8180   28.0090   36.6260 C   0  0  0  0  0  3  0  0  0  0  0  0
   33.8330   26.8940   36.6110 H   0  0  0  0  0  0  0  0  0  0  0  0
   33.0870   29.0230   38.6450 O   0  0  0  0  0  0  0  0  0  0  0  0
   32.3580   28.3520   38.6350 H   0  0  0  0  0  0  0  0  0  0  0  0
  1  4  1  1  0  0  0
  1 10  1  0  0  0  0
  2  6  1  0  0  0  0
  2  1  1  0  0  0  0
  3  7  1  6  0  0  0
  3  2  1  0  0  0  0
  3  1  1  0  0  0  0
  5  2  1  0  0  0  0
  8 14  1  0  0  0  0
  8 13  1  0  0  0  0
  9  8  2  0  0  0  0
 10  9  1  0  0  0  0
 10 11  2  0  0  0  0
 11 12  1  0  0  0  0
 12 13  2  0  0  0  0
 12 16  1  0  0  0  0
 15  9  1  0  0  0  0
 17 24  1  6  0  0  0
 18 19  1  6  0  0  0
 18 17  1  0  0  0  0
 18  3  1  0  0  0  0
 19 20  1  0  0  0  0
 21 19  1  0  0  0  0
 21 22  1  0  0  0  0
 22 17  1  0  0  0  0
 23 22  1  0  0  0  0
 25 24  1  0  0  0  0
M  END
>  <minimizedAffinity>
-4.16108561

$$$$
