
 OpenBabel03252505153D

 25 27  0  0  1  0  0  0  0  0999 V2000
   44.8930   35.0450   45.3110 C   0  0  0  0  0  0  0  0  0  0  0  0
   45.6400   35.0240   44.1220 C   0  0  0  0  0  0  0  0  0  0  0  0
   46.4700   33.9090   43.9700 C   0  0  0  0  0  0  0  0  0  0  0  0
   46.5100   32.9400   44.9430 N   0  0  0  0  0  0  0  0  0  0  0  0
   45.7600   33.0210   46.0710 C   0  0  0  0  0  0  0  0  0  0  0  0
   44.9540   34.0810   46.2430 N   0  0  0  0  0  0  0  0  0  0  0  0
   44.2210   35.8860   45.5010 H   0  0  0  0  0  0  0  0  0  0  0  0
   45.5880   35.7920   43.3860 H   0  0  0  0  0  0  0  0  0  0  0  0
   47.3080   33.7550   42.7320 C   0  0  0  0  0  0  0  0  0  0  0  0
   47.4070   35.0390   41.9360 C   0  0  0  0  0  0  0  0  0  0  0  0
   48.6090   34.4080   42.7010 C   0  0  0  0  0  0  0  0  0  0  0  0
   47.1060   32.8290   42.1610 H   0  0  0  0  0  0  0  0  0  0  0  0
   47.4330   34.8940   40.8370 H   0  0  0  0  0  0  0  0  0  0  0  0
   46.9710   35.9590   42.3280 H   0  0  0  0  0  0  0  0  0  0  0  0
   48.8990   35.0330   43.5950 H   0  0  0  0  0  0  0  0  0  0  0  0
   49.4500   34.0660   42.0680 H   0  0  0  0  0  0  0  0  0  0  0  0
   47.3000   31.9960   47.6920 C   0  0  2  0  0  3  0  0  0  0  0  0
   45.9810   31.8520   46.9590 C   0  0  1  0  0  3  0  0  0  0  0  0
   44.9970   31.8690   48.1210 C   0  0  0  0  0  3  0  0  0  0  0  0
   44.3550   30.9740   48.0830 H   0  0  0  0  0  0  0  0  0  0  0  0
   45.7330   31.8850   49.2880 O   0  0  0  0  0  0  0  0  0  0  0  0
   46.9580   31.3220   49.0240 C   0  0  0  0  0  3  0  0  0  0  0  0
   46.8020   30.2460   48.8520 H   0  0  0  0  0  0  0  0  0  0  0  0
   47.6620   33.3070   47.8640 O   0  0  0  0  0  0  0  0  0  0  0  0
   48.1750   33.4580   48.7150 H   0  0  0  0  0  0  0  0  0  0  0  0
  1  7  1  0  0  0  0
  1  6  1  0  0  0  0
  2  1  2  0  0  0  0
  3  2  1  0  0  0  0
  3  4  2  0  0  0  0
  4  5  1  0  0  0  0
  5  6  2  0  0  0  0
  8  2  1  0  0  0  0
  9  3  1  0  0  0  0
 10 14  1  0  0  0  0
 10 11  1  0  0  0  0
 10  9  1  0  0  0  0
 11  9  1  0  0  0  0
 11 15  1  0  0  0  0
 12  9  1  0  0  0  0
 13 10  1  0  0  0  0
 16 11  1  0  0  0  0
 17 24  1  1  0  0  0
 17 22  1  0  0  0  0
 18  5  1  6  0  0  0
 18 17  1  0  0  0  0
 18 19  1  0  0  0  0
 19 21  1  0  0  0  0
 20 19  1  0  0  0  0
 22 21  1  0  0  0  0
 23 22  1  0  0  0  0
 24 25  1  0  0  0  0
M  END
>  <minimizedAffinity>
-4.91459036

>  <minimizedRMSD>
1.3831315

$$$$
