
 OpenBabel03242523223D

 43 46  0  0  1  0  0  0  0  0999 V2000
   47.3710   32.7450   44.0540 C   0  0  0  0  0  0  0  0  0  0  0  0
   48.0610   33.0520   42.9610 C   0  0  0  0  0  0  0  0  0  0  0  0
   48.9190   32.0630   42.5260 C   0  0  0  0  0  0  0  0  0  0  0  0
   48.9790   30.8670   43.2570 N   0  0  0  0  0  0  0  0  0  0  0  0
   48.2760   30.6280   44.3260 C   0  0  0  0  0  0  0  0  0  0  0  0
   47.4050   31.5930   44.7930 N   0  0  0  0  0  0  0  0  0  0  0  0
   49.5840   32.0600   41.6760 H   0  0  0  0  0  0  0  0  0  0  0  0
   48.4200   29.6530   44.8020 H   0  0  0  0  0  0  0  0  0  0  0  0
   48.0930   34.2920   42.2800 C   0  0  1  0  0  0  0  0  0  0  0  0
   48.9040   34.6910   41.2640 C   0  0  0  0  0  0  0  0  0  0  0  0
   47.4980   34.3930   40.8460 C   0  0  1  0  0  0  0  0  0  0  0  0
   47.8000   35.1420   42.9560 H   0  0  0  0  0  0  0  0  0  0  0  0
   49.7160   33.9930   40.9000 H   0  0  0  0  0  0  0  0  0  0  0  0
   49.2210   35.7240   40.9980 H   0  0  0  0  0  0  0  0  0  0  0  0
   46.7980   35.2440   40.7160 H   0  0  0  0  0  0  0  0  0  0  0  0
   46.0660   33.1890   39.1350 C   0  0  1  0  0  3  0  0  0  0  0  0
   47.3090   33.2480   39.9640 C   0  0  1  0  0  3  0  0  0  0  0  0
   48.3900   33.3140   38.9090 C   0  0  0  0  0  3  0  0  0  0  0  0
   49.2780   33.8490   39.3050 H   0  0  0  0  0  0  0  0  0  0  0  0
   47.8200   34.0640   37.9060 O   0  0  0  0  0  0  0  0  0  0  0  0
   46.5210   33.5660   37.7640 C   0  0  0  0  0  3  0  0  0  0  0  0
   45.8370   34.3280   37.3570 H   0  0  0  0  0  0  0  0  0  0  0  0
   45.6570   31.8420   39.0730 O   0  0  0  0  0  0  0  0  0  0  0  0
   45.8330   31.4270   38.2000 H   0  0  0  0  0  0  0  0  0  0  0  0
   46.3350   33.5770   44.7010 C   0  0  0  0  0  0  0  0  0  0  0  0
   45.8190   34.1250   45.6330 O   0  0  0  0  0  0  0  0  0  0  0  0
   44.6440   31.4290   43.2650 Cl  0  0  0  0  0  0  0  0  0  0  0  0
   44.5140   33.1410   42.8920 C   0  0  0  0  0  0  0  0  0  0  0  0
   45.3520   33.9980   43.6530 C   0  0  0  0  0  0  0  0  0  0  0  0
   45.1540   35.3070   43.2750 C   0  0  0  0  0  0  0  0  0  0  0  0
   44.3530   35.8390   42.3630 C   0  0  0  0  0  0  0  0  0  0  0  0
   43.5720   34.9440   41.6630 C   0  0  0  0  0  0  0  0  0  0  0  0
   43.6450   33.6080   41.9210 C   0  0  0  0  0  0  0  0  0  0  0  0
   45.7270   36.0930   43.8200 H   0  0  0  0  0  0  0  0  0  0  0  0
   44.2680   36.8990   42.1310 H   0  0  0  0  0  0  0  0  0  0  0  0
   42.8900   35.3490   40.8930 H   0  0  0  0  0  0  0  0  0  0  0  0
   42.8160   32.8250   41.1610 O   0  0  0  0  0  0  0  0  0  0  0  0
   40.6990   31.5470   40.2870 O   0  0  0  0  0  0  0  0  0  0  0  0
   41.2560   32.2500   41.5000 P   0  0  0  0  0  0  0  0  0  0  0  0
   41.3190   31.2100   42.8370 O   0  0  0  0  0  0  0  0  0  0  0  0
   41.3990   31.7160   43.6660 H   0  0  0  0  0  0  0  0  0  0  0  0
   40.2200   33.5100   41.9550 O   0  0  0  0  0  0  0  0  0  0  0  0
   39.4180   33.1160   42.3870 H   0  0  0  0  0  0  0  0  0  0  0  0
  1 25  1  0  0  0  0
  1  6  1  0  0  0  0
  2  1  2  0  0  0  0
  3  2  1  0  0  0  0
  3  4  2  0  0  0  0
  4  5  1  0  0  0  0
  5  6  2  0  0  0  0
  5  8  1  0  0  0  0
  7  3  1  0  0  0  0
  9 12  1  1  0  0  0
  9  2  1  0  0  0  0
 10  9  1  0  0  0  0
 11 15  1  6  0  0  0
 11 10  1  0  0  0  0
 11  9  1  0  0  0  0
 13 10  1  0  0  0  0
 14 10  1  0  0  0  0
 16 23  1  6  0  0  0
 16 17  1  0  0  0  0
 17 18  1  6  0  0  0
 17 11  1  0  0  0  0
 18 19  1  0  0  0  0
 20 18  1  0  0  0  0
 21 20  1  0  0  0  0
 21 16  1  0  0  0  0
 22 21  1  0  0  0  0
 24 23  1  0  0  0  0
 25 26  2  0  0  0  0
 28 27  1  0  0  0  0
 28 29  1  0  0  0  0
 29 25  1  0  0  0  0
 30 29  2  0  0  0  0
 30 34  1  0  0  0  0
 31 30  1  0  0  0  0
 32 33  1  0  0  0  0
 32 31  2  0  0  0  0
 33 28  2  0  0  0  0
 35 31  1  0  0  0  0
 36 32  1  0  0  0  0
 37 39  1  0  0  0  0
 37 33  1  0  0  0  0
 38 39  2  0  0  0  0
 39 42  1  0  0  0  0
 39 40  1  0  0  0  0
 40 41  1  0  0  0  0
 42 43  1  0  0  0  0
M  END
>  <minimizedAffinity>
-5.60982513

>  <minimizedRMSD>
1.19845927

$$$$
