
 OpenBabel03252509163D

 25 27  0  0  1  0  0  0  0  0999 V2000
   46.4470   32.8240   45.4550 C   0  0  0  0  0  0  0  0  0  0  0  0
   46.7390   32.6810   46.8380 C   0  0  0  0  0  0  0  0  0  0  0  0
   47.2760   31.5260   47.2730 C   0  0  0  0  0  0  0  0  0  0  0  0
   47.5310   30.4920   46.3410 C   0  0  0  0  0  0  0  0  0  0  0  0
   46.9710   31.2200   44.7640 S   0  0  0  0  0  0  0  0  0  0  0  0
   46.5330   33.4840   47.5210 H   0  0  0  0  0  0  0  0  0  0  0  0
   47.5470   31.2670   48.2610 H   0  0  0  0  0  0  0  0  0  0  0  0
   44.4940   35.8910   44.7220 C   0  0  0  0  0  0  0  0  0  0  0  0
   44.9940   36.1940   43.4330 C   0  0  0  0  0  0  0  0  0  0  0  0
   45.9700   35.3430   42.8810 C   0  0  0  0  0  0  0  0  0  0  0  0
   46.3780   34.2630   43.6290 N   0  0  0  0  0  0  0  0  0  0  0  0
   45.8620   34.0250   44.8550 C   0  0  0  0  0  0  0  0  0  0  0  0
   44.9220   34.8310   45.4090 N   0  0  0  0  0  0  0  0  0  0  0  0
   43.7460   36.5470   45.1420 H   0  0  0  0  0  0  0  0  0  0  0  0
   44.6690   37.0470   42.8510 H   0  0  0  0  0  0  0  0  0  0  0  0
   46.4080   35.4960   41.9040 H   0  0  0  0  0  0  0  0  0  0  0  0
   48.0600   28.6440   47.7780 C   0  0  2  0  0  3  0  0  0  0  0  0
   48.0610   29.1760   46.3600 C   0  0  2  0  0  3  0  0  0  0  0  0
   49.5280   29.1990   46.0640 C   0  0  0  0  0  3  0  0  0  0  0  0
   50.0260   30.1720   46.2970 H   0  0  0  0  0  0  0  0  0  0  0  0
   50.1210   28.1580   46.7660 O   0  0  0  0  0  0  0  0  0  0  0  0
   49.1930   27.6240   47.6410 C   0  0  0  0  0  3  0  0  0  0  0  0
   48.7690   26.6940   47.1930 H   0  0  0  0  0  0  0  0  0  0  0  0
   46.8770   27.9780   48.0820 O   0  0  0  0  0  0  0  0  0  0  0  0
   46.2300   28.0610   47.3420 H   0  0  0  0  0  0  0  0  0  0  0  0
  1  2  2  0  0  0  0
  2  3  1  0  0  0  0
  2  6  1  0  0  0  0
  3  7  1  0  0  0  0
  4  3  2  0  0  0  0
  5  1  1  0  0  0  0
  5  4  1  0  0  0  0
  8 14  1  0  0  0  0
  8 13  1  0  0  0  0
  9  8  2  0  0  0  0
 10  9  1  0  0  0  0
 10 11  2  0  0  0  0
 11 12  1  0  0  0  0
 12 13  2  0  0  0  0
 12  1  1  0  0  0  0
 15  9  1  0  0  0  0
 16 10  1  0  0  0  0
 17 24  1  6  0  0  0
 18  4  1  1  0  0  0
 18 17  1  0  0  0  0
 19 20  1  0  0  0  0
 19 18  1  0  0  0  0
 19 21  1  0  0  0  0
 21 22  1  0  0  0  0
 22 17  1  0  0  0  0
 23 22  1  0  0  0  0
 25 24  1  0  0  0  0
M  END
>  <minimizedAffinity>
-4.40953064

>  <minimizedRMSD>
2.41714597

$$$$
