
 OpenBabel03242511493D

 25 27  0  0  1  0  0  0  0  0999 V2000
   47.9020   34.5120   41.5240 C   0  0  1  0  0  0  0  0  0  0  0  0
   48.3900   34.1010   40.2160 C   0  0  2  0  0  0  0  0  0  0  0  0
   48.6840   35.4820   40.6710 C   0  0  0  0  0  0  0  0  0  0  0  0
   48.4410   34.2720   42.4760 H   0  0  0  0  0  0  0  0  0  0  0  0
   49.2900   33.4030   40.3090 H   0  0  0  0  0  0  0  0  0  0  0  0
   48.1050   36.3700   40.3920 H   0  0  0  0  0  0  0  0  0  0  0  0
   49.7170   35.7350   40.9790 H   0  0  0  0  0  0  0  0  0  0  0  0
   45.5040   34.2490   40.9590 C   0  0  0  0  0  0  0  0  0  0  0  0
   46.4760   34.7960   41.7950 C   0  0  0  0  0  0  0  0  0  0  0  0
   46.0390   35.6140   42.8600 C   0  0  0  0  0  0  0  0  0  0  0  0
   44.7020   35.8060   42.9910 N   0  0  0  0  0  0  0  0  0  0  0  0
   43.7920   35.2690   42.1730 C   0  0  0  0  0  0  0  0  0  0  0  0
   44.2040   34.4780   41.1420 N   0  0  0  0  0  0  0  0  0  0  0  0
   45.6760   33.6030   40.1140 H   0  0  0  0  0  0  0  0  0  0  0  0
   46.7910   36.0300   43.4980 H   0  0  0  0  0  0  0  0  0  0  0  0
   42.7380   35.4610   42.3290 H   0  0  0  0  0  0  0  0  0  0  0  0
   48.3810   34.4250   37.6910 C   0  0  2  0  0  0  0  0  0  0  0  0
   47.7210   33.9170   38.9410 C   0  0  1  0  0  0  0  0  0  0  0  0
   47.8740   32.4150   38.5670 C   0  0  0  0  0  0  0  0  0  0  0  0
   48.9580   32.2530   38.4210 H   0  0  0  0  0  0  0  0  0  0  0  0
   47.2670   32.4200   37.3150 O   0  0  0  0  0  0  0  0  0  0  0  0
   47.5000   33.6320   36.7060 C   0  0  0  0  0  0  0  0  0  0  0  0
   47.9800   33.5770   35.7130 H   0  0  0  0  0  0  0  0  0  0  0  0
   49.6590   33.8570   37.4810 O   0  0  0  0  0  0  0  0  0  0  0  0
   49.7790   33.7380   36.5020 H   0  0  0  0  0  0  0  0  0  0  0  0
  1  9  1  0  0  0  0
  1  4  1  1  0  0  0
  2  5  1  1  0  0  0
  2  3  1  0  0  0  0
  2  1  1  0  0  0  0
  3  7  1  0  0  0  0
  3  1  1  0  0  0  0
  6  3  1  0  0  0  0
  8 13  2  0  0  0  0
  8  9  1  0  0  0  0
  9 10  2  0  0  0  0
 10 11  1  0  0  0  0
 10 15  1  0  0  0  0
 12 16  1  0  0  0  0
 12 11  2  0  0  0  0
 13 12  1  0  0  0  0
 14  8  1  0  0  0  0
 17 24  1  1  0  0  0
 17 18  1  0  0  0  0
 18 19  1  6  0  0  0
 18  2  1  0  0  0  0
 20 19  1  0  0  0  0
 21 19  1  0  0  0  0
 22 21  1  0  0  0  0
 22 17  1  0  0  0  0
 23 22  1  0  0  0  0
 25 24  1  0  0  0  0
M  END
>  <minimizedAffinity>
-4.62287998

>  <minimizedRMSD>
4.78839445

$$$$
