
 OpenBabel03252505153D

 25 27  0  0  1  0  0  0  0  0999 V2000
   44.6860   36.1090   44.4140 C   0  0  0  0  0  0  0  0  0  0  0  0
   44.8330   36.0180   43.0200 C   0  0  0  0  0  0  0  0  0  0  0  0
   45.2300   34.7620   42.5520 C   0  0  0  0  0  0  0  0  0  0  0  0
   45.4450   33.7320   43.4370 N   0  0  0  0  0  0  0  0  0  0  0  0
   45.2850   33.8880   44.7750 C   0  0  0  0  0  0  0  0  0  0  0  0
   44.9040   35.0840   45.2520 N   0  0  0  0  0  0  0  0  0  0  0  0
   44.3780   37.0620   44.8540 H   0  0  0  0  0  0  0  0  0  0  0  0
   44.6580   36.8350   42.3600 H   0  0  0  0  0  0  0  0  0  0  0  0
   45.4030   34.5240   41.0780 C   0  0  0  0  0  0  0  0  0  0  0  0
   46.8440   34.2520   40.7020 C   0  0  0  0  0  0  0  0  0  0  0  0
   45.7220   33.1740   40.6370 C   0  0  0  0  0  0  0  0  0  0  0  0
   44.8450   35.2320   40.4370 H   0  0  0  0  0  0  0  0  0  0  0  0
   47.1450   34.6650   39.7170 H   0  0  0  0  0  0  0  0  0  0  0  0
   47.6040   34.1610   41.4800 H   0  0  0  0  0  0  0  0  0  0  0  0
   45.8630   32.3860   41.4320 H   0  0  0  0  0  0  0  0  0  0  0  0
   45.4880   32.7900   39.6260 H   0  0  0  0  0  0  0  0  0  0  0  0
   46.9610   32.1290   45.1560 C   0  0  2  0  0  3  0  0  0  0  0  0
   45.5770   32.6310   45.5100 C   0  0  1  0  0  3  0  0  0  0  0  0
   45.7360   32.9060   47.0000 C   0  0  0  0  0  3  0  0  0  0  0  0
   44.9610   32.3650   47.5670 H   0  0  0  0  0  0  0  0  0  0  0  0
   46.9930   32.4750   47.3690 O   0  0  0  0  0  0  0  0  0  0  0  0
   47.3810   31.4950   46.4860 C   0  0  0  0  0  3  0  0  0  0  0  0
   46.7570   30.6100   46.6740 H   0  0  0  0  0  0  0  0  0  0  0  0
   47.8070   33.1430   44.7870 O   0  0  0  0  0  0  0  0  0  0  0  0
   48.7620   32.9630   45.0450 H   0  0  0  0  0  0  0  0  0  0  0  0
  1  7  1  0  0  0  0
  1  6  1  0  0  0  0
  2  1  2  0  0  0  0
  3  2  1  0  0  0  0
  3  4  2  0  0  0  0
  4  5  1  0  0  0  0
  5  6  2  0  0  0  0
  8  2  1  0  0  0  0
  9  3  1  0  0  0  0
 10  9  1  0  0  0  0
 10 14  1  0  0  0  0
 11 10  1  0  0  0  0
 11  9  1  0  0  0  0
 11 15  1  0  0  0  0
 12  9  1  0  0  0  0
 13 10  1  0  0  0  0
 16 11  1  0  0  0  0
 17 24  1  1  0  0  0
 17 18  1  0  0  0  0
 17 22  1  0  0  0  0
 18  5  1  6  0  0  0
 18 19  1  0  0  0  0
 19 21  1  0  0  0  0
 19 20  1  0  0  0  0
 22 23  1  0  0  0  0
 22 21  1  0  0  0  0
 24 25  1  0  0  0  0
M  END
>  <minimizedAffinity>
-4.12496996

>  <minimizedRMSD>
1.29676294

$$$$
