
 OpenBabel03252505303D

 27 28  0  0  1  0  0  0  0  0999 V2000
   46.9490   32.2210   48.3840 O   0  0  0  0  0  0  0  0  0  0  0  0
   45.9050   32.4580   47.2800 P   0  0  1  0  0  0  0  0  0  0  0  0
   44.6150   33.3710   47.8370 O   0  0  0  0  0  0  0  0  0  0  0  0
   44.8940   34.3080   48.0760 H   0  0  0  0  0  0  0  0  0  0  0  0
   46.7050   33.2380   45.9990 O   0  0  0  0  0  0  0  0  0  0  0  0
   44.4800   35.6280   44.6270 C   0  0  0  0  0  0  0  0  0  0  0  0
   44.8650   35.7590   43.2690 C   0  0  0  0  0  0  0  0  0  0  0  0
   45.9580   34.9510   42.8690 C   0  0  0  0  0  0  0  0  0  0  0  0
   46.5310   34.1400   43.7960 N   0  0  0  0  0  0  0  0  0  0  0  0
   46.1180   34.0660   45.0610 C   0  0  0  0  0  0  0  0  0  0  0  0
   45.0860   34.8140   45.4830 N   0  0  0  0  0  0  0  0  0  0  0  0
   43.6350   36.2560   44.9250 H   0  0  0  0  0  0  0  0  0  0  0  0
   44.3580   36.4300   42.5880 H   0  0  0  0  0  0  0  0  0  0  0  0
   46.3010   35.0060   41.8440 H   0  0  0  0  0  0  0  0  0  0  0  0
   45.3460   30.9450   46.8250 O   0  0  0  0  0  0  0  0  0  0  0  0
   45.0140   30.2390   47.9600 C   0  0  0  0  0  0  0  0  0  0  0  0
   43.9750   30.5040   48.2370 H   0  0  0  0  0  0  0  0  0  0  0  0
   45.6620   30.5870   48.7890 H   0  0  0  0  0  0  0  0  0  0  0  0
   46.4260   27.4790   46.2020 C   0  0  1  0  0  3  0  0  0  0  0  0
   46.5800   28.4570   47.3400 C   0  0  0  0  0  3  0  0  0  0  0  0
   47.2750   28.1110   48.1330 H   0  0  0  0  0  0  0  0  0  0  0  0
   45.1910   28.7470   47.8030 C   0  0  2  0  0  3  0  0  0  0  0  0
   44.3190   28.2980   46.8190 O   0  0  0  0  0  0  0  0  0  0  0  0
   44.9460   27.3030   46.1200 C   0  0  0  0  0  3  0  0  0  0  0  0
   44.6630   26.3150   46.5800 H   0  0  0  0  0  0  0  0  0  0  0  0
   46.9230   27.9810   44.9870 O   0  0  0  0  0  0  0  0  0  0  0  0
   47.8080   28.4390   45.1400 H   0  0  0  0  0  0  0  0  0  0  0  0
  2  3  1  0  0  0  0
  2  1  2  1  0  0  0
  3  4  1  0  0  0  0
  5  2  1  0  0  0  0
  6 12  1  0  0  0  0
  6 11  1  0  0  0  0
  7  6  2  0  0  0  0
  8  7  1  0  0  0  0
  8  9  2  0  0  0  0
  9 10  1  0  0  0  0
 10 11  2  0  0  0  0
 10  5  1  0  0  0  0
 13  7  1  0  0  0  0
 14  8  1  0  0  0  0
 15  2  1  0  0  0  0
 15 16  1  0  0  0  0
 16 17  1  0  0  0  0
 16 18  1  0  0  0  0
 19 26  1  6  0  0  0
 19 20  1  0  0  0  0
 20 22  1  0  0  0  0
 20 21  1  0  0  0  0
 22 16  1  6  0  0  0
 23 22  1  0  0  0  0
 24 19  1  0  0  0  0
 24 25  1  0  0  0  0
 24 23  1  0  0  0  0
 26 27  1  0  0  0  0
M  END
>  <minimizedAffinity>
-4.40807104

>  <minimizedRMSD>
0.686146438

$$$$
