
 OpenBabel03242511503D

 25 27  0  0  1  0  0  0  0  0999 V2000
   37.9410   27.7970   43.6710 C   0  0  1  0  0  0  0  0  0  0  0  0
   37.1530   28.7240   42.8730 C   0  0  2  0  0  0  0  0  0  0  0  0
   36.5640   27.4020   43.1970 C   0  0  0  0  0  0  0  0  0  0  0  0
   37.9940   27.8510   44.7890 H   0  0  0  0  0  0  0  0  0  0  0  0
   36.7270   29.5680   43.5160 H   0  0  0  0  0  0  0  0  0  0  0  0
   36.5740   26.5310   42.5310 H   0  0  0  0  0  0  0  0  0  0  0  0
   35.7480   27.3480   43.9440 H   0  0  0  0  0  0  0  0  0  0  0  0
   40.3090   27.7600   42.9440 C   0  0  0  0  0  0  0  0  0  0  0  0
   39.1130   27.0710   43.1330 C   0  0  0  0  0  0  0  0  0  0  0  0
   39.0800   25.7030   42.7830 C   0  0  0  0  0  0  0  0  0  0  0  0
   40.2210   25.1610   42.2870 N   0  0  0  0  0  0  0  0  0  0  0  0
   41.3560   25.8450   42.1150 C   0  0  0  0  0  0  0  0  0  0  0  0
   41.3970   27.1660   42.4510 N   0  0  0  0  0  0  0  0  0  0  0  0
   40.4940   28.7970   43.1680 H   0  0  0  0  0  0  0  0  0  0  0  0
   38.1580   25.1810   42.9320 H   0  0  0  0  0  0  0  0  0  0  0  0
   42.2340   25.3550   41.7130 H   0  0  0  0  0  0  0  0  0  0  0  0
   36.0320   29.7370   40.8240 C   0  0  2  0  0  3  0  0  0  0  0  0
   37.2370   29.1250   41.4800 C   0  0  1  0  0  3  0  0  0  0  0  0
   38.0840   30.4290   41.4390 C   0  0  0  0  0  3  0  0  0  0  0  0
   37.4930   31.1860   41.9870 H   0  0  0  0  0  0  0  0  0  0  0  0
   38.0040   30.7200   40.0800 O   0  0  0  0  0  0  0  0  0  0  0  0
   36.7820   30.3050   39.6020 C   0  0  0  0  0  3  0  0  0  0  0  0
   36.1790   31.0850   39.1050 H   0  0  0  0  0  0  0  0  0  0  0  0
   35.5910   30.9090   41.4810 O   0  0  0  0  0  0  0  0  0  0  0  0
   35.2570   31.5360   40.7880 H   0  0  0  0  0  0  0  0  0  0  0  0
  1  4  1  1  0  0  0
  2  3  1  0  0  0  0
  2  5  1  1  0  0  0
  2  1  1  0  0  0  0
  3  1  1  0  0  0  0
  3  7  1  0  0  0  0
  6  3  1  0  0  0  0
  8  9  1  0  0  0  0
  8 14  1  0  0  0  0
  9  1  1  0  0  0  0
 10 15  1  0  0  0  0
 10  9  2  0  0  0  0
 11 10  1  0  0  0  0
 12 11  2  0  0  0  0
 12 13  1  0  0  0  0
 13  8  2  0  0  0  0
 16 12  1  0  0  0  0
 17 18  1  0  0  0  0
 17 24  1  1  0  0  0
 18 19  1  1  0  0  0
 18  2  1  0  0  0  0
 19 20  1  0  0  0  0
 21 19  1  0  0  0  0
 22 21  1  0  0  0  0
 22 17  1  0  0  0  0
 23 22  1  0  0  0  0
 25 24  1  0  0  0  0
M  END
>  <minimizedAffinity>
-4.84548569

$$$$

 OpenBabel03242511503D

 25 27  0  0  1  0  0  0  0  0999 V2000
   37.8490   26.9810   42.9900 C   0  0  1  0  0  0  0  0  0  0  0  0
   37.3400   28.2120   42.4050 C   0  0  2  0  0  0  0  0  0  0  0  0
   36.4250   27.4060   43.2500 C   0  0  0  0  0  0  0  0  0  0  0  0
   38.4540   26.9610   43.9330 H   0  0  0  0  0  0  0  0  0  0  0  0
   37.7500   29.1310   42.9480 H   0  0  0  0  0  0  0  0  0  0  0  0
   35.6880   26.6900   42.8680 H   0  0  0  0  0  0  0  0  0  0  0  0
   36.1650   27.7770   44.2600 H   0  0  0  0  0  0  0  0  0  0  0  0
   39.2600   25.6530   41.4460 C   0  0  0  0  0  0  0  0  0  0  0  0
   38.0910   25.7560   42.1960 C   0  0  0  0  0  0  0  0  0  0  0  0
   37.1820   24.6760   42.1460 C   0  0  0  0  0  0  0  0  0  0  0  0
   37.5170   23.6160   41.3670 N   0  0  0  0  0  0  0  0  0  0  0  0
   38.6470   23.5440   40.6570 C   0  0  0  0  0  0  0  0  0  0  0  0
   39.5310   24.5810   40.7000 N   0  0  0  0  0  0  0  0  0  0  0  0
   40.0500   26.3840   41.3860 H   0  0  0  0  0  0  0  0  0  0  0  0
   36.2870   24.7620   42.7250 H   0  0  0  0  0  0  0  0  0  0  0  0
   38.8570   22.6700   40.0530 H   0  0  0  0  0  0  0  0  0  0  0  0
   35.6800   29.3700   40.8600 C   0  0  2  0  0  3  0  0  0  0  0  0
   36.9240   28.5490   41.0560 C   0  0  1  0  0  3  0  0  0  0  0  0
   37.8910   29.6580   40.5520 C   0  0  0  0  0  3  0  0  0  0  0  0
   37.7090   30.5320   41.2040 H   0  0  0  0  0  0  0  0  0  0  0  0
   37.3220   29.9220   39.3090 O   0  0  0  0  0  0  0  0  0  0  0  0
   35.9600   29.7440   39.3910 C   0  0  0  0  0  3  0  0  0  0  0  0
   35.3510   30.6140   39.0890 H   0  0  0  0  0  0  0  0  0  0  0  0
   35.7480   30.6240   41.5100 O   0  0  0  0  0  0  0  0  0  0  0  0
   35.2750   31.2860   40.9400 H   0  0  0  0  0  0  0  0  0  0  0  0
  1  3  1  0  0  0  0
  1  4  1  1  0  0  0
  2  5  1  1  0  0  0
  2  1  1  0  0  0  0
  2  3  1  0  0  0  0
  3  7  1  0  0  0  0
  6  3  1  0  0  0  0
  8  9  1  0  0  0  0
  9  1  1  0  0  0  0
 10  9  2  0  0  0  0
 10 15  1  0  0  0  0
 11 10  1  0  0  0  0
 12 13  1  0  0  0  0
 12 11  2  0  0  0  0
 13  8  2  0  0  0  0
 14  8  1  0  0  0  0
 16 12  1  0  0  0  0
 17 18  1  0  0  0  0
 17 24  1  1  0  0  0
 18 19  1  1  0  0  0
 18  2  1  0  0  0  0
 19 20  1  0  0  0  0
 21 22  1  0  0  0  0
 21 19  1  0  0  0  0
 22 17  1  0  0  0  0
 23 22  1  0  0  0  0
 25 24  1  0  0  0  0
M  END
>  <minimizedAffinity>
-4.67136621

$$$$

 OpenBabel03242511503D

 25 27  0  0  1  0  0  0  0  0999 V2000
   37.9930   28.0040   43.3990 C   0  0  1  0  0  0  0  0  0  0  0  0
   38.4360   26.6320   43.2070 C   0  0  2  0  0  0  0  0  0  0  0  0
   39.4650   27.6970   43.2760 C   0  0  0  0  0  0  0  0  0  0  0  0
   37.7410   28.4260   44.4060 H   0  0  0  0  0  0  0  0  0  0  0  0
   38.3550   26.0300   44.1750 H   0  0  0  0  0  0  0  0  0  0  0  0
   39.9320   28.1750   42.4070 H   0  0  0  0  0  0  0  0  0  0  0  0
   40.0940   27.7740   44.1850 H   0  0  0  0  0  0  0  0  0  0  0  0
   36.1770   28.3070   41.7410 C   0  0  0  0  0  0  0  0  0  0  0  0
   37.3420   28.7940   42.3310 C   0  0  0  0  0  0  0  0  0  0  0  0
   37.8510   30.0230   41.8580 C   0  0  0  0  0  0  0  0  0  0  0  0
   37.1650   30.6400   40.8630 N   0  0  0  0  0  0  0  0  0  0  0  0
   36.0490   30.1500   40.3160 C   0  0  0  0  0  0  0  0  0  0  0  0
   35.5490   28.9640   40.7650 N   0  0  0  0  0  0  0  0  0  0  0  0
   35.6640   27.3930   41.9950 H   0  0  0  0  0  0  0  0  0  0  0  0
   38.7460   30.3910   42.3160 H   0  0  0  0  0  0  0  0  0  0  0  0
   35.5470   30.6900   39.5230 H   0  0  0  0  0  0  0  0  0  0  0  0
   39.4450   24.6630   41.9460 C   0  0  2  0  0  3  0  0  0  0  0  0
   38.4190   25.7560   42.0500 C   0  0  1  0  0  3  0  0  0  0  0  0
   37.2170   24.7860   42.2380 C   0  0  0  0  0  3  0  0  0  0  0  0
   37.4580   24.1820   43.1310 H   0  0  0  0  0  0  0  0  0  0  0  0
   37.3840   23.9810   41.1150 O   0  0  0  0  0  0  0  0  0  0  0  0
   38.7270   23.8680   40.8380 C   0  0  0  0  0  3  0  0  0  0  0  0
   39.1140   22.8340   40.7890 H   0  0  0  0  0  0  0  0  0  0  0  0
   39.4000   23.7680   43.0400 O   0  0  0  0  0  0  0  0  0  0  0  0
   39.6090   22.8610   42.6970 H   0  0  0  0  0  0  0  0  0  0  0  0
  1  4  1  1  0  0  0
  2  3  1  0  0  0  0
  2  1  1  0  0  0  0
  2  5  1  1  0  0  0
  3  1  1  0  0  0  0
  3  7  1  0  0  0  0
  6  3  1  0  0  0  0
  8 14  1  0  0  0  0
  8  9  1  0  0  0  0
  9  1  1  0  0  0  0
 10 15  1  0  0  0  0
 10  9  2  0  0  0  0
 11 10  1  0  0  0  0
 12 13  1  0  0  0  0
 12 11  2  0  0  0  0
 13  8  2  0  0  0  0
 16 12  1  0  0  0  0
 17 18  1  0  0  0  0
 17 24  1  1  0  0  0
 18 19  1  1  0  0  0
 18  2  1  0  0  0  0
 19 20  1  0  0  0  0
 21 19  1  0  0  0  0
 22 21  1  0  0  0  0
 22 17  1  0  0  0  0
 23 22  1  0  0  0  0
 25 24  1  0  0  0  0
M  END
>  <minimizedAffinity>
-4.61131716

$$$$

 OpenBabel03242511503D

 25 27  0  0  1  0  0  0  0  0999 V2000
   35.5980   28.9190   41.0070 C   0  0  1  0  0  0  0  0  0  0  0  0
   35.9180   30.2090   40.4170 C   0  0  2  0  0  0  0  0  0  0  0  0
   35.0540   29.2810   39.6470 C   0  0  0  0  0  0  0  0  0  0  0  0
   34.7770   28.7810   41.7570 H   0  0  0  0  0  0  0  0  0  0  0  0
   35.3290   31.0520   40.9160 H   0  0  0  0  0  0  0  0  0  0  0  0
   35.4050   28.6120   38.8540 H   0  0  0  0  0  0  0  0  0  0  0  0
   33.9740   29.5070   39.5580 H   0  0  0  0  0  0  0  0  0  0  0  0
   37.2590   27.6210   42.3090 C   0  0  0  0  0  0  0  0  0  0  0  0
   36.5800   27.8170   41.1080 C   0  0  0  0  0  0  0  0  0  0  0  0
   36.8810   26.9490   40.0360 C   0  0  0  0  0  0  0  0  0  0  0  0
   37.8130   25.9870   40.2560 N   0  0  0  0  0  0  0  0  0  0  0  0
   38.4500   25.8220   41.4190 C   0  0  0  0  0  0  0  0  0  0  0  0
   38.1650   26.6550   42.4610 N   0  0  0  0  0  0  0  0  0  0  0  0
   37.1350   28.1910   43.2160 H   0  0  0  0  0  0  0  0  0  0  0  0
   36.3560   27.1050   39.1170 H   0  0  0  0  0  0  0  0  0  0  0  0
   39.1850   25.0350   41.5320 H   0  0  0  0  0  0  0  0  0  0  0  0
   37.1100   32.1050   39.2050 C   0  0  2  0  0  3  0  0  0  0  0  0
   37.1230   30.7200   39.7890 C   0  0  1  0  0  3  0  0  0  0  0  0
   38.1130   31.0720   40.9350 C   0  0  0  0  0  3  0  0  0  0  0  0
   37.6360   31.8950   41.4990 H   0  0  0  0  0  0  0  0  0  0  0  0
   39.1570   31.6110   40.1890 O   0  0  0  0  0  0  0  0  0  0  0  0
   38.6400   32.2460   39.0830 C   0  0  0  0  0  3  0  0  0  0  0  0
   38.9240   33.3070   38.9720 H   0  0  0  0  0  0  0  0  0  0  0  0
   36.7880   33.0960   40.1620 O   0  0  0  0  0  0  0  0  0  0  0  0
   37.3190   33.9070   39.9460 H   0  0  0  0  0  0  0  0  0  0  0  0
  1  9  1  0  0  0  0
  1  4  1  1  0  0  0
  2  5  1  1  0  0  0
  2  1  1  0  0  0  0
  3  2  1  0  0  0  0
  3  1  1  0  0  0  0
  6  3  1  0  0  0  0
  7  3  1  0  0  0  0
  8 13  1  0  0  0  0
  8 14  1  0  0  0  0
  9  8  2  0  0  0  0
 10 11  2  0  0  0  0
 10  9  1  0  0  0  0
 11 12  1  0  0  0  0
 12 16  1  0  0  0  0
 12 13  2  0  0  0  0
 15 10  1  0  0  0  0
 17 18  1  0  0  0  0
 17 24  1  1  0  0  0
 18  2  1  0  0  0  0
 18 19  1  1  0  0  0
 19 20  1  0  0  0  0
 21 19  1  0  0  0  0
 22 17  1  0  0  0  0
 22 21  1  0  0  0  0
 23 22  1  0  0  0  0
 25 24  1  0  0  0  0
M  END
>  <minimizedAffinity>
-4.55718851

$$$$

 OpenBabel03242511503D

 25 27  0  0  1  0  0  0  0  0999 V2000
   36.4410   30.9110   39.7570 C   0  0  1  0  0  0  0  0  0  0  0  0
   37.4880   31.5290   38.9580 C   0  0  2  0  0  0  0  0  0  0  0  0
   36.6800   30.4500   38.3400 C   0  0  0  0  0  0  0  0  0  0  0  0
   35.4230   31.3620   39.8790 H   0  0  0  0  0  0  0  0  0  0  0  0
   37.1800   32.5720   38.6040 H   0  0  0  0  0  0  0  0  0  0  0  0
   36.9820   29.3990   38.2760 H   0  0  0  0  0  0  0  0  0  0  0  0
   35.9310   30.7180   37.5690 H   0  0  0  0  0  0  0  0  0  0  0  0
   37.7310   30.2860   41.7780 C   0  0  0  0  0  0  0  0  0  0  0  0
   36.7260   29.9730   40.8650 C   0  0  0  0  0  0  0  0  0  0  0  0
   36.0360   28.7530   41.0420 C   0  0  0  0  0  0  0  0  0  0  0  0
   36.4050   27.9760   42.0920 N   0  0  0  0  0  0  0  0  0  0  0  0
   37.3740   28.3020   42.9530 C   0  0  0  0  0  0  0  0  0  0  0  0
   38.0450   29.4780   42.7900 N   0  0  0  0  0  0  0  0  0  0  0  0
   38.3380   31.1770   41.7820 H   0  0  0  0  0  0  0  0  0  0  0  0
   35.2660   28.5190   40.3370 H   0  0  0  0  0  0  0  0  0  0  0  0
   37.6230   27.6390   43.7720 H   0  0  0  0  0  0  0  0  0  0  0  0
   39.6670   31.2540   37.6690 C   0  0  2  0  0  3  0  0  0  0  0  0
   38.9330   31.3930   38.9730 C   0  0  1  0  0  3  0  0  0  0  0  0
   39.5130   32.7990   39.2980 C   0  0  0  0  0  3  0  0  0  0  0  0
   39.2300   33.4430   38.4450 H   0  0  0  0  0  0  0  0  0  0  0  0
   40.8730   32.5240   39.1970 O   0  0  0  0  0  0  0  0  0  0  0  0
   41.0670   31.5590   38.2350 C   0  0  0  0  0  3  0  0  0  0  0  0
   41.7620   31.8360   37.4230 H   0  0  0  0  0  0  0  0  0  0  0  0
   39.4450   32.3480   36.8000 O   0  0  0  0  0  0  0  0  0  0  0  0
   40.2880   32.5150   36.3050 H   0  0  0  0  0  0  0  0  0  0  0  0
  1  4  1  1  0  0  0
  1  9  1  0  0  0  0
  2  5  1  6  0  0  0
  2 18  1  0  0  0  0
  2  1  1  0  0  0  0
  3  2  1  0  0  0  0
  3  1  1  0  0  0  0
  6  3  1  0  0  0  0
  7  3  1  0  0  0  0
  8 14  1  0  0  0  0
  8 13  1  0  0  0  0
  9 10  1  0  0  0  0
  9  8  2  0  0  0  0
 10 11  2  0  0  0  0
 11 12  1  0  0  0  0
 12 16  1  0  0  0  0
 13 12  2  0  0  0  0
 15 10  1  0  0  0  0
 17 24  1  6  0  0  0
 17 22  1  0  0  0  0
 17 18  1  0  0  0  0
 18 19  1  6  0  0  0
 20 19  1  0  0  0  0
 21 19  1  0  0  0  0
 22 21  1  0  0  0  0
 23 22  1  0  0  0  0
 25 24  1  0  0  0  0
M  END
>  <minimizedAffinity>
-4.54401016

$$$$

 OpenBabel03242511503D

 25 27  0  0  1  0  0  0  0  0999 V2000
   36.4830   30.8210   39.7570 C   0  0  1  0  0  0  0  0  0  0  0  0
   37.4900   31.4640   38.9290 C   0  0  2  0  0  0  0  0  0  0  0  0
   36.7480   30.3120   38.3620 C   0  0  0  0  0  0  0  0  0  0  0  0
   35.4390   31.2150   39.8620 H   0  0  0  0  0  0  0  0  0  0  0  0
   37.1210   32.4690   38.5290 H   0  0  0  0  0  0  0  0  0  0  0  0
   37.1140   29.2790   38.3450 H   0  0  0  0  0  0  0  0  0  0  0  0
   35.9850   30.4990   37.5820 H   0  0  0  0  0  0  0  0  0  0  0  0
   36.1060   28.7730   41.1010 C   0  0  0  0  0  0  0  0  0  0  0  0
   36.8230   29.9520   40.9060 C   0  0  0  0  0  0  0  0  0  0  0  0
   37.8390   30.2640   41.8360 C   0  0  0  0  0  0  0  0  0  0  0  0
   38.0410   29.3890   42.8540 N   0  0  0  0  0  0  0  0  0  0  0  0
   37.3380   28.2650   43.0170 C   0  0  0  0  0  0  0  0  0  0  0  0
   36.3550   27.9550   42.1240 N   0  0  0  0  0  0  0  0  0  0  0  0
   35.3120   28.3960   40.4780 H   0  0  0  0  0  0  0  0  0  0  0  0
   38.3850   31.1700   41.6800 H   0  0  0  0  0  0  0  0  0  0  0  0
   37.5460   27.6070   43.8510 H   0  0  0  0  0  0  0  0  0  0  0  0
   39.6830   31.3060   37.6440 C   0  0  2  0  0  3  0  0  0  0  0  0
   38.9410   31.4160   38.9460 C   0  0  1  0  0  3  0  0  0  0  0  0
   39.4350   32.8580   39.2550 C   0  0  0  0  0  3  0  0  0  0  0  0
   39.1150   33.4740   38.3940 H   0  0  0  0  0  0  0  0  0  0  0  0
   40.8090   32.6640   39.1590 O   0  0  0  0  0  0  0  0  0  0  0  0
   41.0630   31.7020   38.2070 C   0  0  0  0  0  3  0  0  0  0  0  0
   41.7410   32.0100   37.3920 H   0  0  0  0  0  0  0  0  0  0  0  0
   39.3970   32.3750   36.7630 O   0  0  0  0  0  0  0  0  0  0  0  0
   40.2300   32.5870   36.2660 H   0  0  0  0  0  0  0  0  0  0  0  0
  1  4  1  1  0  0  0
  1  9  1  0  0  0  0
  2  5  1  6  0  0  0
  2 18  1  0  0  0  0
  2  1  1  0  0  0  0
  3  2  1  0  0  0  0
  3  1  1  0  0  0  0
  6  3  1  0  0  0  0
  7  3  1  0  0  0  0
  8 13  1  0  0  0  0
  9  8  2  0  0  0  0
  9 10  1  0  0  0  0
 10 11  2  0  0  0  0
 11 12  1  0  0  0  0
 12 16  1  0  0  0  0
 13 12  2  0  0  0  0
 14  8  1  0  0  0  0
 15 10  1  0  0  0  0
 17 24  1  6  0  0  0
 17 22  1  0  0  0  0
 17 18  1  0  0  0  0
 18 19  1  6  0  0  0
 20 19  1  0  0  0  0
 21 19  1  0  0  0  0
 22 21  1  0  0  0  0
 23 22  1  0  0  0  0
 25 24  1  0  0  0  0
M  END
>  <minimizedAffinity>
-4.51339674

$$$$

 OpenBabel03242511503D

 25 27  0  0  1  0  0  0  0  0999 V2000
   37.8680   31.8550   37.8740 C   0  0  1  0  0  0  0  0  0  0  0  0
   36.8850   31.2710   38.7720 C   0  0  2  0  0  0  0  0  0  0  0  0
   37.5350   32.5420   39.1750 C   0  0  0  0  0  0  0  0  0  0  0  0
   37.5870   32.4840   36.9900 H   0  0  0  0  0  0  0  0  0  0  0  0
   35.8220   31.4220   38.3800 H   0  0  0  0  0  0  0  0  0  0  0  0
   38.3940   32.6190   39.8510 H   0  0  0  0  0  0  0  0  0  0  0  0
   36.9460   33.4790   39.1370 H   0  0  0  0  0  0  0  0  0  0  0  0
   40.2910   32.1570   37.4490 C   0  0  0  0  0  0  0  0  0  0  0  0
   39.2250   31.2930   37.6950 C   0  0  0  0  0  0  0  0  0  0  0  0
   39.5020   29.9090   37.7470 C   0  0  0  0  0  0  0  0  0  0  0  0
   40.7890   29.5240   37.5520 N   0  0  0  0  0  0  0  0  0  0  0  0
   41.7920   30.3750   37.3170 C   0  0  0  0  0  0  0  0  0  0  0  0
   41.5340   31.7130   37.2660 N   0  0  0  0  0  0  0  0  0  0  0  0
   40.2430   33.2320   37.3880 H   0  0  0  0  0  0  0  0  0  0  0  0
   38.6800   29.2520   37.9370 H   0  0  0  0  0  0  0  0  0  0  0  0
   42.7980   30.0060   37.1690 H   0  0  0  0  0  0  0  0  0  0  0  0
   36.7930   30.3810   41.1560 C   0  0  2  0  0  3  0  0  0  0  0  0
   36.9460   30.1410   39.6810 C   0  0  1  0  0  3  0  0  0  0  0  0
   35.6010   29.3740   39.5350 C   0  0  0  0  0  3  0  0  0  0  0  0
   34.8200   30.0700   39.8930 H   0  0  0  0  0  0  0  0  0  0  0  0
   35.7810   28.3920   40.5050 O   0  0  0  0  0  0  0  0  0  0  0  0
   36.5300   28.9100   41.5360 C   0  0  0  0  0  3  0  0  0  0  0  0
   36.0670   28.8450   42.5360 H   0  0  0  0  0  0  0  0  0  0  0  0
   35.5650   31.0030   41.4820 O   0  0  0  0  0  0  0  0  0  0  0  0
   35.2610   30.6340   42.3520 H   0  0  0  0  0  0  0  0  0  0  0  0
  1  4  1  6  0  0  0
  1  2  1  0  0  0  0
  1  3  1  0  0  0  0
  2  5  1  6  0  0  0
  2  3  1  0  0  0  0
  2 18  1  0  0  0  0
  3  6  1  0  0  0  0
  7  3  1  0  0  0  0
  8  9  1  0  0  0  0
  9 10  2  0  0  0  0
  9  1  1  0  0  0  0
 10 15  1  0  0  0  0
 11 10  1  0  0  0  0
 12 11  2  0  0  0  0
 13 12  1  0  0  0  0
 13  8  2  0  0  0  0
 14  8  1  0  0  0  0
 16 12  1  0  0  0  0
 17 24  1  6  0  0  0
 17 22  1  0  0  0  0
 18 19  1  6  0  0  0
 18 17  1  0  0  0  0
 19 20  1  0  0  0  0
 19 21  1  0  0  0  0
 21 22  1  0  0  0  0
 22 23  1  0  0  0  0
 24 25  1  0  0  0  0
M  END
>  <minimizedAffinity>
-4.49532032

$$$$

 OpenBabel03242511503D

 25 27  0  0  1  0  0  0  0  0999 V2000
   39.7680   25.7840   43.6800 C   0  0  1  0  0  0  0  0  0  0  0  0
   39.2680   24.7200   42.8230 C   0  0  2  0  0  0  0  0  0  0  0  0
   40.7210   25.0150   42.7980 C   0  0  0  0  0  0  0  0  0  0  0  0
   39.9970   25.6330   44.7660 H   0  0  0  0  0  0  0  0  0  0  0  0
   39.0160   23.7830   43.4280 H   0  0  0  0  0  0  0  0  0  0  0  0
   41.2190   25.6460   42.0530 H   0  0  0  0  0  0  0  0  0  0  0  0
   41.4190   24.3020   43.2770 H   0  0  0  0  0  0  0  0  0  0  0  0
   38.2580   27.7440   43.5520 C   0  0  0  0  0  0  0  0  0  0  0  0
   39.5390   27.2180   43.3950 C   0  0  0  0  0  0  0  0  0  0  0  0
   40.5570   28.0910   42.9540 C   0  0  0  0  0  0  0  0  0  0  0  0
   40.2110   29.3810   42.7150 N   0  0  0  0  0  0  0  0  0  0  0  0
   38.9730   29.8590   42.8730 C   0  0  0  0  0  0  0  0  0  0  0  0
   37.9830   29.0240   43.3000 N   0  0  0  0  0  0  0  0  0  0  0  0
   37.3830   27.2110   43.8860 H   0  0  0  0  0  0  0  0  0  0  0  0
   41.5380   27.6800   42.8370 H   0  0  0  0  0  0  0  0  0  0  0  0
   38.7590   30.9000   42.6650 H   0  0  0  0  0  0  0  0  0  0  0  0
   38.6710   23.5850   40.6230 C   0  0  2  0  0  3  0  0  0  0  0  0
   38.5320   24.7420   41.5720 C   0  0  1  0  0  3  0  0  0  0  0  0
   37.0450   24.4460   41.9200 C   0  0  0  0  0  3  0  0  0  0  0  0
   37.0310   23.4140   42.3170 H   0  0  0  0  0  0  0  0  0  0  0  0
   36.5020   24.4220   40.6390 O   0  0  0  0  0  0  0  0  0  0  0  0
   37.4410   23.9310   39.7610 C   0  0  0  0  0  3  0  0  0  0  0  0
   37.1220   23.0550   39.1700 H   0  0  0  0  0  0  0  0  0  0  0  0
   38.2940   22.3530   41.2080 O   0  0  0  0  0  0  0  0  0  0  0  0
   37.8600   21.8050   40.5040 H   0  0  0  0  0  0  0  0  0  0  0  0
  1  4  1  1  0  0  0
  2  5  1  1  0  0  0
  2  1  1  0  0  0  0
  3  2  1  0  0  0  0
  3  7  1  0  0  0  0
  3  1  1  0  0  0  0
  6  3  1  0  0  0  0
  8 14  1  0  0  0  0
  9  8  1  0  0  0  0
  9  1  1  0  0  0  0
 10  9  2  0  0  0  0
 11 12  2  0  0  0  0
 11 10  1  0  0  0  0
 12 13  1  0  0  0  0
 13  8  2  0  0  0  0
 15 10  1  0  0  0  0
 16 12  1  0  0  0  0
 17 24  1  1  0  0  0
 17 18  1  0  0  0  0
 18 19  1  1  0  0  0
 18  2  1  0  0  0  0
 19 20  1  0  0  0  0
 21 19  1  0  0  0  0
 22 17  1  0  0  0  0
 22 21  1  0  0  0  0
 23 22  1  0  0  0  0
 25 24  1  0  0  0  0
M  END
>  <minimizedAffinity>
-4.45393133

$$$$

 OpenBabel03242511503D

 25 27  0  0  1  0  0  0  0  0999 V2000
   35.9660   29.1480   39.3790 C   0  0  1  0  0  0  0  0  0  0  0  0
   36.1210   28.2680   40.5270 C   0  0  2  0  0  0  0  0  0  0  0  0
   34.8440   29.0070   40.3780 C   0  0  0  0  0  0  0  0  0  0  0  0
   35.6670   28.7770   38.3650 H   0  0  0  0  0  0  0  0  0  0  0  0
   36.0350   27.1700   40.2240 H   0  0  0  0  0  0  0  0  0  0  0  0
   34.6010   29.9480   40.8850 H   0  0  0  0  0  0  0  0  0  0  0  0
   33.9370   28.4510   40.0710 H   0  0  0  0  0  0  0  0  0  0  0  0
   36.6910   31.2980   40.3750 C   0  0  0  0  0  0  0  0  0  0  0  0
   36.6580   30.4510   39.2680 C   0  0  0  0  0  0  0  0  0  0  0  0
   37.2820   30.8970   38.0830 C   0  0  0  0  0  0  0  0  0  0  0  0
   37.8690   32.1200   38.1100 N   0  0  0  0  0  0  0  0  0  0  0  0
   37.8860   32.9120   39.1860 C   0  0  0  0  0  0  0  0  0  0  0  0
   37.2860   32.4910   40.3350 N   0  0  0  0  0  0  0  0  0  0  0  0
   36.2700   31.1000   41.3470 H   0  0  0  0  0  0  0  0  0  0  0  0
   37.2530   30.2410   37.2370 H   0  0  0  0  0  0  0  0  0  0  0  0
   38.3710   33.8790   39.1440 H   0  0  0  0  0  0  0  0  0  0  0  0
   36.6470   27.4020   42.8630 C   0  0  2  0  0  3  0  0  0  0  0  0
   36.8630   28.4070   41.7670 C   0  0  1  0  0  3  0  0  0  0  0  0
   38.3230   27.9610   41.4690 C   0  0  0  0  0  3  0  0  0  0  0  0
   38.2610   26.8860   41.2160 H   0  0  0  0  0  0  0  0  0  0  0  0
   38.8690   28.0720   42.7440 O   0  0  0  0  0  0  0  0  0  0  0  0
   37.9020   27.7730   43.6770 C   0  0  0  0  0  3  0  0  0  0  0  0
   38.1610   26.9640   44.3820 H   0  0  0  0  0  0  0  0  0  0  0  0
   36.9310   26.0790   42.4520 O   0  0  0  0  0  0  0  0  0  0  0  0
   37.3290   25.6010   43.2260 H   0  0  0  0  0  0  0  0  0  0  0  0
  1  4  1  6  0  0  0
  1  3  1  0  0  0  0
  1  2  1  0  0  0  0
  2  5  1  6  0  0  0
  2 18  1  0  0  0  0
  3  2  1  0  0  0  0
  3  6  1  0  0  0  0
  7  3  1  0  0  0  0
  8 14  1  0  0  0  0
  9  1  1  0  0  0  0
  9  8  2  0  0  0  0
 10 11  2  0  0  0  0
 10  9  1  0  0  0  0
 11 12  1  0  0  0  0
 12 13  2  0  0  0  0
 13  8  1  0  0  0  0
 15 10  1  0  0  0  0
 16 12  1  0  0  0  0
 17 24  1  6  0  0  0
 17 22  1  0  0  0  0
 18 19  1  6  0  0  0
 18 17  1  0  0  0  0
 19 21  1  0  0  0  0
 20 19  1  0  0  0  0
 21 22  1  0  0  0  0
 22 23  1  0  0  0  0
 24 25  1  0  0  0  0
M  END
>  <minimizedAffinity>
-4.34457922

$$$$
