
 OpenBabel03252507073D

 24 25  0  0  1  0  0  0  0  0999 V2000
   44.6540   35.6730   44.8420 C   0  0  0  0  0  0  0  0  0  0  0  0
   45.2550   35.8780   43.5770 C   0  0  0  0  0  0  0  0  0  0  0  0
   46.1530   34.9050   43.1410 C   0  0  0  0  0  0  0  0  0  0  0  0
   46.4040   33.8330   43.9260 N   0  0  0  0  0  0  0  0  0  0  0  0
   45.8120   33.6710   45.1250 C   0  0  0  0  0  0  0  0  0  0  0  0
   44.9370   34.5910   45.5810 N   0  0  0  0  0  0  0  0  0  0  0  0
   43.9430   36.3950   45.2420 H   0  0  0  0  0  0  0  0  0  0  0  0
   44.9730   36.7730   43.0470 H   0  0  0  0  0  0  0  0  0  0  0  0
   47.0860   31.5450   45.4760 C   0  0  1  0  0  3  0  0  0  0  0  0
   46.0580   32.5220   46.0060 C   0  0  1  0  0  3  0  0  0  0  0  0
   46.8040   32.9540   47.2750 C   0  0  0  0  0  3  0  0  0  0  0  0
   46.0500   33.3200   48.0020 H   0  0  0  0  0  0  0  0  0  0  0  0
   47.5370   31.8850   47.7000 O   0  0  0  0  0  0  0  0  0  0  0  0
   47.4130   30.8440   46.7930 C   0  0  0  0  0  3  0  0  0  0  0  0
   46.4850   30.2830   47.0770 H   0  0  0  0  0  0  0  0  0  0  0  0
   46.5940   30.6880   44.5190 O   0  0  0  0  0  0  0  0  0  0  0  0
   46.6410   29.7500   44.8370 H   0  0  0  0  0  0  0  0  0  0  0  0
   46.7400   35.1100   41.9020 O   0  0  0  0  0  0  0  0  0  0  0  0
   48.4940   33.3460   40.9860 O   0  0  0  0  0  0  0  0  0  0  0  0
   48.3910   34.7110   41.6650 P   0  0  0  0  0  0  0  0  0  0  0  0
   49.1100   35.9080   40.7600 O   0  0  0  0  0  0  0  0  0  0  0  0
   48.6440   36.7520   40.9130 H   0  0  0  0  0  0  0  0  0  0  0  0
   49.0940   34.5840   43.2040 O   0  0  0  0  0  0  0  0  0  0  0  0
   49.7280   35.3120   43.3910 H   0  0  0  0  0  0  0  0  0  0  0  0
  1  7  1  0  0  0  0
  1  6  1  0  0  0  0
  2  1  2  0  0  0  0
  3  2  1  0  0  0  0
  3  4  2  0  0  0  0
  4  5  1  0  0  0  0
  5  6  2  0  0  0  0
  8  2  1  0  0  0  0
  9 16  1  6  0  0  0
  9 10  1  0  0  0  0
  9 14  1  0  0  0  0
 10  5  1  6  0  0  0
 10 11  1  0  0  0  0
 11 13  1  0  0  0  0
 11 12  1  0  0  0  0
 14 15  1  0  0  0  0
 14 13  1  0  0  0  0
 16 17  1  0  0  0  0
 18  3  1  0  0  0  0
 19 20  2  0  0  0  0
 20 18  1  0  0  0  0
 20 23  1  0  0  0  0
 21 22  1  0  0  0  0
 21 20  1  0  0  0  0
 23 24  1  0  0  0  0
M  END
>  <minimizedAffinity>
-5.1219902

>  <minimizedRMSD>
0.444527537

$$$$
