
 OpenBabel03252507583D

 27 29  0  0  1  0  0  0  0  0999 V2000
   46.5300   32.5170   46.0050 C   0  0  1  0  0  0  0  0  0  0  0  0
   46.9360   32.7770   47.4200 C   0  0  0  0  0  0  0  0  0  0  0  0
   45.5870   32.2310   47.1350 C   0  0  2  0  0  0  0  0  0  0  0  0
   47.0690   31.7580   45.4340 H   0  0  0  0  0  0  0  0  0  0  0  0
   47.0420   33.8360   47.7490 H   0  0  0  0  0  0  0  0  0  0  0  0
   47.7850   32.1630   47.7750 H   0  0  0  0  0  0  0  0  0  0  0  0
   44.7470   32.9630   47.3250 H   0  0  0  0  0  0  0  0  0  0  0  0
   46.2860   34.8040   43.1460 C   0  0  0  0  0  0  0  0  0  0  0  0
   45.2860   35.7060   43.5370 C   0  0  0  0  0  0  0  0  0  0  0  0
   44.6840   35.5230   44.8080 C   0  0  0  0  0  0  0  0  0  0  0  0
   45.1150   34.4800   45.5690 N   0  0  0  0  0  0  0  0  0  0  0  0
   46.0920   33.6430   45.1230 C   0  0  0  0  0  0  0  0  0  0  0  0
   46.6790   33.7810   43.9410 N   0  0  0  0  0  0  0  0  0  0  0  0
   44.9540   36.5300   42.9230 H   0  0  0  0  0  0  0  0  0  0  0  0
   43.9100   36.1830   45.1660 H   0  0  0  0  0  0  0  0  0  0  0  0
   46.8340   35.0710   41.8570 C   0  0  0  0  0  0  0  0  0  0  0  0
   48.0460   35.3540   41.6150 O   0  0  0  0  0  0  0  0  0  0  0  0
   46.1620   35.0320   41.0020 H   0  0  0  0  0  0  0  0  0  0  0  0
   45.9160   30.1320   48.5070 C   0  0  2  0  0  3  0  0  0  0  0  0
   45.1800   30.8260   47.4160 C   0  0  2  0  0  3  0  0  0  0  0  0
   45.4570   29.9240   46.2320 C   0  0  0  0  0  3  0  0  0  0  0  0
   44.7880   29.0640   46.1970 H   0  0  0  0  0  0  0  0  0  0  0  0
   46.7960   29.5830   46.4180 O   0  0  0  0  0  0  0  0  0  0  0  0
   47.0230   29.4210   47.7670 C   0  0  0  0  0  3  0  0  0  0  0  0
   46.9770   28.3210   47.9700 H   0  0  0  0  0  0  0  0  0  0  0  0
   45.1050   29.1630   49.1430 O   0  0  0  0  0  0  0  0  0  0  0  0
   44.4260   28.7860   48.5570 H   0  0  0  0  0  0  0  0  0  0  0  0
  1  4  1  6  0  0  0
  1  3  1  0  0  0  0
  1  2  1  0  0  0  0
  2  5  1  0  0  0  0
  2  6  1  0  0  0  0
  3  7  1  1  0  0  0
  3 20  1  0  0  0  0
  3  2  1  0  0  0  0
  8  9  2  0  0  0  0
  8 13  1  0  0  0  0
  9 10  1  0  0  0  0
 10 15  1  0  0  0  0
 10 11  2  0  0  0  0
 12 11  1  0  0  0  0
 12  1  1  0  0  0  0
 13 12  2  0  0  0  0
 14  9  1  0  0  0  0
 16  8  1  0  0  0  0
 17 16  2  0  0  0  0
 18 16  1  0  0  0  0
 19 26  1  6  0  0  0
 20 21  1  6  0  0  0
 20 19  1  0  0  0  0
 21 23  1  0  0  0  0
 22 21  1  0  0  0  0
 23 24  1  0  0  0  0
 24 25  1  0  0  0  0
 24 19  1  0  0  0  0
 27 26  1  0  0  0  0
M  END
>  <minimizedAffinity>
-4.74442482

>  <minimizedRMSD>
1.05930054

$$$$
