
 OpenBabel03242523483D

 19 20  0  0  1  0  0  0  0  0999 V2000
   39.5520   32.1270   37.8980 C   0  0  0  0  0  0  0  0  0  0  0  0
   38.2740   31.5330   37.8520 C   0  0  0  0  0  0  0  0  0  0  0  0
   37.6790   31.2280   39.0880 C   0  0  0  0  0  0  0  0  0  0  0  0
   38.3510   31.5170   40.2310 N   0  0  0  0  0  0  0  0  0  0  0  0
   39.5700   32.0840   40.2190 C   0  0  0  0  0  0  0  0  0  0  0  0
   40.1700   32.3890   39.0700 N   0  0  0  0  0  0  0  0  0  0  0  0
   37.7700   31.3180   36.9470 H   0  0  0  0  0  0  0  0  0  0  0  0
   40.0660   32.2950   41.1530 H   0  0  0  0  0  0  0  0  0  0  0  0
   36.0140   30.0660   40.5280 C   0  0  2  0  0  3  0  0  0  0  0  0
   36.3470   30.6070   39.1580 C   0  0  2  0  0  3  0  0  0  0  0  0
   36.2300   29.3140   38.3640 C   0  0  0  0  0  3  0  0  0  0  0  0
   37.1520   28.7340   38.5930 H   0  0  0  0  0  0  0  0  0  0  0  0
   35.0810   28.7200   38.8520 O   0  0  0  0  0  0  0  0  0  0  0  0
   34.8770   29.1170   40.1550 C   0  0  0  0  0  3  0  0  0  0  0  0
   33.9380   29.7170   40.2290 H   0  0  0  0  0  0  0  0  0  0  0  0
   35.6260   31.0650   41.3960 O   0  0  0  0  0  0  0  0  0  0  0  0
   35.8250   30.8730   42.3330 H   0  0  0  0  0  0  0  0  0  0  0  0
   40.1430   32.4290   36.7060 O   0  0  0  0  0  0  0  0  0  0  0  0
   40.9560   31.8890   36.4350 H   0  0  0  0  0  0  0  0  0  0  0  0
  1  6  1  0  0  0  0
  2  1  2  0  0  0  0
  2  3  1  0  0  0  0
  3  4  2  0  0  0  0
  5  4  1  0  0  0  0
  5  8  1  0  0  0  0
  6  5  2  0  0  0  0
  7  2  1  0  0  0  0
  9 16  1  1  0  0  0
 10  3  1  1  0  0  0
 10  9  1  0  0  0  0
 11 12  1  0  0  0  0
 11 13  1  0  0  0  0
 11 10  1  0  0  0  0
 13 14  1  0  0  0  0
 14 15  1  0  0  0  0
 14  9  1  0  0  0  0
 16 17  1  0  0  0  0
 18  1  1  0  0  0  0
 19 18  1  0  0  0  0
M  END
>  <minimizedAffinity>
-4.64377308

$$$$

 OpenBabel03242523483D

 19 20  0  0  1  0  0  0  0  0999 V2000
   37.5910   32.9980   39.9810 C   0  0  0  0  0  0  0  0  0  0  0  0
   36.8490   31.8280   40.2440 C   0  0  0  0  0  0  0  0  0  0  0  0
   37.4870   30.8370   41.0080 C   0  0  0  0  0  0  0  0  0  0  0  0
   38.7540   31.0570   41.4430 N   0  0  0  0  0  0  0  0  0  0  0  0
   39.4180   32.1910   41.1640 C   0  0  0  0  0  0  0  0  0  0  0  0
   38.8510   33.1560   40.4430 N   0  0  0  0  0  0  0  0  0  0  0  0
   35.8610   31.6810   39.8930 H   0  0  0  0  0  0  0  0  0  0  0  0
   40.4240   32.3210   41.5310 H   0  0  0  0  0  0  0  0  0  0  0  0
   37.5070   28.7890   42.4230 C   0  0  2  0  0  3  0  0  0  0  0  0
   36.8060   29.5770   41.3420 C   0  0  2  0  0  3  0  0  0  0  0  0
   36.8550   28.5390   40.2300 C   0  0  0  0  0  3  0  0  0  0  0  0
   37.9020   28.5490   39.8540 H   0  0  0  0  0  0  0  0  0  0  0  0
   36.5160   27.3550   40.8580 O   0  0  0  0  0  0  0  0  0  0  0  0
   36.8780   27.4180   42.1840 C   0  0  0  0  0  3  0  0  0  0  0  0
   35.9680   27.3810   42.8310 H   0  0  0  0  0  0  0  0  0  0  0  0
   37.2490   29.2950   43.6790 O   0  0  0  0  0  0  0  0  0  0  0  0
   37.9670   29.1400   44.3230 H   0  0  0  0  0  0  0  0  0  0  0  0
   36.9840   33.9690   39.2400 O   0  0  0  0  0  0  0  0  0  0  0  0
   37.3390   34.1380   38.3060 H   0  0  0  0  0  0  0  0  0  0  0  0
  1  2  2  0  0  0  0
  1  6  1  0  0  0  0
  2  3  1  0  0  0  0
  3  4  2  0  0  0  0
  5  4  1  0  0  0  0
  5  8  1  0  0  0  0
  6  5  2  0  0  0  0
  7  2  1  0  0  0  0
  9 16  1  1  0  0  0
 10  3  1  6  0  0  0
 10  9  1  0  0  0  0
 11 13  1  0  0  0  0
 11 10  1  0  0  0  0
 12 11  1  0  0  0  0
 13 14  1  0  0  0  0
 14  9  1  0  0  0  0
 14 15  1  0  0  0  0
 16 17  1  0  0  0  0
 18  1  1  0  0  0  0
 19 18  1  0  0  0  0
M  END
>  <minimizedAffinity>
-4.62463188

$$$$

 OpenBabel03242523483D

 19 20  0  0  1  0  0  0  0  0999 V2000
   36.3210   30.9480   40.3660 C   0  0  0  0  0  0  0  0  0  0  0  0
   37.4180   31.8330   40.3150 C   0  0  0  0  0  0  0  0  0  0  0  0
   38.1890   31.8110   39.1410 C   0  0  0  0  0  0  0  0  0  0  0  0
   37.8430   30.9590   38.1420 N   0  0  0  0  0  0  0  0  0  0  0  0
   36.7860   30.1350   38.2410 C   0  0  0  0  0  0  0  0  0  0  0  0
   36.0280   30.1240   39.3370 N   0  0  0  0  0  0  0  0  0  0  0  0
   37.6680   32.4870   41.1080 H   0  0  0  0  0  0  0  0  0  0  0  0
   36.5480   29.4750   37.4220 H   0  0  0  0  0  0  0  0  0  0  0  0
   40.3480   32.1870   37.9590 C   0  0  2  0  0  3  0  0  0  0  0  0
   39.3560   32.6910   38.9810 C   0  0  2  0  0  3  0  0  0  0  0  0
   40.2730   32.7230   40.1950 C   0  0  0  0  0  3  0  0  0  0  0  0
   40.3870   31.6640   40.5160 H   0  0  0  0  0  0  0  0  0  0  0  0
   41.4470   33.2740   39.7180 O   0  0  0  0  0  0  0  0  0  0  0  0
   41.5740   32.9950   38.3760 C   0  0  0  0  0  3  0  0  0  0  0  0
   41.5350   33.9410   37.7830 H   0  0  0  0  0  0  0  0  0  0  0  0
   39.9360   32.4490   36.6690 O   0  0  0  0  0  0  0  0  0  0  0  0
   40.2630   31.8050   36.0110 H   0  0  0  0  0  0  0  0  0  0  0  0
   35.5630   30.9580   41.4990 O   0  0  0  0  0  0  0  0  0  0  0  0
   35.6040   30.1430   42.1000 H   0  0  0  0  0  0  0  0  0  0  0  0
  1 18  1  0  0  0  0
  2  1  1  0  0  0  0
  2  7  1  0  0  0  0
  3  2  2  0  0  0  0
  4  5  2  0  0  0  0
  4  3  1  0  0  0  0
  5  6  1  0  0  0  0
  6  1  2  0  0  0  0
  8  5  1  0  0  0  0
  9 16  1  6  0  0  0
  9 14  1  0  0  0  0
  9 10  1  0  0  0  0
 10  3  1  1  0  0  0
 10 11  1  0  0  0  0
 11 12  1  0  0  0  0
 13 11  1  0  0  0  0
 14 13  1  0  0  0  0
 15 14  1  0  0  0  0
 17 16  1  0  0  0  0
 18 19  1  0  0  0  0
M  END
>  <minimizedAffinity>
-4.60599947

$$$$

 OpenBabel03242523483D

 19 20  0  0  1  0  0  0  0  0999 V2000
   35.9130   29.6120   40.8620 C   0  0  0  0  0  0  0  0  0  0  0  0
   36.4850   28.6940   41.7670 C   0  0  0  0  0  0  0  0  0  0  0  0
   36.7790   27.4160   41.2630 C   0  0  0  0  0  0  0  0  0  0  0  0
   36.5040   27.1420   39.9620 N   0  0  0  0  0  0  0  0  0  0  0  0
   35.9580   28.0540   39.1410 C   0  0  0  0  0  0  0  0  0  0  0  0
   35.6630   29.2770   39.5770 N   0  0  0  0  0  0  0  0  0  0  0  0
   36.6900   28.9320   42.7770 H   0  0  0  0  0  0  0  0  0  0  0  0
   35.7570   27.7910   38.1140 H   0  0  0  0  0  0  0  0  0  0  0  0
   38.8690   26.2330   41.9230 C   0  0  2  0  0  3  0  0  0  0  0  0
   37.3770   26.3800   42.1190 C   0  0  2  0  0  3  0  0  0  0  0  0
   36.9560   24.9640   41.7550 C   0  0  0  0  0  3  0  0  0  0  0  0
   37.0200   24.9050   40.6450 H   0  0  0  0  0  0  0  0  0  0  0  0
   37.8830   24.1610   42.3940 O   0  0  0  0  0  0  0  0  0  0  0  0
   39.0680   24.8480   42.5330 C   0  0  0  0  0  3  0  0  0  0  0  0
   39.2870   25.0160   43.6150 H   0  0  0  0  0  0  0  0  0  0  0  0
   39.5730   27.2220   42.5770 O   0  0  0  0  0  0  0  0  0  0  0  0
   40.4260   27.4430   42.1550 H   0  0  0  0  0  0  0  0  0  0  0  0
   35.6220   30.8570   41.3360 O   0  0  0  0  0  0  0  0  0  0  0  0
   34.6450   31.1080   41.4280 H   0  0  0  0  0  0  0  0  0  0  0  0
  1 18  1  0  0  0  0
  1  2  1  0  0  0  0
  2  7  1  0  0  0  0
  3  2  2  0  0  0  0
  4  3  1  0  0  0  0
  5  6  1  0  0  0  0
  5  4  2  0  0  0  0
  6  1  2  0  0  0  0
  8  5  1  0  0  0  0
  9 10  1  0  0  0  0
  9 14  1  0  0  0  0
  9 16  1  1  0  0  0
 10  3  1  6  0  0  0
 11 10  1  0  0  0  0
 11 13  1  0  0  0  0
 12 11  1  0  0  0  0
 13 14  1  0  0  0  0
 14 15  1  0  0  0  0
 17 16  1  0  0  0  0
 18 19  1  0  0  0  0
M  END
>  <minimizedAffinity>
-4.24556398

$$$$

 OpenBabel03242523483D

 19 20  0  0  1  0  0  0  0  0999 V2000
   39.3070   27.3190   42.3820 C   0  0  0  0  0  0  0  0  0  0  0  0
   39.2110   28.5060   41.6270 C   0  0  0  0  0  0  0  0  0  0  0  0
   38.1740   29.3880   41.9710 C   0  0  0  0  0  0  0  0  0  0  0  0
   37.3400   29.0570   42.9910 N   0  0  0  0  0  0  0  0  0  0  0  0
   37.4750   27.9110   43.6800 C   0  0  0  0  0  0  0  0  0  0  0  0
   38.4450   27.0470   43.3860 N   0  0  0  0  0  0  0  0  0  0  0  0
   39.8740   28.7410   40.8360 H   0  0  0  0  0  0  0  0  0  0  0  0
   36.7890   27.6900   44.4820 H   0  0  0  0  0  0  0  0  0  0  0  0
   36.6460   30.7430   40.5460 C   0  0  2  0  0  3  0  0  0  0  0  0
   37.9810   30.6550   41.2490 C   0  0  2  0  0  3  0  0  0  0  0  0
   38.8900   30.8180   40.0400 C   0  0  0  0  0  3  0  0  0  0  0  0
   38.8660   29.8400   39.5090 H   0  0  0  0  0  0  0  0  0  0  0  0
   38.3100   31.8420   39.3160 O   0  0  0  0  0  0  0  0  0  0  0  0
   36.9550   31.8660   39.5590 C   0  0  0  0  0  3  0  0  0  0  0  0
   36.6770   32.8160   40.0770 H   0  0  0  0  0  0  0  0  0  0  0  0
   35.6240   31.0500   41.4180 O   0  0  0  0  0  0  0  0  0  0  0  0
   34.7540   30.6990   41.1460 H   0  0  0  0  0  0  0  0  0  0  0  0
   40.3100   26.4530   42.0590 O   0  0  0  0  0  0  0  0  0  0  0  0
   40.0500   25.5690   41.6380 H   0  0  0  0  0  0  0  0  0  0  0  0
  1  6  1  0  0  0  0
  2  3  1  0  0  0  0
  2  1  2  0  0  0  0
  3  4  2  0  0  0  0
  4  5  1  0  0  0  0
  5  8  1  0  0  0  0
  6  5  2  0  0  0  0
  7  2  1  0  0  0  0
  9 10  1  0  0  0  0
  9 16  1  1  0  0  0
 10  3  1  6  0  0  0
 11 10  1  0  0  0  0
 12 11  1  0  0  0  0
 13 14  1  0  0  0  0
 13 11  1  0  0  0  0
 14 15  1  0  0  0  0
 14  9  1  0  0  0  0
 17 16  1  0  0  0  0
 18  1  1  0  0  0  0
 19 18  1  0  0  0  0
M  END
>  <minimizedAffinity>
-4.20731783

$$$$

 OpenBabel03242523483D

 19 20  0  0  1  0  0  0  0  0999 V2000
   36.8900   30.6040   38.3650 C   0  0  0  0  0  0  0  0  0  0  0  0
   36.7110   29.4260   39.1190 C   0  0  0  0  0  0  0  0  0  0  0  0
   36.6360   29.5770   40.5130 C   0  0  0  0  0  0  0  0  0  0  0  0
   36.7350   30.8220   41.0460 N   0  0  0  0  0  0  0  0  0  0  0  0
   36.9050   31.9140   40.2820 C   0  0  0  0  0  0  0  0  0  0  0  0
   36.9820   31.8150   38.9560 N   0  0  0  0  0  0  0  0  0  0  0  0
   36.6370   28.4660   38.6790 H   0  0  0  0  0  0  0  0  0  0  0  0
   36.9780   32.8830   40.7500 H   0  0  0  0  0  0  0  0  0  0  0  0
   37.4080   28.3960   42.5640 C   0  0  2  0  0  3  0  0  0  0  0  0
   36.4510   28.4150   41.3950 C   0  0  2  0  0  3  0  0  0  0  0  0
   36.8400   27.0900   40.7560 C   0  0  0  0  0  3  0  0  0  0  0  0
   37.8090   27.2760   40.2400 H   0  0  0  0  0  0  0  0  0  0  0  0
   36.9540   26.2200   41.8240 O   0  0  0  0  0  0  0  0  0  0  0  0
   37.2980   26.9240   42.9560 C   0  0  0  0  0  3  0  0  0  0  0  0
   36.4740   26.8660   43.7080 H   0  0  0  0  0  0  0  0  0  0  0  0
   37.0140   29.2570   43.5670 O   0  0  0  0  0  0  0  0  0  0  0  0
   37.7540   29.6110   44.0970 H   0  0  0  0  0  0  0  0  0  0  0  0
   36.9650   30.4730   37.0100 O   0  0  0  0  0  0  0  0  0  0  0  0
   37.8580   30.6550   36.5690 H   0  0  0  0  0  0  0  0  0  0  0  0
  1  6  2  0  0  0  0
  1  2  1  0  0  0  0
  2  3  2  0  0  0  0
  3  4  1  0  0  0  0
  5  8  1  0  0  0  0
  5  4  2  0  0  0  0
  6  5  1  0  0  0  0
  7  2  1  0  0  0  0
  9 14  1  0  0  0  0
  9 16  1  1  0  0  0
 10  3  1  6  0  0  0
 10  9  1  0  0  0  0
 11 10  1  0  0  0  0
 11 13  1  0  0  0  0
 12 11  1  0  0  0  0
 13 14  1  0  0  0  0
 14 15  1  0  0  0  0
 16 17  1  0  0  0  0
 18  1  1  0  0  0  0
 19 18  1  0  0  0  0
M  END
>  <minimizedAffinity>
-4.18281889

$$$$

 OpenBabel03242523483D

 19 20  0  0  1  0  0  0  0  0999 V2000
   41.5230   33.2030   37.7760 C   0  0  0  0  0  0  0  0  0  0  0  0
   40.3500   32.4230   37.8350 C   0  0  0  0  0  0  0  0  0  0  0  0
   39.5590   32.5650   38.9870 C   0  0  0  0  0  0  0  0  0  0  0  0
   39.9570   33.4280   39.9570 N   0  0  0  0  0  0  0  0  0  0  0  0
   41.0860   34.1490   39.8510 C   0  0  0  0  0  0  0  0  0  0  0  0
   41.8650   34.0450   38.7760 N   0  0  0  0  0  0  0  0  0  0  0  0
   40.0610   31.7570   37.0660 H   0  0  0  0  0  0  0  0  0  0  0  0
   41.3630   34.8230   40.6470 H   0  0  0  0  0  0  0  0  0  0  0  0
   37.4900   32.2530   40.3370 C   0  0  2  0  0  3  0  0  0  0  0  0
   38.3140   31.8000   39.1540 C   0  0  2  0  0  3  0  0  0  0  0  0
   38.5340   30.3520   39.5670 C   0  0  0  0  0  3  0  0  0  0  0  0
   39.3080   30.3800   40.3670 H   0  0  0  0  0  0  0  0  0  0  0  0
   37.2970   29.9390   40.0260 O   0  0  0  0  0  0  0  0  0  0  0  0
   36.6020   31.0240   40.5110 C   0  0  0  0  0  3  0  0  0  0  0  0
   35.6950   31.2080   39.8860 H   0  0  0  0  0  0  0  0  0  0  0  0
   36.7810   33.4030   40.0600 O   0  0  0  0  0  0  0  0  0  0  0  0
   36.6080   33.9590   40.8450 H   0  0  0  0  0  0  0  0  0  0  0  0
   42.3020   33.0760   36.6640 O   0  0  0  0  0  0  0  0  0  0  0  0
   43.2050   32.6310   36.7710 H   0  0  0  0  0  0  0  0  0  0  0  0
  1  2  2  0  0  0  0
  1  6  1  0  0  0  0
  2  3  1  0  0  0  0
  3  4  2  0  0  0  0
  5  4  1  0  0  0  0
  5  8  1  0  0  0  0
  6  5  2  0  0  0  0
  7  2  1  0  0  0  0
  9 16  1  6  0  0  0
  9 14  1  0  0  0  0
 10  3  1  1  0  0  0
 10 11  1  0  0  0  0
 10  9  1  0  0  0  0
 11 13  1  0  0  0  0
 11 12  1  0  0  0  0
 13 14  1  0  0  0  0
 15 14  1  0  0  0  0
 16 17  1  0  0  0  0
 18 19  1  0  0  0  0
 18  1  1  0  0  0  0
M  END
>  <minimizedAffinity>
-4.16268253

$$$$

 OpenBabel03242523483D

 19 20  0  0  1  0  0  0  0  0999 V2000
   33.7390   28.8550   37.4310 C   0  0  0  0  0  0  0  0  0  0  0  0
   34.0670   28.7470   38.7980 C   0  0  0  0  0  0  0  0  0  0  0  0
   35.4170   28.9400   39.1370 C   0  0  0  0  0  0  0  0  0  0  0  0
   36.3100   29.2150   38.1520 N   0  0  0  0  0  0  0  0  0  0  0  0
   35.9440   29.3070   36.8620 C   0  0  0  0  0  0  0  0  0  0  0  0
   34.6750   29.1310   36.4980 N   0  0  0  0  0  0  0  0  0  0  0  0
   33.3520   28.5310   39.5480 H   0  0  0  0  0  0  0  0  0  0  0  0
   36.6880   29.5280   36.1140 H   0  0  0  0  0  0  0  0  0  0  0  0
   36.5140   30.1210   41.0340 C   0  0  2  0  0  3  0  0  0  0  0  0
   35.8710   28.8490   40.5330 C   0  0  2  0  0  3  0  0  0  0  0  0
   37.0440   27.9020   40.7370 C   0  0  0  0  0  3  0  0  0  0  0  0
   37.7560   28.1190   39.9100 H   0  0  0  0  0  0  0  0  0  0  0  0
   37.5400   28.2410   41.9820 O   0  0  0  0  0  0  0  0  0  0  0  0
   37.2670   29.5660   42.2400 C   0  0  0  0  0  3  0  0  0  0  0  0
   36.5670   29.6500   43.1060 H   0  0  0  0  0  0  0  0  0  0  0  0
   35.5770   31.0750   41.3700 O   0  0  0  0  0  0  0  0  0  0  0  0
   35.8940   31.9930   41.2690 H   0  0  0  0  0  0  0  0  0  0  0  0
   32.4320   28.6710   37.0870 O   0  0  0  0  0  0  0  0  0  0  0  0
   32.1980   27.8380   36.5600 H   0  0  0  0  0  0  0  0  0  0  0  0
  1  2  1  0  0  0  0
  2  3  2  0  0  0  0
  2  7  1  0  0  0  0
  4  3  1  0  0  0  0
  5  4  2  0  0  0  0
  6  5  1  0  0  0  0
  6  1  2  0  0  0  0
  8  5  1  0  0  0  0
  9 16  1  1  0  0  0
  9 14  1  0  0  0  0
 10  3  1  6  0  0  0
 10 11  1  0  0  0  0
 10  9  1  0  0  0  0
 11 13  1  0  0  0  0
 12 11  1  0  0  0  0
 13 14  1  0  0  0  0
 14 15  1  0  0  0  0
 17 16  1  0  0  0  0
 18  1  1  0  0  0  0
 19 18  1  0  0  0  0
M  END
>  <minimizedAffinity>
-4.15888739

$$$$

 OpenBabel03242523483D

 19 20  0  0  1  0  0  0  0  0999 V2000
   36.6120   29.8080   41.4940 C   0  0  0  0  0  0  0  0  0  0  0  0
   36.5780   28.4400   41.8360 C   0  0  0  0  0  0  0  0  0  0  0  0
   37.7830   27.8750   42.2860 C   0  0  0  0  0  0  0  0  0  0  0  0
   38.8880   28.6600   42.3670 N   0  0  0  0  0  0  0  0  0  0  0  0
   38.8660   29.9610   42.0280 C   0  0  0  0  0  0  0  0  0  0  0  0
   37.7450   30.5350   41.5960 N   0  0  0  0  0  0  0  0  0  0  0  0
   35.7030   27.8490   41.7640 H   0  0  0  0  0  0  0  0  0  0  0  0
   39.7690   30.5450   42.1080 H   0  0  0  0  0  0  0  0  0  0  0  0
   39.2630   25.8960   42.5900 C   0  0  2  0  0  3  0  0  0  0  0  0
   37.8620   26.4580   42.6690 C   0  0  2  0  0  3  0  0  0  0  0  0
   37.1800   25.5170   41.6870 C   0  0  0  0  0  3  0  0  0  0  0  0
   37.4900   25.8600   40.6750 H   0  0  0  0  0  0  0  0  0  0  0  0
   37.6800   24.2690   42.0110 O   0  0  0  0  0  0  0  0  0  0  0  0
   38.9350   24.4050   42.5600 C   0  0  0  0  0  3  0  0  0  0  0  0
   38.9260   24.0700   43.6250 H   0  0  0  0  0  0  0  0  0  0  0  0
   40.0270   26.2640   43.6780 O   0  0  0  0  0  0  0  0  0  0  0  0
   40.9830   26.3220   43.4870 H   0  0  0  0  0  0  0  0  0  0  0  0
   35.4490   30.3700   41.0550 O   0  0  0  0  0  0  0  0  0  0  0  0
   35.3980   30.6440   40.0810 H   0  0  0  0  0  0  0  0  0  0  0  0
  1  6  2  0  0  0  0
  1  2  1  0  0  0  0
  2  3  2  0  0  0  0
  3  4  1  0  0  0  0
  5  8  1  0  0  0  0
  5  4  2  0  0  0  0
  6  5  1  0  0  0  0
  7  2  1  0  0  0  0
  9 10  1  0  0  0  0
  9 16  1  1  0  0  0
 10  3  1  6  0  0  0
 11 13  1  0  0  0  0
 11 10  1  0  0  0  0
 12 11  1  0  0  0  0
 13 14  1  0  0  0  0
 14  9  1  0  0  0  0
 14 15  1  0  0  0  0
 17 16  1  0  0  0  0
 18  1  1  0  0  0  0
 19 18  1  0  0  0  0
M  END
>  <minimizedAffinity>
-4.15340424

$$$$
