
 OpenBabel03252501013D

 25 27  0  0  1  0  0  0  0  0999 V2000
   47.0640   34.7600   41.7780 C   0  0  1  0  0  0  0  0  0  0  0  0
   48.3740   35.5140   41.8530 C   0  0  0  0  0  0  0  0  0  0  0  0
   48.2930   33.9780   41.8480 C   0  0  2  0  0  0  0  0  0  0  0  0
   46.4990   34.8270   40.8280 H   0  0  0  0  0  0  0  0  0  0  0  0
   48.6210   36.0560   40.9400 H   0  0  0  0  0  0  0  0  0  0  0  0
   48.6200   36.0340   42.7960 H   0  0  0  0  0  0  0  0  0  0  0  0
   48.5260   33.5710   42.8830 H   0  0  0  0  0  0  0  0  0  0  0  0
   44.6170   35.9660   44.3780 C   0  0  0  0  0  0  0  0  0  0  0  0
   45.3330   35.9500   43.1680 C   0  0  0  0  0  0  0  0  0  0  0  0
   46.2380   34.9120   43.0290 C   0  0  0  0  0  0  0  0  0  0  0  0
   46.3830   33.9880   44.0380 N   0  0  0  0  0  0  0  0  0  0  0  0
   45.6690   34.0480   45.1840 C   0  0  0  0  0  0  0  0  0  0  0  0
   44.7810   35.0560   45.3360 N   0  0  0  0  0  0  0  0  0  0  0  0
   43.8930   36.7610   44.5410 H   0  0  0  0  0  0  0  0  0  0  0  0
   45.2040   36.6850   42.3890 H   0  0  0  0  0  0  0  0  0  0  0  0
   45.9390   33.2280   45.8350 H   0  0  0  0  0  0  0  0  0  0  0  0
   47.8150   32.2210   40.2030 C   0  0  2  0  0  3  0  0  0  0  0  0
   48.8510   33.2010   40.7110 C   0  0  2  0  0  3  0  0  0  0  0  0
   50.0010   32.2880   41.0310 C   0  0  0  0  0  3  0  0  0  0  0  0
   49.9650   31.7970   42.0070 H   0  0  0  0  0  0  0  0  0  0  0  0
   49.9600   31.2610   40.0920 O   0  0  0  0  0  0  0  0  0  0  0  0
   48.6510   31.1000   39.6890 C   0  0  0  0  0  3  0  0  0  0  0  0
   48.2630   30.1600   40.1470 H   0  0  0  0  0  0  0  0  0  0  0  0
   47.0390   32.7720   39.1960 O   0  0  0  0  0  0  0  0  0  0  0  0
   46.4890   32.0340   38.8260 H   0  0  0  0  0  0  0  0  0  0  0  0
  1  4  1  6  0  0  0
  1  3  1  0  0  0  0
  1  2  1  0  0  0  0
  1 10  1  0  0  0  0
  2  6  1  0  0  0  0
  3  2  1  0  0  0  0
  3  7  1  1  0  0  0
  5  2  1  0  0  0  0
  8 14  1  0  0  0  0
  8 13  1  0  0  0  0
  9  8  2  0  0  0  0
 10  9  1  0  0  0  0
 10 11  2  0  0  0  0
 11 12  1  0  0  0  0
 12 13  2  0  0  0  0
 12 16  1  0  0  0  0
 15  9  1  0  0  0  0
 17 24  1  6  0  0  0
 17 18  1  0  0  0  0
 18 19  1  1  0  0  0
 18  3  1  0  0  0  0
 19 20  1  0  0  0  0
 21 19  1  0  0  0  0
 22 21  1  0  0  0  0
 22 23  1  0  0  0  0
 22 17  1  0  0  0  0
 25 24  1  0  0  0  0
M  END
>  <minimizedAffinity>
-4.39975023

>  <minimizedRMSD>
0.295779407

$$$$
