
 OpenBabel03242515253D

 31 33  0  0  1  0  0  0  0  0999 V2000
   44.6150   35.7290   43.1420 C   0  0  0  0  0  0  0  0  0  0  0  0
   44.3400   34.7350   42.2020 C   0  0  0  0  0  0  0  0  0  0  0  0
   44.6620   33.4440   42.5510 C   0  0  0  0  0  0  0  0  0  0  0  0
   45.2160   33.2120   43.7590 N   0  0  0  0  0  0  0  0  0  0  0  0
   45.4680   34.2000   44.6440 C   0  0  0  0  0  0  0  0  0  0  0  0
   45.1710   35.4920   44.3520 N   0  0  0  0  0  0  0  0  0  0  0  0
   44.4010   36.7910   42.9740 H   0  0  0  0  0  0  0  0  0  0  0  0
   44.4450   32.6880   41.8220 H   0  0  0  0  0  0  0  0  0  0  0  0
   44.9980   33.1910   46.8600 C   0  0  1  0  0  0  0  0  0  0  0  0
   46.0860   33.7020   45.9180 C   0  0  1  0  0  0  0  0  0  0  0  0
   46.8950   32.4590   45.7130 C   0  0  0  0  0  0  0  0  0  0  0  0
   46.3140   31.7880   45.0690 H   0  0  0  0  0  0  0  0  0  0  0  0
   46.9440   31.9130   46.9920 O   0  0  0  0  0  0  0  0  0  0  0  0
   45.7500   32.1490   47.6210 C   0  0  0  0  0  0  0  0  0  0  0  0
   45.2050   31.1760   47.7170 H   0  0  0  0  0  0  0  0  0  0  0  0
   44.5490   34.2320   47.6690 O   0  0  0  0  0  0  0  0  0  0  0  0
   44.6120   35.0620   47.1340 H   0  0  0  0  0  0  0  0  0  0  0  0
   43.7370   35.1800   40.9470 C   0  0  0  0  0  0  0  0  0  0  0  0
   44.3330   34.7150   40.1090 H   0  0  0  0  0  0  0  0  0  0  0  0
   43.8290   36.2540   40.8090 H   0  0  0  0  0  0  0  0  0  0  0  0
   42.3650   34.6890   40.8810 N   0  0  0  0  0  0  0  0  0  0  0  0
   41.4190   35.2720   41.6340 C   0  0  0  0  0  0  0  0  0  0  0  0
   40.1260   34.7720   41.5400 C   0  0  0  0  0  0  0  0  0  0  0  0
   39.8360   33.7160   40.6990 C   0  0  0  0  0  0  0  0  0  0  0  0
   38.6530   33.2950   40.6430 O   0  0  0  0  0  0  0  0  0  0  0  0
   40.8260   33.1650   39.9600 N   0  0  0  0  0  0  0  0  0  0  0  0
   42.0840   33.6530   40.0540 C   0  0  0  0  0  0  0  0  0  0  0  0
   42.9630   33.0920   39.3360 O   0  0  0  0  0  0  0  0  0  0  0  0
   41.6570   36.0920   42.2850 H   0  0  0  0  0  0  0  0  0  0  0  0
   39.3710   35.2490   42.1520 H   0  0  0  0  0  0  0  0  0  0  0  0
   40.5730   32.3650   39.3310 H   0  0  0  0  0  0  0  0  0  0  0  0
  1  6  1  0  0  0  0
  2  3  1  0  0  0  0
  2  1  2  0  0  0  0
  3  4  2  0  0  0  0
  4  5  1  0  0  0  0
  6  5  2  0  0  0  0
  7  1  1  0  0  0  0
  8  3  1  0  0  0  0
  9 14  1  0  0  0  0
  9 16  1  1  0  0  0
 10  5  1  6  0  0  0
 10  9  1  0  0  0  0
 11 10  1  0  0  0  0
 11 13  1  0  0  0  0
 12 11  1  0  0  0  0
 13 14  1  0  0  0  0
 14 15  1  0  0  0  0
 17 16  1  0  0  0  0
 18  2  1  0  0  0  0
 19 18  1  0  0  0  0
 20 18  1  0  0  0  0
 21 18  1  0  0  0  0
 21 22  1  0  0  0  0
 22 29  1  0  0  0  0
 23 22  2  0  0  0  0
 23 30  1  0  0  0  0
 24 23  1  0  0  0  0
 25 24  2  0  0  0  0
 26 27  1  0  0  0  0
 26 24  1  0  0  0  0
 27 21  1  0  0  0  0
 28 27  2  0  0  0  0
 31 26  1  0  0  0  0
M  END
>  <minimizedAffinity>
-5.68273401

>  <minimizedRMSD>
0.661385

$$$$
