
 OpenBabel03252509163D

 25 27  0  0  1  0  0  0  0  0999 V2000
   45.7600   33.1550   45.0480 C   0  0  0  0  0  0  0  0  0  0  0  0
   45.5840   33.3940   46.4370 C   0  0  0  0  0  0  0  0  0  0  0  0
   46.1000   32.5170   47.3190 C   0  0  0  0  0  0  0  0  0  0  0  0
   46.8000   31.3870   46.8340 C   0  0  0  0  0  0  0  0  0  0  0  0
   46.7100   31.5990   45.0240 S   0  0  0  0  0  0  0  0  0  0  0  0
   45.0470   34.2620   46.7740 H   0  0  0  0  0  0  0  0  0  0  0  0
   46.0540   32.5530   48.3730 H   0  0  0  0  0  0  0  0  0  0  0  0
   44.7850   36.0280   42.9130 C   0  0  0  0  0  0  0  0  0  0  0  0
   44.1800   35.3360   41.8380 C   0  0  0  0  0  0  0  0  0  0  0  0
   44.1350   33.9290   41.8920 C   0  0  0  0  0  0  0  0  0  0  0  0
   44.6830   33.3110   42.9920 N   0  0  0  0  0  0  0  0  0  0  0  0
   45.2480   34.0280   43.9890 C   0  0  0  0  0  0  0  0  0  0  0  0
   45.3030   35.3830   43.9600 N   0  0  0  0  0  0  0  0  0  0  0  0
   44.8170   37.1070   42.8670 H   0  0  0  0  0  0  0  0  0  0  0  0
   43.7500   35.8290   40.9750 H   0  0  0  0  0  0  0  0  0  0  0  0
   43.6930   33.3190   41.1170 H   0  0  0  0  0  0  0  0  0  0  0  0
   48.4140   30.7130   48.4770 C   0  0  2  0  0  3  0  0  0  0  0  0
   47.4730   30.2630   47.3780 C   0  0  2  0  0  3  0  0  0  0  0  0
   48.4420   29.7020   46.3840 C   0  0  0  0  0  3  0  0  0  0  0  0
   48.7870   30.4390   45.6170 H   0  0  0  0  0  0  0  0  0  0  0  0
   49.5180   29.1780   47.0870 O   0  0  0  0  0  0  0  0  0  0  0  0
   49.4110   29.5540   48.4150 C   0  0  0  0  0  3  0  0  0  0  0  0
   48.9880   28.7000   48.9960 H   0  0  0  0  0  0  0  0  0  0  0  0
   47.7930   30.7170   49.7220 O   0  0  0  0  0  0  0  0  0  0  0  0
   46.8320   30.5120   49.6340 H   0  0  0  0  0  0  0  0  0  0  0  0
  1  2  2  0  0  0  0
  2  6  1  0  0  0  0
  2  3  1  0  0  0  0
  3  7  1  0  0  0  0
  4  3  2  0  0  0  0
  5  1  1  0  0  0  0
  5  4  1  0  0  0  0
  8 13  1  0  0  0  0
  9 10  1  0  0  0  0
  9  8  2  0  0  0  0
 10 11  2  0  0  0  0
 11 12  1  0  0  0  0
 12  1  1  0  0  0  0
 13 12  2  0  0  0  0
 14  8  1  0  0  0  0
 15  9  1  0  0  0  0
 16 10  1  0  0  0  0
 17 24  1  1  0  0  0
 18  4  1  6  0  0  0
 18 17  1  0  0  0  0
 19 21  1  0  0  0  0
 19 18  1  0  0  0  0
 20 19  1  0  0  0  0
 21 22  1  0  0  0  0
 22 17  1  0  0  0  0
 22 23  1  0  0  0  0
 25 24  1  0  0  0  0
M  END
>  <minimizedAffinity>
-4.59422541

>  <minimizedRMSD>
2.14011097

$$$$
