
 OpenBabel03242514453D

 21 22  0  0  1  0  0  0  0  0999 V2000
   37.4060   27.1180   42.3590 C   0  0  0  0  0  0  0  0  0  0  0  0
   37.1150   28.0050   41.3260 C   0  0  0  0  0  0  0  0  0  0  0  0
   36.7530   27.4710   40.0870 C   0  0  0  0  0  0  0  0  0  0  0  0
   36.6990   26.1250   39.9360 N   0  0  0  0  0  0  0  0  0  0  0  0
   36.9950   25.2930   40.9800 C   0  0  0  0  0  0  0  0  0  0  0  0
   37.3450   25.7850   42.1820 N   0  0  0  0  0  0  0  0  0  0  0  0
   36.5230   28.1020   39.2730 H   0  0  0  0  0  0  0  0  0  0  0  0
   36.9200   24.2400   40.7470 H   0  0  0  0  0  0  0  0  0  0  0  0
   36.2270   30.1470   40.6250 C   0  0  2  0  0  3  0  0  0  0  0  0
   37.1950   29.4530   41.5690 C   0  0  2  0  0  3  0  0  0  0  0  0
   38.4960   30.0850   41.2120 C   0  0  0  0  0  3  0  0  0  0  0  0
   39.3710   29.5190   41.5690 H   0  0  0  0  0  0  0  0  0  0  0  0
   38.4320   30.2200   39.8440 O   0  0  0  0  0  0  0  0  0  0  0  0
   37.1620   30.7450   39.6240 C   0  0  0  0  0  3  0  0  0  0  0  0
   37.2020   31.8450   39.7420 H   0  0  0  0  0  0  0  0  0  0  0  0
   35.5320   31.0980   41.3580 O   0  0  0  0  0  0  0  0  0  0  0  0
   35.6440   32.0130   40.9920 H   0  0  0  0  0  0  0  0  0  0  0  0
   37.7920   27.6940   43.6800 C   0  0  0  0  0  0  0  0  0  0  0  0
   36.9490   28.2970   44.1230 H   0  0  0  0  0  0  0  0  0  0  0  0
   38.0910   26.8480   44.3590 H   0  0  0  0  0  0  0  0  0  0  0  0
   38.7250   28.3200   43.5860 H   0  0  0  0  0  0  0  0  0  0  0  0
  1 18  1  0  0  0  0
  2  1  2  0  0  0  0
  3  2  1  0  0  0  0
  4  3  2  0  0  0  0
  4  5  1  0  0  0  0
  5  6  2  0  0  0  0
  6  1  1  0  0  0  0
  7  3  1  0  0  0  0
  8  5  1  0  0  0  0
  9 16  1  1  0  0  0
  9 10  1  0  0  0  0
 10  2  1  6  0  0  0
 11 12  1  0  0  0  0
 11 10  1  0  0  0  0
 13 11  1  0  0  0  0
 14 15  1  0  0  0  0
 14 13  1  0  0  0  0
 14  9  1  0  0  0  0
 17 16  1  0  0  0  0
 18 19  1  0  0  0  0
 18 20  1  0  0  0  0
 21 18  1  0  0  0  0
M  END
>  <minimizedAffinity>
-4.33907127

$$$$

 OpenBabel03242514453D

 21 22  0  0  1  0  0  0  0  0999 V2000
   38.5350   29.7930   42.5170 C   0  0  0  0  0  0  0  0  0  0  0  0
   37.7580   30.1760   41.4270 C   0  0  0  0  0  0  0  0  0  0  0  0
   36.6290   29.4090   41.1290 C   0  0  0  0  0  0  0  0  0  0  0  0
   36.3340   28.3350   41.9000 N   0  0  0  0  0  0  0  0  0  0  0  0
   37.1280   27.9980   42.9610 C   0  0  0  0  0  0  0  0  0  0  0  0
   38.2200   28.7220   43.2670 N   0  0  0  0  0  0  0  0  0  0  0  0
   36.0080   29.6590   40.3120 H   0  0  0  0  0  0  0  0  0  0  0  0
   36.7980   27.1240   43.5060 H   0  0  0  0  0  0  0  0  0  0  0  0
   36.8980   31.9010   39.9610 C   0  0  2  0  0  3  0  0  0  0  0  0
   38.1440   31.3550   40.6390 C   0  0  2  0  0  3  0  0  0  0  0  0
   39.0400   31.0780   39.4810 C   0  0  0  0  0  3  0  0  0  0  0  0
   39.8780   30.4050   39.7260 H   0  0  0  0  0  0  0  0  0  0  0  0
   38.1900   30.5900   38.5150 O   0  0  0  0  0  0  0  0  0  0  0  0
   37.1150   31.4750   38.5450 C   0  0  0  0  0  3  0  0  0  0  0  0
   37.3530   32.3500   37.9100 H   0  0  0  0  0  0  0  0  0  0  0  0
   36.9010   33.2800   40.1220 O   0  0  0  0  0  0  0  0  0  0  0  0
   36.8840   33.7610   39.2560 H   0  0  0  0  0  0  0  0  0  0  0  0
   39.7400   30.6150   42.8320 C   0  0  0  0  0  0  0  0  0  0  0  0
   39.4540   31.6690   43.1100 H   0  0  0  0  0  0  0  0  0  0  0  0
   40.3020   30.1100   43.6660 H   0  0  0  0  0  0  0  0  0  0  0  0
   40.4630   30.6120   41.9670 H   0  0  0  0  0  0  0  0  0  0  0  0
  1 18  1  0  0  0  0
  1  6  1  0  0  0  0
  2  1  2  0  0  0  0
  3  2  1  0  0  0  0
  3  4  2  0  0  0  0
  4  5  1  0  0  0  0
  5  6  2  0  0  0  0
  5  8  1  0  0  0  0
  7  3  1  0  0  0  0
  9 16  1  6  0  0  0
  9 10  1  0  0  0  0
 10  2  1  6  0  0  0
 11 12  1  0  0  0  0
 11 10  1  0  0  0  0
 13 14  1  0  0  0  0
 13 11  1  0  0  0  0
 14  9  1  0  0  0  0
 15 14  1  0  0  0  0
 17 16  1  0  0  0  0
 18 19  1  0  0  0  0
 18 20  1  0  0  0  0
 21 18  1  0  0  0  0
M  END
>  <minimizedAffinity>
-4.24119902

$$$$

 OpenBabel03242514453D

 21 22  0  0  1  0  0  0  0  0999 V2000
   37.6050   29.6770   41.8900 C   0  0  0  0  0  0  0  0  0  0  0  0
   37.7090   30.8100   41.0870 C   0  0  0  0  0  0  0  0  0  0  0  0
   36.7250   31.0140   40.1150 C   0  0  0  0  0  0  0  0  0  0  0  0
   35.7190   30.1140   39.9900 N   0  0  0  0  0  0  0  0  0  0  0  0
   35.6610   29.0160   40.8030 C   0  0  0  0  0  0  0  0  0  0  0  0
   36.5960   28.7990   41.7450 N   0  0  0  0  0  0  0  0  0  0  0  0
   36.7600   31.8580   39.4820 H   0  0  0  0  0  0  0  0  0  0  0  0
   34.8170   28.3670   40.6150 H   0  0  0  0  0  0  0  0  0  0  0  0
   38.4920   33.0450   40.5850 C   0  0  2  0  0  3  0  0  0  0  0  0
   38.8300   31.7390   41.2840 C   0  0  2  0  0  3  0  0  0  0  0  0
   40.1050   31.3450   40.6220 C   0  0  0  0  0  3  0  0  0  0  0  0
   40.3670   30.2850   40.7700 H   0  0  0  0  0  0  0  0  0  0  0  0
   39.9160   31.6990   39.3050 O   0  0  0  0  0  0  0  0  0  0  0  0
   39.3780   32.9810   39.3830 C   0  0  0  0  0  3  0  0  0  0  0  0
   40.2050   33.7120   39.4740 H   0  0  0  0  0  0  0  0  0  0  0  0
   38.8170   34.0820   41.4480 O   0  0  0  0  0  0  0  0  0  0  0  0
   39.4770   34.7090   41.0540 H   0  0  0  0  0  0  0  0  0  0  0  0
   38.6570   29.4640   42.9260 C   0  0  0  0  0  0  0  0  0  0  0  0
   38.6510   30.2920   43.6910 H   0  0  0  0  0  0  0  0  0  0  0  0
   38.4800   28.4610   43.4060 H   0  0  0  0  0  0  0  0  0  0  0  0
   39.6740   29.3680   42.4490 H   0  0  0  0  0  0  0  0  0  0  0  0
  1 18  1  0  0  0  0
  2  1  2  0  0  0  0
  3  2  1  0  0  0  0
  4  3  2  0  0  0  0
  4  5  1  0  0  0  0
  5  6  2  0  0  0  0
  6  1  1  0  0  0  0
  7  3  1  0  0  0  0
  8  5  1  0  0  0  0
  9 10  1  0  0  0  0
  9 16  1  1  0  0  0
 10  2  1  6  0  0  0
 11 12  1  0  0  0  0
 11 10  1  0  0  0  0
 13 14  1  0  0  0  0
 13 11  1  0  0  0  0
 14 15  1  0  0  0  0
 14  9  1  0  0  0  0
 17 16  1  0  0  0  0
 18 20  1  0  0  0  0
 18 19  1  0  0  0  0
 21 18  1  0  0  0  0
M  END
>  <minimizedAffinity>
-4.11402035

$$$$

 OpenBabel03242514453D

 21 22  0  0  1  0  0  0  0  0999 V2000
   36.2930   29.7430   38.9550 C   0  0  0  0  0  0  0  0  0  0  0  0
   36.8400   30.8780   39.5490 C   0  0  0  0  0  0  0  0  0  0  0  0
   36.9530   30.8970   40.9410 C   0  0  0  0  0  0  0  0  0  0  0  0
   36.5310   29.8240   41.6550 N   0  0  0  0  0  0  0  0  0  0  0  0
   36.0010   28.7320   41.0260 C   0  0  0  0  0  0  0  0  0  0  0  0
   35.8830   28.6920   39.6870 N   0  0  0  0  0  0  0  0  0  0  0  0
   37.3600   31.7340   41.4380 H   0  0  0  0  0  0  0  0  0  0  0  0
   35.6980   27.9370   41.6930 H   0  0  0  0  0  0  0  0  0  0  0  0
   38.7490   31.8130   38.3890 C   0  0  2  0  0  3  0  0  0  0  0  0
   37.2740   32.0000   38.7050 C   0  0  2  0  0  3  0  0  0  0  0  0
   37.2590   33.3340   39.3680 C   0  0  0  0  0  3  0  0  0  0  0  0
   36.3380   33.5300   39.9390 H   0  0  0  0  0  0  0  0  0  0  0  0
   38.4050   33.3370   40.1310 O   0  0  0  0  0  0  0  0  0  0  0  0
   39.3790   32.8480   39.2640 C   0  0  0  0  0  3  0  0  0  0  0  0
   39.7690   33.6850   38.6530 H   0  0  0  0  0  0  0  0  0  0  0  0
   38.9250   32.0630   37.0350 O   0  0  0  0  0  0  0  0  0  0  0  0
   39.5730   32.7950   36.8670 H   0  0  0  0  0  0  0  0  0  0  0  0
   36.1760   29.7280   37.4680 C   0  0  0  0  0  0  0  0  0  0  0  0
   37.1890   29.7810   36.9770 H   0  0  0  0  0  0  0  0  0  0  0  0
   35.6240   28.7940   37.1680 H   0  0  0  0  0  0  0  0  0  0  0  0
   35.5150   30.5690   37.1110 H   0  0  0  0  0  0  0  0  0  0  0  0
  1  2  2  0  0  0  0
  1  6  1  0  0  0  0
  2  3  1  0  0  0  0
  3  7  1  0  0  0  0
  3  4  2  0  0  0  0
  5  4  1  0  0  0  0
  5  8  1  0  0  0  0
  6  5  2  0  0  0  0
  9 16  1  6  0  0  0
  9 10  1  0  0  0  0
  9 14  1  0  0  0  0
 10 11  1  0  0  0  0
 10  2  1  1  0  0  0
 11 12  1  0  0  0  0
 11 13  1  0  0  0  0
 14 13  1  0  0  0  0
 15 14  1  0  0  0  0
 17 16  1  0  0  0  0
 18  1  1  0  0  0  0
 19 18  1  0  0  0  0
 20 18  1  0  0  0  0
 21 18  1  0  0  0  0
M  END
>  <minimizedAffinity>
-4.09299946

$$$$

 OpenBabel03242514453D

 21 22  0  0  1  0  0  0  0  0999 V2000
   37.6680   27.9240   43.1820 C   0  0  0  0  0  0  0  0  0  0  0  0
   38.6150   27.0480   42.6580 C   0  0  0  0  0  0  0  0  0  0  0  0
   39.8160   27.5870   42.1910 C   0  0  0  0  0  0  0  0  0  0  0  0
   40.0140   28.9260   42.2630 N   0  0  0  0  0  0  0  0  0  0  0  0
   39.0540   29.7460   42.7860 C   0  0  0  0  0  0  0  0  0  0  0  0
   37.8900   29.2490   43.2420 N   0  0  0  0  0  0  0  0  0  0  0  0
   40.5650   26.9640   41.7840 H   0  0  0  0  0  0  0  0  0  0  0  0
   39.3190   30.7950   42.7940 H   0  0  0  0  0  0  0  0  0  0  0  0
   39.6320   24.8680   42.3750 C   0  0  2  0  0  3  0  0  0  0  0  0
   38.3250   25.6070   42.6150 C   0  0  2  0  0  3  0  0  0  0  0  0
   37.4930   25.1620   41.4620 C   0  0  0  0  0  3  0  0  0  0  0  0
   36.6160   25.8040   41.2800 H   0  0  0  0  0  0  0  0  0  0  0  0
   38.3820   25.1140   40.4120 O   0  0  0  0  0  0  0  0  0  0  0  0
   39.4870   24.4560   40.9460 C   0  0  0  0  0  3  0  0  0  0  0  0
   39.3230   23.3630   40.8740 H   0  0  0  0  0  0  0  0  0  0  0  0
   39.6730   23.7920   43.2520 O   0  0  0  0  0  0  0  0  0  0  0  0
   39.7630   22.9240   42.7800 H   0  0  0  0  0  0  0  0  0  0  0  0
   36.3870   27.3420   43.6790 C   0  0  0  0  0  0  0  0  0  0  0  0
   36.5650   26.6470   44.5480 H   0  0  0  0  0  0  0  0  0  0  0  0
   35.7050   28.1910   43.9670 H   0  0  0  0  0  0  0  0  0  0  0  0
   35.8390   26.8130   42.8490 H   0  0  0  0  0  0  0  0  0  0  0  0
  1  6  1  0  0  0  0
  1 18  1  0  0  0  0
  2  1  2  0  0  0  0
  3  4  2  0  0  0  0
  3  2  1  0  0  0  0
  4  5  1  0  0  0  0
  5  8  1  0  0  0  0
  5  6  2  0  0  0  0
  7  3  1  0  0  0  0
  9 10  1  0  0  0  0
  9 16  1  1  0  0  0
 10  2  1  6  0  0  0
 11 10  1  0  0  0  0
 12 11  1  0  0  0  0
 13 14  1  0  0  0  0
 13 11  1  0  0  0  0
 14  9  1  0  0  0  0
 15 14  1  0  0  0  0
 17 16  1  0  0  0  0
 18 20  1  0  0  0  0
 18 19  1  0  0  0  0
 21 18  1  0  0  0  0
M  END
>  <minimizedAffinity>
-4.08748579

$$$$

 OpenBabel03242514453D

 21 22  0  0  1  0  0  0  0  0999 V2000
   35.1380   29.0660   37.5980 C   0  0  0  0  0  0  0  0  0  0  0  0
   36.1010   29.3460   38.5640 C   0  0  0  0  0  0  0  0  0  0  0  0
   37.3900   29.6640   38.1280 C   0  0  0  0  0  0  0  0  0  0  0  0
   37.6530   29.6890   36.7990 N   0  0  0  0  0  0  0  0  0  0  0  0
   36.6730   29.4070   35.8880 C   0  0  0  0  0  0  0  0  0  0  0  0
   35.4260   29.0980   36.2840 N   0  0  0  0  0  0  0  0  0  0  0  0
   38.1550   29.8830   38.8220 H   0  0  0  0  0  0  0  0  0  0  0  0
   36.9950   29.4560   34.8570 H   0  0  0  0  0  0  0  0  0  0  0  0
   36.4790   30.4140   40.7040 C   0  0  2  0  0  3  0  0  0  0  0  0
   35.7360   29.2980   39.9870 C   0  0  2  0  0  3  0  0  0  0  0  0
   36.1990   28.0870   40.7200 C   0  0  0  0  0  3  0  0  0  0  0  0
   36.0130   27.1470   40.1750 H   0  0  0  0  0  0  0  0  0  0  0  0
   37.5290   28.3390   40.9690 O   0  0  0  0  0  0  0  0  0  0  0  0
   37.5330   29.6500   41.4380 C   0  0  0  0  0  3  0  0  0  0  0  0
   37.3190   29.6430   42.5250 H   0  0  0  0  0  0  0  0  0  0  0  0
   35.5770   31.0470   41.5470 O   0  0  0  0  0  0  0  0  0  0  0  0
   35.8670   31.0260   42.4950 H   0  0  0  0  0  0  0  0  0  0  0  0
   33.7630   28.7270   38.0690 C   0  0  0  0  0  0  0  0  0  0  0  0
   33.2950   29.5920   38.6190 H   0  0  0  0  0  0  0  0  0  0  0  0
   33.1480   28.4310   37.1730 H   0  0  0  0  0  0  0  0  0  0  0  0
   33.7780   27.8030   38.7140 H   0  0  0  0  0  0  0  0  0  0  0  0
  1 18  1  0  0  0  0
  1  2  1  0  0  0  0
  3  2  2  0  0  0  0
  3  7  1  0  0  0  0
  4  3  1  0  0  0  0
  5  6  1  0  0  0  0
  5  4  2  0  0  0  0
  6  1  2  0  0  0  0
  8  5  1  0  0  0  0
  9 14  1  0  0  0  0
  9 16  1  1  0  0  0
 10  2  1  6  0  0  0
 10  9  1  0  0  0  0
 10 11  1  0  0  0  0
 11 13  1  0  0  0  0
 12 11  1  0  0  0  0
 13 14  1  0  0  0  0
 14 15  1  0  0  0  0
 16 17  1  0  0  0  0
 18 19  1  0  0  0  0
 18 21  1  0  0  0  0
 20 18  1  0  0  0  0
M  END
>  <minimizedAffinity>
-4.03158045

$$$$

 OpenBabel03242514453D

 21 22  0  0  1  0  0  0  0  0999 V2000
   38.3080   25.2430   42.5160 C   0  0  0  0  0  0  0  0  0  0  0  0
   38.4570   26.5860   42.8500 C   0  0  0  0  0  0  0  0  0  0  0  0
   39.7140   27.0160   43.2840 C   0  0  0  0  0  0  0  0  0  0  0  0
   40.7290   26.1210   43.3640 N   0  0  0  0  0  0  0  0  0  0  0  0
   40.5330   24.8120   43.0250 C   0  0  0  0  0  0  0  0  0  0  0  0
   39.3330   24.3760   42.6040 N   0  0  0  0  0  0  0  0  0  0  0  0
   39.8770   28.0250   43.5490 H   0  0  0  0  0  0  0  0  0  0  0  0
   41.4110   24.1880   43.1270 H   0  0  0  0  0  0  0  0  0  0  0  0
   37.3760   28.1790   41.3800 C   0  0  2  0  0  3  0  0  0  0  0  0
   37.3070   27.4950   42.7350 C   0  0  2  0  0  3  0  0  0  0  0  0
   37.3170   28.6510   43.6750 C   0  0  0  0  0  3  0  0  0  0  0  0
   37.5700   28.3720   44.7110 H   0  0  0  0  0  0  0  0  0  0  0  0
   38.1980   29.5370   43.0990 O   0  0  0  0  0  0  0  0  0  0  0  0
   37.8190   29.5540   41.7590 C   0  0  0  0  0  3  0  0  0  0  0  0
   36.9890   30.2770   41.6300 H   0  0  0  0  0  0  0  0  0  0  0  0
   36.1030   28.1480   40.8280 O   0  0  0  0  0  0  0  0  0  0  0  0
   35.7580   29.0560   40.6250 H   0  0  0  0  0  0  0  0  0  0  0  0
   36.9640   24.7900   42.0520 C   0  0  0  0  0  0  0  0  0  0  0  0
   36.6690   25.3010   41.0920 H   0  0  0  0  0  0  0  0  0  0  0  0
   36.9940   23.6710   41.9280 H   0  0  0  0  0  0  0  0  0  0  0  0
   36.1870   24.9600   42.8510 H   0  0  0  0  0  0  0  0  0  0  0  0
  1  6  2  0  0  0  0
  1  2  1  0  0  0  0
  2  3  2  0  0  0  0
  3  4  1  0  0  0  0
  3  7  1  0  0  0  0
  5  8  1  0  0  0  0
  5  4  2  0  0  0  0
  6  5  1  0  0  0  0
  9 16  1  1  0  0  0
  9 14  1  0  0  0  0
  9 10  1  0  0  0  0
 10  2  1  1  0  0  0
 10 11  1  0  0  0  0
 11 12  1  0  0  0  0
 13 11  1  0  0  0  0
 14 13  1  0  0  0  0
 15 14  1  0  0  0  0
 17 16  1  0  0  0  0
 18  1  1  0  0  0  0
 18 21  1  0  0  0  0
 19 18  1  0  0  0  0
 20 18  1  0  0  0  0
M  END
>  <minimizedAffinity>
-4.01260567

$$$$

 OpenBabel03242514453D

 21 22  0  0  1  0  0  0  0  0999 V2000
   39.0320   28.2870   42.3930 C   0  0  0  0  0  0  0  0  0  0  0  0
   37.8600   28.4790   41.6670 C   0  0  0  0  0  0  0  0  0  0  0  0
   37.0250   27.3760   41.4710 C   0  0  0  0  0  0  0  0  0  0  0  0
   37.3820   26.1740   41.9870 N   0  0  0  0  0  0  0  0  0  0  0  0
   38.5440   26.0360   42.6940 C   0  0  0  0  0  0  0  0  0  0  0  0
   39.3620   27.0840   42.8950 N   0  0  0  0  0  0  0  0  0  0  0  0
   36.1260   27.4700   40.9260 H   0  0  0  0  0  0  0  0  0  0  0  0
   38.7270   25.0340   43.0590 H   0  0  0  0  0  0  0  0  0  0  0  0
   36.0470   29.8780   40.8810 C   0  0  2  0  0  3  0  0  0  0  0  0
   37.5430   29.8140   41.1390 C   0  0  2  0  0  3  0  0  0  0  0  0
   38.1100   30.1150   39.7950 C   0  0  0  0  0  3  0  0  0  0  0  0
   39.1700   29.8300   39.6920 H   0  0  0  0  0  0  0  0  0  0  0  0
   37.2650   29.4650   38.9260 O   0  0  0  0  0  0  0  0  0  0  0  0
   35.9950   29.7990   39.3900 C   0  0  0  0  0  3  0  0  0  0  0  0
   35.7030   30.7770   38.9610 H   0  0  0  0  0  0  0  0  0  0  0  0
   35.5850   31.0890   41.3790 O   0  0  0  0  0  0  0  0  0  0  0  0
   35.1470   31.6420   40.6820 H   0  0  0  0  0  0  0  0  0  0  0  0
   39.9200   29.4690   42.6000 C   0  0  0  0  0  0  0  0  0  0  0  0
   39.4020   30.2680   43.2030 H   0  0  0  0  0  0  0  0  0  0  0  0
   40.8600   29.1170   43.1090 H   0  0  0  0  0  0  0  0  0  0  0  0
   40.2750   29.8790   41.6120 H   0  0  0  0  0  0  0  0  0  0  0  0
  1 18  1  0  0  0  0
  1  6  1  0  0  0  0
  2  1  2  0  0  0  0
  3  2  1  0  0  0  0
  3  4  2  0  0  0  0
  4  5  1  0  0  0  0
  5  6  2  0  0  0  0
  5  8  1  0  0  0  0
  7  3  1  0  0  0  0
  9 10  1  0  0  0  0
  9 16  1  6  0  0  0
 10  2  1  6  0  0  0
 11 10  1  0  0  0  0
 12 11  1  0  0  0  0
 13 14  1  0  0  0  0
 13 11  1  0  0  0  0
 14  9  1  0  0  0  0
 15 14  1  0  0  0  0
 17 16  1  0  0  0  0
 18 20  1  0  0  0  0
 18 19  1  0  0  0  0
 21 18  1  0  0  0  0
M  END
>  <minimizedAffinity>
-4.00032234

$$$$

 OpenBabel03242514453D

 21 22  0  0  1  0  0  0  0  0999 V2000
   38.8340   25.3520   42.5720 C   0  0  0  0  0  0  0  0  0  0  0  0
   38.0760   26.3960   42.0490 C   0  0  0  0  0  0  0  0  0  0  0  0
   37.0550   26.0750   41.1500 C   0  0  0  0  0  0  0  0  0  0  0  0
   36.8440   24.7770   40.8220 N   0  0  0  0  0  0  0  0  0  0  0  0
   37.6150   23.7860   41.3630 C   0  0  0  0  0  0  0  0  0  0  0  0
   38.6030   24.0710   42.2300 N   0  0  0  0  0  0  0  0  0  0  0  0
   36.4530   26.8310   40.7260 H   0  0  0  0  0  0  0  0  0  0  0  0
   37.3580   22.7900   41.0320 H   0  0  0  0  0  0  0  0  0  0  0  0
   37.0550   28.5430   42.5070 C   0  0  2  0  0  3  0  0  0  0  0  0
   38.3670   27.7780   42.4530 C   0  0  2  0  0  3  0  0  0  0  0  0
   39.1580   28.5730   41.4720 C   0  0  0  0  0  3  0  0  0  0  0  0
   40.0260   28.0290   41.0660 H   0  0  0  0  0  0  0  0  0  0  0  0
   38.2320   28.9430   40.5240 O   0  0  0  0  0  0  0  0  0  0  0  0
   37.1490   29.3880   41.2780 C   0  0  0  0  0  3  0  0  0  0  0  0
   37.3120   30.4490   41.5490 H   0  0  0  0  0  0  0  0  0  0  0  0
   37.0480   29.2860   43.6800 O   0  0  0  0  0  0  0  0  0  0  0  0
   36.9430   30.2580   43.5100 H   0  0  0  0  0  0  0  0  0  0  0  0
   39.9220   25.7000   43.5320 C   0  0  0  0  0  0  0  0  0  0  0  0
   39.5060   26.1750   44.4650 H   0  0  0  0  0  0  0  0  0  0  0  0
   40.4940   24.7600   43.7700 H   0  0  0  0  0  0  0  0  0  0  0  0
   40.6840   26.3740   43.0450 H   0  0  0  0  0  0  0  0  0  0  0  0
  1 18  1  0  0  0  0
  2  1  2  0  0  0  0
  3  2  1  0  0  0  0
  4  3  2  0  0  0  0
  4  5  1  0  0  0  0
  5  6  2  0  0  0  0
  6  1  1  0  0  0  0
  7  3  1  0  0  0  0
  8  5  1  0  0  0  0
  9 16  1  1  0  0  0
 10  2  1  6  0  0  0
 10  9  1  0  0  0  0
 11 10  1  0  0  0  0
 12 11  1  0  0  0  0
 13 14  1  0  0  0  0
 13 11  1  0  0  0  0
 14 15  1  0  0  0  0
 14  9  1  0  0  0  0
 17 16  1  0  0  0  0
 18 20  1  0  0  0  0
 18 19  1  0  0  0  0
 21 18  1  0  0  0  0
M  END
>  <minimizedAffinity>
-3.9922328

$$$$
