
 OpenBabel03252504183D

 38 40  0  0  1  0  0  0  0  0999 V2000
   47.2540   29.7320   45.0630 F   0  0  0  0  0  0  0  0  0  0  0  0
   47.3240   30.5320   46.1770 C   0  0  0  0  0  0  0  0  0  0  0  0
   46.9740   31.8470   46.0970 C   0  0  0  0  0  0  0  0  0  0  0  0
   47.0780   32.5780   47.2760 C   0  0  0  0  0  0  0  0  0  0  0  0
   47.5050   32.0020   48.4400 C   0  0  0  0  0  0  0  0  0  0  0  0
   47.8450   30.6660   48.4590 C   0  0  0  0  0  0  0  0  0  0  0  0
   47.7600   29.8830   47.3010 C   0  0  0  0  0  0  0  0  0  0  0  0
   46.8120   33.6260   47.2600 H   0  0  0  0  0  0  0  0  0  0  0  0
   47.5710   32.6110   49.3340 H   0  0  0  0  0  0  0  0  0  0  0  0
   48.1870   30.1930   49.3780 H   0  0  0  0  0  0  0  0  0  0  0  0
   46.8610   34.0440   43.1830 C   0  0  0  0  0  0  0  0  0  0  0  0
   45.7130   33.6440   42.5030 C   0  0  0  0  0  0  0  0  0  0  0  0
   44.9680   32.5950   43.0690 C   0  0  0  0  0  0  0  0  0  0  0  0
   45.3820   32.0270   44.2220 N   0  0  0  0  0  0  0  0  0  0  0  0
   46.5120   32.4520   44.8470 C   0  0  0  0  0  0  0  0  0  0  0  0
   47.2350   33.4510   44.3250 N   0  0  0  0  0  0  0  0  0  0  0  0
   44.0660   32.2620   42.5650 H   0  0  0  0  0  0  0  0  0  0  0  0
   45.3360   34.3160   41.2590 C   0  0  0  0  0  0  0  0  0  0  0  0
   45.1350   35.6650   41.4790 F   0  0  0  0  0  0  0  0  0  0  0  0
   46.4040   34.2020   40.3700 F   0  0  0  0  0  0  0  0  0  0  0  0
   44.2350   33.8190   40.6430 F   0  0  0  0  0  0  0  0  0  0  0  0
   47.5840   35.0530   42.6440 O   0  0  0  0  0  0  0  0  0  0  0  0
   48.8710   34.9560   42.0640 C   0  0  0  0  0  0  0  0  0  0  0  0
   49.7980   35.2910   43.0530 F   0  0  0  0  0  0  0  0  0  0  0  0
   49.0630   33.7050   41.5590 F   0  0  0  0  0  0  0  0  0  0  0  0
   49.0110   35.9360   41.1020 F   0  0  0  0  0  0  0  0  0  0  0  0
   48.1170   28.4250   47.3100 C   0  0  0  0  0  0  0  0  0  0  0  0
   47.9400   27.9550   46.3230 H   0  0  0  0  0  0  0  0  0  0  0  0
   47.4730   27.9700   48.0860 H   0  0  0  0  0  0  0  0  0  0  0  0
   51.4940   29.4920   48.0820 C   0  0  2  0  0  3  0  0  0  0  0  0
   50.4160   29.2280   47.0220 C   0  0  0  0  0  3  0  0  0  0  0  0
   49.8550   30.1370   46.8110 H   0  0  0  0  0  0  0  0  0  0  0  0
   49.5370   28.1910   47.6900 C   0  0  1  0  0  3  0  0  0  0  0  0
   49.8010   28.3670   49.0340 O   0  0  0  0  0  0  0  0  0  0  0  0
   51.2120   28.3260   49.0400 C   0  0  0  0  0  3  0  0  0  0  0  0
   51.5040   27.4180   48.4840 H   0  0  0  0  0  0  0  0  0  0  0  0
   51.2120   30.6860   48.7580 O   0  0  0  0  0  0  0  0  0  0  0  0
   51.4270   30.4910   49.7240 H   0  0  0  0  0  0  0  0  0  0  0  0
  1  2  1  0  0  0  0
  2  7  1  0  0  0  0
  3  2  2  0  0  0  0
  3  4  1  0  0  0  0
  4  5  2  0  0  0  0
  5  6  1  0  0  0  0
  5  9  1  0  0  0  0
  6 10  1  0  0  0  0
  7 27  1  0  0  0  0
  7  6  2  0  0  0  0
  8  4  1  0  0  0  0
 11 16  1  0  0  0  0
 12 13  1  0  0  0  0
 12 11  2  0  0  0  0
 13 14  2  0  0  0  0
 14 15  1  0  0  0  0
 15  3  1  0  0  0  0
 16 15  2  0  0  0  0
 17 13  1  0  0  0  0
 18 19  1  0  0  0  0
 18 12  1  0  0  0  0
 20 18  1  0  0  0  0
 21 18  1  0  0  0  0
 22 11  1  0  0  0  0
 23 22  1  0  0  0  0
 23 24  1  0  0  0  0
 25 23  1  0  0  0  0
 26 23  1  0  0  0  0
 27 29  1  0  0  0  0
 28 27  1  0  0  0  0
 30 37  1  1  0  0  0
 30 35  1  0  0  0  0
 31 33  1  0  0  0  0
 31 30  1  0  0  0  0
 32 31  1  0  0  0  0
 33 27  1  1  0  0  0
 33 34  1  0  0  0  0
 34 35  1  0  0  0  0
 36 35  1  0  0  0  0
 37 38  1  0  0  0  0
M  END
>  <minimizedAffinity>
-5.57139254

>  <minimizedRMSD>
1.14492297

$$$$
