
 OpenBabel03252507063D

 24 25  0  0  1  0  0  0  0  0999 V2000
   44.6470   36.0490   44.5480 C   0  0  0  0  0  0  0  0  0  0  0  0
   45.3010   36.0630   43.2930 C   0  0  0  0  0  0  0  0  0  0  0  0
   46.0700   34.9450   42.9700 C   0  0  0  0  0  0  0  0  0  0  0  0
   46.1550   33.9210   43.8490 N   0  0  0  0  0  0  0  0  0  0  0  0
   45.5180   33.9430   45.0360 C   0  0  0  0  0  0  0  0  0  0  0  0
   44.7640   35.0060   45.3840 N   0  0  0  0  0  0  0  0  0  0  0  0
   44.0300   36.8900   44.8620 H   0  0  0  0  0  0  0  0  0  0  0  0
   45.1550   36.9380   42.6810 H   0  0  0  0  0  0  0  0  0  0  0  0
   46.9920   32.3780   46.3170 C   0  0  1  0  0  3  0  0  0  0  0  0
   45.5850   32.8520   46.0160 C   0  0  1  0  0  3  0  0  0  0  0  0
   45.2190   33.3510   47.4190 C   0  0  0  0  0  3  0  0  0  0  0  0
   44.1140   33.3310   47.5070 H   0  0  0  0  0  0  0  0  0  0  0  0
   45.8800   32.5650   48.3170 O   0  0  0  0  0  0  0  0  0  0  0  0
   46.6990   31.6730   47.6420 C   0  0  0  0  0  3  0  0  0  0  0  0
   46.0630   30.7890   47.3800 H   0  0  0  0  0  0  0  0  0  0  0  0
   47.5090   31.5340   45.3630 O   0  0  0  0  0  0  0  0  0  0  0  0
   47.6910   30.6410   45.7520 H   0  0  0  0  0  0  0  0  0  0  0  0
   46.7090   34.9640   41.7400 O   0  0  0  0  0  0  0  0  0  0  0  0
   48.6430   33.3220   40.9700 O   0  0  0  0  0  0  0  0  0  0  0  0
   48.3960   34.6670   41.6520 P   0  0  0  0  0  0  0  0  0  0  0  0
   49.1210   35.9200   40.8310 O   0  0  0  0  0  0  0  0  0  0  0  0
   48.5920   36.7310   40.9500 H   0  0  0  0  0  0  0  0  0  0  0  0
   48.9610   34.5560   43.2480 O   0  0  0  0  0  0  0  0  0  0  0  0
   49.5300   35.3160   43.5000 H   0  0  0  0  0  0  0  0  0  0  0  0
  1  7  1  0  0  0  0
  1  6  1  0  0  0  0
  2  1  2  0  0  0  0
  3  2  1  0  0  0  0
  3  4  2  0  0  0  0
  4  5  1  0  0  0  0
  5  6  2  0  0  0  0
  8  2  1  0  0  0  0
  9 16  1  6  0  0  0
  9 14  1  0  0  0  0
 10  5  1  6  0  0  0
 10  9  1  0  0  0  0
 10 11  1  0  0  0  0
 11 12  1  0  0  0  0
 11 13  1  0  0  0  0
 14 13  1  0  0  0  0
 15 14  1  0  0  0  0
 16 17  1  0  0  0  0
 18  3  1  0  0  0  0
 19 20  2  0  0  0  0
 20 18  1  0  0  0  0
 20 23  1  0  0  0  0
 21 22  1  0  0  0  0
 21 20  1  0  0  0  0
 23 24  1  0  0  0  0
M  END
>  <minimizedAffinity>
-5.18419933

>  <minimizedRMSD>
0.731960237

$$$$
