
 OpenBabel03252507133D

 42 44  0  0  1  0  0  0  0  0999 V2000
   46.6050   34.8940   42.1000 C   0  0  2  0  0  0  0  0  0  0  0  0
   45.6310   35.5820   43.0310 C   0  0  0  0  0  0  0  0  0  0  0  0
   44.2850   35.6180   42.3550 C   0  0  0  0  0  0  0  0  0  0  0  0
   43.7070   34.3580   42.3060 O   0  0  0  0  0  0  0  0  0  0  0  0
   44.6740   33.3830   42.1880 C   0  0  0  0  0  0  0  0  0  0  0  0
   45.8410   33.8550   41.3360 C   0  0  1  0  0  0  0  0  0  0  0  0
   46.9100   35.6260   41.3240 H   0  0  0  0  0  0  0  0  0  0  0  0
   45.5620   35.0700   43.9890 H   0  0  0  0  0  0  0  0  0  0  0  0
   45.9700   36.6360   43.1360 H   0  0  0  0  0  0  0  0  0  0  0  0
   43.6250   36.1840   43.0810 H   0  0  0  0  0  0  0  0  0  0  0  0
   44.2550   36.2050   41.4470 H   0  0  0  0  0  0  0  0  0  0  0  0
   45.1080   33.2420   43.2070 H   0  0  0  0  0  0  0  0  0  0  0  0
   44.3310   32.3940   41.8750 H   0  0  0  0  0  0  0  0  0  0  0  0
   46.5170   32.9400   41.3900 H   0  0  0  0  0  0  0  0  0  0  0  0
   44.5060   33.0570   39.3580 C   0  0  2  0  0  3  0  0  0  0  0  0
   45.5380   34.0240   39.9240 C   0  0  2  0  0  3  0  0  0  0  0  0
   46.6520   33.5830   38.9630 C   0  0  0  0  0  3  0  0  0  0  0  0
   46.3600   33.8190   37.9160 H   0  0  0  0  0  0  0  0  0  0  0  0
   46.6320   32.1730   39.1520 O   0  0  0  0  0  0  0  0  0  0  0  0
   45.3040   31.8600   38.9270 C   0  0  0  0  0  3  0  0  0  0  0  0
   45.0140   30.9480   39.5160 H   0  0  0  0  0  0  0  0  0  0  0  0
   43.9800   33.6180   38.1950 O   0  0  0  0  0  0  0  0  0  0  0  0
   44.4300   34.4750   37.9940 H   0  0  0  0  0  0  0  0  0  0  0  0
   47.7180   34.4300   42.7200 O   0  0  0  0  0  0  0  0  0  0  0  0
   50.3110   34.7790   42.7280 O   0  0  0  0  0  0  0  0  0  0  0  0
   49.1360   34.4600   41.8840 P   0  0  2  0  0  0  0  0  0  0  0  0
   49.0360   35.6920   40.7310 O   0  0  0  0  0  0  0  0  0  0  0  0
   48.8300   36.5590   41.1720 H   0  0  0  0  0  0  0  0  0  0  0  0
   49.3800   32.9680   41.0520 O   0  0  0  0  0  0  0  0  0  0  0  0
   49.6590   31.2930   42.6880 C   0  0  0  0  0  0  0  0  0  0  0  0
   50.1560   31.9630   41.5940 C   0  0  0  0  0  0  0  0  0  0  0  0
   51.4250   31.5910   41.0830 C   0  0  0  0  0  0  0  0  0  0  0  0
   52.0740   30.5840   41.7160 N   0  0  0  0  0  0  0  0  0  0  0  0
   51.5660   29.9650   42.7630 C   0  0  0  0  0  0  0  0  0  0  0  0
   50.3480   30.3300   43.2460 N   0  0  0  0  0  0  0  0  0  0  0  0
   47.2330   30.8340   42.9910 C   0  0  0  0  0  0  0  0  0  0  0  0
   47.0650   30.4640   41.7700 O   0  0  0  0  0  0  0  0  0  0  0  0
   48.5210   31.2770   43.5370 N   0  0  0  0  0  0  0  0  0  0  0  0
   51.7290   32.1590   40.2370 H   0  0  0  0  0  0  0  0  0  0  0  0
   52.0830   29.1550   43.2770 H   0  0  0  0  0  0  0  0  0  0  0  0
   46.3080   30.7720   43.5440 H   0  0  0  0  0  0  0  0  0  0  0  0
   48.4680   31.5530   44.5350 H   0  0  0  0  0  0  0  0  0  0  0  0
  1  7  1  6  0  0  0
  1 24  1  0  0  0  0
  1  2  1  0  0  0  0
  2  9  1  0  0  0  0
  2  8  1  0  0  0  0
  3  2  1  0  0  0  0
  3 10  1  0  0  0  0
  4  3  1  0  0  0  0
  5  4  1  0  0  0  0
  5 12  1  0  0  0  0
  6 14  1  1  0  0  0
  6  1  1  0  0  0  0
  6  5  1  0  0  0  0
 11  3  1  0  0  0  0
 13  5  1  0  0  0  0
 15 22  1  6  0  0  0
 15 16  1  0  0  0  0
 16 17  1  6  0  0  0
 16  6  1  0  0  0  0
 17 19  1  0  0  0  0
 18 17  1  0  0  0  0
 20 19  1  0  0  0  0
 20 15  1  0  0  0  0
 20 21  1  0  0  0  0
 23 22  1  0  0  0  0
 26 24  1  0  0  0  0
 26 25  2  1  0  0  0
 27 28  1  0  0  0  0
 27 26  1  0  0  0  0
 29 31  1  0  0  0  0
 29 26  1  0  0  0  0
 30 35  1  0  0  0  0
 30 38  1  0  0  0  0
 31 30  2  0  0  0  0
 32 31  1  0  0  0  0
 32 33  2  0  0  0  0
 33 34  1  0  0  0  0
 34 35  2  0  0  0  0
 34 40  1  0  0  0  0
 36 38  1  0  0  0  0
 36 41  1  0  0  0  0
 37 36  2  0  0  0  0
 38 42  1  0  0  0  0
 39 32  1  0  0  0  0
M  END
>  <minimizedAffinity>
-4.4909091

>  <minimizedRMSD>
0.652656794

$$$$
