
 OpenBabel03242517143D

 23 24  0  0  1  0  0  0  0  0999 V2000
   41.6370   35.6280   40.3170 C   0  0  0  0  0  0  0  0  0  0  0  0
   42.1730   35.1920   39.4620 H   0  0  0  0  0  0  0  0  0  0  0  0
   41.6030   36.7280   40.1890 H   0  0  0  0  0  0  0  0  0  0  0  0
   39.0040   33.0980   39.9660 C   0  0  1  0  0  3  0  0  0  0  0  0
   40.0260   34.0190   39.2860 C   0  0  0  0  0  3  0  0  0  0  0  0
   39.5790   34.4080   38.3670 H   0  0  0  0  0  0  0  0  0  0  0  0
   40.2300   35.0310   40.3730 C   0  0  1  0  0  3  0  0  0  0  0  0
   40.0310   34.4040   41.5900 O   0  0  0  0  0  0  0  0  0  0  0  0
   39.6330   33.1010   41.3650 C   0  0  0  0  0  3  0  0  0  0  0  0
   38.9300   32.7440   42.1180 H   0  0  0  0  0  0  0  0  0  0  0  0
   37.7960   33.7540   40.0760 O   0  0  0  0  0  0  0  0  0  0  0  0
   37.4070   34.0600   39.2180 H   0  0  0  0  0  0  0  0  0  0  0  0
   43.5530   35.2690   41.8430 C   0  0  0  0  0  3  0  0  0  0  0  0
   42.2640   35.2210   41.6110 C   0  0  0  0  0  3  0  0  0  0  0  0
   44.2410   35.6940   44.2080 C   0  0  0  0  0  0  0  0  0  0  0  0
   44.2190   34.8900   43.0710 C   0  0  0  0  0  0  0  0  0  0  0  0
   44.8760   33.6660   43.1400 C   0  0  0  0  0  0  0  0  0  0  0  0
   45.5100   33.3060   44.3080 N   0  0  0  0  0  0  0  0  0  0  0  0
   45.5020   34.1210   45.3830 C   0  0  0  0  0  0  0  0  0  0  0  0
   44.8690   35.3060   45.3230 N   0  0  0  0  0  0  0  0  0  0  0  0
   43.7360   36.6530   44.1780 H   0  0  0  0  0  0  0  0  0  0  0  0
   44.8880   33.0030   42.2790 H   0  0  0  0  0  0  0  0  0  0  0  0
   46.0460   33.6810   46.2100 H   0  0  0  0  0  0  0  0  0  0  0  0
  1 14  1  0  0  0  0
  2  1  1  0  0  0  0
  3  1  1  0  0  0  0
  4 11  1  1  0  0  0
  4  9  1  0  0  0  0
  5  4  1  0  0  0  0
  5  7  1  0  0  0  0
  6  5  1  0  0  0  0
  7  1  1  1  0  0  0
  7  8  1  0  0  0  0
  9  8  1  0  0  0  0
  9 10  1  0  0  0  0
 12 11  1  0  0  0  0
 13 16  1  0  0  0  0
 14 13  2  0  0  0  0
 15 20  1  0  0  0  0
 16 17  1  0  0  0  0
 16 15  2  0  0  0  0
 17 18  2  0  0  0  0
 18 19  1  0  0  0  0
 19 23  1  0  0  0  0
 20 19  2  0  0  0  0
 21 15  1  0  0  0  0
 22 17  1  0  0  0  0
M  END
>  <minimizedAffinity>
-4.58564091

>  <minimizedRMSD>
3.17619753

$$$$
