
 OpenBabel03252504413D

 45 48  0  0  1  0  0  0  0  0999 V2000
   46.4370   32.1310   47.7300 C   0  0  0  0  0  0  0  0  0  0  0  0
   45.9710   31.8470   48.9820 C   0  0  0  0  0  0  0  0  0  0  0  0
   46.9340   31.1640   49.6070 N   0  0  0  0  0  0  0  0  0  0  0  0
   47.9910   30.9980   48.8130 C   0  0  0  0  0  0  0  0  0  0  0  0
   47.6760   31.6050   47.6400 N   0  0  0  0  0  0  0  0  0  0  0  0
   49.2360   30.3500   49.0260 N   0  0  0  0  0  0  0  0  0  0  0  0
   50.3340   31.1360   49.6050 C   0  0  0  0  0  0  0  0  0  0  0  0
   50.4200   30.6650   51.0550 C   0  0  0  0  0  0  0  0  0  0  0  0
   50.4310   29.1600   51.1090 C   0  0  0  0  0  0  0  0  0  0  0  0
   50.7480   28.5830   49.7380 C   0  0  0  0  0  0  0  0  0  0  0  0
   49.6660   28.9960   48.7720 C   0  0  0  0  0  0  0  0  0  0  0  0
   45.0110   32.1180   49.3990 H   0  0  0  0  0  0  0  0  0  0  0  0
   46.8700   30.8060   50.5850 H   0  0  0  0  0  0  0  0  0  0  0  0
   51.2870   30.9780   49.0780 H   0  0  0  0  0  0  0  0  0  0  0  0
   50.0620   32.2160   49.6320 H   0  0  0  0  0  0  0  0  0  0  0  0
   51.2760   31.1440   51.5540 H   0  0  0  0  0  0  0  0  0  0  0  0
   49.4930   31.0820   51.5440 H   0  0  0  0  0  0  0  0  0  0  0  0
   51.1160   28.7810   51.8820 H   0  0  0  0  0  0  0  0  0  0  0  0
   49.4120   28.8240   51.4020 H   0  0  0  0  0  0  0  0  0  0  0  0
   51.7210   28.9500   49.3770 H   0  0  0  0  0  0  0  0  0  0  0  0
   50.8380   27.4930   49.8430 H   0  0  0  0  0  0  0  0  0  0  0  0
   48.8300   28.2450   48.8670 H   0  0  0  0  0  0  0  0  0  0  0  0
   49.9910   28.8940   47.7090 H   0  0  0  0  0  0  0  0  0  0  0  0
   45.7300   32.8770   46.6540 C   0  0  0  0  0  0  0  0  0  0  0  0
   45.3270   33.8230   47.0660 H   0  0  0  0  0  0  0  0  0  0  0  0
   44.8230   32.2840   46.3410 H   0  0  0  0  0  0  0  0  0  0  0  0
   46.2420   33.7380   44.3980 C   0  0  0  0  0  3  0  0  0  0  0  0
   46.6400   33.1540   45.5180 C   0  0  0  0  0  3  0  0  0  0  0  0
   47.2410   33.9570   43.3470 C   0  0  0  0  0  0  0  0  0  0  0  0
   47.1100   34.9960   42.4050 C   0  0  0  0  0  0  0  0  0  0  0  0
   48.1010   35.1290   41.4450 C   0  0  0  0  0  0  0  0  0  0  0  0
   49.1410   34.2750   41.4460 N   0  0  0  0  0  0  0  0  0  0  0  0
   49.2510   33.2730   42.3700 C   0  0  0  0  0  0  0  0  0  0  0  0
   48.3210   33.1290   43.2870 N   0  0  0  0  0  0  0  0  0  0  0  0
   46.2570   35.6490   42.4510 H   0  0  0  0  0  0  0  0  0  0  0  0
   48.0350   35.9150   40.7050 H   0  0  0  0  0  0  0  0  0  0  0  0
   50.8190   32.0750   40.8590 C   0  0  1  0  0  3  0  0  0  0  0  0
   50.4340   32.3770   42.2930 C   0  0  2  0  0  3  0  0  0  0  0  0
   50.0850   31.0050   42.7860 C   0  0  0  0  0  3  0  0  0  0  0  0
   50.1780   30.9090   43.8970 H   0  0  0  0  0  0  0  0  0  0  0  0
   50.8790   30.0980   42.1050 O   0  0  0  0  0  0  0  0  0  0  0  0
   51.4950   30.7250   41.0500 C   0  0  0  0  0  3  0  0  0  0  0  0
   51.4980   30.1280   40.1180 H   0  0  0  0  0  0  0  0  0  0  0  0
   49.7010   31.8810   40.0520 O   0  0  0  0  0  0  0  0  0  0  0  0
   49.2450   31.0350   40.3010 H   0  0  0  0  0  0  0  0  0  0  0  0
  1  2  2  0  0  0  0
  2 12  1  0  0  0  0
  2  3  1  0  0  0  0
  3 13  1  0  0  0  0
  4  6  1  0  0  0  0
  4  3  1  0  0  0  0
  5  1  1  0  0  0  0
  5  4  2  0  0  0  0
  6  7  1  0  0  0  0
  7 15  1  0  0  0  0
  7  8  1  0  0  0  0
  8  9  1  0  0  0  0
  8 17  1  0  0  0  0
  8 16  1  0  0  0  0
  9 19  1  0  0  0  0
  9 18  1  0  0  0  0
 10 21  1  0  0  0  0
 10  9  1  0  0  0  0
 11 22  1  0  0  0  0
 11  6  1  0  0  0  0
 11 10  1  0  0  0  0
 14  7  1  0  0  0  0
 20 10  1  0  0  0  0
 23 11  1  0  0  0  0
 24 25  1  0  0  0  0
 24  1  1  0  0  0  0
 26 24  1  0  0  0  0
 27 28  2  0  0  0  0
 28 24  1  0  0  0  0
 29 27  1  0  0  0  0
 30 35  1  0  0  0  0
 30 29  2  0  0  0  0
 31 32  2  0  0  0  0
 31 30  1  0  0  0  0
 32 33  1  0  0  0  0
 33 34  2  0  0  0  0
 34 29  1  0  0  0  0
 36 31  1  0  0  0  0
 37 44  1  6  0  0  0
 37 42  1  0  0  0  0
 37 38  1  0  0  0  0
 38 33  1  6  0  0  0
 38 39  1  0  0  0  0
 39 40  1  0  0  0  0
 41 39  1  0  0  0  0
 42 41  1  0  0  0  0
 43 42  1  0  0  0  0
 44 45  1  0  0  0  0
M  END
>  <minimizedAffinity>
-6.01866961

>  <minimizedRMSD>
0.238112018

$$$$
