
 OpenBabel03242523153D

 25 27  0  0  1  0  0  0  0  0999 V2000
   37.8280   31.4740   39.9800 C   0  0  0  0  0  0  0  0  0  0  0  0
   38.9340   31.8970   40.7600 C   0  0  0  0  0  0  0  0  0  0  0  0
   39.1910   33.2610   40.8600 C   0  0  0  0  0  0  0  0  0  0  0  0
   38.3690   34.1610   40.1970 N   0  0  0  0  0  0  0  0  0  0  0  0
   37.3370   33.7270   39.4680 C   0  0  0  0  0  0  0  0  0  0  0  0
   37.0730   32.3960   39.3630 N   0  0  0  0  0  0  0  0  0  0  0  0
   40.0310   33.5260   41.4590 H   0  0  0  0  0  0  0  0  0  0  0  0
   36.7250   34.4670   38.9690 H   0  0  0  0  0  0  0  0  0  0  0  0
   39.8840   30.9180   41.3510 C   0  0  0  0  0  0  0  0  0  0  0  0
   41.0570   31.3250   42.0570 C   0  0  0  0  0  0  0  0  0  0  0  0
   39.9570   30.8600   42.9180 C   0  0  0  0  0  0  0  0  0  0  0  0
   39.6160   29.8520   41.0650 H   0  0  0  0  0  0  0  0  0  0  0  0
   42.0270   30.7580   42.0510 H   0  0  0  0  0  0  0  0  0  0  0  0
   41.2630   32.4200   42.2430 H   0  0  0  0  0  0  0  0  0  0  0  0
   39.2590   31.5460   43.4250 H   0  0  0  0  0  0  0  0  0  0  0  0
   40.0170   29.8570   43.3620 H   0  0  0  0  0  0  0  0  0  0  0  0
   35.7600   30.1890   40.2900 C   0  0  1  0  0  3  0  0  0  0  0  0
   37.2440   30.0890   39.8280 C   0  0  2  0  0  3  0  0  0  0  0  0
   37.7360   29.1400   40.8900 C   0  0  0  0  0  3  0  0  0  0  0  0
   38.2420   28.2440   40.4590 H   0  0  0  0  0  0  0  0  0  0  0  0
   36.6500   28.7190   41.6730 O   0  0  0  0  0  0  0  0  0  0  0  0
   35.5530   28.7910   40.8040 C   0  0  0  0  0  3  0  0  0  0  0  0
   35.7410   28.0130   40.0270 H   0  0  0  0  0  0  0  0  0  0  0  0
   35.7260   31.0500   41.3860 O   0  0  0  0  0  0  0  0  0  0  0  0
   35.3520   30.6090   42.1730 H   0  0  0  0  0  0  0  0  0  0  0  0
  1  2  1  0  0  0  0
  2  3  2  0  0  0  0
  2  9  1  0  0  0  0
  3  7  1  0  0  0  0
  4  3  1  0  0  0  0
  5  4  2  0  0  0  0
  6  5  1  0  0  0  0
  6  1  2  0  0  0  0
  8  5  1  0  0  0  0
  9 10  1  0  0  0  0
  9 11  1  0  0  0  0
 10 14  1  0  0  0  0
 10 11  1  0  0  0  0
 11 16  1  0  0  0  0
 11 15  1  0  0  0  0
 12  9  1  0  0  0  0
 13 10  1  0  0  0  0
 17 22  1  0  0  0  0
 17 24  1  1  0  0  0
 18  1  1  1  0  0  0
 18 17  1  0  0  0  0
 18 19  1  0  0  0  0
 19 21  1  0  0  0  0
 20 19  1  0  0  0  0
 22 21  1  0  0  0  0
 23 22  1  0  0  0  0
 24 25  1  0  0  0  0
M  END
>  <minimizedAffinity>
-4.60275793

$$$$

 OpenBabel03242523153D

 25 27  0  0  1  0  0  0  0  0999 V2000
   37.5840   30.2310   40.4300 C   0  0  0  0  0  0  0  0  0  0  0  0
   37.0750   29.3410   41.4110 C   0  0  0  0  0  0  0  0  0  0  0  0
   35.9290   28.6100   41.1100 C   0  0  0  0  0  0  0  0  0  0  0  0
   35.3210   28.7720   39.8740 N   0  0  0  0  0  0  0  0  0  0  0  0
   35.8260   29.6220   38.9750 C   0  0  0  0  0  0  0  0  0  0  0  0
   36.9460   30.3420   39.2550 N   0  0  0  0  0  0  0  0  0  0  0  0
   35.5900   27.9550   41.8780 H   0  0  0  0  0  0  0  0  0  0  0  0
   35.3150   29.7150   38.0250 H   0  0  0  0  0  0  0  0  0  0  0  0
   37.6570   29.2790   42.7760 C   0  0  0  0  0  0  0  0  0  0  0  0
   37.3740   28.2080   43.6780 C   0  0  0  0  0  0  0  0  0  0  0  0
   38.7030   28.1410   43.0490 C   0  0  0  0  0  0  0  0  0  0  0  0
   38.2330   30.2250   43.0280 H   0  0  0  0  0  0  0  0  0  0  0  0
   37.2990   28.3230   44.7930 H   0  0  0  0  0  0  0  0  0  0  0  0
   36.7400   27.3320   43.3470 H   0  0  0  0  0  0  0  0  0  0  0  0
   38.9220   27.5130   42.1700 H   0  0  0  0  0  0  0  0  0  0  0  0
   39.5850   28.4260   43.6390 H   0  0  0  0  0  0  0  0  0  0  0  0
   38.5310   32.4100   41.0450 C   0  0  1  0  0  3  0  0  0  0  0  0
   38.8730   31.0180   40.4370 C   0  0  2  0  0  3  0  0  0  0  0  0
   39.2710   31.4780   39.0580 C   0  0  0  0  0  3  0  0  0  0  0  0
   40.2810   31.1100   38.7620 H   0  0  0  0  0  0  0  0  0  0  0  0
   39.2670   32.8810   39.0200 O   0  0  0  0  0  0  0  0  0  0  0  0
   39.5500   33.2610   40.3390 C   0  0  0  0  0  3  0  0  0  0  0  0
   40.5970   32.9230   40.5240 H   0  0  0  0  0  0  0  0  0  0  0  0
   37.2740   32.7730   40.5650 O   0  0  0  0  0  0  0  0  0  0  0  0
   37.3090   33.6200   40.0810 H   0  0  0  0  0  0  0  0  0  0  0  0
  1  2  1  0  0  0  0
  2  9  1  0  0  0  0
  3  2  2  0  0  0  0
  3  7  1  0  0  0  0
  4  3  1  0  0  0  0
  5  6  1  0  0  0  0
  5  4  2  0  0  0  0
  6  1  2  0  0  0  0
  8  5  1  0  0  0  0
  9 12  1  0  0  0  0
  9 11  1  0  0  0  0
  9 10  1  0  0  0  0
 10 13  1  0  0  0  0
 11 16  1  0  0  0  0
 11 10  1  0  0  0  0
 14 10  1  0  0  0  0
 15 11  1  0  0  0  0
 17 24  1  6  0  0  0
 18  1  1  6  0  0  0
 18 17  1  0  0  0  0
 19 18  1  0  0  0  0
 20 19  1  0  0  0  0
 21 19  1  0  0  0  0
 21 22  1  0  0  0  0
 22 23  1  0  0  0  0
 22 17  1  0  0  0  0
 25 24  1  0  0  0  0
M  END
>  <minimizedAffinity>
-4.41043854

$$$$

 OpenBabel03242523153D

 25 27  0  0  1  0  0  0  0  0999 V2000
   38.0900   26.3000   42.6140 C   0  0  0  0  0  0  0  0  0  0  0  0
   37.9890   24.9290   42.2680 C   0  0  0  0  0  0  0  0  0  0  0  0
   39.0710   24.0960   42.5420 C   0  0  0  0  0  0  0  0  0  0  0  0
   40.2070   24.6250   43.1360 N   0  0  0  0  0  0  0  0  0  0  0  0
   40.2690   25.9230   43.4460 C   0  0  0  0  0  0  0  0  0  0  0  0
   39.2190   26.7490   43.1860 N   0  0  0  0  0  0  0  0  0  0  0  0
   38.9440   23.0750   42.2650 H   0  0  0  0  0  0  0  0  0  0  0  0
   41.1760   26.2900   43.9070 H   0  0  0  0  0  0  0  0  0  0  0  0
   36.8230   24.4050   41.5100 C   0  0  0  0  0  0  0  0  0  0  0  0
   36.6360   24.6700   40.1200 C   0  0  0  0  0  0  0  0  0  0  0  0
   37.1170   23.3120   40.4230 C   0  0  0  0  0  0  0  0  0  0  0  0
   36.0760   23.8940   42.1960 H   0  0  0  0  0  0  0  0  0  0  0  0
   35.6340   24.8010   39.6290 H   0  0  0  0  0  0  0  0  0  0  0  0
   37.4180   25.2390   39.5340 H   0  0  0  0  0  0  0  0  0  0  0  0
   38.1790   23.0210   40.3560 H   0  0  0  0  0  0  0  0  0  0  0  0
   36.4080   22.4740   40.3760 H   0  0  0  0  0  0  0  0  0  0  0  0
   37.1370   28.0340   41.1620 C   0  0  1  0  0  3  0  0  0  0  0  0
   37.0290   27.3740   42.5680 C   0  0  2  0  0  3  0  0  0  0  0  0
   37.3940   28.5780   43.3990 C   0  0  0  0  0  3  0  0  0  0  0  0
   36.6330   28.8000   44.1840 H   0  0  0  0  0  0  0  0  0  0  0  0
   37.5250   29.6950   42.5610 O   0  0  0  0  0  0  0  0  0  0  0  0
   36.6630   29.4230   41.4890 C   0  0  0  0  0  3  0  0  0  0  0  0
   35.6370   29.4380   41.9260 H   0  0  0  0  0  0  0  0  0  0  0  0
   38.4920   28.1140   40.8470 O   0  0  0  0  0  0  0  0  0  0  0  0
   38.7640   29.0370   40.6790 H   0  0  0  0  0  0  0  0  0  0  0  0
  1  6  1  0  0  0  0
  2  3  1  0  0  0  0
  2  1  2  0  0  0  0
  3  4  2  0  0  0  0
  4  5  1  0  0  0  0
  5  8  1  0  0  0  0
  6  5  2  0  0  0  0
  7  3  1  0  0  0  0
  9 12  1  0  0  0  0
  9  2  1  0  0  0  0
 10 11  1  0  0  0  0
 10  9  1  0  0  0  0
 11  9  1  0  0  0  0
 13 10  1  0  0  0  0
 14 10  1  0  0  0  0
 15 11  1  0  0  0  0
 16 11  1  0  0  0  0
 17 24  1  1  0  0  0
 17 22  1  0  0  0  0
 17 18  1  0  0  0  0
 18  1  1  6  0  0  0
 18 19  1  0  0  0  0
 19 20  1  0  0  0  0
 21 19  1  0  0  0  0
 22 23  1  0  0  0  0
 22 21  1  0  0  0  0
 25 24  1  0  0  0  0
M  END
>  <minimizedAffinity>
-4.40740585

$$$$

 OpenBabel03242523153D

 25 27  0  0  1  0  0  0  0  0999 V2000
   37.6070   29.5780   41.0760 C   0  0  0  0  0  0  0  0  0  0  0  0
   36.4910   29.8910   40.2580 C   0  0  0  0  0  0  0  0  0  0  0  0
   36.3690   31.1910   39.7750 C   0  0  0  0  0  0  0  0  0  0  0  0
   37.3290   32.1360   40.1060 N   0  0  0  0  0  0  0  0  0  0  0  0
   38.3650   31.8070   40.8820 C   0  0  0  0  0  0  0  0  0  0  0  0
   38.4990   30.5400   41.3610 N   0  0  0  0  0  0  0  0  0  0  0  0
   35.5160   31.3730   39.1640 H   0  0  0  0  0  0  0  0  0  0  0  0
   39.0870   32.5790   41.1140 H   0  0  0  0  0  0  0  0  0  0  0  0
   35.4030   28.9060   40.0240 C   0  0  0  0  0  0  0  0  0  0  0  0
   34.5150   29.0030   38.9100 C   0  0  0  0  0  0  0  0  0  0  0  0
   35.5530   27.9690   38.7740 C   0  0  0  0  0  0  0  0  0  0  0  0
   35.3100   28.1740   40.8870 H   0  0  0  0  0  0  0  0  0  0  0  0
   33.4340   28.6960   38.9340 H   0  0  0  0  0  0  0  0  0  0  0  0
   34.6590   29.8070   38.1290 H   0  0  0  0  0  0  0  0  0  0  0  0
   36.4860   28.1240   38.2070 H   0  0  0  0  0  0  0  0  0  0  0  0
   35.2780   26.9160   38.9240 H   0  0  0  0  0  0  0  0  0  0  0  0
   37.3610   28.0490   42.9800 C   0  0  1  0  0  3  0  0  0  0  0  0
   38.0570   28.2340   41.6000 C   0  0  2  0  0  3  0  0  0  0  0  0
   39.4850   28.2550   42.0800 C   0  0  0  0  0  3  0  0  0  0  0  0
   40.1230   27.5090   41.5500 H   0  0  0  0  0  0  0  0  0  0  0  0
   39.5140   27.9820   43.4560 O   0  0  0  0  0  0  0  0  0  0  0  0
   38.3800   27.1870   43.6720 C   0  0  0  0  0  3  0  0  0  0  0  0
   38.5810   26.2350   43.1280 H   0  0  0  0  0  0  0  0  0  0  0  0
   37.3610   29.2910   43.6130 O   0  0  0  0  0  0  0  0  0  0  0  0
   37.8210   29.2520   44.4720 H   0  0  0  0  0  0  0  0  0  0  0  0
  1  6  1  0  0  0  0
  2  1  2  0  0  0  0
  3  4  2  0  0  0  0
  3  2  1  0  0  0  0
  4  5  1  0  0  0  0
  5  8  1  0  0  0  0
  5  6  2  0  0  0  0
  7  3  1  0  0  0  0
  9  2  1  0  0  0  0
  9 12  1  0  0  0  0
 10 13  1  0  0  0  0
 10  9  1  0  0  0  0
 11 10  1  0  0  0  0
 11 16  1  0  0  0  0
 11  9  1  0  0  0  0
 14 10  1  0  0  0  0
 15 11  1  0  0  0  0
 17 24  1  1  0  0  0
 17 22  1  0  0  0  0
 18  1  1  1  0  0  0
 18 19  1  0  0  0  0
 18 17  1  0  0  0  0
 19 21  1  0  0  0  0
 20 19  1  0  0  0  0
 21 22  1  0  0  0  0
 23 22  1  0  0  0  0
 24 25  1  0  0  0  0
M  END
>  <minimizedAffinity>
-4.27915192

$$$$

 OpenBabel03242523153D

 25 27  0  0  1  0  0  0  0  0999 V2000
   37.6620   30.1770   40.9010 C   0  0  0  0  0  0  0  0  0  0  0  0
   37.6150   29.3080   42.0220 C   0  0  0  0  0  0  0  0  0  0  0  0
   38.5670   29.4690   43.0240 C   0  0  0  0  0  0  0  0  0  0  0  0
   39.5280   30.4620   42.9000 N   0  0  0  0  0  0  0  0  0  0  0  0
   39.5440   31.2610   41.8290 C   0  0  0  0  0  0  0  0  0  0  0  0
   38.6190   31.1150   40.8420 N   0  0  0  0  0  0  0  0  0  0  0  0
   38.4860   28.7950   43.8440 H   0  0  0  0  0  0  0  0  0  0  0  0
   40.3140   32.0190   41.7770 H   0  0  0  0  0  0  0  0  0  0  0  0
   36.6660   28.1660   42.0760 C   0  0  0  0  0  0  0  0  0  0  0  0
   37.1030   26.8210   42.2790 C   0  0  0  0  0  0  0  0  0  0  0  0
   36.4970   27.4510   43.4630 C   0  0  0  0  0  0  0  0  0  0  0  0
   35.6080   28.4890   41.8220 H   0  0  0  0  0  0  0  0  0  0  0  0
   36.6100   25.9200   41.8230 H   0  0  0  0  0  0  0  0  0  0  0  0
   38.1940   26.5960   42.4710 H   0  0  0  0  0  0  0  0  0  0  0  0
   37.0920   27.9020   44.2760 H   0  0  0  0  0  0  0  0  0  0  0  0
   35.4710   27.1780   43.7450 H   0  0  0  0  0  0  0  0  0  0  0  0
   37.0940   29.2660   38.6940 C   0  0  1  0  0  3  0  0  0  0  0  0
   36.6770   30.3180   39.7640 C   0  0  2  0  0  3  0  0  0  0  0  0
   36.9190   31.5610   38.9480 C   0  0  0  0  0  3  0  0  0  0  0  0
   36.0250   32.2280   38.9150 H   0  0  0  0  0  0  0  0  0  0  0  0
   37.2630   31.1940   37.6380 O   0  0  0  0  0  0  0  0  0  0  0  0
   36.6230   29.9620   37.4470 C   0  0  0  0  0  3  0  0  0  0  0  0
   35.5320   30.1900   37.4660 H   0  0  0  0  0  0  0  0  0  0  0  0
   38.4870   29.2390   38.6620 O   0  0  0  0  0  0  0  0  0  0  0  0
   38.8260   29.4480   37.7710 H   0  0  0  0  0  0  0  0  0  0  0  0
  1  2  1  0  0  0  0
  2  9  1  0  0  0  0
  2  3  2  0  0  0  0
  3  7  1  0  0  0  0
  4  3  1  0  0  0  0
  5  4  2  0  0  0  0
  6  1  2  0  0  0  0
  6  5  1  0  0  0  0
  8  5  1  0  0  0  0
  9 10  1  0  0  0  0
  9 11  1  0  0  0  0
 10 14  1  0  0  0  0
 10 11  1  0  0  0  0
 11 16  1  0  0  0  0
 11 15  1  0  0  0  0
 12  9  1  0  0  0  0
 13 10  1  0  0  0  0
 17 24  1  6  0  0  0
 17 18  1  0  0  0  0
 18  1  1  1  0  0  0
 19 18  1  0  0  0  0
 20 19  1  0  0  0  0
 21 19  1  0  0  0  0
 22 23  1  0  0  0  0
 22 21  1  0  0  0  0
 22 17  1  0  0  0  0
 25 24  1  0  0  0  0
M  END
>  <minimizedAffinity>
-4.2647419

$$$$

 OpenBabel03242523153D

 25 27  0  0  1  0  0  0  0  0999 V2000
   37.4200   28.1030   40.6820 C   0  0  0  0  0  0  0  0  0  0  0  0
   37.7680   27.1520   41.6750 C   0  0  0  0  0  0  0  0  0  0  0  0
   37.4170   25.8210   41.4690 C   0  0  0  0  0  0  0  0  0  0  0  0
   36.7390   25.4650   40.3110 N   0  0  0  0  0  0  0  0  0  0  0  0
   36.4250   26.3890   39.3980 C   0  0  0  0  0  0  0  0  0  0  0  0
   36.7630   27.6930   39.5860 N   0  0  0  0  0  0  0  0  0  0  0  0
   37.7030   25.1470   42.2420 H   0  0  0  0  0  0  0  0  0  0  0  0
   35.8950   26.0630   38.5130 H   0  0  0  0  0  0  0  0  0  0  0  0
   38.3710   27.5680   42.9680 C   0  0  0  0  0  0  0  0  0  0  0  0
   39.3010   26.7470   43.6750 C   0  0  0  0  0  0  0  0  0  0  0  0
   39.9090   27.8830   42.9640 C   0  0  0  0  0  0  0  0  0  0  0  0
   37.9110   28.5330   43.3520 H   0  0  0  0  0  0  0  0  0  0  0  0
   39.3770   26.6960   44.7950 H   0  0  0  0  0  0  0  0  0  0  0  0
   39.6580   25.7710   43.2290 H   0  0  0  0  0  0  0  0  0  0  0  0
   40.3830   27.7890   41.9720 H   0  0  0  0  0  0  0  0  0  0  0  0
   40.2240   28.7640   43.5400 H   0  0  0  0  0  0  0  0  0  0  0  0
   36.6880   30.3580   41.3190 C   0  0  1  0  0  3  0  0  0  0  0  0
   37.8050   29.5600   40.5830 C   0  0  2  0  0  3  0  0  0  0  0  0
   37.5900   30.1180   39.1990 C   0  0  0  0  0  3  0  0  0  0  0  0
   38.5270   30.5340   38.7580 H   0  0  0  0  0  0  0  0  0  0  0  0
   36.6230   31.1320   39.2550 O   0  0  0  0  0  0  0  0  0  0  0  0
   36.7420   31.6500   40.5520 C   0  0  0  0  0  3  0  0  0  0  0  0
   37.7470   32.1310   40.5850 H   0  0  0  0  0  0  0  0  0  0  0  0
   35.4750   29.7400   41.0210 O   0  0  0  0  0  0  0  0  0  0  0  0
   34.8550   30.3620   40.5940 H   0  0  0  0  0  0  0  0  0  0  0  0
  1  2  1  0  0  0  0
  2  9  1  0  0  0  0
  3  2  2  0  0  0  0
  3  7  1  0  0  0  0
  4  3  1  0  0  0  0
  5  6  1  0  0  0  0
  5  4  2  0  0  0  0
  6  1  2  0  0  0  0
  8  5  1  0  0  0  0
  9 12  1  0  0  0  0
  9 10  1  0  0  0  0
 10 13  1  0  0  0  0
 11  9  1  0  0  0  0
 11 16  1  0  0  0  0
 11 10  1  0  0  0  0
 14 10  1  0  0  0  0
 15 11  1  0  0  0  0
 17 24  1  6  0  0  0
 18  1  1  6  0  0  0
 18 17  1  0  0  0  0
 19 21  1  0  0  0  0
 19 18  1  0  0  0  0
 20 19  1  0  0  0  0
 21 22  1  0  0  0  0
 22 23  1  0  0  0  0
 22 17  1  0  0  0  0
 25 24  1  0  0  0  0
M  END
>  <minimizedAffinity>
-4.25182962

$$$$

 OpenBabel03242523153D

 25 27  0  0  1  0  0  0  0  0999 V2000
   38.4650   29.7460   41.4140 C   0  0  0  0  0  0  0  0  0  0  0  0
   38.1400   30.7290   40.4450 C   0  0  0  0  0  0  0  0  0  0  0  0
   38.8340   31.9360   40.4680 C   0  0  0  0  0  0  0  0  0  0  0  0
   39.8120   32.1430   41.4300 N   0  0  0  0  0  0  0  0  0  0  0  0
   40.0900   31.1960   42.3300 C   0  0  0  0  0  0  0  0  0  0  0  0
   39.4200   30.0110   42.3190 N   0  0  0  0  0  0  0  0  0  0  0  0
   38.5550   32.6380   39.7180 H   0  0  0  0  0  0  0  0  0  0  0  0
   40.8590   31.4050   43.0620 H   0  0  0  0  0  0  0  0  0  0  0  0
   37.0010   30.5460   39.5080 C   0  0  0  0  0  0  0  0  0  0  0  0
   36.9460   31.1970   38.2380 C   0  0  0  0  0  0  0  0  0  0  0  0
   37.2960   29.7680   38.1770 C   0  0  0  0  0  0  0  0  0  0  0  0
   36.1650   29.9410   39.9820 H   0  0  0  0  0  0  0  0  0  0  0  0
   35.9990   31.5510   37.7490 H   0  0  0  0  0  0  0  0  0  0  0  0
   37.8130   31.8270   37.8790 H   0  0  0  0  0  0  0  0  0  0  0  0
   38.3340   29.4060   38.0910 H   0  0  0  0  0  0  0  0  0  0  0  0
   36.5310   29.0460   37.8590 H   0  0  0  0  0  0  0  0  0  0  0  0
   36.7150   28.3530   42.4240 C   0  0  1  0  0  3  0  0  0  0  0  0
   37.9830   28.3190   41.5210 C   0  0  2  0  0  3  0  0  0  0  0  0
   38.8610   27.4820   42.4160 C   0  0  0  0  0  3  0  0  0  0  0  0
   39.2810   26.5930   41.8890 H   0  0  0  0  0  0  0  0  0  0  0  0
   38.1130   27.0470   43.5210 O   0  0  0  0  0  0  0  0  0  0  0  0
   36.7970   26.9850   43.0420 C   0  0  0  0  0  3  0  0  0  0  0  0
   36.7990   26.1680   42.2830 H   0  0  0  0  0  0  0  0  0  0  0  0
   36.9510   29.2860   43.4320 O   0  0  0  0  0  0  0  0  0  0  0  0
   36.8800   28.8790   44.3160 H   0  0  0  0  0  0  0  0  0  0  0  0
  1  6  1  0  0  0  0
  2  3  1  0  0  0  0
  2  1  2  0  0  0  0
  3  4  2  0  0  0  0
  4  5  1  0  0  0  0
  5  8  1  0  0  0  0
  6  5  2  0  0  0  0
  7  3  1  0  0  0  0
  9 12  1  0  0  0  0
  9  2  1  0  0  0  0
 10  9  1  0  0  0  0
 11 10  1  0  0  0  0
 11  9  1  0  0  0  0
 13 10  1  0  0  0  0
 14 10  1  0  0  0  0
 15 11  1  0  0  0  0
 16 11  1  0  0  0  0
 17 22  1  0  0  0  0
 17 24  1  1  0  0  0
 18  1  1  1  0  0  0
 18 19  1  0  0  0  0
 18 17  1  0  0  0  0
 19 21  1  0  0  0  0
 20 19  1  0  0  0  0
 22 21  1  0  0  0  0
 23 22  1  0  0  0  0
 24 25  1  0  0  0  0
M  END
>  <minimizedAffinity>
-4.1498847

$$$$

 OpenBabel03242523153D

 25 27  0  0  1  0  0  0  0  0999 V2000
   37.7000   26.6560   41.5820 C   0  0  0  0  0  0  0  0  0  0  0  0
   36.9930   27.8820   41.4900 C   0  0  0  0  0  0  0  0  0  0  0  0
   37.1820   28.8320   42.4900 C   0  0  0  0  0  0  0  0  0  0  0  0
   38.0440   28.5550   43.5400 N   0  0  0  0  0  0  0  0  0  0  0  0
   38.6910   27.3880   43.5980 C   0  0  0  0  0  0  0  0  0  0  0  0
   38.5170   26.4510   42.6260 N   0  0  0  0  0  0  0  0  0  0  0  0
   36.6300   29.7360   42.3720 H   0  0  0  0  0  0  0  0  0  0  0  0
   39.3520   27.2180   44.4370 H   0  0  0  0  0  0  0  0  0  0  0  0
   35.9730   28.1100   40.4330 C   0  0  0  0  0  0  0  0  0  0  0  0
   35.4110   29.3980   40.1810 C   0  0  0  0  0  0  0  0  0  0  0  0
   36.4140   28.9660   39.1940 C   0  0  0  0  0  0  0  0  0  0  0  0
   35.6320   27.1330   39.9650 H   0  0  0  0  0  0  0  0  0  0  0  0
   34.3520   29.5730   39.8470 H   0  0  0  0  0  0  0  0  0  0  0  0
   35.7820   30.3060   40.7440 H   0  0  0  0  0  0  0  0  0  0  0  0
   37.4680   29.2900   39.2260 H   0  0  0  0  0  0  0  0  0  0  0  0
   36.0750   28.6070   38.2130 H   0  0  0  0  0  0  0  0  0  0  0  0
   36.6430   24.5440   40.9160 C   0  0  1  0  0  3  0  0  0  0  0  0
   37.7950   25.5340   40.5760 C   0  0  2  0  0  3  0  0  0  0  0  0
   38.9570   24.6140   40.8510 C   0  0  0  0  0  3  0  0  0  0  0  0
   39.6600   24.5470   39.9870 H   0  0  0  0  0  0  0  0  0  0  0  0
   38.4710   23.3310   41.1430 O   0  0  0  0  0  0  0  0  0  0  0  0
   37.2580   23.2550   40.4450 C   0  0  0  0  0  3  0  0  0  0  0  0
   37.5380   23.2800   39.3660 H   0  0  0  0  0  0  0  0  0  0  0  0
   36.5480   24.4820   42.3060 O   0  0  0  0  0  0  0  0  0  0  0  0
   36.6700   23.5690   42.6300 H   0  0  0  0  0  0  0  0  0  0  0  0
  1  6  1  0  0  0  0
  2  1  2  0  0  0  0
  2  3  1  0  0  0  0
  3  4  2  0  0  0  0
  4  5  1  0  0  0  0
  5  8  1  0  0  0  0
  6  5  2  0  0  0  0
  7  3  1  0  0  0  0
  9  2  1  0  0  0  0
 10  9  1  0  0  0  0
 10 14  1  0  0  0  0
 11 15  1  0  0  0  0
 11 10  1  0  0  0  0
 11  9  1  0  0  0  0
 12  9  1  0  0  0  0
 13 10  1  0  0  0  0
 16 11  1  0  0  0  0
 17 24  1  1  0  0  0
 18 19  1  0  0  0  0
 18 17  1  0  0  0  0
 18  1  1  1  0  0  0
 19 21  1  0  0  0  0
 20 19  1  0  0  0  0
 22 17  1  0  0  0  0
 22 21  1  0  0  0  0
 23 22  1  0  0  0  0
 24 25  1  0  0  0  0
M  END
>  <minimizedAffinity>
-4.08708525

$$$$

 OpenBabel03242523153D

 25 27  0  0  1  0  0  0  0  0999 V2000
   38.1690   29.7870   41.9100 C   0  0  0  0  0  0  0  0  0  0  0  0
   39.0600   30.7790   41.4270 C   0  0  0  0  0  0  0  0  0  0  0  0
   38.5300   31.8700   40.7440 C   0  0  0  0  0  0  0  0  0  0  0  0
   37.1580   31.9540   40.5520 N   0  0  0  0  0  0  0  0  0  0  0  0
   36.3480   30.9990   41.0180 C   0  0  0  0  0  0  0  0  0  0  0  0
   36.8530   29.9280   41.6890 N   0  0  0  0  0  0  0  0  0  0  0  0
   39.2410   32.5870   40.4040 H   0  0  0  0  0  0  0  0  0  0  0  0
   35.2860   31.1090   40.8420 H   0  0  0  0  0  0  0  0  0  0  0  0
   40.5340   30.6080   41.5210 C   0  0  0  0  0  0  0  0  0  0  0  0
   41.4320   31.7180   41.5110 C   0  0  0  0  0  0  0  0  0  0  0  0
   41.2230   31.1140   42.8370 C   0  0  0  0  0  0  0  0  0  0  0  0
   40.8300   29.5120   41.4790 H   0  0  0  0  0  0  0  0  0  0  0  0
   42.4580   31.6970   41.0540 H   0  0  0  0  0  0  0  0  0  0  0  0
   41.0360   32.7760   41.4970 H   0  0  0  0  0  0  0  0  0  0  0  0
   40.5210   31.5250   43.5820 H   0  0  0  0  0  0  0  0  0  0  0  0
   42.0040   30.4640   43.2550 H   0  0  0  0  0  0  0  0  0  0  0  0
   38.7850   27.4120   41.8470 C   0  0  1  0  0  3  0  0  0  0  0  0
   38.4570   28.6000   42.7990 C   0  0  2  0  0  3  0  0  0  0  0  0
   37.2070   28.0350   43.4230 C   0  0  0  0  0  3  0  0  0  0  0  0
   37.2540   28.0290   44.5380 H   0  0  0  0  0  0  0  0  0  0  0  0
   37.0160   26.7220   42.9680 O   0  0  0  0  0  0  0  0  0  0  0  0
   38.3110   26.2630   42.6910 C   0  0  0  0  0  3  0  0  0  0  0  0
   38.8230   26.2130   43.6810 H   0  0  0  0  0  0  0  0  0  0  0  0
   37.9290   27.5130   40.7510 O   0  0  0  0  0  0  0  0  0  0  0  0
   37.3860   26.7070   40.6500 H   0  0  0  0  0  0  0  0  0  0  0  0
  2  9  1  0  0  0  0
  2  1  2  0  0  0  0
  3  2  1  0  0  0  0
  4  3  2  0  0  0  0
  4  5  1  0  0  0  0
  5  6  2  0  0  0  0
  6  1  1  0  0  0  0
  7  3  1  0  0  0  0
  8  5  1  0  0  0  0
  9 11  1  0  0  0  0
 10  9  1  0  0  0  0
 10 11  1  0  0  0  0
 11 16  1  0  0  0  0
 11 15  1  0  0  0  0
 12  9  1  0  0  0  0
 13 10  1  0  0  0  0
 14 10  1  0  0  0  0
 17 24  1  6  0  0  0
 17 22  1  0  0  0  0
 17 18  1  0  0  0  0
 18  1  1  6  0  0  0
 18 19  1  0  0  0  0
 19 20  1  0  0  0  0
 21 19  1  0  0  0  0
 22 21  1  0  0  0  0
 22 23  1  0  0  0  0
 25 24  1  0  0  0  0
M  END
>  <minimizedAffinity>
-4.03708696

$$$$
