
 OpenBabel03242523463D

 19 20  0  0  1  0  0  0  0  0999 V2000
   45.0140   35.4320   44.1300 C   0  0  0  0  0  0  0  0  0  0  0  0
   46.0280   35.0880   43.2120 C   0  0  0  0  0  0  0  0  0  0  0  0
   46.8890   34.0440   43.5890 C   0  0  0  0  0  0  0  0  0  0  0  0
   46.7000   33.4370   44.7890 N   0  0  0  0  0  0  0  0  0  0  0  0
   45.7170   33.8030   45.6280 C   0  0  0  0  0  0  0  0  0  0  0  0
   44.8790   34.7880   45.3100 N   0  0  0  0  0  0  0  0  0  0  0  0
   46.1540   35.5780   42.2830 H   0  0  0  0  0  0  0  0  0  0  0  0
   45.6060   33.2910   46.5710 H   0  0  0  0  0  0  0  0  0  0  0  0
   47.5540   33.4270   41.2710 C   0  0  2  0  0  3  0  0  0  0  0  0
   47.9810   33.6030   42.7090 C   0  0  2  0  0  3  0  0  0  0  0  0
   48.4580   32.1850   42.9850 C   0  0  0  0  0  3  0  0  0  0  0  0
   47.5360   31.5760   43.1110 H   0  0  0  0  0  0  0  0  0  0  0  0
   49.1810   31.8470   41.8570 O   0  0  0  0  0  0  0  0  0  0  0  0
   48.7000   32.5480   40.7750 C   0  0  0  0  0  3  0  0  0  0  0  0
   49.4820   33.2470   40.3920 H   0  0  0  0  0  0  0  0  0  0  0  0
   47.4680   34.6330   40.6080 O   0  0  0  0  0  0  0  0  0  0  0  0
   46.8140   34.6380   39.8830 H   0  0  0  0  0  0  0  0  0  0  0  0
   44.1700   36.4440   43.7780 O   0  0  0  0  0  0  0  0  0  0  0  0
   44.2360   37.3120   44.2950 H   0  0  0  0  0  0  0  0  0  0  0  0
  1  6  1  0  0  0  0
  2  3  1  0  0  0  0
  2  1  2  0  0  0  0
  3  4  2  0  0  0  0
  4  5  1  0  0  0  0
  5  8  1  0  0  0  0
  6  5  2  0  0  0  0
  7  2  1  0  0  0  0
  9 16  1  6  0  0  0
  9 10  1  0  0  0  0
 10 11  1  0  0  0  0
 10  3  1  1  0  0  0
 11 12  1  0  0  0  0
 13 11  1  0  0  0  0
 14  9  1  0  0  0  0
 14 13  1  0  0  0  0
 15 14  1  0  0  0  0
 17 16  1  0  0  0  0
 18  1  1  0  0  0  0
 18 19  1  0  0  0  0
M  END
>  <minimizedAffinity>
-4.09108925

>  <minimizedRMSD>
0.551217377

$$$$
