
 OpenBabel03252502393D

 46 49  0  0  1  0  0  0  0  0999 V2000
   45.7170   32.7760   39.9180 C   0  0  1  0  0  0  0  0  0  0  0  0
   45.6330   31.8540   40.5650 H   0  0  0  0  0  0  0  0  0  0  0  0
   44.6360   33.6320   40.3260 N   0  0  0  0  0  0  0  0  0  0  0  0
   43.5000   32.9160   40.7780 C   0  0  0  0  0  0  0  0  0  0  0  0
   42.3530   33.9430   40.7780 C   0  0  0  0  0  0  0  0  0  0  0  0
   42.6710   34.7790   41.9070 N   0  0  0  0  0  0  0  0  0  0  0  0
   43.8960   35.4530   41.7630 C   0  0  0  0  0  0  0  0  0  0  0  0
   45.0530   34.6170   41.2350 C   0  0  0  0  0  0  0  0  0  0  0  0
   43.5650   32.5030   41.7870 H   0  0  0  0  0  0  0  0  0  0  0  0
   43.1970   32.1500   40.0070 H   0  0  0  0  0  0  0  0  0  0  0  0
   41.3830   33.4500   40.9290 H   0  0  0  0  0  0  0  0  0  0  0  0
   42.3910   34.5880   39.8780 H   0  0  0  0  0  0  0  0  0  0  0  0
   42.5990   34.2220   42.7800 H   0  0  0  0  0  0  0  0  0  0  0  0
   44.1440   35.9380   42.7320 H   0  0  0  0  0  0  0  0  0  0  0  0
   43.7380   36.3040   41.0510 H   0  0  0  0  0  0  0  0  0  0  0  0
   45.2600   34.0360   42.1900 H   0  0  0  0  0  0  0  0  0  0  0  0
   45.7910   35.3460   41.0070 H   0  0  0  0  0  0  0  0  0  0  0  0
   46.0560   31.1050   38.1000 C   0  0  0  0  0  0  0  0  0  0  0  0
   45.7330   32.3710   38.5470 C   0  0  0  0  0  0  0  0  0  0  0  0
   45.3960   33.3060   37.5460 C   0  0  0  0  0  0  0  0  0  0  0  0
   45.4060   32.9220   36.2320 N   0  0  0  0  0  0  0  0  0  0  0  0
   45.7350   31.6620   35.8690 C   0  0  0  0  0  0  0  0  0  0  0  0
   46.0630   30.7450   36.8140 N   0  0  0  0  0  0  0  0  0  0  0  0
   46.3190   30.3660   38.8470 H   0  0  0  0  0  0  0  0  0  0  0  0
   45.1330   34.3170   37.8370 H   0  0  0  0  0  0  0  0  0  0  0  0
   45.6830   31.5660   34.8040 H   0  0  0  0  0  0  0  0  0  0  0  0
   47.0470   33.4770   40.2250 C   0  0  0  0  0  0  0  0  0  0  0  0
   47.4870   34.0430   39.4110 H   0  0  0  0  0  0  0  0  0  0  0  0
   46.6210   34.3310   40.8450 H   0  0  0  0  0  0  0  0  0  0  0  0
   48.0200   32.7090   40.9310 C   0  0  0  0  0  0  0  0  0  0  0  0
   48.2830   32.3480   42.2080 C   0  0  0  0  0  0  0  0  0  0  0  0
   49.3290   31.5740   42.6740 C   0  0  0  0  0  0  0  0  0  0  0  0
   50.1770   31.1350   41.7530 N   0  0  0  0  0  0  0  0  0  0  0  0
   49.9950   31.4400   40.4890 C   0  0  0  0  0  0  0  0  0  0  0  0
   48.9670   32.1860   40.1220 N   0  0  0  0  0  0  0  0  0  0  0  0
   47.5290   32.7660   42.9050 H   0  0  0  0  0  0  0  0  0  0  0  0
   49.3360   31.4140   43.7520 H   0  0  0  0  0  0  0  0  0  0  0  0
   52.4120   31.1250   40.0940 C   0  0  1  0  0  0  0  0  0  0  0  0
   51.0130   30.8910   39.5320 C   0  0  2  0  0  0  0  0  0  0  0  0
   51.0720   31.6790   38.2650 C   0  0  0  0  0  0  0  0  0  0  0  0
   50.4810   31.2770   37.4320 H   0  0  0  0  0  0  0  0  0  0  0  0
   52.3900   31.9320   37.9460 O   0  0  0  0  0  0  0  0  0  0  0  0
   53.1940   31.2160   38.7990 C   0  0  0  0  0  0  0  0  0  0  0  0
   53.3570   30.2140   38.3340 H   0  0  0  0  0  0  0  0  0  0  0  0
   52.4920   32.3390   40.7360 O   0  0  0  0  0  0  0  0  0  0  0  0
   52.6540   33.0420   40.0610 H   0  0  0  0  0  0  0  0  0  0  0  0
  1 27  1  0  0  0  0
  1  3  1  0  0  0  0
  1  2  1  1  0  0  0
  3  4  1  0  0  0  0
  3  8  1  0  0  0  0
  4  5  1  0  0  0  0
  4  9  1  0  0  0  0
  5 11  1  0  0  0  0
  5  6  1  0  0  0  0
  6 13  1  0  0  0  0
  7  6  1  0  0  0  0
  7 14  1  0  0  0  0
  8  7  1  0  0  0  0
  8 16  1  0  0  0  0
 10  4  1  0  0  0  0
 12  5  1  0  0  0  0
 15  7  1  0  0  0  0
 17  8  1  0  0  0  0
 18 19  1  0  0  0  0
 18 24  1  0  0  0  0
 19  1  1  0  0  0  0
 20 25  1  0  0  0  0
 20 19  2  0  0  0  0
 21 20  1  0  0  0  0
 22 21  2  0  0  0  0
 22 23  1  0  0  0  0
 23 18  2  0  0  0  0
 26 22  1  0  0  0  0
 27 29  1  0  0  0  0
 27 30  1  0  0  0  0
 28 27  1  0  0  0  0
 30 31  1  0  0  0  0
 31 32  2  0  0  0  0
 31 36  1  0  0  0  0
 32 37  1  0  0  0  0
 33 32  1  0  0  0  0
 34 33  2  0  0  0  0
 35 34  1  0  0  0  0
 35 30  2  0  0  0  0
 38 45  1  6  0  0  0
 39 38  1  0  0  0  0
 39 34  1  1  0  0  0
 40 39  1  0  0  0  0
 41 40  1  0  0  0  0
 42 40  1  0  0  0  0
 42 43  1  0  0  0  0
 43 38  1  0  0  0  0
 44 43  1  0  0  0  0
 46 45  1  0  0  0  0
M  END
>  <minimizedAffinity>
-4.52383566

>  <minimizedRMSD>
3.13788271

$$$$
