
 OpenBabel03252505303D

 27 28  0  0  1  0  0  0  0  0999 V2000
   47.4080   32.4390   48.2570 O   0  0  0  0  0  0  0  0  0  0  0  0
   46.4950   32.2750   47.0310 P   0  0  1  0  0  0  0  0  0  0  0  0
   44.8820   32.4960   47.4280 O   0  0  0  0  0  0  0  0  0  0  0  0
   44.6930   33.4410   47.7150 H   0  0  0  0  0  0  0  0  0  0  0  0
   47.0060   33.4110   45.8740 O   0  0  0  0  0  0  0  0  0  0  0  0
   44.8580   33.0690   43.0800 C   0  0  0  0  0  0  0  0  0  0  0  0
   45.5850   33.5940   41.9830 C   0  0  0  0  0  0  0  0  0  0  0  0
   46.8820   34.0760   42.2920 C   0  0  0  0  0  0  0  0  0  0  0  0
   47.3070   33.9970   43.5800 N   0  0  0  0  0  0  0  0  0  0  0  0
   46.5670   33.4890   44.5660 C   0  0  0  0  0  0  0  0  0  0  0  0
   45.3340   33.0210   44.3170 N   0  0  0  0  0  0  0  0  0  0  0  0
   43.8580   32.6990   42.8290 H   0  0  0  0  0  0  0  0  0  0  0  0
   45.1790   33.6240   40.9800 H   0  0  0  0  0  0  0  0  0  0  0  0
   47.4890   34.4900   41.4980 H   0  0  0  0  0  0  0  0  0  0  0  0
   46.7120   30.7050   46.4860 O   0  0  0  0  0  0  0  0  0  0  0  0
   46.7230   29.8600   47.5730 C   0  0  0  0  0  0  0  0  0  0  0  0
   45.7720   29.2930   47.5760 H   0  0  0  0  0  0  0  0  0  0  0  0
   46.7280   30.4770   48.4940 H   0  0  0  0  0  0  0  0  0  0  0  0
   49.2690   28.0780   45.8310 C   0  0  1  0  0  3  0  0  0  0  0  0
   48.8870   29.3540   46.5380 C   0  0  0  0  0  3  0  0  0  0  0  0
   49.7580   29.9430   46.8960 H   0  0  0  0  0  0  0  0  0  0  0  0
   47.9240   28.9440   47.6010 C   0  0  2  0  0  3  0  0  0  0  0  0
   47.5020   27.6520   47.3090 O   0  0  0  0  0  0  0  0  0  0  0  0
   48.4770   27.0470   46.5650 C   0  0  0  0  0  3  0  0  0  0  0  0
   49.1570   26.4820   47.2620 H   0  0  0  0  0  0  0  0  0  0  0  0
   48.9140   28.0850   44.4710 O   0  0  0  0  0  0  0  0  0  0  0  0
   49.1460   28.9770   44.0600 H   0  0  0  0  0  0  0  0  0  0  0  0
  2  3  1  0  0  0  0
  2  1  2  1  0  0  0
  3  4  1  0  0  0  0
  5  2  1  0  0  0  0
  6 11  1  0  0  0  0
  7  8  1  0  0  0  0
  7  6  2  0  0  0  0
  8  9  2  0  0  0  0
  9 10  1  0  0  0  0
 10  5  1  0  0  0  0
 11 10  2  0  0  0  0
 12  6  1  0  0  0  0
 13  7  1  0  0  0  0
 14  8  1  0  0  0  0
 15  2  1  0  0  0  0
 15 16  1  0  0  0  0
 16 17  1  0  0  0  0
 16 18  1  0  0  0  0
 19 26  1  6  0  0  0
 19 20  1  0  0  0  0
 19 24  1  0  0  0  0
 20 21  1  0  0  0  0
 20 22  1  0  0  0  0
 22 16  1  6  0  0  0
 23 22  1  0  0  0  0
 24 25  1  0  0  0  0
 24 23  1  0  0  0  0
 27 26  1  0  0  0  0
M  END
>  <minimizedAffinity>
-3.18353057

>  <minimizedRMSD>
3.252877

$$$$
