
 OpenBabel03252509163D

 25 27  0  0  1  0  0  0  0  0999 V2000
   45.8490   33.2500   46.2850 C   0  0  0  0  0  0  0  0  0  0  0  0
   45.1830   33.1040   47.5310 C   0  0  0  0  0  0  0  0  0  0  0  0
   45.5780   32.1280   48.3700 C   0  0  0  0  0  0  0  0  0  0  0  0
   46.6430   31.2800   47.9840 C   0  0  0  0  0  0  0  0  0  0  0  0
   47.0950   31.9200   46.3350 S   0  0  0  0  0  0  0  0  0  0  0  0
   44.3780   33.7650   47.7960 H   0  0  0  0  0  0  0  0  0  0  0  0
   45.1880   31.8920   49.3220 H   0  0  0  0  0  0  0  0  0  0  0  0
   44.4560   36.1370   44.4180 C   0  0  0  0  0  0  0  0  0  0  0  0
   45.1390   35.9830   43.1890 C   0  0  0  0  0  0  0  0  0  0  0  0
   46.0390   34.9070   43.0570 C   0  0  0  0  0  0  0  0  0  0  0  0
   46.1990   34.0690   44.1350 N   0  0  0  0  0  0  0  0  0  0  0  0
   45.5160   34.2680   45.2850 C   0  0  0  0  0  0  0  0  0  0  0  0
   44.6440   35.2950   45.4360 N   0  0  0  0  0  0  0  0  0  0  0  0
   43.7660   36.9630   44.5140 H   0  0  0  0  0  0  0  0  0  0  0  0
   45.0080   36.6470   42.3440 H   0  0  0  0  0  0  0  0  0  0  0  0
   46.6040   34.7130   42.1560 H   0  0  0  0  0  0  0  0  0  0  0  0
   48.7880   30.5720   48.7940 C   0  0  2  0  0  3  0  0  0  0  0  0
   47.3500   30.1770   48.5280 C   0  0  2  0  0  3  0  0  0  0  0  0
   47.5310   29.1090   47.4970 C   0  0  0  0  0  3  0  0  0  0  0  0
   47.4910   29.4810   46.4440 H   0  0  0  0  0  0  0  0  0  0  0  0
   48.7350   28.4690   47.7520 O   0  0  0  0  0  0  0  0  0  0  0  0
   49.4240   29.1810   48.7180 C   0  0  0  0  0  3  0  0  0  0  0  0
   49.2820   28.6800   49.7050 H   0  0  0  0  0  0  0  0  0  0  0  0
   48.9590   31.0840   50.0750 O   0  0  0  0  0  0  0  0  0  0  0  0
   48.0900   31.1760   50.5330 H   0  0  0  0  0  0  0  0  0  0  0  0
  1  5  1  0  0  0  0
  1  2  2  0  0  0  0
  2  6  1  0  0  0  0
  2  3  1  0  0  0  0
  3  7  1  0  0  0  0
  4  3  2  0  0  0  0
  5  4  1  0  0  0  0
  8 14  1  0  0  0  0
  8 13  1  0  0  0  0
  9  8  2  0  0  0  0
 10  9  1  0  0  0  0
 10 11  2  0  0  0  0
 11 12  1  0  0  0  0
 12 13  2  0  0  0  0
 12  1  1  0  0  0  0
 15  9  1  0  0  0  0
 16 10  1  0  0  0  0
 17 24  1  1  0  0  0
 18  4  1  6  0  0  0
 18 17  1  0  0  0  0
 19 21  1  0  0  0  0
 19 18  1  0  0  0  0
 20 19  1  0  0  0  0
 21 22  1  0  0  0  0
 22 17  1  0  0  0  0
 22 23  1  0  0  0  0
 24 25  1  0  0  0  0
M  END
>  <minimizedAffinity>
-5.11003685

>  <minimizedRMSD>
0.904326022

$$$$
