
 OpenBabel03252507583D

 27 29  0  0  1  0  0  0  0  0999 V2000
   46.9620   32.3210   46.5400 C   0  0  1  0  0  0  0  0  0  0  0  0
   47.1550   32.5810   47.9990 C   0  0  0  0  0  0  0  0  0  0  0  0
   46.0250   31.7310   47.5510 C   0  0  2  0  0  0  0  0  0  0  0  0
   47.7280   31.7630   45.9990 H   0  0  0  0  0  0  0  0  0  0  0  0
   46.9510   33.6080   48.3800 H   0  0  0  0  0  0  0  0  0  0  0  0
   48.0970   32.1810   48.4160 H   0  0  0  0  0  0  0  0  0  0  0  0
   45.0100   32.2120   47.6810 H   0  0  0  0  0  0  0  0  0  0  0  0
   46.2270   34.4450   43.6390 C   0  0  0  0  0  0  0  0  0  0  0  0
   45.1700   35.2510   44.0860 C   0  0  0  0  0  0  0  0  0  0  0  0
   44.7010   35.0580   45.4110 C   0  0  0  0  0  0  0  0  0  0  0  0
   45.3070   34.1010   46.1650 N   0  0  0  0  0  0  0  0  0  0  0  0
   46.3290   33.3560   45.6620 C   0  0  0  0  0  0  0  0  0  0  0  0
   46.7970   33.5050   44.4290 N   0  0  0  0  0  0  0  0  0  0  0  0
   44.6990   36.0070   43.4760 H   0  0  0  0  0  0  0  0  0  0  0  0
   43.8920   35.6470   45.8130 H   0  0  0  0  0  0  0  0  0  0  0  0
   46.6320   34.7140   42.2990 C   0  0  0  0  0  0  0  0  0  0  0  0
   47.6810   35.3400   41.9560 O   0  0  0  0  0  0  0  0  0  0  0  0
   45.9940   34.3550   41.4940 H   0  0  0  0  0  0  0  0  0  0  0  0
   47.0730   29.4730   47.1050 C   0  0  2  0  0  3  0  0  0  0  0  0
   45.9710   30.2530   47.7300 C   0  0  2  0  0  3  0  0  0  0  0  0
   44.7500   29.6610   47.0580 C   0  0  0  0  0  3  0  0  0  0  0  0
   44.4230   28.7340   47.5320 H   0  0  0  0  0  0  0  0  0  0  0  0
   45.1800   29.4950   45.7420 O   0  0  0  0  0  0  0  0  0  0  0  0
   46.4990   29.1010   45.7590 C   0  0  0  0  0  3  0  0  0  0  0  0
   46.5030   27.9890   45.6340 H   0  0  0  0  0  0  0  0  0  0  0  0
   47.3400   28.2850   47.8260 O   0  0  0  0  0  0  0  0  0  0  0  0
   46.5590   27.9360   48.2900 H   0  0  0  0  0  0  0  0  0  0  0  0
  1  4  1  6  0  0  0
  1  3  1  0  0  0  0
  1  2  1  0  0  0  0
  2  5  1  0  0  0  0
  2  6  1  0  0  0  0
  3  7  1  1  0  0  0
  3 20  1  0  0  0  0
  3  2  1  0  0  0  0
  8  9  2  0  0  0  0
  8 13  1  0  0  0  0
  9 10  1  0  0  0  0
 10 15  1  0  0  0  0
 10 11  2  0  0  0  0
 12 11  1  0  0  0  0
 12  1  1  0  0  0  0
 13 12  2  0  0  0  0
 14  9  1  0  0  0  0
 16  8  1  0  0  0  0
 17 16  2  0  0  0  0
 18 16  1  0  0  0  0
 19 20  1  0  0  0  0
 19 26  1  1  0  0  0
 20 21  1  6  0  0  0
 21 22  1  0  0  0  0
 23 24  1  0  0  0  0
 23 21  1  0  0  0  0
 24 19  1  0  0  0  0
 25 24  1  0  0  0  0
 26 27  1  0  0  0  0
M  END
>  <minimizedAffinity>
-4.54084921

>  <minimizedRMSD>
1.62607002

$$$$
