
 OpenBabel03252509043D

 48 50  0  0  1  0  0  0  0  0999 V2000
   46.6620   34.3660   43.4860 N   0  0  0  0  0  0  0  0  0  0  0  0
   46.4500   34.9540   42.2190 C   0  0  0  0  0  0  0  0  0  0  0  0
   44.9900   35.0110   41.7970 C   0  0  0  0  0  0  0  0  0  0  0  0
   44.0360   35.2510   42.9430 C   0  0  0  0  0  0  0  0  0  0  0  0
   44.7740   35.4590   44.2530 C   0  0  0  0  0  0  0  0  0  0  0  0
   45.6470   34.1450   44.3830 C   0  0  2  0  0  0  0  0  0  0  0  0
   46.9890   34.5020   41.3810 H   0  0  0  0  0  0  0  0  0  0  0  0
   46.8010   36.0080   42.2700 H   0  0  0  0  0  0  0  0  0  0  0  0
   44.9090   35.7790   41.0000 H   0  0  0  0  0  0  0  0  0  0  0  0
   44.7620   34.0320   41.3130 H   0  0  0  0  0  0  0  0  0  0  0  0
   43.3510   34.3980   43.0700 H   0  0  0  0  0  0  0  0  0  0  0  0
   43.4100   36.1480   42.7740 H   0  0  0  0  0  0  0  0  0  0  0  0
   45.4430   36.3170   44.2450 H   0  0  0  0  0  0  0  0  0  0  0  0
   44.0220   35.4340   45.0560 H   0  0  0  0  0  0  0  0  0  0  0  0
   44.9660   33.2910   44.1950 H   0  0  0  0  0  0  0  0  0  0  0  0
   47.8440   33.5460   43.5670 C   0  0  0  0  0  0  0  0  0  0  0  0
   47.8970   33.1760   44.6330 H   0  0  0  0  0  0  0  0  0  0  0  0
   48.7510   34.1120   43.3290 H   0  0  0  0  0  0  0  0  0  0  0  0
   47.6370   32.3510   42.7100 C   0  0  0  0  0  0  0  0  0  0  0  0
   47.3680   31.4210   43.2560 H   0  0  0  0  0  0  0  0  0  0  0  0
   46.7920   32.4970   41.9820 H   0  0  0  0  0  0  0  0  0  0  0  0
   51.2130   32.3070   41.5710 C   0  0  0  0  0  0  0  0  0  0  0  0
   50.0570   32.5110   42.3520 C   0  0  0  0  0  0  0  0  0  0  0  0
   48.8350   32.1240   41.8680 C   0  0  0  0  0  0  0  0  0  0  0  0
   48.8090   31.5660   40.6630 N   0  0  0  0  0  0  0  0  0  0  0  0
   49.8930   31.3650   39.9110 C   0  0  0  0  0  0  0  0  0  0  0  0
   51.1170   31.7330   40.3550 N   0  0  0  0  0  0  0  0  0  0  0  0
   52.1360   32.6470   42.0440 H   0  0  0  0  0  0  0  0  0  0  0  0
   50.1150   32.9690   43.3310 H   0  0  0  0  0  0  0  0  0  0  0  0
   49.8630   30.9070   38.9230 H   0  0  0  0  0  0  0  0  0  0  0  0
   46.0450   34.2350   45.7050 O   0  0  0  0  0  0  0  0  0  0  0  0
   45.5530   31.6190   45.5620 O   0  0  0  0  0  0  0  0  0  0  0  0
   45.9850   32.7490   46.4940 P   0  0  2  0  0  0  0  0  0  0  0  0
   44.7180   32.8940   47.6430 O   0  0  0  0  0  0  0  0  0  0  0  0
   45.0930   33.1100   48.5330 H   0  0  0  0  0  0  0  0  0  0  0  0
   47.3900   32.3900   47.3250 O   0  0  0  0  0  0  0  0  0  0  0  0
   47.7230   31.0740   47.0780 C   0  0  0  0  0  0  0  0  0  0  0  0
   48.7470   31.0530   46.6120 H   0  0  0  0  0  0  0  0  0  0  0  0
   47.0390   30.5120   46.4480 H   0  0  0  0  0  0  0  0  0  0  0  0
   49.9440   29.8180   49.5050 C   0  0  2  0  0  3  0  0  0  0  0  0
   49.0440   29.3940   48.3810 C   0  0  0  0  0  3  0  0  0  0  0  0
   49.5430   29.3220   47.3940 H   0  0  0  0  0  0  0  0  0  0  0  0
   47.9270   30.3970   48.4420 C   0  0  1  0  0  3  0  0  0  0  0  0
   48.2220   31.3120   49.4160 O   0  0  0  0  0  0  0  0  0  0  0  0
   49.5880   31.2830   49.6420 C   0  0  0  0  0  3  0  0  0  0  0  0
   49.8140   31.6700   50.6660 H   0  0  0  0  0  0  0  0  0  0  0  0
   51.2680   29.6510   49.1040 O   0  0  0  0  0  0  0  0  0  0  0  0
   51.3040   29.8240   48.1120 H   0  0  0  0  0  0  0  0  0  0  0  0
  1 16  1  0  0  0  0
  1  6  1  0  0  0  0
  2  8  1  0  0  0  0
  2  1  1  0  0  0  0
  3  2  1  0  0  0  0
  3  4  1  0  0  0  0
  4 11  1  0  0  0  0
  4  5  1  0  0  0  0
  5  6  1  0  0  0  0
  5 14  1  0  0  0  0
  6 15  1  6  0  0  0
  6 31  1  0  0  0  0
  7  2  1  0  0  0  0
  9  3  1  0  0  0  0
 10  3  1  0  0  0  0
 12  4  1  0  0  0  0
 13  5  1  0  0  0  0
 16 17  1  0  0  0  0
 18 16  1  0  0  0  0
 19 20  1  0  0  0  0
 19 16  1  0  0  0  0
 21 19  1  0  0  0  0
 22 28  1  0  0  0  0
 22 23  1  0  0  0  0
 23 29  1  0  0  0  0
 24 23  2  0  0  0  0
 24 19  1  0  0  0  0
 25 24  1  0  0  0  0
 26 27  1  0  0  0  0
 26 25  2  0  0  0  0
 27 22  2  0  0  0  0
 30 26  1  0  0  0  0
 31 33  1  0  0  0  0
 33 32  2  6  0  0  0
 33 36  1  0  0  0  0
 33 34  1  0  0  0  0
 34 35  1  0  0  0  0
 37 36  1  0  0  0  0
 38 37  1  0  0  0  0
 39 37  1  0  0  0  0
 40 47  1  6  0  0  0
 40 45  1  0  0  0  0
 41 43  1  0  0  0  0
 41 40  1  0  0  0  0
 42 41  1  0  0  0  0
 43 37  1  6  0  0  0
 43 44  1  0  0  0  0
 44 45  1  0  0  0  0
 45 46  1  0  0  0  0
 48 47  1  0  0  0  0
M  END
>  <minimizedAffinity>
-4.931427

>  <minimizedRMSD>
3.10149908

$$$$
