
 OpenBabel03252506413D

 40 43  0  0  1  0  0  0  0  0999 V2000
   49.3440   33.2370   41.4690 N   0  0  1  0  0  0  0  0  0  0  0  0
   50.6650   33.1340   42.0510 C   0  0  0  0  0  0  0  0  0  0  0  0
   51.3480   31.8310   41.8480 C   0  0  0  0  0  0  0  0  0  0  0  0
   50.5820   30.7530   42.5530 C   0  0  0  0  0  0  0  0  0  0  0  0
   49.1080   30.9900   42.4590 C   0  0  0  0  0  0  0  0  0  0  0  0
   48.7660   31.9250   41.3600 C   0  0  2  0  0  0  0  0  0  0  0  0
   50.5780   33.2840   43.1490 H   0  0  0  0  0  0  0  0  0  0  0  0
   51.2660   33.9810   41.6630 H   0  0  0  0  0  0  0  0  0  0  0  0
   52.3360   31.9330   42.3930 H   0  0  0  0  0  0  0  0  0  0  0  0
   51.6610   31.5950   40.8180 H   0  0  0  0  0  0  0  0  0  0  0  0
   50.8420   30.8030   43.6320 H   0  0  0  0  0  0  0  0  0  0  0  0
   50.8840   29.7310   42.2500 H   0  0  0  0  0  0  0  0  0  0  0  0
   48.6020   30.0340   42.2680 H   0  0  0  0  0  0  0  0  0  0  0  0
   48.6740   31.3670   43.4090 H   0  0  0  0  0  0  0  0  0  0  0  0
   47.6650   32.1370   41.5620 H   0  0  0  0  0  0  0  0  0  0  0  0
   47.1880   34.5570   41.9900 C   0  0  1  0  0  0  0  0  0  0  0  0
   48.3080   35.4740   41.7090 C   0  0  0  0  0  0  0  0  0  0  0  0
   48.5920   34.1330   42.2820 C   0  0  2  0  0  0  0  0  0  0  0  0
   46.6880   34.1450   41.0920 H   0  0  0  0  0  0  0  0  0  0  0  0
   48.4680   36.3420   42.3680 H   0  0  0  0  0  0  0  0  0  0  0  0
   48.5830   35.6930   40.6560 H   0  0  0  0  0  0  0  0  0  0  0  0
   48.8310   34.0980   43.3830 H   0  0  0  0  0  0  0  0  0  0  0  0
   45.5080   36.0290   43.1600 C   0  0  0  0  0  0  0  0  0  0  0  0
   46.2800   34.8490   43.1380 C   0  0  0  0  0  0  0  0  0  0  0  0
   46.1640   33.9610   44.2190 C   0  0  0  0  0  0  0  0  0  0  0  0
   45.3130   34.2860   45.2300 N   0  0  0  0  0  0  0  0  0  0  0  0
   44.5860   35.4290   45.2180 C   0  0  0  0  0  0  0  0  0  0  0  0
   44.6800   36.3080   44.1810 N   0  0  0  0  0  0  0  0  0  0  0  0
   45.5910   36.7130   42.3340 H   0  0  0  0  0  0  0  0  0  0  0  0
   46.7430   33.0440   44.2350 H   0  0  0  0  0  0  0  0  0  0  0  0
   43.9130   35.6800   46.0230 H   0  0  0  0  0  0  0  0  0  0  0  0
   49.9570   31.6980   39.1200 C   0  0  1  0  0  3  0  0  0  0  0  0
   48.7700   31.4030   39.9650 C   0  0  1  0  0  3  0  0  0  0  0  0
   48.8610   29.8680   39.9970 C   0  0  0  0  0  3  0  0  0  0  0  0
   47.9580   29.3930   40.3740 H   0  0  0  0  0  0  0  0  0  0  0  0
   49.2690   29.4870   38.7340 O   0  0  0  0  0  0  0  0  0  0  0  0
   49.8190   30.5710   38.0840 C   0  0  0  0  0  3  0  0  0  0  0  0
   49.0500   30.8920   37.3270 H   0  0  0  0  0  0  0  0  0  0  0  0
   49.8440   32.8620   38.3690 O   0  0  0  0  0  0  0  0  0  0  0  0
   50.5680   33.5050   38.5270 H   0  0  0  0  0  0  0  0  0  0  0  0
  1  2  1  1  0  0  0
  1 18  1  0  0  0  0
  2  7  1  0  0  0  0
  3  2  1  0  0  0  0
  3  9  1  0  0  0  0
  3  4  1  0  0  0  0
  4 11  1  0  0  0  0
  5  4  1  0  0  0  0
  5 14  1  0  0  0  0
  6  1  1  0  0  0  0
  6 15  1  1  0  0  0
  6  5  1  0  0  0  0
  8  2  1  0  0  0  0
 10  3  1  0  0  0  0
 12  4  1  0  0  0  0
 13  5  1  0  0  0  0
 16 19  1  6  0  0  0
 16 18  1  0  0  0  0
 16 24  1  0  0  0  0
 17 16  1  0  0  0  0
 17 18  1  0  0  0  0
 17 20  1  0  0  0  0
 18 22  1  1  0  0  0
 21 17  1  0  0  0  0
 23 28  1  0  0  0  0
 24 23  2  0  0  0  0
 24 25  1  0  0  0  0
 25 30  1  0  0  0  0
 25 26  2  0  0  0  0
 27 26  1  0  0  0  0
 27 31  1  0  0  0  0
 28 27  2  0  0  0  0
 29 23  1  0  0  0  0
 32 39  1  6  0  0  0
 32 33  1  0  0  0  0
 33 34  1  1  0  0  0
 33  6  1  0  0  0  0
 34 35  1  0  0  0  0
 36 34  1  0  0  0  0
 37 36  1  0  0  0  0
 37 32  1  0  0  0  0
 38 37  1  0  0  0  0
 39 40  1  0  0  0  0
M  END
>  <minimizedAffinity>
-5.03133392

>  <minimizedRMSD>
0.846106827

$$$$
