
 OpenBabel03252504413D

 45 48  0  0  1  0  0  0  0  0999 V2000
   46.4400   32.1090   47.7240 C   0  0  0  0  0  0  0  0  0  0  0  0
   45.9720   31.8360   48.9770 C   0  0  0  0  0  0  0  0  0  0  0  0
   46.9320   31.1570   49.6100 N   0  0  0  0  0  0  0  0  0  0  0  0
   47.9910   30.9830   48.8200 C   0  0  0  0  0  0  0  0  0  0  0  0
   47.6790   31.5820   47.6410 N   0  0  0  0  0  0  0  0  0  0  0  0
   49.2350   30.3360   49.0410 N   0  0  0  0  0  0  0  0  0  0  0  0
   50.3320   31.1260   49.6160 C   0  0  0  0  0  0  0  0  0  0  0  0
   50.4140   30.6670   51.0700 C   0  0  0  0  0  0  0  0  0  0  0  0
   50.4240   29.1620   51.1360 C   0  0  0  0  0  0  0  0  0  0  0  0
   50.7430   28.5740   49.7710 C   0  0  0  0  0  0  0  0  0  0  0  0
   49.6640   28.9790   48.7990 C   0  0  0  0  0  0  0  0  0  0  0  0
   45.0110   32.1110   49.3890 H   0  0  0  0  0  0  0  0  0  0  0  0
   46.8650   30.8070   50.5900 H   0  0  0  0  0  0  0  0  0  0  0  0
   51.2860   30.9630   49.0930 H   0  0  0  0  0  0  0  0  0  0  0  0
   50.0610   32.2060   49.6340 H   0  0  0  0  0  0  0  0  0  0  0  0
   51.2700   31.1490   51.5670 H   0  0  0  0  0  0  0  0  0  0  0  0
   49.4870   31.0880   51.5540 H   0  0  0  0  0  0  0  0  0  0  0  0
   51.1060   28.7880   51.9140 H   0  0  0  0  0  0  0  0  0  0  0  0
   49.4030   28.8290   51.4290 H   0  0  0  0  0  0  0  0  0  0  0  0
   51.7180   28.9370   49.4090 H   0  0  0  0  0  0  0  0  0  0  0  0
   50.8320   27.4840   49.8850 H   0  0  0  0  0  0  0  0  0  0  0  0
   48.8270   28.2300   48.8980 H   0  0  0  0  0  0  0  0  0  0  0  0
   49.9920   28.8690   47.7380 H   0  0  0  0  0  0  0  0  0  0  0  0
   45.7370   32.8470   46.6400 C   0  0  0  0  0  0  0  0  0  0  0  0
   45.2980   33.7770   47.0530 H   0  0  0  0  0  0  0  0  0  0  0  0
   44.8550   32.2330   46.3010 H   0  0  0  0  0  0  0  0  0  0  0  0
   46.2650   33.6880   44.3800 C   0  0  0  0  0  3  0  0  0  0  0  0
   46.6640   33.1620   45.5280 C   0  0  0  0  0  3  0  0  0  0  0  0
   47.2810   33.9540   43.3570 C   0  0  0  0  0  0  0  0  0  0  0  0
   47.1460   35.0110   42.4360 C   0  0  0  0  0  0  0  0  0  0  0  0
   48.1560   35.1880   41.5020 C   0  0  0  0  0  0  0  0  0  0  0  0
   49.2150   34.3590   41.5080 N   0  0  0  0  0  0  0  0  0  0  0  0
   49.3270   33.3380   42.4110 C   0  0  0  0  0  0  0  0  0  0  0  0
   48.3810   33.1520   43.3040 N   0  0  0  0  0  0  0  0  0  0  0  0
   46.2780   35.6430   42.4780 H   0  0  0  0  0  0  0  0  0  0  0  0
   48.0880   35.9900   40.7780 H   0  0  0  0  0  0  0  0  0  0  0  0
   51.0020   32.2750   40.9150 C   0  0  1  0  0  3  0  0  0  0  0  0
   50.5320   32.4720   42.3410 C   0  0  2  0  0  3  0  0  0  0  0  0
   50.1870   31.0630   42.7210 C   0  0  0  0  0  3  0  0  0  0  0  0
   50.2230   30.8930   43.8260 H   0  0  0  0  0  0  0  0  0  0  0  0
   51.0380   30.2200   42.0280 O   0  0  0  0  0  0  0  0  0  0  0  0
   51.6970   30.9270   41.0520 C   0  0  0  0  0  3  0  0  0  0  0  0
   51.7640   30.3950   40.0840 H   0  0  0  0  0  0  0  0  0  0  0  0
   49.9340   32.1150   40.0340 O   0  0  0  0  0  0  0  0  0  0  0  0
   49.4850   31.2460   40.2000 H   0  0  0  0  0  0  0  0  0  0  0  0
  1  2  2  0  0  0  0
  2 12  1  0  0  0  0
  2  3  1  0  0  0  0
  3 13  1  0  0  0  0
  4  6  1  0  0  0  0
  4  3  1  0  0  0  0
  5  1  1  0  0  0  0
  5  4  2  0  0  0  0
  6  7  1  0  0  0  0
  7 15  1  0  0  0  0
  7  8  1  0  0  0  0
  8  9  1  0  0  0  0
  8 17  1  0  0  0  0
  8 16  1  0  0  0  0
  9 19  1  0  0  0  0
  9 18  1  0  0  0  0
 10 21  1  0  0  0  0
 10  9  1  0  0  0  0
 11 22  1  0  0  0  0
 11  6  1  0  0  0  0
 11 10  1  0  0  0  0
 14  7  1  0  0  0  0
 20 10  1  0  0  0  0
 23 11  1  0  0  0  0
 24 25  1  0  0  0  0
 24  1  1  0  0  0  0
 26 24  1  0  0  0  0
 27 28  2  0  0  0  0
 28 24  1  0  0  0  0
 29 27  1  0  0  0  0
 30 35  1  0  0  0  0
 30 29  2  0  0  0  0
 31 32  2  0  0  0  0
 31 30  1  0  0  0  0
 32 33  1  0  0  0  0
 33 34  2  0  0  0  0
 34 29  1  0  0  0  0
 36 31  1  0  0  0  0
 37 44  1  6  0  0  0
 37 42  1  0  0  0  0
 37 38  1  0  0  0  0
 38 33  1  6  0  0  0
 38 39  1  0  0  0  0
 39 40  1  0  0  0  0
 41 39  1  0  0  0  0
 42 41  1  0  0  0  0
 43 42  1  0  0  0  0
 44 45  1  0  0  0  0
M  END
>  <minimizedAffinity>
-6.03443623

>  <minimizedRMSD>
0.208785161

$$$$
