
 OpenBabel03242523373D

 19 20  0  0  1  0  0  0  0  0999 V2000
   44.4980   35.5060   44.8650 C   0  0  0  0  0  0  0  0  0  0  0  0
   45.0140   35.4750   43.5510 C   0  0  0  0  0  0  0  0  0  0  0  0
   46.0620   34.5760   43.3010 C   0  0  0  0  0  0  0  0  0  0  0  0
   46.5090   33.8030   44.3200 N   0  0  0  0  0  0  0  0  0  0  0  0
   45.9900   33.8630   45.5610 C   0  0  0  0  0  0  0  0  0  0  0  0
   44.9830   34.7160   45.8290 N   0  0  0  0  0  0  0  0  0  0  0  0
   43.6760   36.1950   45.1050 H   0  0  0  0  0  0  0  0  0  0  0  0
   44.6240   36.1110   42.7760 H   0  0  0  0  0  0  0  0  0  0  0  0
   45.4110   32.5760   47.5340 C   0  0  1  0  0  0  0  0  0  0  0  0
   46.5670   32.9590   46.6040 C   0  0  1  0  0  0  0  0  0  0  0  0
   46.9900   31.6370   46.0440 C   0  0  0  0  0  0  0  0  0  0  0  0
   48.1030   31.6960   45.8700 H   0  0  0  0  0  0  0  0  0  0  0  0
   46.6820   30.7360   47.0700 O   0  0  0  0  0  0  0  0  0  0  0  0
   45.3630   31.0920   47.3810 C   0  0  0  0  0  0  0  0  0  0  0  0
   44.7020   30.8380   46.5250 H   0  0  0  0  0  0  0  0  0  0  0  0
   45.7000   32.9490   48.8570 O   0  0  0  0  0  0  0  0  0  0  0  0
   46.5550   32.5160   49.1430 H   0  0  0  0  0  0  0  0  0  0  0  0
   46.7660   34.4820   41.6650 S   0  0  0  0  0  0  0  0  0  0  0  0
   48.0440   35.0490   41.6100 H   0  0  0  0  0  0  0  0  0  0  0  0
  1  7  1  0  0  0  0
  1  6  1  0  0  0  0
  2  1  2  0  0  0  0
  3  2  1  0  0  0  0
  3  4  2  0  0  0  0
  4  5  1  0  0  0  0
  5  6  2  0  0  0  0
  8  2  1  0  0  0  0
  9 16  1  1  0  0  0
 10  5  1  6  0  0  0
 10  9  1  0  0  0  0
 11 10  1  0  0  0  0
 11 13  1  0  0  0  0
 12 11  1  0  0  0  0
 13 14  1  0  0  0  0
 14  9  1  0  0  0  0
 15 14  1  0  0  0  0
 16 17  1  0  0  0  0
 18  3  1  0  0  0  0
 19 18  1  0  0  0  0
M  END
>  <minimizedAffinity>
-4.59733963

>  <minimizedRMSD>
0.876140833

$$$$
