
 OpenBabel03252505303D

 27 28  0  0  1  0  0  0  0  0999 V2000
   46.9470   32.2230   48.3850 O   0  0  0  0  0  0  0  0  0  0  0  0
   45.9040   32.4590   47.2810 P   0  0  1  0  0  0  0  0  0  0  0  0
   44.6130   33.3730   47.8360 O   0  0  0  0  0  0  0  0  0  0  0  0
   44.8920   34.3100   48.0750 H   0  0  0  0  0  0  0  0  0  0  0  0
   46.7040   33.2380   45.9990 O   0  0  0  0  0  0  0  0  0  0  0  0
   44.4800   35.6290   44.6260 C   0  0  0  0  0  0  0  0  0  0  0  0
   44.8650   35.7600   43.2690 C   0  0  0  0  0  0  0  0  0  0  0  0
   45.9590   34.9510   42.8690 C   0  0  0  0  0  0  0  0  0  0  0  0
   46.5310   34.1400   43.7960 N   0  0  0  0  0  0  0  0  0  0  0  0
   46.1170   34.0670   45.0610 C   0  0  0  0  0  0  0  0  0  0  0  0
   45.0850   34.8150   45.4820 N   0  0  0  0  0  0  0  0  0  0  0  0
   43.6350   36.2570   44.9240 H   0  0  0  0  0  0  0  0  0  0  0  0
   44.3590   36.4300   42.5860 H   0  0  0  0  0  0  0  0  0  0  0  0
   46.3010   35.0050   41.8440 H   0  0  0  0  0  0  0  0  0  0  0  0
   45.3440   30.9470   46.8260 O   0  0  0  0  0  0  0  0  0  0  0  0
   45.0160   30.2400   47.9620 C   0  0  0  0  0  0  0  0  0  0  0  0
   43.9770   30.5050   48.2410 H   0  0  0  0  0  0  0  0  0  0  0  0
   45.6660   30.5880   48.7890 H   0  0  0  0  0  0  0  0  0  0  0  0
   46.4270   27.4810   46.2010 C   0  0  1  0  0  3  0  0  0  0  0  0
   46.5810   28.4590   47.3410 C   0  0  0  0  0  3  0  0  0  0  0  0
   47.2770   28.1120   48.1330 H   0  0  0  0  0  0  0  0  0  0  0  0
   45.1920   28.7480   47.8040 C   0  0  2  0  0  3  0  0  0  0  0  0
   44.3200   28.3000   46.8190 O   0  0  0  0  0  0  0  0  0  0  0  0
   44.9470   27.3060   46.1200 C   0  0  0  0  0  3  0  0  0  0  0  0
   44.6650   26.3170   46.5790 H   0  0  0  0  0  0  0  0  0  0  0  0
   46.9230   27.9850   44.9860 O   0  0  0  0  0  0  0  0  0  0  0  0
   47.8090   28.4420   45.1410 H   0  0  0  0  0  0  0  0  0  0  0  0
  2  3  1  0  0  0  0
  2  1  2  1  0  0  0
  3  4  1  0  0  0  0
  5  2  1  0  0  0  0
  6 12  1  0  0  0  0
  6 11  1  0  0  0  0
  7  6  2  0  0  0  0
  8  7  1  0  0  0  0
  8  9  2  0  0  0  0
  9 10  1  0  0  0  0
 10 11  2  0  0  0  0
 10  5  1  0  0  0  0
 13  7  1  0  0  0  0
 14  8  1  0  0  0  0
 15  2  1  0  0  0  0
 15 16  1  0  0  0  0
 16 17  1  0  0  0  0
 16 18  1  0  0  0  0
 19 26  1  6  0  0  0
 19 20  1  0  0  0  0
 20 22  1  0  0  0  0
 20 21  1  0  0  0  0
 22 16  1  6  0  0  0
 23 22  1  0  0  0  0
 24 19  1  0  0  0  0
 24 25  1  0  0  0  0
 24 23  1  0  0  0  0
 26 27  1  0  0  0  0
M  END
>  <minimizedAffinity>
-4.40802383

>  <minimizedRMSD>
0.742578208

$$$$
