
 OpenBabel03242523223D

 43 46  0  0  1  0  0  0  0  0999 V2000
   47.2200   32.9280   43.9500 C   0  0  0  0  0  0  0  0  0  0  0  0
   47.9300   33.1950   42.8580 C   0  0  0  0  0  0  0  0  0  0  0  0
   48.7900   32.1870   42.4740 C   0  0  0  0  0  0  0  0  0  0  0  0
   48.8340   31.0180   43.2480 N   0  0  0  0  0  0  0  0  0  0  0  0
   48.1120   30.8200   44.3130 C   0  0  0  0  0  0  0  0  0  0  0  0
   47.2370   31.8030   44.7300 N   0  0  0  0  0  0  0  0  0  0  0  0
   49.4700   32.1520   41.6360 H   0  0  0  0  0  0  0  0  0  0  0  0
   48.2450   29.8620   44.8260 H   0  0  0  0  0  0  0  0  0  0  0  0
   47.9770   34.4090   42.1350 C   0  0  1  0  0  0  0  0  0  0  0  0
   48.8140   34.7730   41.1270 C   0  0  0  0  0  0  0  0  0  0  0  0
   47.4210   34.4560   40.6820 C   0  0  1  0  0  0  0  0  0  0  0  0
   47.6640   35.2820   42.7710 H   0  0  0  0  0  0  0  0  0  0  0  0
   49.6380   34.0650   40.8100 H   0  0  0  0  0  0  0  0  0  0  0  0
   49.1370   35.7970   40.8320 H   0  0  0  0  0  0  0  0  0  0  0  0
   46.7230   35.3010   40.5030 H   0  0  0  0  0  0  0  0  0  0  0  0
   46.0140   33.1660   39.0140 C   0  0  1  0  0  3  0  0  0  0  0  0
   47.2580   33.2800   39.8370 C   0  0  1  0  0  3  0  0  0  0  0  0
   48.3350   33.3390   38.7790 C   0  0  0  0  0  3  0  0  0  0  0  0
   49.2110   33.9070   39.1540 H   0  0  0  0  0  0  0  0  0  0  0  0
   47.7450   34.0430   37.7530 O   0  0  0  0  0  0  0  0  0  0  0  0
   46.4580   33.5090   37.6300 C   0  0  0  0  0  3  0  0  0  0  0  0
   45.7560   34.2410   37.2000 H   0  0  0  0  0  0  0  0  0  0  0  0
   45.6380   31.8070   38.9960 O   0  0  0  0  0  0  0  0  0  0  0  0
   45.8230   31.3690   38.1350 H   0  0  0  0  0  0  0  0  0  0  0  0
   46.1760   33.7860   44.5490 C   0  0  0  0  0  0  0  0  0  0  0  0
   45.6470   34.3680   45.4520 O   0  0  0  0  0  0  0  0  0  0  0  0
   44.4720   31.6000   43.1890 Cl  0  0  0  0  0  0  0  0  0  0  0  0
   44.3720   33.2950   42.7380 C   0  0  0  0  0  0  0  0  0  0  0  0
   45.2130   34.1740   43.4700 C   0  0  0  0  0  0  0  0  0  0  0  0
   45.0390   35.4670   43.0310 C   0  0  0  0  0  0  0  0  0  0  0  0
   44.2580   35.9690   42.0850 C   0  0  0  0  0  0  0  0  0  0  0  0
   43.4730   35.0540   41.4160 C   0  0  0  0  0  0  0  0  0  0  0  0
   43.5230   33.7300   41.7340 C   0  0  0  0  0  0  0  0  0  0  0  0
   45.6170   36.2690   43.5480 H   0  0  0  0  0  0  0  0  0  0  0  0
   44.1920   37.0180   41.8050 H   0  0  0  0  0  0  0  0  0  0  0  0
   42.8070   35.4330   40.6190 H   0  0  0  0  0  0  0  0  0  0  0  0
   42.6920   32.9260   41.0000 O   0  0  0  0  0  0  0  0  0  0  0  0
   40.4950   31.8230   40.0850 O   0  0  0  0  0  0  0  0  0  0  0  0
   41.1110   32.4090   41.3320 P   0  0  0  0  0  0  0  0  0  0  0  0
   41.1430   31.2740   42.5910 O   0  0  0  0  0  0  0  0  0  0  0  0
   41.2650   31.7160   43.4520 H   0  0  0  0  0  0  0  0  0  0  0  0
   40.1500   33.6850   41.8970 O   0  0  0  0  0  0  0  0  0  0  0  0
   39.3370   33.3020   42.3170 H   0  0  0  0  0  0  0  0  0  0  0  0
  1 25  1  0  0  0  0
  1  6  1  0  0  0  0
  2  1  2  0  0  0  0
  3  2  1  0  0  0  0
  3  4  2  0  0  0  0
  4  5  1  0  0  0  0
  5  6  2  0  0  0  0
  5  8  1  0  0  0  0
  7  3  1  0  0  0  0
  9 12  1  1  0  0  0
  9  2  1  0  0  0  0
 10  9  1  0  0  0  0
 11 15  1  6  0  0  0
 11 10  1  0  0  0  0
 11  9  1  0  0  0  0
 13 10  1  0  0  0  0
 14 10  1  0  0  0  0
 16 23  1  6  0  0  0
 16 17  1  0  0  0  0
 17 18  1  6  0  0  0
 17 11  1  0  0  0  0
 18 19  1  0  0  0  0
 20 18  1  0  0  0  0
 21 20  1  0  0  0  0
 21 16  1  0  0  0  0
 22 21  1  0  0  0  0
 24 23  1  0  0  0  0
 25 26  2  0  0  0  0
 28 27  1  0  0  0  0
 28 29  1  0  0  0  0
 29 25  1  0  0  0  0
 30 29  2  0  0  0  0
 30 34  1  0  0  0  0
 31 30  1  0  0  0  0
 32 33  1  0  0  0  0
 32 31  2  0  0  0  0
 33 28  2  0  0  0  0
 35 31  1  0  0  0  0
 36 32  1  0  0  0  0
 37 39  1  0  0  0  0
 37 33  1  0  0  0  0
 38 39  2  0  0  0  0
 39 42  1  0  0  0  0
 39 40  1  0  0  0  0
 40 41  1  0  0  0  0
 42 43  1  0  0  0  0
M  END
>  <minimizedAffinity>
-5.60637331

>  <minimizedRMSD>
1.62223887

$$$$
