
 OpenBabel03252504073D

 19 20  0  0  1  0  0  0  0  0999 V2000
   45.0220   35.8420   43.7970 C   0  0  0  0  0  0  0  0  0  0  0  0
   45.9580   34.9110   43.3190 C   0  0  0  0  0  0  0  0  0  0  0  0
   46.3220   33.8630   44.1790 C   0  0  0  0  0  0  0  0  0  0  0  0
   45.7590   33.8050   45.4080 N   0  0  0  0  0  0  0  0  0  0  0  0
   44.8630   34.7180   45.8330 C   0  0  0  0  0  0  0  0  0  0  0  0
   44.4980   35.7310   45.0270 N   0  0  0  0  0  0  0  0  0  0  0  0
   47.0230   33.1270   43.8790 H   0  0  0  0  0  0  0  0  0  0  0  0
   44.3980   34.6920   46.8130 H   0  0  0  0  0  0  0  0  0  0  0  0
   46.3020   33.8690   41.0800 C   0  0  2  0  0  0  0  0  0  0  0  0
   46.5180   35.0460   41.9800 C   0  0  2  0  0  0  0  0  0  0  0  0
   47.9920   35.2880   41.9090 C   0  0  0  0  0  0  0  0  0  0  0  0
   48.5940   34.5720   42.5020 H   0  0  0  0  0  0  0  0  0  0  0  0
   48.2660   34.9380   40.5650 O   0  0  0  0  0  0  0  0  0  0  0  0
   47.7300   33.6340   40.5790 C   0  0  0  0  0  0  0  0  0  0  0  0
   47.7630   33.1410   39.6120 H   0  0  0  0  0  0  0  0  0  0  0  0
   45.5580   34.2140   39.9420 O   0  0  0  0  0  0  0  0  0  0  0  0
   45.0830   33.4190   39.5660 H   0  0  0  0  0  0  0  0  0  0  0  0
   44.6550   36.8720   42.9720 O   0  0  0  0  0  0  0  0  0  0  0  0
   45.2490   37.6960   42.9680 H   0  0  0  0  0  0  0  0  0  0  0  0
  1  6  1  0  0  0  0
  2  1  2  0  0  0  0
  2  3  1  0  0  0  0
  3  4  2  0  0  0  0
  4  5  1  0  0  0  0
  5  8  1  0  0  0  0
  6  5  2  0  0  0  0
  7  3  1  0  0  0  0
  9 16  1  6  0  0  0
  9 10  1  0  0  0  0
 10  2  1  1  0  0  0
 11 10  1  0  0  0  0
 11 12  1  0  0  0  0
 13 14  1  0  0  0  0
 13 11  1  0  0  0  0
 14  9  1  0  0  0  0
 15 14  1  0  0  0  0
 17 16  1  0  0  0  0
 18  1  1  0  0  0  0
 19 18  1  0  0  0  0
M  END
>  <minimizedAffinity>
-4.80142212

>  <minimizedRMSD>
0.915096045

$$$$
