
 OpenBabel03242518383D

 39 42  0  0  1  0  0  0  0  0999 V2000
   47.4790   33.4820   40.9020 O   0  0  0  0  0  0  0  0  0  0  0  0
   47.5630   33.6810   39.4990 C   0  0  0  0  0  0  0  0  0  0  0  0
   48.3920   34.4970   38.7130 C   0  0  0  0  0  0  0  0  0  0  0  0
   48.0610   34.3170   37.3880 C   0  0  0  0  0  0  0  0  0  0  0  0
   47.0540   33.4070   37.4170 C   0  0  0  0  0  0  0  0  0  0  0  0
   46.7590   33.0330   38.6490 O   0  0  0  0  0  0  0  0  0  0  0  0
   49.1320   35.1180   39.2080 H   0  0  0  0  0  0  0  0  0  0  0  0
   48.5600   34.8350   36.5930 H   0  0  0  0  0  0  0  0  0  0  0  0
   46.3590   32.8900   36.2190 C   0  0  2  0  0  0  0  0  0  0  0  0
   46.2240   31.4490   36.0040 C   0  0  0  0  0  0  0  0  0  0  0  0
   47.2990   32.1340   35.2410 C   0  0  1  0  0  0  0  0  0  0  0  0
   45.6180   33.5610   35.7490 H   0  0  0  0  0  0  0  0  0  0  0  0
   46.5910   30.7530   36.8080 H   0  0  0  0  0  0  0  0  0  0  0  0
   45.3530   31.0040   35.4770 H   0  0  0  0  0  0  0  0  0  0  0  0
   48.3510   32.0840   35.5130 H   0  0  0  0  0  0  0  0  0  0  0  0
   48.0620   32.7350   32.9540 C   0  0  0  0  0  0  0  0  0  0  0  0
   49.2720   32.8160   33.3160 O   0  0  0  0  0  0  0  0  0  0  0  0
   47.0010   32.4250   33.8410 N   0  0  0  0  0  0  0  0  0  0  0  0
   47.8730   32.9230   31.8870 H   0  0  0  0  0  0  0  0  0  0  0  0
   46.0280   32.4110   33.4780 H   0  0  0  0  0  0  0  0  0  0  0  0
   47.5400   34.6190   41.7420 C   0  0  0  0  0  0  0  0  0  0  0  0
   48.4170   35.4860   41.4580 O   0  0  0  0  0  0  0  0  0  0  0  0
   46.6080   34.6630   42.8150 C   0  0  0  0  0  0  0  0  0  0  0  0
   45.8810   35.8040   42.9320 C   0  0  0  0  0  0  0  0  0  0  0  0
   44.9510   35.9140   43.9610 C   0  0  0  0  0  0  0  0  0  0  0  0
   44.8100   34.8710   44.8070 N   0  0  0  0  0  0  0  0  0  0  0  0
   45.5410   33.7630   44.6660 C   0  0  0  0  0  0  0  0  0  0  0  0
   46.4180   33.6920   43.6740 N   0  0  0  0  0  0  0  0  0  0  0  0
   45.9830   36.6590   42.2540 H   0  0  0  0  0  0  0  0  0  0  0  0
   44.3490   36.8000   44.0960 H   0  0  0  0  0  0  0  0  0  0  0  0
   45.5610   33.1170   47.0110 C   0  0  2  0  0  3  0  0  0  0  0  0
   45.3910   32.6120   45.5930 C   0  0  2  0  0  3  0  0  0  0  0  0
   46.4800   31.5940   45.4830 C   0  0  0  0  0  3  0  0  0  0  0  0
   46.8300   31.4030   44.4510 H   0  0  0  0  0  0  0  0  0  0  0  0
   47.5100   32.0860   46.2640 O   0  0  0  0  0  0  0  0  0  0  0  0
   46.9780   32.7770   47.3250 C   0  0  0  0  0  3  0  0  0  0  0  0
   47.0230   32.2500   48.2970 H   0  0  0  0  0  0  0  0  0  0  0  0
   44.6950   32.3490   47.8100 O   0  0  0  0  0  0  0  0  0  0  0  0
   45.0550   31.4380   47.8680 H   0  0  0  0  0  0  0  0  0  0  0  0
  1 21  1  0  0  0  0
  2  1  1  0  0  0  0
  3  7  1  0  0  0  0
  3  2  2  0  0  0  0
  4  5  2  0  0  0  0
  4  3  1  0  0  0  0
  5  6  1  0  0  0  0
  6  2  1  0  0  0  0
  8  4  1  0  0  0  0
  9 12  1  6  0  0  0
  9  5  1  0  0  0  0
 10  9  1  0  0  0  0
 10 13  1  0  0  0  0
 11 15  1  1  0  0  0
 11 10  1  0  0  0  0
 11  9  1  0  0  0  0
 14 10  1  0  0  0  0
 16 17  2  0  0  0  0
 16 18  1  0  0  0  0
 18 11  1  0  0  0  0
 19 16  1  0  0  0  0
 20 18  1  0  0  0  0
 21 23  1  0  0  0  0
 22 21  2  0  0  0  0
 23 24  2  0  0  0  0
 23 28  1  0  0  0  0
 24 25  1  0  0  0  0
 25 30  1  0  0  0  0
 25 26  2  0  0  0  0
 27 26  1  0  0  0  0
 28 27  2  0  0  0  0
 29 24  1  0  0  0  0
 31 36  1  0  0  0  0
 31 38  1  1  0  0  0
 32 27  1  6  0  0  0
 32 31  1  0  0  0  0
 33 32  1  0  0  0  0
 33 35  1  0  0  0  0
 34 33  1  0  0  0  0
 35 36  1  0  0  0  0
 36 37  1  0  0  0  0
 38 39  1  0  0  0  0
M  END
>  <minimizedAffinity>
-5.55824518

>  <minimizedRMSD>
0.549369097

$$$$
