
 OpenBabel03252507133D

 42 44  0  0  1  0  0  0  0  0999 V2000
   46.5570   34.7510   41.9630 C   0  0  2  0  0  0  0  0  0  0  0  0
   45.6020   35.4820   42.8800 C   0  0  0  0  0  0  0  0  0  0  0  0
   44.2410   35.4800   42.2350 C   0  0  0  0  0  0  0  0  0  0  0  0
   43.6660   34.2180   42.2640 O   0  0  0  0  0  0  0  0  0  0  0  0
   44.6350   33.2410   42.1730 C   0  0  0  0  0  0  0  0  0  0  0  0
   45.7800   33.6710   41.2710 C   0  0  1  0  0  0  0  0  0  0  0  0
   46.8410   35.4430   41.1440 H   0  0  0  0  0  0  0  0  0  0  0  0
   45.5570   35.0200   43.8650 H   0  0  0  0  0  0  0  0  0  0  0  0
   45.9390   36.5410   42.9240 H   0  0  0  0  0  0  0  0  0  0  0  0
   43.5950   36.0810   42.9460 H   0  0  0  0  0  0  0  0  0  0  0  0
   44.1870   36.0190   41.2990 H   0  0  0  0  0  0  0  0  0  0  0  0
   45.0930   33.1530   43.1870 H   0  0  0  0  0  0  0  0  0  0  0  0
   44.2880   32.2360   41.9190 H   0  0  0  0  0  0  0  0  0  0  0  0
   46.4600   32.7620   41.3560 H   0  0  0  0  0  0  0  0  0  0  0  0
   44.5250   32.6740   39.3320 C   0  0  2  0  0  3  0  0  0  0  0  0
   45.4440   33.7670   39.8600 C   0  0  2  0  0  3  0  0  0  0  0  0
   46.5910   33.4350   38.8940 C   0  0  0  0  0  3  0  0  0  0  0  0
   46.2600   33.6090   37.8450 H   0  0  0  0  0  0  0  0  0  0  0  0
   46.7360   32.0380   39.1170 O   0  0  0  0  0  0  0  0  0  0  0  0
   45.4520   31.5670   38.9190 C   0  0  0  0  0  3  0  0  0  0  0  0
   45.2770   30.6430   39.5340 H   0  0  0  0  0  0  0  0  0  0  0  0
   43.9230   33.1400   38.1640 O   0  0  0  0  0  0  0  0  0  0  0  0
   44.2680   34.0380   37.9350 H   0  0  0  0  0  0  0  0  0  0  0  0
   47.6850   34.3220   42.5800 O   0  0  0  0  0  0  0  0  0  0  0  0
   50.2620   34.7770   42.6020 O   0  0  0  0  0  0  0  0  0  0  0  0
   49.1040   34.4210   41.7500 P   0  0  2  0  0  0  0  0  0  0  0  0
   48.9560   35.6640   40.6130 O   0  0  0  0  0  0  0  0  0  0  0  0
   48.7140   36.5150   41.0650 H   0  0  0  0  0  0  0  0  0  0  0  0
   49.4110   32.9520   40.8990 O   0  0  0  0  0  0  0  0  0  0  0  0
   49.8250   31.3160   42.5450 C   0  0  0  0  0  0  0  0  0  0  0  0
   50.2460   31.9830   41.4180 C   0  0  0  0  0  0  0  0  0  0  0  0
   51.5020   31.6460   40.8540 C   0  0  0  0  0  0  0  0  0  0  0  0
   52.2150   30.6730   41.4710 N   0  0  0  0  0  0  0  0  0  0  0  0
   51.7780   30.0550   42.5490 C   0  0  0  0  0  0  0  0  0  0  0  0
   50.5720   30.3860   43.0840 N   0  0  0  0  0  0  0  0  0  0  0  0
   47.4330   30.7790   42.9700 C   0  0  0  0  0  0  0  0  0  0  0  0
   47.2210   30.3830   41.7640 O   0  0  0  0  0  0  0  0  0  0  0  0
   48.7290   31.2750   43.4470 N   0  0  0  0  0  0  0  0  0  0  0  0
   51.7470   32.2100   39.9860 H   0  0  0  0  0  0  0  0  0  0  0  0
   52.3460   29.2720   43.0510 H   0  0  0  0  0  0  0  0  0  0  0  0
   46.5380   30.6950   43.5670 H   0  0  0  0  0  0  0  0  0  0  0  0
   48.7130   31.5660   44.4420 H   0  0  0  0  0  0  0  0  0  0  0  0
  1  7  1  6  0  0  0
  1 24  1  0  0  0  0
  1  2  1  0  0  0  0
  2  9  1  0  0  0  0
  2  8  1  0  0  0  0
  3  4  1  0  0  0  0
  3  2  1  0  0  0  0
  3 10  1  0  0  0  0
  5  4  1  0  0  0  0
  5 12  1  0  0  0  0
  6 14  1  1  0  0  0
  6  1  1  0  0  0  0
  6  5  1  0  0  0  0
 11  3  1  0  0  0  0
 13  5  1  0  0  0  0
 15 22  1  6  0  0  0
 15 16  1  0  0  0  0
 16 17  1  6  0  0  0
 16  6  1  0  0  0  0
 17 19  1  0  0  0  0
 18 17  1  0  0  0  0
 20 19  1  0  0  0  0
 20 15  1  0  0  0  0
 20 21  1  0  0  0  0
 23 22  1  0  0  0  0
 26 24  1  0  0  0  0
 26 25  2  1  0  0  0
 27 28  1  0  0  0  0
 27 26  1  0  0  0  0
 29 31  1  0  0  0  0
 29 26  1  0  0  0  0
 30 35  1  0  0  0  0
 30 38  1  0  0  0  0
 31 30  2  0  0  0  0
 32 31  1  0  0  0  0
 32 33  2  0  0  0  0
 33 34  1  0  0  0  0
 34 40  1  0  0  0  0
 34 35  2  0  0  0  0
 36 38  1  0  0  0  0
 36 41  1  0  0  0  0
 37 36  2  0  0  0  0
 38 42  1  0  0  0  0
 39 32  1  0  0  0  0
M  END
>  <minimizedAffinity>
-4.45450163

>  <minimizedRMSD>
1.1092701

$$$$
