
 OpenBabel03242518393D

 39 42  0  0  1  0  0  0  0  0999 V2000
   47.1890   33.3360   41.4830 O   0  0  0  0  0  0  0  0  0  0  0  0
   47.3680   33.5820   40.0960 C   0  0  0  0  0  0  0  0  0  0  0  0
   48.3400   34.3060   39.3880 C   0  0  0  0  0  0  0  0  0  0  0  0
   48.0520   34.2330   38.0420 C   0  0  0  0  0  0  0  0  0  0  0  0
   46.9270   33.4750   37.9840 C   0  0  0  0  0  0  0  0  0  0  0  0
   46.5230   33.0930   39.1830 O   0  0  0  0  0  0  0  0  0  0  0  0
   49.1350   34.7930   39.9440 H   0  0  0  0  0  0  0  0  0  0  0  0
   48.6550   34.7090   37.2960 H   0  0  0  0  0  0  0  0  0  0  0  0
   46.2240   33.1160   36.7330 C   0  0  2  0  0  0  0  0  0  0  0  0
   45.7750   31.7430   36.5040 C   0  0  0  0  0  0  0  0  0  0  0  0
   47.0350   32.1480   35.8300 C   0  0  1  0  0  0  0  0  0  0  0  0
   45.6980   33.9340   36.2090 H   0  0  0  0  0  0  0  0  0  0  0  0
   45.9060   30.9930   37.3320 H   0  0  0  0  0  0  0  0  0  0  0  0
   44.8670   31.5040   35.9090 H   0  0  0  0  0  0  0  0  0  0  0  0
   48.0220   31.8580   36.1840 H   0  0  0  0  0  0  0  0  0  0  0  0
   48.0860   32.4850   33.6040 C   0  0  0  0  0  0  0  0  0  0  0  0
   49.2470   32.2560   34.0530 O   0  0  0  0  0  0  0  0  0  0  0  0
   46.9210   32.4790   34.4120 N   0  0  0  0  0  0  0  0  0  0  0  0
   48.0270   32.6950   32.5260 H   0  0  0  0  0  0  0  0  0  0  0  0
   46.0060   32.7090   33.9790 H   0  0  0  0  0  0  0  0  0  0  0  0
   47.1470   34.4470   42.3590 C   0  0  0  0  0  0  0  0  0  0  0  0
   47.6360   35.5300   41.9220 O   0  0  0  0  0  0  0  0  0  0  0  0
   46.5600   34.2250   43.6340 C   0  0  0  0  0  0  0  0  0  0  0  0
   45.5310   35.0420   43.9720 C   0  0  0  0  0  0  0  0  0  0  0  0
   44.9100   34.8800   45.2070 C   0  0  0  0  0  0  0  0  0  0  0  0
   45.3650   33.9060   46.0250 N   0  0  0  0  0  0  0  0  0  0  0  0
   46.3810   33.1180   45.6640 C   0  0  0  0  0  0  0  0  0  0  0  0
   46.9480   33.3010   44.4790 N   0  0  0  0  0  0  0  0  0  0  0  0
   45.1510   35.8370   43.3210 H   0  0  0  0  0  0  0  0  0  0  0  0
   44.0880   35.5050   45.5210 H   0  0  0  0  0  0  0  0  0  0  0  0
   45.7520   31.0760   46.8270 C   0  0  2  0  0  0  0  0  0  0  0  0
   46.8850   32.0450   46.5580 C   0  0  2  0  0  0  0  0  0  0  0  0
   47.2400   32.5130   47.9320 C   0  0  0  0  0  0  0  0  0  0  0  0
   47.7240   33.5070   47.9710 H   0  0  0  0  0  0  0  0  0  0  0  0
   46.0460   32.5240   48.6270 O   0  0  0  0  0  0  0  0  0  0  0  0
   45.2450   31.5110   48.1600 C   0  0  0  0  0  0  0  0  0  0  0  0
   45.1670   30.6300   48.8280 H   0  0  0  0  0  0  0  0  0  0  0  0
   46.3370   29.8020   46.9290 O   0  0  0  0  0  0  0  0  0  0  0  0
   46.8500   29.7610   47.7650 H   0  0  0  0  0  0  0  0  0  0  0  0
  1 21  1  0  0  0  0
  2  1  1  0  0  0  0
  3  7  1  0  0  0  0
  3  2  2  0  0  0  0
  4  3  1  0  0  0  0
  5  4  2  0  0  0  0
  5  6  1  0  0  0  0
  6  2  1  0  0  0  0
  8  4  1  0  0  0  0
  9 12  1  6  0  0  0
  9  5  1  0  0  0  0
 10  9  1  0  0  0  0
 10 13  1  0  0  0  0
 11 15  1  1  0  0  0
 11 10  1  0  0  0  0
 11  9  1  0  0  0  0
 14 10  1  0  0  0  0
 16 17  2  0  0  0  0
 16 18  1  0  0  0  0
 18 11  1  0  0  0  0
 19 16  1  0  0  0  0
 20 18  1  0  0  0  0
 21 23  1  0  0  0  0
 22 21  2  0  0  0  0
 23 24  2  0  0  0  0
 23 28  1  0  0  0  0
 24 25  1  0  0  0  0
 25 30  1  0  0  0  0
 25 26  2  0  0  0  0
 27 26  1  0  0  0  0
 28 27  2  0  0  0  0
 29 24  1  0  0  0  0
 31 38  1  1  0  0  0
 31 36  1  0  0  0  0
 32 27  1  6  0  0  0
 32 31  1  0  0  0  0
 32 33  1  0  0  0  0
 33 34  1  0  0  0  0
 33 35  1  0  0  0  0
 36 35  1  0  0  0  0
 36 37  1  0  0  0  0
 38 39  1  0  0  0  0
M  END
>  <minimizedAffinity>
-5.70976162

>  <minimizedRMSD>
1.21359754

$$$$
