
 OpenBabel03252505153D

 25 27  0  0  1  0  0  0  0  0999 V2000
   44.9230   35.0340   45.2740 C   0  0  0  0  0  0  0  0  0  0  0  0
   45.6590   34.9880   44.0780 C   0  0  0  0  0  0  0  0  0  0  0  0
   46.4720   33.8600   43.9330 C   0  0  0  0  0  0  0  0  0  0  0  0
   46.5080   32.9030   44.9180 N   0  0  0  0  0  0  0  0  0  0  0  0
   45.7690   33.0080   46.0510 C   0  0  0  0  0  0  0  0  0  0  0  0
   44.9790   34.0810   46.2170 N   0  0  0  0  0  0  0  0  0  0  0  0
   44.2630   35.8860   45.4590 H   0  0  0  0  0  0  0  0  0  0  0  0
   45.6100   35.7470   43.3330 H   0  0  0  0  0  0  0  0  0  0  0  0
   47.2970   33.6790   42.6890 C   0  0  0  0  0  0  0  0  0  0  0  0
   48.5500   34.5280   42.6970 C   0  0  0  0  0  0  0  0  0  0  0  0
   48.5650   32.9740   42.8070 C   0  0  0  0  0  0  0  0  0  0  0  0
   46.7070   33.6690   41.7530 H   0  0  0  0  0  0  0  0  0  0  0  0
   48.8410   34.9220   41.7020 H   0  0  0  0  0  0  0  0  0  0  0  0
   48.8090   35.1110   43.5830 H   0  0  0  0  0  0  0  0  0  0  0  0
   48.8810   32.6390   43.8370 H   0  0  0  0  0  0  0  0  0  0  0  0
   49.0490   32.4420   41.9660 H   0  0  0  0  0  0  0  0  0  0  0  0
   47.2980   31.9970   47.6910 C   0  0  2  0  0  3  0  0  0  0  0  0
   45.9840   31.8480   46.9530 C   0  0  1  0  0  3  0  0  0  0  0  0
   44.9930   31.8770   48.1090 C   0  0  0  0  0  3  0  0  0  0  0  0
   44.3510   30.9830   48.0750 H   0  0  0  0  0  0  0  0  0  0  0  0
   45.7210   31.9040   49.2800 O   0  0  0  0  0  0  0  0  0  0  0  0
   46.9480   31.3350   49.0290 C   0  0  0  0  0  3  0  0  0  0  0  0
   46.7920   30.2600   48.8660 H   0  0  0  0  0  0  0  0  0  0  0  0
   47.6630   33.3090   47.8520 O   0  0  0  0  0  0  0  0  0  0  0  0
   48.1700   33.4670   48.7060 H   0  0  0  0  0  0  0  0  0  0  0  0
  1  7  1  0  0  0  0
  1  6  1  0  0  0  0
  2  1  2  0  0  0  0
  3  2  1  0  0  0  0
  3  4  2  0  0  0  0
  4  5  1  0  0  0  0
  5  6  2  0  0  0  0
  8  2  1  0  0  0  0
  9 10  1  0  0  0  0
  9 11  1  0  0  0  0
  9  3  1  0  0  0  0
 10 11  1  0  0  0  0
 10 14  1  0  0  0  0
 11 15  1  0  0  0  0
 12  9  1  0  0  0  0
 13 10  1  0  0  0  0
 16 11  1  0  0  0  0
 17 24  1  1  0  0  0
 17 22  1  0  0  0  0
 18  5  1  6  0  0  0
 18 17  1  0  0  0  0
 18 19  1  0  0  0  0
 19 21  1  0  0  0  0
 20 19  1  0  0  0  0
 22 21  1  0  0  0  0
 23 22  1  0  0  0  0
 24 25  1  0  0  0  0
M  END
>  <minimizedAffinity>
-4.73440838

>  <minimizedRMSD>
1.41753864

$$$$
