
 OpenBabel03242520253D

 24 25  0  0  1  0  0  0  0  0999 V2000
   39.1000   26.8890   42.6650 C   0  0  0  0  0  0  0  0  0  0  0  0
   37.7850   26.9770   42.1590 C   0  0  0  0  0  0  0  0  0  0  0  0
   37.1860   28.2280   42.1030 C   0  0  0  0  0  0  0  0  0  0  0  0
   37.8840   29.3050   42.5340 N   0  0  0  0  0  0  0  0  0  0  0  0
   39.1310   29.2130   43.0140 C   0  0  0  0  0  0  0  0  0  0  0  0
   39.7470   28.0100   43.0840 N   0  0  0  0  0  0  0  0  0  0  0  0
   39.5950   25.9270   42.7220 H   0  0  0  0  0  0  0  0  0  0  0  0
   39.5460   30.1660   43.3150 H   0  0  0  0  0  0  0  0  0  0  0  0
   36.9400   25.7180   40.2030 C   0  0  2  0  0  3  0  0  0  0  0  0
   37.0430   25.8050   41.6940 C   0  0  1  0  0  3  0  0  0  0  0  0
   37.7570   24.5470   42.0620 C   0  0  0  0  0  3  0  0  0  0  0  0
   37.0090   23.8050   42.4680 H   0  0  0  0  0  0  0  0  0  0  0  0
   38.3010   24.0370   40.8740 O   0  0  0  0  0  0  0  0  0  0  0  0
   37.3660   24.3250   39.8830 C   0  0  0  0  0  3  0  0  0  0  0  0
   36.5380   23.5870   39.9010 H   0  0  0  0  0  0  0  0  0  0  0  0
   37.7710   26.6370   39.5610 O   0  0  0  0  0  0  0  0  0  0  0  0
   37.2890   27.3840   39.1340 H   0  0  0  0  0  0  0  0  0  0  0  0
   35.8920   28.3040   41.6020 O   0  0  0  0  0  0  0  0  0  0  0  0
   36.4970   29.4690   39.3190 O   0  0  0  0  0  0  0  0  0  0  0  0
   35.4930   29.5170   40.4700 P   0  0  0  0  0  0  0  0  0  0  0  0
   33.9310   29.2630   39.9400 O   0  0  0  0  0  0  0  0  0  0  0  0
   33.3680   30.0690   40.1590 H   0  0  0  0  0  0  0  0  0  0  0  0
   35.6830   31.0110   41.2490 O   0  0  0  0  0  0  0  0  0  0  0  0
   36.6010   31.3570   41.1110 H   0  0  0  0  0  0  0  0  0  0  0  0
  1  7  1  0  0  0  0
  1  6  1  0  0  0  0
  2  1  2  0  0  0  0
  3  2  1  0  0  0  0
  3  4  2  0  0  0  0
  4  5  1  0  0  0  0
  5  6  2  0  0  0  0
  5  8  1  0  0  0  0
  9 16  1  6  0  0  0
  9 10  1  0  0  0  0
 10 11  1  0  0  0  0
 10  2  1  6  0  0  0
 11 12  1  0  0  0  0
 13 11  1  0  0  0  0
 14 15  1  0  0  0  0
 14  9  1  0  0  0  0
 14 13  1  0  0  0  0
 17 16  1  0  0  0  0
 18  3  1  0  0  0  0
 19 20  2  0  0  0  0
 20 23  1  0  0  0  0
 20 18  1  0  0  0  0
 21 22  1  0  0  0  0
 21 20  1  0  0  0  0
 24 23  1  0  0  0  0
M  END
>  <minimizedAffinity>
-4.91805887

$$$$

 OpenBabel03242520253D

 24 25  0  0  1  0  0  0  0  0999 V2000
   36.2420   27.8950   39.7270 C   0  0  0  0  0  0  0  0  0  0  0  0
   37.2530   28.7210   40.2650 C   0  0  0  0  0  0  0  0  0  0  0  0
   37.4500   29.9710   39.6950 C   0  0  0  0  0  0  0  0  0  0  0  0
   36.6690   30.3440   38.6530 N   0  0  0  0  0  0  0  0  0  0  0  0
   35.7130   29.5540   38.1490 C   0  0  0  0  0  0  0  0  0  0  0  0
   35.4920   28.3280   38.6790 N   0  0  0  0  0  0  0  0  0  0  0  0
   36.0630   26.9140   40.1500 H   0  0  0  0  0  0  0  0  0  0  0  0
   35.1810   30.0010   37.3190 H   0  0  0  0  0  0  0  0  0  0  0  0
   37.7740   29.0320   42.6640 C   0  0  2  0  0  3  0  0  0  0  0  0
   38.0880   28.3060   41.3930 C   0  0  1  0  0  3  0  0  0  0  0  0
   37.8330   26.8780   41.7420 C   0  0  0  0  0  3  0  0  0  0  0  0
   38.8220   26.3610   41.9160 H   0  0  0  0  0  0  0  0  0  0  0  0
   37.1090   26.8850   42.9420 O   0  0  0  0  0  0  0  0  0  0  0  0
   37.6210   27.9500   43.6790 C   0  0  0  0  0  3  0  0  0  0  0  0
   38.5710   27.6610   44.1750 H   0  0  0  0  0  0  0  0  0  0  0  0
   36.5980   29.7780   42.5720 O   0  0  0  0  0  0  0  0  0  0  0  0
   36.7420   30.7530   42.5400 H   0  0  0  0  0  0  0  0  0  0  0  0
   38.4470   30.7770   40.2320 O   0  0  0  0  0  0  0  0  0  0  0  0
   39.4440   33.1340   40.8520 O   0  0  0  0  0  0  0  0  0  0  0  0
   38.4290   32.4560   39.9330 P   0  0  0  0  0  0  0  0  0  0  0  0
   38.7820   32.7190   38.3220 O   0  0  0  0  0  0  0  0  0  0  0  0
   38.0120   33.2000   37.8860 H   0  0  0  0  0  0  0  0  0  0  0  0
   36.8920   33.0260   40.3650 O   0  0  0  0  0  0  0  0  0  0  0  0
   36.8870   33.3190   41.3110 H   0  0  0  0  0  0  0  0  0  0  0  0
  1  7  1  0  0  0  0
  1  2  1  0  0  0  0
  3 18  1  0  0  0  0
  3  2  2  0  0  0  0
  4  3  1  0  0  0  0
  5  4  2  0  0  0  0
  5  6  1  0  0  0  0
  6  1  2  0  0  0  0
  8  5  1  0  0  0  0
  9 16  1  6  0  0  0
  9 14  1  0  0  0  0
 10  2  1  6  0  0  0
 10 11  1  0  0  0  0
 10  9  1  0  0  0  0
 11 12  1  0  0  0  0
 11 13  1  0  0  0  0
 13 14  1  0  0  0  0
 14 15  1  0  0  0  0
 17 16  1  0  0  0  0
 20 18  1  0  0  0  0
 20 23  1  0  0  0  0
 20 19  2  0  0  0  0
 21 20  1  0  0  0  0
 22 21  1  0  0  0  0
 23 24  1  0  0  0  0
M  END
>  <minimizedAffinity>
-4.89933062

$$$$

 OpenBabel03242520253D

 24 25  0  0  1  0  0  0  0  0999 V2000
   36.0070   28.0510   39.7300 C   0  0  0  0  0  0  0  0  0  0  0  0
   37.1400   28.7450   40.2080 C   0  0  0  0  0  0  0  0  0  0  0  0
   37.5610   29.8700   39.5140 C   0  0  0  0  0  0  0  0  0  0  0  0
   36.8710   30.2540   38.4130 N   0  0  0  0  0  0  0  0  0  0  0  0
   35.7980   29.5900   37.9660 C   0  0  0  0  0  0  0  0  0  0  0  0
   35.3580   28.4880   38.6170 N   0  0  0  0  0  0  0  0  0  0  0  0
   35.6530   27.1690   40.2490 H   0  0  0  0  0  0  0  0  0  0  0  0
   35.3630   30.0270   37.0760 H   0  0  0  0  0  0  0  0  0  0  0  0
   37.5900   29.1620   42.6050 C   0  0  2  0  0  3  0  0  0  0  0  0
   37.8740   28.3200   41.4000 C   0  0  1  0  0  3  0  0  0  0  0  0
   37.4460   26.9560   41.8270 C   0  0  0  0  0  3  0  0  0  0  0  0
   38.3620   26.3470   42.0830 H   0  0  0  0  0  0  0  0  0  0  0  0
   36.6770   27.1260   42.9870 O   0  0  0  0  0  0  0  0  0  0  0  0
   37.2740   28.1760   43.6790 C   0  0  0  0  0  3  0  0  0  0  0  0
   38.1630   27.8200   44.2380 H   0  0  0  0  0  0  0  0  0  0  0  0
   36.5110   30.0240   42.4070 O   0  0  0  0  0  0  0  0  0  0  0  0
   36.7650   30.9730   42.3190 H   0  0  0  0  0  0  0  0  0  0  0  0
   38.6770   30.5470   39.9930 O   0  0  0  0  0  0  0  0  0  0  0  0
   39.1900   33.0200   39.2470 O   0  0  0  0  0  0  0  0  0  0  0  0
   38.5600   32.2050   40.3760 P   0  0  0  0  0  0  0  0  0  0  0  0
   36.9510   32.5930   40.5970 O   0  0  0  0  0  0  0  0  0  0  0  0
   36.8160   32.9420   41.5310 H   0  0  0  0  0  0  0  0  0  0  0  0
   39.4900   32.4640   41.7700 O   0  0  0  0  0  0  0  0  0  0  0  0
   40.4160   32.7130   41.5240 H   0  0  0  0  0  0  0  0  0  0  0  0
  1  2  1  0  0  0  0
  1  7  1  0  0  0  0
  3 18  1  0  0  0  0
  3  2  2  0  0  0  0
  4  3  1  0  0  0  0
  5  4  2  0  0  0  0
  5  6  1  0  0  0  0
  6  1  2  0  0  0  0
  8  5  1  0  0  0  0
  9 16  1  6  0  0  0
  9 14  1  0  0  0  0
 10  2  1  6  0  0  0
 10 11  1  0  0  0  0
 10  9  1  0  0  0  0
 11 12  1  0  0  0  0
 11 13  1  0  0  0  0
 13 14  1  0  0  0  0
 14 15  1  0  0  0  0
 17 16  1  0  0  0  0
 18 20  1  0  0  0  0
 19 20  2  0  0  0  0
 20 21  1  0  0  0  0
 20 23  1  0  0  0  0
 21 22  1  0  0  0  0
 24 23  1  0  0  0  0
M  END
>  <minimizedAffinity>
-4.8982935

$$$$

 OpenBabel03242520253D

 24 25  0  0  1  0  0  0  0  0999 V2000
   37.3290   28.2680   39.6920 C   0  0  0  0  0  0  0  0  0  0  0  0
   37.7160   29.3640   40.4940 C   0  0  0  0  0  0  0  0  0  0  0  0
   37.2540   30.6250   40.1480 C   0  0  0  0  0  0  0  0  0  0  0  0
   36.4550   30.7540   39.0620 N   0  0  0  0  0  0  0  0  0  0  0  0
   36.0930   29.7100   38.3060 C   0  0  0  0  0  0  0  0  0  0  0  0
   36.5240   28.4630   38.6120 N   0  0  0  0  0  0  0  0  0  0  0  0
   37.6720   27.2710   39.9350 H   0  0  0  0  0  0  0  0  0  0  0  0
   35.4530   29.9820   37.4770 H   0  0  0  0  0  0  0  0  0  0  0  0
   37.8200   28.9520   42.9320 C   0  0  2  0  0  3  0  0  0  0  0  0
   38.5770   29.2110   41.6670 C   0  0  1  0  0  3  0  0  0  0  0  0
   39.4440   28.0030   41.5330 C   0  0  0  0  0  3  0  0  0  0  0  0
   40.4940   28.2680   41.8500 H   0  0  0  0  0  0  0  0  0  0  0  0
   38.9320   27.0470   42.4210 O   0  0  0  0  0  0  0  0  0  0  0  0
   38.4960   27.7650   43.5320 C   0  0  0  0  0  3  0  0  0  0  0  0
   39.3500   28.0200   44.1920 H   0  0  0  0  0  0  0  0  0  0  0  0
   36.4730   28.6730   42.6950 O   0  0  0  0  0  0  0  0  0  0  0  0
   35.8590   29.3960   42.9670 H   0  0  0  0  0  0  0  0  0  0  0  0
   37.6400   31.6970   40.9460 O   0  0  0  0  0  0  0  0  0  0  0  0
   39.4440   32.7980   39.3740 O   0  0  0  0  0  0  0  0  0  0  0  0
   38.2130   33.1290   40.2170 P   0  0  0  0  0  0  0  0  0  0  0  0
   36.9900   33.7880   39.2920 O   0  0  0  0  0  0  0  0  0  0  0  0
   36.7740   34.7110   39.6300 H   0  0  0  0  0  0  0  0  0  0  0  0
   38.7150   34.1610   41.4650 O   0  0  0  0  0  0  0  0  0  0  0  0
   39.6750   34.0230   41.6610 H   0  0  0  0  0  0  0  0  0  0  0  0
  1  7  1  0  0  0  0
  1  2  1  0  0  0  0
  3  2  2  0  0  0  0
  3 18  1  0  0  0  0
  4  3  1  0  0  0  0
  5  6  1  0  0  0  0
  5  4  2  0  0  0  0
  6  1  2  0  0  0  0
  8  5  1  0  0  0  0
  9 16  1  6  0  0  0
  9 14  1  0  0  0  0
 10  2  1  6  0  0  0
 10  9  1  0  0  0  0
 11 10  1  0  0  0  0
 11 12  1  0  0  0  0
 11 13  1  0  0  0  0
 13 14  1  0  0  0  0
 14 15  1  0  0  0  0
 16 17  1  0  0  0  0
 19 20  2  0  0  0  0
 20 18  1  0  0  0  0
 20 23  1  0  0  0  0
 21 22  1  0  0  0  0
 21 20  1  0  0  0  0
 23 24  1  0  0  0  0
M  END
>  <minimizedAffinity>
-4.80091667

$$$$

 OpenBabel03242520253D

 24 25  0  0  1  0  0  0  0  0999 V2000
   38.4410   31.3040   40.9160 C   0  0  0  0  0  0  0  0  0  0  0  0
   39.7270   31.5010   40.3680 C   0  0  0  0  0  0  0  0  0  0  0  0
   39.9350   32.6150   39.5670 C   0  0  0  0  0  0  0  0  0  0  0  0
   38.9010   33.4610   39.3460 N   0  0  0  0  0  0  0  0  0  0  0  0
   37.6850   33.2670   39.8690 C   0  0  0  0  0  0  0  0  0  0  0  0
   37.4440   32.1920   40.6560 N   0  0  0  0  0  0  0  0  0  0  0  0
   38.2470   30.4450   41.5460 H   0  0  0  0  0  0  0  0  0  0  0  0
   36.9720   34.0350   39.5960 H   0  0  0  0  0  0  0  0  0  0  0  0
   41.6330   30.9230   41.8370 C   0  0  2  0  0  3  0  0  0  0  0  0
   40.8360   30.5790   40.6180 C   0  0  1  0  0  3  0  0  0  0  0  0
   40.3270   29.2080   40.9160 C   0  0  0  0  0  3  0  0  0  0  0  0
   40.9430   28.4550   40.3450 H   0  0  0  0  0  0  0  0  0  0  0  0
   40.5210   29.0030   42.2900 O   0  0  0  0  0  0  0  0  0  0  0  0
   41.7200   29.6410   42.5960 C   0  0  0  0  0  3  0  0  0  0  0  0
   42.5840   29.0070   42.3100 H   0  0  0  0  0  0  0  0  0  0  0  0
   41.0160   31.9040   42.6140 O   0  0  0  0  0  0  0  0  0  0  0  0
   41.4640   32.7820   42.5830 H   0  0  0  0  0  0  0  0  0  0  0  0
   41.2050   32.8000   39.0330 O   0  0  0  0  0  0  0  0  0  0  0  0
   42.3470   31.4060   37.1120 O   0  0  0  0  0  0  0  0  0  0  0  0
   41.4500   32.6190   37.3540 P   0  0  0  0  0  0  0  0  0  0  0  0
   39.9650   32.4500   36.6100 O   0  0  0  0  0  0  0  0  0  0  0  0
   39.8380   33.1940   35.9440 H   0  0  0  0  0  0  0  0  0  0  0  0
   42.2940   33.9890   36.8210 O   0  0  0  0  0  0  0  0  0  0  0  0
   43.2700   33.8280   36.8550 H   0  0  0  0  0  0  0  0  0  0  0  0
  1  7  1  0  0  0  0
  2  1  2  0  0  0  0
  3  2  1  0  0  0  0
  4  3  2  0  0  0  0
  4  5  1  0  0  0  0
  5  6  2  0  0  0  0
  6  1  1  0  0  0  0
  8  5  1  0  0  0  0
  9 14  1  0  0  0  0
  9 16  1  1  0  0  0
 10  2  1  1  0  0  0
 10 11  1  0  0  0  0
 10  9  1  0  0  0  0
 11 13  1  0  0  0  0
 12 11  1  0  0  0  0
 13 14  1  0  0  0  0
 15 14  1  0  0  0  0
 17 16  1  0  0  0  0
 18  3  1  0  0  0  0
 19 20  2  0  0  0  0
 20 18  1  0  0  0  0
 21 20  1  0  0  0  0
 22 21  1  0  0  0  0
 23 24  1  0  0  0  0
 23 20  1  0  0  0  0
M  END
>  <minimizedAffinity>
-4.5267992

$$$$

 OpenBabel03242520253D

 24 25  0  0  1  0  0  0  0  0999 V2000
   36.9530   32.4450   39.3050 C   0  0  0  0  0  0  0  0  0  0  0  0
   37.6320   31.2910   39.7540 C   0  0  0  0  0  0  0  0  0  0  0  0
   38.8110   31.4600   40.4660 C   0  0  0  0  0  0  0  0  0  0  0  0
   39.2590   32.7170   40.6990 N   0  0  0  0  0  0  0  0  0  0  0  0
   38.6090   33.8050   40.2690 C   0  0  0  0  0  0  0  0  0  0  0  0
   37.4550   33.6810   39.5710 N   0  0  0  0  0  0  0  0  0  0  0  0
   36.0300   32.3470   38.7470 H   0  0  0  0  0  0  0  0  0  0  0  0
   39.0990   34.7320   40.5390 H   0  0  0  0  0  0  0  0  0  0  0  0
   36.1710   29.4520   40.5330 C   0  0  2  0  0  3  0  0  0  0  0  0
   37.1350   29.9390   39.4970 C   0  0  1  0  0  3  0  0  0  0  0  0
   36.3330   29.9000   38.2390 C   0  0  0  0  0  3  0  0  0  0  0  0
   36.6320   28.9900   37.6410 H   0  0  0  0  0  0  0  0  0  0  0  0
   34.9930   29.7670   38.6260 O   0  0  0  0  0  0  0  0  0  0  0  0
   35.0090   28.9430   39.7480 C   0  0  0  0  0  3  0  0  0  0  0  0
   35.1000   27.8790   39.4500 H   0  0  0  0  0  0  0  0  0  0  0  0
   35.7630   30.4700   41.3970 O   0  0  0  0  0  0  0  0  0  0  0  0
   36.1350   30.3970   42.3080 H   0  0  0  0  0  0  0  0  0  0  0  0
   39.4710   30.3180   40.9040 O   0  0  0  0  0  0  0  0  0  0  0  0
   40.6160   28.8480   42.7650 O   0  0  0  0  0  0  0  0  0  0  0  0
   39.7420   30.0860   42.5730 P   0  0  0  0  0  0  0  0  0  0  0  0
   40.4650   31.4570   43.1940 O   0  0  0  0  0  0  0  0  0  0  0  0
   39.8800   31.8460   43.9140 H   0  0  0  0  0  0  0  0  0  0  0  0
   38.2390   29.7620   43.2850 O   0  0  0  0  0  0  0  0  0  0  0  0
   38.0690   28.7870   43.3030 H   0  0  0  0  0  0  0  0  0  0  0  0
  1  6  2  0  0  0  0
  1  2  1  0  0  0  0
  2  3  2  0  0  0  0
  3  4  1  0  0  0  0
  3 18  1  0  0  0  0
  5  8  1  0  0  0  0
  5  4  2  0  0  0  0
  6  5  1  0  0  0  0
  7  1  1  0  0  0  0
  9 16  1  1  0  0  0
 10  2  1  1  0  0  0
 10  9  1  0  0  0  0
 11 13  1  0  0  0  0
 11 10  1  0  0  0  0
 12 11  1  0  0  0  0
 13 14  1  0  0  0  0
 14  9  1  0  0  0  0
 15 14  1  0  0  0  0
 16 17  1  0  0  0  0
 18 20  1  0  0  0  0
 20 19  2  0  0  0  0
 20 21  1  0  0  0  0
 20 23  1  0  0  0  0
 21 22  1  0  0  0  0
 23 24  1  0  0  0  0
M  END
>  <minimizedAffinity>
-4.51064873

$$$$

 OpenBabel03242520253D

 24 25  0  0  1  0  0  0  0  0999 V2000
   37.3820   31.5350   38.2170 C   0  0  0  0  0  0  0  0  0  0  0  0
   37.2880   31.3990   39.6190 C   0  0  0  0  0  0  0  0  0  0  0  0
   36.6010   30.3060   40.1270 C   0  0  0  0  0  0  0  0  0  0  0  0
   36.0520   29.4200   39.2620 N   0  0  0  0  0  0  0  0  0  0  0  0
   36.1450   29.5570   37.9340 C   0  0  0  0  0  0  0  0  0  0  0  0
   36.8070   30.6100   37.4010 N   0  0  0  0  0  0  0  0  0  0  0  0
   37.9120   32.3760   37.7890 H   0  0  0  0  0  0  0  0  0  0  0  0
   35.6520   28.7640   37.3860 H   0  0  0  0  0  0  0  0  0  0  0  0
   39.2970   32.0250   40.9210 C   0  0  2  0  0  3  0  0  0  0  0  0
   37.8890   32.3620   40.5420 C   0  0  1  0  0  3  0  0  0  0  0  0
   38.0190   33.7020   39.8980 C   0  0  0  0  0  3  0  0  0  0  0  0
   37.6830   34.4950   40.6280 H   0  0  0  0  0  0  0  0  0  0  0  0
   39.3830   33.8830   39.6300 O   0  0  0  0  0  0  0  0  0  0  0  0
   40.0540   33.2910   40.6960 C   0  0  0  0  0  3  0  0  0  0  0  0
   40.0670   33.9690   41.5740 H   0  0  0  0  0  0  0  0  0  0  0  0
   39.8260   31.0000   40.1350 O   0  0  0  0  0  0  0  0  0  0  0  0
   39.9340   30.1430   40.6120 H   0  0  0  0  0  0  0  0  0  0  0  0
   36.5150   30.1810   41.5090 O   0  0  0  0  0  0  0  0  0  0  0  0
   38.3780   29.4990   43.2420 O   0  0  0  0  0  0  0  0  0  0  0  0
   37.3350   28.9080   42.2950 P   0  0  0  0  0  0  0  0  0  0  0  0
   36.2180   27.9740   43.1120 O   0  0  0  0  0  0  0  0  0  0  0  0
   36.2500   27.0300   42.7610 H   0  0  0  0  0  0  0  0  0  0  0  0
   38.1670   28.0360   41.1030 O   0  0  0  0  0  0  0  0  0  0  0  0
   39.0840   28.3920   40.9930 H   0  0  0  0  0  0  0  0  0  0  0  0
  1  2  1  0  0  0  0
  2  3  2  0  0  0  0
  3 18  1  0  0  0  0
  4  3  1  0  0  0  0
  5  4  2  0  0  0  0
  6  5  1  0  0  0  0
  6  1  2  0  0  0  0
  7  1  1  0  0  0  0
  8  5  1  0  0  0  0
  9 16  1  6  0  0  0
 10  2  1  6  0  0  0
 10  9  1  0  0  0  0
 11 10  1  0  0  0  0
 11 12  1  0  0  0  0
 13 11  1  0  0  0  0
 13 14  1  0  0  0  0
 14  9  1  0  0  0  0
 14 15  1  0  0  0  0
 16 17  1  0  0  0  0
 18 20  1  0  0  0  0
 20 21  1  0  0  0  0
 20 19  2  0  0  0  0
 22 21  1  0  0  0  0
 23 20  1  0  0  0  0
 24 23  1  0  0  0  0
M  END
>  <minimizedAffinity>
-4.38525105

$$$$

 OpenBabel03242520253D

 24 25  0  0  1  0  0  0  0  0999 V2000
   36.3950   28.3060   40.2240 C   0  0  0  0  0  0  0  0  0  0  0  0
   36.5750   29.6790   39.9500 C   0  0  0  0  0  0  0  0  0  0  0  0
   37.0730   30.4900   40.9600 C   0  0  0  0  0  0  0  0  0  0  0  0
   37.3630   29.9340   42.1600 N   0  0  0  0  0  0  0  0  0  0  0  0
   37.1890   28.6310   42.4120 C   0  0  0  0  0  0  0  0  0  0  0  0
   36.7060   27.8080   41.4520 N   0  0  0  0  0  0  0  0  0  0  0  0
   36.0090   27.6460   39.4570 H   0  0  0  0  0  0  0  0  0  0  0  0
   37.4690   28.3480   43.4190 H   0  0  0  0  0  0  0  0  0  0  0  0
   37.4460   30.3780   37.7420 C   0  0  2  0  0  3  0  0  0  0  0  0
   36.2600   30.2660   38.6470 C   0  0  1  0  0  3  0  0  0  0  0  0
   35.3270   29.3860   37.8830 C   0  0  0  0  0  3  0  0  0  0  0  0
   34.5210   30.0240   37.4170 H   0  0  0  0  0  0  0  0  0  0  0  0
   36.0850   28.7980   36.8600 O   0  0  0  0  0  0  0  0  0  0  0  0
   36.9890   29.7760   36.4550 C   0  0  0  0  0  3  0  0  0  0  0  0
   36.5000   30.4990   35.7700 H   0  0  0  0  0  0  0  0  0  0  0  0
   38.5540   29.6850   38.2320 O   0  0  0  0  0  0  0  0  0  0  0  0
   39.2770   30.2680   38.5650 H   0  0  0  0  0  0  0  0  0  0  0  0
   37.2470   31.8400   40.6780 O   0  0  0  0  0  0  0  0  0  0  0  0
   39.4610   32.4750   39.4010 O   0  0  0  0  0  0  0  0  0  0  0  0
   38.8040   32.5300   40.7790 P   0  0  0  0  0  0  0  0  0  0  0  0
   38.6610   34.0980   41.3340 O   0  0  0  0  0  0  0  0  0  0  0  0
   39.1730   34.1970   42.1950 H   0  0  0  0  0  0  0  0  0  0  0  0
   39.7200   31.5520   41.8180 O   0  0  0  0  0  0  0  0  0  0  0  0
   40.1970   30.8550   41.3020 H   0  0  0  0  0  0  0  0  0  0  0  0
  1  6  1  0  0  0  0
  2  1  2  0  0  0  0
  2  3  1  0  0  0  0
  3  4  2  0  0  0  0
  4  5  1  0  0  0  0
  5  8  1  0  0  0  0
  6  5  2  0  0  0  0
  7  1  1  0  0  0  0
  9 16  1  1  0  0  0
  9 10  1  0  0  0  0
 10  2  1  1  0  0  0
 11 10  1  0  0  0  0
 12 11  1  0  0  0  0
 13 11  1  0  0  0  0
 14 13  1  0  0  0  0
 14  9  1  0  0  0  0
 15 14  1  0  0  0  0
 16 17  1  0  0  0  0
 18 20  1  0  0  0  0
 18  3  1  0  0  0  0
 19 20  2  0  0  0  0
 20 21  1  0  0  0  0
 20 23  1  0  0  0  0
 21 22  1  0  0  0  0
 24 23  1  0  0  0  0
M  END
>  <minimizedAffinity>
-4.34487772

$$$$

 OpenBabel03242520253D

 24 25  0  0  1  0  0  0  0  0999 V2000
   38.7590   27.6740   39.8710 C   0  0  0  0  0  0  0  0  0  0  0  0
   38.9690   28.8630   40.6030 C   0  0  0  0  0  0  0  0  0  0  0  0
   39.1780   30.0390   39.8970 C   0  0  0  0  0  0  0  0  0  0  0  0
   39.1720   29.9980   38.5430 N   0  0  0  0  0  0  0  0  0  0  0  0
   38.9720   28.8650   37.8570 C   0  0  0  0  0  0  0  0  0  0  0  0
   38.7650   27.6990   38.5110 N   0  0  0  0  0  0  0  0  0  0  0  0
   38.5920   26.7400   40.3930 H   0  0  0  0  0  0  0  0  0  0  0  0
   38.9980   29.0040   36.7840 H   0  0  0  0  0  0  0  0  0  0  0  0
   37.6500   29.2800   42.6540 C   0  0  2  0  0  3  0  0  0  0  0  0
   38.9710   28.8940   42.0660 C   0  0  1  0  0  3  0  0  0  0  0  0
   39.2090   27.5300   42.6230 C   0  0  0  0  0  3  0  0  0  0  0  0
   39.9570   27.6030   43.4660 H   0  0  0  0  0  0  0  0  0  0  0  0
   37.9820   27.0950   43.1440 O   0  0  0  0  0  0  0  0  0  0  0  0
   37.3800   28.2300   43.6800 C   0  0  0  0  0  3  0  0  0  0  0  0
   37.8010   28.4610   44.6800 H   0  0  0  0  0  0  0  0  0  0  0  0
   36.6300   29.2980   41.7020 O   0  0  0  0  0  0  0  0  0  0  0  0
   36.3190   30.2040   41.4640 H   0  0  0  0  0  0  0  0  0  0  0  0
   39.3830   31.2040   40.6270 O   0  0  0  0  0  0  0  0  0  0  0  0
   36.9120   32.1110   40.5440 O   0  0  0  0  0  0  0  0  0  0  0  0
   38.3660   32.5500   40.3740 P   0  0  0  0  0  0  0  0  0  0  0  0
   38.7810   33.7490   41.4590 O   0  0  0  0  0  0  0  0  0  0  0  0
   39.0620   34.5740   40.9560 H   0  0  0  0  0  0  0  0  0  0  0  0
   38.5650   33.0330   38.7610 O   0  0  0  0  0  0  0  0  0  0  0  0
   37.9030   32.5800   38.1810 H   0  0  0  0  0  0  0  0  0  0  0  0
  1  7  1  0  0  0  0
  1  2  1  0  0  0  0
  3  2  2  0  0  0  0
  3 18  1  0  0  0  0
  4  3  1  0  0  0  0
  5  6  1  0  0  0  0
  5  4  2  0  0  0  0
  6  1  2  0  0  0  0
  8  5  1  0  0  0  0
  9 16  1  6  0  0  0
  9 14  1  0  0  0  0
 10  2  1  6  0  0  0
 10 11  1  0  0  0  0
 10  9  1  0  0  0  0
 11 13  1  0  0  0  0
 11 12  1  0  0  0  0
 13 14  1  0  0  0  0
 14 15  1  0  0  0  0
 17 16  1  0  0  0  0
 20 19  2  0  0  0  0
 20 18  1  0  0  0  0
 20 21  1  0  0  0  0
 22 21  1  0  0  0  0
 23 20  1  0  0  0  0
 24 23  1  0  0  0  0
M  END
>  <minimizedAffinity>
-4.2822547

$$$$
