
 OpenBabel03252503193D

 39 42  0  0  1  0  0  0  0  0999 V2000
   45.3910   34.1590   40.7250 C   0  0  0  0  0  0  0  0  0  0  0  0
   44.0310   34.3440   40.5760 C   0  0  0  0  0  0  0  0  0  0  0  0
   43.7100   33.6580   39.4610 N   0  0  0  0  0  0  0  0  0  0  0  0
   44.8240   33.0850   38.9610 C   0  0  0  0  0  0  0  0  0  0  0  0
   45.8600   33.3980   39.7460 N   0  0  0  0  0  0  0  0  0  0  0  0
   44.9960   32.2700   37.8110 N   0  0  0  0  0  0  0  0  0  0  0  0
   43.3700   34.9040   41.1970 H   0  0  0  0  0  0  0  0  0  0  0  0
   44.6040   32.7640   36.9780 H   0  0  0  0  0  0  0  0  0  0  0  0
   45.4710   31.3300   37.9540 H   0  0  0  0  0  0  0  0  0  0  0  0
   42.4110   33.5150   38.8370 C   0  0  0  0  0  0  0  0  0  0  0  0
   42.2130   32.4420   38.6400 H   0  0  0  0  0  0  0  0  0  0  0  0
   42.4670   34.0280   37.8610 H   0  0  0  0  0  0  0  0  0  0  0  0
   39.3410   33.7300   40.9220 C   0  0  1  0  0  0  0  0  0  0  0  0
   40.5150   32.9150   40.3610 C   0  0  0  0  0  0  0  0  0  0  0  0
   41.0690   32.3970   41.1650 H   0  0  0  0  0  0  0  0  0  0  0  0
   41.2980   34.0330   39.7040 C   0  0  2  0  0  0  0  0  0  0  0  0
   40.3070   34.6710   39.0050 O   0  0  0  0  0  0  0  0  0  0  0  0
   39.3780   34.9410   40.0290 C   0  0  0  0  0  0  0  0  0  0  0  0
   38.3790   35.1830   39.6180 H   0  0  0  0  0  0  0  0  0  0  0  0
   38.1580   33.0300   40.8770 O   0  0  0  0  0  0  0  0  0  0  0  0
   37.7130   32.9240   41.7750 H   0  0  0  0  0  0  0  0  0  0  0  0
   46.2420   34.7280   41.8280 C   0  0  0  0  0  0  0  0  0  0  0  0
   47.4470   35.0860   41.6840 O   0  0  0  0  0  0  0  0  0  0  0  0
   45.0760   36.1080   43.4860 C   0  0  0  0  0  0  0  0  0  0  0  0
   45.7080   34.8930   43.1270 C   0  0  0  0  0  0  0  0  0  0  0  0
   45.7360   33.9510   44.1370 C   0  0  0  0  0  0  0  0  0  0  0  0
   45.2180   34.1550   45.3470 N   0  0  0  0  0  0  0  0  0  0  0  0
   44.6190   35.3490   45.6390 C   0  0  0  0  0  0  0  0  0  0  0  0
   44.5560   36.3030   44.7110 N   0  0  0  0  0  0  0  0  0  0  0  0
   45.0110   36.9000   42.7540 H   0  0  0  0  0  0  0  0  0  0  0  0
   44.1950   35.5420   46.5990 H   0  0  0  0  0  0  0  0  0  0  0  0
   46.3590   32.6970   43.8550 C   0  0  0  0  0  0  0  0  0  0  0  0
   47.6380   32.2260   43.9230 C   0  0  0  0  0  0  0  0  0  0  0  0
   47.9270   30.9790   43.5900 C   0  0  0  0  0  0  0  0  0  0  0  0
   46.9180   30.1960   43.1830 C   0  0  0  0  0  0  0  0  0  0  0  0
   45.4470   31.2810   43.2720 S   0  0  0  0  0  0  0  0  0  0  0  0
   48.3770   32.9760   44.2740 H   0  0  0  0  0  0  0  0  0  0  0  0
   48.9190   30.5410   43.6200 H   0  0  0  0  0  0  0  0  0  0  0  0
   46.8800   29.1450   42.8560 H   0  0  0  0  0  0  0  0  0  0  0  0
  1 22  1  0  0  0  0
  2  1  2  0  0  0  0
  2  7  1  0  0  0  0
  3  2  1  0  0  0  0
  4  3  1  0  0  0  0
  4  5  2  0  0  0  0
  5  1  1  0  0  0  0
  6  9  1  0  0  0  0
  6  4  1  0  0  0  0
  8  6  1  0  0  0  0
 10  3  1  0  0  0  0
 11 10  1  0  0  0  0
 12 10  1  0  0  0  0
 13 20  1  6  0  0  0
 14 13  1  0  0  0  0
 14 15  1  0  0  0  0
 16 10  1  6  0  0  0
 16 14  1  0  0  0  0
 17 16  1  0  0  0  0
 17 18  1  0  0  0  0
 18 13  1  0  0  0  0
 19 18  1  0  0  0  0
 20 21  1  0  0  0  0
 22 25  1  0  0  0  0
 23 22  2  0  0  0  0
 24 29  1  0  0  0  0
 25 24  2  0  0  0  0
 25 26  1  0  0  0  0
 26 27  2  0  0  0  0
 27 28  1  0  0  0  0
 28 31  1  0  0  0  0
 29 28  2  0  0  0  0
 30 24  1  0  0  0  0
 32 33  2  0  0  0  0
 32 26  1  0  0  0  0
 33 37  1  0  0  0  0
 34 38  1  0  0  0  0
 34 33  1  0  0  0  0
 35 36  1  0  0  0  0
 35 34  2  0  0  0  0
 36 32  1  0  0  0  0
 39 35  1  0  0  0  0
M  END
>  <minimizedAffinity>
-5.95636797

>  <minimizedRMSD>
2.30687904

$$$$
