
 OpenBabel03242521463D

 47 50  0  0  1  0  0  0  0  0999 V2000
   44.9950   36.9600   42.9120 C   0  0  0  0  0  0  0  0  0  0  0  0
   44.0650   36.7060   42.3750 H   0  0  0  0  0  0  0  0  0  0  0  0
   45.8410   37.1910   42.2490 H   0  0  0  0  0  0  0  0  0  0  0  0
   45.3790   35.7690   43.7630 C   0  0  0  0  0  0  0  0  0  0  0  0
   46.4010   34.9270   43.3050 C   0  0  0  0  0  0  0  0  0  0  0  0
   46.7800   33.8200   44.0850 C   0  0  0  0  0  0  0  0  0  0  0  0
   46.1420   33.6280   45.2240 N   0  0  0  0  0  0  0  0  0  0  0  0
   45.1560   34.4500   45.6570 C   0  0  0  0  0  0  0  0  0  0  0  0
   44.7720   35.5200   44.9290 N   0  0  0  0  0  0  0  0  0  0  0  0
   46.8390   35.1910   42.3630 H   0  0  0  0  0  0  0  0  0  0  0  0
   44.6600   34.2450   46.6090 H   0  0  0  0  0  0  0  0  0  0  0  0
   48.8630   33.7010   42.7300 C   0  0  2  0  0  0  0  0  0  0  0  0
   47.8460   33.0020   43.5330 C   0  0  2  0  0  0  0  0  0  0  0  0
   47.3880   31.9970   42.6070 O   0  0  0  0  0  0  0  0  0  0  0  0
   48.6100   31.4380   42.2370 C   0  0  0  0  0  0  0  0  0  0  0  0
   49.6820   32.4690   42.2810 C   0  0  1  0  0  0  0  0  0  0  0  0
   48.4530   34.1110   41.7790 H   0  0  0  0  0  0  0  0  0  0  0  0
   48.3390   32.3900   44.3360 H   0  0  0  0  0  0  0  0  0  0  0  0
   48.5520   30.9340   41.2690 H   0  0  0  0  0  0  0  0  0  0  0  0
   48.8670   30.6440   42.9860 H   0  0  0  0  0  0  0  0  0  0  0  0
   50.4370   32.3190   43.0890 H   0  0  0  0  0  0  0  0  0  0  0  0
   49.5850   34.6450   43.3700 O   0  0  0  0  0  0  0  0  0  0  0  0
   49.3280   35.5580   43.0790 H   0  0  0  0  0  0  0  0  0  0  0  0
   50.2680   32.7500   41.0420 O   0  0  0  0  0  0  0  0  0  0  0  0
   51.2160   32.5390   41.1410 H   0  0  0  0  0  0  0  0  0  0  0  0
   45.4110   39.3090   43.9090 C   0  0  0  0  0  0  0  0  0  0  0  0
   46.2840   39.5170   43.0060 O   0  0  0  0  0  0  0  0  0  0  0  0
   44.7470   38.0560   43.8330 N   0  0  0  0  0  0  0  0  0  0  0  0
   43.9710   37.9060   44.5430 H   0  0  0  0  0  0  0  0  0  0  0  0
   45.0890   40.2610   44.9590 C   0  0  0  0  0  0  0  0  0  0  0  0
   44.9870   39.8400   46.2440 C   0  0  0  0  0  0  0  0  0  0  0  0
   44.6760   40.8100   47.1910 C   0  0  0  0  0  0  0  0  0  0  0  0
   44.4700   42.1530   46.8930 C   0  0  0  0  0  0  0  0  0  0  0  0
   44.5900   42.4920   45.5800 C   0  0  0  0  0  0  0  0  0  0  0  0
   44.8880   41.5700   44.6670 N   0  0  0  0  0  0  0  0  0  0  0  0
   45.1340   38.8070   46.5620 H   0  0  0  0  0  0  0  0  0  0  0  0
   44.5810   40.5290   48.2490 H   0  0  0  0  0  0  0  0  0  0  0  0
   44.2300   42.8680   47.6680 H   0  0  0  0  0  0  0  0  0  0  0  0
   44.5470   44.8140   46.3310 C   0  0  1  0  0  3  0  0  0  0  0  0
   44.3910   43.9140   45.1280 C   0  0  1  0  0  3  0  0  0  0  0  0
   45.4950   44.3680   44.2360 C   0  0  0  0  0  3  0  0  0  0  0  0
   45.8270   43.5560   43.5520 H   0  0  0  0  0  0  0  0  0  0  0  0
   46.5080   44.8670   45.0410 O   0  0  0  0  0  0  0  0  0  0  0  0
   45.9420   45.3110   46.2080 C   0  0  0  0  0  3  0  0  0  0  0  0
   46.5250   45.0380   47.1260 H   0  0  0  0  0  0  0  0  0  0  0  0
   43.6630   45.8920   46.2100 O   0  0  0  0  0  0  0  0  0  0  0  0
   44.1280   46.6910   45.8310 H   0  0  0  0  0  0  0  0  0  0  0  0
  1  4  1  0  0  0  0
  1 28  1  0  0  0  0
  2  1  1  0  0  0  0
  3  1  1  0  0  0  0
  4  9  1  0  0  0  0
  5  4  2  0  0  0  0
  5  6  1  0  0  0  0
  6  7  2  0  0  0  0
  7  8  1  0  0  0  0
  8 11  1  0  0  0  0
  9  8  2  0  0  0  0
 10  5  1  0  0  0  0
 12 17  1  6  0  0  0
 12 22  1  0  0  0  0
 12 13  1  0  0  0  0
 13  6  1  0  0  0  0
 13 18  1  1  0  0  0
 14 13  1  0  0  0  0
 15 16  1  0  0  0  0
 15 14  1  0  0  0  0
 15 20  1  0  0  0  0
 16 12  1  0  0  0  0
 16 21  1  1  0  0  0
 19 15  1  0  0  0  0
 23 22  1  0  0  0  0
 24 25  1  0  0  0  0
 24 16  1  0  0  0  0
 26 30  1  0  0  0  0
 27 26  2  0  0  0  0
 28 26  1  0  0  0  0
 28 29  1  0  0  0  0
 30 31  1  0  0  0  0
 31 36  1  0  0  0  0
 31 32  2  0  0  0  0
 32 37  1  0  0  0  0
 33 32  1  0  0  0  0
 33 38  1  0  0  0  0
 34 33  2  0  0  0  0
 35 30  2  0  0  0  0
 35 34  1  0  0  0  0
 39 46  1  6  0  0  0
 40 34  1  1  0  0  0
 40 39  1  0  0  0  0
 41 43  1  0  0  0  0
 41 40  1  0  0  0  0
 42 41  1  0  0  0  0
 43 44  1  0  0  0  0
 44 39  1  0  0  0  0
 44 45  1  0  0  0  0
 47 46  1  0  0  0  0
M  END
>  <minimizedAffinity>
-0.789445817

>  <minimizedRMSD>
0.452513009

$$$$
