
 OpenBabel03242515413D

 36 39  0  0  1  0  0  0  0  0999 V2000
   36.7840   28.7780   41.8610 C   0  0  0  0  0  0  0  0  0  0  0  0
   37.7670   29.6970   41.5210 C   0  0  0  0  0  0  0  0  0  0  0  0
   37.5320   30.4800   40.3850 C   0  0  0  0  0  0  0  0  0  0  0  0
   36.3940   30.3160   39.6840 N   0  0  0  0  0  0  0  0  0  0  0  0
   35.4620   29.4080   40.0490 C   0  0  0  0  0  0  0  0  0  0  0  0
   35.6830   28.6680   41.1240 N   0  0  0  0  0  0  0  0  0  0  0  0
   38.6850   29.8150   42.1030 H   0  0  0  0  0  0  0  0  0  0  0  0
   37.9300   32.7800   39.5630 C   0  0  2  0  0  3  0  0  0  0  0  0
   38.5420   31.4770   39.9740 C   0  0  1  0  0  3  0  0  0  0  0  0
   39.4100   31.9100   41.1330 C   0  0  0  0  0  3  0  0  0  0  0  0
   38.8130   31.8490   42.0660 H   0  0  0  0  0  0  0  0  0  0  0  0
   39.8000   33.2000   40.9120 O   0  0  0  0  0  0  0  0  0  0  0  0
   39.0250   33.7570   39.9130 C   0  0  0  0  0  3  0  0  0  0  0  0
   39.6340   33.9360   39.0050 H   0  0  0  0  0  0  0  0  0  0  0  0
   36.8290   33.0040   40.4120 O   0  0  0  0  0  0  0  0  0  0  0  0
   37.1470   33.3090   41.3130 H   0  0  0  0  0  0  0  0  0  0  0  0
   37.1070   27.7780   43.3280 S   0  0  0  0  0  0  0  0  0  0  0  0
   38.5690   25.6340   42.6070 C   0  0  0  0  0  0  0  0  0  0  0  0
   38.6550   26.9000   43.1580 C   0  0  0  0  0  0  0  0  0  0  0  0
   39.8670   27.4130   43.5350 C   0  0  0  0  0  0  0  0  0  0  0  0
   41.0440   26.7010   43.3870 C   0  0  0  0  0  0  0  0  0  0  0  0
   40.9460   25.4240   42.8310 C   0  0  0  0  0  0  0  0  0  0  0  0
   39.7390   24.8750   42.4380 C   0  0  0  0  0  0  0  0  0  0  0  0
   42.2600   24.9010   42.7810 O   0  0  0  0  0  0  0  0  0  0  0  0
   43.0560   25.7290   43.5660 C   0  0  0  0  0  0  0  0  0  0  0  0
   42.3860   26.9630   43.6750 O   0  0  0  0  0  0  0  0  0  0  0  0
   37.6620   25.1300   42.2740 H   0  0  0  0  0  0  0  0  0  0  0  0
   39.9010   28.4190   43.9690 H   0  0  0  0  0  0  0  0  0  0  0  0
   39.7000   23.8890   42.0140 H   0  0  0  0  0  0  0  0  0  0  0  0
   43.3480   25.2960   44.5380 H   0  0  0  0  0  0  0  0  0  0  0  0
   44.0060   25.9160   43.0180 H   0  0  0  0  0  0  0  0  0  0  0  0
   34.2830   29.1890   39.3830 O   0  0  0  0  0  0  0  0  0  0  0  0
   34.3260   28.6430   38.0850 C   0  0  0  0  0  0  0  0  0  0  0  0
   34.8710   29.5050   37.1780 F   0  0  0  0  0  0  0  0  0  0  0  0
   35.0190   27.4400   38.2020 F   0  0  0  0  0  0  0  0  0  0  0  0
   33.0070   28.4010   37.6980 F   0  0  0  0  0  0  0  0  0  0  0  0
  1 17  1  0  0  0  0
  2  1  1  0  0  0  0
  2  7  1  0  0  0  0
  3  2  2  0  0  0  0
  4  5  2  0  0  0  0
  4  3  1  0  0  0  0
  5  6  1  0  0  0  0
  6  1  2  0  0  0  0
  8 13  1  0  0  0  0
  8  9  1  0  0  0  0
  8 15  1  1  0  0  0
  9  3  1  1  0  0  0
  9 10  1  0  0  0  0
 10 11  1  0  0  0  0
 12 10  1  0  0  0  0
 13 12  1  0  0  0  0
 14 13  1  0  0  0  0
 15 16  1  0  0  0  0
 18 19  1  0  0  0  0
 19 17  1  0  0  0  0
 19 20  2  0  0  0  0
 20 28  1  0  0  0  0
 21 20  1  0  0  0  0
 21 26  1  0  0  0  0
 22 21  2  0  0  0  0
 23 18  2  0  0  0  0
 23 22  1  0  0  0  0
 24 22  1  0  0  0  0
 24 25  1  0  0  0  0
 25 26  1  0  0  0  0
 25 30  1  0  0  0  0
 27 18  1  0  0  0  0
 29 23  1  0  0  0  0
 31 25  1  0  0  0  0
 32  5  1  0  0  0  0
 33 35  1  0  0  0  0
 33 32  1  0  0  0  0
 34 33  1  0  0  0  0
 36 33  1  0  0  0  0
M  END
>  <minimizedAffinity>
-6.15673733

$$$$

 OpenBabel03242515413D

 36 39  0  0  1  0  0  0  0  0999 V2000
   36.6070   28.6410   38.0660 C   0  0  0  0  0  0  0  0  0  0  0  0
   37.0100   29.9620   37.9300 C   0  0  0  0  0  0  0  0  0  0  0  0
   37.7120   30.5210   39.0030 C   0  0  0  0  0  0  0  0  0  0  0  0
   37.9620   29.7770   40.0980 N   0  0  0  0  0  0  0  0  0  0  0  0
   37.5510   28.4920   40.1900 C   0  0  0  0  0  0  0  0  0  0  0  0
   36.8880   27.9640   39.1740 N   0  0  0  0  0  0  0  0  0  0  0  0
   36.7960   30.5500   37.0330 H   0  0  0  0  0  0  0  0  0  0  0  0
   37.1680   32.8890   39.4740 C   0  0  2  0  0  3  0  0  0  0  0  0
   38.1670   31.9230   38.9160 C   0  0  1  0  0  3  0  0  0  0  0  0
   39.3600   32.1840   39.8060 C   0  0  0  0  0  3  0  0  0  0  0  0
   39.3000   31.5120   40.6870 H   0  0  0  0  0  0  0  0  0  0  0  0
   39.3100   33.4870   40.2100 O   0  0  0  0  0  0  0  0  0  0  0  0
   38.0580   34.0100   39.9510 C   0  0  0  0  0  3  0  0  0  0  0  0
   38.1150   34.7720   39.1510 H   0  0  0  0  0  0  0  0  0  0  0  0
   36.5750   32.2680   40.5900 O   0  0  0  0  0  0  0  0  0  0  0  0
   37.2040   32.2950   41.3710 H   0  0  0  0  0  0  0  0  0  0  0  0
   35.7030   27.9400   36.6700 S   0  0  0  0  0  0  0  0  0  0  0  0
   33.7830   29.1380   35.2080 C   0  0  0  0  0  0  0  0  0  0  0  0
   34.1120   28.7380   36.4910 C   0  0  0  0  0  0  0  0  0  0  0  0
   33.2490   28.9590   37.5300 C   0  0  0  0  0  0  0  0  0  0  0  0
   32.0280   29.5810   37.3510 C   0  0  0  0  0  0  0  0  0  0  0  0
   31.7050   29.9810   36.0530 C   0  0  0  0  0  0  0  0  0  0  0  0
   32.5520   29.7740   34.9790 C   0  0  0  0  0  0  0  0  0  0  0  0
   30.4260   30.5830   36.1190 O   0  0  0  0  0  0  0  0  0  0  0  0
   30.1500   30.8010   37.4660 C   0  0  0  0  0  0  0  0  0  0  0  0
   30.9740   29.9280   38.2020 O   0  0  0  0  0  0  0  0  0  0  0  0
   34.3910   29.0140   34.3120 H   0  0  0  0  0  0  0  0  0  0  0  0
   33.5410   28.6300   38.5350 H   0  0  0  0  0  0  0  0  0  0  0  0
   32.2710   30.0940   33.9930 H   0  0  0  0  0  0  0  0  0  0  0  0
   30.2250   31.8540   37.7840 H   0  0  0  0  0  0  0  0  0  0  0  0
   29.0960   30.4990   37.6550 H   0  0  0  0  0  0  0  0  0  0  0  0
   37.7710   27.6790   41.2720 O   0  0  0  0  0  0  0  0  0  0  0  0
   36.8710   27.7270   42.3550 C   0  0  0  0  0  0  0  0  0  0  0  0
   35.6670   28.2640   42.0030 F   0  0  0  0  0  0  0  0  0  0  0  0
   36.7850   26.4220   42.8350 F   0  0  0  0  0  0  0  0  0  0  0  0
   37.4370   28.5580   43.3230 F   0  0  0  0  0  0  0  0  0  0  0  0
  1  6  1  0  0  0  0
  2  1  2  0  0  0  0
  2  3  1  0  0  0  0
  3  4  2  0  0  0  0
  4  5  1  0  0  0  0
  5 32  1  0  0  0  0
  6  5  2  0  0  0  0
  7  2  1  0  0  0  0
  8 13  1  0  0  0  0
  8 15  1  1  0  0  0
  9  3  1  1  0  0  0
  9  8  1  0  0  0  0
  9 10  1  0  0  0  0
 10 12  1  0  0  0  0
 10 11  1  0  0  0  0
 13 12  1  0  0  0  0
 14 13  1  0  0  0  0
 15 16  1  0  0  0  0
 17  1  1  0  0  0  0
 18 19  1  0  0  0  0
 19 17  1  0  0  0  0
 19 20  2  0  0  0  0
 20 28  1  0  0  0  0
 21 20  1  0  0  0  0
 21 26  1  0  0  0  0
 22 24  1  0  0  0  0
 22 21  2  0  0  0  0
 23 18  2  0  0  0  0
 23 22  1  0  0  0  0
 24 25  1  0  0  0  0
 25 31  1  0  0  0  0
 25 30  1  0  0  0  0
 25 26  1  0  0  0  0
 27 18  1  0  0  0  0
 29 23  1  0  0  0  0
 32 33  1  0  0  0  0
 33 35  1  0  0  0  0
 33 36  1  0  0  0  0
 34 33  1  0  0  0  0
M  END
>  <minimizedAffinity>
-5.98550892

$$$$

 OpenBabel03242515413D

 36 39  0  0  1  0  0  0  0  0999 V2000
   36.5610   29.0130   38.0490 C   0  0  0  0  0  0  0  0  0  0  0  0
   36.8750   28.2680   39.1780 C   0  0  0  0  0  0  0  0  0  0  0  0
   37.5850   28.9250   40.1890 C   0  0  0  0  0  0  0  0  0  0  0  0
   37.9280   30.2180   40.0340 N   0  0  0  0  0  0  0  0  0  0  0  0
   37.6030   30.9080   38.9170 C   0  0  0  0  0  0  0  0  0  0  0  0
   36.9310   30.2870   37.9610 N   0  0  0  0  0  0  0  0  0  0  0  0
   36.5880   27.2190   39.2850 H   0  0  0  0  0  0  0  0  0  0  0  0
   37.7410   28.9930   42.6580 C   0  0  2  0  0  3  0  0  0  0  0  0
   37.9460   28.1840   41.4150 C   0  0  1  0  0  3  0  0  0  0  0  0
   37.0170   27.0180   41.6630 C   0  0  0  0  0  3  0  0  0  0  0  0
   36.0170   27.2690   41.2560 H   0  0  0  0  0  0  0  0  0  0  0  0
   36.9360   26.8210   43.0110 O   0  0  0  0  0  0  0  0  0  0  0  0
   37.4440   27.9200   43.6760 C   0  0  0  0  0  3  0  0  0  0  0  0
   38.3890   27.6580   44.1900 H   0  0  0  0  0  0  0  0  0  0  0  0
   36.5820   29.7670   42.4580 O   0  0  0  0  0  0  0  0  0  0  0  0
   35.7650   29.1940   42.5610 H   0  0  0  0  0  0  0  0  0  0  0  0
   35.6460   28.1480   36.7560 S   0  0  0  0  0  0  0  0  0  0  0  0
   33.6530   29.1730   35.2620 C   0  0  0  0  0  0  0  0  0  0  0  0
   34.0180   28.8600   36.5600 C   0  0  0  0  0  0  0  0  0  0  0  0
   33.1590   29.0950   37.5990 C   0  0  0  0  0  0  0  0  0  0  0  0
   31.9060   29.6490   37.4060 C   0  0  0  0  0  0  0  0  0  0  0  0
   31.5480   29.9620   36.0930 C   0  0  0  0  0  0  0  0  0  0  0  0
   32.3900   29.7370   35.0190 C   0  0  0  0  0  0  0  0  0  0  0  0
   30.2420   30.5060   36.1470 O   0  0  0  0  0  0  0  0  0  0  0  0
   29.9740   30.7830   37.4850 C   0  0  0  0  0  0  0  0  0  0  0  0
   30.8490   29.9910   38.2540 O   0  0  0  0  0  0  0  0  0  0  0  0
   34.2540   29.0300   34.3650 H   0  0  0  0  0  0  0  0  0  0  0  0
   33.4790   28.8350   38.6150 H   0  0  0  0  0  0  0  0  0  0  0  0
   32.0820   29.9910   34.0220 H   0  0  0  0  0  0  0  0  0  0  0  0
   30.0020   31.8550   37.7440 H   0  0  0  0  0  0  0  0  0  0  0  0
   28.9380   30.4420   37.7060 H   0  0  0  0  0  0  0  0  0  0  0  0
   37.9190   32.2230   38.6930 O   0  0  0  0  0  0  0  0  0  0  0  0
   37.4670   33.1970   39.6050 C   0  0  0  0  0  0  0  0  0  0  0  0
   36.7120   34.1610   39.0020 F   0  0  0  0  0  0  0  0  0  0  0  0
   36.7920   32.4980   40.6030 F   0  0  0  0  0  0  0  0  0  0  0  0
   38.5990   33.8180   40.1370 F   0  0  0  0  0  0  0  0  0  0  0  0
  1  2  1  0  0  0  0
  2  7  1  0  0  0  0
  2  3  2  0  0  0  0
  4  3  1  0  0  0  0
  5  4  2  0  0  0  0
  6  1  2  0  0  0  0
  6  5  1  0  0  0  0
  8 15  1  6  0  0  0
  8 13  1  0  0  0  0
  9  3  1  6  0  0  0
  9 10  1  0  0  0  0
  9  8  1  0  0  0  0
 10 12  1  0  0  0  0
 11 10  1  0  0  0  0
 12 13  1  0  0  0  0
 13 14  1  0  0  0  0
 15 16  1  0  0  0  0
 17  1  1  0  0  0  0
 18 19  1  0  0  0  0
 19 17  1  0  0  0  0
 19 20  2  0  0  0  0
 20 28  1  0  0  0  0
 21 20  1  0  0  0  0
 21 26  1  0  0  0  0
 22 24  1  0  0  0  0
 22 21  2  0  0  0  0
 23 18  2  0  0  0  0
 23 22  1  0  0  0  0
 24 25  1  0  0  0  0
 25 31  1  0  0  0  0
 25 30  1  0  0  0  0
 25 26  1  0  0  0  0
 27 18  1  0  0  0  0
 29 23  1  0  0  0  0
 32  5  1  0  0  0  0
 32 33  1  0  0  0  0
 33 36  1  0  0  0  0
 33 35  1  0  0  0  0
 34 33  1  0  0  0  0
M  END
>  <minimizedAffinity>
-5.96077585

$$$$

 OpenBabel03242515413D

 36 39  0  0  1  0  0  0  0  0999 V2000
   37.3110   28.9010   42.1780 C   0  0  0  0  0  0  0  0  0  0  0  0
   38.2050   29.9540   42.0440 C   0  0  0  0  0  0  0  0  0  0  0  0
   37.8640   30.9590   41.1320 C   0  0  0  0  0  0  0  0  0  0  0  0
   36.7130   30.8690   40.4380 N   0  0  0  0  0  0  0  0  0  0  0  0
   35.8690   29.8250   40.5990 C   0  0  0  0  0  0  0  0  0  0  0  0
   36.1920   28.8750   41.4620 N   0  0  0  0  0  0  0  0  0  0  0  0
   39.1350   30.0090   42.6160 H   0  0  0  0  0  0  0  0  0  0  0  0
   39.8570   31.8260   39.9490 C   0  0  2  0  0  3  0  0  0  0  0  0
   38.7760   32.1060   40.9470 C   0  0  1  0  0  3  0  0  0  0  0  0
   38.0780   33.2820   40.3050 C   0  0  0  0  0  3  0  0  0  0  0  0
   37.2760   32.9010   39.6410 H   0  0  0  0  0  0  0  0  0  0  0  0
   39.0000   33.9740   39.5720 O   0  0  0  0  0  0  0  0  0  0  0  0
   40.1350   33.2050   39.4030 C   0  0  0  0  0  3  0  0  0  0  0  0
   40.9830   33.6370   39.9680 H   0  0  0  0  0  0  0  0  0  0  0  0
   39.2840   31.0370   38.9330 O   0  0  0  0  0  0  0  0  0  0  0  0
   38.7230   31.6100   38.3310 H   0  0  0  0  0  0  0  0  0  0  0  0
   37.7710   27.6160   43.3580 S   0  0  0  0  0  0  0  0  0  0  0  0
   39.2350   25.4660   42.6560 C   0  0  0  0  0  0  0  0  0  0  0  0
   37.9870   26.0490   42.5230 C   0  0  0  0  0  0  0  0  0  0  0  0
   37.0070   25.4340   41.7910 C   0  0  0  0  0  0  0  0  0  0  0  0
   37.2140   24.2220   41.1590 C   0  0  0  0  0  0  0  0  0  0  0  0
   38.4770   23.6420   41.2980 C   0  0  0  0  0  0  0  0  0  0  0  0
   39.4890   24.2340   42.0300 C   0  0  0  0  0  0  0  0  0  0  0  0
   38.4470   22.4260   40.5750 O   0  0  0  0  0  0  0  0  0  0  0  0
   37.3000   22.4500   39.7880 C   0  0  0  0  0  0  0  0  0  0  0  0
   36.4210   23.3860   40.3680 O   0  0  0  0  0  0  0  0  0  0  0  0
   40.0840   25.8650   43.2110 H   0  0  0  0  0  0  0  0  0  0  0  0
   36.0300   25.9240   41.7060 H   0  0  0  0  0  0  0  0  0  0  0  0
   40.4500   23.7600   42.1170 H   0  0  0  0  0  0  0  0  0  0  0  0
   37.4850   22.6230   38.7140 H   0  0  0  0  0  0  0  0  0  0  0  0
   36.8130   21.4520   39.8570 H   0  0  0  0  0  0  0  0  0  0  0  0
   34.6830   29.6700   39.9270 O   0  0  0  0  0  0  0  0  0  0  0  0
   34.6770   28.9560   38.7130 C   0  0  0  0  0  0  0  0  0  0  0  0
   35.2730   27.7340   38.8270 F   0  0  0  0  0  0  0  0  0  0  0  0
   33.3440   28.8950   38.3150 F   0  0  0  0  0  0  0  0  0  0  0  0
   35.4180   29.7020   37.7950 F   0  0  0  0  0  0  0  0  0  0  0  0
  1 17  1  0  0  0  0
  2  1  1  0  0  0  0
  2  7  1  0  0  0  0
  3  2  2  0  0  0  0
  4  5  2  0  0  0  0
  4  3  1  0  0  0  0
  5  6  1  0  0  0  0
  6  1  2  0  0  0  0
  8 15  1  6  0  0  0
  8  9  1  0  0  0  0
  9  3  1  6  0  0  0
 10  9  1  0  0  0  0
 11 10  1  0  0  0  0
 12 10  1  0  0  0  0
 13 12  1  0  0  0  0
 13  8  1  0  0  0  0
 13 14  1  0  0  0  0
 16 15  1  0  0  0  0
 18 27  1  0  0  0  0
 19 18  1  0  0  0  0
 19 17  1  0  0  0  0
 20 19  2  0  0  0  0
 21 22  2  0  0  0  0
 21 20  1  0  0  0  0
 22 23  1  0  0  0  0
 23 29  1  0  0  0  0
 23 18  2  0  0  0  0
 24 22  1  0  0  0  0
 25 31  1  0  0  0  0
 25 26  1  0  0  0  0
 25 24  1  0  0  0  0
 26 21  1  0  0  0  0
 28 20  1  0  0  0  0
 30 25  1  0  0  0  0
 32  5  1  0  0  0  0
 33 34  1  0  0  0  0
 33 32  1  0  0  0  0
 35 33  1  0  0  0  0
 36 33  1  0  0  0  0
M  END
>  <minimizedAffinity>
-5.84698248

$$$$

 OpenBabel03242515413D

 36 39  0  0  1  0  0  0  0  0999 V2000
   38.5350   30.0260   41.8740 C   0  0  0  0  0  0  0  0  0  0  0  0
   39.8310   30.5180   41.9250 C   0  0  0  0  0  0  0  0  0  0  0  0
   40.2230   31.3710   40.8870 C   0  0  0  0  0  0  0  0  0  0  0  0
   39.3520   31.6720   39.9050 N   0  0  0  0  0  0  0  0  0  0  0  0
   38.0970   31.1700   39.8930 C   0  0  0  0  0  0  0  0  0  0  0  0
   37.7260   30.3640   40.8750 N   0  0  0  0  0  0  0  0  0  0  0  0
   40.5240   30.2610   42.7310 H   0  0  0  0  0  0  0  0  0  0  0  0
   41.6150   33.3970   40.6010 C   0  0  2  0  0  3  0  0  0  0  0  0
   41.5910   31.9280   40.8880 C   0  0  1  0  0  3  0  0  0  0  0  0
   42.2160   31.8840   42.2630 C   0  0  0  0  0  3  0  0  0  0  0  0
   41.4130   31.9790   43.0210 H   0  0  0  0  0  0  0  0  0  0  0  0
   43.0830   32.9340   42.3680 O   0  0  0  0  0  0  0  0  0  0  0  0
   42.8510   33.8350   41.3470 C   0  0  0  0  0  3  0  0  0  0  0  0
   43.7010   33.8420   40.6360 H   0  0  0  0  0  0  0  0  0  0  0  0
   40.4820   33.9560   41.2240 O   0  0  0  0  0  0  0  0  0  0  0  0
   40.6380   34.0330   42.2120 H   0  0  0  0  0  0  0  0  0  0  0  0
   38.0500   28.9280   43.2220 S   0  0  0  0  0  0  0  0  0  0  0  0
   39.1370   26.4630   43.1780 C   0  0  0  0  0  0  0  0  0  0  0  0
   38.0910   27.2230   42.6840 C   0  0  0  0  0  0  0  0  0  0  0  0
   37.1660   26.6680   41.8410 C   0  0  0  0  0  0  0  0  0  0  0  0
   37.2330   25.3430   41.4470 C   0  0  0  0  0  0  0  0  0  0  0  0
   38.2930   24.5860   41.9500 C   0  0  0  0  0  0  0  0  0  0  0  0
   39.2440   25.1130   42.8040 C   0  0  0  0  0  0  0  0  0  0  0  0
   38.1500   23.2830   41.4160 O   0  0  0  0  0  0  0  0  0  0  0  0
   37.2110   23.3660   40.3920 C   0  0  0  0  0  0  0  0  0  0  0  0
   36.4520   24.5300   40.6210 O   0  0  0  0  0  0  0  0  0  0  0  0
   39.9250   26.8000   43.8510 H   0  0  0  0  0  0  0  0  0  0  0  0
   36.3500   27.2970   41.4680 H   0  0  0  0  0  0  0  0  0  0  0  0
   40.0460   24.5010   43.1720 H   0  0  0  0  0  0  0  0  0  0  0  0
   37.6350   23.3060   39.3760 H   0  0  0  0  0  0  0  0  0  0  0  0
   36.5210   22.4980   40.4860 H   0  0  0  0  0  0  0  0  0  0  0  0
   37.1600   31.4340   38.9260 O   0  0  0  0  0  0  0  0  0  0  0  0
   37.0760   30.5800   37.8090 C   0  0  0  0  0  0  0  0  0  0  0  0
   38.0390   29.6140   37.8210 F   0  0  0  0  0  0  0  0  0  0  0  0
   35.7770   30.0770   37.8140 F   0  0  0  0  0  0  0  0  0  0  0  0
   37.2810   31.3670   36.6750 F   0  0  0  0  0  0  0  0  0  0  0  0
  1  2  1  0  0  0  0
  1 17  1  0  0  0  0
  2  7  1  0  0  0  0
  3  2  2  0  0  0  0
  4  3  1  0  0  0  0
  5  4  2  0  0  0  0
  5  6  1  0  0  0  0
  6  1  2  0  0  0  0
  8  9  1  0  0  0  0
  8 15  1  1  0  0  0
  8 13  1  0  0  0  0
  9  3  1  1  0  0  0
  9 10  1  0  0  0  0
 10 12  1  0  0  0  0
 10 11  1  0  0  0  0
 13 12  1  0  0  0  0
 14 13  1  0  0  0  0
 15 16  1  0  0  0  0
 18 27  1  0  0  0  0
 19 18  2  0  0  0  0
 19 17  1  0  0  0  0
 20 19  1  0  0  0  0
 21 20  2  0  0  0  0
 21 22  1  0  0  0  0
 22 23  2  0  0  0  0
 23 29  1  0  0  0  0
 23 18  1  0  0  0  0
 24 22  1  0  0  0  0
 25 31  1  0  0  0  0
 25 26  1  0  0  0  0
 25 24  1  0  0  0  0
 26 21  1  0  0  0  0
 28 20  1  0  0  0  0
 30 25  1  0  0  0  0
 32  5  1  0  0  0  0
 33 35  1  0  0  0  0
 33 34  1  0  0  0  0
 33 32  1  0  0  0  0
 36 33  1  0  0  0  0
M  END
>  <minimizedAffinity>
-5.73273039

$$$$

 OpenBabel03242515413D

 36 39  0  0  1  0  0  0  0  0999 V2000
   39.3500   30.8960   40.7030 C   0  0  0  0  0  0  0  0  0  0  0  0
   38.2110   30.5120   40.0080 C   0  0  0  0  0  0  0  0  0  0  0  0
   37.9790   31.1440   38.7810 C   0  0  0  0  0  0  0  0  0  0  0  0
   38.8440   32.0740   38.3330 N   0  0  0  0  0  0  0  0  0  0  0  0
   39.9420   32.4190   39.0420 C   0  0  0  0  0  0  0  0  0  0  0  0
   40.1620   31.8220   40.2020 N   0  0  0  0  0  0  0  0  0  0  0  0
   37.5210   29.7550   40.3890 H   0  0  0  0  0  0  0  0  0  0  0  0
   37.1220   30.3250   36.6090 C   0  0  2  0  0  3  0  0  0  0  0  0
   36.7830   30.7760   37.9960 C   0  0  1  0  0  3  0  0  0  0  0  0
   36.1020   29.5460   38.5490 C   0  0  0  0  0  3  0  0  0  0  0  0
   36.8680   28.8970   39.0180 H   0  0  0  0  0  0  0  0  0  0  0  0
   35.5050   28.8890   37.5110 O   0  0  0  0  0  0  0  0  0  0  0  0
   35.9910   29.3720   36.3110 C   0  0  0  0  0  3  0  0  0  0  0  0
   35.2010   29.9280   35.7700 H   0  0  0  0  0  0  0  0  0  0  0  0
   38.3240   29.5970   36.6950 O   0  0  0  0  0  0  0  0  0  0  0  0
   38.1450   28.6840   37.0690 H   0  0  0  0  0  0  0  0  0  0  0  0
   39.6310   30.0700   42.2830 S   0  0  0  0  0  0  0  0  0  0  0  0
   37.5970   28.4900   43.0720 C   0  0  0  0  0  0  0  0  0  0  0  0
   38.7660   28.5050   42.3320 C   0  0  0  0  0  0  0  0  0  0  0  0
   39.1990   27.3750   41.6940 C   0  0  0  0  0  0  0  0  0  0  0  0
   38.5010   26.1830   41.7570 C   0  0  0  0  0  0  0  0  0  0  0  0
   37.3230   26.1770   42.5060 C   0  0  0  0  0  0  0  0  0  0  0  0
   36.8550   27.3000   43.1630 C   0  0  0  0  0  0  0  0  0  0  0  0
   36.7940   24.8670   42.4230 O   0  0  0  0  0  0  0  0  0  0  0  0
   37.7960   24.0590   41.8940 C   0  0  0  0  0  0  0  0  0  0  0  0
   38.6990   24.9060   41.2220 O   0  0  0  0  0  0  0  0  0  0  0  0
   37.1610   29.3270   43.6180 H   0  0  0  0  0  0  0  0  0  0  0  0
   40.1300   27.4210   41.1160 H   0  0  0  0  0  0  0  0  0  0  0  0
   35.9440   27.2610   43.7310 H   0  0  0  0  0  0  0  0  0  0  0  0
   38.2780   23.3900   42.6260 H   0  0  0  0  0  0  0  0  0  0  0  0
   37.3360   23.3940   41.1300 H   0  0  0  0  0  0  0  0  0  0  0  0
   40.8630   33.3560   38.6470 O   0  0  0  0  0  0  0  0  0  0  0  0
   41.8680   32.9800   37.7340 C   0  0  0  0  0  0  0  0  0  0  0  0
   41.4420   32.0220   36.8600 F   0  0  0  0  0  0  0  0  0  0  0  0
   42.2800   34.1590   37.1180 F   0  0  0  0  0  0  0  0  0  0  0  0
   42.9160   32.4360   38.4790 F   0  0  0  0  0  0  0  0  0  0  0  0
  1 17  1  0  0  0  0
  2  7  1  0  0  0  0
  2  1  2  0  0  0  0
  3  2  1  0  0  0  0
  4  3  2  0  0  0  0
  4  5  1  0  0  0  0
  5  6  2  0  0  0  0
  6  1  1  0  0  0  0
  8 15  1  1  0  0  0
  8  9  1  0  0  0  0
  9 10  1  0  0  0  0
  9  3  1  1  0  0  0
 10 11  1  0  0  0  0
 12 10  1  0  0  0  0
 13  8  1  0  0  0  0
 13 12  1  0  0  0  0
 14 13  1  0  0  0  0
 15 16  1  0  0  0  0
 17 19  1  0  0  0  0
 18 23  1  0  0  0  0
 18 27  1  0  0  0  0
 19 18  2  0  0  0  0
 20 21  2  0  0  0  0
 20 19  1  0  0  0  0
 21 22  1  0  0  0  0
 22 23  2  0  0  0  0
 23 29  1  0  0  0  0
 24 22  1  0  0  0  0
 25 24  1  0  0  0  0
 25 30  1  0  0  0  0
 26 21  1  0  0  0  0
 26 25  1  0  0  0  0
 28 20  1  0  0  0  0
 31 25  1  0  0  0  0
 32  5  1  0  0  0  0
 33 36  1  0  0  0  0
 33 32  1  0  0  0  0
 34 33  1  0  0  0  0
 35 33  1  0  0  0  0
M  END
>  <minimizedAffinity>
-5.6844449

$$$$

 OpenBabel03242515413D

 36 39  0  0  1  0  0  0  0  0999 V2000
   38.5610   29.9660   42.2490 C   0  0  0  0  0  0  0  0  0  0  0  0
   39.0220   28.7880   42.8200 C   0  0  0  0  0  0  0  0  0  0  0  0
   38.1750   27.6770   42.7430 C   0  0  0  0  0  0  0  0  0  0  0  0
   36.9780   27.7900   42.1370 N   0  0  0  0  0  0  0  0  0  0  0  0
   36.5660   28.9580   41.5940 C   0  0  0  0  0  0  0  0  0  0  0  0
   37.3670   30.0080   41.6660 N   0  0  0  0  0  0  0  0  0  0  0  0
   39.9970   28.7170   43.3080 H   0  0  0  0  0  0  0  0  0  0  0  0
   38.5180   25.2550   42.3640 C   0  0  2  0  0  3  0  0  0  0  0  0
   38.6120   26.3940   43.3310 C   0  0  1  0  0  3  0  0  0  0  0  0
   40.0900   26.3940   43.6460 C   0  0  0  0  0  3  0  0  0  0  0  0
   40.6080   27.0530   42.9210 H   0  0  0  0  0  0  0  0  0  0  0  0
   40.5490   25.1140   43.5230 O   0  0  0  0  0  0  0  0  0  0  0  0
   39.6160   24.3450   42.8540 C   0  0  0  0  0  3  0  0  0  0  0  0
   39.1690   23.5970   43.5370 H   0  0  0  0  0  0  0  0  0  0  0  0
   38.8720   25.7610   41.0980 O   0  0  0  0  0  0  0  0  0  0  0  0
   39.8670   25.8740   41.0410 H   0  0  0  0  0  0  0  0  0  0  0  0
   39.6680   31.3870   42.3600 S   0  0  0  0  0  0  0  0  0  0  0  0
   39.8990   30.9890   39.7050 C   0  0  0  0  0  0  0  0  0  0  0  0
   40.3020   31.8120   40.7420 C   0  0  0  0  0  0  0  0  0  0  0  0
   41.1340   32.8730   40.5050 C   0  0  0  0  0  0  0  0  0  0  0  0
   41.6040   33.1680   39.2380 C   0  0  0  0  0  0  0  0  0  0  0  0
   41.1910   32.3330   38.1980 C   0  0  0  0  0  0  0  0  0  0  0  0
   40.3520   31.2530   38.4020 C   0  0  0  0  0  0  0  0  0  0  0  0
   41.7910   32.8280   37.0160 O   0  0  0  0  0  0  0  0  0  0  0  0
   42.7660   33.7400   37.4080 C   0  0  0  0  0  0  0  0  0  0  0  0
   42.4390   34.1590   38.7130 O   0  0  0  0  0  0  0  0  0  0  0  0
   39.2430   30.1220   39.7800 H   0  0  0  0  0  0  0  0  0  0  0  0
   41.4350   33.5050   41.3490 H   0  0  0  0  0  0  0  0  0  0  0  0
   40.0540   30.6300   37.5790 H   0  0  0  0  0  0  0  0  0  0  0  0
   43.8020   33.3750   37.3060 H   0  0  0  0  0  0  0  0  0  0  0  0
   42.6900   34.6320   36.7470 H   0  0  0  0  0  0  0  0  0  0  0  0
   35.3620   29.1430   40.9630 O   0  0  0  0  0  0  0  0  0  0  0  0
   35.3010   29.0130   39.5620 C   0  0  0  0  0  0  0  0  0  0  0  0
   35.8680   30.0740   38.9180 F   0  0  0  0  0  0  0  0  0  0  0  0
   35.9030   27.7920   39.2680 F   0  0  0  0  0  0  0  0  0  0  0  0
   33.9500   28.9790   39.2110 F   0  0  0  0  0  0  0  0  0  0  0  0
  1 17  1  0  0  0  0
  1  2  1  0  0  0  0
  2  7  1  0  0  0  0
  3  2  2  0  0  0  0
  4  3  1  0  0  0  0
  5  6  1  0  0  0  0
  5  4  2  0  0  0  0
  6  1  2  0  0  0  0
  8 15  1  6  0  0  0
  8 13  1  0  0  0  0
  8  9  1  0  0  0  0
  9  3  1  6  0  0  0
  9 10  1  0  0  0  0
 11 10  1  0  0  0  0
 12 10  1  0  0  0  0
 13 12  1  0  0  0  0
 13 14  1  0  0  0  0
 16 15  1  0  0  0  0
 18 27  1  0  0  0  0
 18 19  1  0  0  0  0
 19 17  1  0  0  0  0
 20 19  2  0  0  0  0
 20 28  1  0  0  0  0
 21 20  1  0  0  0  0
 22 23  1  0  0  0  0
 22 21  2  0  0  0  0
 23 18  2  0  0  0  0
 24 25  1  0  0  0  0
 24 22  1  0  0  0  0
 25 26  1  0  0  0  0
 26 21  1  0  0  0  0
 29 23  1  0  0  0  0
 30 25  1  0  0  0  0
 31 25  1  0  0  0  0
 32  5  1  0  0  0  0
 33 32  1  0  0  0  0
 34 33  1  0  0  0  0
 35 33  1  0  0  0  0
 36 33  1  0  0  0  0
M  END
>  <minimizedAffinity>
-5.65181398

$$$$

 OpenBabel03242515413D

 36 39  0  0  1  0  0  0  0  0999 V2000
   37.8050   28.0340   36.4430 C   0  0  0  0  0  0  0  0  0  0  0  0
   38.3090   28.8050   37.4830 C   0  0  0  0  0  0  0  0  0  0  0  0
   37.9300   30.1510   37.5110 C   0  0  0  0  0  0  0  0  0  0  0  0
   37.1140   30.6360   36.5550 N   0  0  0  0  0  0  0  0  0  0  0  0
   36.6450   29.8510   35.5590 C   0  0  0  0  0  0  0  0  0  0  0  0
   37.0030   28.5770   35.5330 N   0  0  0  0  0  0  0  0  0  0  0  0
   38.9710   28.3920   38.2490 H   0  0  0  0  0  0  0  0  0  0  0  0
   39.6250   31.8260   38.1770 C   0  0  2  0  0  3  0  0  0  0  0  0
   38.4340   31.0200   38.5930 C   0  0  1  0  0  3  0  0  0  0  0  0
   37.4480   32.1100   38.9460 C   0  0  0  0  0  3  0  0  0  0  0  0
   36.8700   32.3740   38.0370 H   0  0  0  0  0  0  0  0  0  0  0  0
   38.1540   33.1950   39.3810 O   0  0  0  0  0  0  0  0  0  0  0  0
   39.4860   33.0510   39.0460 C   0  0  0  0  0  3  0  0  0  0  0  0
   40.1000   32.9030   39.9560 H   0  0  0  0  0  0  0  0  0  0  0  0
   39.4240   32.1930   36.8320 O   0  0  0  0  0  0  0  0  0  0  0  0
   38.7590   32.9420   36.7780 H   0  0  0  0  0  0  0  0  0  0  0  0
   38.3070   26.3010   36.4260 S   0  0  0  0  0  0  0  0  0  0  0  0
   36.8310   25.1960   38.3900 C   0  0  0  0  0  0  0  0  0  0  0  0
   38.1170   25.5790   38.0510 C   0  0  0  0  0  0  0  0  0  0  0  0
   39.1500   25.4000   38.9300 C   0  0  0  0  0  0  0  0  0  0  0  0
   38.9620   24.8380   40.1800 C   0  0  0  0  0  0  0  0  0  0  0  0
   37.6620   24.4550   40.5130 C   0  0  0  0  0  0  0  0  0  0  0  0
   36.5940   24.6210   39.6500 C   0  0  0  0  0  0  0  0  0  0  0  0
   37.7190   23.9140   41.8200 O   0  0  0  0  0  0  0  0  0  0  0  0
   38.9630   24.2540   42.3440 C   0  0  0  0  0  0  0  0  0  0  0  0
   39.8070   24.5410   41.2540 O   0  0  0  0  0  0  0  0  0  0  0  0
   35.9390   25.2920   37.7720 H   0  0  0  0  0  0  0  0  0  0  0  0
   40.1570   25.7150   38.6300 H   0  0  0  0  0  0  0  0  0  0  0  0
   35.6060   24.3150   39.9390 H   0  0  0  0  0  0  0  0  0  0  0  0
   38.9350   25.0520   43.1050 H   0  0  0  0  0  0  0  0  0  0  0  0
   39.3780   23.3580   42.8570 H   0  0  0  0  0  0  0  0  0  0  0  0
   35.8130   30.2770   34.5560 O   0  0  0  0  0  0  0  0  0  0  0  0
   36.3230   31.1450   33.5710 C   0  0  0  0  0  0  0  0  0  0  0  0
   37.0840   30.4900   32.6470 F   0  0  0  0  0  0  0  0  0  0  0  0
   35.2170   31.7950   33.0280 F   0  0  0  0  0  0  0  0  0  0  0  0
   37.1480   32.0650   34.2210 F   0  0  0  0  0  0  0  0  0  0  0  0
  1  2  1  0  0  0  0
  2  3  2  0  0  0  0
  2  7  1  0  0  0  0
  4  3  1  0  0  0  0
  5  4  2  0  0  0  0
  6  5  1  0  0  0  0
  6  1  2  0  0  0  0
  8 15  1  6  0  0  0
  8  9  1  0  0  0  0
  8 13  1  0  0  0  0
  9  3  1  6  0  0  0
  9 10  1  0  0  0  0
 10 12  1  0  0  0  0
 11 10  1  0  0  0  0
 13 12  1  0  0  0  0
 13 14  1  0  0  0  0
 16 15  1  0  0  0  0
 17  1  1  0  0  0  0
 17 19  1  0  0  0  0
 18 23  1  0  0  0  0
 19 18  2  0  0  0  0
 19 20  1  0  0  0  0
 20 21  2  0  0  0  0
 21 22  1  0  0  0  0
 21 26  1  0  0  0  0
 22 24  1  0  0  0  0
 23 29  1  0  0  0  0
 23 22  2  0  0  0  0
 24 25  1  0  0  0  0
 25 31  1  0  0  0  0
 25 30  1  0  0  0  0
 26 25  1  0  0  0  0
 27 18  1  0  0  0  0
 28 20  1  0  0  0  0
 32  5  1  0  0  0  0
 33 36  1  0  0  0  0
 33 32  1  0  0  0  0
 34 33  1  0  0  0  0
 35 33  1  0  0  0  0
M  END
>  <minimizedAffinity>
-5.45109177

$$$$

 OpenBabel03242515413D

 36 39  0  0  1  0  0  0  0  0999 V2000
   38.1760   29.8710   41.6160 C   0  0  0  0  0  0  0  0  0  0  0  0
   37.4010   29.6040   40.4960 C   0  0  0  0  0  0  0  0  0  0  0  0
   37.3770   30.5830   39.4960 C   0  0  0  0  0  0  0  0  0  0  0  0
   38.0870   31.7170   39.6550 N   0  0  0  0  0  0  0  0  0  0  0  0
   38.8300   31.9380   40.7630 C   0  0  0  0  0  0  0  0  0  0  0  0
   38.8530   31.0120   41.7070 N   0  0  0  0  0  0  0  0  0  0  0  0
   36.8310   28.6780   40.3860 H   0  0  0  0  0  0  0  0  0  0  0  0
   37.3260   30.6560   37.0240 C   0  0  2  0  0  3  0  0  0  0  0  0
   36.5710   30.3550   38.2810 C   0  0  1  0  0  3  0  0  0  0  0  0
   36.2460   28.8920   38.0870 C   0  0  0  0  0  3  0  0  0  0  0  0
   37.0700   28.2860   38.5150 H   0  0  0  0  0  0  0  0  0  0  0  0
   36.1390   28.6550   36.7470 O   0  0  0  0  0  0  0  0  0  0  0  0
   36.6740   29.7150   36.0410 C   0  0  0  0  0  3  0  0  0  0  0  0
   35.8760   30.2680   35.5080 H   0  0  0  0  0  0  0  0  0  0  0  0
   38.6570   30.2480   37.2360 O   0  0  0  0  0  0  0  0  0  0  0  0
   38.7230   29.2490   37.1690 H   0  0  0  0  0  0  0  0  0  0  0  0
   38.1920   28.5960   42.8920 S   0  0  0  0  0  0  0  0  0  0  0  0
   36.9780   26.2070   42.6080 C   0  0  0  0  0  0  0  0  0  0  0  0
   38.0390   26.9730   42.1560 C   0  0  0  0  0  0  0  0  0  0  0  0
   38.8940   26.4840   41.2050 C   0  0  0  0  0  0  0  0  0  0  0  0
   38.7420   25.2220   40.6600 C   0  0  0  0  0  0  0  0  0  0  0  0
   37.6700   24.4570   41.1220 C   0  0  0  0  0  0  0  0  0  0  0  0
   36.7860   24.9190   42.0810 C   0  0  0  0  0  0  0  0  0  0  0  0
   37.7200   23.2250   40.4280 O   0  0  0  0  0  0  0  0  0  0  0  0
   38.9630   23.1620   39.8060 C   0  0  0  0  0  0  0  0  0  0  0  0
   39.4410   24.4830   39.7020 O   0  0  0  0  0  0  0  0  0  0  0  0
   36.2410   26.4940   43.3570 H   0  0  0  0  0  0  0  0  0  0  0  0
   39.7240   27.1170   40.8700 H   0  0  0  0  0  0  0  0  0  0  0  0
   35.9710   24.3030   42.4150 H   0  0  0  0  0  0  0  0  0  0  0  0
   39.6780   22.4680   40.2810 H   0  0  0  0  0  0  0  0  0  0  0  0
   38.8120   22.7820   38.7710 H   0  0  0  0  0  0  0  0  0  0  0  0
   39.5760   33.0670   40.9890 O   0  0  0  0  0  0  0  0  0  0  0  0
   40.7120   33.3040   40.1910 C   0  0  0  0  0  0  0  0  0  0  0  0
   41.3040   32.1460   39.7770 F   0  0  0  0  0  0  0  0  0  0  0  0
   40.2800   34.1170   39.1470 F   0  0  0  0  0  0  0  0  0  0  0  0
   41.6340   33.9890   40.9830 F   0  0  0  0  0  0  0  0  0  0  0  0
  1  6  1  0  0  0  0
  1 17  1  0  0  0  0
  2  1  2  0  0  0  0
  3  4  2  0  0  0  0
  3  2  1  0  0  0  0
  4  5  1  0  0  0  0
  5 32  1  0  0  0  0
  5  6  2  0  0  0  0
  7  2  1  0  0  0  0
  8 15  1  1  0  0  0
  8  9  1  0  0  0  0
  9  3  1  1  0  0  0
 10  9  1  0  0  0  0
 10 11  1  0  0  0  0
 12 10  1  0  0  0  0
 13 12  1  0  0  0  0
 13  8  1  0  0  0  0
 14 13  1  0  0  0  0
 16 15  1  0  0  0  0
 18 27  1  0  0  0  0
 19 18  1  0  0  0  0
 19 17  1  0  0  0  0
 20 19  2  0  0  0  0
 21 22  2  0  0  0  0
 21 20  1  0  0  0  0
 22 23  1  0  0  0  0
 23 29  1  0  0  0  0
 23 18  2  0  0  0  0
 24 22  1  0  0  0  0
 25 30  1  0  0  0  0
 25 24  1  0  0  0  0
 26 25  1  0  0  0  0
 26 21  1  0  0  0  0
 28 20  1  0  0  0  0
 31 25  1  0  0  0  0
 33 36  1  0  0  0  0
 33 32  1  0  0  0  0
 34 33  1  0  0  0  0
 35 33  1  0  0  0  0
M  END
>  <minimizedAffinity>
-5.36909914

$$$$
