
 OpenBabel03252507403D

 19 20  0  0  1  0  0  0  0  0999 V2000
   37.9180   29.9630   41.0730 C   0  0  0  0  0  0  0  0  0  0  0  0
   38.5860   29.8450   42.3070 C   0  0  0  0  0  0  0  0  0  0  0  0
   38.1130   28.9220   43.2520 C   0  0  0  0  0  0  0  0  0  0  0  0
   37.0070   28.1780   42.9020 N   0  0  0  0  0  0  0  0  0  0  0  0
   36.4050   28.3220   41.7180 C   0  0  0  0  0  0  0  0  0  0  0  0
   36.8390   29.1960   40.8060 N   0  0  0  0  0  0  0  0  0  0  0  0
   38.6090   28.8170   44.1980 H   0  0  0  0  0  0  0  0  0  0  0  0
   35.5310   27.7320   41.4470 H   0  0  0  0  0  0  0  0  0  0  0  0
   37.5500   32.1870   40.0240 C   0  0  1  0  0  3  0  0  0  0  0  0
   38.4220   30.9310   40.0960 C   0  0  2  0  0  3  0  0  0  0  0  0
   38.3260   30.4310   38.6720 C   0  0  0  0  0  3  0  0  0  0  0  0
   39.2040   29.8080   38.4290 H   0  0  0  0  0  0  0  0  0  0  0  0
   38.3250   31.6320   37.9550 O   0  0  0  0  0  0  0  0  0  0  0  0
   37.2930   32.3580   38.5440 C   0  0  0  0  0  3  0  0  0  0  0  0
   37.3080   33.4180   38.2160 H   0  0  0  0  0  0  0  0  0  0  0  0
   36.3760   32.0310   40.7550 O   0  0  0  0  0  0  0  0  0  0  0  0
   35.7380   31.5660   40.1520 H   0  0  0  0  0  0  0  0  0  0  0  0
   40.0200   30.8590   42.6710 S   0  0  0  0  0  0  0  0  0  0  0  0
   39.8160   31.6520   43.8160 H   0  0  0  0  0  0  0  0  0  0  0  0
  1  2  1  0  0  0  0
  2 18  1  0  0  0  0
  2  3  2  0  0  0  0
  3  7  1  0  0  0  0
  4  3  1  0  0  0  0
  5  4  2  0  0  0  0
  6  1  2  0  0  0  0
  6  5  1  0  0  0  0
  8  5  1  0  0  0  0
  9 10  1  0  0  0  0
  9 16  1  1  0  0  0
 10  1  1  1  0  0  0
 11 10  1  0  0  0  0
 12 11  1  0  0  0  0
 13 14  1  0  0  0  0
 13 11  1  0  0  0  0
 14  9  1  0  0  0  0
 15 14  1  0  0  0  0
 17 16  1  0  0  0  0
 18 19  1  0  0  0  0
M  END
>  <minimizedAffinity>
-3.92404461

$$$$

 OpenBabel03252507403D

 19 20  0  0  1  0  0  0  0  0999 V2000
   37.6150   29.6500   41.1360 C   0  0  0  0  0  0  0  0  0  0  0  0
   36.5560   30.2090   40.3950 C   0  0  0  0  0  0  0  0  0  0  0  0
   36.6320   31.5560   40.0060 C   0  0  0  0  0  0  0  0  0  0  0  0
   37.7600   32.2530   40.3820 N   0  0  0  0  0  0  0  0  0  0  0  0
   38.7420   31.6820   41.0850 C   0  0  0  0  0  0  0  0  0  0  0  0
   38.6880   30.4020   41.4660 N   0  0  0  0  0  0  0  0  0  0  0  0
   35.8350   31.9990   39.4410 H   0  0  0  0  0  0  0  0  0  0  0  0
   39.6310   32.2380   41.3800 H   0  0  0  0  0  0  0  0  0  0  0  0
   37.1620   28.0860   43.0150 C   0  0  1  0  0  3  0  0  0  0  0  0
   37.5220   28.2450   41.5350 C   0  0  2  0  0  3  0  0  0  0  0  0
   38.8540   27.5320   41.4850 C   0  0  0  0  0  3  0  0  0  0  0  0
   39.0530   27.1720   40.4600 H   0  0  0  0  0  0  0  0  0  0  0  0
   38.6370   26.4740   42.3730 O   0  0  0  0  0  0  0  0  0  0  0  0
   38.1950   27.1100   43.5300 C   0  0  0  0  0  3  0  0  0  0  0  0
   37.7850   26.3810   44.2590 H   0  0  0  0  0  0  0  0  0  0  0  0
   37.2030   29.3080   43.6800 O   0  0  0  0  0  0  0  0  0  0  0  0
   38.1540   29.4480   43.9360 H   0  0  0  0  0  0  0  0  0  0  0  0
   35.1270   29.2190   39.9530 S   0  0  0  0  0  0  0  0  0  0  0  0
   33.9380   29.7670   40.4690 H   0  0  0  0  0  0  0  0  0  0  0  0
  1  6  1  0  0  0  0
  2  1  2  0  0  0  0
  3  4  2  0  0  0  0
  3  2  1  0  0  0  0
  4  5  1  0  0  0  0
  5  8  1  0  0  0  0
  5  6  2  0  0  0  0
  7  3  1  0  0  0  0
  9 14  1  0  0  0  0
  9 16  1  1  0  0  0
 10  1  1  1  0  0  0
 10  9  1  0  0  0  0
 11 10  1  0  0  0  0
 11 13  1  0  0  0  0
 12 11  1  0  0  0  0
 13 14  1  0  0  0  0
 14 15  1  0  0  0  0
 16 17  1  0  0  0  0
 18  2  1  0  0  0  0
 18 19  1  0  0  0  0
M  END
>  <minimizedAffinity>
-3.91595769

$$$$

 OpenBabel03252507403D

 19 20  0  0  1  0  0  0  0  0999 V2000
   38.1310   30.2360   40.8080 C   0  0  0  0  0  0  0  0  0  0  0  0
   39.0180   31.2770   40.4710 C   0  0  0  0  0  0  0  0  0  0  0  0
   39.9730   31.6900   41.4120 C   0  0  0  0  0  0  0  0  0  0  0  0
   39.9790   31.0370   42.6270 N   0  0  0  0  0  0  0  0  0  0  0  0
   39.1170   30.0540   42.9040 C   0  0  0  0  0  0  0  0  0  0  0  0
   38.2010   29.6470   42.0220 N   0  0  0  0  0  0  0  0  0  0  0  0
   40.6580   32.4800   41.1730 H   0  0  0  0  0  0  0  0  0  0  0  0
   39.1260   29.5430   43.8660 H   0  0  0  0  0  0  0  0  0  0  0  0
   35.7400   30.3510   40.1330 C   0  0  1  0  0  3  0  0  0  0  0  0
   37.1390   29.8160   39.8160 C   0  0  2  0  0  3  0  0  0  0  0  0
   36.8870   28.3250   39.8350 C   0  0  0  0  0  3  0  0  0  0  0  0
   37.6440   27.8040   39.2220 H   0  0  0  0  0  0  0  0  0  0  0  0
   35.6140   28.2500   39.2630 O   0  0  0  0  0  0  0  0  0  0  0  0
   34.8600   29.1260   40.0390 C   0  0  0  0  0  3  0  0  0  0  0  0
   33.8730   29.3300   39.5740 H   0  0  0  0  0  0  0  0  0  0  0  0
   35.6980   30.9450   41.3910 O   0  0  0  0  0  0  0  0  0  0  0  0
   35.5500   30.2050   42.0380 H   0  0  0  0  0  0  0  0  0  0  0  0
   38.9330   32.0650   38.8620 S   0  0  0  0  0  0  0  0  0  0  0  0
   38.6900   33.4470   38.9750 H   0  0  0  0  0  0  0  0  0  0  0  0
  1  6  1  0  0  0  0
  2  1  2  0  0  0  0
  2  3  1  0  0  0  0
  3  4  2  0  0  0  0
  4  5  1  0  0  0  0
  5  8  1  0  0  0  0
  6  5  2  0  0  0  0
  7  3  1  0  0  0  0
  9 16  1  1  0  0  0
 10 11  1  0  0  0  0
 10  9  1  0  0  0  0
 10  1  1  1  0  0  0
 12 11  1  0  0  0  0
 13 11  1  0  0  0  0
 13 14  1  0  0  0  0
 14  9  1  0  0  0  0
 15 14  1  0  0  0  0
 16 17  1  0  0  0  0
 18 19  1  0  0  0  0
 18  2  1  0  0  0  0
M  END
>  <minimizedAffinity>
-3.84199357

$$$$

 OpenBabel03252507403D

 19 20  0  0  1  0  0  0  0  0999 V2000
   37.4260   30.3260   40.0900 C   0  0  0  0  0  0  0  0  0  0  0  0
   36.9800   29.4410   41.0910 C   0  0  0  0  0  0  0  0  0  0  0  0
   35.8410   28.6570   40.8510 C   0  0  0  0  0  0  0  0  0  0  0  0
   35.2230   28.8100   39.6280 N   0  0  0  0  0  0  0  0  0  0  0  0
   35.6810   29.6630   38.7070 C   0  0  0  0  0  0  0  0  0  0  0  0
   36.7630   30.4170   38.9170 N   0  0  0  0  0  0  0  0  0  0  0  0
   35.4870   27.9770   41.6010 H   0  0  0  0  0  0  0  0  0  0  0  0
   35.1880   29.7790   37.7430 H   0  0  0  0  0  0  0  0  0  0  0  0
   38.2650   32.5940   40.6670 C   0  0  1  0  0  3  0  0  0  0  0  0
   38.6160   31.1360   40.3550 C   0  0  2  0  0  3  0  0  0  0  0  0
   39.4920   31.3070   39.1350 C   0  0  0  0  0  3  0  0  0  0  0  0
   40.1700   30.4410   39.0310 H   0  0  0  0  0  0  0  0  0  0  0  0
   40.1890   32.4770   39.4530 O   0  0  0  0  0  0  0  0  0  0  0  0
   39.1750   33.3830   39.7540 C   0  0  0  0  0  3  0  0  0  0  0  0
   39.5820   34.3010   40.2270 H   0  0  0  0  0  0  0  0  0  0  0  0
   36.9180   32.8520   40.4320 O   0  0  0  0  0  0  0  0  0  0  0  0
   36.8430   33.0530   39.4620 H   0  0  0  0  0  0  0  0  0  0  0  0
   37.8540   29.3120   42.6530 S   0  0  0  0  0  0  0  0  0  0  0  0
   37.0170   29.6260   43.7400 H   0  0  0  0  0  0  0  0  0  0  0  0
  1  2  1  0  0  0  0
  2 18  1  0  0  0  0
  3  2  2  0  0  0  0
  3  7  1  0  0  0  0
  4  3  1  0  0  0  0
  5  6  1  0  0  0  0
  5  4  2  0  0  0  0
  6  1  2  0  0  0  0
  8  5  1  0  0  0  0
  9 16  1  6  0  0  0
 10  1  1  6  0  0  0
 10  9  1  0  0  0  0
 11 13  1  0  0  0  0
 11 10  1  0  0  0  0
 12 11  1  0  0  0  0
 13 14  1  0  0  0  0
 14 15  1  0  0  0  0
 14  9  1  0  0  0  0
 17 16  1  0  0  0  0
 18 19  1  0  0  0  0
M  END
>  <minimizedAffinity>
-3.76795006

$$$$

 OpenBabel03252507403D

 19 20  0  0  1  0  0  0  0  0999 V2000
   40.2460   32.2190   40.8180 C   0  0  0  0  0  0  0  0  0  0  0  0
   41.6100   32.5590   40.8970 C   0  0  0  0  0  0  0  0  0  0  0  0
   42.3730   32.0700   41.9690 C   0  0  0  0  0  0  0  0  0  0  0  0
   41.7230   31.2750   42.8890 N   0  0  0  0  0  0  0  0  0  0  0  0
   40.4250   30.9780   42.7740 C   0  0  0  0  0  0  0  0  0  0  0  0
   39.6820   31.4340   41.7620 N   0  0  0  0  0  0  0  0  0  0  0  0
   43.4140   32.3170   42.0470 H   0  0  0  0  0  0  0  0  0  0  0  0
   39.9170   30.3500   43.5040 H   0  0  0  0  0  0  0  0  0  0  0  0
   38.6180   33.9510   40.0880 C   0  0  1  0  0  3  0  0  0  0  0  0
   39.4630   32.7370   39.6940 C   0  0  2  0  0  3  0  0  0  0  0  0
   38.3880   31.7760   39.2370 C   0  0  0  0  0  3  0  0  0  0  0  0
   38.8130   31.0390   38.5320 H   0  0  0  0  0  0  0  0  0  0  0  0
   37.4910   32.6420   38.6040 O   0  0  0  0  0  0  0  0  0  0  0  0
   37.2380   33.6090   39.5740 C   0  0  0  0  0  3  0  0  0  0  0  0
   36.7010   34.4800   39.1450 H   0  0  0  0  0  0  0  0  0  0  0  0
   38.6390   34.1580   41.4650 O   0  0  0  0  0  0  0  0  0  0  0  0
   37.9390   33.5610   41.8410 H   0  0  0  0  0  0  0  0  0  0  0  0
   42.3670   33.6010   39.6490 S   0  0  0  0  0  0  0  0  0  0  0  0
   42.9110   34.7710   40.2120 H   0  0  0  0  0  0  0  0  0  0  0  0
  1  2  2  0  0  0  0
  1  6  1  0  0  0  0
  2  3  1  0  0  0  0
  3  7  1  0  0  0  0
  3  4  2  0  0  0  0
  5  4  1  0  0  0  0
  5  8  1  0  0  0  0
  6  5  2  0  0  0  0
  9 16  1  1  0  0  0
 10  9  1  0  0  0  0
 10  1  1  1  0  0  0
 11 10  1  0  0  0  0
 12 11  1  0  0  0  0
 13 11  1  0  0  0  0
 13 14  1  0  0  0  0
 14  9  1  0  0  0  0
 15 14  1  0  0  0  0
 16 17  1  0  0  0  0
 18 19  1  0  0  0  0
 18  2  1  0  0  0  0
M  END
>  <minimizedAffinity>
-3.69036984

$$$$

 OpenBabel03252507403D

 19 20  0  0  1  0  0  0  0  0999 V2000
   38.0770   26.6280   41.7030 C   0  0  0  0  0  0  0  0  0  0  0  0
   38.7660   25.7050   42.5130 C   0  0  0  0  0  0  0  0  0  0  0  0
   38.4620   24.3390   42.4000 C   0  0  0  0  0  0  0  0  0  0  0  0
   37.4920   23.9870   41.4860 N   0  0  0  0  0  0  0  0  0  0  0  0
   36.8640   24.8980   40.7360 C   0  0  0  0  0  0  0  0  0  0  0  0
   37.1380   26.2020   40.8300 N   0  0  0  0  0  0  0  0  0  0  0  0
   38.9760   23.6210   43.0080 H   0  0  0  0  0  0  0  0  0  0  0  0
   36.0980   24.6140   40.0160 H   0  0  0  0  0  0  0  0  0  0  0  0
   37.3210   28.8270   42.5830 C   0  0  1  0  0  3  0  0  0  0  0  0
   38.4050   28.0490   41.8320 C   0  0  2  0  0  3  0  0  0  0  0  0
   38.4080   28.7730   40.5040 C   0  0  0  0  0  3  0  0  0  0  0  0
   39.3870   28.6470   40.0070 H   0  0  0  0  0  0  0  0  0  0  0  0
   38.1970   30.0950   40.9060 O   0  0  0  0  0  0  0  0  0  0  0  0
   37.0470   30.0130   41.6880 C   0  0  0  0  0  3  0  0  0  0  0  0
   36.8730   30.9550   42.2490 H   0  0  0  0  0  0  0  0  0  0  0  0
   36.1900   28.0440   42.7940 O   0  0  0  0  0  0  0  0  0  0  0  0
   35.6490   28.1150   41.9620 H   0  0  0  0  0  0  0  0  0  0  0  0
   40.0140   26.2600   43.6750 S   0  0  0  0  0  0  0  0  0  0  0  0
   39.6910   25.8960   44.9950 H   0  0  0  0  0  0  0  0  0  0  0  0
  1  2  1  0  0  0  0
  2 18  1  0  0  0  0
  3  2  2  0  0  0  0
  3  7  1  0  0  0  0
  4  3  1  0  0  0  0
  5  6  1  0  0  0  0
  5  4  2  0  0  0  0
  6  1  2  0  0  0  0
  8  5  1  0  0  0  0
  9 16  1  6  0  0  0
 10  1  1  6  0  0  0
 10  9  1  0  0  0  0
 11 13  1  0  0  0  0
 11 10  1  0  0  0  0
 12 11  1  0  0  0  0
 13 14  1  0  0  0  0
 14 15  1  0  0  0  0
 14  9  1  0  0  0  0
 17 16  1  0  0  0  0
 18 19  1  0  0  0  0
M  END
>  <minimizedAffinity>
-3.68554783

$$$$

 OpenBabel03252507403D

 19 20  0  0  1  0  0  0  0  0999 V2000
   39.4210   31.7200   39.1520 C   0  0  0  0  0  0  0  0  0  0  0  0
   38.6160   32.6210   39.8760 C   0  0  0  0  0  0  0  0  0  0  0  0
   37.2700   32.2990   40.1070 C   0  0  0  0  0  0  0  0  0  0  0  0
   36.8180   31.0990   39.6020 N   0  0  0  0  0  0  0  0  0  0  0  0
   37.6170   30.2730   38.9200 C   0  0  0  0  0  0  0  0  0  0  0  0
   38.9010   30.5620   38.6890 N   0  0  0  0  0  0  0  0  0  0  0  0
   36.6420   32.9720   40.6570 H   0  0  0  0  0  0  0  0  0  0  0  0
   37.2540   29.3270   38.5230 H   0  0  0  0  0  0  0  0  0  0  0  0
   41.0650   32.5670   37.4910 C   0  0  1  0  0  3  0  0  0  0  0  0
   40.8240   32.0700   38.9190 C   0  0  2  0  0  3  0  0  0  0  0  0
   41.7420   30.8690   38.9630 C   0  0  0  0  0  3  0  0  0  0  0  0
   42.0270   30.6480   40.0070 H   0  0  0  0  0  0  0  0  0  0  0  0
   42.8310   31.3240   38.2130 O   0  0  0  0  0  0  0  0  0  0  0  0
   42.2470   31.7500   37.0230 C   0  0  0  0  0  3  0  0  0  0  0  0
   42.9650   32.3290   36.4070 H   0  0  0  0  0  0  0  0  0  0  0  0
   39.9400   32.3840   36.6930 O   0  0  0  0  0  0  0  0  0  0  0  0
   39.9870   31.4480   36.3640 H   0  0  0  0  0  0  0  0  0  0  0  0
   39.2970   34.1610   40.4950 S   0  0  0  0  0  0  0  0  0  0  0  0
   38.6110   35.2750   39.9790 H   0  0  0  0  0  0  0  0  0  0  0  0
  1  2  1  0  0  0  0
  2  3  2  0  0  0  0
  2 18  1  0  0  0  0
  3  7  1  0  0  0  0
  4  3  1  0  0  0  0
  5  4  2  0  0  0  0
  6  5  1  0  0  0  0
  6  1  2  0  0  0  0
  8  5  1  0  0  0  0
  9 16  1  6  0  0  0
  9 10  1  0  0  0  0
 10 11  1  0  0  0  0
 10  1  1  6  0  0  0
 11 12  1  0  0  0  0
 13 11  1  0  0  0  0
 14  9  1  0  0  0  0
 14 13  1  0  0  0  0
 15 14  1  0  0  0  0
 17 16  1  0  0  0  0
 19 18  1  0  0  0  0
M  END
>  <minimizedAffinity>
-3.68157959

$$$$

 OpenBabel03252507403D

 19 20  0  0  1  0  0  0  0  0999 V2000
   37.3820   28.0760   40.9350 C   0  0  0  0  0  0  0  0  0  0  0  0
   37.5120   27.1250   41.9650 C   0  0  0  0  0  0  0  0  0  0  0  0
   37.1930   25.7840   41.6980 C   0  0  0  0  0  0  0  0  0  0  0  0
   36.7650   25.4840   40.4230 N   0  0  0  0  0  0  0  0  0  0  0  0
   36.6570   26.4200   39.4760 C   0  0  0  0  0  0  0  0  0  0  0  0
   36.9550   27.7010   39.7090 N   0  0  0  0  0  0  0  0  0  0  0  0
   37.2860   25.0450   42.4700 H   0  0  0  0  0  0  0  0  0  0  0  0
   36.3180   26.1770   38.4700 H   0  0  0  0  0  0  0  0  0  0  0  0
   36.4740   30.3540   41.3490 C   0  0  1  0  0  3  0  0  0  0  0  0
   37.7190   29.4710   41.2270 C   0  0  2  0  0  3  0  0  0  0  0  0
   38.4420   30.1510   40.0860 C   0  0  0  0  0  3  0  0  0  0  0  0
   39.5230   29.9340   40.1400 H   0  0  0  0  0  0  0  0  0  0  0  0
   38.1690   31.4970   40.3460 O   0  0  0  0  0  0  0  0  0  0  0  0
   36.7800   31.5300   40.4510 C   0  0  0  0  0  3  0  0  0  0  0  0
   36.4300   32.4990   40.8620 H   0  0  0  0  0  0  0  0  0  0  0  0
   35.3270   29.6680   40.9590 O   0  0  0  0  0  0  0  0  0  0  0  0
   35.2790   29.7550   39.9700 H   0  0  0  0  0  0  0  0  0  0  0  0
   38.0780   27.6130   43.5950 S   0  0  0  0  0  0  0  0  0  0  0  0
   37.1250   27.3110   44.5860 H   0  0  0  0  0  0  0  0  0  0  0  0
  1  2  1  0  0  0  0
  2 18  1  0  0  0  0
  3  2  2  0  0  0  0
  3  7  1  0  0  0  0
  4  3  1  0  0  0  0
  5  6  1  0  0  0  0
  5  4  2  0  0  0  0
  6  1  2  0  0  0  0
  8  5  1  0  0  0  0
  9 16  1  6  0  0  0
 10  1  1  6  0  0  0
 10  9  1  0  0  0  0
 11 12  1  0  0  0  0
 11 13  1  0  0  0  0
 11 10  1  0  0  0  0
 13 14  1  0  0  0  0
 14 15  1  0  0  0  0
 14  9  1  0  0  0  0
 17 16  1  0  0  0  0
 18 19  1  0  0  0  0
M  END
>  <minimizedAffinity>
-3.66140962

$$$$

 OpenBabel03252507403D

 19 20  0  0  1  0  0  0  0  0999 V2000
   37.7860   29.8480   40.5120 C   0  0  0  0  0  0  0  0  0  0  0  0
   37.8410   29.6400   39.1210 C   0  0  0  0  0  0  0  0  0  0  0  0
   37.5080   30.6970   38.2600 C   0  0  0  0  0  0  0  0  0  0  0  0
   37.1410   31.8900   38.8450 N   0  0  0  0  0  0  0  0  0  0  0  0
   37.1020   32.0430   40.1720 C   0  0  0  0  0  0  0  0  0  0  0  0
   37.4160   31.0490   41.0080 N   0  0  0  0  0  0  0  0  0  0  0  0
   37.5440   30.5570   37.1970 H   0  0  0  0  0  0  0  0  0  0  0  0
   36.8120   32.9880   40.6280 H   0  0  0  0  0  0  0  0  0  0  0  0
   36.8990   28.0370   41.9670 C   0  0  1  0  0  3  0  0  0  0  0  0
   38.1370   28.7370   41.3990 C   0  0  2  0  0  3  0  0  0  0  0  0
   38.8170   29.1930   42.6700 C   0  0  0  0  0  3  0  0  0  0  0  0
   39.8990   29.3250   42.4940 H   0  0  0  0  0  0  0  0  0  0  0  0
   38.5570   28.1190   43.5260 O   0  0  0  0  0  0  0  0  0  0  0  0
   37.1740   27.9750   43.4520 C   0  0  0  0  0  3  0  0  0  0  0  0
   36.8410   27.0260   43.9200 H   0  0  0  0  0  0  0  0  0  0  0  0
   35.7370   28.7410   41.6670 O   0  0  0  0  0  0  0  0  0  0  0  0
   35.6510   29.4400   42.3700 H   0  0  0  0  0  0  0  0  0  0  0  0
   38.3310   28.0490   38.4530 S   0  0  0  0  0  0  0  0  0  0  0  0
   37.3210   27.4930   37.6460 H   0  0  0  0  0  0  0  0  0  0  0  0
  1  6  1  0  0  0  0
  2  1  2  0  0  0  0
  3  4  2  0  0  0  0
  3  2  1  0  0  0  0
  4  5  1  0  0  0  0
  5  8  1  0  0  0  0
  5  6  2  0  0  0  0
  7  3  1  0  0  0  0
  9 16  1  1  0  0  0
  9 14  1  0  0  0  0
 10  1  1  6  0  0  0
 10  9  1  0  0  0  0
 10 11  1  0  0  0  0
 11 13  1  0  0  0  0
 12 11  1  0  0  0  0
 14 13  1  0  0  0  0
 14 15  1  0  0  0  0
 16 17  1  0  0  0  0
 18  2  1  0  0  0  0
 19 18  1  0  0  0  0
M  END
>  <minimizedAffinity>
-3.63520646

$$$$
