
 OpenBabel03242518583D

 25 27  0  0  1  0  0  0  0  0999 V2000
   44.4800   34.9550   43.4860 C   0  0  1  0  0  0  0  0  0  0  0  0
   45.1500   36.2830   43.0420 C   0  0  0  0  0  0  0  0  0  0  0  0
   44.7150   35.2380   42.0860 C   0  0  2  0  0  0  0  0  0  0  0  0
   43.4530   35.0740   43.9070 H   0  0  0  0  0  0  0  0  0  0  0  0
   46.2250   36.4120   43.2670 H   0  0  0  0  0  0  0  0  0  0  0  0
   44.5250   37.1760   43.2400 H   0  0  0  0  0  0  0  0  0  0  0  0
   45.5720   34.7690   41.5210 H   0  0  0  0  0  0  0  0  0  0  0  0
   45.3680   34.1070   44.3150 C   0  0  0  0  0  0  0  0  0  0  0  0
   46.3210   33.3110   43.6460 C   0  0  0  0  0  0  0  0  0  0  0  0
   47.1800   32.4960   44.4090 C   0  0  0  0  0  0  0  0  0  0  0  0
   47.0290   32.5360   45.7800 N   0  0  0  0  0  0  0  0  0  0  0  0
   46.0940   33.3240   46.3690 C   0  0  0  0  0  0  0  0  0  0  0  0
   45.2690   34.1050   45.6420 N   0  0  0  0  0  0  0  0  0  0  0  0
   46.4320   33.2870   42.5780 H   0  0  0  0  0  0  0  0  0  0  0  0
   47.9360   31.8580   43.9750 H   0  0  0  0  0  0  0  0  0  0  0  0
   46.0660   33.2730   47.4620 H   0  0  0  0  0  0  0  0  0  0  0  0
   43.5040   34.6380   40.0310 C   0  0  2  0  0  0  0  0  0  0  0  0
   43.5520   35.5900   41.2030 C   0  0  1  0  0  0  0  0  0  0  0  0
   42.2260   35.3440   41.8860 C   0  0  0  0  0  0  0  0  0  0  0  0
   41.5620   36.2280   41.7650 H   0  0  0  0  0  0  0  0  0  0  0  0
   41.6420   34.2400   41.3140 O   0  0  0  0  0  0  0  0  0  0  0  0
   42.0700   34.1740   39.9950 C   0  0  0  0  0  0  0  0  0  0  0  0
   42.0060   33.0830   39.7240 H   0  0  0  0  0  0  0  0  0  0  0  0
   44.3020   33.5250   40.2360 O   0  0  0  0  0  0  0  0  0  0  0  0
   43.8180   32.8380   40.7480 H   0  0  0  0  0  0  0  0  0  0  0  0
  1  4  1  1  0  0  0
  1  8  1  0  0  0  0
  2  6  1  0  0  0  0
  2  5  1  0  0  0  0
  2  1  1  0  0  0  0
  3  7  1  6  0  0  0
  3  2  1  0  0  0  0
  3  1  1  0  0  0  0
  8 13  1  0  0  0  0
  9  8  2  0  0  0  0
  9 10  1  0  0  0  0
 10 11  2  0  0  0  0
 11 12  1  0  0  0  0
 12 16  1  0  0  0  0
 13 12  2  0  0  0  0
 14  9  1  0  0  0  0
 15 10  1  0  0  0  0
 17 24  1  1  0  0  0
 17 18  1  0  0  0  0
 18 19  1  1  0  0  0
 18  3  1  0  0  0  0
 20 19  1  0  0  0  0
 21 19  1  0  0  0  0
 22 17  1  0  0  0  0
 22 21  1  0  0  0  0
 23 22  1  0  0  0  0
 24 25  1  0  0  0  0
M  END
>  <minimizedAffinity>
-4.11067057

>  <minimizedRMSD>
1.18212259

$$$$
