
 OpenBabel03242523233D

 43 46  0  0  1  0  0  0  0  0999 V2000
   47.1900   32.7120   44.3550 C   0  0  0  0  0  0  0  0  0  0  0  0
   47.9770   32.9710   43.3160 C   0  0  0  0  0  0  0  0  0  0  0  0
   48.7740   31.9160   42.9230 C   0  0  0  0  0  0  0  0  0  0  0  0
   48.6810   30.7110   43.6360 N   0  0  0  0  0  0  0  0  0  0  0  0
   47.8890   30.5220   44.6510 C   0  0  0  0  0  0  0  0  0  0  0  0
   47.0740   31.5530   45.0750 N   0  0  0  0  0  0  0  0  0  0  0  0
   49.4930   31.8650   42.1190 H   0  0  0  0  0  0  0  0  0  0  0  0
   47.9170   29.5330   45.1190 H   0  0  0  0  0  0  0  0  0  0  0  0
   48.1600   34.2110   42.6600 C   0  0  1  0  0  0  0  0  0  0  0  0
   49.0700   34.5500   41.7070 C   0  0  0  0  0  0  0  0  0  0  0  0
   47.6750   34.3790   41.1910 C   0  0  1  0  0  0  0  0  0  0  0  0
   47.8960   35.0760   43.3290 H   0  0  0  0  0  0  0  0  0  0  0  0
   49.8420   33.7880   41.3860 H   0  0  0  0  0  0  0  0  0  0  0  0
   49.4910   35.5540   41.4800 H   0  0  0  0  0  0  0  0  0  0  0  0
   47.0610   35.2900   41.0290 H   0  0  0  0  0  0  0  0  0  0  0  0
   46.3170   33.3630   39.3080 C   0  0  1  0  0  3  0  0  0  0  0  0
   47.4490   33.2650   40.2790 C   0  0  1  0  0  3  0  0  0  0  0  0
   48.6480   33.1890   39.3620 C   0  0  0  0  0  3  0  0  0  0  0  0
   49.5430   33.6080   39.8670 H   0  0  0  0  0  0  0  0  0  0  0  0
   48.3010   34.0030   38.3070 O   0  0  0  0  0  0  0  0  0  0  0  0
   46.9770   33.6750   38.0040 C   0  0  0  0  0  3  0  0  0  0  0  0
   46.4500   34.5170   37.5280 H   0  0  0  0  0  0  0  0  0  0  0  0
   45.7500   32.0780   39.1800 O   0  0  0  0  0  0  0  0  0  0  0  0
   45.9760   31.6420   38.3300 H   0  0  0  0  0  0  0  0  0  0  0  0
   46.1860   33.6240   44.9450 C   0  0  0  0  0  0  0  0  0  0  0  0
   45.6420   34.1840   45.8520 O   0  0  0  0  0  0  0  0  0  0  0  0
   44.4660   31.7280   43.2190 Cl  0  0  0  0  0  0  0  0  0  0  0  0
   44.5320   33.4620   42.9420 C   0  0  0  0  0  0  0  0  0  0  0  0
   45.3600   34.1930   43.8330 C   0  0  0  0  0  0  0  0  0  0  0  0
   45.3220   35.5320   43.5190 C   0  0  0  0  0  0  0  0  0  0  0  0
   44.6720   36.1860   42.5680 C   0  0  0  0  0  0  0  0  0  0  0  0
   43.8900   35.4090   41.7400 C   0  0  0  0  0  0  0  0  0  0  0  0
   43.8140   34.0600   41.9200 C   0  0  0  0  0  0  0  0  0  0  0  0
   45.9050   36.2300   44.1660 H   0  0  0  0  0  0  0  0  0  0  0  0
   44.7080   37.2610   42.3950 H   0  0  0  0  0  0  0  0  0  0  0  0
   43.3310   35.9180   40.9330 H   0  0  0  0  0  0  0  0  0  0  0  0
   43.0010   33.4020   41.0350 O   0  0  0  0  0  0  0  0  0  0  0  0
   40.8150   32.6410   39.8020 O   0  0  0  0  0  0  0  0  0  0  0  0
   41.3570   33.0060   41.1620 P   0  0  0  0  0  0  0  0  0  0  0  0
   41.1700   31.7280   42.2600 O   0  0  0  0  0  0  0  0  0  0  0  0
   41.2460   32.0460   43.1780 H   0  0  0  0  0  0  0  0  0  0  0  0
   40.4600   34.2910   41.8070 O   0  0  0  0  0  0  0  0  0  0  0  0
   39.5800   33.9410   42.1040 H   0  0  0  0  0  0  0  0  0  0  0  0
  1 25  1  0  0  0  0
  1  6  1  0  0  0  0
  2  1  2  0  0  0  0
  3  2  1  0  0  0  0
  3  4  2  0  0  0  0
  4  5  1  0  0  0  0
  5  6  2  0  0  0  0
  5  8  1  0  0  0  0
  7  3  1  0  0  0  0
  9  2  1  0  0  0  0
  9 12  1  1  0  0  0
 10  9  1  0  0  0  0
 11 15  1  6  0  0  0
 11 10  1  0  0  0  0
 11  9  1  0  0  0  0
 13 10  1  0  0  0  0
 14 10  1  0  0  0  0
 16 23  1  6  0  0  0
 16 17  1  0  0  0  0
 17 18  1  6  0  0  0
 17 11  1  0  0  0  0
 18 19  1  0  0  0  0
 20 18  1  0  0  0  0
 21 20  1  0  0  0  0
 21 16  1  0  0  0  0
 22 21  1  0  0  0  0
 24 23  1  0  0  0  0
 25 26  2  0  0  0  0
 28 27  1  0  0  0  0
 28 29  1  0  0  0  0
 29 25  1  0  0  0  0
 30 29  2  0  0  0  0
 30 34  1  0  0  0  0
 31 30  1  0  0  0  0
 32 33  1  0  0  0  0
 32 31  2  0  0  0  0
 33 28  2  0  0  0  0
 35 31  1  0  0  0  0
 36 32  1  0  0  0  0
 37 39  1  0  0  0  0
 37 33  1  0  0  0  0
 38 39  2  0  0  0  0
 39 42  1  0  0  0  0
 39 40  1  0  0  0  0
 40 41  1  0  0  0  0
 42 43  1  0  0  0  0
M  END
>  <minimizedAffinity>
-5.69502068

>  <minimizedRMSD>
0.871648729

$$$$
