
 OpenBabel03242521453D

 47 50  0  0  1  0  0  0  0  0999 V2000
   45.0600   36.5260   42.7580 C   0  0  0  0  0  0  0  0  0  0  0  0
   44.1260   36.1960   42.2700 H   0  0  0  0  0  0  0  0  0  0  0  0
   45.8660   36.7740   42.0520 H   0  0  0  0  0  0  0  0  0  0  0  0
   45.5440   35.3990   43.6450 C   0  0  0  0  0  0  0  0  0  0  0  0
   46.6310   34.6310   43.2070 C   0  0  0  0  0  0  0  0  0  0  0  0
   47.1020   33.5840   44.0200 C   0  0  0  0  0  0  0  0  0  0  0  0
   46.4860   33.3770   45.1690 N   0  0  0  0  0  0  0  0  0  0  0  0
   45.4360   34.1270   45.5800 C   0  0  0  0  0  0  0  0  0  0  0  0
   44.9630   35.1380   44.8210 N   0  0  0  0  0  0  0  0  0  0  0  0
   47.0420   34.8990   42.2560 H   0  0  0  0  0  0  0  0  0  0  0  0
   44.9620   33.9130   46.5410 H   0  0  0  0  0  0  0  0  0  0  0  0
   49.1770   33.5910   42.6480 C   0  0  2  0  0  0  0  0  0  0  0  0
   48.2310   32.8390   43.4880 C   0  0  2  0  0  0  0  0  0  0  0  0
   47.8550   31.7630   42.6070 O   0  0  0  0  0  0  0  0  0  0  0  0
   49.1170   31.2980   42.2450 C   0  0  0  0  0  0  0  0  0  0  0  0
   50.0960   32.4180   42.2380 C   0  0  1  0  0  0  0  0  0  0  0  0
   48.7260   33.9270   41.6860 H   0  0  0  0  0  0  0  0  0  0  0  0
   48.7810   32.3050   44.3090 H   0  0  0  0  0  0  0  0  0  0  0  0
   49.0950   30.7530   41.2980 H   0  0  0  0  0  0  0  0  0  0  0  0
   49.4480   30.5580   43.0220 H   0  0  0  0  0  0  0  0  0  0  0  0
   50.8670   32.3660   43.0420 H   0  0  0  0  0  0  0  0  0  0  0  0
   49.8200   34.6190   43.2430 O   0  0  0  0  0  0  0  0  0  0  0  0
   49.4830   35.4940   42.9190 H   0  0  0  0  0  0  0  0  0  0  0  0
   50.6460   32.6990   40.9820 O   0  0  0  0  0  0  0  0  0  0  0  0
   51.6100   32.5750   41.0790 H   0  0  0  0  0  0  0  0  0  0  0  0
   45.5640   38.8140   43.8510 C   0  0  0  0  0  0  0  0  0  0  0  0
   46.6000   38.9160   43.1180 O   0  0  0  0  0  0  0  0  0  0  0  0
   44.7820   37.6480   43.6400 N   0  0  0  0  0  0  0  0  0  0  0  0
   43.8820   37.5920   44.2000 H   0  0  0  0  0  0  0  0  0  0  0  0
   45.1750   39.8020   44.8440 C   0  0  0  0  0  0  0  0  0  0  0  0
   45.1270   39.4580   46.1550 C   0  0  0  0  0  0  0  0  0  0  0  0
   44.7470   40.4580   47.0450 C   0  0  0  0  0  0  0  0  0  0  0  0
   44.4220   41.7560   46.6650 C   0  0  0  0  0  0  0  0  0  0  0  0
   44.4940   42.0180   45.3320 C   0  0  0  0  0  0  0  0  0  0  0  0
   44.8580   41.0670   44.4730 N   0  0  0  0  0  0  0  0  0  0  0  0
   45.3670   38.4640   46.5350 H   0  0  0  0  0  0  0  0  0  0  0  0
   44.6900   40.2390   48.1200 H   0  0  0  0  0  0  0  0  0  0  0  0
   44.1310   42.4970   47.3980 H   0  0  0  0  0  0  0  0  0  0  0  0
   43.4610   44.1590   45.8830 C   0  0  1  0  0  3  0  0  0  0  0  0
   44.1660   43.3850   44.7940 C   0  0  1  0  0  3  0  0  0  0  0  0
   45.3960   44.1960   44.5620 C   0  0  0  0  0  3  0  0  0  0  0  0
   46.2270   43.5720   44.1660 H   0  0  0  0  0  0  0  0  0  0  0  0
   45.7040   44.8410   45.7510 O   0  0  0  0  0  0  0  0  0  0  0  0
   44.5420   45.0000   46.4600 C   0  0  0  0  0  3  0  0  0  0  0  0
   44.6470   44.7840   47.5560 H   0  0  0  0  0  0  0  0  0  0  0  0
   42.4970   44.9890   45.2980 O   0  0  0  0  0  0  0  0  0  0  0  0
   42.8510   45.9160   45.1780 H   0  0  0  0  0  0  0  0  0  0  0  0
  1 28  1  0  0  0  0
  1  4  1  0  0  0  0
  2  1  1  0  0  0  0
  3  1  1  0  0  0  0
  4  9  1  0  0  0  0
  5  4  2  0  0  0  0
  5  6  1  0  0  0  0
  6  7  2  0  0  0  0
  7  8  1  0  0  0  0
  8 11  1  0  0  0  0
  9  8  2  0  0  0  0
 10  5  1  0  0  0  0
 12 17  1  6  0  0  0
 12 22  1  0  0  0  0
 12 13  1  0  0  0  0
 13  6  1  0  0  0  0
 13 18  1  1  0  0  0
 14 13  1  0  0  0  0
 15 14  1  0  0  0  0
 15 20  1  0  0  0  0
 16 15  1  0  0  0  0
 16 12  1  0  0  0  0
 16 21  1  1  0  0  0
 19 15  1  0  0  0  0
 23 22  1  0  0  0  0
 24 25  1  0  0  0  0
 24 16  1  0  0  0  0
 26 30  1  0  0  0  0
 27 26  2  0  0  0  0
 28 26  1  0  0  0  0
 28 29  1  0  0  0  0
 30 31  1  0  0  0  0
 31 36  1  0  0  0  0
 31 32  2  0  0  0  0
 32 37  1  0  0  0  0
 33 32  1  0  0  0  0
 33 38  1  0  0  0  0
 34 33  2  0  0  0  0
 35 30  2  0  0  0  0
 35 34  1  0  0  0  0
 39 46  1  6  0  0  0
 39 44  1  0  0  0  0
 40 34  1  1  0  0  0
 40 39  1  0  0  0  0
 41 40  1  0  0  0  0
 41 43  1  0  0  0  0
 42 41  1  0  0  0  0
 43 44  1  0  0  0  0
 44 45  1  0  0  0  0
 47 46  1  0  0  0  0
M  END
>  <minimizedAffinity>
-1.17175102

>  <minimizedRMSD>
0.482423812

$$$$
