
 OpenBabel03252507573D

 27 29  0  0  1  0  0  0  0  0999 V2000
   46.6920   32.4840   45.8920 C   0  0  1  0  0  0  0  0  0  0  0  0
   47.0720   32.8100   47.3000 C   0  0  0  0  0  0  0  0  0  0  0  0
   45.7150   32.2900   47.0120 C   0  0  2  0  0  0  0  0  0  0  0  0
   47.2200   31.6790   45.3770 H   0  0  0  0  0  0  0  0  0  0  0  0
   47.2030   33.8830   47.5730 H   0  0  0  0  0  0  0  0  0  0  0  0
   47.8930   32.1920   47.7080 H   0  0  0  0  0  0  0  0  0  0  0  0
   44.8930   33.0550   47.1400 H   0  0  0  0  0  0  0  0  0  0  0  0
   46.7000   34.7270   42.9870 C   0  0  0  0  0  0  0  0  0  0  0  0
   45.6010   35.5650   43.2220 C   0  0  0  0  0  0  0  0  0  0  0  0
   44.8420   35.3530   44.4010 C   0  0  0  0  0  0  0  0  0  0  0  0
   45.2290   34.3470   45.2310 N   0  0  0  0  0  0  0  0  0  0  0  0
   46.3090   33.5720   44.9380 C   0  0  0  0  0  0  0  0  0  0  0  0
   47.0450   33.7390   43.8460 N   0  0  0  0  0  0  0  0  0  0  0  0
   45.3050   36.3610   42.5530 H   0  0  0  0  0  0  0  0  0  0  0  0
   43.9850   35.9650   44.6370 H   0  0  0  0  0  0  0  0  0  0  0  0
   47.4040   35.0190   41.7820 C   0  0  0  0  0  0  0  0  0  0  0  0
   48.4790   35.6870   41.6970 O   0  0  0  0  0  0  0  0  0  0  0  0
   46.9900   34.6410   40.8490 H   0  0  0  0  0  0  0  0  0  0  0  0
   45.9850   30.2380   48.4660 C   0  0  2  0  0  3  0  0  0  0  0  0
   45.2570   30.9150   47.3590 C   0  0  2  0  0  3  0  0  0  0  0  0
   45.4780   29.9540   46.2100 C   0  0  0  0  0  3  0  0  0  0  0  0
   44.7740   29.1190   46.2210 H   0  0  0  0  0  0  0  0  0  0  0  0
   46.8060   29.5670   46.3880 O   0  0  0  0  0  0  0  0  0  0  0  0
   47.0500   29.4540   47.7380 C   0  0  0  0  0  3  0  0  0  0  0  0
   46.9640   28.3660   47.9880 H   0  0  0  0  0  0  0  0  0  0  0  0
   45.1490   29.3310   49.1560 O   0  0  0  0  0  0  0  0  0  0  0  0
   44.4460   28.9560   48.5970 H   0  0  0  0  0  0  0  0  0  0  0  0
  1  4  1  6  0  0  0
  1  3  1  0  0  0  0
  1  2  1  0  0  0  0
  2  5  1  0  0  0  0
  2  6  1  0  0  0  0
  3  7  1  1  0  0  0
  3  2  1  0  0  0  0
  3 20  1  0  0  0  0
  8  9  2  0  0  0  0
  8 13  1  0  0  0  0
  9 10  1  0  0  0  0
 10 15  1  0  0  0  0
 10 11  2  0  0  0  0
 12 11  1  0  0  0  0
 12  1  1  0  0  0  0
 13 12  2  0  0  0  0
 14  9  1  0  0  0  0
 16  8  1  0  0  0  0
 17 16  2  0  0  0  0
 18 16  1  0  0  0  0
 19 26  1  6  0  0  0
 20 21  1  6  0  0  0
 20 19  1  0  0  0  0
 21 22  1  0  0  0  0
 21 23  1  0  0  0  0
 23 24  1  0  0  0  0
 24 25  1  0  0  0  0
 24 19  1  0  0  0  0
 27 26  1  0  0  0  0
M  END
>  <minimizedAffinity>
-4.75862503

>  <minimizedRMSD>
0.945123196

$$$$
