
 OpenBabel03252505373D

 33 35  0  0  1  0  0  0  0  0999 V2000
   39.0990   30.8250   41.7110 C   0  0  0  0  0  0  0  0  0  0  0  0
   38.1280   30.0360   41.0280 C   0  0  0  0  0  0  0  0  0  0  0  0
   37.2670   30.6840   40.1690 C   0  0  0  0  0  0  0  0  0  0  0  0
   37.3820   32.0340   40.0160 N   0  0  0  0  0  0  0  0  0  0  0  0
   38.3230   32.7440   40.6900 C   0  0  0  0  0  0  0  0  0  0  0  0
   39.1780   32.1520   41.5310 N   0  0  0  0  0  0  0  0  0  0  0  0
   38.4060   34.1610   40.5360 N   0  0  0  0  0  0  0  0  0  0  0  0
   39.8210   30.4170   42.4030 H   0  0  0  0  0  0  0  0  0  0  0  0
   38.9340   34.6970   39.8040 H   0  0  0  0  0  0  0  0  0  0  0  0
   37.8190   34.5270   41.3220 H   0  0  0  0  0  0  0  0  0  0  0  0
   36.2520   30.0150   39.4130 C   0  0  0  0  0  0  0  0  0  0  0  0
   35.0640   29.7010   40.0620 C   0  0  0  0  0  0  0  0  0  0  0  0
   34.0120   29.0460   39.4030 C   0  0  0  0  0  0  0  0  0  0  0  0
   34.1500   28.7010   38.0880 C   0  0  0  0  0  0  0  0  0  0  0  0
   35.3110   29.0090   37.4560 C   0  0  0  0  0  0  0  0  0  0  0  0
   36.3590   29.6560   38.0930 C   0  0  0  0  0  0  0  0  0  0  0  0
   34.9310   29.9640   41.1050 H   0  0  0  0  0  0  0  0  0  0  0  0
   33.1120   28.8400   40.0010 H   0  0  0  0  0  0  0  0  0  0  0  0
   33.2980   28.1980   37.6440 H   0  0  0  0  0  0  0  0  0  0  0  0
   35.3880   28.7200   36.4040 H   0  0  0  0  0  0  0  0  0  0  0  0
   37.6160   29.9900   37.3760 C   0  0  0  0  0  0  0  0  0  0  0  0
   37.6150   31.3590   37.1230 F   0  0  0  0  0  0  0  0  0  0  0  0
   37.6660   29.2880   36.1890 F   0  0  0  0  0  0  0  0  0  0  0  0
   38.7600   29.6650   38.0640 F   0  0  0  0  0  0  0  0  0  0  0  0
   36.9990   28.2910   42.3830 C   0  0  1  0  0  3  0  0  0  0  0  0
   38.0750   28.6210   41.3530 C   0  0  2  0  0  3  0  0  0  0  0  0
   39.2880   28.0450   42.0160 C   0  0  0  0  0  3  0  0  0  0  0  0
   39.5990   28.5640   42.9400 H   0  0  0  0  0  0  0  0  0  0  0  0
   38.8160   26.8000   42.4120 O   0  0  0  0  0  0  0  0  0  0  0  0
   37.5250   26.9510   42.8630 C   0  0  0  0  0  3  0  0  0  0  0  0
   37.3950   26.7850   43.9430 H   0  0  0  0  0  0  0  0  0  0  0  0
   36.9940   29.1850   43.4370 O   0  0  0  0  0  0  0  0  0  0  0  0
   36.0750   29.5780   43.5350 H   0  0  0  0  0  0  0  0  0  0  0  0
  1  8  1  0  0  0  0
  2  1  2  0  0  0  0
  3  2  1  0  0  0  0
  4  3  2  0  0  0  0
  4  5  1  0  0  0  0
  5  6  2  0  0  0  0
  6  1  1  0  0  0  0
  7  5  1  0  0  0  0
  7 10  1  0  0  0  0
  9  7  1  0  0  0  0
 11 12  1  0  0  0  0
 11  3  1  0  0  0  0
 12 17  1  0  0  0  0
 13 18  1  0  0  0  0
 13 12  2  0  0  0  0
 14 13  1  0  0  0  0
 15 14  2  0  0  0  0
 15 16  1  0  0  0  0
 16 11  2  0  0  0  0
 19 14  1  0  0  0  0
 20 15  1  0  0  0  0
 21 24  1  0  0  0  0
 21 16  1  0  0  0  0
 22 21  1  0  0  0  0
 23 21  1  0  0  0  0
 25 30  1  0  0  0  0
 25 32  1  1  0  0  0
 26  2  1  1  0  0  0
 26 27  1  0  0  0  0
 26 25  1  0  0  0  0
 27 29  1  0  0  0  0
 27 28  1  0  0  0  0
 29 30  1  0  0  0  0
 30 31  1  0  0  0  0
 32 33  1  0  0  0  0
M  END
>  <minimizedAffinity>
-6.13553953

$$$$

 OpenBabel03252505373D

 33 35  0  0  1  0  0  0  0  0999 V2000
   37.7650   30.8990   37.7810 C   0  0  0  0  0  0  0  0  0  0  0  0
   38.2830   29.9630   38.7230 C   0  0  0  0  0  0  0  0  0  0  0  0
   38.3360   30.3500   40.0450 C   0  0  0  0  0  0  0  0  0  0  0  0
   37.8990   31.5950   40.3850 N   0  0  0  0  0  0  0  0  0  0  0  0
   37.4150   32.4530   39.4510 C   0  0  0  0  0  0  0  0  0  0  0  0
   37.3440   32.1150   38.1590 N   0  0  0  0  0  0  0  0  0  0  0  0
   36.9900   33.7640   39.8260 N   0  0  0  0  0  0  0  0  0  0  0  0
   37.6770   30.6960   36.7240 H   0  0  0  0  0  0  0  0  0  0  0  0
   36.0430   34.0560   40.1740 H   0  0  0  0  0  0  0  0  0  0  0  0
   37.8410   34.3510   39.6710 H   0  0  0  0  0  0  0  0  0  0  0  0
   38.8230   29.5070   41.0960 C   0  0  0  0  0  0  0  0  0  0  0  0
   40.1700   29.5990   41.4260 C   0  0  0  0  0  0  0  0  0  0  0  0
   40.7370   28.8140   42.4420 C   0  0  0  0  0  0  0  0  0  0  0  0
   39.9540   27.9320   43.1310 C   0  0  0  0  0  0  0  0  0  0  0  0
   38.6380   27.8440   42.8060 C   0  0  0  0  0  0  0  0  0  0  0  0
   38.0630   28.6130   41.8050 C   0  0  0  0  0  0  0  0  0  0  0  0
   40.8120   30.2920   40.8950 H   0  0  0  0  0  0  0  0  0  0  0  0
   41.8120   28.9580   42.6310 H   0  0  0  0  0  0  0  0  0  0  0  0
   40.4590   27.3590   43.9000 H   0  0  0  0  0  0  0  0  0  0  0  0
   38.0400   27.1290   43.3770 H   0  0  0  0  0  0  0  0  0  0  0  0
   36.6200   28.5040   41.4760 C   0  0  0  0  0  0  0  0  0  0  0  0
   35.9960   27.8040   42.5060 F   0  0  0  0  0  0  0  0  0  0  0  0
   36.4720   27.8240   40.2840 F   0  0  0  0  0  0  0  0  0  0  0  0
   35.9860   29.7110   41.3120 F   0  0  0  0  0  0  0  0  0  0  0  0
   40.2620   28.7660   37.8240 C   0  0  1  0  0  3  0  0  0  0  0  0
   38.7840   28.7040   38.2010 C   0  0  2  0  0  3  0  0  0  0  0  0
   38.1830   28.2320   36.9120 C   0  0  0  0  0  3  0  0  0  0  0  0
   38.2420   28.9580   36.0820 H   0  0  0  0  0  0  0  0  0  0  0  0
   39.0400   27.1910   36.5780 O   0  0  0  0  0  0  0  0  0  0  0  0
   40.3250   27.5720   36.8900 C   0  0  0  0  0  3  0  0  0  0  0  0
   40.9810   27.7240   36.0200 H   0  0  0  0  0  0  0  0  0  0  0  0
   40.5720   29.9150   37.1210 O   0  0  0  0  0  0  0  0  0  0  0  0
   41.3200   30.3970   37.5840 H   0  0  0  0  0  0  0  0  0  0  0  0
  1  6  2  0  0  0  0
  1  2  1  0  0  0  0
  2  3  2  0  0  0  0
  3  4  1  0  0  0  0
  3 11  1  0  0  0  0
  5  7  1  0  0  0  0
  5  4  2  0  0  0  0
  6  5  1  0  0  0  0
  7  9  1  0  0  0  0
  8  1  1  0  0  0  0
 10  7  1  0  0  0  0
 11 12  2  0  0  0  0
 11 16  1  0  0  0  0
 12 13  1  0  0  0  0
 13 18  1  0  0  0  0
 13 14  2  0  0  0  0
 14 19  1  0  0  0  0
 15 14  1  0  0  0  0
 15 20  1  0  0  0  0
 16 15  2  0  0  0  0
 17 12  1  0  0  0  0
 21 16  1  0  0  0  0
 21 22  1  0  0  0  0
 23 21  1  0  0  0  0
 24 21  1  0  0  0  0
 25 32  1  6  0  0  0
 25 26  1  0  0  0  0
 26  2  1  6  0  0  0
 27 26  1  0  0  0  0
 28 27  1  0  0  0  0
 29 30  1  0  0  0  0
 29 27  1  0  0  0  0
 30 25  1  0  0  0  0
 31 30  1  0  0  0  0
 32 33  1  0  0  0  0
M  END
>  <minimizedAffinity>
-5.54173422

$$$$

 OpenBabel03252505373D

 33 35  0  0  1  0  0  0  0  0999 V2000
   37.5560   30.6860   38.0090 C   0  0  0  0  0  0  0  0  0  0  0  0
   37.6530   29.7180   39.0510 C   0  0  0  0  0  0  0  0  0  0  0  0
   37.5090   30.1580   40.3490 C   0  0  0  0  0  0  0  0  0  0  0  0
   37.2850   31.4840   40.5730 N   0  0  0  0  0  0  0  0  0  0  0  0
   37.2040   32.3700   39.5480 C   0  0  0  0  0  0  0  0  0  0  0  0
   37.3350   31.9820   38.2750 N   0  0  0  0  0  0  0  0  0  0  0  0
   36.9990   33.7590   39.8080 N   0  0  0  0  0  0  0  0  0  0  0  0
   37.6520   30.4470   36.9600 H   0  0  0  0  0  0  0  0  0  0  0  0
   36.0850   34.2590   39.9390 H   0  0  0  0  0  0  0  0  0  0  0  0
   37.9690   34.1480   39.8350 H   0  0  0  0  0  0  0  0  0  0  0  0
   37.5720   29.2940   41.4880 C   0  0  0  0  0  0  0  0  0  0  0  0
   36.4910   28.4540   41.7240 C   0  0  0  0  0  0  0  0  0  0  0  0
   36.4640   27.5710   42.8150 C   0  0  0  0  0  0  0  0  0  0  0  0
   37.5230   27.5290   43.6760 C   0  0  0  0  0  0  0  0  0  0  0  0
   38.5790   28.3510   43.4440 C   0  0  0  0  0  0  0  0  0  0  0  0
   38.6210   29.2280   42.3700 C   0  0  0  0  0  0  0  0  0  0  0  0
   35.6380   28.4680   41.0550 H   0  0  0  0  0  0  0  0  0  0  0  0
   35.5630   26.9460   42.9180 H   0  0  0  0  0  0  0  0  0  0  0  0
   37.4330   26.8250   44.4950 H   0  0  0  0  0  0  0  0  0  0  0  0
   39.4100   28.2910   44.1520 H   0  0  0  0  0  0  0  0  0  0  0  0
   39.7920   30.1090   42.1340 C   0  0  0  0  0  0  0  0  0  0  0  0
   40.8560   29.6210   42.8890 F   0  0  0  0  0  0  0  0  0  0  0  0
   39.4830   31.3960   42.5250 F   0  0  0  0  0  0  0  0  0  0  0  0
   40.1800   30.1890   40.8190 F   0  0  0  0  0  0  0  0  0  0  0  0
   39.4740   28.1010   38.5750 C   0  0  1  0  0  3  0  0  0  0  0  0
   37.9720   28.3550   38.6630 C   0  0  2  0  0  3  0  0  0  0  0  0
   37.5340   27.9330   37.2930 C   0  0  0  0  0  3  0  0  0  0  0  0
   37.8920   28.5820   36.4740 H   0  0  0  0  0  0  0  0  0  0  0  0
   38.2050   26.7260   37.1530 O   0  0  0  0  0  0  0  0  0  0  0  0
   39.4620   26.8640   37.6980 C   0  0  0  0  0  3  0  0  0  0  0  0
   40.2830   26.8300   36.9670 H   0  0  0  0  0  0  0  0  0  0  0  0
   40.1380   29.1210   37.9190 O   0  0  0  0  0  0  0  0  0  0  0  0
   40.8710   29.4740   38.5070 H   0  0  0  0  0  0  0  0  0  0  0  0
  1  6  2  0  0  0  0
  1  2  1  0  0  0  0
  2  3  2  0  0  0  0
  3  4  1  0  0  0  0
  3 11  1  0  0  0  0
  5  7  1  0  0  0  0
  5  4  2  0  0  0  0
  6  5  1  0  0  0  0
  7 10  1  0  0  0  0
  7  9  1  0  0  0  0
  8  1  1  0  0  0  0
 11 12  2  0  0  0  0
 11 16  1  0  0  0  0
 12 13  1  0  0  0  0
 13 18  1  0  0  0  0
 13 14  2  0  0  0  0
 14 19  1  0  0  0  0
 15 14  1  0  0  0  0
 15 20  1  0  0  0  0
 16 15  2  0  0  0  0
 17 12  1  0  0  0  0
 21 16  1  0  0  0  0
 21 23  1  0  0  0  0
 21 22  1  0  0  0  0
 24 21  1  0  0  0  0
 25 32  1  6  0  0  0
 25 26  1  0  0  0  0
 26  2  1  6  0  0  0
 27 26  1  0  0  0  0
 28 27  1  0  0  0  0
 29 27  1  0  0  0  0
 29 30  1  0  0  0  0
 30 25  1  0  0  0  0
 31 30  1  0  0  0  0
 32 33  1  0  0  0  0
M  END
>  <minimizedAffinity>
-5.53948832

$$$$

 OpenBabel03252505373D

 33 35  0  0  1  0  0  0  0  0999 V2000
   40.1670   32.1160   40.4360 C   0  0  0  0  0  0  0  0  0  0  0  0
   39.8000   30.8570   40.9950 C   0  0  0  0  0  0  0  0  0  0  0  0
   38.4570   30.5910   41.1460 C   0  0  0  0  0  0  0  0  0  0  0  0
   37.5520   31.5340   40.7590 N   0  0  0  0  0  0  0  0  0  0  0  0
   37.9490   32.7210   40.2330 C   0  0  0  0  0  0  0  0  0  0  0  0
   39.2430   33.0160   40.0690 N   0  0  0  0  0  0  0  0  0  0  0  0
   36.9840   33.7060   39.8620 N   0  0  0  0  0  0  0  0  0  0  0  0
   41.1900   32.4220   40.2740 H   0  0  0  0  0  0  0  0  0  0  0  0
   36.4770   33.7940   38.9480 H   0  0  0  0  0  0  0  0  0  0  0  0
   36.9110   34.3090   40.7150 H   0  0  0  0  0  0  0  0  0  0  0  0
   37.9490   29.3650   41.6830 C   0  0  0  0  0  0  0  0  0  0  0  0
   37.7990   29.2770   43.0620 C   0  0  0  0  0  0  0  0  0  0  0  0
   37.3080   28.1160   43.6800 C   0  0  0  0  0  0  0  0  0  0  0  0
   36.9670   27.0370   42.9150 C   0  0  0  0  0  0  0  0  0  0  0  0
   37.1140   27.1260   41.5680 C   0  0  0  0  0  0  0  0  0  0  0  0
   37.5970   28.2650   40.9420 C   0  0  0  0  0  0  0  0  0  0  0  0
   38.0630   30.1190   43.6900 H   0  0  0  0  0  0  0  0  0  0  0  0
   37.2260   28.1420   44.7770 H   0  0  0  0  0  0  0  0  0  0  0  0
   36.5960   26.1760   43.4590 H   0  0  0  0  0  0  0  0  0  0  0  0
   36.8310   26.2450   40.9850 H   0  0  0  0  0  0  0  0  0  0  0  0
   37.7390   28.3400   39.4670 C   0  0  0  0  0  0  0  0  0  0  0  0
   37.1860   27.1830   38.9230 F   0  0  0  0  0  0  0  0  0  0  0  0
   39.0770   28.4250   39.1400 F   0  0  0  0  0  0  0  0  0  0  0  0
   37.1330   29.4330   38.8970 F   0  0  0  0  0  0  0  0  0  0  0  0
   41.2770   30.2230   42.8870 C   0  0  1  0  0  3  0  0  0  0  0  0
   40.8780   29.9870   41.4330 C   0  0  2  0  0  3  0  0  0  0  0  0
   42.1970   30.1630   40.7450 C   0  0  0  0  0  3  0  0  0  0  0  0
   42.5980   31.1920   40.7740 H   0  0  0  0  0  0  0  0  0  0  0  0
   43.0300   29.4000   41.5550 O   0  0  0  0  0  0  0  0  0  0  0  0
   42.6590   29.5990   42.8650 C   0  0  0  0  0  3  0  0  0  0  0  0
   43.4000   30.1400   43.4720 H   0  0  0  0  0  0  0  0  0  0  0  0
   41.3860   31.5680   43.1850 O   0  0  0  0  0  0  0  0  0  0  0  0
   40.8000   31.7840   43.9710 H   0  0  0  0  0  0  0  0  0  0  0  0
  1  2  1  0  0  0  0
  2  3  2  0  0  0  0
  3 11  1  0  0  0  0
  4  3  1  0  0  0  0
  5  4  2  0  0  0  0
  6  5  1  0  0  0  0
  6  1  2  0  0  0  0
  7  5  1  0  0  0  0
  7 10  1  0  0  0  0
  8  1  1  0  0  0  0
  9  7  1  0  0  0  0
 11 12  1  0  0  0  0
 12 13  2  0  0  0  0
 12 17  1  0  0  0  0
 13 18  1  0  0  0  0
 14 19  1  0  0  0  0
 14 13  1  0  0  0  0
 15 14  2  0  0  0  0
 16 15  1  0  0  0  0
 16 11  2  0  0  0  0
 20 15  1  0  0  0  0
 21 16  1  0  0  0  0
 22 21  1  0  0  0  0
 23 21  1  0  0  0  0
 24 21  1  0  0  0  0
 25 32  1  6  0  0  0
 26  2  1  6  0  0  0
 26 25  1  0  0  0  0
 27 28  1  0  0  0  0
 27 26  1  0  0  0  0
 27 29  1  0  0  0  0
 29 30  1  0  0  0  0
 30 25  1  0  0  0  0
 30 31  1  0  0  0  0
 32 33  1  0  0  0  0
M  END
>  <minimizedAffinity>
-5.50584745

$$$$

 OpenBabel03252505373D

 33 35  0  0  1  0  0  0  0  0999 V2000
   36.5260   30.2880   38.1380 C   0  0  0  0  0  0  0  0  0  0  0  0
   37.2170   29.8920   39.3200 C   0  0  0  0  0  0  0  0  0  0  0  0
   36.7720   28.7630   39.9740 C   0  0  0  0  0  0  0  0  0  0  0  0
   35.7030   28.0880   39.4660 N   0  0  0  0  0  0  0  0  0  0  0  0
   35.0750   28.5050   38.3370 C   0  0  0  0  0  0  0  0  0  0  0  0
   35.4780   29.5930   37.6730 N   0  0  0  0  0  0  0  0  0  0  0  0
   33.9380   27.7980   37.8400 N   0  0  0  0  0  0  0  0  0  0  0  0
   36.7950   31.1540   37.5510 H   0  0  0  0  0  0  0  0  0  0  0  0
   33.9300   26.9680   37.1980 H   0  0  0  0  0  0  0  0  0  0  0  0
   33.1290   28.3050   38.2670 H   0  0  0  0  0  0  0  0  0  0  0  0
   37.3790   28.2480   41.1640 C   0  0  0  0  0  0  0  0  0  0  0  0
   36.8950   28.7030   42.3840 C   0  0  0  0  0  0  0  0  0  0  0  0
   37.4270   28.2540   43.6040 C   0  0  0  0  0  0  0  0  0  0  0  0
   38.4480   27.3470   43.6030 C   0  0  0  0  0  0  0  0  0  0  0  0
   38.9190   26.9040   42.4080 C   0  0  0  0  0  0  0  0  0  0  0  0
   38.4040   27.3370   41.1960 C   0  0  0  0  0  0  0  0  0  0  0  0
   36.0860   29.4230   42.4120 H   0  0  0  0  0  0  0  0  0  0  0  0
   36.9780   28.6730   44.5180 H   0  0  0  0  0  0  0  0  0  0  0  0
   38.8080   27.0460   44.5790 H   0  0  0  0  0  0  0  0  0  0  0  0
   39.7360   26.1780   42.4430 H   0  0  0  0  0  0  0  0  0  0  0  0
   38.9310   26.8300   39.9040 C   0  0  0  0  0  0  0  0  0  0  0  0
   37.9010   26.1530   39.2560 F   0  0  0  0  0  0  0  0  0  0  0  0
   39.9850   25.9720   40.1440 F   0  0  0  0  0  0  0  0  0  0  0  0
   39.4140   27.8080   39.0690 F   0  0  0  0  0  0  0  0  0  0  0  0
   37.8280   31.7580   40.8380 C   0  0  1  0  0  3  0  0  0  0  0  0
   38.2890   30.7570   39.7840 C   0  0  2  0  0  3  0  0  0  0  0  0
   38.8900   31.6760   38.7640 C   0  0  0  0  0  3  0  0  0  0  0  0
   38.1640   32.3300   38.2480 H   0  0  0  0  0  0  0  0  0  0  0  0
   39.6580   32.5090   39.5680 O   0  0  0  0  0  0  0  0  0  0  0  0
   38.9500   32.7730   40.7180 C   0  0  0  0  0  3  0  0  0  0  0  0
   38.6170   33.8160   40.8210 H   0  0  0  0  0  0  0  0  0  0  0  0
   36.6300   32.3570   40.4990 O   0  0  0  0  0  0  0  0  0  0  0  0
   35.9700   32.2280   41.2440 H   0  0  0  0  0  0  0  0  0  0  0  0
  1  2  1  0  0  0  0
  2  3  2  0  0  0  0
  3 11  1  0  0  0  0
  4  3  1  0  0  0  0
  5  4  2  0  0  0  0
  6  1  2  0  0  0  0
  6  5  1  0  0  0  0
  7 10  1  0  0  0  0
  7  5  1  0  0  0  0
  8  1  1  0  0  0  0
  9  7  1  0  0  0  0
 11 16  2  0  0  0  0
 11 12  1  0  0  0  0
 12 17  1  0  0  0  0
 12 13  2  0  0  0  0
 13 18  1  0  0  0  0
 14 13  1  0  0  0  0
 14 19  1  0  0  0  0
 15 20  1  0  0  0  0
 15 14  2  0  0  0  0
 16 15  1  0  0  0  0
 21 23  1  0  0  0  0
 21 16  1  0  0  0  0
 22 21  1  0  0  0  0
 24 21  1  0  0  0  0
 25 32  1  6  0  0  0
 26  2  1  6  0  0  0
 26 25  1  0  0  0  0
 27 29  1  0  0  0  0
 27 26  1  0  0  0  0
 28 27  1  0  0  0  0
 29 30  1  0  0  0  0
 30 31  1  0  0  0  0
 30 25  1  0  0  0  0
 32 33  1  0  0  0  0
M  END
>  <minimizedAffinity>
-5.4331665

$$$$

 OpenBabel03252505373D

 33 35  0  0  1  0  0  0  0  0999 V2000
   36.8920   31.4860   38.9650 C   0  0  0  0  0  0  0  0  0  0  0  0
   37.2690   30.1410   39.2440 C   0  0  0  0  0  0  0  0  0  0  0  0
   38.1730   29.9280   40.2620 C   0  0  0  0  0  0  0  0  0  0  0  0
   38.6610   31.0020   40.9450 N   0  0  0  0  0  0  0  0  0  0  0  0
   38.2730   32.2670   40.6410 C   0  0  0  0  0  0  0  0  0  0  0  0
   37.3960   32.5150   39.6620 N   0  0  0  0  0  0  0  0  0  0  0  0
   38.8190   33.3800   41.3500 N   0  0  0  0  0  0  0  0  0  0  0  0
   36.1900   31.7620   38.1910 H   0  0  0  0  0  0  0  0  0  0  0  0
   38.4780   33.7950   42.2520 H   0  0  0  0  0  0  0  0  0  0  0  0
   39.6300   33.6740   40.7570 H   0  0  0  0  0  0  0  0  0  0  0  0
   38.6300   28.6290   40.6550 C   0  0  0  0  0  0  0  0  0  0  0  0
   39.7780   28.1370   40.0460 C   0  0  0  0  0  0  0  0  0  0  0  0
   40.3020   26.8740   40.3660 C   0  0  0  0  0  0  0  0  0  0  0  0
   39.6740   26.1000   41.3000 C   0  0  0  0  0  0  0  0  0  0  0  0
   38.5530   26.5830   41.8940 C   0  0  0  0  0  0  0  0  0  0  0  0
   38.0230   27.8280   41.5890 C   0  0  0  0  0  0  0  0  0  0  0  0
   40.2950   28.7320   39.3020 H   0  0  0  0  0  0  0  0  0  0  0  0
   41.2150   26.5720   39.8300 H   0  0  0  0  0  0  0  0  0  0  0  0
   40.1340   25.1380   41.4970 H   0  0  0  0  0  0  0  0  0  0  0  0
   38.0750   25.9380   42.6370 H   0  0  0  0  0  0  0  0  0  0  0  0
   36.8010   28.3370   42.2590 C   0  0  0  0  0  0  0  0  0  0  0  0
   37.1400   29.5010   42.9440 F   0  0  0  0  0  0  0  0  0  0  0  0
   36.3340   27.3860   43.1430 F   0  0  0  0  0  0  0  0  0  0  0  0
   35.7610   28.6110   41.4040 F   0  0  0  0  0  0  0  0  0  0  0  0
   37.6420   28.7770   37.2040 C   0  0  1  0  0  3  0  0  0  0  0  0
   36.7270   29.1070   38.3800 C   0  0  2  0  0  3  0  0  0  0  0  0
   35.4540   29.4390   37.6630 C   0  0  0  0  0  3  0  0  0  0  0  0
   35.4930   30.3610   37.0570 H   0  0  0  0  0  0  0  0  0  0  0  0
   35.3670   28.3860   36.7610 O   0  0  0  0  0  0  0  0  0  0  0  0
   36.6300   28.1200   36.2840 C   0  0  0  0  0  3  0  0  0  0  0  0
   36.7770   28.3590   35.2210 H   0  0  0  0  0  0  0  0  0  0  0  0
   38.1410   29.9150   36.5990 O   0  0  0  0  0  0  0  0  0  0  0  0
   39.1440   29.8670   36.5750 H   0  0  0  0  0  0  0  0  0  0  0  0
  1  2  2  0  0  0  0
  1  6  1  0  0  0  0
  2  3  1  0  0  0  0
  3 11  1  0  0  0  0
  3  4  2  0  0  0  0
  5  4  1  0  0  0  0
  5  7  1  0  0  0  0
  6  5  2  0  0  0  0
  7  9  1  0  0  0  0
  8  1  1  0  0  0  0
 10  7  1  0  0  0  0
 11 16  1  0  0  0  0
 12 13  1  0  0  0  0
 12 11  2  0  0  0  0
 13 14  2  0  0  0  0
 14 19  1  0  0  0  0
 14 15  1  0  0  0  0
 15 20  1  0  0  0  0
 16 15  2  0  0  0  0
 16 21  1  0  0  0  0
 17 12  1  0  0  0  0
 18 13  1  0  0  0  0
 21 22  1  0  0  0  0
 21 23  1  0  0  0  0
 24 21  1  0  0  0  0
 25 32  1  6  0  0  0
 25 26  1  0  0  0  0
 26  2  1  6  0  0  0
 27 26  1  0  0  0  0
 28 27  1  0  0  0  0
 29 27  1  0  0  0  0
 30 29  1  0  0  0  0
 30 25  1  0  0  0  0
 31 30  1  0  0  0  0
 33 32  1  0  0  0  0
M  END
>  <minimizedAffinity>
-5.42774773

$$$$

 OpenBabel03252505373D

 33 35  0  0  1  0  0  0  0  0999 V2000
   37.2680   30.8670   38.0720 C   0  0  0  0  0  0  0  0  0  0  0  0
   38.1510   30.5220   39.1360 C   0  0  0  0  0  0  0  0  0  0  0  0
   38.1150   29.2260   39.6030 C   0  0  0  0  0  0  0  0  0  0  0  0
   37.2440   28.3450   39.0320 N   0  0  0  0  0  0  0  0  0  0  0  0
   36.4200   28.7210   38.0210 C   0  0  0  0  0  0  0  0  0  0  0  0
   36.4270   29.9680   37.5390 N   0  0  0  0  0  0  0  0  0  0  0  0
   35.4960   27.7890   37.4580 N   0  0  0  0  0  0  0  0  0  0  0  0
   37.2190   31.8530   37.6320 H   0  0  0  0  0  0  0  0  0  0  0  0
   35.6690   27.1030   36.6830 H   0  0  0  0  0  0  0  0  0  0  0  0
   34.6180   27.9580   38.0020 H   0  0  0  0  0  0  0  0  0  0  0  0
   38.9520   28.7420   40.6580 C   0  0  0  0  0  0  0  0  0  0  0  0
   40.2850   28.4860   40.3600 C   0  0  0  0  0  0  0  0  0  0  0  0
   41.1820   28.0100   41.3300 C   0  0  0  0  0  0  0  0  0  0  0  0
   40.7430   27.7880   42.6040 C   0  0  0  0  0  0  0  0  0  0  0  0
   39.4400   28.0390   42.8930 C   0  0  0  0  0  0  0  0  0  0  0  0
   38.5420   28.5090   41.9470 C   0  0  0  0  0  0  0  0  0  0  0  0
   40.6580   28.6540   39.3560 H   0  0  0  0  0  0  0  0  0  0  0  0
   42.2170   27.8380   40.9970 H   0  0  0  0  0  0  0  0  0  0  0  0
   41.4900   27.4210   43.2990 H   0  0  0  0  0  0  0  0  0  0  0  0
   39.1220   27.8510   43.9220 H   0  0  0  0  0  0  0  0  0  0  0  0
   37.1250   28.7850   42.2910 C   0  0  0  0  0  0  0  0  0  0  0  0
   37.0120   28.7790   43.6790 F   0  0  0  0  0  0  0  0  0  0  0  0
   36.3230   27.8030   41.7460 F   0  0  0  0  0  0  0  0  0  0  0  0
   36.6500   29.9800   41.8110 F   0  0  0  0  0  0  0  0  0  0  0  0
   38.2160   32.4240   40.7290 C   0  0  1  0  0  3  0  0  0  0  0  0
   38.9650   31.5870   39.6960 C   0  0  2  0  0  3  0  0  0  0  0  0
   39.4140   32.6520   38.7420 C   0  0  0  0  0  3  0  0  0  0  0  0
   38.5990   33.1440   38.1830 H   0  0  0  0  0  0  0  0  0  0  0  0
   39.9160   33.6070   39.6170 O   0  0  0  0  0  0  0  0  0  0  0  0
   39.0860   33.6670   40.7130 C   0  0  0  0  0  3  0  0  0  0  0  0
   38.5210   34.6050   40.8080 H   0  0  0  0  0  0  0  0  0  0  0  0
   36.9410   32.7520   40.3090 O   0  0  0  0  0  0  0  0  0  0  0  0
   36.2760   32.4520   40.9990 H   0  0  0  0  0  0  0  0  0  0  0  0
  1  2  1  0  0  0  0
  2  3  2  0  0  0  0
  3 11  1  0  0  0  0
  4  3  1  0  0  0  0
  5  4  2  0  0  0  0
  6  5  1  0  0  0  0
  6  1  2  0  0  0  0
  7 10  1  0  0  0  0
  7  5  1  0  0  0  0
  8  1  1  0  0  0  0
  9  7  1  0  0  0  0
 11 16  1  0  0  0  0
 12 11  2  0  0  0  0
 12 13  1  0  0  0  0
 13 14  2  0  0  0  0
 14 15  1  0  0  0  0
 14 19  1  0  0  0  0
 15 20  1  0  0  0  0
 16 21  1  0  0  0  0
 16 15  2  0  0  0  0
 17 12  1  0  0  0  0
 18 13  1  0  0  0  0
 21 22  1  0  0  0  0
 23 21  1  0  0  0  0
 24 21  1  0  0  0  0
 25 32  1  6  0  0  0
 26  2  1  6  0  0  0
 26 25  1  0  0  0  0
 27 29  1  0  0  0  0
 27 26  1  0  0  0  0
 28 27  1  0  0  0  0
 29 30  1  0  0  0  0
 30 25  1  0  0  0  0
 30 31  1  0  0  0  0
 32 33  1  0  0  0  0
M  END
>  <minimizedAffinity>
-5.38280058

$$$$

 OpenBabel03252505373D

 33 35  0  0  1  0  0  0  0  0999 V2000
   37.2760   28.1180   39.1300 C   0  0  0  0  0  0  0  0  0  0  0  0
   37.9340   29.2080   39.7720 C   0  0  0  0  0  0  0  0  0  0  0  0
   38.6140   30.1030   38.9750 C   0  0  0  0  0  0  0  0  0  0  0  0
   38.6270   29.9060   37.6260 N   0  0  0  0  0  0  0  0  0  0  0  0
   37.9860   28.8500   37.0600 C   0  0  0  0  0  0  0  0  0  0  0  0
   37.3140   27.9620   37.7990 N   0  0  0  0  0  0  0  0  0  0  0  0
   38.0380   28.6470   35.6470 N   0  0  0  0  0  0  0  0  0  0  0  0
   36.7140   27.3630   39.6610 H   0  0  0  0  0  0  0  0  0  0  0  0
   37.4070   29.0590   34.9170 H   0  0  0  0  0  0  0  0  0  0  0  0
   38.8480   27.9970   35.5240 H   0  0  0  0  0  0  0  0  0  0  0  0
   39.3090   31.2460   39.4850 C   0  0  0  0  0  0  0  0  0  0  0  0
   40.6630   31.1080   39.7620 C   0  0  0  0  0  0  0  0  0  0  0  0
   41.4280   32.1730   40.2640 C   0  0  0  0  0  0  0  0  0  0  0  0
   40.8340   33.3820   40.4920 C   0  0  0  0  0  0  0  0  0  0  0  0
   39.5110   33.5140   40.2190 C   0  0  0  0  0  0  0  0  0  0  0  0
   38.7420   32.4720   39.7230 C   0  0  0  0  0  0  0  0  0  0  0  0
   41.1580   30.1590   39.5900 H   0  0  0  0  0  0  0  0  0  0  0  0
   42.4920   31.9660   40.4530 H   0  0  0  0  0  0  0  0  0  0  0  0
   41.4850   34.1570   40.8790 H   0  0  0  0  0  0  0  0  0  0  0  0
   39.0670   34.4950   40.4120 H   0  0  0  0  0  0  0  0  0  0  0  0
   37.2980   32.6460   39.4250 C   0  0  0  0  0  0  0  0  0  0  0  0
   37.0140   34.0090   39.4590 F   0  0  0  0  0  0  0  0  0  0  0  0
   36.5510   31.9820   40.3770 F   0  0  0  0  0  0  0  0  0  0  0  0
   36.9090   32.1410   38.2090 F   0  0  0  0  0  0  0  0  0  0  0  0
   39.1070   28.5640   41.8620 C   0  0  1  0  0  3  0  0  0  0  0  0
   37.8980   29.2420   41.2230 C   0  0  2  0  0  3  0  0  0  0  0  0
   36.7760   28.4970   41.8790 C   0  0  0  0  0  3  0  0  0  0  0  0
   36.6990   27.4330   41.5920 H   0  0  0  0  0  0  0  0  0  0  0  0
   37.1810   28.5110   43.2080 O   0  0  0  0  0  0  0  0  0  0  0  0
   38.5420   28.3140   43.2470 C   0  0  0  0  0  3  0  0  0  0  0  0
   38.8530   27.3550   43.6860 H   0  0  0  0  0  0  0  0  0  0  0  0
   39.4020   27.3550   41.2620 O   0  0  0  0  0  0  0  0  0  0  0  0
   40.3590   27.3580   40.9590 H   0  0  0  0  0  0  0  0  0  0  0  0
  1  8  1  0  0  0  0
  1  2  1  0  0  0  0
  3 11  1  0  0  0  0
  3  2  2  0  0  0  0
  4  3  1  0  0  0  0
  5  4  2  0  0  0  0
  5  6  1  0  0  0  0
  6  1  2  0  0  0  0
  7  5  1  0  0  0  0
  9  7  1  0  0  0  0
 10  7  1  0  0  0  0
 11 16  2  0  0  0  0
 11 12  1  0  0  0  0
 12 13  2  0  0  0  0
 13 18  1  0  0  0  0
 13 14  1  0  0  0  0
 14 19  1  0  0  0  0
 15 20  1  0  0  0  0
 15 14  2  0  0  0  0
 16 15  1  0  0  0  0
 17 12  1  0  0  0  0
 21 22  1  0  0  0  0
 21 16  1  0  0  0  0
 21 23  1  0  0  0  0
 24 21  1  0  0  0  0
 25 32  1  6  0  0  0
 25 30  1  0  0  0  0
 26  2  1  6  0  0  0
 26 25  1  0  0  0  0
 26 27  1  0  0  0  0
 27 29  1  0  0  0  0
 28 27  1  0  0  0  0
 29 30  1  0  0  0  0
 30 31  1  0  0  0  0
 33 32  1  0  0  0  0
M  END
>  <minimizedAffinity>
-5.36971617

$$$$

 OpenBabel03252505373D

 33 35  0  0  1  0  0  0  0  0999 V2000
   37.0860   27.9990   40.2160 C   0  0  0  0  0  0  0  0  0  0  0  0
   37.9180   28.9980   39.6320 C   0  0  0  0  0  0  0  0  0  0  0  0
   38.4160   29.9800   40.4610 C   0  0  0  0  0  0  0  0  0  0  0  0
   38.0920   29.9510   41.7850 N   0  0  0  0  0  0  0  0  0  0  0  0
   37.2930   28.9790   42.2950 C   0  0  0  0  0  0  0  0  0  0  0  0
   36.7920   28.0080   41.5250 N   0  0  0  0  0  0  0  0  0  0  0  0
   36.9430   28.9860   43.6800 N   0  0  0  0  0  0  0  0  0  0  0  0
   36.6470   27.1850   39.6570 H   0  0  0  0  0  0  0  0  0  0  0  0
   37.4800   28.5690   44.4790 H   0  0  0  0  0  0  0  0  0  0  0  0
   36.0320   29.5000   43.6990 H   0  0  0  0  0  0  0  0  0  0  0  0
   39.2700   31.0370   40.0100 C   0  0  0  0  0  0  0  0  0  0  0  0
   40.6290   30.7680   39.9040 C   0  0  0  0  0  0  0  0  0  0  0  0
   41.5440   31.7400   39.4690 C   0  0  0  0  0  0  0  0  0  0  0  0
   41.0970   32.9890   39.1410 C   0  0  0  0  0  0  0  0  0  0  0  0
   39.7680   33.2480   39.2450 C   0  0  0  0  0  0  0  0  0  0  0  0
   38.8520   32.2990   39.6710 C   0  0  0  0  0  0  0  0  0  0  0  0
   41.0090   29.7850   40.1580 H   0  0  0  0  0  0  0  0  0  0  0  0
   42.5990   31.4330   39.4190 H   0  0  0  0  0  0  0  0  0  0  0  0
   41.8580   33.6880   38.8140 H   0  0  0  0  0  0  0  0  0  0  0  0
   39.4440   34.2570   38.9730 H   0  0  0  0  0  0  0  0  0  0  0  0
   37.4030   32.6060   39.7670 C   0  0  0  0  0  0  0  0  0  0  0  0
   36.7760   32.0760   38.6430 F   0  0  0  0  0  0  0  0  0  0  0  0
   37.2270   33.9740   39.8080 F   0  0  0  0  0  0  0  0  0  0  0  0
   36.7950   32.1060   40.8930 F   0  0  0  0  0  0  0  0  0  0  0  0
   36.9550   29.5680   37.4170 C   0  0  1  0  0  3  0  0  0  0  0  0
   38.1100   28.9430   38.1930 C   0  0  2  0  0  3  0  0  0  0  0  0
   38.1570   27.5770   37.5800 C   0  0  0  0  0  3  0  0  0  0  0  0
   37.2810   26.9420   37.8000 H   0  0  0  0  0  0  0  0  0  0  0  0
   38.0830   27.8840   36.2270 O   0  0  0  0  0  0  0  0  0  0  0  0
   37.1880   28.9170   36.0670 C   0  0  0  0  0  3  0  0  0  0  0  0
   36.2620   28.6420   35.5410 H   0  0  0  0  0  0  0  0  0  0  0  0
   35.7240   29.1760   37.9090 O   0  0  0  0  0  0  0  0  0  0  0  0
   35.1810   29.9890   38.1350 H   0  0  0  0  0  0  0  0  0  0  0  0
  1  6  1  0  0  0  0
  2  1  2  0  0  0  0
  2  3  1  0  0  0  0
  3  4  2  0  0  0  0
  4  5  1  0  0  0  0
  5  7  1  0  0  0  0
  6  5  2  0  0  0  0
  7 10  1  0  0  0  0
  7  9  1  0  0  0  0
  8  1  1  0  0  0  0
 11  3  1  0  0  0  0
 12 11  1  0  0  0  0
 12 17  1  0  0  0  0
 13 12  2  0  0  0  0
 14 15  2  0  0  0  0
 14 13  1  0  0  0  0
 15 16  1  0  0  0  0
 16 21  1  0  0  0  0
 16 11  2  0  0  0  0
 18 13  1  0  0  0  0
 19 14  1  0  0  0  0
 20 15  1  0  0  0  0
 21 23  1  0  0  0  0
 21 24  1  0  0  0  0
 22 21  1  0  0  0  0
 25 32  1  1  0  0  0
 25 26  1  0  0  0  0
 26  2  1  1  0  0  0
 27 28  1  0  0  0  0
 27 26  1  0  0  0  0
 29 27  1  0  0  0  0
 30 29  1  0  0  0  0
 30 25  1  0  0  0  0
 31 30  1  0  0  0  0
 32 33  1  0  0  0  0
M  END
>  <minimizedAffinity>
-5.32434082

$$$$
