
 OpenBabel03242523233D

 43 46  0  0  1  0  0  0  0  0999 V2000
   47.2110   32.6290   44.4010 C   0  0  0  0  0  0  0  0  0  0  0  0
   47.9840   32.9170   43.3600 C   0  0  0  0  0  0  0  0  0  0  0  0
   48.7860   31.8770   42.9360 C   0  0  0  0  0  0  0  0  0  0  0  0
   48.7120   30.6570   43.6240 N   0  0  0  0  0  0  0  0  0  0  0  0
   47.9310   30.4390   44.6430 C   0  0  0  0  0  0  0  0  0  0  0  0
   47.1120   31.4540   45.0970 N   0  0  0  0  0  0  0  0  0  0  0  0
   49.4980   31.8500   42.1240 H   0  0  0  0  0  0  0  0  0  0  0  0
   47.9720   29.4400   45.0880 H   0  0  0  0  0  0  0  0  0  0  0  0
   48.1510   34.1730   42.7300 C   0  0  1  0  0  0  0  0  0  0  0  0
   49.0560   34.5430   41.7850 C   0  0  0  0  0  0  0  0  0  0  0  0
   47.6650   34.3630   41.2640 C   0  0  1  0  0  0  0  0  0  0  0  0
   47.8730   35.0200   43.4160 H   0  0  0  0  0  0  0  0  0  0  0  0
   49.8400   33.7990   41.4500 H   0  0  0  0  0  0  0  0  0  0  0  0
   49.4640   35.5580   41.5790 H   0  0  0  0  0  0  0  0  0  0  0  0
   47.0380   35.2670   41.1190 H   0  0  0  0  0  0  0  0  0  0  0  0
   46.3210   33.3630   39.3610 C   0  0  1  0  0  3  0  0  0  0  0  0
   47.4570   33.2640   40.3290 C   0  0  1  0  0  3  0  0  0  0  0  0
   48.6550   33.2280   39.4100 C   0  0  0  0  0  3  0  0  0  0  0  0
   49.5440   33.6490   39.9220 H   0  0  0  0  0  0  0  0  0  0  0  0
   48.2950   34.0560   38.3720 O   0  0  0  0  0  0  0  0  0  0  0  0
   46.9750   33.7120   38.0640 C   0  0  0  0  0  3  0  0  0  0  0  0
   46.4340   34.5550   37.6060 H   0  0  0  0  0  0  0  0  0  0  0  0
   45.7760   32.0730   39.2080 O   0  0  0  0  0  0  0  0  0  0  0  0
   46.0080   31.6570   38.3470 H   0  0  0  0  0  0  0  0  0  0  0  0
   46.2050   33.5190   45.0210 C   0  0  0  0  0  0  0  0  0  0  0  0
   45.6580   34.0460   45.9460 O   0  0  0  0  0  0  0  0  0  0  0  0
   44.4990   31.6850   43.2150 Cl  0  0  0  0  0  0  0  0  0  0  0  0
   44.5600   33.4290   43.0060 C   0  0  0  0  0  0  0  0  0  0  0  0
   45.3820   34.1270   43.9280 C   0  0  0  0  0  0  0  0  0  0  0  0
   45.3410   35.4780   43.6660 C   0  0  0  0  0  0  0  0  0  0  0  0
   44.6930   36.1660   42.7370 C   0  0  0  0  0  0  0  0  0  0  0  0
   43.9170   35.4190   41.8770 C   0  0  0  0  0  0  0  0  0  0  0  0
   43.8450   34.0640   42.0040 C   0  0  0  0  0  0  0  0  0  0  0  0
   45.9190   36.1520   44.3420 H   0  0  0  0  0  0  0  0  0  0  0  0
   44.7270   37.2460   42.6060 H   0  0  0  0  0  0  0  0  0  0  0  0
   43.3610   35.9560   41.0870 H   0  0  0  0  0  0  0  0  0  0  0  0
   43.0380   33.4380   41.0910 O   0  0  0  0  0  0  0  0  0  0  0  0
   40.8720   32.6740   39.8250 O   0  0  0  0  0  0  0  0  0  0  0  0
   41.3940   33.0350   41.1940 P   0  0  0  0  0  0  0  0  0  0  0  0
   41.1970   31.7510   42.2830 O   0  0  0  0  0  0  0  0  0  0  0  0
   41.2590   32.0650   43.2040 H   0  0  0  0  0  0  0  0  0  0  0  0
   40.4840   34.3130   41.8330 O   0  0  0  0  0  0  0  0  0  0  0  0
   39.6010   33.9590   42.1160 H   0  0  0  0  0  0  0  0  0  0  0  0
  1 25  1  0  0  0  0
  1  6  1  0  0  0  0
  2  1  2  0  0  0  0
  3  2  1  0  0  0  0
  3  4  2  0  0  0  0
  4  5  1  0  0  0  0
  5  8  1  0  0  0  0
  5  6  2  0  0  0  0
  7  3  1  0  0  0  0
  9  2  1  0  0  0  0
  9 12  1  1  0  0  0
 10  9  1  0  0  0  0
 11 15  1  6  0  0  0
 11 10  1  0  0  0  0
 11  9  1  0  0  0  0
 13 10  1  0  0  0  0
 14 10  1  0  0  0  0
 16 23  1  6  0  0  0
 16 17  1  0  0  0  0
 17 18  1  6  0  0  0
 17 11  1  0  0  0  0
 18 19  1  0  0  0  0
 20 18  1  0  0  0  0
 21 20  1  0  0  0  0
 21 16  1  0  0  0  0
 22 21  1  0  0  0  0
 24 23  1  0  0  0  0
 25 26  2  0  0  0  0
 28 27  1  0  0  0  0
 28 29  1  0  0  0  0
 29 25  1  0  0  0  0
 30 29  2  0  0  0  0
 30 34  1  0  0  0  0
 31 30  1  0  0  0  0
 32 33  1  0  0  0  0
 32 31  2  0  0  0  0
 33 28  2  0  0  0  0
 35 31  1  0  0  0  0
 36 32  1  0  0  0  0
 37 39  1  0  0  0  0
 37 33  1  0  0  0  0
 38 39  2  0  0  0  0
 39 42  1  0  0  0  0
 39 40  1  0  0  0  0
 40 41  1  0  0  0  0
 42 43  1  0  0  0  0
M  END
>  <minimizedAffinity>
-5.73674107

>  <minimizedRMSD>
0.997070491

$$$$
