
 OpenBabel03242517143D

 23 24  0  0  1  0  0  0  0  0999 V2000
   35.3530   28.8780   40.5990 C   0  0  0  0  0  0  0  0  0  0  0  0
   34.3870   28.8770   41.1240 H   0  0  0  0  0  0  0  0  0  0  0  0
   35.2360   28.3330   39.6430 H   0  0  0  0  0  0  0  0  0  0  0  0
   37.5970   31.7780   40.4810 C   0  0  1  0  0  3  0  0  0  0  0  0
   36.8560   30.7360   41.3300 C   0  0  0  0  0  3  0  0  0  0  0  0
   36.4990   31.2270   42.2400 H   0  0  0  0  0  0  0  0  0  0  0  0
   35.7850   30.3270   40.3660 C   0  0  1  0  0  3  0  0  0  0  0  0
   36.2800   30.4720   39.0830 O   0  0  0  0  0  0  0  0  0  0  0  0
   37.5450   31.0200   39.1480 C   0  0  0  0  0  3  0  0  0  0  0  0
   37.7570   31.6810   38.3070 H   0  0  0  0  0  0  0  0  0  0  0  0
   36.8050   32.8960   40.3300 O   0  0  0  0  0  0  0  0  0  0  0  0
   36.5320   33.3320   41.1770 H   0  0  0  0  0  0  0  0  0  0  0  0
   36.9390   27.1060   41.2880 C   0  0  0  0  0  3  0  0  0  0  0  0
   36.4330   28.3030   41.4570 C   0  0  0  0  0  3  0  0  0  0  0  0
   38.2640   25.1310   42.0590 C   0  0  0  0  0  0  0  0  0  0  0  0
   37.9830   26.4950   42.0840 C   0  0  0  0  0  0  0  0  0  0  0  0
   38.7550   27.2930   42.9220 C   0  0  0  0  0  0  0  0  0  0  0  0
   39.7470   26.7110   43.6790 N   0  0  0  0  0  0  0  0  0  0  0  0
   39.9810   25.3830   43.6180 C   0  0  0  0  0  0  0  0  0  0  0  0
   39.2380   24.6070   42.8100 N   0  0  0  0  0  0  0  0  0  0  0  0
   37.6760   24.4900   41.4130 H   0  0  0  0  0  0  0  0  0  0  0  0
   38.5740   28.3630   42.9770 H   0  0  0  0  0  0  0  0  0  0  0  0
   40.7930   25.1000   44.2760 H   0  0  0  0  0  0  0  0  0  0  0  0
  1  2  1  0  0  0  0
  1 14  1  0  0  0  0
  3  1  1  0  0  0  0
  4 11  1  6  0  0  0
  4  5  1  0  0  0  0
  5  6  1  0  0  0  0
  7  1  1  1  0  0  0
  7  5  1  0  0  0  0
  8  9  1  0  0  0  0
  8  7  1  0  0  0  0
  9  4  1  0  0  0  0
 10  9  1  0  0  0  0
 11 12  1  0  0  0  0
 13 14  2  0  0  0  0
 13 16  1  0  0  0  0
 15 16  2  0  0  0  0
 15 20  1  0  0  0  0
 16 17  1  0  0  0  0
 17 22  1  0  0  0  0
 17 18  2  0  0  0  0
 19 18  1  0  0  0  0
 19 23  1  0  0  0  0
 20 19  2  0  0  0  0
 21 15  1  0  0  0  0
M  END
>  <minimizedAffinity>
-4.61730194

$$$$

 OpenBabel03242517143D

 23 24  0  0  1  0  0  0  0  0999 V2000
   37.2820   27.1470   42.7750 C   0  0  0  0  0  0  0  0  0  0  0  0
   38.3260   27.4190   42.9840 H   0  0  0  0  0  0  0  0  0  0  0  0
   36.8120   26.8030   43.7170 H   0  0  0  0  0  0  0  0  0  0  0  0
   36.8890   30.3920   41.1110 C   0  0  1  0  0  3  0  0  0  0  0  0
   37.4000   29.6020   42.3230 C   0  0  0  0  0  3  0  0  0  0  0  0
   37.2220   30.2000   43.2220 H   0  0  0  0  0  0  0  0  0  0  0  0
   36.5590   28.3670   42.2040 C   0  0  1  0  0  3  0  0  0  0  0  0
   36.2760   28.1650   40.8650 O   0  0  0  0  0  0  0  0  0  0  0  0
   36.7940   29.2150   40.1320 C   0  0  0  0  0  3  0  0  0  0  0  0
   36.1770   29.4650   39.2680 H   0  0  0  0  0  0  0  0  0  0  0  0
   35.5980   30.8140   41.3470 O   0  0  0  0  0  0  0  0  0  0  0  0
   35.4850   31.3820   42.1510 H   0  0  0  0  0  0  0  0  0  0  0  0
   36.9620   24.8530   41.9000 C   0  0  0  0  0  3  0  0  0  0  0  0
   37.2000   26.1250   41.6890 C   0  0  0  0  0  3  0  0  0  0  0  0
   35.7620   23.6500   40.0660 C   0  0  0  0  0  0  0  0  0  0  0  0
   36.8710   23.8180   40.8920 C   0  0  0  0  0  0  0  0  0  0  0  0
   37.9330   22.9340   40.7250 C   0  0  0  0  0  0  0  0  0  0  0  0
   37.8450   21.9500   39.7680 N   0  0  0  0  0  0  0  0  0  0  0  0
   36.7480   21.8290   38.9910 C   0  0  0  0  0  0  0  0  0  0  0  0
   35.7180   22.6800   39.1480 N   0  0  0  0  0  0  0  0  0  0  0  0
   34.9220   24.3270   40.1780 H   0  0  0  0  0  0  0  0  0  0  0  0
   38.8210   23.0230   41.3460 H   0  0  0  0  0  0  0  0  0  0  0  0
   36.8500   21.0050   38.2960 H   0  0  0  0  0  0  0  0  0  0  0  0
  1  2  1  0  0  0  0
  1  3  1  0  0  0  0
  4 11  1  1  0  0  0
  4  5  1  0  0  0  0
  5  6  1  0  0  0  0
  7  5  1  0  0  0  0
  7  1  1  6  0  0  0
  8  7  1  0  0  0  0
  9  8  1  0  0  0  0
  9  4  1  0  0  0  0
 10  9  1  0  0  0  0
 11 12  1  0  0  0  0
 14 13  2  0  0  0  0
 14  1  1  0  0  0  0
 15 21  1  0  0  0  0
 15 16  1  0  0  0  0
 16 13  1  0  0  0  0
 17 16  2  0  0  0  0
 17 22  1  0  0  0  0
 18 17  1  0  0  0  0
 19 20  1  0  0  0  0
 19 18  2  0  0  0  0
 20 15  2  0  0  0  0
 23 19  1  0  0  0  0
M  END
>  <minimizedAffinity>
-4.53696871

$$$$

 OpenBabel03242517143D

 23 24  0  0  1  0  0  0  0  0999 V2000
   36.9490   32.4360   40.0240 C   0  0  0  0  0  0  0  0  0  0  0  0
   37.0950   33.4020   40.5260 H   0  0  0  0  0  0  0  0  0  0  0  0
   35.8670   32.2990   39.8290 H   0  0  0  0  0  0  0  0  0  0  0  0
   39.5870   31.4620   37.6680 C   0  0  1  0  0  3  0  0  0  0  0  0
   39.2040   32.1490   38.9870 C   0  0  0  0  0  3  0  0  0  0  0  0
   39.8340   33.0350   39.1060 H   0  0  0  0  0  0  0  0  0  0  0  0
   37.7550   32.4280   38.7250 C   0  0  1  0  0  3  0  0  0  0  0  0
   37.2730   31.4490   37.8750 O   0  0  0  0  0  0  0  0  0  0  0  0
   38.3140   30.6210   37.5060 C   0  0  0  0  0  3  0  0  0  0  0  0
   38.2110   30.2500   36.4850 H   0  0  0  0  0  0  0  0  0  0  0  0
   39.5790   32.3890   36.6480 O   0  0  0  0  0  0  0  0  0  0  0  0
   40.1890   33.1590   36.7780 H   0  0  0  0  0  0  0  0  0  0  0  0
   36.8390   30.2900   41.2540 C   0  0  0  0  0  3  0  0  0  0  0  0
   37.5300   31.3180   40.8280 C   0  0  0  0  0  3  0  0  0  0  0  0
   36.6160   28.0150   42.2690 C   0  0  0  0  0  0  0  0  0  0  0  0
   37.3440   29.1800   42.0340 C   0  0  0  0  0  0  0  0  0  0  0  0
   38.6180   29.2600   42.5870 C   0  0  0  0  0  0  0  0  0  0  0  0
   39.0980   28.2050   43.3290 N   0  0  0  0  0  0  0  0  0  0  0  0
   38.3520   27.0970   43.5270 C   0  0  0  0  0  0  0  0  0  0  0  0
   37.1200   27.0140   42.9960 N   0  0  0  0  0  0  0  0  0  0  0  0
   35.6210   27.9300   41.8480 H   0  0  0  0  0  0  0  0  0  0  0  0
   39.2260   30.1480   42.4330 H   0  0  0  0  0  0  0  0  0  0  0  0
   38.8840   26.3710   44.1310 H   0  0  0  0  0  0  0  0  0  0  0  0
  1  2  1  0  0  0  0
  1 14  1  0  0  0  0
  3  1  1  0  0  0  0
  4 11  1  6  0  0  0
  4  5  1  0  0  0  0
  5  6  1  0  0  0  0
  7  5  1  0  0  0  0
  7  1  1  1  0  0  0
  8  7  1  0  0  0  0
  9  4  1  0  0  0  0
  9  8  1  0  0  0  0
 10  9  1  0  0  0  0
 11 12  1  0  0  0  0
 13 16  1  0  0  0  0
 14 13  2  0  0  0  0
 15 20  1  0  0  0  0
 16 15  2  0  0  0  0
 16 17  1  0  0  0  0
 17 18  2  0  0  0  0
 18 19  1  0  0  0  0
 19 23  1  0  0  0  0
 20 19  2  0  0  0  0
 21 15  1  0  0  0  0
 22 17  1  0  0  0  0
M  END
>  <minimizedAffinity>
-4.45015526

$$$$

 OpenBabel03242517143D

 23 24  0  0  1  0  0  0  0  0999 V2000
   39.3980   26.7640   43.6780 C   0  0  0  0  0  0  0  0  0  0  0  0
   38.9790   26.7510   44.6940 H   0  0  0  0  0  0  0  0  0  0  0  0
   40.4860   26.9560   43.7470 H   0  0  0  0  0  0  0  0  0  0  0  0
   38.1910   24.4290   41.1190 C   0  0  1  0  0  3  0  0  0  0  0  0
   37.8570   25.4740   42.1920 C   0  0  0  0  0  3  0  0  0  0  0  0
   36.9490   25.1530   42.7110 H   0  0  0  0  0  0  0  0  0  0  0  0
   39.1110   25.4180   43.0110 C   0  0  1  0  0  3  0  0  0  0  0  0
   40.1570   25.0720   42.1750 O   0  0  0  0  0  0  0  0  0  0  0  0
   39.6600   24.8200   40.9120 C   0  0  0  0  0  3  0  0  0  0  0  0
   40.2110   24.0330   40.3960 H   0  0  0  0  0  0  0  0  0  0  0  0
   38.1940   23.1720   41.6850 O   0  0  0  0  0  0  0  0  0  0  0  0
   37.3410   22.9060   42.1150 H   0  0  0  0  0  0  0  0  0  0  0  0
   38.9870   29.0390   42.7920 C   0  0  0  0  0  3  0  0  0  0  0  0
   38.6930   27.7620   42.8180 C   0  0  0  0  0  3  0  0  0  0  0  0
   39.0160   31.1520   41.4560 C   0  0  0  0  0  0  0  0  0  0  0  0
   38.3430   30.0520   41.9820 C   0  0  0  0  0  0  0  0  0  0  0  0
   36.9840   29.9400   41.7050 C   0  0  0  0  0  0  0  0  0  0  0  0
   36.3720   30.9030   40.9360 N   0  0  0  0  0  0  0  0  0  0  0  0
   37.0690   31.9510   40.4490 C   0  0  0  0  0  0  0  0  0  0  0  0
   38.3820   32.0650   40.7140 N   0  0  0  0  0  0  0  0  0  0  0  0
   40.0750   31.2600   41.6590 H   0  0  0  0  0  0  0  0  0  0  0  0
   36.4150   29.0990   42.0940 H   0  0  0  0  0  0  0  0  0  0  0  0
   36.4320   32.6080   39.8680 H   0  0  0  0  0  0  0  0  0  0  0  0
  1  3  1  0  0  0  0
  1  2  1  0  0  0  0
  4 11  1  1  0  0  0
  4  5  1  0  0  0  0
  5  6  1  0  0  0  0
  5  7  1  0  0  0  0
  7  1  1  6  0  0  0
  8  7  1  0  0  0  0
  9  4  1  0  0  0  0
  9  8  1  0  0  0  0
 10  9  1  0  0  0  0
 11 12  1  0  0  0  0
 13 14  2  0  0  0  0
 14  1  1  0  0  0  0
 15 21  1  0  0  0  0
 15 16  1  0  0  0  0
 16 13  1  0  0  0  0
 17 16  2  0  0  0  0
 17 22  1  0  0  0  0
 18 17  1  0  0  0  0
 19 20  1  0  0  0  0
 19 18  2  0  0  0  0
 20 15  2  0  0  0  0
 23 19  1  0  0  0  0
M  END
>  <minimizedAffinity>
-4.24359608

$$$$

 OpenBabel03242517143D

 23 24  0  0  1  0  0  0  0  0999 V2000
   36.5870   27.3210   42.6000 C   0  0  0  0  0  0  0  0  0  0  0  0
   35.8500   27.1080   41.8120 H   0  0  0  0  0  0  0  0  0  0  0  0
   36.0530   27.4170   43.5650 H   0  0  0  0  0  0  0  0  0  0  0  0
   38.1760   24.1490   41.6680 C   0  0  1  0  0  3  0  0  0  0  0  0
   36.9730   24.8710   42.2890 C   0  0  0  0  0  3  0  0  0  0  0  0
   36.6240   24.2830   43.1430 H   0  0  0  0  0  0  0  0  0  0  0  0
   37.6080   26.1830   42.6380 C   0  0  1  0  0  3  0  0  0  0  0  0
   38.6220   26.4280   41.7300 O   0  0  0  0  0  0  0  0  0  0  0  0
   38.7420   25.3410   40.8860 C   0  0  0  0  0  3  0  0  0  0  0  0
   39.7730   25.1630   40.5800 H   0  0  0  0  0  0  0  0  0  0  0  0
   39.0940   23.8520   42.6520 O   0  0  0  0  0  0  0  0  0  0  0  0
   38.7470   23.2880   43.3900 H   0  0  0  0  0  0  0  0  0  0  0  0
   36.9360   29.5490   41.5790 C   0  0  0  0  0  3  0  0  0  0  0  0
   37.3940   28.5330   42.2680 C   0  0  0  0  0  3  0  0  0  0  0  0
   37.1030   31.8080   40.5210 C   0  0  0  0  0  0  0  0  0  0  0  0
   37.6670   30.7480   41.2270 C   0  0  0  0  0  0  0  0  0  0  0  0
   39.0010   30.8670   41.6030 C   0  0  0  0  0  0  0  0  0  0  0  0
   39.6960   32.0070   41.2680 N   0  0  0  0  0  0  0  0  0  0  0  0
   39.1030   33.0070   40.5830 C   0  0  0  0  0  0  0  0  0  0  0  0
   37.8140   32.8980   40.2160 N   0  0  0  0  0  0  0  0  0  0  0  0
   36.0650   31.7380   40.2170 H   0  0  0  0  0  0  0  0  0  0  0  0
   39.4870   30.0660   42.1550 H   0  0  0  0  0  0  0  0  0  0  0  0
   39.7950   33.8220   40.4060 H   0  0  0  0  0  0  0  0  0  0  0  0
  1  3  1  0  0  0  0
  2  1  1  0  0  0  0
  4  5  1  0  0  0  0
  4 11  1  1  0  0  0
  5  7  1  0  0  0  0
  5  6  1  0  0  0  0
  7  1  1  6  0  0  0
  8  7  1  0  0  0  0
  9  4  1  0  0  0  0
  9  8  1  0  0  0  0
 10  9  1  0  0  0  0
 11 12  1  0  0  0  0
 13 14  2  0  0  0  0
 14  1  1  0  0  0  0
 15 16  1  0  0  0  0
 16 13  1  0  0  0  0
 16 17  2  0  0  0  0
 17 22  1  0  0  0  0
 18 17  1  0  0  0  0
 19 18  2  0  0  0  0
 20 15  2  0  0  0  0
 20 19  1  0  0  0  0
 21 15  1  0  0  0  0
 23 19  1  0  0  0  0
M  END
>  <minimizedAffinity>
-4.20749807

$$$$

 OpenBabel03242517143D

 23 24  0  0  1  0  0  0  0  0999 V2000
   36.6280   29.9610   37.9990 C   0  0  0  0  0  0  0  0  0  0  0  0
   35.6000   29.9040   37.6150 H   0  0  0  0  0  0  0  0  0  0  0  0
   37.3290   29.7990   37.1580 H   0  0  0  0  0  0  0  0  0  0  0  0
   37.7730   32.4120   40.4760 C   0  0  1  0  0  3  0  0  0  0  0  0
   36.8500   31.2340   40.1380 C   0  0  0  0  0  3  0  0  0  0  0  0
   35.8840   31.4070   40.6230 H   0  0  0  0  0  0  0  0  0  0  0  0
   36.8370   31.3320   38.6430 C   0  0  1  0  0  3  0  0  0  0  0  0
   38.0460   31.8660   38.2350 O   0  0  0  0  0  0  0  0  0  0  0  0
   38.7920   32.1960   39.3490 C   0  0  0  0  0  3  0  0  0  0  0  0
   39.4060   33.0830   39.1930 H   0  0  0  0  0  0  0  0  0  0  0  0
   37.1270   33.5980   40.2000 O   0  0  0  0  0  0  0  0  0  0  0  0
   36.2730   33.7310   40.6850 H   0  0  0  0  0  0  0  0  0  0  0  0
   36.5020   27.7260   39.0570 C   0  0  0  0  0  3  0  0  0  0  0  0
   36.8400   28.9910   39.1160 C   0  0  0  0  0  3  0  0  0  0  0  0
   36.5890   25.3680   39.8830 C   0  0  0  0  0  0  0  0  0  0  0  0
   36.6810   26.7400   40.1020 C   0  0  0  0  0  0  0  0  0  0  0  0
   36.9600   27.1640   41.3980 C   0  0  0  0  0  0  0  0  0  0  0  0
   37.1300   26.2260   42.3910 N   0  0  0  0  0  0  0  0  0  0  0  0
   37.0310   24.9060   42.1260 C   0  0  0  0  0  0  0  0  0  0  0  0
   36.7610   24.4910   40.8760 N   0  0  0  0  0  0  0  0  0  0  0  0
   36.3720   25.0140   38.8810 H   0  0  0  0  0  0  0  0  0  0  0  0
   37.0420   28.2250   41.6200 H   0  0  0  0  0  0  0  0  0  0  0  0
   37.1920   24.3160   43.0200 H   0  0  0  0  0  0  0  0  0  0  0  0
  1 14  1  0  0  0  0
  2  1  1  0  0  0  0
  3  1  1  0  0  0  0
  4 11  1  6  0  0  0
  5  4  1  0  0  0  0
  5  6  1  0  0  0  0
  7  1  1  6  0  0  0
  7  5  1  0  0  0  0
  8  7  1  0  0  0  0
  8  9  1  0  0  0  0
  9  4  1  0  0  0  0
 10  9  1  0  0  0  0
 11 12  1  0  0  0  0
 13 14  2  0  0  0  0
 13 16  1  0  0  0  0
 15 16  2  0  0  0  0
 15 20  1  0  0  0  0
 16 17  1  0  0  0  0
 17 22  1  0  0  0  0
 17 18  2  0  0  0  0
 19 18  1  0  0  0  0
 19 23  1  0  0  0  0
 20 19  2  0  0  0  0
 21 15  1  0  0  0  0
M  END
>  <minimizedAffinity>
-4.16004801

$$$$

 OpenBabel03242517143D

 23 24  0  0  1  0  0  0  0  0999 V2000
   38.9690   33.2700   39.7460 C   0  0  0  0  0  0  0  0  0  0  0  0
   38.5280   34.1180   39.2030 H   0  0  0  0  0  0  0  0  0  0  0  0
   39.7150   33.6620   40.4650 H   0  0  0  0  0  0  0  0  0  0  0  0
   36.4890   30.6310   40.3300 C   0  0  1  0  0  3  0  0  0  0  0  0
   36.9460   31.8270   39.4830 C   0  0  0  0  0  3  0  0  0  0  0  0
   36.0600   32.4000   39.1930 H   0  0  0  0  0  0  0  0  0  0  0  0
   37.8520   32.5090   40.4620 C   0  0  1  0  0  3  0  0  0  0  0  0
   38.3950   31.5460   41.2930 O   0  0  0  0  0  0  0  0  0  0  0  0
   37.8430   30.3190   40.9800 C   0  0  0  0  0  3  0  0  0  0  0  0
   37.7260   29.6790   41.8550 H   0  0  0  0  0  0  0  0  0  0  0  0
   35.6600   31.0720   41.3390 O   0  0  0  0  0  0  0  0  0  0  0  0
   34.8510   31.5560   41.0330 H   0  0  0  0  0  0  0  0  0  0  0  0
   40.8390   32.1290   38.5940 C   0  0  0  0  0  3  0  0  0  0  0  0
   39.5530   32.2710   38.8020 C   0  0  0  0  0  3  0  0  0  0  0  0
   41.0250   29.8680   37.5410 C   0  0  0  0  0  0  0  0  0  0  0  0
   41.4640   31.1810   37.6950 C   0  0  0  0  0  0  0  0  0  0  0  0
   42.5610   31.5820   36.9390 C   0  0  0  0  0  0  0  0  0  0  0  0
   43.1560   30.6810   36.0850 N   0  0  0  0  0  0  0  0  0  0  0  0
   42.6910   29.4190   35.9710 C   0  0  0  0  0  0  0  0  0  0  0  0
   41.6320   29.0260   36.7000 N   0  0  0  0  0  0  0  0  0  0  0  0
   40.1720   29.5340   38.1210 H   0  0  0  0  0  0  0  0  0  0  0  0
   42.9420   32.5970   37.0240 H   0  0  0  0  0  0  0  0  0  0  0  0
   43.2760   28.8510   35.2580 H   0  0  0  0  0  0  0  0  0  0  0  0
  1  3  1  0  0  0  0
  2  1  1  0  0  0  0
  4  9  1  0  0  0  0
  4 11  1  1  0  0  0
  5  4  1  0  0  0  0
  5  7  1  0  0  0  0
  6  5  1  0  0  0  0
  7  1  1  6  0  0  0
  7  8  1  0  0  0  0
  9  8  1  0  0  0  0
  9 10  1  0  0  0  0
 12 11  1  0  0  0  0
 13 14  2  0  0  0  0
 14  1  1  0  0  0  0
 15 16  1  0  0  0  0
 15 21  1  0  0  0  0
 16 13  1  0  0  0  0
 17 22  1  0  0  0  0
 17 16  2  0  0  0  0
 18 17  1  0  0  0  0
 19 18  2  0  0  0  0
 19 20  1  0  0  0  0
 20 15  2  0  0  0  0
 23 19  1  0  0  0  0
M  END
>  <minimizedAffinity>
-4.08795881

$$$$

 OpenBabel03242517143D

 23 24  0  0  1  0  0  0  0  0999 V2000
   40.5400   32.1080   41.0190 C   0  0  0  0  0  0  0  0  0  0  0  0
   41.6140   32.1720   41.2460 H   0  0  0  0  0  0  0  0  0  0  0  0
   40.0320   32.9820   41.4700 H   0  0  0  0  0  0  0  0  0  0  0  0
   41.2780   32.8130   37.4950 C   0  0  1  0  0  3  0  0  0  0  0  0
   40.8560   33.3460   38.8710 C   0  0  0  0  0  3  0  0  0  0  0  0
   40.0970   34.1190   38.7200 H   0  0  0  0  0  0  0  0  0  0  0  0
   40.3580   32.0800   39.5000 C   0  0  1  0  0  3  0  0  0  0  0  0
   41.0650   31.0220   38.9590 O   0  0  0  0  0  0  0  0  0  0  0  0
   41.9090   31.5000   37.9760 C   0  0  0  0  0  3  0  0  0  0  0  0
   42.0340   30.7940   37.1540 H   0  0  0  0  0  0  0  0  0  0  0  0
   40.1570   32.4690   36.7710 O   0  0  0  0  0  0  0  0  0  0  0  0
   39.5110   33.2060   36.6270 H   0  0  0  0  0  0  0  0  0  0  0  0
   38.6840   30.5480   41.5180 C   0  0  0  0  0  3  0  0  0  0  0  0
   39.9680   30.8090   41.4840 C   0  0  0  0  0  3  0  0  0  0  0  0
   37.9080   28.9720   43.2980 C   0  0  0  0  0  0  0  0  0  0  0  0
   38.0700   29.3120   41.9570 C   0  0  0  0  0  0  0  0  0  0  0  0
   37.6120   28.4050   41.0060 C   0  0  0  0  0  0  0  0  0  0  0  0
   37.0290   27.2300   41.4240 N   0  0  0  0  0  0  0  0  0  0  0  0
   36.8950   26.9470   42.7370 C   0  0  0  0  0  0  0  0  0  0  0  0
   37.3360   27.8200   43.6590 N   0  0  0  0  0  0  0  0  0  0  0  0
   38.2570   29.6640   44.0560 H   0  0  0  0  0  0  0  0  0  0  0  0
   37.7150   28.6240   39.9470 H   0  0  0  0  0  0  0  0  0  0  0  0
   36.4160   25.9860   42.8820 H   0  0  0  0  0  0  0  0  0  0  0  0
  1  2  1  0  0  0  0
  1  3  1  0  0  0  0
  1 14  1  0  0  0  0
  4 11  1  6  0  0  0
  4  9  1  0  0  0  0
  4  5  1  0  0  0  0
  5  7  1  0  0  0  0
  6  5  1  0  0  0  0
  7  1  1  1  0  0  0
  8  7  1  0  0  0  0
  9  8  1  0  0  0  0
 10  9  1  0  0  0  0
 12 11  1  0  0  0  0
 13 16  1  0  0  0  0
 14 13  2  0  0  0  0
 15 20  1  0  0  0  0
 15 21  1  0  0  0  0
 16 15  2  0  0  0  0
 17 18  2  0  0  0  0
 17 16  1  0  0  0  0
 18 19  1  0  0  0  0
 19 23  1  0  0  0  0
 19 20  2  0  0  0  0
 22 17  1  0  0  0  0
M  END
>  <minimizedAffinity>
-4.03168917

$$$$

 OpenBabel03242517143D

 23 24  0  0  1  0  0  0  0  0999 V2000
   34.7790   29.1710   37.8720 C   0  0  0  0  0  0  0  0  0  0  0  0
   34.2970   30.1580   37.8290 H   0  0  0  0  0  0  0  0  0  0  0  0
   33.9930   28.3990   37.9870 H   0  0  0  0  0  0  0  0  0  0  0  0
   37.6510   28.2780   35.7720 C   0  0  1  0  0  3  0  0  0  0  0  0
   37.0420   29.2260   36.8140 C   0  0  0  0  0  3  0  0  0  0  0  0
   37.3700   30.2440   36.5830 H   0  0  0  0  0  0  0  0  0  0  0  0
   35.5850   28.9600   36.5900 C   0  0  1  0  0  3  0  0  0  0  0  0
   35.4450   27.6560   36.1530 O   0  0  0  0  0  0  0  0  0  0  0  0
   36.6990   27.0970   35.9990 C   0  0  0  0  0  3  0  0  0  0  0  0
   36.7410   26.3880   35.1710 H   0  0  0  0  0  0  0  0  0  0  0  0
   37.3900   28.7570   34.5060 O   0  0  0  0  0  0  0  0  0  0  0  0
   37.7330   29.6690   34.3260 H   0  0  0  0  0  0  0  0  0  0  0  0
   35.5180   28.8210   40.2090 C   0  0  0  0  0  3  0  0  0  0  0  0
   35.7980   29.1170   38.9640 C   0  0  0  0  0  3  0  0  0  0  0  0
   37.2960   29.8050   41.6650 C   0  0  0  0  0  0  0  0  0  0  0  0
   36.4580   28.7520   41.3080 C   0  0  0  0  0  0  0  0  0  0  0  0
   36.5440   27.5820   42.0570 C   0  0  0  0  0  0  0  0  0  0  0  0
   37.4390   27.5170   43.1010 N   0  0  0  0  0  0  0  0  0  0  0  0
   38.2290   28.5670   43.4080 C   0  0  0  0  0  0  0  0  0  0  0  0
   38.1500   29.6990   42.6870 N   0  0  0  0  0  0  0  0  0  0  0  0
   37.2460   30.7260   41.0960 H   0  0  0  0  0  0  0  0  0  0  0  0
   35.9120   26.7320   41.8180 H   0  0  0  0  0  0  0  0  0  0  0  0
   38.8680   28.3410   44.2530 H   0  0  0  0  0  0  0  0  0  0  0  0
  1  3  1  0  0  0  0
  1 14  1  0  0  0  0
  2  1  1  0  0  0  0
  4 11  1  6  0  0  0
  4  9  1  0  0  0  0
  4  5  1  0  0  0  0
  6  5  1  0  0  0  0
  7  5  1  0  0  0  0
  7  1  1  1  0  0  0
  8  7  1  0  0  0  0
  9  8  1  0  0  0  0
 10  9  1  0  0  0  0
 12 11  1  0  0  0  0
 13 16  1  0  0  0  0
 14 13  2  0  0  0  0
 15 20  1  0  0  0  0
 16 15  2  0  0  0  0
 16 17  1  0  0  0  0
 17 18  2  0  0  0  0
 18 19  1  0  0  0  0
 19 23  1  0  0  0  0
 20 19  2  0  0  0  0
 21 15  1  0  0  0  0
 22 17  1  0  0  0  0
M  END
>  <minimizedAffinity>
-4.02184963

$$$$
