
 OpenBabel03242517133D

 23 24  0  0  1  0  0  0  0  0999 V2000
   42.5570   35.1460   39.7950 C   0  0  0  0  0  0  0  0  0  0  0  0
   43.3470   34.8520   39.0900 H   0  0  0  0  0  0  0  0  0  0  0  0
   42.3480   36.2250   39.6600 H   0  0  0  0  0  0  0  0  0  0  0  0
   39.3420   33.5140   40.4720 C   0  0  1  0  0  3  0  0  0  0  0  0
   40.8460   33.6040   40.7650 C   0  0  0  0  0  3  0  0  0  0  0  0
   41.2300   32.5880   40.9010 H   0  0  0  0  0  0  0  0  0  0  0  0
   41.3130   34.2990   39.5220 C   0  0  1  0  0  3  0  0  0  0  0  0
   40.2850   35.1030   39.0630 O   0  0  0  0  0  0  0  0  0  0  0  0
   39.1750   34.9120   39.8620 C   0  0  0  0  0  3  0  0  0  0  0  0
   38.2410   34.9930   39.3030 H   0  0  0  0  0  0  0  0  0  0  0  0
   39.1250   32.6100   39.4520 O   0  0  0  0  0  0  0  0  0  0  0  0
   39.4560   31.6930   39.6300 H   0  0  0  0  0  0  0  0  0  0  0  0
   44.0500   35.1970   41.7700 C   0  0  0  0  0  3  0  0  0  0  0  0
   42.9350   34.8080   41.2010 C   0  0  0  0  0  3  0  0  0  0  0  0
   44.2770   35.7750   44.1920 C   0  0  0  0  0  0  0  0  0  0  0  0
   44.4710   34.9030   43.1230 C   0  0  0  0  0  0  0  0  0  0  0  0
   45.1040   33.6930   43.3910 C   0  0  0  0  0  0  0  0  0  0  0  0
   45.5050   33.4140   44.6780 N   0  0  0  0  0  0  0  0  0  0  0  0
   45.2930   34.2940   45.6800 C   0  0  0  0  0  0  0  0  0  0  0  0
   44.6830   35.4650   45.4260 N   0  0  0  0  0  0  0  0  0  0  0  0
   43.7860   36.7240   44.0060 H   0  0  0  0  0  0  0  0  0  0  0  0
   45.2780   32.9790   42.5910 H   0  0  0  0  0  0  0  0  0  0  0  0
   45.6710   33.9120   46.6210 H   0  0  0  0  0  0  0  0  0  0  0  0
  1 14  1  0  0  0  0
  2  1  1  0  0  0  0
  3  1  1  0  0  0  0
  4 11  1  6  0  0  0
  4  5  1  0  0  0  0
  5  6  1  0  0  0  0
  7  1  1  1  0  0  0
  7  5  1  0  0  0  0
  8  7  1  0  0  0  0
  8  9  1  0  0  0  0
  9  4  1  0  0  0  0
 10  9  1  0  0  0  0
 11 12  1  0  0  0  0
 13 16  1  0  0  0  0
 14 13  2  0  0  0  0
 15 20  1  0  0  0  0
 16 17  1  0  0  0  0
 16 15  2  0  0  0  0
 17 18  2  0  0  0  0
 18 19  1  0  0  0  0
 19 23  1  0  0  0  0
 20 19  2  0  0  0  0
 21 15  1  0  0  0  0
 22 17  1  0  0  0  0
M  END
>  <minimizedAffinity>
-4.35896301

>  <minimizedRMSD>
2.90880179

$$$$
