
 OpenBabel03242517133D

 23 24  0  0  1  0  0  0  0  0999 V2000
   42.7380   35.4790   41.6000 C   0  0  0  0  0  0  0  0  0  0  0  0
   42.6560   36.5580   41.4090 H   0  0  0  0  0  0  0  0  0  0  0  0
   42.4090   35.2790   42.6380 H   0  0  0  0  0  0  0  0  0  0  0  0
   39.8530   34.8190   39.4310 C   0  0  1  0  0  3  0  0  0  0  0  0
   40.4120   34.9520   40.8550 C   0  0  0  0  0  3  0  0  0  0  0  0
   39.9350   34.1920   41.4810 H   0  0  0  0  0  0  0  0  0  0  0  0
   41.8690   34.7330   40.5870 C   0  0  1  0  0  3  0  0  0  0  0  0
   42.1460   35.1800   39.3070 O   0  0  0  0  0  0  0  0  0  0  0  0
   40.9680   35.5880   38.7090 C   0  0  0  0  0  3  0  0  0  0  0  0
   40.9570   35.3900   37.6360 H   0  0  0  0  0  0  0  0  0  0  0  0
   39.9500   33.5070   39.0200 O   0  0  0  0  0  0  0  0  0  0  0  0
   39.4750   32.8530   39.5950 H   0  0  0  0  0  0  0  0  0  0  0  0
   45.1040   35.0660   42.2000 C   0  0  0  0  0  3  0  0  0  0  0  0
   44.1240   34.9890   41.3330 C   0  0  0  0  0  3  0  0  0  0  0  0
   47.3770   34.4500   43.0400 C   0  0  0  0  0  0  0  0  0  0  0  0
   46.4640   34.6090   42.0010 C   0  0  0  0  0  0  0  0  0  0  0  0
   46.9000   34.3100   40.7140 C   0  0  0  0  0  0  0  0  0  0  0  0
   48.1930   33.8770   40.5250 N   0  0  0  0  0  0  0  0  0  0  0  0
   49.0390   33.7380   41.5670 C   0  0  0  0  0  0  0  0  0  0  0  0
   48.6230   34.0260   42.8130 N   0  0  0  0  0  0  0  0  0  0  0  0
   47.0590   34.6770   44.0520 H   0  0  0  0  0  0  0  0  0  0  0  0
   46.2250   34.4190   39.8690 H   0  0  0  0  0  0  0  0  0  0  0  0
   50.0100   33.3890   41.2370 H   0  0  0  0  0  0  0  0  0  0  0  0
  1  3  1  0  0  0  0
  2  1  1  0  0  0  0
  4 11  1  6  0  0  0
  4  5  1  0  0  0  0
  5  6  1  0  0  0  0
  7  5  1  0  0  0  0
  7  1  1  1  0  0  0
  8  7  1  0  0  0  0
  9  8  1  0  0  0  0
  9  4  1  0  0  0  0
 10  9  1  0  0  0  0
 11 12  1  0  0  0  0
 14  1  1  0  0  0  0
 14 13  2  0  0  0  0
 15 21  1  0  0  0  0
 16 13  1  0  0  0  0
 16 15  2  0  0  0  0
 17 16  1  0  0  0  0
 18 17  2  0  0  0  0
 18 19  1  0  0  0  0
 19 20  2  0  0  0  0
 20 15  1  0  0  0  0
 22 17  1  0  0  0  0
 23 19  1  0  0  0  0
M  END
>  <minimizedAffinity>
-4.16779423

>  <minimizedRMSD>
3.44054937

$$$$
