
 OpenBabel03252507583D

 27 29  0  0  1  0  0  0  0  0999 V2000
   46.2610   32.6430   47.2980 C   0  0  1  0  0  0  0  0  0  0  0  0
   45.0290   32.5430   48.1380 C   0  0  0  0  0  0  0  0  0  0  0  0
   45.4910   31.3600   47.3740 C   0  0  2  0  0  0  0  0  0  0  0  0
   47.2190   32.8260   47.7890 H   0  0  0  0  0  0  0  0  0  0  0  0
   44.1200   33.0930   47.8020 H   0  0  0  0  0  0  0  0  0  0  0  0
   45.1990   32.6800   49.2220 H   0  0  0  0  0  0  0  0  0  0  0  0
   44.8240   31.0860   46.5030 H   0  0  0  0  0  0  0  0  0  0  0  0
   47.0830   33.5550   43.8400 C   0  0  0  0  0  0  0  0  0  0  0  0
   46.1100   34.5120   43.5170 C   0  0  0  0  0  0  0  0  0  0  0  0
   45.1530   34.8480   44.5080 C   0  0  0  0  0  0  0  0  0  0  0  0
   45.2390   34.2190   45.7120 N   0  0  0  0  0  0  0  0  0  0  0  0
   46.2120   33.2990   45.9540 C   0  0  0  0  0  0  0  0  0  0  0  0
   47.1250   32.9570   45.0540 N   0  0  0  0  0  0  0  0  0  0  0  0
   46.0540   35.0040   42.5570 H   0  0  0  0  0  0  0  0  0  0  0  0
   44.3800   35.5770   44.3200 H   0  0  0  0  0  0  0  0  0  0  0  0
   48.0020   33.2870   42.7840 C   0  0  0  0  0  0  0  0  0  0  0  0
   48.5140   34.1540   42.0120 O   0  0  0  0  0  0  0  0  0  0  0  0
   48.2980   32.2530   42.6190 H   0  0  0  0  0  0  0  0  0  0  0  0
   47.3670   29.6640   47.3540 C   0  0  2  0  0  3  0  0  0  0  0  0
   46.1190   30.1600   47.9950 C   0  0  2  0  0  3  0  0  0  0  0  0
   45.2150   28.9490   47.8930 C   0  0  0  0  0  3  0  0  0  0  0  0
   45.3920   28.2280   48.6930 H   0  0  0  0  0  0  0  0  0  0  0  0
   45.5100   28.4570   46.6220 O   0  0  0  0  0  0  0  0  0  0  0  0
   46.8580   28.6170   46.3930 C   0  0  0  0  0  3  0  0  0  0  0  0
   47.3390   27.6300   46.6090 H   0  0  0  0  0  0  0  0  0  0  0  0
   48.2180   29.0370   48.2950 O   0  0  0  0  0  0  0  0  0  0  0  0
   47.7360   28.6340   49.0380 H   0  0  0  0  0  0  0  0  0  0  0  0
  1  3  1  0  0  0  0
  1  4  1  1  0  0  0
  1  2  1  0  0  0  0
  2  6  1  0  0  0  0
  3  7  1  6  0  0  0
  3 20  1  0  0  0  0
  3  2  1  0  0  0  0
  5  2  1  0  0  0  0
  8 13  1  0  0  0  0
  9  8  2  0  0  0  0
  9 10  1  0  0  0  0
 10 11  2  0  0  0  0
 11 12  1  0  0  0  0
 12  1  1  0  0  0  0
 13 12  2  0  0  0  0
 14  9  1  0  0  0  0
 15 10  1  0  0  0  0
 16  8  1  0  0  0  0
 17 16  2  0  0  0  0
 18 16  1  0  0  0  0
 19 20  1  0  0  0  0
 19 26  1  1  0  0  0
 20 21  1  6  0  0  0
 21 22  1  0  0  0  0
 23 21  1  0  0  0  0
 24 25  1  0  0  0  0
 24 23  1  0  0  0  0
 24 19  1  0  0  0  0
 26 27  1  0  0  0  0
M  END
>  <minimizedAffinity>
-4.27738619

>  <minimizedRMSD>
2.03256106

$$$$
