
 OpenBabel03252501013D

 25 27  0  0  1  0  0  0  0  0999 V2000
   47.1030   34.8760   41.7030 C   0  0  1  0  0  0  0  0  0  0  0  0
   48.4680   35.5070   41.8690 C   0  0  0  0  0  0  0  0  0  0  0  0
   48.2620   33.9920   41.7000 C   0  0  2  0  0  0  0  0  0  0  0  0
   46.5600   35.0900   40.7620 H   0  0  0  0  0  0  0  0  0  0  0  0
   48.7730   36.1210   41.0220 H   0  0  0  0  0  0  0  0  0  0  0  0
   48.7390   35.9020   42.8650 H   0  0  0  0  0  0  0  0  0  0  0  0
   48.4440   33.4590   42.6860 H   0  0  0  0  0  0  0  0  0  0  0  0
   44.6060   35.9130   44.3300 C   0  0  0  0  0  0  0  0  0  0  0  0
   45.3220   35.9570   43.1210 C   0  0  0  0  0  0  0  0  0  0  0  0
   46.2700   34.9620   42.9570 C   0  0  0  0  0  0  0  0  0  0  0  0
   46.4540   34.0200   43.9430 N   0  0  0  0  0  0  0  0  0  0  0  0
   45.7380   34.0220   45.0890 C   0  0  0  0  0  0  0  0  0  0  0  0
   44.8080   34.9870   45.2650 N   0  0  0  0  0  0  0  0  0  0  0  0
   43.8490   36.6720   44.5110 H   0  0  0  0  0  0  0  0  0  0  0  0
   45.1620   36.7050   42.3590 H   0  0  0  0  0  0  0  0  0  0  0  0
   46.0430   33.1980   45.7200 H   0  0  0  0  0  0  0  0  0  0  0  0
   48.0110   33.7620   39.2690 C   0  0  2  0  0  0  0  0  0  0  0  0
   48.7750   33.2970   40.4900 C   0  0  2  0  0  0  0  0  0  0  0  0
   48.5590   31.8100   40.4370 C   0  0  0  0  0  0  0  0  0  0  0  0
   47.6220   31.4480   40.8660 H   0  0  0  0  0  0  0  0  0  0  0  0
   48.5100   31.4680   39.0880 O   0  0  0  0  0  0  0  0  0  0  0  0
   48.0490   32.5620   38.3850 C   0  0  0  0  0  0  0  0  0  0  0  0
   47.0020   32.3500   38.0680 H   0  0  0  0  0  0  0  0  0  0  0  0
   48.6190   34.8500   38.6670 O   0  0  0  0  0  0  0  0  0  0  0  0
   48.1450   35.0000   37.8090 H   0  0  0  0  0  0  0  0  0  0  0  0
  1  4  1  6  0  0  0
  1  2  1  0  0  0  0
  1 10  1  0  0  0  0
  2  6  1  0  0  0  0
  3  1  1  0  0  0  0
  3  2  1  0  0  0  0
  3  7  1  1  0  0  0
  5  2  1  0  0  0  0
  8 14  1  0  0  0  0
  8 13  1  0  0  0  0
  9  8  2  0  0  0  0
 10  9  1  0  0  0  0
 10 11  2  0  0  0  0
 11 12  1  0  0  0  0
 12 13  2  0  0  0  0
 12 16  1  0  0  0  0
 15  9  1  0  0  0  0
 17 24  1  6  0  0  0
 17 18  1  0  0  0  0
 18 19  1  1  0  0  0
 18  3  1  0  0  0  0
 19 20  1  0  0  0  0
 21 19  1  0  0  0  0
 22 21  1  0  0  0  0
 22 17  1  0  0  0  0
 23 22  1  0  0  0  0
 25 24  1  0  0  0  0
M  END
>  <minimizedAffinity>
-4.80041122

>  <minimizedRMSD>
0.320026517

$$$$
