
 OpenBabel03252505153D

 25 27  0  0  1  0  0  0  0  0999 V2000
   44.6860   36.1100   44.4130 C   0  0  0  0  0  0  0  0  0  0  0  0
   44.8320   36.0180   43.0180 C   0  0  0  0  0  0  0  0  0  0  0  0
   45.2300   34.7620   42.5510 C   0  0  0  0  0  0  0  0  0  0  0  0
   45.4460   33.7330   43.4360 N   0  0  0  0  0  0  0  0  0  0  0  0
   45.2850   33.8890   44.7740 C   0  0  0  0  0  0  0  0  0  0  0  0
   44.9040   35.0840   45.2510 N   0  0  0  0  0  0  0  0  0  0  0  0
   44.3770   37.0620   44.8520 H   0  0  0  0  0  0  0  0  0  0  0  0
   44.6570   36.8350   42.3580 H   0  0  0  0  0  0  0  0  0  0  0  0
   45.4030   34.5230   41.0770 C   0  0  0  0  0  0  0  0  0  0  0  0
   46.8440   34.2520   40.7000 C   0  0  0  0  0  0  0  0  0  0  0  0
   45.7220   33.1730   40.6360 C   0  0  0  0  0  0  0  0  0  0  0  0
   44.8440   35.2310   40.4360 H   0  0  0  0  0  0  0  0  0  0  0  0
   47.1440   34.6640   39.7150 H   0  0  0  0  0  0  0  0  0  0  0  0
   47.6030   34.1610   41.4790 H   0  0  0  0  0  0  0  0  0  0  0  0
   45.8640   32.3860   41.4320 H   0  0  0  0  0  0  0  0  0  0  0  0
   45.4880   32.7890   39.6250 H   0  0  0  0  0  0  0  0  0  0  0  0
   46.9610   32.1290   45.1550 C   0  0  2  0  0  3  0  0  0  0  0  0
   45.5780   32.6320   45.5090 C   0  0  1  0  0  3  0  0  0  0  0  0
   45.7380   32.9070   46.9990 C   0  0  0  0  0  3  0  0  0  0  0  0
   44.9640   32.3670   47.5670 H   0  0  0  0  0  0  0  0  0  0  0  0
   46.9960   32.4760   47.3670 O   0  0  0  0  0  0  0  0  0  0  0  0
   47.3830   31.4960   46.4850 C   0  0  0  0  0  3  0  0  0  0  0  0
   46.7590   30.6110   46.6740 H   0  0  0  0  0  0  0  0  0  0  0  0
   47.8080   33.1430   44.7840 O   0  0  0  0  0  0  0  0  0  0  0  0
   48.7630   32.9640   45.0420 H   0  0  0  0  0  0  0  0  0  0  0  0
  1  7  1  0  0  0  0
  1  6  1  0  0  0  0
  2  1  2  0  0  0  0
  3  2  1  0  0  0  0
  3  4  2  0  0  0  0
  4  5  1  0  0  0  0
  5  6  2  0  0  0  0
  8  2  1  0  0  0  0
  9  3  1  0  0  0  0
 10  9  1  0  0  0  0
 10 14  1  0  0  0  0
 11 10  1  0  0  0  0
 11  9  1  0  0  0  0
 11 15  1  0  0  0  0
 12  9  1  0  0  0  0
 13 10  1  0  0  0  0
 16 11  1  0  0  0  0
 17 24  1  1  0  0  0
 17 18  1  0  0  0  0
 17 22  1  0  0  0  0
 18  5  1  6  0  0  0
 18 19  1  0  0  0  0
 19 21  1  0  0  0  0
 19 20  1  0  0  0  0
 22 23  1  0  0  0  0
 22 21  1  0  0  0  0
 24 25  1  0  0  0  0
M  END
>  <minimizedAffinity>
-4.12582254

>  <minimizedRMSD>
1.34588504

$$$$
