
 OpenBabel03242516103D

 25 27  0  0  1  0  0  0  0  0999 V2000
   37.0040   27.4970   42.3700 C   0  0  0  0  0  0  0  0  0  0  0  0
   36.2770   27.5060   43.6790 C   0  0  0  0  0  0  0  0  0  0  0  0
   37.5330   28.2530   43.5210 C   0  0  0  0  0  0  0  0  0  0  0  0
   36.2470   26.5310   44.2050 H   0  0  0  0  0  0  0  0  0  0  0  0
   35.3310   28.0590   43.7830 H   0  0  0  0  0  0  0  0  0  0  0  0
   38.4150   27.7840   44.0480 H   0  0  0  0  0  0  0  0  0  0  0  0
   37.5850   29.3510   43.5600 H   0  0  0  0  0  0  0  0  0  0  0  0
   38.9840   26.2450   41.5230 C   0  0  0  0  0  0  0  0  0  0  0  0
   37.6590   26.2420   41.9440 C   0  0  0  0  0  0  0  0  0  0  0  0
   36.9980   25.0130   41.9750 C   0  0  0  0  0  0  0  0  0  0  0  0
   37.6750   23.8820   41.5940 N   0  0  0  0  0  0  0  0  0  0  0  0
   38.9540   23.9230   41.1930 C   0  0  0  0  0  0  0  0  0  0  0  0
   39.6040   25.1000   41.1580 N   0  0  0  0  0  0  0  0  0  0  0  0
   39.5930   27.1210   41.4510 H   0  0  0  0  0  0  0  0  0  0  0  0
   35.9860   25.0250   42.2980 H   0  0  0  0  0  0  0  0  0  0  0  0
   39.4070   22.9800   40.9120 H   0  0  0  0  0  0  0  0  0  0  0  0
   36.7350   29.5680   41.0950 C   0  0  1  0  0  3  0  0  0  0  0  0
   36.2480   28.1470   41.2540 C   0  0  1  0  0  3  0  0  0  0  0  0
   36.3360   27.5160   39.9180 C   0  0  0  0  0  3  0  0  0  0  0  0
   37.2990   27.1700   39.5730 H   0  0  0  0  0  0  0  0  0  0  0  0
   36.0090   28.6140   39.0850 O   0  0  0  0  0  0  0  0  0  0  0  0
   36.7330   29.6900   39.5770 C   0  0  0  0  0  3  0  0  0  0  0  0
   36.2710   30.6470   39.3310 H   0  0  0  0  0  0  0  0  0  0  0  0
   35.8540   30.4990   41.6540 O   0  0  0  0  0  0  0  0  0  0  0  0
   34.9250   30.3330   41.3290 H   0  0  0  0  0  0  0  0  0  0  0  0
  1  3  1  0  0  0  0
  1  2  1  0  0  0  0
  2  5  1  0  0  0  0
  2  4  1  0  0  0  0
  3  7  1  0  0  0  0
  3  2  1  0  0  0  0
  3  6  1  0  0  0  0
  8  9  1  0  0  0  0
  9 10  2  0  0  0  0
  9  1  1  0  0  0  0
 10 15  1  0  0  0  0
 11 10  1  0  0  0  0
 12 11  2  0  0  0  0
 13 12  1  0  0  0  0
 13  8  2  0  0  0  0
 14  8  1  0  0  0  0
 16 12  1  0  0  0  0
 17 18  1  0  0  0  0
 17 24  1  1  0  0  0
 18  1  1  1  0  0  0
 19 18  1  0  0  0  0
 20 19  1  0  0  0  0
 21 22  1  0  0  0  0
 21 19  1  0  0  0  0
 22 17  1  0  0  0  0
 23 22  1  0  0  0  0
 25 24  1  0  0  0  0
M  END
>  <minimizedAffinity>
-4.82155514

$$$$

 OpenBabel03242516103D

 25 27  0  0  1  0  0  0  0  0999 V2000
   38.1890   32.3200   39.7600 C   0  0  0  0  0  0  0  0  0  0  0  0
   37.2420   33.4500   39.4970 C   0  0  0  0  0  0  0  0  0  0  0  0
   37.2430   32.2620   38.6290 C   0  0  0  0  0  0  0  0  0  0  0  0
   37.7200   34.3980   39.1800 H   0  0  0  0  0  0  0  0  0  0  0  0
   36.3880   33.6230   40.1690 H   0  0  0  0  0  0  0  0  0  0  0  0
   37.6930   32.4410   37.6080 H   0  0  0  0  0  0  0  0  0  0  0  0
   36.3980   31.5610   38.5730 H   0  0  0  0  0  0  0  0  0  0  0  0
   40.2930   31.8300   38.5200 C   0  0  0  0  0  0  0  0  0  0  0  0
   39.6290   32.5450   39.5110 C   0  0  0  0  0  0  0  0  0  0  0  0
   40.3670   33.4890   40.2250 C   0  0  0  0  0  0  0  0  0  0  0  0
   41.6920   33.6670   39.9220 N   0  0  0  0  0  0  0  0  0  0  0  0
   42.3000   32.9600   38.9580 C   0  0  0  0  0  0  0  0  0  0  0  0
   41.6030   32.0450   38.2610 N   0  0  0  0  0  0  0  0  0  0  0  0
   39.8390   31.0770   37.9100 H   0  0  0  0  0  0  0  0  0  0  0  0
   39.8470   34.0270   40.9790 H   0  0  0  0  0  0  0  0  0  0  0  0
   43.3500   33.1690   38.7880 H   0  0  0  0  0  0  0  0  0  0  0  0
   36.8310   30.6100   40.8630 C   0  0  1  0  0  3  0  0  0  0  0  0
   37.9430   31.6140   41.0560 C   0  0  1  0  0  3  0  0  0  0  0  0
   39.0790   30.8790   41.6540 C   0  0  0  0  0  3  0  0  0  0  0  0
   39.7040   30.2800   41.0080 H   0  0  0  0  0  0  0  0  0  0  0  0
   38.3930   29.9540   42.4790 O   0  0  0  0  0  0  0  0  0  0  0  0
   37.3580   29.4530   41.7020 C   0  0  0  0  0  3  0  0  0  0  0  0
   36.5260   29.0880   42.3080 H   0  0  0  0  0  0  0  0  0  0  0  0
   35.6110   31.0600   41.3770 O   0  0  0  0  0  0  0  0  0  0  0  0
   35.7290   31.3840   42.3130 H   0  0  0  0  0  0  0  0  0  0  0  0
  2  1  1  0  0  0  0
  2  5  1  0  0  0  0
  3  2  1  0  0  0  0
  3  1  1  0  0  0  0
  4  2  1  0  0  0  0
  6  3  1  0  0  0  0
  7  3  1  0  0  0  0
  8  9  1  0  0  0  0
  9  1  1  0  0  0  0
  9 10  2  0  0  0  0
 10 15  1  0  0  0  0
 11 10  1  0  0  0  0
 12 11  2  0  0  0  0
 13  8  2  0  0  0  0
 13 12  1  0  0  0  0
 14  8  1  0  0  0  0
 16 12  1  0  0  0  0
 17 18  1  0  0  0  0
 17 24  1  1  0  0  0
 17 22  1  0  0  0  0
 18  1  1  6  0  0  0
 18 19  1  0  0  0  0
 19 21  1  0  0  0  0
 20 19  1  0  0  0  0
 22 23  1  0  0  0  0
 22 21  1  0  0  0  0
 24 25  1  0  0  0  0
M  END
>  <minimizedAffinity>
-4.48511696

$$$$

 OpenBabel03242516103D

 25 27  0  0  1  0  0  0  0  0999 V2000
   36.5920   29.2080   40.2390 C   0  0  0  0  0  0  0  0  0  0  0  0
   35.1390   28.9630   40.5040 C   0  0  0  0  0  0  0  0  0  0  0  0
   35.7640   28.4670   39.2690 C   0  0  0  0  0  0  0  0  0  0  0  0
   34.5030   29.8710   40.5060 H   0  0  0  0  0  0  0  0  0  0  0  0
   34.8320   28.2430   41.2780 H   0  0  0  0  0  0  0  0  0  0  0  0
   35.4670   29.0410   38.3420 H   0  0  0  0  0  0  0  0  0  0  0  0
   35.8880   27.3960   39.0500 H   0  0  0  0  0  0  0  0  0  0  0  0
   37.6250   31.3690   40.9230 C   0  0  0  0  0  0  0  0  0  0  0  0
   37.0230   30.5900   39.9410 C   0  0  0  0  0  0  0  0  0  0  0  0
   36.8770   31.1560   38.6730 C   0  0  0  0  0  0  0  0  0  0  0  0
   37.3260   32.4340   38.4580 N   0  0  0  0  0  0  0  0  0  0  0  0
   37.9020   33.1560   39.4310 C   0  0  0  0  0  0  0  0  0  0  0  0
   38.0490   32.6260   40.6570 N   0  0  0  0  0  0  0  0  0  0  0  0
   37.7870   31.0510   41.9320 H   0  0  0  0  0  0  0  0  0  0  0  0
   36.4160   30.5500   37.9330 H   0  0  0  0  0  0  0  0  0  0  0  0
   38.2260   34.1560   39.1680 H   0  0  0  0  0  0  0  0  0  0  0  0
   36.7220   28.1610   42.4460 C   0  0  1  0  0  3  0  0  0  0  0  0
   37.5060   28.5270   41.2080 C   0  0  1  0  0  3  0  0  0  0  0  0
   38.1790   27.2910   40.7510 C   0  0  0  0  0  3  0  0  0  0  0  0
   37.6040   26.5640   40.1970 H   0  0  0  0  0  0  0  0  0  0  0  0
   38.4720   26.6730   41.9920 O   0  0  0  0  0  0  0  0  0  0  0  0
   37.3190   26.7930   42.7540 C   0  0  0  0  0  3  0  0  0  0  0  0
   37.5260   26.7650   43.8240 H   0  0  0  0  0  0  0  0  0  0  0  0
   36.9610   29.0390   43.5070 O   0  0  0  0  0  0  0  0  0  0  0  0
   37.9420   29.1520   43.6480 H   0  0  0  0  0  0  0  0  0  0  0  0
  1  2  1  0  0  0  0
  2  4  1  0  0  0  0
  2  5  1  0  0  0  0
  3  1  1  0  0  0  0
  3  2  1  0  0  0  0
  6  3  1  0  0  0  0
  7  3  1  0  0  0  0
  8 14  1  0  0  0  0
  9  1  1  0  0  0  0
  9  8  2  0  0  0  0
 10  9  1  0  0  0  0
 11 10  2  0  0  0  0
 11 12  1  0  0  0  0
 12 13  2  0  0  0  0
 13  8  1  0  0  0  0
 15 10  1  0  0  0  0
 16 12  1  0  0  0  0
 17 22  1  0  0  0  0
 17 24  1  1  0  0  0
 18  1  1  6  0  0  0
 18 17  1  0  0  0  0
 19 18  1  0  0  0  0
 19 21  1  0  0  0  0
 20 19  1  0  0  0  0
 21 22  1  0  0  0  0
 22 23  1  0  0  0  0
 24 25  1  0  0  0  0
M  END
>  <minimizedAffinity>
-4.417068

$$$$

 OpenBabel03242516103D

 25 27  0  0  1  0  0  0  0  0999 V2000
   36.0190   28.9730   39.9810 C   0  0  0  0  0  0  0  0  0  0  0  0
   35.1570   28.7150   38.7840 C   0  0  0  0  0  0  0  0  0  0  0  0
   34.5800   29.2980   40.0040 C   0  0  0  0  0  0  0  0  0  0  0  0
   35.0150   27.6460   38.5300 H   0  0  0  0  0  0  0  0  0  0  0  0
   35.2590   29.3420   37.8850 H   0  0  0  0  0  0  0  0  0  0  0  0
   33.9290   28.5830   40.5890 H   0  0  0  0  0  0  0  0  0  0  0  0
   34.1850   30.3230   40.0480 H   0  0  0  0  0  0  0  0  0  0  0  0
   36.5720   27.8350   42.1270 C   0  0  0  0  0  0  0  0  0  0  0  0
   36.5280   27.8090   40.7370 C   0  0  0  0  0  0  0  0  0  0  0  0
   36.9500   26.6390   40.1040 C   0  0  0  0  0  0  0  0  0  0  0  0
   37.3830   25.5860   40.8680 N   0  0  0  0  0  0  0  0  0  0  0  0
   37.4120   25.6470   42.2080 C   0  0  0  0  0  0  0  0  0  0  0  0
   37.0090   26.7670   42.8330 N   0  0  0  0  0  0  0  0  0  0  0  0
   36.2820   28.6730   42.7250 H   0  0  0  0  0  0  0  0  0  0  0  0
   36.9120   26.6330   39.0430 H   0  0  0  0  0  0  0  0  0  0  0  0
   37.7680   24.7660   42.7280 H   0  0  0  0  0  0  0  0  0  0  0  0
   37.0690   30.9780   40.9100 C   0  0  1  0  0  3  0  0  0  0  0  0
   37.0770   30.0060   39.7530 C   0  0  1  0  0  3  0  0  0  0  0  0
   38.4710   29.5280   39.6100 C   0  0  0  0  0  3  0  0  0  0  0  0
   38.8260   28.7620   40.2830 H   0  0  0  0  0  0  0  0  0  0  0  0
   39.1900   30.6990   39.9570 O   0  0  0  0  0  0  0  0  0  0  0  0
   38.5650   31.2030   41.0890 C   0  0  0  0  0  3  0  0  0  0  0  0
   38.7190   32.2770   41.2020 H   0  0  0  0  0  0  0  0  0  0  0  0
   36.4370   32.1820   40.5890 O   0  0  0  0  0  0  0  0  0  0  0  0
   36.8020   32.5470   39.7350 H   0  0  0  0  0  0  0  0  0  0  0  0
  1  3  1  0  0  0  0
  1  9  1  0  0  0  0
  2  1  1  0  0  0  0
  2  3  1  0  0  0  0
  3  7  1  0  0  0  0
  3  6  1  0  0  0  0
  4  2  1  0  0  0  0
  5  2  1  0  0  0  0
  8 14  1  0  0  0  0
  8 13  1  0  0  0  0
  9  8  2  0  0  0  0
 10  9  1  0  0  0  0
 10 11  2  0  0  0  0
 11 12  1  0  0  0  0
 12 16  1  0  0  0  0
 12 13  2  0  0  0  0
 15 10  1  0  0  0  0
 17 24  1  6  0  0  0
 17 22  1  0  0  0  0
 18  1  1  1  0  0  0
 18 17  1  0  0  0  0
 19 18  1  0  0  0  0
 19 21  1  0  0  0  0
 19 20  1  0  0  0  0
 21 22  1  0  0  0  0
 22 23  1  0  0  0  0
 25 24  1  0  0  0  0
M  END
>  <minimizedAffinity>
-4.38580465

$$$$

 OpenBabel03242516103D

 25 27  0  0  1  0  0  0  0  0999 V2000
   37.1870   27.3190   42.3630 C   0  0  0  0  0  0  0  0  0  0  0  0
   37.7160   27.8150   43.6730 C   0  0  0  0  0  0  0  0  0  0  0  0
   36.3280   27.3420   43.5620 C   0  0  0  0  0  0  0  0  0  0  0  0
   37.9580   28.8960   43.7020 H   0  0  0  0  0  0  0  0  0  0  0  0
   38.4440   27.2130   44.2380 H   0  0  0  0  0  0  0  0  0  0  0  0
   35.5580   28.1700   43.5940 H   0  0  0  0  0  0  0  0  0  0  0  0
   35.9610   26.4390   44.0690 H   0  0  0  0  0  0  0  0  0  0  0  0
   35.7290   28.8950   41.0990 C   0  0  0  0  0  0  0  0  0  0  0  0
   36.9740   28.3030   41.2800 C   0  0  0  0  0  0  0  0  0  0  0  0
   38.0030   28.6990   40.4250 C   0  0  0  0  0  0  0  0  0  0  0  0
   37.7430   29.6390   39.4600 N   0  0  0  0  0  0  0  0  0  0  0  0
   36.5280   30.1890   39.3150 C   0  0  0  0  0  0  0  0  0  0  0  0
   35.5260   29.8170   40.1300 N   0  0  0  0  0  0  0  0  0  0  0  0
   34.8620   28.6710   41.6850 H   0  0  0  0  0  0  0  0  0  0  0  0
   38.9490   28.2400   40.5730 H   0  0  0  0  0  0  0  0  0  0  0  0
   36.4170   30.9230   38.5260 H   0  0  0  0  0  0  0  0  0  0  0  0
   39.2050   25.9480   42.5410 C   0  0  1  0  0  3  0  0  0  0  0  0
   37.8560   26.0750   41.8720 C   0  0  1  0  0  3  0  0  0  0  0  0
   37.1510   24.7930   42.0940 C   0  0  0  0  0  3  0  0  0  0  0  0
   36.6830   24.6200   43.0520 H   0  0  0  0  0  0  0  0  0  0  0  0
   38.2330   23.8800   42.0330 O   0  0  0  0  0  0  0  0  0  0  0  0
   39.2470   24.4460   42.7920 C   0  0  0  0  0  3  0  0  0  0  0  0
   40.2340   24.0950   42.4890 H   0  0  0  0  0  0  0  0  0  0  0  0
   40.2550   26.3240   41.6990 O   0  0  0  0  0  0  0  0  0  0  0  0
   40.1760   25.8600   40.8190 H   0  0  0  0  0  0  0  0  0  0  0  0
  1  3  1  0  0  0  0
  1  2  1  0  0  0  0
  2  4  1  0  0  0  0
  2  5  1  0  0  0  0
  3  6  1  0  0  0  0
  3  2  1  0  0  0  0
  3  7  1  0  0  0  0
  8  9  1  0  0  0  0
  8 14  1  0  0  0  0
  9  1  1  0  0  0  0
 10 15  1  0  0  0  0
 10  9  2  0  0  0  0
 11 10  1  0  0  0  0
 12 11  2  0  0  0  0
 12 13  1  0  0  0  0
 13  8  2  0  0  0  0
 16 12  1  0  0  0  0
 17 24  1  6  0  0  0
 17 22  1  0  0  0  0
 18 19  1  0  0  0  0
 18  1  1  1  0  0  0
 18 17  1  0  0  0  0
 19 20  1  0  0  0  0
 21 19  1  0  0  0  0
 21 22  1  0  0  0  0
 23 22  1  0  0  0  0
 25 24  1  0  0  0  0
M  END
>  <minimizedAffinity>
-4.37359953

$$$$

 OpenBabel03242516103D

 25 27  0  0  1  0  0  0  0  0999 V2000
   37.8680   31.0080   39.1140 C   0  0  0  0  0  0  0  0  0  0  0  0
   37.9640   30.2200   37.8440 C   0  0  0  0  0  0  0  0  0  0  0  0
   36.6530   30.6250   38.3700 C   0  0  0  0  0  0  0  0  0  0  0  0
   38.3400   29.1840   37.9620 H   0  0  0  0  0  0  0  0  0  0  0  0
   38.3460   30.6950   36.9270 H   0  0  0  0  0  0  0  0  0  0  0  0
   36.0550   29.7760   38.8160 H   0  0  0  0  0  0  0  0  0  0  0  0
   35.9980   31.3440   37.8560 H   0  0  0  0  0  0  0  0  0  0  0  0
   37.2510   30.1990   41.3880 C   0  0  0  0  0  0  0  0  0  0  0  0
   38.2030   30.3270   40.3830 C   0  0  0  0  0  0  0  0  0  0  0  0
   39.4600   29.7660   40.6140 C   0  0  0  0  0  0  0  0  0  0  0  0
   39.6940   29.1230   41.8030 N   0  0  0  0  0  0  0  0  0  0  0  0
   38.7500   29.0180   42.7500 C   0  0  0  0  0  0  0  0  0  0  0  0
   37.5350   29.5550   42.5430 N   0  0  0  0  0  0  0  0  0  0  0  0
   36.2570   30.5910   41.3320 H   0  0  0  0  0  0  0  0  0  0  0  0
   40.1780   29.8710   39.8390 H   0  0  0  0  0  0  0  0  0  0  0  0
   39.0260   28.4920   43.6570 H   0  0  0  0  0  0  0  0  0  0  0  0
   37.6740   33.3190   39.8910 C   0  0  1  0  0  3  0  0  0  0  0  0
   38.4730   32.3720   39.0270 C   0  0  1  0  0  3  0  0  0  0  0  0
   39.8880   32.5140   39.4380 C   0  0  0  0  0  3  0  0  0  0  0  0
   40.2180   32.0090   40.3340 H   0  0  0  0  0  0  0  0  0  0  0  0
   39.9380   33.8960   39.7450 O   0  0  0  0  0  0  0  0  0  0  0  0
   38.7950   34.1590   40.4880 C   0  0  0  0  0  3  0  0  0  0  0  0
   38.4890   35.2040   40.4180 H   0  0  0  0  0  0  0  0  0  0  0  0
   36.8140   34.1270   39.1420 O   0  0  0  0  0  0  0  0  0  0  0  0
   37.3110   34.5590   38.3920 H   0  0  0  0  0  0  0  0  0  0  0  0
  1  9  1  0  0  0  0
  2  4  1  0  0  0  0
  2  3  1  0  0  0  0
  2  1  1  0  0  0  0
  3  6  1  0  0  0  0
  3  1  1  0  0  0  0
  5  2  1  0  0  0  0
  7  3  1  0  0  0  0
  8 13  1  0  0  0  0
  9 10  1  0  0  0  0
  9  8  2  0  0  0  0
 10 11  2  0  0  0  0
 11 12  1  0  0  0  0
 12 16  1  0  0  0  0
 13 12  2  0  0  0  0
 14  8  1  0  0  0  0
 15 10  1  0  0  0  0
 17 24  1  6  0  0  0
 17 22  1  0  0  0  0
 18  1  1  1  0  0  0
 18 19  1  0  0  0  0
 18 17  1  0  0  0  0
 19 21  1  0  0  0  0
 19 20  1  0  0  0  0
 21 22  1  0  0  0  0
 23 22  1  0  0  0  0
 25 24  1  0  0  0  0
M  END
>  <minimizedAffinity>
-4.31249714

$$$$

 OpenBabel03242516103D

 25 27  0  0  1  0  0  0  0  0999 V2000
   37.2850   27.2670   42.2000 C   0  0  0  0  0  0  0  0  0  0  0  0
   37.9680   27.4420   43.5220 C   0  0  0  0  0  0  0  0  0  0  0  0
   36.5470   27.0680   43.4620 C   0  0  0  0  0  0  0  0  0  0  0  0
   38.2830   28.4790   43.7520 H   0  0  0  0  0  0  0  0  0  0  0  0
   38.7050   26.7010   43.8660 H   0  0  0  0  0  0  0  0  0  0  0  0
   35.8410   27.9020   43.7500 H   0  0  0  0  0  0  0  0  0  0  0  0
   36.1710   26.0930   43.8040 H   0  0  0  0  0  0  0  0  0  0  0  0
   35.7490   28.7840   40.9570 C   0  0  0  0  0  0  0  0  0  0  0  0
   37.0370   28.4710   41.3790 C   0  0  0  0  0  0  0  0  0  0  0  0
   38.0600   29.3500   41.0220 C   0  0  0  0  0  0  0  0  0  0  0  0
   37.7550   30.4640   40.2830 N   0  0  0  0  0  0  0  0  0  0  0  0
   36.5000   30.7340   39.8940 C   0  0  0  0  0  0  0  0  0  0  0  0
   35.5030   29.8970   40.2290 N   0  0  0  0  0  0  0  0  0  0  0  0
   34.8850   28.1870   41.1610 H   0  0  0  0  0  0  0  0  0  0  0  0
   39.0380   29.0990   41.3510 H   0  0  0  0  0  0  0  0  0  0  0  0
   36.3530   31.6370   39.3140 H   0  0  0  0  0  0  0  0  0  0  0  0
   37.0710   24.8710   41.7560 C   0  0  1  0  0  3  0  0  0  0  0  0
   37.8210   26.1300   41.3890 C   0  0  1  0  0  3  0  0  0  0  0  0
   37.7470   26.2540   39.9160 C   0  0  0  0  0  3  0  0  0  0  0  0
   36.8400   26.6410   39.4750 H   0  0  0  0  0  0  0  0  0  0  0  0
   37.8020   24.8910   39.5320 O   0  0  0  0  0  0  0  0  0  0  0  0
   36.9330   24.2250   40.3840 C   0  0  0  0  0  3  0  0  0  0  0  0
   37.1910   23.1700   40.4960 H   0  0  0  0  0  0  0  0  0  0  0  0
   37.8060   24.0410   42.6070 O   0  0  0  0  0  0  0  0  0  0  0  0
   38.7220   23.8940   42.2390 H   0  0  0  0  0  0  0  0  0  0  0  0
  1  3  1  0  0  0  0
  1  2  1  0  0  0  0
  2  4  1  0  0  0  0
  2  5  1  0  0  0  0
  3  2  1  0  0  0  0
  3  6  1  0  0  0  0
  3  7  1  0  0  0  0
  8 14  1  0  0  0  0
  8  9  1  0  0  0  0
  9  1  1  0  0  0  0
 10 15  1  0  0  0  0
 10  9  2  0  0  0  0
 11 10  1  0  0  0  0
 12 13  1  0  0  0  0
 12 11  2  0  0  0  0
 13  8  2  0  0  0  0
 16 12  1  0  0  0  0
 17 24  1  1  0  0  0
 18 17  1  0  0  0  0
 18  1  1  1  0  0  0
 19 18  1  0  0  0  0
 20 19  1  0  0  0  0
 21 19  1  0  0  0  0
 21 22  1  0  0  0  0
 22 23  1  0  0  0  0
 22 17  1  0  0  0  0
 25 24  1  0  0  0  0
M  END
>  <minimizedAffinity>
-4.29943419

$$$$

 OpenBabel03242516103D

 25 27  0  0  1  0  0  0  0  0999 V2000
   38.6370   30.0080   40.9200 C   0  0  0  0  0  0  0  0  0  0  0  0
   38.6550   29.0520   39.7670 C   0  0  0  0  0  0  0  0  0  0  0  0
   39.8500   29.2300   40.6050 C   0  0  0  0  0  0  0  0  0  0  0  0
   38.5750   29.5230   38.7670 H   0  0  0  0  0  0  0  0  0  0  0  0
   38.0940   28.1070   39.8240 H   0  0  0  0  0  0  0  0  0  0  0  0
   40.6820   29.8070   40.1020 H   0  0  0  0  0  0  0  0  0  0  0  0
   40.2520   28.4360   41.2500 H   0  0  0  0  0  0  0  0  0  0  0  0
   37.4440   32.0260   40.0770 C   0  0  0  0  0  0  0  0  0  0  0  0
   38.5880   31.4560   40.6250 C   0  0  0  0  0  0  0  0  0  0  0  0
   39.6580   32.3070   40.9060 C   0  0  0  0  0  0  0  0  0  0  0  0
   39.5340   33.6450   40.6330 N   0  0  0  0  0  0  0  0  0  0  0  0
   38.4140   34.1610   40.1040 C   0  0  0  0  0  0  0  0  0  0  0  0
   37.3750   33.3540   39.8270 N   0  0  0  0  0  0  0  0  0  0  0  0
   36.5630   31.4790   39.8130 H   0  0  0  0  0  0  0  0  0  0  0  0
   40.5250   31.8590   41.3230 H   0  0  0  0  0  0  0  0  0  0  0  0
   38.4070   35.2290   39.9230 H   0  0  0  0  0  0  0  0  0  0  0  0
   36.6200   28.7230   41.4350 C   0  0  1  0  0  3  0  0  0  0  0  0
   37.6900   29.6210   42.0110 C   0  0  1  0  0  3  0  0  0  0  0  0
   38.2550   28.9120   43.1800 C   0  0  0  0  0  3  0  0  0  0  0  0
   38.9770   28.1270   43.0090 H   0  0  0  0  0  0  0  0  0  0  0  0
   37.1000   28.2590   43.6790 O   0  0  0  0  0  0  0  0  0  0  0  0
   36.4640   27.7190   42.5700 C   0  0  0  0  0  3  0  0  0  0  0  0
   35.3950   27.5810   42.7340 H   0  0  0  0  0  0  0  0  0  0  0  0
   35.4150   29.3980   41.2220 O   0  0  0  0  0  0  0  0  0  0  0  0
   35.1480   29.8970   42.0440 H   0  0  0  0  0  0  0  0  0  0  0  0
  2  5  1  0  0  0  0
  2  3  1  0  0  0  0
  2  1  1  0  0  0  0
  3  1  1  0  0  0  0
  3  7  1  0  0  0  0
  4  2  1  0  0  0  0
  6  3  1  0  0  0  0
  8  9  1  0  0  0  0
  9 10  2  0  0  0  0
  9  1  1  0  0  0  0
 10 15  1  0  0  0  0
 11 10  1  0  0  0  0
 12 11  2  0  0  0  0
 13  8  2  0  0  0  0
 13 12  1  0  0  0  0
 14  8  1  0  0  0  0
 16 12  1  0  0  0  0
 17 24  1  1  0  0  0
 17 18  1  0  0  0  0
 17 22  1  0  0  0  0
 18  1  1  6  0  0  0
 18 19  1  0  0  0  0
 19 21  1  0  0  0  0
 20 19  1  0  0  0  0
 22 23  1  0  0  0  0
 22 21  1  0  0  0  0
 24 25  1  0  0  0  0
M  END
>  <minimizedAffinity>
-4.29147768

$$$$

 OpenBabel03242516103D

 25 27  0  0  1  0  0  0  0  0999 V2000
   37.6060   28.2850   42.3400 C   0  0  0  0  0  0  0  0  0  0  0  0
   36.8180   27.1590   42.9360 C   0  0  0  0  0  0  0  0  0  0  0  0
   36.9930   28.4180   43.6760 C   0  0  0  0  0  0  0  0  0  0  0  0
   37.4070   26.2550   43.1860 H   0  0  0  0  0  0  0  0  0  0  0  0
   35.8250   26.9060   42.5330 H   0  0  0  0  0  0  0  0  0  0  0  0
   37.7060   28.3410   44.5490 H   0  0  0  0  0  0  0  0  0  0  0  0
   36.1610   29.1000   43.9020 H   0  0  0  0  0  0  0  0  0  0  0  0
   39.6020   26.9480   41.6800 C   0  0  0  0  0  0  0  0  0  0  0  0
   39.0690   28.1180   42.2100 C   0  0  0  0  0  0  0  0  0  0  0  0
   39.9660   29.1220   42.5790 C   0  0  0  0  0  0  0  0  0  0  0  0
   41.3100   28.9120   42.4040 N   0  0  0  0  0  0  0  0  0  0  0  0
   41.7880   27.7700   41.8890 C   0  0  0  0  0  0  0  0  0  0  0  0
   40.9370   26.7930   41.5290 N   0  0  0  0  0  0  0  0  0  0  0  0
   39.0200   26.1070   41.3670 H   0  0  0  0  0  0  0  0  0  0  0  0
   39.5460   30.0100   42.9830 H   0  0  0  0  0  0  0  0  0  0  0  0
   42.8640   27.6940   41.7870 H   0  0  0  0  0  0  0  0  0  0  0  0
   36.9430   30.3700   41.2480 C   0  0  1  0  0  3  0  0  0  0  0  0
   36.9910   28.8670   41.1070 C   0  0  1  0  0  3  0  0  0  0  0  0
   37.6590   28.5830   39.8170 C   0  0  0  0  0  3  0  0  0  0  0  0
   38.7370   28.6430   39.7700 H   0  0  0  0  0  0  0  0  0  0  0  0
   37.1860   29.6610   39.0300 O   0  0  0  0  0  0  0  0  0  0  0  0
   37.3020   30.7900   39.8280 C   0  0  0  0  0  3  0  0  0  0  0  0
   36.6030   31.5750   39.5370 H   0  0  0  0  0  0  0  0  0  0  0  0
   35.6660   30.8340   41.5770 O   0  0  0  0  0  0  0  0  0  0  0  0
   34.9870   30.4460   40.9570 H   0  0  0  0  0  0  0  0  0  0  0  0
  1  2  1  0  0  0  0
  1  3  1  0  0  0  0
  2  4  1  0  0  0  0
  2  3  1  0  0  0  0
  3  7  1  0  0  0  0
  3  6  1  0  0  0  0
  5  2  1  0  0  0  0
  8  9  1  0  0  0  0
  9  1  1  0  0  0  0
  9 10  2  0  0  0  0
 10 15  1  0  0  0  0
 11 10  1  0  0  0  0
 12 11  2  0  0  0  0
 13  8  2  0  0  0  0
 13 12  1  0  0  0  0
 14  8  1  0  0  0  0
 16 12  1  0  0  0  0
 17 24  1  6  0  0  0
 18 17  1  0  0  0  0
 18  1  1  1  0  0  0
 19 18  1  0  0  0  0
 20 19  1  0  0  0  0
 21 19  1  0  0  0  0
 21 22  1  0  0  0  0
 22 17  1  0  0  0  0
 23 22  1  0  0  0  0
 25 24  1  0  0  0  0
M  END
>  <minimizedAffinity>
-4.27083063

$$$$
