
 OpenBabel03252502163D

 24 25  0  0  1  0  0  0  0  0999 V2000
   46.3400   35.2200   42.5860 C   0  0  0  0  0  0  0  0  0  0  0  0
   46.8510   34.1180   43.3000 C   0  0  0  0  0  0  0  0  0  0  0  0
   46.3050   33.8250   44.5500 C   0  0  0  0  0  0  0  0  0  0  0  0
   45.3140   34.6200   45.0010 N   0  0  0  0  0  0  0  0  0  0  0  0
   44.8350   35.6670   44.3120 C   0  0  0  0  0  0  0  0  0  0  0  0
   45.3490   35.9720   43.0970 N   0  0  0  0  0  0  0  0  0  0  0  0
   46.7120   35.5100   41.6100 H   0  0  0  0  0  0  0  0  0  0  0  0
   44.0430   36.2680   44.7190 H   0  0  0  0  0  0  0  0  0  0  0  0
   46.1380   31.3690   44.9450 C   0  0  2  0  0  0  0  0  0  0  0  0
   46.8610   32.6700   45.2660 C   0  0  2  0  0  0  0  0  0  0  0  0
   46.6190   32.7630   46.7560 C   0  0  0  0  0  0  0  0  0  0  0  0
   47.5510   32.7980   47.3480 H   0  0  0  0  0  0  0  0  0  0  0  0
   45.9080   31.6390   47.1450 O   0  0  0  0  0  0  0  0  0  0  0  0
   46.3560   30.6450   46.2770 C   0  0  0  0  0  0  0  0  0  0  0  0
   45.8220   29.7030   46.3390 H   0  0  0  0  0  0  0  0  0  0  0  0
   46.7610   30.6810   43.9060 O   0  0  0  0  0  0  0  0  0  0  0  0
   46.2170   29.8980   43.7040 H   0  0  0  0  0  0  0  0  0  0  0  0
   47.8770   33.4000   42.6870 O   0  0  0  0  0  0  0  0  0  0  0  0
   50.3460   33.1410   41.8290 O   0  0  0  0  0  0  0  0  0  0  0  0
   49.3010   34.1610   42.1400 P   0  0  0  0  0  0  0  0  0  0  0  0
   49.0000   35.0550   40.7360 O   0  0  0  0  0  0  0  0  0  0  0  0
   49.6090   34.8460   40.0060 H   0  0  0  0  0  0  0  0  0  0  0  0
   49.8970   35.2050   43.3410 O   0  0  0  0  0  0  0  0  0  0  0  0
   49.4080   35.0630   44.2040 H   0  0  0  0  0  0  0  0  0  0  0  0
  1  6  2  0  0  0  0
  1  2  1  0  0  0  0
  2  3  2  0  0  0  0
  3  4  1  0  0  0  0
  5  8  1  0  0  0  0
  5  4  2  0  0  0  0
  6  5  1  0  0  0  0
  7  1  1  0  0  0  0
  9 16  1  6  0  0  0
  9 10  1  0  0  0  0
  9 14  1  0  0  0  0
 10  3  1  6  0  0  0
 10 11  1  0  0  0  0
 11 13  1  0  0  0  0
 11 12  1  0  0  0  0
 14 15  1  0  0  0  0
 14 13  1  0  0  0  0
 17 16  1  0  0  0  0
 18  2  1  0  0  0  0
 19 20  2  0  0  0  0
 20 18  1  0  0  0  0
 20 23  1  0  0  0  0
 21 20  1  0  0  0  0
 22 21  1  0  0  0  0
 23 24  1  0  0  0  0
M  END
>  <minimizedAffinity>
-5.17924881

>  <minimizedRMSD>
0.0853696913

$$$$
