
 OpenBabel03252503403D

 21 22  0  0  1  0  0  0  0  0999 V2000
   44.7000   34.3080   43.3790 C   0  0  0  0  0  0  0  0  0  0  0  0
   44.3470   34.6370   42.0640 C   0  0  0  0  0  0  0  0  0  0  0  0
   45.1310   34.1190   41.0400 C   0  0  0  0  0  0  0  0  0  0  0  0
   46.1810   33.3340   41.3630 N   0  0  0  0  0  0  0  0  0  0  0  0
   46.5030   33.0300   42.6390 C   0  0  0  0  0  0  0  0  0  0  0  0
   45.7570   33.5200   43.6610 N   0  0  0  0  0  0  0  0  0  0  0  0
   44.1530   34.6600   44.2520 H   0  0  0  0  0  0  0  0  0  0  0  0
   44.8440   34.3830   40.0360 H   0  0  0  0  0  0  0  0  0  0  0  0
   48.6900   32.1240   41.8360 C   0  0  2  0  0  3  0  0  0  0  0  0
   47.6760   32.1570   42.9320 C   0  0  2  0  0  3  0  0  0  0  0  0
   47.1370   30.7250   42.8850 C   0  0  0  0  0  3  0  0  0  0  0  0
   46.1220   30.7600   43.3440 H   0  0  0  0  0  0  0  0  0  0  0  0
   47.1030   30.4290   41.5340 O   0  0  0  0  0  0  0  0  0  0  0  0
   48.3280   30.8830   41.0460 C   0  0  0  0  0  3  0  0  0  0  0  0
   48.2190   31.1160   39.9530 H   0  0  0  0  0  0  0  0  0  0  0  0
   49.9630   31.9920   42.3800 O   0  0  0  0  0  0  0  0  0  0  0  0
   50.5910   32.6840   42.0090 H   0  0  0  0  0  0  0  0  0  0  0  0
   43.1710   35.5060   41.9020 C   0  0  0  0  0  0  0  0  0  0  0  0
   42.7640   35.3430   40.8780 H   0  0  0  0  0  0  0  0  0  0  0  0
   43.4850   36.5730   42.0400 H   0  0  0  0  0  0  0  0  0  0  0  0
   42.3740   35.2310   42.6030 H   0  0  0  0  0  0  0  0  0  0  0  0
  1  6  1  0  0  0  0
  1  7  1  0  0  0  0
  2  1  2  0  0  0  0
  3  4  2  0  0  0  0
  3  2  1  0  0  0  0
  4  5  1  0  0  0  0
  5  6  2  0  0  0  0
  8  3  1  0  0  0  0
  9 16  1  1  0  0  0
  9 10  1  0  0  0  0
 10  5  1  6  0  0  0
 11 10  1  0  0  0  0
 11 12  1  0  0  0  0
 13 11  1  0  0  0  0
 14 13  1  0  0  0  0
 14  9  1  0  0  0  0
 15 14  1  0  0  0  0
 17 16  1  0  0  0  0
 18 20  1  0  0  0  0
 18  2  1  0  0  0  0
 18 21  1  0  0  0  0
 19 18  1  0  0  0  0
M  END
>  <minimizedAffinity>
-2.34841704

>  <minimizedRMSD>
5.39542341

$$$$
