
 OpenBabel03242523393D

 19 20  0  0  1  0  0  0  0  0999 V2000
   38.6550   27.8870   43.3110 C   0  0  0  0  0  0  0  0  0  0  0  0
   38.7840   26.4970   43.0940 C   0  0  0  0  0  0  0  0  0  0  0  0
   37.9250   25.9200   42.1470 C   0  0  0  0  0  0  0  0  0  0  0  0
   37.0370   26.7180   41.5060 N   0  0  0  0  0  0  0  0  0  0  0  0
   36.9450   28.0410   41.7410 C   0  0  0  0  0  0  0  0  0  0  0  0
   37.7580   28.6210   42.6450 N   0  0  0  0  0  0  0  0  0  0  0  0
   39.3090   28.3800   44.0450 H   0  0  0  0  0  0  0  0  0  0  0  0
   39.5050   25.9070   43.6300 H   0  0  0  0  0  0  0  0  0  0  0  0
   36.4720   30.2440   40.8450 C   0  0  1  0  0  3  0  0  0  0  0  0
   35.9250   28.8190   40.9720 C   0  0  1  0  0  3  0  0  0  0  0  0
   35.8270   28.3760   39.5440 C   0  0  0  0  0  3  0  0  0  0  0  0
   34.9450   27.6770   39.4790 H   0  0  0  0  0  0  0  0  0  0  0  0
   35.5870   29.5690   38.8510 O   0  0  0  0  0  0  0  0  0  0  0  0
   36.5830   30.4080   39.3660 C   0  0  0  0  0  3  0  0  0  0  0  0
   37.5780   30.0430   39.0340 H   0  0  0  0  0  0  0  0  0  0  0  0
   35.5710   31.1680   41.4010 O   0  0  0  0  0  0  0  0  0  0  0  0
   34.6840   31.0780   40.9470 H   0  0  0  0  0  0  0  0  0  0  0  0
   38.0280   24.1700   41.8200 S   0  0  0  0  0  0  0  0  0  0  0  0
   36.9340   23.4720   42.3460 H   0  0  0  0  0  0  0  0  0  0  0  0
  1  7  1  0  0  0  0
  2  1  1  0  0  0  0
  2  8  1  0  0  0  0
  3  2  2  0  0  0  0
  4  5  2  0  0  0  0
  4  3  1  0  0  0  0
  5  6  1  0  0  0  0
  6  1  2  0  0  0  0
  9 10  1  0  0  0  0
  9 16  1  6  0  0  0
 10  5  1  1  0  0  0
 11 10  1  0  0  0  0
 12 11  1  0  0  0  0
 13 14  1  0  0  0  0
 13 11  1  0  0  0  0
 14  9  1  0  0  0  0
 15 14  1  0  0  0  0
 17 16  1  0  0  0  0
 18  3  1  0  0  0  0
 18 19  1  0  0  0  0
M  END
>  <minimizedAffinity>
-4.45314932

$$$$

 OpenBabel03242523393D

 19 20  0  0  1  0  0  0  0  0999 V2000
   36.4640   31.1830   40.4780 C   0  0  0  0  0  0  0  0  0  0  0  0
   37.5730   32.0050   40.1800 C   0  0  0  0  0  0  0  0  0  0  0  0
   38.7640   31.7410   40.8730 C   0  0  0  0  0  0  0  0  0  0  0  0
   38.7790   30.7270   41.7730 N   0  0  0  0  0  0  0  0  0  0  0  0
   37.6990   29.9650   42.0290 C   0  0  0  0  0  0  0  0  0  0  0  0
   36.5430   30.1960   41.3780 N   0  0  0  0  0  0  0  0  0  0  0  0
   35.5110   31.3540   39.9580 H   0  0  0  0  0  0  0  0  0  0  0  0
   37.5090   32.7980   39.4570 H   0  0  0  0  0  0  0  0  0  0  0  0
   36.8520   27.7750   42.6350 C   0  0  1  0  0  3  0  0  0  0  0  0
   37.8380   28.8750   43.0440 C   0  0  1  0  0  3  0  0  0  0  0  0
   39.1610   28.1790   42.9580 C   0  0  0  0  0  3  0  0  0  0  0  0
   39.8200   28.6310   43.7540 H   0  0  0  0  0  0  0  0  0  0  0  0
   38.8470   26.8470   43.2510 O   0  0  0  0  0  0  0  0  0  0  0  0
   37.7590   26.6130   42.4000 C   0  0  0  0  0  3  0  0  0  0  0  0
   38.1060   26.6320   41.3450 H   0  0  0  0  0  0  0  0  0  0  0  0
   35.9440   27.5180   43.6760 O   0  0  0  0  0  0  0  0  0  0  0  0
   36.4490   27.2640   44.5010 H   0  0  0  0  0  0  0  0  0  0  0  0
   40.2070   32.7380   40.5510 S   0  0  0  0  0  0  0  0  0  0  0  0
   40.4920   33.6070   41.6100 H   0  0  0  0  0  0  0  0  0  0  0  0
  1  6  1  0  0  0  0
  2  1  2  0  0  0  0
  2  3  1  0  0  0  0
  3  4  2  0  0  0  0
  4  5  1  0  0  0  0
  6  5  2  0  0  0  0
  7  1  1  0  0  0  0
  8  2  1  0  0  0  0
  9 10  1  0  0  0  0
  9 16  1  1  0  0  0
 10  5  1  6  0  0  0
 11 10  1  0  0  0  0
 11 13  1  0  0  0  0
 11 12  1  0  0  0  0
 14  9  1  0  0  0  0
 14 13  1  0  0  0  0
 15 14  1  0  0  0  0
 16 17  1  0  0  0  0
 18  3  1  0  0  0  0
 18 19  1  0  0  0  0
M  END
>  <minimizedAffinity>
-4.33895779

$$$$

 OpenBabel03242523393D

 19 20  0  0  1  0  0  0  0  0999 V2000
   35.5500   29.6020   40.1510 C   0  0  0  0  0  0  0  0  0  0  0  0
   36.0150   28.9100   41.2910 C   0  0  0  0  0  0  0  0  0  0  0  0
   37.1440   29.4370   41.9370 C   0  0  0  0  0  0  0  0  0  0  0  0
   37.7110   30.5610   41.4350 N   0  0  0  0  0  0  0  0  0  0  0  0
   37.2370   31.1920   40.3440 C   0  0  0  0  0  0  0  0  0  0  0  0
   36.1540   30.7080   39.7050 N   0  0  0  0  0  0  0  0  0  0  0  0
   34.6670   29.2240   39.6140 H   0  0  0  0  0  0  0  0  0  0  0  0
   35.5280   28.0210   41.6490 H   0  0  0  0  0  0  0  0  0  0  0  0
   38.9440   32.7890   40.9910 C   0  0  1  0  0  3  0  0  0  0  0  0
   37.9480   32.4250   39.8850 C   0  0  1  0  0  3  0  0  0  0  0  0
   38.8410   32.1650   38.7110 C   0  0  0  0  0  3  0  0  0  0  0  0
   38.2710   32.4800   37.7900 H   0  0  0  0  0  0  0  0  0  0  0  0
   39.9370   33.0050   38.9450 O   0  0  0  0  0  0  0  0  0  0  0  0
   40.2510   32.7040   40.2770 C   0  0  0  0  0  3  0  0  0  0  0  0
   40.6300   31.6620   40.3390 H   0  0  0  0  0  0  0  0  0  0  0  0
   38.6980   34.0890   41.4640 O   0  0  0  0  0  0  0  0  0  0  0  0
   38.7510   34.7340   40.7020 H   0  0  0  0  0  0  0  0  0  0  0  0
   37.7900   28.6180   43.3830 S   0  0  0  0  0  0  0  0  0  0  0  0
   38.9960   27.9590   43.1180 H   0  0  0  0  0  0  0  0  0  0  0  0
  1  2  1  0  0  0  0
  2  8  1  0  0  0  0
  2  3  2  0  0  0  0
  3 18  1  0  0  0  0
  4  3  1  0  0  0  0
  5  4  2  0  0  0  0
  6  1  2  0  0  0  0
  6  5  1  0  0  0  0
  7  1  1  0  0  0  0
  9 16  1  6  0  0  0
 10  5  1  1  0  0  0
 10  9  1  0  0  0  0
 11 13  1  0  0  0  0
 11 10  1  0  0  0  0
 12 11  1  0  0  0  0
 13 14  1  0  0  0  0
 14 15  1  0  0  0  0
 14  9  1  0  0  0  0
 17 16  1  0  0  0  0
 19 18  1  0  0  0  0
M  END
>  <minimizedAffinity>
-4.17324877

$$$$

 OpenBabel03242523393D

 19 20  0  0  1  0  0  0  0  0999 V2000
   36.7830   29.3810   39.0050 C   0  0  0  0  0  0  0  0  0  0  0  0
   36.9070   30.7700   38.7800 C   0  0  0  0  0  0  0  0  0  0  0  0
   37.2610   31.5620   39.8820 C   0  0  0  0  0  0  0  0  0  0  0  0
   37.4590   30.9570   41.0780 N   0  0  0  0  0  0  0  0  0  0  0  0
   37.3310   29.6280   41.2520 C   0  0  0  0  0  0  0  0  0  0  0  0
   36.9930   28.8430   40.2100 N   0  0  0  0  0  0  0  0  0  0  0  0
   36.5080   28.7220   38.1680 H   0  0  0  0  0  0  0  0  0  0  0  0
   36.7380   31.2020   37.8100 H   0  0  0  0  0  0  0  0  0  0  0  0
   36.9210   27.6890   42.6510 C   0  0  1  0  0  3  0  0  0  0  0  0
   37.5760   29.0740   42.6200 C   0  0  1  0  0  3  0  0  0  0  0  0
   39.0210   28.7600   42.8580 C   0  0  0  0  0  3  0  0  0  0  0  0
   39.4540   29.6300   43.4290 H   0  0  0  0  0  0  0  0  0  0  0  0
   38.9750   27.6030   43.6460 O   0  0  0  0  0  0  0  0  0  0  0  0
   38.0860   26.7970   42.9240 C   0  0  0  0  0  3  0  0  0  0  0  0
   38.5530   26.5060   41.9590 H   0  0  0  0  0  0  0  0  0  0  0  0
   35.9660   27.6200   43.6790 O   0  0  0  0  0  0  0  0  0  0  0  0
   36.4050   27.8340   44.5520 H   0  0  0  0  0  0  0  0  0  0  0  0
   37.4350   33.3250   39.6760 S   0  0  0  0  0  0  0  0  0  0  0  0
   36.3830   34.0300   40.2730 H   0  0  0  0  0  0  0  0  0  0  0  0
  1  6  1  0  0  0  0
  2  1  2  0  0  0  0
  2  3  1  0  0  0  0
  3  4  2  0  0  0  0
  4  5  1  0  0  0  0
  6  5  2  0  0  0  0
  7  1  1  0  0  0  0
  8  2  1  0  0  0  0
  9 14  1  0  0  0  0
  9 16  1  1  0  0  0
 10  5  1  6  0  0  0
 10  9  1  0  0  0  0
 10 11  1  0  0  0  0
 11 12  1  0  0  0  0
 11 13  1  0  0  0  0
 14 13  1  0  0  0  0
 15 14  1  0  0  0  0
 16 17  1  0  0  0  0
 18  3  1  0  0  0  0
 18 19  1  0  0  0  0
M  END
>  <minimizedAffinity>
-4.13369942

$$$$

 OpenBabel03242523393D

 19 20  0  0  1  0  0  0  0  0999 V2000
   37.6980   28.7490   43.5160 C   0  0  0  0  0  0  0  0  0  0  0  0
   37.6150   27.3500   43.3440 C   0  0  0  0  0  0  0  0  0  0  0  0
   37.2040   26.8880   42.0840 C   0  0  0  0  0  0  0  0  0  0  0  0
   36.9160   27.7990   41.1230 N   0  0  0  0  0  0  0  0  0  0  0  0
   37.0070   29.1270   41.3270 C   0  0  0  0  0  0  0  0  0  0  0  0
   37.4000   29.5980   42.5270 N   0  0  0  0  0  0  0  0  0  0  0  0
   38.0160   29.1550   44.4880 H   0  0  0  0  0  0  0  0  0  0  0  0
   37.8540   26.6680   44.1400 H   0  0  0  0  0  0  0  0  0  0  0  0
   37.4440   31.3330   40.4180 C   0  0  1  0  0  3  0  0  0  0  0  0
   36.6630   30.0350   40.1890 C   0  0  1  0  0  3  0  0  0  0  0  0
   37.2110   29.5470   38.8840 C   0  0  0  0  0  3  0  0  0  0  0  0
   36.3700   29.0130   38.3550 H   0  0  0  0  0  0  0  0  0  0  0  0
   37.5640   30.7280   38.2190 O   0  0  0  0  0  0  0  0  0  0  0  0
   38.3030   31.4010   39.2000 C   0  0  0  0  0  3  0  0  0  0  0  0
   39.2480   30.8500   39.3910 H   0  0  0  0  0  0  0  0  0  0  0  0
   36.5660   32.4270   40.4940 O   0  0  0  0  0  0  0  0  0  0  0  0
   36.0230   32.4740   39.6550 H   0  0  0  0  0  0  0  0  0  0  0  0
   37.0740   25.1340   41.7920 S   0  0  0  0  0  0  0  0  0  0  0  0
   35.7420   24.7120   41.7110 H   0  0  0  0  0  0  0  0  0  0  0  0
  1  7  1  0  0  0  0
  2  1  1  0  0  0  0
  2  8  1  0  0  0  0
  3  2  2  0  0  0  0
  4  5  2  0  0  0  0
  4  3  1  0  0  0  0
  5  6  1  0  0  0  0
  6  1  2  0  0  0  0
  9 16  1  6  0  0  0
 10  9  1  0  0  0  0
 10  5  1  1  0  0  0
 11 10  1  0  0  0  0
 12 11  1  0  0  0  0
 13 11  1  0  0  0  0
 13 14  1  0  0  0  0
 14 15  1  0  0  0  0
 14  9  1  0  0  0  0
 17 16  1  0  0  0  0
 18  3  1  0  0  0  0
 19 18  1  0  0  0  0
M  END
>  <minimizedAffinity>
-4.11614609

$$$$

 OpenBabel03242523393D

 19 20  0  0  1  0  0  0  0  0999 V2000
   38.1600   25.6180   39.4800 C   0  0  0  0  0  0  0  0  0  0  0  0
   38.9400   24.9000   40.4130 C   0  0  0  0  0  0  0  0  0  0  0  0
   38.8410   25.2900   41.7570 C   0  0  0  0  0  0  0  0  0  0  0  0
   38.0140   26.3160   42.0750 N   0  0  0  0  0  0  0  0  0  0  0  0
   37.2860   26.9750   41.1540 C   0  0  0  0  0  0  0  0  0  0  0  0
   37.3610   26.6220   39.8570 N   0  0  0  0  0  0  0  0  0  0  0  0
   38.2070   25.3450   38.4160 H   0  0  0  0  0  0  0  0  0  0  0  0
   39.5820   24.0920   40.1090 H   0  0  0  0  0  0  0  0  0  0  0  0
   37.3330   29.1240   42.2790 C   0  0  1  0  0  3  0  0  0  0  0  0
   36.4080   28.0910   41.6260 C   0  0  1  0  0  3  0  0  0  0  0  0
   35.8040   28.8610   40.4920 C   0  0  0  0  0  3  0  0  0  0  0  0
   34.7590   28.4640   40.3470 H   0  0  0  0  0  0  0  0  0  0  0  0
   35.7890   30.1780   40.9660 O   0  0  0  0  0  0  0  0  0  0  0  0
   37.1010   30.3320   41.4330 C   0  0  0  0  0  3  0  0  0  0  0  0
   37.8030   30.3120   40.5730 H   0  0  0  0  0  0  0  0  0  0  0  0
   36.9550   29.3480   43.6130 O   0  0  0  0  0  0  0  0  0  0  0  0
   36.0010   29.6460   43.6410 H   0  0  0  0  0  0  0  0  0  0  0  0
   39.7970   24.4310   42.9930 S   0  0  0  0  0  0  0  0  0  0  0  0
   40.8560   25.2100   43.4730 H   0  0  0  0  0  0  0  0  0  0  0  0
  1  6  2  0  0  0  0
  1  2  1  0  0  0  0
  2  3  2  0  0  0  0
  3  4  1  0  0  0  0
  3 18  1  0  0  0  0
  5  4  2  0  0  0  0
  6  5  1  0  0  0  0
  7  1  1  0  0  0  0
  8  2  1  0  0  0  0
  9 16  1  1  0  0  0
 10  5  1  6  0  0  0
 10  9  1  0  0  0  0
 11 13  1  0  0  0  0
 11 10  1  0  0  0  0
 12 11  1  0  0  0  0
 13 14  1  0  0  0  0
 14  9  1  0  0  0  0
 15 14  1  0  0  0  0
 16 17  1  0  0  0  0
 18 19  1  0  0  0  0
M  END
>  <minimizedAffinity>
-4.01279402

$$$$

 OpenBabel03242523393D

 19 20  0  0  1  0  0  0  0  0999 V2000
   38.2230   27.4990   43.6800 C   0  0  0  0  0  0  0  0  0  0  0  0
   39.5930   27.3060   43.3920 C   0  0  0  0  0  0  0  0  0  0  0  0
   40.0570   27.7950   42.1620 C   0  0  0  0  0  0  0  0  0  0  0  0
   39.1780   28.4140   41.3370 N   0  0  0  0  0  0  0  0  0  0  0  0
   37.8790   28.5780   41.6480 C   0  0  0  0  0  0  0  0  0  0  0  0
   37.4050   28.1180   42.8230 N   0  0  0  0  0  0  0  0  0  0  0  0
   37.8160   27.1310   44.6330 H   0  0  0  0  0  0  0  0  0  0  0  0
   40.2500   26.8080   44.0820 H   0  0  0  0  0  0  0  0  0  0  0  0
   36.8930   30.7310   41.1250 C   0  0  1  0  0  3  0  0  0  0  0  0
   37.0040   29.2770   40.6560 C   0  0  1  0  0  3  0  0  0  0  0  0
   37.6570   29.4130   39.3150 C   0  0  0  0  0  3  0  0  0  0  0  0
   37.2570   28.5790   38.6710 H   0  0  0  0  0  0  0  0  0  0  0  0
   37.2160   30.6630   38.8650 O   0  0  0  0  0  0  0  0  0  0  0  0
   37.4790   31.4790   39.9730 C   0  0  0  0  0  3  0  0  0  0  0  0
   38.5770   31.5620   40.1160 H   0  0  0  0  0  0  0  0  0  0  0  0
   35.5480   31.0780   41.3350 O   0  0  0  0  0  0  0  0  0  0  0  0
   35.0330   30.9290   40.4910 H   0  0  0  0  0  0  0  0  0  0  0  0
   41.7750   27.5890   41.7280 S   0  0  0  0  0  0  0  0  0  0  0  0
   41.9510   26.6270   40.7260 H   0  0  0  0  0  0  0  0  0  0  0  0
  1  7  1  0  0  0  0
  2  1  1  0  0  0  0
  2  8  1  0  0  0  0
  3  2  2  0  0  0  0
  4  5  2  0  0  0  0
  4  3  1  0  0  0  0
  5  6  1  0  0  0  0
  6  1  2  0  0  0  0
  9 16  1  6  0  0  0
 10  9  1  0  0  0  0
 10  5  1  1  0  0  0
 11 10  1  0  0  0  0
 12 11  1  0  0  0  0
 13 11  1  0  0  0  0
 13 14  1  0  0  0  0
 14 15  1  0  0  0  0
 14  9  1  0  0  0  0
 17 16  1  0  0  0  0
 18  3  1  0  0  0  0
 19 18  1  0  0  0  0
M  END
>  <minimizedAffinity>
-4.00690269

$$$$

 OpenBabel03242523393D

 19 20  0  0  1  0  0  0  0  0999 V2000
   39.1780   30.7230   37.7690 C   0  0  0  0  0  0  0  0  0  0  0  0
   40.1190   31.7710   37.6610 C   0  0  0  0  0  0  0  0  0  0  0  0
   40.3230   32.5600   38.8040 C   0  0  0  0  0  0  0  0  0  0  0  0
   39.6170   32.2730   39.9240 N   0  0  0  0  0  0  0  0  0  0  0  0
   38.7270   31.2640   39.9860 C   0  0  0  0  0  0  0  0  0  0  0  0
   38.5110   30.4900   38.9040 N   0  0  0  0  0  0  0  0  0  0  0  0
   38.9870   30.0800   36.8980 H   0  0  0  0  0  0  0  0  0  0  0  0
   40.6540   31.9580   36.7480 H   0  0  0  0  0  0  0  0  0  0  0  0
   36.7100   30.3070   40.9320 C   0  0  1  0  0  3  0  0  0  0  0  0
   38.0070   31.0450   41.2780 C   0  0  1  0  0  3  0  0  0  0  0  0
   38.7140   30.0690   42.1670 C   0  0  0  0  0  3  0  0  0  0  0  0
   39.3040   30.6740   42.9130 H   0  0  0  0  0  0  0  0  0  0  0  0
   37.6660   29.3760   42.7860 O   0  0  0  0  0  0  0  0  0  0  0  0
   36.8620   29.0310   41.6920 C   0  0  0  0  0  3  0  0  0  0  0  0
   37.3990   28.2940   41.0590 H   0  0  0  0  0  0  0  0  0  0  0  0
   35.5950   31.0400   41.3720 O   0  0  0  0  0  0  0  0  0  0  0  0
   35.6710   31.1980   42.3560 H   0  0  0  0  0  0  0  0  0  0  0  0
   41.4960   33.9020   38.7450 S   0  0  0  0  0  0  0  0  0  0  0  0
   40.8640   35.1510   38.7340 H   0  0  0  0  0  0  0  0  0  0  0  0
  1  6  1  0  0  0  0
  2  1  2  0  0  0  0
  2  3  1  0  0  0  0
  3  4  2  0  0  0  0
  4  5  1  0  0  0  0
  6  5  2  0  0  0  0
  7  1  1  0  0  0  0
  8  2  1  0  0  0  0
  9 10  1  0  0  0  0
  9 16  1  1  0  0  0
  9 14  1  0  0  0  0
 10  5  1  6  0  0  0
 10 11  1  0  0  0  0
 11 13  1  0  0  0  0
 11 12  1  0  0  0  0
 14 13  1  0  0  0  0
 15 14  1  0  0  0  0
 16 17  1  0  0  0  0
 18  3  1  0  0  0  0
 19 18  1  0  0  0  0
M  END
>  <minimizedAffinity>
-3.98337913

$$$$

 OpenBabel03242523393D

 19 20  0  0  1  0  0  0  0  0999 V2000
   41.1550   31.4990   41.7100 C   0  0  0  0  0  0  0  0  0  0  0  0
   41.2250   31.8040   40.3330 C   0  0  0  0  0  0  0  0  0  0  0  0
   40.0850   31.5280   39.5620 C   0  0  0  0  0  0  0  0  0  0  0  0
   39.0020   30.9930   40.1760 N   0  0  0  0  0  0  0  0  0  0  0  0
   38.9750   30.7160   41.4940 C   0  0  0  0  0  0  0  0  0  0  0  0
   40.0550   30.9710   42.2580 N   0  0  0  0  0  0  0  0  0  0  0  0
   42.0250   31.7000   42.3510 H   0  0  0  0  0  0  0  0  0  0  0  0
   42.1100   32.2280   39.8930 H   0  0  0  0  0  0  0  0  0  0  0  0
   36.6550   30.2440   40.9650 C   0  0  1  0  0  3  0  0  0  0  0  0
   37.7220   30.1260   42.0590 C   0  0  1  0  0  3  0  0  0  0  0  0
   37.8260   28.6460   42.2580 C   0  0  0  0  0  3  0  0  0  0  0  0
   38.0710   28.4790   43.3460 H   0  0  0  0  0  0  0  0  0  0  0  0
   36.5410   28.1850   41.9480 O   0  0  0  0  0  0  0  0  0  0  0  0
   36.2970   28.8160   40.7210 C   0  0  0  0  0  3  0  0  0  0  0  0
   36.9790   28.3980   39.9500 H   0  0  0  0  0  0  0  0  0  0  0  0
   35.5530   30.9800   41.4300 O   0  0  0  0  0  0  0  0  0  0  0  0
   35.1850   30.5410   42.2500 H   0  0  0  0  0  0  0  0  0  0  0  0
   40.0990   31.8850   37.8150 S   0  0  0  0  0  0  0  0  0  0  0  0
   40.1640   30.7210   37.0410 H   0  0  0  0  0  0  0  0  0  0  0  0
  1  6  1  0  0  0  0
  1  7  1  0  0  0  0
  2  1  2  0  0  0  0
  3  4  2  0  0  0  0
  3  2  1  0  0  0  0
  4  5  1  0  0  0  0
  5  6  2  0  0  0  0
  8  2  1  0  0  0  0
  9 16  1  1  0  0  0
  9 10  1  0  0  0  0
 10  5  1  6  0  0  0
 10 11  1  0  0  0  0
 11 12  1  0  0  0  0
 13 11  1  0  0  0  0
 14  9  1  0  0  0  0
 14 13  1  0  0  0  0
 15 14  1  0  0  0  0
 16 17  1  0  0  0  0
 18  3  1  0  0  0  0
 19 18  1  0  0  0  0
M  END
>  <minimizedAffinity>
-3.88832855

$$$$
