
 OpenBabel03242518433D

 19 20  0  0  1  0  0  0  0  0999 V2000
   37.2720   28.3580   43.1210 C   0  0  0  0  0  0  0  0  0  0  0  0
   38.5210   27.7670   43.3830 C   0  0  0  0  0  0  0  0  0  0  0  0
   39.6470   28.3910   42.8100 C   0  0  0  0  0  0  0  0  0  0  0  0
   39.4690   29.5010   42.0570 N   0  0  0  0  0  0  0  0  0  0  0  0
   38.2430   30.0240   41.8380 C   0  0  0  0  0  0  0  0  0  0  0  0
   37.1510   29.4680   42.3610 N   0  0  0  0  0  0  0  0  0  0  0  0
   38.6230   26.8830   43.9880 H   0  0  0  0  0  0  0  0  0  0  0  0
   40.6150   27.9480   43.0020 H   0  0  0  0  0  0  0  0  0  0  0  0
   36.6870   31.4650   40.5120 C   0  0  1  0  0  3  0  0  0  0  0  0
   38.0940   31.2480   41.0010 C   0  0  2  0  0  3  0  0  0  0  0  0
   38.8320   30.9900   39.7040 C   0  0  0  0  0  3  0  0  0  0  0  0
   38.9770   31.9200   39.1300 H   0  0  0  0  0  0  0  0  0  0  0  0
   37.9370   30.1300   39.0500 O   0  0  0  0  0  0  0  0  0  0  0  0
   36.7110   30.7660   39.1710 C   0  0  0  0  0  3  0  0  0  0  0  0
   36.6210   31.5150   38.3670 H   0  0  0  0  0  0  0  0  0  0  0  0
   35.7250   30.9760   41.3610 O   0  0  0  0  0  0  0  0  0  0  0  0
   34.9030   30.6740   40.9160 H   0  0  0  0  0  0  0  0  0  0  0  0
   36.1620   27.7540   43.6780 O   0  0  0  0  0  0  0  0  0  0  0  0
   35.6270   26.9990   43.2520 H   0  0  0  0  0  0  0  0  0  0  0  0
  1  2  1  0  0  0  0
  1 18  1  0  0  0  0
  2  7  1  0  0  0  0
  3  8  1  0  0  0  0
  3  2  2  0  0  0  0
  4  3  1  0  0  0  0
  5  4  2  0  0  0  0
  5  6  1  0  0  0  0
  6  1  2  0  0  0  0
  9 10  1  0  0  0  0
  9 16  1  1  0  0  0
 10  5  1  1  0  0  0
 11 10  1  0  0  0  0
 12 11  1  0  0  0  0
 13 14  1  0  0  0  0
 13 11  1  0  0  0  0
 14  9  1  0  0  0  0
 15 14  1  0  0  0  0
 17 16  1  0  0  0  0
 19 18  1  0  0  0  0
M  END
>  <minimizedAffinity>
-4.73940897

$$$$

 OpenBabel03242518433D

 19 20  0  0  1  0  0  0  0  0999 V2000
   36.7310   30.9310   40.4780 C   0  0  0  0  0  0  0  0  0  0  0  0
   37.0460   30.5040   39.1750 C   0  0  0  0  0  0  0  0  0  0  0  0
   37.2130   29.1170   38.9890 C   0  0  0  0  0  0  0  0  0  0  0  0
   37.0640   28.2910   40.0500 N   0  0  0  0  0  0  0  0  0  0  0  0
   36.7600   28.7590   41.2810 C   0  0  0  0  0  0  0  0  0  0  0  0
   36.5930   30.0620   41.5020 N   0  0  0  0  0  0  0  0  0  0  0  0
   37.1570   31.1930   38.3560 H   0  0  0  0  0  0  0  0  0  0  0  0
   37.4560   28.7730   37.9930 H   0  0  0  0  0  0  0  0  0  0  0  0
   37.5540   28.0900   43.5560 C   0  0  1  0  0  3  0  0  0  0  0  0
   36.6060   27.8120   42.4210 C   0  0  2  0  0  3  0  0  0  0  0  0
   37.0910   26.4590   41.9410 C   0  0  0  0  0  3  0  0  0  0  0  0
   36.7920   25.6550   42.6340 H   0  0  0  0  0  0  0  0  0  0  0  0
   38.4810   26.6490   41.9610 O   0  0  0  0  0  0  0  0  0  0  0  0
   38.7270   27.2010   43.2080 C   0  0  0  0  0  3  0  0  0  0  0  0
   38.8010   26.3870   43.9480 H   0  0  0  0  0  0  0  0  0  0  0  0
   37.8940   29.4140   43.6800 O   0  0  0  0  0  0  0  0  0  0  0  0
   38.7940   29.5720   44.0440 H   0  0  0  0  0  0  0  0  0  0  0  0
   36.5650   32.2880   40.6710 O   0  0  0  0  0  0  0  0  0  0  0  0
   37.3090   32.9470   40.8910 H   0  0  0  0  0  0  0  0  0  0  0  0
  1 18  1  0  0  0  0
  1  6  1  0  0  0  0
  2  1  2  0  0  0  0
  3  2  1  0  0  0  0
  3  4  2  0  0  0  0
  4  5  1  0  0  0  0
  5  6  2  0  0  0  0
  7  2  1  0  0  0  0
  8  3  1  0  0  0  0
  9 16  1  6  0  0  0
 10  5  1  6  0  0  0
 10  9  1  0  0  0  0
 11 13  1  0  0  0  0
 11 10  1  0  0  0  0
 11 12  1  0  0  0  0
 13 14  1  0  0  0  0
 14  9  1  0  0  0  0
 14 15  1  0  0  0  0
 16 17  1  0  0  0  0
 18 19  1  0  0  0  0
M  END
>  <minimizedAffinity>
-4.59350157

$$$$

 OpenBabel03242518433D

 19 20  0  0  1  0  0  0  0  0999 V2000
   39.0740   32.0280   37.9900 C   0  0  0  0  0  0  0  0  0  0  0  0
   39.6460   32.5930   39.1430 C   0  0  0  0  0  0  0  0  0  0  0  0
   39.1050   32.1880   40.3800 C   0  0  0  0  0  0  0  0  0  0  0  0
   38.0870   31.2970   40.3890 N   0  0  0  0  0  0  0  0  0  0  0  0
   37.5770   30.7860   39.2470 C   0  0  0  0  0  0  0  0  0  0  0  0
   38.0580   31.1400   38.0570 N   0  0  0  0  0  0  0  0  0  0  0  0
   40.4550   33.3010   39.0950 H   0  0  0  0  0  0  0  0  0  0  0  0
   39.5340   32.6150   41.2770 H   0  0  0  0  0  0  0  0  0  0  0  0
   35.7030   29.8420   40.6100 C   0  0  1  0  0  3  0  0  0  0  0  0
   36.4550   29.8060   39.3060 C   0  0  2  0  0  3  0  0  0  0  0  0
   37.0750   28.4240   39.3490 C   0  0  0  0  0  3  0  0  0  0  0  0
   36.3260   27.6400   39.1540 H   0  0  0  0  0  0  0  0  0  0  0  0
   37.5230   28.3710   40.6780 O   0  0  0  0  0  0  0  0  0  0  0  0
   36.4290   28.7900   41.4190 C   0  0  0  0  0  3  0  0  0  0  0  0
   35.7610   27.9290   41.5810 H   0  0  0  0  0  0  0  0  0  0  0  0
   35.6960   31.0780   41.2090 O   0  0  0  0  0  0  0  0  0  0  0  0
   35.6550   31.0550   42.1910 H   0  0  0  0  0  0  0  0  0  0  0  0
   39.5970   32.4170   36.7730 O   0  0  0  0  0  0  0  0  0  0  0  0
   39.2950   33.2280   36.2360 H   0  0  0  0  0  0  0  0  0  0  0  0
  1  6  2  0  0  0  0
  1  2  1  0  0  0  0
  2  3  2  0  0  0  0
  3  4  1  0  0  0  0
  3  8  1  0  0  0  0
  5  4  2  0  0  0  0
  6  5  1  0  0  0  0
  7  2  1  0  0  0  0
  9 16  1  1  0  0  0
  9 14  1  0  0  0  0
 10  5  1  1  0  0  0
 10 11  1  0  0  0  0
 10  9  1  0  0  0  0
 11 13  1  0  0  0  0
 12 11  1  0  0  0  0
 13 14  1  0  0  0  0
 14 15  1  0  0  0  0
 16 17  1  0  0  0  0
 18  1  1  0  0  0  0
 19 18  1  0  0  0  0
M  END
>  <minimizedAffinity>
-4.42250729

$$$$

 OpenBabel03242518433D

 19 20  0  0  1  0  0  0  0  0999 V2000
   41.9300   33.6350   37.7080 C   0  0  0  0  0  0  0  0  0  0  0  0
   42.3310   34.1360   38.9590 C   0  0  0  0  0  0  0  0  0  0  0  0
   41.6910   33.5920   40.0910 C   0  0  0  0  0  0  0  0  0  0  0  0
   40.7480   32.6380   39.9160 N   0  0  0  0  0  0  0  0  0  0  0  0
   40.4030   32.1940   38.6870 C   0  0  0  0  0  0  0  0  0  0  0  0
   40.9820   32.6800   37.5900 N   0  0  0  0  0  0  0  0  0  0  0  0
   43.0850   34.8970   39.0580 H   0  0  0  0  0  0  0  0  0  0  0  0
   41.9890   33.9680   41.0610 H   0  0  0  0  0  0  0  0  0  0  0  0
   38.3030   31.4890   37.5270 C   0  0  1  0  0  3  0  0  0  0  0  0
   39.3590   31.1420   38.5420 C   0  0  2  0  0  3  0  0  0  0  0  0
   38.5560   31.1330   39.8270 C   0  0  0  0  0  3  0  0  0  0  0  0
   37.9240   30.2330   39.9010 H   0  0  0  0  0  0  0  0  0  0  0  0
   37.7730   32.2860   39.6630 O   0  0  0  0  0  0  0  0  0  0  0  0
   37.2540   32.1610   38.3850 C   0  0  0  0  0  3  0  0  0  0  0  0
   36.3550   31.5250   38.4290 H   0  0  0  0  0  0  0  0  0  0  0  0
   38.7590   32.2860   36.5050 O   0  0  0  0  0  0  0  0  0  0  0  0
   38.0830   32.8890   36.1250 H   0  0  0  0  0  0  0  0  0  0  0  0
   42.5510   34.1600   36.5920 O   0  0  0  0  0  0  0  0  0  0  0  0
   42.2500   34.9930   36.0880 H   0  0  0  0  0  0  0  0  0  0  0  0
  1  2  1  0  0  0  0
  2  7  1  0  0  0  0
  2  3  2  0  0  0  0
  3  8  1  0  0  0  0
  4  3  1  0  0  0  0
  5  4  2  0  0  0  0
  6  1  2  0  0  0  0
  6  5  1  0  0  0  0
  9 16  1  6  0  0  0
  9 14  1  0  0  0  0
  9 10  1  0  0  0  0
 10  5  1  1  0  0  0
 10 11  1  0  0  0  0
 11 12  1  0  0  0  0
 13 11  1  0  0  0  0
 14 15  1  0  0  0  0
 14 13  1  0  0  0  0
 17 16  1  0  0  0  0
 18  1  1  0  0  0  0
 19 18  1  0  0  0  0
M  END
>  <minimizedAffinity>
-4.41932631

$$$$

 OpenBabel03242518433D

 19 20  0  0  1  0  0  0  0  0999 V2000
   37.7430   33.2350   39.7760 C   0  0  0  0  0  0  0  0  0  0  0  0
   38.9870   33.7140   40.2260 C   0  0  0  0  0  0  0  0  0  0  0  0
   39.8530   32.7690   40.8110 C   0  0  0  0  0  0  0  0  0  0  0  0
   39.4510   31.4810   40.9040 N   0  0  0  0  0  0  0  0  0  0  0  0
   38.2430   31.0770   40.4540 C   0  0  0  0  0  0  0  0  0  0  0  0
   37.3920   31.9360   39.8940 N   0  0  0  0  0  0  0  0  0  0  0  0
   39.2710   34.7470   40.1350 H   0  0  0  0  0  0  0  0  0  0  0  0
   40.8140   33.1220   41.1620 H   0  0  0  0  0  0  0  0  0  0  0  0
   36.6690   29.4370   41.4980 C   0  0  1  0  0  3  0  0  0  0  0  0
   37.8410   29.6470   40.5780 C   0  0  2  0  0  3  0  0  0  0  0  0
   38.9500   28.9390   41.3290 C   0  0  0  0  0  3  0  0  0  0  0  0
   38.8510   27.8440   41.2560 H   0  0  0  0  0  0  0  0  0  0  0  0
   38.7120   29.3800   42.6400 O   0  0  0  0  0  0  0  0  0  0  0  0
   37.3530   29.1750   42.8210 C   0  0  0  0  0  3  0  0  0  0  0  0
   37.1900   28.1260   43.1160 H   0  0  0  0  0  0  0  0  0  0  0  0
   35.8010   30.5010   41.5380 O   0  0  0  0  0  0  0  0  0  0  0  0
   35.3370   30.6170   42.3970 H   0  0  0  0  0  0  0  0  0  0  0  0
   36.8870   34.1520   39.2020 O   0  0  0  0  0  0  0  0  0  0  0  0
   36.2140   34.7260   39.7070 H   0  0  0  0  0  0  0  0  0  0  0  0
  1  6  2  0  0  0  0
  1  2  1  0  0  0  0
  2  3  2  0  0  0  0
  3  4  1  0  0  0  0
  3  8  1  0  0  0  0
  5  4  2  0  0  0  0
  6  5  1  0  0  0  0
  7  2  1  0  0  0  0
  9 16  1  1  0  0  0
  9 14  1  0  0  0  0
 10  5  1  1  0  0  0
 10 11  1  0  0  0  0
 10  9  1  0  0  0  0
 11 13  1  0  0  0  0
 12 11  1  0  0  0  0
 13 14  1  0  0  0  0
 14 15  1  0  0  0  0
 16 17  1  0  0  0  0
 18 19  1  0  0  0  0
 18  1  1  0  0  0  0
M  END
>  <minimizedAffinity>
-4.39682722

$$$$

 OpenBabel03242518433D

 19 20  0  0  1  0  0  0  0  0999 V2000
   37.2600   28.5060   42.4660 C   0  0  0  0  0  0  0  0  0  0  0  0
   38.4370   28.5810   43.2320 C   0  0  0  0  0  0  0  0  0  0  0  0
   39.1160   27.3680   43.4660 C   0  0  0  0  0  0  0  0  0  0  0  0
   38.6090   26.2240   42.9520 N   0  0  0  0  0  0  0  0  0  0  0  0
   37.4730   26.2130   42.2210 C   0  0  0  0  0  0  0  0  0  0  0  0
   36.7990   27.3350   41.9750 N   0  0  0  0  0  0  0  0  0  0  0  0
   38.8080   29.5110   43.6250 H   0  0  0  0  0  0  0  0  0  0  0  0
   40.0230   27.4090   44.0550 H   0  0  0  0  0  0  0  0  0  0  0  0
   37.9720   23.8210   41.6860 C   0  0  1  0  0  3  0  0  0  0  0  0
   36.9520   24.9280   41.6740 C   0  0  2  0  0  3  0  0  0  0  0  0
   36.7400   25.1320   40.1880 C   0  0  0  0  0  3  0  0  0  0  0  0
   36.1370   24.3200   39.7510 H   0  0  0  0  0  0  0  0  0  0  0  0
   38.0620   25.0860   39.7190 O   0  0  0  0  0  0  0  0  0  0  0  0
   38.5900   23.9500   40.3120 C   0  0  0  0  0  3  0  0  0  0  0  0
   38.3140   23.0730   39.7040 H   0  0  0  0  0  0  0  0  0  0  0  0
   38.8880   23.9250   42.7040 O   0  0  0  0  0  0  0  0  0  0  0  0
   39.7740   23.5560   42.4950 H   0  0  0  0  0  0  0  0  0  0  0  0
   36.5870   29.6890   42.2300 O   0  0  0  0  0  0  0  0  0  0  0  0
   35.8810   30.0950   42.8410 H   0  0  0  0  0  0  0  0  0  0  0  0
  1  2  1  0  0  0  0
  2  3  2  0  0  0  0
  2  7  1  0  0  0  0
  3  8  1  0  0  0  0
  4  3  1  0  0  0  0
  5  4  2  0  0  0  0
  6  5  1  0  0  0  0
  6  1  2  0  0  0  0
  9 16  1  1  0  0  0
 10  9  1  0  0  0  0
 10  5  1  6  0  0  0
 11 10  1  0  0  0  0
 12 11  1  0  0  0  0
 13 11  1  0  0  0  0
 13 14  1  0  0  0  0
 14  9  1  0  0  0  0
 15 14  1  0  0  0  0
 17 16  1  0  0  0  0
 18  1  1  0  0  0  0
 18 19  1  0  0  0  0
M  END
>  <minimizedAffinity>
-4.23599052

$$$$

 OpenBabel03242518433D

 19 20  0  0  1  0  0  0  0  0999 V2000
   36.7470   30.4170   41.1380 C   0  0  0  0  0  0  0  0  0  0  0  0
   37.4400   30.8080   39.9780 C   0  0  0  0  0  0  0  0  0  0  0  0
   38.6340   30.1160   39.6920 C   0  0  0  0  0  0  0  0  0  0  0  0
   39.0380   29.1340   40.5300 N   0  0  0  0  0  0  0  0  0  0  0  0
   38.3310   28.8010   41.6320 C   0  0  0  0  0  0  0  0  0  0  0  0
   37.1970   29.4280   41.9400 N   0  0  0  0  0  0  0  0  0  0  0  0
   37.0860   31.5960   39.3360 H   0  0  0  0  0  0  0  0  0  0  0  0
   39.1780   30.4060   38.8030 H   0  0  0  0  0  0  0  0  0  0  0  0
   38.7200   26.3450   41.9040 C   0  0  1  0  0  3  0  0  0  0  0  0
   38.8150   27.7120   42.5270 C   0  0  2  0  0  3  0  0  0  0  0  0
   37.8220   27.5990   43.6660 C   0  0  0  0  0  3  0  0  0  0  0  0
   38.2230   26.9900   44.4920 H   0  0  0  0  0  0  0  0  0  0  0  0
   36.7560   26.9440   43.0290 O   0  0  0  0  0  0  0  0  0  0  0  0
   37.3580   25.8820   42.3730 C   0  0  0  0  0  3  0  0  0  0  0  0
   37.4810   25.0490   43.0850 H   0  0  0  0  0  0  0  0  0  0  0  0
   38.8490   26.3510   40.5370 O   0  0  0  0  0  0  0  0  0  0  0  0
   38.3550   25.6370   40.0770 H   0  0  0  0  0  0  0  0  0  0  0  0
   35.5760   31.0890   41.4270 O   0  0  0  0  0  0  0  0  0  0  0  0
   35.5100   31.9510   41.9650 H   0  0  0  0  0  0  0  0  0  0  0  0
  1 18  1  0  0  0  0
  1  6  1  0  0  0  0
  2  1  2  0  0  0  0
  3  2  1  0  0  0  0
  3  4  2  0  0  0  0
  4  5  1  0  0  0  0
  5  6  2  0  0  0  0
  7  2  1  0  0  0  0
  8  3  1  0  0  0  0
  9 16  1  6  0  0  0
  9 14  1  0  0  0  0
  9 10  1  0  0  0  0
 10  5  1  6  0  0  0
 10 11  1  0  0  0  0
 11 12  1  0  0  0  0
 13 11  1  0  0  0  0
 14 13  1  0  0  0  0
 14 15  1  0  0  0  0
 17 16  1  0  0  0  0
 18 19  1  0  0  0  0
M  END
>  <minimizedAffinity>
-4.2170043

$$$$

 OpenBabel03242518433D

 19 20  0  0  1  0  0  0  0  0999 V2000
   38.9160   27.4270   41.8790 C   0  0  0  0  0  0  0  0  0  0  0  0
   38.2020   27.1940   43.0680 C   0  0  0  0  0  0  0  0  0  0  0  0
   37.4360   28.2670   43.5660 C   0  0  0  0  0  0  0  0  0  0  0  0
   37.4300   29.4370   42.8870 N   0  0  0  0  0  0  0  0  0  0  0  0
   38.1360   29.6040   41.7470 C   0  0  0  0  0  0  0  0  0  0  0  0
   38.8730   28.6170   41.2410 N   0  0  0  0  0  0  0  0  0  0  0  0
   38.2330   26.2480   43.5800 H   0  0  0  0  0  0  0  0  0  0  0  0
   36.8820   28.1020   44.4800 H   0  0  0  0  0  0  0  0  0  0  0  0
   36.7110   31.3220   40.6180 C   0  0  1  0  0  3  0  0  0  0  0  0
   38.0990   30.9120   41.0330 C   0  0  2  0  0  3  0  0  0  0  0  0
   38.7710   30.7040   39.6920 C   0  0  0  0  0  3  0  0  0  0  0  0
   39.0000   31.6650   39.2020 H   0  0  0  0  0  0  0  0  0  0  0  0
   37.7710   30.0100   38.9940 O   0  0  0  0  0  0  0  0  0  0  0  0
   36.6250   30.7560   39.2170 C   0  0  0  0  0  3  0  0  0  0  0  0
   36.5950   31.5840   38.4900 H   0  0  0  0  0  0  0  0  0  0  0  0
   35.7250   30.8560   41.4520 O   0  0  0  0  0  0  0  0  0  0  0  0
   34.8630   30.6870   41.0100 H   0  0  0  0  0  0  0  0  0  0  0  0
   39.6690   26.3820   41.3820 O   0  0  0  0  0  0  0  0  0  0  0  0
   40.6330   26.1770   41.6390 H   0  0  0  0  0  0  0  0  0  0  0  0
  1  2  1  0  0  0  0
  2  3  2  0  0  0  0
  2  7  1  0  0  0  0
  3  8  1  0  0  0  0
  4  3  1  0  0  0  0
  5  4  2  0  0  0  0
  6  5  1  0  0  0  0
  6  1  2  0  0  0  0
  9 10  1  0  0  0  0
  9 16  1  1  0  0  0
 10  5  1  1  0  0  0
 11 10  1  0  0  0  0
 12 11  1  0  0  0  0
 13 14  1  0  0  0  0
 13 11  1  0  0  0  0
 14  9  1  0  0  0  0
 15 14  1  0  0  0  0
 17 16  1  0  0  0  0
 18 19  1  0  0  0  0
 18  1  1  0  0  0  0
M  END
>  <minimizedAffinity>
-4.20255327

$$$$

 OpenBabel03242518433D

 19 20  0  0  1  0  0  0  0  0999 V2000
   35.9530   29.9980   40.7510 C   0  0  0  0  0  0  0  0  0  0  0  0
   36.5850   31.1040   40.1550 C   0  0  0  0  0  0  0  0  0  0  0  0
   37.8610   31.4430   40.6500 C   0  0  0  0  0  0  0  0  0  0  0  0
   38.3950   30.7020   41.6470 N   0  0  0  0  0  0  0  0  0  0  0  0
   37.7400   29.6480   42.1820 C   0  0  0  0  0  0  0  0  0  0  0  0
   36.5330   29.2920   41.7450 N   0  0  0  0  0  0  0  0  0  0  0  0
   36.1270   31.6690   39.3630 H   0  0  0  0  0  0  0  0  0  0  0  0
   38.3600   32.2910   40.2010 H   0  0  0  0  0  0  0  0  0  0  0  0
   39.5400   28.0350   42.8240 C   0  0  1  0  0  3  0  0  0  0  0  0
   38.3670   28.8600   43.2800 C   0  0  2  0  0  3  0  0  0  0  0  0
   37.3750   27.7880   43.6800 C   0  0  0  0  0  3  0  0  0  0  0  0
   37.6540   27.3160   44.6360 H   0  0  0  0  0  0  0  0  0  0  0  0
   37.5120   26.8840   42.6150 O   0  0  0  0  0  0  0  0  0  0  0  0
   38.8820   26.7130   42.4930 C   0  0  0  0  0  3  0  0  0  0  0  0
   39.2090   25.9500   43.2180 H   0  0  0  0  0  0  0  0  0  0  0  0
   40.2210   28.5810   41.7640 O   0  0  0  0  0  0  0  0  0  0  0  0
   40.6420   27.9240   41.1670 H   0  0  0  0  0  0  0  0  0  0  0  0
   34.7030   29.6570   40.2740 O   0  0  0  0  0  0  0  0  0  0  0  0
   33.8200   30.0400   40.6080 H   0  0  0  0  0  0  0  0  0  0  0  0
  1  6  1  0  0  0  0
  2  3  1  0  0  0  0
  2  1  2  0  0  0  0
  3  4  2  0  0  0  0
  4  5  1  0  0  0  0
  6  5  2  0  0  0  0
  7  2  1  0  0  0  0
  8  3  1  0  0  0  0
  9 16  1  6  0  0  0
  9 10  1  0  0  0  0
 10  5  1  6  0  0  0
 10 11  1  0  0  0  0
 11 12  1  0  0  0  0
 13 11  1  0  0  0  0
 14 13  1  0  0  0  0
 14  9  1  0  0  0  0
 14 15  1  0  0  0  0
 17 16  1  0  0  0  0
 18 19  1  0  0  0  0
 18  1  1  0  0  0  0
M  END
>  <minimizedAffinity>
-4.15324211

$$$$
