
 OpenBabel03252501453D

 23 24  0  0  1  0  0  0  0  0999 V2000
   44.2230   33.3880   41.8930 C   0  0  0  0  0  0  0  0  0  0  0  0
   44.5880   34.4770   42.6790 C   0  0  0  0  0  0  0  0  0  0  0  0
   44.1550   35.7370   42.2740 C   0  0  0  0  0  0  0  0  0  0  0  0
   43.4060   35.8550   41.1480 N   0  0  0  0  0  0  0  0  0  0  0  0
   43.0730   34.7630   40.4110 C   0  0  0  0  0  0  0  0  0  0  0  0
   43.4800   33.5380   40.7830 N   0  0  0  0  0  0  0  0  0  0  0  0
   44.5460   32.3790   42.1780 H   0  0  0  0  0  0  0  0  0  0  0  0
   44.3870   36.6400   42.8200 H   0  0  0  0  0  0  0  0  0  0  0  0
   41.8100   33.4490   38.7000 C   0  0  1  0  0  3  0  0  0  0  0  0
   42.2640   34.7920   39.1750 C   0  0  1  0  0  3  0  0  0  0  0  0
   40.9180   35.4110   39.5510 C   0  0  0  0  0  3  0  0  0  0  0  0
   41.0620   36.4970   39.5830 H   0  0  0  0  0  0  0  0  0  0  0  0
   40.0170   34.9620   38.6090 O   0  0  0  0  0  0  0  0  0  0  0  0
   40.4170   33.7070   38.1940 C   0  0  0  0  0  3  0  0  0  0  0  0
   40.4550   33.7390   37.0720 H   0  0  0  0  0  0  0  0  0  0  0  0
   42.6260   32.8840   37.7340 O   0  0  0  0  0  0  0  0  0  0  0  0
   42.4770   31.8900   37.7570 H   0  0  0  0  0  0  0  0  0  0  0  0
   45.3890   34.3340   43.8780 C   0  0  0  0  0  3  0  0  0  0  0  0
   45.5650   33.2110   44.5550 C   0  0  0  0  0  3  0  0  0  0  0  0
   46.4220   33.1710   45.7970 C   0  0  0  0  0  0  0  0  0  0  0  0
   45.8190   33.2200   46.7220 H   0  0  0  0  0  0  0  0  0  0  0  0
   47.0690   34.0730   45.7380 H   0  0  0  0  0  0  0  0  0  0  0  0
   47.0790   32.3000   45.7390 H   0  0  0  0  0  0  0  0  0  0  0  0
  1  7  1  0  0  0  0
  1  2  1  0  0  0  0
  2 18  1  0  0  0  0
  3  2  2  0  0  0  0
  3  8  1  0  0  0  0
  4  3  1  0  0  0  0
  5  6  1  0  0  0  0
  5  4  2  0  0  0  0
  6  1  2  0  0  0  0
  9 16  1  6  0  0  0
  9 10  1  0  0  0  0
 10 11  1  0  0  0  0
 10  5  1  1  0  0  0
 11 12  1  0  0  0  0
 13 11  1  0  0  0  0
 14 13  1  0  0  0  0
 14  9  1  0  0  0  0
 15 14  1  0  0  0  0
 16 17  1  0  0  0  0
 18 19  2  0  0  0  0
 19 20  1  0  0  0  0
 20 21  1  0  0  0  0
 22 20  1  0  0  0  0
 23 20  1  0  0  0  0
M  END
>  <minimizedAffinity>
-4.11006355

>  <minimizedRMSD>
7.55069923

$$$$
