
 OpenBabel03242515383D

 36 39  0  0  1  0  0  0  0  0999 V2000
   44.3160   34.8340   41.1940 C   0  0  0  0  0  0  0  0  0  0  0  0
   44.2680   34.0700   40.0360 C   0  0  0  0  0  0  0  0  0  0  0  0
   45.4590   33.4500   39.6400 C   0  0  0  0  0  0  0  0  0  0  0  0
   46.5750   33.6140   40.3760 N   0  0  0  0  0  0  0  0  0  0  0  0
   46.5780   34.3680   41.4990 C   0  0  0  0  0  0  0  0  0  0  0  0
   45.4520   34.9530   41.8730 N   0  0  0  0  0  0  0  0  0  0  0  0
   43.3520   33.9490   39.4510 H   0  0  0  0  0  0  0  0  0  0  0  0
   45.9460   31.2270   38.6710 C   0  0  2  0  0  3  0  0  0  0  0  0
   45.4700   32.6230   38.4160 C   0  0  1  0  0  3  0  0  0  0  0  0
   44.0750   32.3710   37.8940 C   0  0  0  0  0  3  0  0  0  0  0  0
   43.3730   32.3570   38.7520 H   0  0  0  0  0  0  0  0  0  0  0  0
   44.0690   31.1580   37.2680 O   0  0  0  0  0  0  0  0  0  0  0  0
   45.2100   30.4540   37.6020 C   0  0  0  0  0  3  0  0  0  0  0  0
   45.8760   30.3530   36.7240 H   0  0  0  0  0  0  0  0  0  0  0  0
   45.4530   30.8470   39.9330 O   0  0  0  0  0  0  0  0  0  0  0  0
   44.4780   30.6220   39.8670 H   0  0  0  0  0  0  0  0  0  0  0  0
   42.7700   35.6250   41.6860 S   0  0  0  0  0  0  0  0  0  0  0  0
   40.6180   35.2630   40.1060 C   0  0  0  0  0  0  0  0  0  0  0  0
   41.3700   34.6740   41.1070 C   0  0  0  0  0  0  0  0  0  0  0  0
   41.0320   33.4410   41.5960 C   0  0  0  0  0  0  0  0  0  0  0  0
   39.9400   32.7370   41.1220 C   0  0  0  0  0  0  0  0  0  0  0  0
   39.1870   33.3400   40.1130 C   0  0  0  0  0  0  0  0  0  0  0  0
   39.5000   34.5840   39.5940 C   0  0  0  0  0  0  0  0  0  0  0  0
   38.1390   32.4430   39.7960 O   0  0  0  0  0  0  0  0  0  0  0  0
   38.1080   31.4850   40.8050 C   0  0  0  0  0  0  0  0  0  0  0  0
   39.3720   31.4960   41.4250 O   0  0  0  0  0  0  0  0  0  0  0  0
   40.7950   36.2350   39.6460 H   0  0  0  0  0  0  0  0  0  0  0  0
   41.6490   33.0030   42.3900 H   0  0  0  0  0  0  0  0  0  0  0  0
   38.8990   35.0180   38.8180 H   0  0  0  0  0  0  0  0  0  0  0  0
   37.2670   31.5920   41.5110 H   0  0  0  0  0  0  0  0  0  0  0  0
   37.9810   30.4870   40.3290 H   0  0  0  0  0  0  0  0  0  0  0  0
   47.6750   34.5770   42.2940 O   0  0  0  0  0  0  0  0  0  0  0  0
   48.9140   34.8600   41.6850 C   0  0  0  0  0  0  0  0  0  0  0  0
   49.5320   33.7360   41.2220 F   0  0  0  0  0  0  0  0  0  0  0  0
   48.6430   35.8010   40.6950 F   0  0  0  0  0  0  0  0  0  0  0  0
   49.7350   35.4200   42.6660 F   0  0  0  0  0  0  0  0  0  0  0  0
  1 17  1  0  0  0  0
  1  6  1  0  0  0  0
  2  1  2  0  0  0  0
  3  2  1  0  0  0  0
  3  4  2  0  0  0  0
  4  5  1  0  0  0  0
  5  6  2  0  0  0  0
  5 32  1  0  0  0  0
  7  2  1  0  0  0  0
  8 15  1  1  0  0  0
  9  8  1  0  0  0  0
  9  3  1  1  0  0  0
 10  9  1  0  0  0  0
 10 11  1  0  0  0  0
 12 13  1  0  0  0  0
 12 10  1  0  0  0  0
 13  8  1  0  0  0  0
 14 13  1  0  0  0  0
 16 15  1  0  0  0  0
 18 19  1  0  0  0  0
 19 20  2  0  0  0  0
 19 17  1  0  0  0  0
 20 28  1  0  0  0  0
 21 26  1  0  0  0  0
 21 20  1  0  0  0  0
 22 21  2  0  0  0  0
 23 18  2  0  0  0  0
 23 22  1  0  0  0  0
 24 22  1  0  0  0  0
 24 25  1  0  0  0  0
 25 26  1  0  0  0  0
 25 30  1  0  0  0  0
 27 18  1  0  0  0  0
 29 23  1  0  0  0  0
 31 25  1  0  0  0  0
 33 32  1  0  0  0  0
 33 36  1  0  0  0  0
 34 33  1  0  0  0  0
 35 33  1  0  0  0  0
M  END
>  <minimizedAffinity>
-5.51228571

>  <minimizedRMSD>
1.03279161

$$$$
