
 OpenBabel03252504413D

 45 48  0  0  1  0  0  0  0  0999 V2000
   46.3260   32.2240   47.8170 C   0  0  0  0  0  0  0  0  0  0  0  0
   45.8810   31.8150   49.0410 C   0  0  0  0  0  0  0  0  0  0  0  0
   46.8820   31.1370   49.6100 N   0  0  0  0  0  0  0  0  0  0  0  0
   47.9430   31.0930   48.8060 C   0  0  0  0  0  0  0  0  0  0  0  0
   47.5910   31.7750   47.6850 N   0  0  0  0  0  0  0  0  0  0  0  0
   49.2230   30.4980   48.9670 N   0  0  0  0  0  0  0  0  0  0  0  0
   50.2780   31.2940   49.6080 C   0  0  0  0  0  0  0  0  0  0  0  0
   50.3950   30.7130   51.0160 C   0  0  0  0  0  0  0  0  0  0  0  0
   50.4880   29.2110   50.9470 C   0  0  0  0  0  0  0  0  0  0  0  0
   50.8300   28.7650   49.5340 C   0  0  0  0  0  0  0  0  0  0  0  0
   49.7240   29.1950   48.6040 C   0  0  0  0  0  0  0  0  0  0  0  0
   44.9090   31.9990   49.4780 H   0  0  0  0  0  0  0  0  0  0  0  0
   46.8410   30.6980   50.5560 H   0  0  0  0  0  0  0  0  0  0  0  0
   51.2360   31.2310   49.0710 H   0  0  0  0  0  0  0  0  0  0  0  0
   49.9490   32.3520   49.7220 H   0  0  0  0  0  0  0  0  0  0  0  0
   51.2260   31.1960   51.5520 H   0  0  0  0  0  0  0  0  0  0  0  0
   49.4490   31.0380   51.5360 H   0  0  0  0  0  0  0  0  0  0  0  0
   51.1950   28.8080   51.6870 H   0  0  0  0  0  0  0  0  0  0  0  0
   49.4890   28.7970   51.2110 H   0  0  0  0  0  0  0  0  0  0  0  0
   51.7810   29.2120   49.2050 H   0  0  0  0  0  0  0  0  0  0  0  0
   50.9800   27.6760   49.5510 H   0  0  0  0  0  0  0  0  0  0  0  0
   48.9300   28.3940   48.6380 H   0  0  0  0  0  0  0  0  0  0  0  0
   50.0500   29.1970   47.5370 H   0  0  0  0  0  0  0  0  0  0  0  0
   45.5760   33.0150   46.8050 C   0  0  0  0  0  0  0  0  0  0  0  0
   45.2610   33.9790   47.2500 H   0  0  0  0  0  0  0  0  0  0  0  0
   44.6150   32.4760   46.5670 H   0  0  0  0  0  0  0  0  0  0  0  0
   45.9420   33.8440   44.5080 C   0  0  0  0  0  0  0  0  0  0  0  0
   46.4040   33.2490   45.5980 C   0  0  0  0  0  0  0  0  0  0  0  0
   46.8630   34.0150   43.3790 C   0  0  0  0  0  0  0  0  0  0  0  0
   46.8640   35.1860   42.5970 C   0  0  0  0  0  0  0  0  0  0  0  0
   47.7680   35.2630   41.5480 C   0  0  0  0  0  0  0  0  0  0  0  0
   48.6020   34.2330   41.3180 N   0  0  0  0  0  0  0  0  0  0  0  0
   48.5850   33.1040   42.0890 C   0  0  0  0  0  0  0  0  0  0  0  0
   47.7350   33.0110   43.0870 N   0  0  0  0  0  0  0  0  0  0  0  0
   46.1760   35.9790   42.8270 H   0  0  0  0  0  0  0  0  0  0  0  0
   47.8000   36.1470   40.9250 H   0  0  0  0  0  0  0  0  0  0  0  0
   50.9150   32.2800   42.3410 C   0  0  1  0  0  0  0  0  0  0  0  0
   49.5420   32.0160   41.7590 C   0  0  2  0  0  0  0  0  0  0  0  0
   49.8520   32.0180   40.2930 C   0  0  0  0  0  0  0  0  0  0  0  0
   49.1060   31.4400   39.6930 H   0  0  0  0  0  0  0  0  0  0  0  0
   51.1430   31.5410   40.1350 O   0  0  0  0  0  0  0  0  0  0  0  0
   51.7710   31.4960   41.3560 C   0  0  0  0  0  0  0  0  0  0  0  0
   52.8150   31.8610   41.3330 H   0  0  0  0  0  0  0  0  0  0  0  0
   51.2720   33.6220   42.2430 O   0  0  0  0  0  0  0  0  0  0  0  0
   51.4270   33.8620   41.2920 H   0  0  0  0  0  0  0  0  0  0  0  0
  1  2  2  0  0  0  0
  2 12  1  0  0  0  0
  2  3  1  0  0  0  0
  3 13  1  0  0  0  0
  4  6  1  0  0  0  0
  4  3  1  0  0  0  0
  5  1  1  0  0  0  0
  5  4  2  0  0  0  0
  6  7  1  0  0  0  0
  7 15  1  0  0  0  0
  7  8  1  0  0  0  0
  8 17  1  0  0  0  0
  8 16  1  0  0  0  0
  9  8  1  0  0  0  0
  9 19  1  0  0  0  0
  9 18  1  0  0  0  0
 10 21  1  0  0  0  0
 10  9  1  0  0  0  0
 11 22  1  0  0  0  0
 11  6  1  0  0  0  0
 11 10  1  0  0  0  0
 14  7  1  0  0  0  0
 20 10  1  0  0  0  0
 23 11  1  0  0  0  0
 24 25  1  0  0  0  0
 24  1  1  0  0  0  0
 26 24  1  0  0  0  0
 27 28  2  0  0  0  0
 28 24  1  0  0  0  0
 29 27  1  0  0  0  0
 30 35  1  0  0  0  0
 30 29  2  0  0  0  0
 31 30  1  0  0  0  0
 32 31  2  0  0  0  0
 32 33  1  0  0  0  0
 33 34  2  0  0  0  0
 34 29  1  0  0  0  0
 36 31  1  0  0  0  0
 37 44  1  6  0  0  0
 38 33  1  6  0  0  0
 38 37  1  0  0  0  0
 39 38  1  0  0  0  0
 40 39  1  0  0  0  0
 41 39  1  0  0  0  0
 41 42  1  0  0  0  0
 42 37  1  0  0  0  0
 43 42  1  0  0  0  0
 45 44  1  0  0  0  0
M  END
>  <minimizedAffinity>
-6.44291592

>  <minimizedRMSD>
0.560193419

$$$$
