
 OpenBabel03252507093D

 24 25  0  0  1  0  0  0  0  0999 V2000
   38.1040   27.9640   43.6280 C   0  0  0  0  0  0  0  0  0  0  0  0
   38.2150   29.2460   43.0370 C   0  0  0  0  0  0  0  0  0  0  0  0
   38.1370   29.3070   41.6460 C   0  0  0  0  0  0  0  0  0  0  0  0
   37.9640   28.1680   40.9390 N   0  0  0  0  0  0  0  0  0  0  0  0
   37.8630   26.9640   41.5370 C   0  0  0  0  0  0  0  0  0  0  0  0
   37.9330   26.8640   42.8800 N   0  0  0  0  0  0  0  0  0  0  0  0
   38.1550   27.8450   44.7090 H   0  0  0  0  0  0  0  0  0  0  0  0
   38.3500   30.0780   43.7090 H   0  0  0  0  0  0  0  0  0  0  0  0
   37.0370   24.6030   41.6230 C   0  0  1  0  0  3  0  0  0  0  0  0
   37.6750   25.7060   40.8050 C   0  0  1  0  0  3  0  0  0  0  0  0
   36.5790   25.8480   39.7410 C   0  0  0  0  0  3  0  0  0  0  0  0
   37.0450   26.2810   38.8320 H   0  0  0  0  0  0  0  0  0  0  0  0
   36.0180   24.6170   39.5670 O   0  0  0  0  0  0  0  0  0  0  0  0
   36.5730   23.7190   40.4650 C   0  0  0  0  0  3  0  0  0  0  0  0
   37.5090   23.3290   39.9900 H   0  0  0  0  0  0  0  0  0  0  0  0
   37.9120   23.9640   42.4700 O   0  0  0  0  0  0  0  0  0  0  0  0
   37.9970   23.0090   42.2210 H   0  0  0  0  0  0  0  0  0  0  0  0
   38.2460   30.5640   41.0720 O   0  0  0  0  0  0  0  0  0  0  0  0
   36.6440   30.9370   38.9920 O   0  0  0  0  0  0  0  0  0  0  0  0
   36.8480   31.3420   40.4520 P   0  0  0  0  0  0  0  0  0  0  0  0
   35.5400   30.9320   41.3960 O   0  0  0  0  0  0  0  0  0  0  0  0
   35.8460   30.7340   42.3010 H   0  0  0  0  0  0  0  0  0  0  0  0
   37.1520   33.0100   40.4950 O   0  0  0  0  0  0  0  0  0  0  0  0
   36.6040   33.4760   41.1650 H   0  0  0  0  0  0  0  0  0  0  0  0
  1  7  1  0  0  0  0
  2  1  1  0  0  0  0
  2  8  1  0  0  0  0
  3  2  2  0  0  0  0
  4  5  2  0  0  0  0
  4  3  1  0  0  0  0
  5  6  1  0  0  0  0
  6  1  2  0  0  0  0
  9 16  1  1  0  0  0
 10  5  1  1  0  0  0
 10  9  1  0  0  0  0
 11 10  1  0  0  0  0
 12 11  1  0  0  0  0
 13 11  1  0  0  0  0
 13 14  1  0  0  0  0
 14  9  1  0  0  0  0
 15 14  1  0  0  0  0
 17 16  1  0  0  0  0
 18  3  1  0  0  0  0
 19 20  2  0  0  0  0
 20 23  1  0  0  0  0
 20 18  1  0  0  0  0
 20 21  1  0  0  0  0
 21 22  1  0  0  0  0
 23 24  1  0  0  0  0
M  END
>  <minimizedAffinity>
-5.5243187

$$$$

 OpenBabel03252507093D

 24 25  0  0  1  0  0  0  0  0999 V2000
   41.2120   29.8530   42.3560 C   0  0  0  0  0  0  0  0  0  0  0  0
   40.5930   31.0250   41.8610 C   0  0  0  0  0  0  0  0  0  0  0  0
   39.2050   30.9950   41.7250 C   0  0  0  0  0  0  0  0  0  0  0  0
   38.5280   29.8740   42.0640 N   0  0  0  0  0  0  0  0  0  0  0  0
   39.1530   28.7760   42.5320 C   0  0  0  0  0  0  0  0  0  0  0  0
   40.4940   28.7680   42.6790 N   0  0  0  0  0  0  0  0  0  0  0  0
   42.2930   29.8100   42.4880 H   0  0  0  0  0  0  0  0  0  0  0  0
   41.2410   31.8530   41.6270 H   0  0  0  0  0  0  0  0  0  0  0  0
   37.1630   27.3060   42.1580 C   0  0  1  0  0  3  0  0  0  0  0  0
   38.4550   27.5420   42.9110 C   0  0  1  0  0  3  0  0  0  0  0  0
   39.2200   26.3060   42.4210 C   0  0  0  0  0  3  0  0  0  0  0  0
   39.9980   26.0700   43.1760 H   0  0  0  0  0  0  0  0  0  0  0  0
   38.3040   25.3170   42.2130 O   0  0  0  0  0  0  0  0  0  0  0  0
   37.0270   25.8080   42.4310 C   0  0  0  0  0  3  0  0  0  0  0  0
   36.8330   25.7180   43.5300 H   0  0  0  0  0  0  0  0  0  0  0  0
   36.1010   28.0380   42.6350 O   0  0  0  0  0  0  0  0  0  0  0  0
   35.3940   27.4350   42.9800 H   0  0  0  0  0  0  0  0  0  0  0  0
   38.6020   32.1450   41.2390 O   0  0  0  0  0  0  0  0  0  0  0  0
   37.5700   31.2580   38.9640 O   0  0  0  0  0  0  0  0  0  0  0  0
   37.2140   32.0220   40.2400 P   0  0  0  0  0  0  0  0  0  0  0  0
   36.0000   31.2690   41.0930 O   0  0  0  0  0  0  0  0  0  0  0  0
   36.1220   31.4410   42.0460 H   0  0  0  0  0  0  0  0  0  0  0  0
   36.7810   33.6020   39.8000 O   0  0  0  0  0  0  0  0  0  0  0  0
   35.9410   33.8930   40.2180 H   0  0  0  0  0  0  0  0  0  0  0  0
  1  7  1  0  0  0  0
  1  6  1  0  0  0  0
  2  1  2  0  0  0  0
  3  2  1  0  0  0  0
  3  4  2  0  0  0  0
  4  5  1  0  0  0  0
  5  6  2  0  0  0  0
  8  2  1  0  0  0  0
  9 14  1  0  0  0  0
  9 16  1  1  0  0  0
  9 10  1  0  0  0  0
 10  5  1  6  0  0  0
 11 10  1  0  0  0  0
 11 12  1  0  0  0  0
 13 11  1  0  0  0  0
 13 14  1  0  0  0  0
 14 15  1  0  0  0  0
 16 17  1  0  0  0  0
 18  3  1  0  0  0  0
 19 20  2  0  0  0  0
 20 21  1  0  0  0  0
 20 18  1  0  0  0  0
 21 22  1  0  0  0  0
 23 24  1  0  0  0  0
 23 20  1  0  0  0  0
M  END
>  <minimizedAffinity>
-5.00888014

$$$$

 OpenBabel03252507093D

 24 25  0  0  1  0  0  0  0  0999 V2000
   38.5200   28.1760   37.9390 C   0  0  0  0  0  0  0  0  0  0  0  0
   38.4250   29.5670   37.6950 C   0  0  0  0  0  0  0  0  0  0  0  0
   38.1750   30.3830   38.7980 C   0  0  0  0  0  0  0  0  0  0  0  0
   38.0390   29.8250   40.0210 N   0  0  0  0  0  0  0  0  0  0  0  0
   38.1360   28.4950   40.2150 C   0  0  0  0  0  0  0  0  0  0  0  0
   38.3780   27.6720   39.1730 N   0  0  0  0  0  0  0  0  0  0  0  0
   38.7150   27.4810   37.1220 H   0  0  0  0  0  0  0  0  0  0  0  0
   38.5530   29.8890   36.6750 H   0  0  0  0  0  0  0  0  0  0  0  0
   36.7660   28.2820   42.2990 C   0  0  1  0  0  3  0  0  0  0  0  0
   37.9950   27.8510   41.5260 C   0  0  1  0  0  3  0  0  0  0  0  0
   37.6440   26.3650   41.3740 C   0  0  0  0  0  3  0  0  0  0  0  0
   38.5910   25.8080   41.2280 H   0  0  0  0  0  0  0  0  0  0  0  0
   36.9280   26.0010   42.4760 O   0  0  0  0  0  0  0  0  0  0  0  0
   36.7060   27.1100   43.2770 C   0  0  0  0  0  3  0  0  0  0  0  0
   37.6070   27.2170   43.9320 H   0  0  0  0  0  0  0  0  0  0  0  0
   36.9040   29.4990   42.9250 O   0  0  0  0  0  0  0  0  0  0  0  0
   36.8360   29.3900   43.9080 H   0  0  0  0  0  0  0  0  0  0  0  0
   38.0820   31.7450   38.5550 O   0  0  0  0  0  0  0  0  0  0  0  0
   38.7480   33.1410   40.7080 O   0  0  0  0  0  0  0  0  0  0  0  0
   37.5630   32.7990   39.8030 P   0  0  0  0  0  0  0  0  0  0  0  0
   36.8960   34.1610   39.1180 O   0  0  0  0  0  0  0  0  0  0  0  0
   36.5290   33.9330   38.2420 H   0  0  0  0  0  0  0  0  0  0  0  0
   36.4280   31.9460   40.7300 O   0  0  0  0  0  0  0  0  0  0  0  0
   35.5150   32.2970   40.6260 H   0  0  0  0  0  0  0  0  0  0  0  0
  1  6  1  0  0  0  0
  2  1  2  0  0  0  0
  2  3  1  0  0  0  0
  3  4  2  0  0  0  0
  4  5  1  0  0  0  0
  6  5  2  0  0  0  0
  7  1  1  0  0  0  0
  8  2  1  0  0  0  0
  9 16  1  1  0  0  0
  9 14  1  0  0  0  0
 10  5  1  6  0  0  0
 10  9  1  0  0  0  0
 11 10  1  0  0  0  0
 11 13  1  0  0  0  0
 12 11  1  0  0  0  0
 13 14  1  0  0  0  0
 14 15  1  0  0  0  0
 16 17  1  0  0  0  0
 18  3  1  0  0  0  0
 18 20  1  0  0  0  0
 20 19  2  0  0  0  0
 20 23  1  0  0  0  0
 21 20  1  0  0  0  0
 22 21  1  0  0  0  0
 24 23  1  0  0  0  0
M  END
>  <minimizedAffinity>
-4.91944218

$$$$

 OpenBabel03252507093D

 24 25  0  0  1  0  0  0  0  0999 V2000
   37.5100   24.2770   41.3340 C   0  0  0  0  0  0  0  0  0  0  0  0
   38.6850   24.1100   42.1040 C   0  0  0  0  0  0  0  0  0  0  0  0
   39.1990   25.2480   42.7240 C   0  0  0  0  0  0  0  0  0  0  0  0
   38.5660   26.4330   42.5670 N   0  0  0  0  0  0  0  0  0  0  0  0
   37.4480   26.5540   41.8260 C   0  0  0  0  0  0  0  0  0  0  0  0
   36.9210   25.4750   41.2110 N   0  0  0  0  0  0  0  0  0  0  0  0
   37.0560   23.4280   40.8230 H   0  0  0  0  0  0  0  0  0  0  0  0
   39.0950   23.1140   42.1520 H   0  0  0  0  0  0  0  0  0  0  0  0
   37.4010   29.0140   42.2810 C   0  0  1  0  0  3  0  0  0  0  0  0
   36.7330   27.8210   41.6320 C   0  0  1  0  0  3  0  0  0  0  0  0
   36.8270   28.2870   40.1730 C   0  0  0  0  0  3  0  0  0  0  0  0
   36.0260   27.7740   39.6020 H   0  0  0  0  0  0  0  0  0  0  0  0
   36.7480   29.6490   40.1750 O   0  0  0  0  0  0  0  0  0  0  0  0
   36.7020   30.1130   41.4800 C   0  0  0  0  0  3  0  0  0  0  0  0
   35.6280   30.0770   41.7940 H   0  0  0  0  0  0  0  0  0  0  0  0
   37.1730   29.1080   43.6340 O   0  0  0  0  0  0  0  0  0  0  0  0
   36.6760   29.9400   43.8430 H   0  0  0  0  0  0  0  0  0  0  0  0
   40.3510   25.0810   43.4770 O   0  0  0  0  0  0  0  0  0  0  0  0
   42.0530   27.0800   43.1150 O   0  0  0  0  0  0  0  0  0  0  0  0
   41.8620   25.5880   42.8450 P   0  0  0  0  0  0  0  0  0  0  0  0
   43.0700   24.6750   43.5380 O   0  0  0  0  0  0  0  0  0  0  0  0
   42.7100   23.8030   43.7870 H   0  0  0  0  0  0  0  0  0  0  0  0
   41.7950   25.3640   41.1650 O   0  0  0  0  0  0  0  0  0  0  0  0
   42.3820   24.6380   40.8580 H   0  0  0  0  0  0  0  0  0  0  0  0
  1  2  1  0  0  0  0
  2  8  1  0  0  0  0
  2  3  2  0  0  0  0
  3 18  1  0  0  0  0
  4  3  1  0  0  0  0
  5  4  2  0  0  0  0
  6  1  2  0  0  0  0
  6  5  1  0  0  0  0
  7  1  1  0  0  0  0
  9 16  1  1  0  0  0
 10  5  1  6  0  0  0
 10  9  1  0  0  0  0
 11 13  1  0  0  0  0
 11 10  1  0  0  0  0
 12 11  1  0  0  0  0
 13 14  1  0  0  0  0
 14 15  1  0  0  0  0
 14  9  1  0  0  0  0
 16 17  1  0  0  0  0
 20 19  2  0  0  0  0
 20 18  1  0  0  0  0
 20 21  1  0  0  0  0
 21 22  1  0  0  0  0
 23 20  1  0  0  0  0
 24 23  1  0  0  0  0
M  END
>  <minimizedAffinity>
-4.90451574

$$$$

 OpenBabel03252507093D

 24 25  0  0  1  0  0  0  0  0999 V2000
   38.3140   29.3540   43.1230 C   0  0  0  0  0  0  0  0  0  0  0  0
   37.9420   28.0120   43.3730 C   0  0  0  0  0  0  0  0  0  0  0  0
   37.1780   27.3770   42.3950 C   0  0  0  0  0  0  0  0  0  0  0  0
   36.8320   28.0550   41.2780 N   0  0  0  0  0  0  0  0  0  0  0  0
   37.2050   29.3330   41.0740 C   0  0  0  0  0  0  0  0  0  0  0  0
   37.9460   29.9810   41.9960 N   0  0  0  0  0  0  0  0  0  0  0  0
   38.9130   29.9080   43.8450 H   0  0  0  0  0  0  0  0  0  0  0  0
   38.2800   27.5810   44.3020 H   0  0  0  0  0  0  0  0  0  0  0  0
   37.3900   31.5170   39.8640 C   0  0  1  0  0  3  0  0  0  0  0  0
   36.8510   30.1020   39.8750 C   0  0  1  0  0  3  0  0  0  0  0  0
   37.6010   29.5760   38.6440 C   0  0  0  0  0  3  0  0  0  0  0  0
   37.0240   28.7200   38.2370 H   0  0  0  0  0  0  0  0  0  0  0  0
   37.7560   30.6230   37.7830 O   0  0  0  0  0  0  0  0  0  0  0  0
   37.2670   31.7820   38.3640 C   0  0  0  0  0  3  0  0  0  0  0  0
   36.1670   31.8070   38.1520 H   0  0  0  0  0  0  0  0  0  0  0  0
   36.6570   32.3950   40.6280 O   0  0  0  0  0  0  0  0  0  0  0  0
   36.2640   33.1030   40.0570 H   0  0  0  0  0  0  0  0  0  0  0  0
   36.8150   26.0620   42.6450 O   0  0  0  0  0  0  0  0  0  0  0  0
   36.2380   23.9940   41.0900 O   0  0  0  0  0  0  0  0  0  0  0  0
   37.4100   24.8080   41.6370 P   0  0  0  0  0  0  0  0  0  0  0  0
   38.3170   25.4830   40.4160 O   0  0  0  0  0  0  0  0  0  0  0  0
   38.6990   26.3260   40.7270 H   0  0  0  0  0  0  0  0  0  0  0  0
   38.3440   23.7870   42.6180 O   0  0  0  0  0  0  0  0  0  0  0  0
   39.3030   23.8400   42.4120 H   0  0  0  0  0  0  0  0  0  0  0  0
  1  2  1  0  0  0  0
  1  7  1  0  0  0  0
  2  8  1  0  0  0  0
  3 18  1  0  0  0  0
  3  2  2  0  0  0  0
  4  3  1  0  0  0  0
  5  4  2  0  0  0  0
  5  6  1  0  0  0  0
  6  1  2  0  0  0  0
  9 10  1  0  0  0  0
  9 16  1  1  0  0  0
 10  5  1  1  0  0  0
 11 10  1  0  0  0  0
 12 11  1  0  0  0  0
 13 14  1  0  0  0  0
 13 11  1  0  0  0  0
 14  9  1  0  0  0  0
 15 14  1  0  0  0  0
 17 16  1  0  0  0  0
 19 20  2  0  0  0  0
 20 23  1  0  0  0  0
 20 18  1  0  0  0  0
 21 22  1  0  0  0  0
 21 20  1  0  0  0  0
 24 23  1  0  0  0  0
M  END
>  <minimizedAffinity>
-4.9020524

$$$$

 OpenBabel03252507093D

 24 25  0  0  1  0  0  0  0  0999 V2000
   36.0780   29.8010   37.7150 C   0  0  0  0  0  0  0  0  0  0  0  0
   35.7950   28.8410   38.7160 C   0  0  0  0  0  0  0  0  0  0  0  0
   36.3870   29.0380   39.9630 C   0  0  0  0  0  0  0  0  0  0  0  0
   37.1860   30.1110   40.1570 N   0  0  0  0  0  0  0  0  0  0  0  0
   37.4330   31.0050   39.1800 C   0  0  0  0  0  0  0  0  0  0  0  0
   36.8780   30.8490   37.9600 N   0  0  0  0  0  0  0  0  0  0  0  0
   35.6460   29.7070   36.7190 H   0  0  0  0  0  0  0  0  0  0  0  0
   35.1420   28.0300   38.4380 H   0  0  0  0  0  0  0  0  0  0  0  0
   37.5880   33.3840   39.9410 C   0  0  1  0  0  3  0  0  0  0  0  0
   38.2930   32.1810   39.3510 C   0  0  1  0  0  3  0  0  0  0  0  0
   39.3140   31.9560   40.4740 C   0  0  0  0  0  3  0  0  0  0  0  0
   40.1800   31.4140   40.0410 H   0  0  0  0  0  0  0  0  0  0  0  0
   39.6100   33.1770   41.0060 O   0  0  0  0  0  0  0  0  0  0  0  0
   38.8260   34.1500   40.4070 C   0  0  0  0  0  3  0  0  0  0  0  0
   39.3590   34.4590   39.4720 H   0  0  0  0  0  0  0  0  0  0  0  0
   36.8330   34.0850   39.0310 O   0  0  0  0  0  0  0  0  0  0  0  0
   37.1860   35.0060   38.9260 H   0  0  0  0  0  0  0  0  0  0  0  0
   36.1070   28.0950   40.9410 O   0  0  0  0  0  0  0  0  0  0  0  0
   36.6340   26.8290   43.2100 O   0  0  0  0  0  0  0  0  0  0  0  0
   37.1060   27.9870   42.3300 P   0  0  0  0  0  0  0  0  0  0  0  0
   38.6860   27.7900   41.8450 O   0  0  0  0  0  0  0  0  0  0  0  0
   38.8060   28.2010   40.9670 H   0  0  0  0  0  0  0  0  0  0  0  0
   36.8960   29.4260   43.2030 O   0  0  0  0  0  0  0  0  0  0  0  0
   37.6950   29.9980   43.1860 H   0  0  0  0  0  0  0  0  0  0  0  0
  1  6  2  0  0  0  0
  1  2  1  0  0  0  0
  2  3  2  0  0  0  0
  3  4  1  0  0  0  0
  3 18  1  0  0  0  0
  5  4  2  0  0  0  0
  6  5  1  0  0  0  0
  7  1  1  0  0  0  0
  8  2  1  0  0  0  0
  9 16  1  6  0  0  0
  9 14  1  0  0  0  0
 10  5  1  1  0  0  0
 10  9  1  0  0  0  0
 10 11  1  0  0  0  0
 11 13  1  0  0  0  0
 12 11  1  0  0  0  0
 14 13  1  0  0  0  0
 15 14  1  0  0  0  0
 17 16  1  0  0  0  0
 18 20  1  0  0  0  0
 20 23  1  0  0  0  0
 20 19  2  0  0  0  0
 21 20  1  0  0  0  0
 22 21  1  0  0  0  0
 24 23  1  0  0  0  0
M  END
>  <minimizedAffinity>
-4.81036711

$$$$

 OpenBabel03252507093D

 24 25  0  0  1  0  0  0  0  0999 V2000
   38.8710   26.9470   43.5600 C   0  0  0  0  0  0  0  0  0  0  0  0
   37.5650   27.0840   43.0340 C   0  0  0  0  0  0  0  0  0  0  0  0
   37.3400   28.1600   42.1770 C   0  0  0  0  0  0  0  0  0  0  0  0
   38.3570   29.0060   41.8920 N   0  0  0  0  0  0  0  0  0  0  0  0
   39.5890   28.8440   42.4120 C   0  0  0  0  0  0  0  0  0  0  0  0
   39.8450   27.8140   43.2450 N   0  0  0  0  0  0  0  0  0  0  0  0
   39.1150   26.1270   44.2360 H   0  0  0  0  0  0  0  0  0  0  0  0
   36.8420   26.3450   43.3370 H   0  0  0  0  0  0  0  0  0  0  0  0
   40.5940   31.1100   42.7570 C   0  0  1  0  0  3  0  0  0  0  0  0
   40.7170   29.7390   42.1270 C   0  0  1  0  0  3  0  0  0  0  0  0
   41.9830   29.2770   42.8590 C   0  0  0  0  0  3  0  0  0  0  0  0
   42.4710   28.5010   42.2340 H   0  0  0  0  0  0  0  0  0  0  0  0
   42.7440   30.3840   43.0950 O   0  0  0  0  0  0  0  0  0  0  0  0
   42.0650   31.5160   42.6730 C   0  0  0  0  0  3  0  0  0  0  0  0
   42.2840   31.6330   41.5820 H   0  0  0  0  0  0  0  0  0  0  0  0
   39.7610   31.9620   42.0710 O   0  0  0  0  0  0  0  0  0  0  0  0
   40.2690   32.7440   41.7340 H   0  0  0  0  0  0  0  0  0  0  0  0
   36.0590   28.2910   41.6640 O   0  0  0  0  0  0  0  0  0  0  0  0
   34.3820   29.2420   39.8440 O   0  0  0  0  0  0  0  0  0  0  0  0
   35.7180   29.5310   40.5290 P   0  0  0  0  0  0  0  0  0  0  0  0
   35.7040   30.9960   41.3180 O   0  0  0  0  0  0  0  0  0  0  0  0
   36.2920   30.9480   42.0960 H   0  0  0  0  0  0  0  0  0  0  0  0
   36.9350   29.4680   39.3490 O   0  0  0  0  0  0  0  0  0  0  0  0
   37.5380   30.2430   39.3870 H   0  0  0  0  0  0  0  0  0  0  0  0
  1  7  1  0  0  0  0
  2  8  1  0  0  0  0
  2  1  2  0  0  0  0
  3  2  1  0  0  0  0
  4  3  2  0  0  0  0
  4  5  1  0  0  0  0
  5  6  2  0  0  0  0
  6  1  1  0  0  0  0
  9 16  1  6  0  0  0
 10  5  1  1  0  0  0
 10  9  1  0  0  0  0
 10 11  1  0  0  0  0
 11 13  1  0  0  0  0
 12 11  1  0  0  0  0
 14  9  1  0  0  0  0
 14 13  1  0  0  0  0
 15 14  1  0  0  0  0
 17 16  1  0  0  0  0
 18  3  1  0  0  0  0
 19 20  2  0  0  0  0
 20 21  1  0  0  0  0
 20 18  1  0  0  0  0
 21 22  1  0  0  0  0
 23 24  1  0  0  0  0
 23 20  1  0  0  0  0
M  END
>  <minimizedAffinity>
-4.79810715

$$$$

 OpenBabel03252507093D

 24 25  0  0  1  0  0  0  0  0999 V2000
   35.8890   27.3340   37.7840 C   0  0  0  0  0  0  0  0  0  0  0  0
   36.1330   28.7280   37.7750 C   0  0  0  0  0  0  0  0  0  0  0  0
   36.6290   29.2890   38.9510 C   0  0  0  0  0  0  0  0  0  0  0  0
   36.8490   28.4960   40.0240 N   0  0  0  0  0  0  0  0  0  0  0  0
   36.6050   27.1720   39.9960 C   0  0  0  0  0  0  0  0  0  0  0  0
   36.1260   26.5920   38.8760 N   0  0  0  0  0  0  0  0  0  0  0  0
   35.5030   26.8320   36.8980 H   0  0  0  0  0  0  0  0  0  0  0  0
   35.9170   29.2510   36.8570 H   0  0  0  0  0  0  0  0  0  0  0  0
   37.3210   24.8970   40.7570 C   0  0  1  0  0  3  0  0  0  0  0  0
   36.8320   26.2780   41.1380 C   0  0  1  0  0  3  0  0  0  0  0  0
   38.0550   26.7250   41.9500 C   0  0  0  0  0  3  0  0  0  0  0  0
   37.7210   27.5090   42.6590 H   0  0  0  0  0  0  0  0  0  0  0  0
   38.5840   25.6110   42.5340 O   0  0  0  0  0  0  0  0  0  0  0  0
   37.8880   24.4880   42.1160 C   0  0  0  0  0  3  0  0  0  0  0  0
   37.0030   24.3900   42.7950 H   0  0  0  0  0  0  0  0  0  0  0  0
   36.3240   24.0590   40.3160 O   0  0  0  0  0  0  0  0  0  0  0  0
   36.2330   23.2820   40.9240 H   0  0  0  0  0  0  0  0  0  0  0  0
   36.8650   30.6550   38.9370 O   0  0  0  0  0  0  0  0  0  0  0  0
   38.2590   31.1960   41.1270 O   0  0  0  0  0  0  0  0  0  0  0  0
   36.9450   31.5210   40.4160 P   0  0  0  0  0  0  0  0  0  0  0  0
   36.8010   33.1480   40.0970 O   0  0  0  0  0  0  0  0  0  0  0  0
   36.2810   33.2700   39.2800 H   0  0  0  0  0  0  0  0  0  0  0  0
   35.6730   30.9590   41.3860 O   0  0  0  0  0  0  0  0  0  0  0  0
   34.9680   31.6320   41.5120 H   0  0  0  0  0  0  0  0  0  0  0  0
  1  6  1  0  0  0  0
  2  1  2  0  0  0  0
  2  3  1  0  0  0  0
  3  4  2  0  0  0  0
  5  4  1  0  0  0  0
  6  5  2  0  0  0  0
  7  1  1  0  0  0  0
  8  2  1  0  0  0  0
  9 16  1  1  0  0  0
  9 10  1  0  0  0  0
  9 14  1  0  0  0  0
 10  5  1  6  0  0  0
 10 11  1  0  0  0  0
 11 13  1  0  0  0  0
 11 12  1  0  0  0  0
 14 13  1  0  0  0  0
 14 15  1  0  0  0  0
 16 17  1  0  0  0  0
 18  3  1  0  0  0  0
 18 20  1  0  0  0  0
 20 19  2  0  0  0  0
 20 23  1  0  0  0  0
 21 20  1  0  0  0  0
 22 21  1  0  0  0  0
 23 24  1  0  0  0  0
M  END
>  <minimizedAffinity>
-4.74758863

$$$$

 OpenBabel03252507093D

 24 25  0  0  1  0  0  0  0  0999 V2000
   39.6900   27.8340   42.8160 C   0  0  0  0  0  0  0  0  0  0  0  0
   40.4580   29.0210   42.7450 C   0  0  0  0  0  0  0  0  0  0  0  0
   39.8440   30.1350   42.1740 C   0  0  0  0  0  0  0  0  0  0  0  0
   38.5730   30.0360   41.7230 N   0  0  0  0  0  0  0  0  0  0  0  0
   37.8730   28.8880   41.8080 C   0  0  0  0  0  0  0  0  0  0  0  0
   38.4320   27.7890   42.3550 N   0  0  0  0  0  0  0  0  0  0  0  0
   40.1090   26.9270   43.2520 H   0  0  0  0  0  0  0  0  0  0  0  0
   41.4600   28.9730   43.1390 H   0  0  0  0  0  0  0  0  0  0  0  0
   35.9620   29.9480   40.5870 C   0  0  1  0  0  3  0  0  0  0  0  0
   36.4920   28.7410   41.3310 C   0  0  1  0  0  3  0  0  0  0  0  0
   36.4140   27.7270   40.1820 C   0  0  0  0  0  3  0  0  0  0  0  0
   36.3430   26.7140   40.6290 H   0  0  0  0  0  0  0  0  0  0  0  0
   35.3560   28.0820   39.3980 O   0  0  0  0  0  0  0  0  0  0  0  0
   34.8010   29.2620   39.8670 C   0  0  0  0  0  3  0  0  0  0  0  0
   34.0740   28.9770   40.6700 H   0  0  0  0  0  0  0  0  0  0  0  0
   35.5540   30.9710   41.4110 O   0  0  0  0  0  0  0  0  0  0  0  0
   34.5830   31.1360   41.3010 H   0  0  0  0  0  0  0  0  0  0  0  0
   40.6000   31.2950   42.1060 O   0  0  0  0  0  0  0  0  0  0  0  0
   40.6670   31.8560   39.5160 O   0  0  0  0  0  0  0  0  0  0  0  0
   40.2860   32.4460   40.8740 P   0  0  0  0  0  0  0  0  0  0  0  0
   38.6790   32.8750   40.9330 O   0  0  0  0  0  0  0  0  0  0  0  0
   38.3520   32.7710   41.8470 H   0  0  0  0  0  0  0  0  0  0  0  0
   41.2990   33.7740   41.1690 O   0  0  0  0  0  0  0  0  0  0  0  0
   40.8010   34.5700   41.4610 H   0  0  0  0  0  0  0  0  0  0  0  0
  1  7  1  0  0  0  0
  2  1  1  0  0  0  0
  2  8  1  0  0  0  0
  3  2  2  0  0  0  0
  4  5  2  0  0  0  0
  4  3  1  0  0  0  0
  5  6  1  0  0  0  0
  6  1  2  0  0  0  0
  9 10  1  0  0  0  0
  9 16  1  1  0  0  0
 10  5  1  6  0  0  0
 11 12  1  0  0  0  0
 11 10  1  0  0  0  0
 13 14  1  0  0  0  0
 13 11  1  0  0  0  0
 14  9  1  0  0  0  0
 14 15  1  0  0  0  0
 17 16  1  0  0  0  0
 18  3  1  0  0  0  0
 19 20  2  0  0  0  0
 20 21  1  0  0  0  0
 20 23  1  0  0  0  0
 20 18  1  0  0  0  0
 21 22  1  0  0  0  0
 23 24  1  0  0  0  0
M  END
>  <minimizedAffinity>
-4.69793034

$$$$
