
 OpenBabel03252509043D

 48 50  0  0  1  0  0  0  0  0999 V2000
   46.7190   34.4660   43.5520 N   0  0  0  0  0  0  0  0  0  0  0  0
   46.2780   35.5540   42.7670 C   0  0  0  0  0  0  0  0  0  0  0  0
   44.7690   35.7460   42.7620 C   0  0  0  0  0  0  0  0  0  0  0  0
   44.1110   35.4100   44.0790 C   0  0  0  0  0  0  0  0  0  0  0  0
   45.1310   35.0300   45.1360 C   0  0  0  0  0  0  0  0  0  0  0  0
   45.9120   33.8290   44.4610 C   0  0  2  0  0  0  0  0  0  0  0  0
   46.5850   35.5480   41.7170 H   0  0  0  0  0  0  0  0  0  0  0  0
   46.7090   36.4830   43.2000 H   0  0  0  0  0  0  0  0  0  0  0  0
   44.5720   36.7870   42.4340 H   0  0  0  0  0  0  0  0  0  0  0  0
   44.3690   35.0820   41.9580 H   0  0  0  0  0  0  0  0  0  0  0  0
   43.4090   34.5680   43.9650 H   0  0  0  0  0  0  0  0  0  0  0  0
   43.5310   36.2650   44.4760 H   0  0  0  0  0  0  0  0  0  0  0  0
   45.8450   35.8220   45.3580 H   0  0  0  0  0  0  0  0  0  0  0  0
   44.5740   34.6190   45.9920 H   0  0  0  0  0  0  0  0  0  0  0  0
   45.1460   33.1290   44.0740 H   0  0  0  0  0  0  0  0  0  0  0  0
   47.8270   33.7380   42.9850 C   0  0  0  0  0  0  0  0  0  0  0  0
   48.3320   33.2140   43.8480 H   0  0  0  0  0  0  0  0  0  0  0  0
   48.5410   34.4040   42.4890 H   0  0  0  0  0  0  0  0  0  0  0  0
   47.2790   32.6760   42.1030 C   0  0  0  0  0  0  0  0  0  0  0  0
   47.4540   31.6360   42.4530 H   0  0  0  0  0  0  0  0  0  0  0  0
   46.1610   32.7480   42.0030 H   0  0  0  0  0  0  0  0  0  0  0  0
   49.0750   31.9910   38.8800 C   0  0  0  0  0  0  0  0  0  0  0  0
   48.5670   31.8510   40.1870 C   0  0  0  0  0  0  0  0  0  0  0  0
   47.7990   32.8500   40.7270 C   0  0  0  0  0  0  0  0  0  0  0  0
   47.5720   33.9170   39.9680 N   0  0  0  0  0  0  0  0  0  0  0  0
   48.0450   34.0650   38.7290 C   0  0  0  0  0  0  0  0  0  0  0  0
   48.8060   33.1000   38.1630 N   0  0  0  0  0  0  0  0  0  0  0  0
   49.6740   31.1430   38.5410 H   0  0  0  0  0  0  0  0  0  0  0  0
   48.7710   30.9670   40.7770 H   0  0  0  0  0  0  0  0  0  0  0  0
   47.8550   34.9430   38.1140 H   0  0  0  0  0  0  0  0  0  0  0  0
   46.5960   33.3270   45.5540 O   0  0  0  0  0  0  0  0  0  0  0  0
   45.4950   31.0680   44.6650 O   0  0  0  0  0  0  0  0  0  0  0  0
   46.2650   31.6980   45.8240 P   0  0  2  0  0  0  0  0  0  0  0  0
   45.1800   31.6680   47.1540 O   0  0  0  0  0  0  0  0  0  0  0  0
   45.6770   31.4850   47.9900 H   0  0  0  0  0  0  0  0  0  0  0  0
   47.6180   30.8140   46.2470 O   0  0  0  0  0  0  0  0  0  0  0  0
   47.7920   29.8050   45.3230 C   0  0  0  0  0  0  0  0  0  0  0  0
   48.2670   30.2490   44.4040 H   0  0  0  0  0  0  0  0  0  0  0  0
   46.8990   29.2610   45.0270 H   0  0  0  0  0  0  0  0  0  0  0  0
   49.3990   28.4020   48.1240 C   0  0  2  0  0  3  0  0  0  0  0  0
   49.5420   29.4710   47.0790 C   0  0  0  0  0  3  0  0  0  0  0  0
   49.1430   30.4610   47.3750 H   0  0  0  0  0  0  0  0  0  0  0  0
   48.8720   28.8650   45.8780 C   0  0  1  0  0  3  0  0  0  0  0  0
   48.3470   27.6560   46.2420 O   0  0  0  0  0  0  0  0  0  0  0  0
   48.1890   27.6450   47.6190 C   0  0  0  0  0  3  0  0  0  0  0  0
   48.1740   26.5930   47.9920 H   0  0  0  0  0  0  0  0  0  0  0  0
   49.1420   29.0100   49.3520 O   0  0  0  0  0  0  0  0  0  0  0  0
   48.6110   29.8450   49.1660 H   0  0  0  0  0  0  0  0  0  0  0  0
  1  6  1  0  0  0  0
  2  8  1  0  0  0  0
  2  1  1  0  0  0  0
  3  2  1  0  0  0  0
  3  4  1  0  0  0  0
  4 12  1  0  0  0  0
  4  5  1  0  0  0  0
  5 13  1  0  0  0  0
  5 14  1  0  0  0  0
  6 15  1  6  0  0  0
  6  5  1  0  0  0  0
  6 31  1  0  0  0  0
  7  2  1  0  0  0  0
  9  3  1  0  0  0  0
 10  3  1  0  0  0  0
 11  4  1  0  0  0  0
 16  1  1  0  0  0  0
 16 17  1  0  0  0  0
 18 16  1  0  0  0  0
 19 20  1  0  0  0  0
 19 16  1  0  0  0  0
 21 19  1  0  0  0  0
 22 23  1  0  0  0  0
 23 24  2  0  0  0  0
 23 29  1  0  0  0  0
 24 19  1  0  0  0  0
 25 24  1  0  0  0  0
 26 25  2  0  0  0  0
 27 26  1  0  0  0  0
 27 22  2  0  0  0  0
 28 22  1  0  0  0  0
 30 26  1  0  0  0  0
 31 33  1  0  0  0  0
 33 32  2  6  0  0  0
 33 36  1  0  0  0  0
 33 34  1  0  0  0  0
 34 35  1  0  0  0  0
 37 36  1  0  0  0  0
 38 37  1  0  0  0  0
 39 37  1  0  0  0  0
 40 47  1  1  0  0  0
 41 42  1  0  0  0  0
 41 40  1  0  0  0  0
 43 37  1  1  0  0  0
 43 44  1  0  0  0  0
 43 41  1  0  0  0  0
 44 45  1  0  0  0  0
 45 46  1  0  0  0  0
 45 40  1  0  0  0  0
 48 47  1  0  0  0  0
M  END
>  <minimizedAffinity>
-4.24446344

>  <minimizedRMSD>
0.848655283

$$$$
