
 OpenBabel03242523223D

 43 46  0  0  1  0  0  0  0  0999 V2000
   47.2880   32.7780   44.1100 C   0  0  0  0  0  0  0  0  0  0  0  0
   48.0070   33.0430   43.0240 C   0  0  0  0  0  0  0  0  0  0  0  0
   48.8420   32.0200   42.6240 C   0  0  0  0  0  0  0  0  0  0  0  0
   48.8520   30.8370   43.3780 N   0  0  0  0  0  0  0  0  0  0  0  0
   48.1220   30.6400   44.4380 C   0  0  0  0  0  0  0  0  0  0  0  0
   47.2730   31.6390   44.8700 N   0  0  0  0  0  0  0  0  0  0  0  0
   49.5220   31.9810   41.7860 H   0  0  0  0  0  0  0  0  0  0  0  0
   48.2280   29.6700   44.9340 H   0  0  0  0  0  0  0  0  0  0  0  0
   48.0890   34.2680   42.3210 C   0  0  1  0  0  0  0  0  0  0  0  0
   48.8830   34.6000   41.2680 C   0  0  0  0  0  0  0  0  0  0  0  0
   47.4460   34.3840   40.9090 C   0  0  1  0  0  0  0  0  0  0  0  0
   47.8760   35.1450   42.9930 H   0  0  0  0  0  0  0  0  0  0  0  0
   49.6360   33.8470   40.8860 H   0  0  0  0  0  0  0  0  0  0  0  0
   49.2530   35.6070   40.9720 H   0  0  0  0  0  0  0  0  0  0  0  0
   46.7960   35.2760   40.7910 H   0  0  0  0  0  0  0  0  0  0  0  0
   45.9130   33.2810   39.2190 C   0  0  1  0  0  3  0  0  0  0  0  0
   47.1520   33.2410   40.0550 C   0  0  1  0  0  3  0  0  0  0  0  0
   48.2390   33.1760   39.0070 C   0  0  0  0  0  3  0  0  0  0  0  0
   49.1740   33.6320   39.3950 H   0  0  0  0  0  0  0  0  0  0  0  0
   47.7490   33.9500   37.9800 O   0  0  0  0  0  0  0  0  0  0  0  0
   46.4090   33.5770   37.8420 C   0  0  0  0  0  3  0  0  0  0  0  0
   45.8050   34.3900   37.4100 H   0  0  0  0  0  0  0  0  0  0  0  0
   45.3770   31.9780   39.1880 O   0  0  0  0  0  0  0  0  0  0  0  0
   45.5170   31.5250   38.3260 H   0  0  0  0  0  0  0  0  0  0  0  0
   46.2660   33.6530   44.7210 C   0  0  0  0  0  0  0  0  0  0  0  0
   45.7510   34.2340   45.6320 O   0  0  0  0  0  0  0  0  0  0  0  0
   44.6010   31.5180   43.2370 Cl  0  0  0  0  0  0  0  0  0  0  0  0
   44.4920   33.2310   42.8630 C   0  0  0  0  0  0  0  0  0  0  0  0
   45.3140   34.0820   43.6480 C   0  0  0  0  0  0  0  0  0  0  0  0
   45.1350   35.3920   43.2660 C   0  0  0  0  0  0  0  0  0  0  0  0
   44.3620   35.9300   42.3330 C   0  0  0  0  0  0  0  0  0  0  0  0
   43.5940   35.0410   41.6120 C   0  0  0  0  0  0  0  0  0  0  0  0
   43.6520   33.7040   41.8690 C   0  0  0  0  0  0  0  0  0  0  0  0
   45.6980   36.1740   43.8280 H   0  0  0  0  0  0  0  0  0  0  0  0
   44.2890   36.9910   42.1010 H   0  0  0  0  0  0  0  0  0  0  0  0
   42.9360   35.4510   40.8240 H   0  0  0  0  0  0  0  0  0  0  0  0
   42.8390   32.9270   41.0870 O   0  0  0  0  0  0  0  0  0  0  0  0
   40.6690   31.8550   40.0770 O   0  0  0  0  0  0  0  0  0  0  0  0
   41.2450   32.4130   41.3550 P   0  0  0  0  0  0  0  0  0  0  0  0
   41.2300   31.2530   42.5910 O   0  0  0  0  0  0  0  0  0  0  0  0
   41.3250   31.6770   43.4650 H   0  0  0  0  0  0  0  0  0  0  0  0
   40.2730   33.6820   41.9130 O   0  0  0  0  0  0  0  0  0  0  0  0
   39.4440   33.2960   42.2990 H   0  0  0  0  0  0  0  0  0  0  0  0
  1 25  1  0  0  0  0
  1  6  1  0  0  0  0
  2  1  2  0  0  0  0
  3  2  1  0  0  0  0
  3  4  2  0  0  0  0
  4  5  1  0  0  0  0
  5  6  2  0  0  0  0
  5  8  1  0  0  0  0
  7  3  1  0  0  0  0
  9 12  1  1  0  0  0
  9  2  1  0  0  0  0
 10  9  1  0  0  0  0
 11 15  1  6  0  0  0
 11 10  1  0  0  0  0
 11  9  1  0  0  0  0
 13 10  1  0  0  0  0
 14 10  1  0  0  0  0
 16 23  1  6  0  0  0
 16 17  1  0  0  0  0
 17 18  1  6  0  0  0
 17 11  1  0  0  0  0
 18 19  1  0  0  0  0
 20 18  1  0  0  0  0
 21 20  1  0  0  0  0
 21 16  1  0  0  0  0
 22 21  1  0  0  0  0
 24 23  1  0  0  0  0
 25 26  2  0  0  0  0
 28 27  1  0  0  0  0
 28 29  1  0  0  0  0
 29 25  1  0  0  0  0
 30 29  2  0  0  0  0
 30 34  1  0  0  0  0
 31 30  1  0  0  0  0
 32 33  1  0  0  0  0
 32 31  2  0  0  0  0
 33 28  2  0  0  0  0
 35 31  1  0  0  0  0
 36 32  1  0  0  0  0
 37 39  1  0  0  0  0
 37 33  1  0  0  0  0
 38 39  2  0  0  0  0
 39 42  1  0  0  0  0
 39 40  1  0  0  0  0
 40 41  1  0  0  0  0
 42 43  1  0  0  0  0
M  END
>  <minimizedAffinity>
-5.47153521

>  <minimizedRMSD>
1.29388785

$$$$
