
 OpenBabel03242511323D

 35 37  0  0  1  0  0  0  0  0999 V2000
   48.9300   33.3240   42.7830 C   0  0  0  0  0  0  0  0  0  0  0  0
   47.7640   32.8570   43.2190 C   0  0  0  0  0  0  0  0  0  0  0  0
   49.5100   32.7350   41.5830 C   0  0  0  0  0  0  0  0  0  0  0  0
   50.8490   32.2760   41.6820 C   0  0  0  0  0  0  0  0  0  0  0  0
   51.4380   31.7030   40.5450 C   0  0  0  0  0  0  0  0  0  0  0  0
   50.7060   31.6160   39.4130 N   0  0  0  0  0  0  0  0  0  0  0  0
   49.4260   32.0710   39.3690 C   0  0  0  0  0  0  0  0  0  0  0  0
   48.8570   32.6150   40.4380 N   0  0  0  0  0  0  0  0  0  0  0  0
   51.4060   32.3650   42.6170 H   0  0  0  0  0  0  0  0  0  0  0  0
   52.4650   31.3450   40.6000 H   0  0  0  0  0  0  0  0  0  0  0  0
   49.3420   32.5350   36.9280 C   0  0  1  0  0  0  0  0  0  0  0  0
   48.6420   31.9670   38.1190 C   0  0  2  0  0  0  0  0  0  0  0  0
   47.3720   32.7790   38.1500 C   0  0  0  0  0  0  0  0  0  0  0  0
   47.4970   33.6560   38.8350 H   0  0  0  0  0  0  0  0  0  0  0  0
   47.1300   33.2670   36.8960 O   0  0  0  0  0  0  0  0  0  0  0  0
   48.1370   32.8910   36.0500 C   0  0  0  0  0  0  0  0  0  0  0  0
   47.8100   31.9600   35.5020 H   0  0  0  0  0  0  0  0  0  0  0  0
   49.9910   33.7370   37.1950 O   0  0  0  0  0  0  0  0  0  0  0  0
   49.3920   34.5000   37.2480 H   0  0  0  0  0  0  0  0  0  0  0  0
   47.1060   33.3960   44.4250 C   0  0  0  0  0  0  0  0  0  0  0  0
   47.6520   34.2840   44.8420 H   0  0  0  0  0  0  0  0  0  0  0  0
   46.9620   32.6660   45.2340 H   0  0  0  0  0  0  0  0  0  0  0  0
   44.5460   35.9240   43.9940 C   0  0  1  0  0  0  0  0  0  0  0  0
   45.7140   35.1780   43.3280 C   0  0  0  0  0  0  0  0  0  0  0  0
   45.6930   33.9120   44.1000 C   0  0  2  0  0  0  0  0  0  0  0  0
   44.9530   34.0880   45.2410 O   0  0  0  0  0  0  0  0  0  0  0  0
   44.6960   35.4240   45.4120 C   0  0  0  0  0  0  0  0  0  0  0  0
   43.5890   35.6310   43.5260 H   0  0  0  0  0  0  0  0  0  0  0  0
   46.6280   35.7380   43.5700 H   0  0  0  0  0  0  0  0  0  0  0  0
   45.5560   35.0620   42.2410 H   0  0  0  0  0  0  0  0  0  0  0  0
   45.2230   33.0810   43.5210 H   0  0  0  0  0  0  0  0  0  0  0  0
   43.7100   35.5650   45.8960 H   0  0  0  0  0  0  0  0  0  0  0  0
   45.4990   35.9950   45.9000 H   0  0  0  0  0  0  0  0  0  0  0  0
   44.7670   37.3020   43.8960 O   0  0  0  0  0  0  0  0  0  0  0  0
   45.4930   37.5010   44.5380 H   0  0  0  0  0  0  0  0  0  0  0  0
  1  2  2  0  0  0  0
  2 20  1  0  0  0  0
  3  4  1  0  0  0  0
  3  1  1  0  0  0  0
  4  9  1  0  0  0  0
  5 10  1  0  0  0  0
  5  4  2  0  0  0  0
  6  5  1  0  0  0  0
  7  6  2  0  0  0  0
  7  8  1  0  0  0  0
  8  3  2  0  0  0  0
 11 18  1  1  0  0  0
 11 12  1  0  0  0  0
 12 13  1  0  0  0  0
 12  7  1  1  0  0  0
 13 14  1  0  0  0  0
 15 13  1  0  0  0  0
 16 15  1  0  0  0  0
 16 11  1  0  0  0  0
 17 16  1  0  0  0  0
 18 19  1  0  0  0  0
 20 21  1  0  0  0  0
 20 22  1  0  0  0  0
 23 28  1  6  0  0  0
 23 27  1  0  0  0  0
 24 29  1  0  0  0  0
 24 23  1  0  0  0  0
 24 25  1  0  0  0  0
 25 31  1  6  0  0  0
 25 20  1  0  0  0  0
 25 26  1  0  0  0  0
 26 27  1  0  0  0  0
 27 32  1  0  0  0  0
 27 33  1  0  0  0  0
 30 24  1  0  0  0  0
 34 23  1  0  0  0  0
 34 35  1  0  0  0  0
M  END
>  <minimizedAffinity>
-5.42463398

>  <minimizedRMSD>
0.689968407

$$$$
