
 OpenBabel03252505153D

 25 27  0  0  1  0  0  0  0  0999 V2000
   44.5690   35.6380   44.7910 C   0  0  0  0  0  0  0  0  0  0  0  0
   45.1310   35.7100   43.5050 C   0  0  0  0  0  0  0  0  0  0  0  0
   46.1440   34.7800   43.2540 C   0  0  0  0  0  0  0  0  0  0  0  0
   46.5190   33.8870   44.2290 N   0  0  0  0  0  0  0  0  0  0  0  0
   45.9340   33.8710   45.4530 C   0  0  0  0  0  0  0  0  0  0  0  0
   44.9580   34.7520   45.7220 N   0  0  0  0  0  0  0  0  0  0  0  0
   43.7710   36.3340   45.0610 H   0  0  0  0  0  0  0  0  0  0  0  0
   44.8180   36.4150   42.7700 H   0  0  0  0  0  0  0  0  0  0  0  0
   46.8140   34.7370   41.9090 C   0  0  0  0  0  0  0  0  0  0  0  0
   48.1810   35.3870   41.9230 C   0  0  0  0  0  0  0  0  0  0  0  0
   47.9610   33.8550   41.7450 C   0  0  0  0  0  0  0  0  0  0  0  0
   46.1480   34.9940   41.0630 H   0  0  0  0  0  0  0  0  0  0  0  0
   48.4400   35.9270   40.9900 H   0  0  0  0  0  0  0  0  0  0  0  0
   48.6080   35.7410   42.8640 H   0  0  0  0  0  0  0  0  0  0  0  0
   48.3110   33.2820   42.6510 H   0  0  0  0  0  0  0  0  0  0  0  0
   48.2770   33.4390   40.7690 H   0  0  0  0  0  0  0  0  0  0  0  0
   45.8960   32.8780   47.7030 C   0  0  2  0  0  0  0  0  0  0  0  0
   46.5150   32.8150   46.3220 C   0  0  1  0  0  0  0  0  0  0  0  0
   46.0670   31.4340   45.8600 C   0  0  0  0  0  0  0  0  0  0  0  0
   46.9420   30.8400   45.5530 H   0  0  0  0  0  0  0  0  0  0  0  0
   45.4220   30.8330   46.9210 O   0  0  0  0  0  0  0  0  0  0  0  0
   45.9000   31.3920   48.0810 C   0  0  0  0  0  0  0  0  0  0  0  0
   46.9400   31.0580   48.2110 H   0  0  0  0  0  0  0  0  0  0  0  0
   44.6270   33.3940   47.6840 O   0  0  0  0  0  0  0  0  0  0  0  0
   44.0360   32.9950   48.3940 H   0  0  0  0  0  0  0  0  0  0  0  0
  1  7  1  0  0  0  0
  1  6  1  0  0  0  0
  2  1  2  0  0  0  0
  3  2  1  0  0  0  0
  3  4  2  0  0  0  0
  4  5  1  0  0  0  0
  5  6  2  0  0  0  0
  8  2  1  0  0  0  0
  9 10  1  0  0  0  0
  9  3  1  0  0  0  0
 10 14  1  0  0  0  0
 11  9  1  0  0  0  0
 11 10  1  0  0  0  0
 11 15  1  0  0  0  0
 12  9  1  0  0  0  0
 13 10  1  0  0  0  0
 16 11  1  0  0  0  0
 17 24  1  6  0  0  0
 17 22  1  0  0  0  0
 18  5  1  6  0  0  0
 18 17  1  0  0  0  0
 19 18  1  0  0  0  0
 19 21  1  0  0  0  0
 20 19  1  0  0  0  0
 21 22  1  0  0  0  0
 22 23  1  0  0  0  0
 24 25  1  0  0  0  0
M  END
>  <minimizedAffinity>
-5.32462072

>  <minimizedRMSD>
0.557171345

$$$$
