
 OpenBabel03252502173D

 24 25  0  0  1  0  0  0  0  0999 V2000
   40.2590   30.0790   40.0140 C   0  0  0  0  0  0  0  0  0  0  0  0
   39.0670   29.7580   40.6910 C   0  0  0  0  0  0  0  0  0  0  0  0
   38.6950   28.4170   40.7860 C   0  0  0  0  0  0  0  0  0  0  0  0
   39.5080   27.5020   40.2190 N   0  0  0  0  0  0  0  0  0  0  0  0
   40.6430   27.8190   39.5770 C   0  0  0  0  0  0  0  0  0  0  0  0
   41.0230   29.1150   39.4720 N   0  0  0  0  0  0  0  0  0  0  0  0
   40.6130   31.0970   39.9000 H   0  0  0  0  0  0  0  0  0  0  0  0
   41.2540   27.0500   39.1430 H   0  0  0  0  0  0  0  0  0  0  0  0
   37.6010   28.1690   43.0120 C   0  0  2  0  0  3  0  0  0  0  0  0
   37.4470   28.1190   41.4980 C   0  0  2  0  0  3  0  0  0  0  0  0
   37.0220   26.6790   41.3090 C   0  0  0  0  0  3  0  0  0  0  0  0
   36.0410   26.5750   40.8130 H   0  0  0  0  0  0  0  0  0  0  0  0
   36.9300   26.0920   42.5610 O   0  0  0  0  0  0  0  0  0  0  0  0
   36.5320   27.1390   43.3910 C   0  0  0  0  0  3  0  0  0  0  0  0
   36.5230   26.9100   44.4510 H   0  0  0  0  0  0  0  0  0  0  0  0
   37.2720   29.4250   43.5180 O   0  0  0  0  0  0  0  0  0  0  0  0
   37.4540   29.4140   44.4750 H   0  0  0  0  0  0  0  0  0  0  0  0
   38.3430   30.8270   41.2200 O   0  0  0  0  0  0  0  0  0  0  0  0
   36.7990   30.8360   39.0960 O   0  0  0  0  0  0  0  0  0  0  0  0
   36.9310   31.4150   40.4650 P   0  0  0  0  0  0  0  0  0  0  0  0
   35.5570   30.9920   41.3540 O   0  0  0  0  0  0  0  0  0  0  0  0
   34.8720   30.5490   40.8220 H   0  0  0  0  0  0  0  0  0  0  0  0
   37.0060   33.1080   40.3380 O   0  0  0  0  0  0  0  0  0  0  0  0
   37.9230   33.4370   40.5730 H   0  0  0  0  0  0  0  0  0  0  0  0
  1  2  1  0  0  0  0
  2  3  2  0  0  0  0
  2 18  1  0  0  0  0
  4  3  1  0  0  0  0
  5  4  2  0  0  0  0
  6  5  1  0  0  0  0
  6  1  2  0  0  0  0
  7  1  1  0  0  0  0
  8  5  1  0  0  0  0
  9 14  1  0  0  0  0
  9 16  1  1  0  0  0
 10  3  1  6  0  0  0
 10  9  1  0  0  0  0
 11 10  1  0  0  0  0
 11 13  1  0  0  0  0
 12 11  1  0  0  0  0
 13 14  1  0  0  0  0
 14 15  1  0  0  0  0
 16 17  1  0  0  0  0
 19 20  2  0  0  0  0
 20 18  1  0  0  0  0
 20 21  1  0  0  0  0
 22 21  1  0  0  0  0
 23 20  1  0  0  0  0
 23 24  1  0  0  0  0
M  END
>  <minimizedAffinity>
-5.22857094

$$$$

 OpenBabel03252502173D

 24 25  0  0  1  0  0  0  0  0999 V2000
   37.1430   28.8530   38.2740 C   0  0  0  0  0  0  0  0  0  0  0  0
   37.7620   29.7580   39.1580 C   0  0  0  0  0  0  0  0  0  0  0  0
   38.2020   30.9830   38.6560 C   0  0  0  0  0  0  0  0  0  0  0  0
   38.0060   31.2280   37.3440 N   0  0  0  0  0  0  0  0  0  0  0  0
   37.4150   30.3580   36.5110 C   0  0  0  0  0  0  0  0  0  0  0  0
   36.9810   29.1620   36.9760 N   0  0  0  0  0  0  0  0  0  0  0  0
   36.7760   27.8840   38.5890 H   0  0  0  0  0  0  0  0  0  0  0  0
   37.2850   30.6030   35.4740 H   0  0  0  0  0  0  0  0  0  0  0  0
   38.2370   33.2990   39.5780 C   0  0  2  0  0  3  0  0  0  0  0  0
   38.8410   31.9030   39.6060 C   0  0  2  0  0  3  0  0  0  0  0  0
   40.2700   32.2100   39.2150 C   0  0  0  0  0  3  0  0  0  0  0  0
   41.0080   31.8930   39.9750 H   0  0  0  0  0  0  0  0  0  0  0  0
   40.3850   33.5810   39.0550 O   0  0  0  0  0  0  0  0  0  0  0  0
   39.4800   34.1010   39.9790 C   0  0  0  0  0  3  0  0  0  0  0  0
   39.3280   35.1730   39.9230 H   0  0  0  0  0  0  0  0  0  0  0  0
   37.2340   33.4420   40.5350 O   0  0  0  0  0  0  0  0  0  0  0  0
   36.8430   34.3270   40.4220 H   0  0  0  0  0  0  0  0  0  0  0  0
   37.8850   29.3480   40.4860 O   0  0  0  0  0  0  0  0  0  0  0  0
   35.6260   28.3540   41.3840 O   0  0  0  0  0  0  0  0  0  0  0  0
   36.5900   29.4750   41.5880 P   0  0  0  0  0  0  0  0  0  0  0  0
   37.1520   29.4090   43.1810 O   0  0  0  0  0  0  0  0  0  0  0  0
   36.6940   28.7440   43.7260 H   0  0  0  0  0  0  0  0  0  0  0  0
   35.7740   30.9470   41.3520 O   0  0  0  0  0  0  0  0  0  0  0  0
   36.0900   31.3930   40.5120 H   0  0  0  0  0  0  0  0  0  0  0  0
  1  7  1  0  0  0  0
  1  2  1  0  0  0  0
  2 18  1  0  0  0  0
  3  2  2  0  0  0  0
  4  3  1  0  0  0  0
  5  6  1  0  0  0  0
  5  4  2  0  0  0  0
  6  1  2  0  0  0  0
  8  5  1  0  0  0  0
  9 10  1  0  0  0  0
  9 14  1  0  0  0  0
  9 16  1  1  0  0  0
 10  3  1  6  0  0  0
 11 10  1  0  0  0  0
 11 12  1  0  0  0  0
 13 11  1  0  0  0  0
 13 14  1  0  0  0  0
 15 14  1  0  0  0  0
 17 16  1  0  0  0  0
 18 20  1  0  0  0  0
 19 20  2  0  0  0  0
 20 21  1  0  0  0  0
 21 22  1  0  0  0  0
 23 20  1  0  0  0  0
 24 23  1  0  0  0  0
M  END
>  <minimizedAffinity>
-4.80724001

$$$$

 OpenBabel03252502173D

 24 25  0  0  1  0  0  0  0  0999 V2000
   36.8610   29.9080   36.4950 C   0  0  0  0  0  0  0  0  0  0  0  0
   37.1320   29.7890   37.8720 C   0  0  0  0  0  0  0  0  0  0  0  0
   36.1590   29.2240   38.6960 C   0  0  0  0  0  0  0  0  0  0  0  0
   35.0080   28.8200   38.1180 N   0  0  0  0  0  0  0  0  0  0  0  0
   34.7620   28.9370   36.8040 C   0  0  0  0  0  0  0  0  0  0  0  0
   35.6910   29.4850   35.9850 N   0  0  0  0  0  0  0  0  0  0  0  0
   37.5670   30.3360   35.7930 H   0  0  0  0  0  0  0  0  0  0  0  0
   33.8280   28.6000   36.3960 H   0  0  0  0  0  0  0  0  0  0  0  0
   36.7280   30.4670   40.7800 C   0  0  2  0  0  3  0  0  0  0  0  0
   36.4750   29.1160   40.1250 C   0  0  2  0  0  3  0  0  0  0  0  0
   37.8080   28.4400   40.3570 C   0  0  0  0  0  3  0  0  0  0  0  0
   37.7270   27.5020   40.9350 H   0  0  0  0  0  0  0  0  0  0  0  0
   38.6120   29.3120   41.0710 O   0  0  0  0  0  0  0  0  0  0  0  0
   37.7120   30.0200   41.8660 C   0  0  0  0  0  3  0  0  0  0  0  0
   38.1380   30.8500   42.4190 H   0  0  0  0  0  0  0  0  0  0  0  0
   35.5680   30.9830   41.3540 O   0  0  0  0  0  0  0  0  0  0  0  0
   35.7770   31.8710   41.6940 H   0  0  0  0  0  0  0  0  0  0  0  0
   38.3730   30.2560   38.3060 O   0  0  0  0  0  0  0  0  0  0  0  0
   39.7010   32.2770   39.3310 O   0  0  0  0  0  0  0  0  0  0  0  0
   38.7960   31.9050   38.2040 P   0  0  0  0  0  0  0  0  0  0  0  0
   39.5980   32.2280   36.7510 O   0  0  0  0  0  0  0  0  0  0  0  0
   40.4470   32.6900   36.8720 H   0  0  0  0  0  0  0  0  0  0  0  0
   37.3970   32.8670   38.2870 O   0  0  0  0  0  0  0  0  0  0  0  0
   36.6040   32.3110   38.5440 H   0  0  0  0  0  0  0  0  0  0  0  0
  1  2  1  0  0  0  0
  2 18  1  0  0  0  0
  2  3  2  0  0  0  0
  4  3  1  0  0  0  0
  5  4  2  0  0  0  0
  6  1  2  0  0  0  0
  6  5  1  0  0  0  0
  7  1  1  0  0  0  0
  8  5  1  0  0  0  0
  9 16  1  1  0  0  0
  9 14  1  0  0  0  0
 10  3  1  6  0  0  0
 10 11  1  0  0  0  0
 10  9  1  0  0  0  0
 11 12  1  0  0  0  0
 11 13  1  0  0  0  0
 13 14  1  0  0  0  0
 14 15  1  0  0  0  0
 16 17  1  0  0  0  0
 20 23  1  0  0  0  0
 20 18  1  0  0  0  0
 20 19  2  0  0  0  0
 21 22  1  0  0  0  0
 21 20  1  0  0  0  0
 23 24  1  0  0  0  0
M  END
>  <minimizedAffinity>
-4.78653145

$$$$

 OpenBabel03252502173D

 24 25  0  0  1  0  0  0  0  0999 V2000
   40.4470   31.8650   40.1910 C   0  0  0  0  0  0  0  0  0  0  0  0
   39.6040   30.7690   40.4600 C   0  0  0  0  0  0  0  0  0  0  0  0
   39.7790   30.0740   41.6570 C   0  0  0  0  0  0  0  0  0  0  0  0
   40.7520   30.4980   42.4900 N   0  0  0  0  0  0  0  0  0  0  0  0
   41.5480   31.5440   42.2230 C   0  0  0  0  0  0  0  0  0  0  0  0
   41.3980   32.2340   41.0670 N   0  0  0  0  0  0  0  0  0  0  0  0
   40.3720   32.4540   39.2840 H   0  0  0  0  0  0  0  0  0  0  0  0
   42.3080   31.8400   42.9220 H   0  0  0  0  0  0  0  0  0  0  0  0
   37.9260   29.1790   43.0640 C   0  0  2  0  0  3  0  0  0  0  0  0
   38.8830   28.9370   41.9060 C   0  0  2  0  0  3  0  0  0  0  0  0
   39.6380   27.7280   42.4140 C   0  0  0  0  0  3  0  0  0  0  0  0
   39.5580   26.8520   41.7460 H   0  0  0  0  0  0  0  0  0  0  0  0
   39.1040   27.3770   43.6430 O   0  0  0  0  0  0  0  0  0  0  0  0
   37.7600   27.7310   43.5370 C   0  0  0  0  0  3  0  0  0  0  0  0
   37.1870   27.6470   44.4530 H   0  0  0  0  0  0  0  0  0  0  0  0
   36.7080   29.6920   42.6240 O   0  0  0  0  0  0  0  0  0  0  0  0
   36.1690   29.8870   43.4100 H   0  0  0  0  0  0  0  0  0  0  0  0
   38.6490   30.4640   39.4910 O   0  0  0  0  0  0  0  0  0  0  0  0
   36.1470   30.6100   38.7050 O   0  0  0  0  0  0  0  0  0  0  0  0
   37.2620   31.4300   39.2640 P   0  0  0  0  0  0  0  0  0  0  0  0
   36.7480   32.0940   40.7310 O   0  0  0  0  0  0  0  0  0  0  0  0
   35.8070   31.9340   40.9200 H   0  0  0  0  0  0  0  0  0  0  0  0
   37.6090   32.6920   38.1790 O   0  0  0  0  0  0  0  0  0  0  0  0
   38.5010   32.5470   37.7460 H   0  0  0  0  0  0  0  0  0  0  0  0
  1  2  2  0  0  0  0
  1  6  1  0  0  0  0
  2  3  1  0  0  0  0
  3  4  2  0  0  0  0
  5  4  1  0  0  0  0
  5  8  1  0  0  0  0
  6  5  2  0  0  0  0
  7  1  1  0  0  0  0
  9 16  1  6  0  0  0
  9 14  1  0  0  0  0
 10  3  1  1  0  0  0
 10 11  1  0  0  0  0
 10  9  1  0  0  0  0
 11 13  1  0  0  0  0
 12 11  1  0  0  0  0
 14 13  1  0  0  0  0
 14 15  1  0  0  0  0
 16 17  1  0  0  0  0
 18  2  1  0  0  0  0
 19 20  2  0  0  0  0
 20 18  1  0  0  0  0
 20 21  1  0  0  0  0
 21 22  1  0  0  0  0
 23 20  1  0  0  0  0
 24 23  1  0  0  0  0
M  END
>  <minimizedAffinity>
-4.57220554

$$$$

 OpenBabel03252502173D

 24 25  0  0  1  0  0  0  0  0999 V2000
   38.8010   30.6430   38.3300 C   0  0  0  0  0  0  0  0  0  0  0  0
   38.4320   30.5520   39.6860 C   0  0  0  0  0  0  0  0  0  0  0  0
   37.6560   29.4660   40.0930 C   0  0  0  0  0  0  0  0  0  0  0  0
   37.3060   28.5620   39.1560 N   0  0  0  0  0  0  0  0  0  0  0  0
   37.6640   28.6580   37.8660 C   0  0  0  0  0  0  0  0  0  0  0  0
   38.4160   29.7050   37.4480 N   0  0  0  0  0  0  0  0  0  0  0  0
   39.4020   31.4560   37.9390 H   0  0  0  0  0  0  0  0  0  0  0  0
   37.3570   27.9100   37.1600 H   0  0  0  0  0  0  0  0  0  0  0  0
   38.4050   28.8480   42.3900 C   0  0  2  0  0  3  0  0  0  0  0  0
   37.2900   29.4020   41.5140 C   0  0  2  0  0  3  0  0  0  0  0  0
   36.2020   28.3830   41.7680 C   0  0  0  0  0  3  0  0  0  0  0  0
   35.2790   28.8250   42.1850 H   0  0  0  0  0  0  0  0  0  0  0  0
   36.6840   27.4620   42.6840 O   0  0  0  0  0  0  0  0  0  0  0  0
   37.5460   28.2090   43.4860 C   0  0  0  0  0  3  0  0  0  0  0  0
   38.1270   27.6350   44.1980 H   0  0  0  0  0  0  0  0  0  0  0  0
   39.1940   29.8660   42.9180 O   0  0  0  0  0  0  0  0  0  0  0  0
   39.9240   29.4490   43.4100 H   0  0  0  0  0  0  0  0  0  0  0  0
   38.8790   31.5730   40.5240 O   0  0  0  0  0  0  0  0  0  0  0  0
   37.2280   33.3890   39.5910 O   0  0  0  0  0  0  0  0  0  0  0  0
   38.5940   33.2160   40.1670 P   0  0  0  0  0  0  0  0  0  0  0  0
   38.7030   34.1590   41.5660 O   0  0  0  0  0  0  0  0  0  0  0  0
   37.9270   34.7300   41.7090 H   0  0  0  0  0  0  0  0  0  0  0  0
   39.7380   33.7690   39.0390 O   0  0  0  0  0  0  0  0  0  0  0  0
   40.2620   33.0010   38.6650 H   0  0  0  0  0  0  0  0  0  0  0  0
  1  2  1  0  0  0  0
  2  3  2  0  0  0  0
  2 18  1  0  0  0  0
  4  3  1  0  0  0  0
  5  4  2  0  0  0  0
  6  5  1  0  0  0  0
  6  1  2  0  0  0  0
  7  1  1  0  0  0  0
  8  5  1  0  0  0  0
  9 16  1  1  0  0  0
  9 14  1  0  0  0  0
 10  3  1  6  0  0  0
 10 11  1  0  0  0  0
 10  9  1  0  0  0  0
 11 12  1  0  0  0  0
 11 13  1  0  0  0  0
 13 14  1  0  0  0  0
 14 15  1  0  0  0  0
 16 17  1  0  0  0  0
 19 20  2  0  0  0  0
 20 18  1  0  0  0  0
 20 21  1  0  0  0  0
 21 22  1  0  0  0  0
 23 20  1  0  0  0  0
 24 23  1  0  0  0  0
M  END
>  <minimizedAffinity>
-4.52240467

$$$$

 OpenBabel03252502173D

 24 25  0  0  1  0  0  0  0  0999 V2000
   35.3650   28.7500   39.6070 C   0  0  0  0  0  0  0  0  0  0  0  0
   36.1810   29.7190   40.2240 C   0  0  0  0  0  0  0  0  0  0  0  0
   36.8780   30.6150   39.4130 C   0  0  0  0  0  0  0  0  0  0  0  0
   36.7260   30.4980   38.0780 N   0  0  0  0  0  0  0  0  0  0  0  0
   35.9450   29.5720   37.5020 C   0  0  0  0  0  0  0  0  0  0  0  0
   35.2600   28.6900   38.2690 N   0  0  0  0  0  0  0  0  0  0  0  0
   34.7940   28.0210   40.1700 H   0  0  0  0  0  0  0  0  0  0  0  0
   35.8600   29.5230   36.4320 H   0  0  0  0  0  0  0  0  0  0  0  0
   37.8000   32.9300   39.3320 C   0  0  2  0  0  3  0  0  0  0  0  0
   37.7180   31.6110   40.0890 C   0  0  2  0  0  3  0  0  0  0  0  0
   39.1750   31.2040   40.0980 C   0  0  0  0  0  3  0  0  0  0  0  0
   39.5850   31.0740   41.1150 H   0  0  0  0  0  0  0  0  0  0  0  0
   39.9020   32.2030   39.4700 O   0  0  0  0  0  0  0  0  0  0  0  0
   39.2000   33.3680   39.7750 C   0  0  0  0  0  3  0  0  0  0  0  0
   39.5440   34.2610   39.2660 H   0  0  0  0  0  0  0  0  0  0  0  0
   36.8400   33.8360   39.7780 O   0  0  0  0  0  0  0  0  0  0  0  0
   36.8980   34.6280   39.2150 H   0  0  0  0  0  0  0  0  0  0  0  0
   36.2250   29.7010   41.6180 O   0  0  0  0  0  0  0  0  0  0  0  0
   38.1610   29.2610   43.3370 O   0  0  0  0  0  0  0  0  0  0  0  0
   37.1670   28.5630   42.4700 P   0  0  0  0  0  0  0  0  0  0  0  0
   36.1900   27.5970   43.4560 O   0  0  0  0  0  0  0  0  0  0  0  0
   36.4880   27.5640   44.3830 H   0  0  0  0  0  0  0  0  0  0  0  0
   38.0010   27.5660   41.3750 O   0  0  0  0  0  0  0  0  0  0  0  0
   37.9230   27.9270   40.4430 H   0  0  0  0  0  0  0  0  0  0  0  0
  1  7  1  0  0  0  0
  1  2  1  0  0  0  0
  2 18  1  0  0  0  0
  3  2  2  0  0  0  0
  4  3  1  0  0  0  0
  5  4  2  0  0  0  0
  5  6  1  0  0  0  0
  6  1  2  0  0  0  0
  8  5  1  0  0  0  0
  9 14  1  0  0  0  0
  9 16  1  1  0  0  0
  9 10  1  0  0  0  0
 10  3  1  6  0  0  0
 10 11  1  0  0  0  0
 11 12  1  0  0  0  0
 13 14  1  0  0  0  0
 13 11  1  0  0  0  0
 15 14  1  0  0  0  0
 17 16  1  0  0  0  0
 18 20  1  0  0  0  0
 20 19  2  0  0  0  0
 20 21  1  0  0  0  0
 21 22  1  0  0  0  0
 23 20  1  0  0  0  0
 24 23  1  0  0  0  0
M  END
>  <minimizedAffinity>
-4.5035696

$$$$

 OpenBabel03252502173D

 24 25  0  0  1  0  0  0  0  0999 V2000
   38.8310   28.9040   41.0970 C   0  0  0  0  0  0  0  0  0  0  0  0
   39.2180   30.1570   40.5860 C   0  0  0  0  0  0  0  0  0  0  0  0
   40.2990   30.2120   39.7060 C   0  0  0  0  0  0  0  0  0  0  0  0
   40.9130   29.0510   39.3960 N   0  0  0  0  0  0  0  0  0  0  0  0
   40.5350   27.8620   39.8900 C   0  0  0  0  0  0  0  0  0  0  0  0
   39.4880   27.7850   40.7460 N   0  0  0  0  0  0  0  0  0  0  0  0
   38.0020   28.7810   41.7850 H   0  0  0  0  0  0  0  0  0  0  0  0
   41.0590   26.9680   39.6100 H   0  0  0  0  0  0  0  0  0  0  0  0
   40.3900   31.6960   37.7050 C   0  0  2  0  0  3  0  0  0  0  0  0
   40.6750   31.5350   39.1910 C   0  0  2  0  0  3  0  0  0  0  0  0
   42.1730   31.7420   39.2120 C   0  0  0  0  0  3  0  0  0  0  0  0
   42.4890   32.5840   39.8540 H   0  0  0  0  0  0  0  0  0  0  0  0
   42.5860   32.0150   37.9190 O   0  0  0  0  0  0  0  0  0  0  0  0
   41.5030   32.6920   37.3590 C   0  0  0  0  0  3  0  0  0  0  0  0
   41.5800   32.8880   36.2960 H   0  0  0  0  0  0  0  0  0  0  0  0
   39.1380   32.2650   37.4820 O   0  0  0  0  0  0  0  0  0  0  0  0
   38.9870   32.2800   36.5200 H   0  0  0  0  0  0  0  0  0  0  0  0
   38.4750   31.2600   41.0080 O   0  0  0  0  0  0  0  0  0  0  0  0
   36.8280   30.9940   38.9800 O   0  0  0  0  0  0  0  0  0  0  0  0
   36.9620   31.6390   40.3190 P   0  0  0  0  0  0  0  0  0  0  0  0
   35.7020   31.0860   41.3010 O   0  0  0  0  0  0  0  0  0  0  0  0
   35.0500   30.5420   40.8250 H   0  0  0  0  0  0  0  0  0  0  0  0
   36.8180   33.3220   40.1330 O   0  0  0  0  0  0  0  0  0  0  0  0
   37.6980   33.7710   40.3020 H   0  0  0  0  0  0  0  0  0  0  0  0
  1  7  1  0  0  0  0
  2 18  1  0  0  0  0
  2  1  2  0  0  0  0
  3  2  1  0  0  0  0
  4  3  2  0  0  0  0
  4  5  1  0  0  0  0
  5  6  2  0  0  0  0
  6  1  1  0  0  0  0
  8  5  1  0  0  0  0
  9 16  1  1  0  0  0
  9 10  1  0  0  0  0
 10 11  1  0  0  0  0
 10  3  1  6  0  0  0
 11 12  1  0  0  0  0
 13 11  1  0  0  0  0
 14  9  1  0  0  0  0
 14 13  1  0  0  0  0
 15 14  1  0  0  0  0
 17 16  1  0  0  0  0
 19 20  2  0  0  0  0
 20 18  1  0  0  0  0
 20 21  1  0  0  0  0
 22 21  1  0  0  0  0
 23 24  1  0  0  0  0
 23 20  1  0  0  0  0
M  END
>  <minimizedAffinity>
-4.4771595

$$$$

 OpenBabel03252502173D

 24 25  0  0  1  0  0  0  0  0999 V2000
   36.6180   30.3130   38.8140 C   0  0  0  0  0  0  0  0  0  0  0  0
   37.5190   30.1990   39.8900 C   0  0  0  0  0  0  0  0  0  0  0  0
   37.1730   29.3770   40.9640 C   0  0  0  0  0  0  0  0  0  0  0  0
   35.9870   28.7380   40.9040 N   0  0  0  0  0  0  0  0  0  0  0  0
   35.1370   28.8540   39.8730 C   0  0  0  0  0  0  0  0  0  0  0  0
   35.4510   29.6460   38.8200 N   0  0  0  0  0  0  0  0  0  0  0  0
   36.8170   30.9310   37.9460 H   0  0  0  0  0  0  0  0  0  0  0  0
   34.2040   28.3220   39.8760 H   0  0  0  0  0  0  0  0  0  0  0  0
   39.2280   28.2510   41.8150 C   0  0  2  0  0  3  0  0  0  0  0  0
   38.1360   29.2810   42.0680 C   0  0  2  0  0  3  0  0  0  0  0  0
   37.5020   28.7130   43.3190 C   0  0  0  0  0  3  0  0  0  0  0  0
   37.5260   29.4100   44.1750 H   0  0  0  0  0  0  0  0  0  0  0  0
   38.2060   27.5740   43.6760 O   0  0  0  0  0  0  0  0  0  0  0  0
   39.5100   27.8460   43.2650 C   0  0  0  0  0  3  0  0  0  0  0  0
   40.2020   27.0160   43.3460 H   0  0  0  0  0  0  0  0  0  0  0  0
   40.3570   28.8330   41.2410 O   0  0  0  0  0  0  0  0  0  0  0  0
   40.9880   28.1190   41.0420 H   0  0  0  0  0  0  0  0  0  0  0  0
   38.7040   30.9290   39.7930 O   0  0  0  0  0  0  0  0  0  0  0  0
   39.5530   33.3720   39.3390 O   0  0  0  0  0  0  0  0  0  0  0  0
   38.8090   32.5430   40.3320 P   0  0  0  0  0  0  0  0  0  0  0  0
   37.2690   33.2090   40.5300 O   0  0  0  0  0  0  0  0  0  0  0  0
   37.1510   34.0580   40.0680 H   0  0  0  0  0  0  0  0  0  0  0  0
   39.6310   32.6020   41.8190 O   0  0  0  0  0  0  0  0  0  0  0  0
   40.0460   31.7140   42.0260 H   0  0  0  0  0  0  0  0  0  0  0  0
  1  6  2  0  0  0  0
  1  2  1  0  0  0  0
  2  3  2  0  0  0  0
  4  3  1  0  0  0  0
  5  8  1  0  0  0  0
  5  4  2  0  0  0  0
  6  5  1  0  0  0  0
  7  1  1  0  0  0  0
  9 16  1  1  0  0  0
  9 10  1  0  0  0  0
  9 14  1  0  0  0  0
 10  3  1  6  0  0  0
 10 11  1  0  0  0  0
 11 13  1  0  0  0  0
 11 12  1  0  0  0  0
 14 15  1  0  0  0  0
 14 13  1  0  0  0  0
 17 16  1  0  0  0  0
 18  2  1  0  0  0  0
 18 20  1  0  0  0  0
 19 20  2  0  0  0  0
 20 21  1  0  0  0  0
 20 23  1  0  0  0  0
 22 21  1  0  0  0  0
 23 24  1  0  0  0  0
M  END
>  <minimizedAffinity>
-4.4646554

$$$$

 OpenBabel03252502173D

 24 25  0  0  1  0  0  0  0  0999 V2000
   36.6890   27.2770   39.0420 C   0  0  0  0  0  0  0  0  0  0  0  0
   37.0290   27.0710   40.3930 C   0  0  0  0  0  0  0  0  0  0  0  0
   38.0100   26.1260   40.6960 C   0  0  0  0  0  0  0  0  0  0  0  0
   38.5780   25.4640   39.6670 N   0  0  0  0  0  0  0  0  0  0  0  0
   38.2470   25.6690   38.3830 C   0  0  0  0  0  0  0  0  0  0  0  0
   37.2960   26.5800   38.0650 N   0  0  0  0  0  0  0  0  0  0  0  0
   35.9370   27.9920   38.7290 H   0  0  0  0  0  0  0  0  0  0  0  0
   38.7310   25.1130   37.6030 H   0  0  0  0  0  0  0  0  0  0  0  0
   39.7370   26.4280   42.4690 C   0  0  2  0  0  3  0  0  0  0  0  0
   38.3400   25.9380   42.1140 C   0  0  2  0  0  3  0  0  0  0  0  0
   38.4590   24.4730   42.4730 C   0  0  0  0  0  3  0  0  0  0  0  0
   37.7280   24.1500   43.2360 H   0  0  0  0  0  0  0  0  0  0  0  0
   39.7290   24.2590   42.9830 O   0  0  0  0  0  0  0  0  0  0  0  0
   40.0400   25.4610   43.6180 C   0  0  0  0  0  3  0  0  0  0  0  0
   41.0580   25.5400   43.9810 H   0  0  0  0  0  0  0  0  0  0  0  0
   39.7160   27.7430   42.9290 O   0  0  0  0  0  0  0  0  0  0  0  0
   40.6380   28.0190   43.0730 H   0  0  0  0  0  0  0  0  0  0  0  0
   36.3440   27.8410   41.3330 O   0  0  0  0  0  0  0  0  0  0  0  0
   38.1830   29.7030   41.1140 O   0  0  0  0  0  0  0  0  0  0  0  0
   36.9190   29.3660   41.8340 P   0  0  0  0  0  0  0  0  0  0  0  0
   35.7830   30.5730   41.5020 O   0  0  0  0  0  0  0  0  0  0  0  0
   36.1500   31.3240   41.0040 H   0  0  0  0  0  0  0  0  0  0  0  0
   37.2310   29.3460   43.5050 O   0  0  0  0  0  0  0  0  0  0  0  0
   37.1800   28.4100   43.8600 H   0  0  0  0  0  0  0  0  0  0  0  0
  1  2  1  0  0  0  0
  2  3  2  0  0  0  0
  2 18  1  0  0  0  0
  4  3  1  0  0  0  0
  5  4  2  0  0  0  0
  6  5  1  0  0  0  0
  6  1  2  0  0  0  0
  7  1  1  0  0  0  0
  8  5  1  0  0  0  0
  9 16  1  1  0  0  0
  9 14  1  0  0  0  0
 10  3  1  6  0  0  0
 10  9  1  0  0  0  0
 10 11  1  0  0  0  0
 11 13  1  0  0  0  0
 11 12  1  0  0  0  0
 13 14  1  0  0  0  0
 14 15  1  0  0  0  0
 16 17  1  0  0  0  0
 18 20  1  0  0  0  0
 19 20  2  0  0  0  0
 20 23  1  0  0  0  0
 21 20  1  0  0  0  0
 22 21  1  0  0  0  0
 23 24  1  0  0  0  0
M  END
>  <minimizedAffinity>
-4.43865204

$$$$
