
 OpenBabel03242521453D

 47 50  0  0  1  0  0  0  0  0999 V2000
   45.0540   37.1080   43.0640 C   0  0  0  0  0  0  0  0  0  0  0  0
   44.1180   36.9180   42.5090 H   0  0  0  0  0  0  0  0  0  0  0  0
   45.9090   37.3570   42.4200 H   0  0  0  0  0  0  0  0  0  0  0  0
   45.3990   35.8530   43.8350 C   0  0  0  0  0  0  0  0  0  0  0  0
   46.3920   35.0090   43.3190 C   0  0  0  0  0  0  0  0  0  0  0  0
   46.7340   33.8410   44.0250 C   0  0  0  0  0  0  0  0  0  0  0  0
   46.0920   33.5970   45.1510 N   0  0  0  0  0  0  0  0  0  0  0  0
   45.1340   34.4200   45.6390 C   0  0  0  0  0  0  0  0  0  0  0  0
   44.7850   35.5480   44.9830 N   0  0  0  0  0  0  0  0  0  0  0  0
   46.8370   35.3180   42.3950 H   0  0  0  0  0  0  0  0  0  0  0  0
   44.6330   34.1710   46.5780 H   0  0  0  0  0  0  0  0  0  0  0  0
   48.8160   33.7420   42.6650 C   0  0  2  0  0  0  0  0  0  0  0  0
   47.7720   33.0250   43.4170 C   0  0  2  0  0  0  0  0  0  0  0  0
   47.2820   32.1050   42.4230 O   0  0  0  0  0  0  0  0  0  0  0  0
   48.4830   31.5300   42.0150 C   0  0  0  0  0  0  0  0  0  0  0  0
   49.5910   32.5160   42.1310 C   0  0  1  0  0  0  0  0  0  0  0  0
   48.4230   34.2330   41.7440 H   0  0  0  0  0  0  0  0  0  0  0  0
   48.2410   32.3420   44.1750 H   0  0  0  0  0  0  0  0  0  0  0  0
   48.4100   31.0970   41.0140 H   0  0  0  0  0  0  0  0  0  0  0  0
   48.7100   30.6760   42.7070 H   0  0  0  0  0  0  0  0  0  0  0  0
   50.3380   32.2840   42.9270 H   0  0  0  0  0  0  0  0  0  0  0  0
   49.5690   34.6130   43.3700 O   0  0  0  0  0  0  0  0  0  0  0  0
   49.3470   35.5520   43.1430 H   0  0  0  0  0  0  0  0  0  0  0  0
   50.1900   32.8620   40.9150 O   0  0  0  0  0  0  0  0  0  0  0  0
   51.1310   32.6110   40.9990 H   0  0  0  0  0  0  0  0  0  0  0  0
   45.2470   39.5050   44.0130 C   0  0  0  0  0  0  0  0  0  0  0  0
   45.8180   39.8660   42.9340 O   0  0  0  0  0  0  0  0  0  0  0  0
   44.8330   38.1470   44.0560 N   0  0  0  0  0  0  0  0  0  0  0  0
   44.2970   37.8590   44.9250 H   0  0  0  0  0  0  0  0  0  0  0  0
   45.0150   40.3910   45.1420 C   0  0  0  0  0  0  0  0  0  0  0  0
   45.0130   39.8900   46.4020 C   0  0  0  0  0  0  0  0  0  0  0  0
   44.7850   40.8010   47.4300 C   0  0  0  0  0  0  0  0  0  0  0  0
   44.5640   42.1600   47.2330 C   0  0  0  0  0  0  0  0  0  0  0  0
   44.5810   42.5790   45.9380 C   0  0  0  0  0  0  0  0  0  0  0  0
   44.8000   41.7150   44.9490 N   0  0  0  0  0  0  0  0  0  0  0  0
   45.1780   38.8400   46.6430 H   0  0  0  0  0  0  0  0  0  0  0  0
   44.7710   40.4540   48.4720 H   0  0  0  0  0  0  0  0  0  0  0  0
   44.3910   42.8250   48.0670 H   0  0  0  0  0  0  0  0  0  0  0  0
   45.1570   44.8690   46.5560 C   0  0  1  0  0  3  0  0  0  0  0  0
   44.3550   44.0260   45.5930 C   0  0  1  0  0  3  0  0  0  0  0  0
   44.9550   44.3780   44.2740 C   0  0  0  0  0  3  0  0  0  0  0  0
   44.8350   43.5530   43.5370 H   0  0  0  0  0  0  0  0  0  0  0  0
   46.2760   44.7360   44.4960 O   0  0  0  0  0  0  0  0  0  0  0  0
   46.3770   45.2090   45.7800 C   0  0  0  0  0  3  0  0  0  0  0  0
   47.2880   44.8460   46.3250 H   0  0  0  0  0  0  0  0  0  0  0  0
   44.4470   46.0450   46.8320 O   0  0  0  0  0  0  0  0  0  0  0  0
   44.7680   46.7960   46.2580 H   0  0  0  0  0  0  0  0  0  0  0  0
  1  4  1  0  0  0  0
  1 28  1  0  0  0  0
  2  1  1  0  0  0  0
  3  1  1  0  0  0  0
  4  9  1  0  0  0  0
  5  4  2  0  0  0  0
  5  6  1  0  0  0  0
  6  7  2  0  0  0  0
  7  8  1  0  0  0  0
  8 11  1  0  0  0  0
  9  8  2  0  0  0  0
 10  5  1  0  0  0  0
 12 17  1  6  0  0  0
 12 22  1  0  0  0  0
 12 13  1  0  0  0  0
 13  6  1  0  0  0  0
 13 18  1  1  0  0  0
 14 13  1  0  0  0  0
 15 16  1  0  0  0  0
 15 14  1  0  0  0  0
 15 20  1  0  0  0  0
 16 12  1  0  0  0  0
 16 21  1  1  0  0  0
 19 15  1  0  0  0  0
 23 22  1  0  0  0  0
 24 25  1  0  0  0  0
 24 16  1  0  0  0  0
 26 28  1  0  0  0  0
 26 30  1  0  0  0  0
 27 26  2  0  0  0  0
 28 29  1  0  0  0  0
 30 31  1  0  0  0  0
 31 36  1  0  0  0  0
 31 32  2  0  0  0  0
 32 37  1  0  0  0  0
 33 32  1  0  0  0  0
 33 38  1  0  0  0  0
 34 33  2  0  0  0  0
 35 30  2  0  0  0  0
 35 34  1  0  0  0  0
 39 46  1  6  0  0  0
 40 34  1  1  0  0  0
 40 39  1  0  0  0  0
 41 43  1  0  0  0  0
 41 40  1  0  0  0  0
 42 41  1  0  0  0  0
 43 44  1  0  0  0  0
 44 45  1  0  0  0  0
 44 39  1  0  0  0  0
 47 46  1  0  0  0  0
M  END
>  <minimizedAffinity>
-0.691539586

>  <minimizedRMSD>
0.743467271

$$$$
