
 OpenBabel03242515453D

 41 44  0  0  1  0  0  0  0  0999 V2000
   40.3920   35.0850   40.2970 C   0  0  0  0  0  0  0  0  0  0  0  0
   41.4130   34.4180   40.9730 C   0  0  0  0  0  0  0  0  0  0  0  0
   41.2490   33.1250   41.4310 C   0  0  0  0  0  0  0  0  0  0  0  0
   40.0590   32.4650   41.2230 C   0  0  0  0  0  0  0  0  0  0  0  0
   39.0450   33.1140   40.5560 C   0  0  0  0  0  0  0  0  0  0  0  0
   39.1760   34.3950   40.0910 C   0  0  0  0  0  0  0  0  0  0  0  0
   37.9690   32.1970   40.4970 O   0  0  0  0  0  0  0  0  0  0  0  0
   38.2390   31.1660   41.3660 C   0  0  2  0  0  0  0  0  0  0  0  0
   39.6310   31.1860   41.5670 O   0  0  0  0  0  0  0  0  0  0  0  0
   40.4410   36.0900   39.9100 H   0  0  0  0  0  0  0  0  0  0  0  0
   42.1010   32.6970   41.9440 H   0  0  0  0  0  0  0  0  0  0  0  0
   38.3710   34.8850   39.5720 H   0  0  0  0  0  0  0  0  0  0  0  0
   37.7610   31.3800   42.3470 H   0  0  0  0  0  0  0  0  0  0  0  0
   37.4520   28.8720   42.0400 C   0  0  1  0  0  0  0  0  0  0  0  0
   37.7190   29.8450   40.8980 C   0  0  2  0  0  0  0  0  0  0  0  0
   38.7270   29.0410   40.1200 C   0  0  0  0  0  0  0  0  0  0  0  0
   38.6810   29.3800   39.0650 H   0  0  0  0  0  0  0  0  0  0  0  0
   38.2700   27.7410   40.1680 O   0  0  0  0  0  0  0  0  0  0  0  0
   37.4770   27.5680   41.2830 C   0  0  0  0  0  0  0  0  0  0  0  0
   36.4460   27.3330   40.9540 H   0  0  0  0  0  0  0  0  0  0  0  0
   38.5650   28.8680   42.8940 O   0  0  0  0  0  0  0  0  0  0  0  0
   38.5800   27.9750   43.3290 H   0  0  0  0  0  0  0  0  0  0  0  0
   42.8900   35.4180   41.1320 S   0  0  0  0  0  0  0  0  0  0  0  0
   44.3360   34.4890   40.5170 C   0  0  0  0  0  0  0  0  0  0  0  0
   44.1470   33.7970   39.3770 C   0  0  0  0  0  0  0  0  0  0  0  0
   45.2530   33.0690   38.9350 C   0  0  0  0  0  0  0  0  0  0  0  0
   46.4150   33.0720   39.6090 N   0  0  0  0  0  0  0  0  0  0  0  0
   46.5550   33.7850   40.7450 C   0  0  0  0  0  0  0  0  0  0  0  0
   45.4940   34.4760   41.1640 N   0  0  0  0  0  0  0  0  0  0  0  0
   45.1560   32.2650   37.7390 N   0  0  0  0  0  0  0  0  0  0  0  0
   44.8810   31.2670   37.6090 H   0  0  0  0  0  0  0  0  0  0  0  0
   45.4210   32.8580   36.9030 H   0  0  0  0  0  0  0  0  0  0  0  0
   43.0070   33.6360   38.4180 C   0  0  0  0  0  0  0  0  0  0  0  0
   42.4230   32.7330   38.5920 H   0  0  0  0  0  0  0  0  0  0  0  0
   42.3280   34.5230   38.5660 H   0  0  0  0  0  0  0  0  0  0  0  0
   43.3650   33.7590   37.3640 H   0  0  0  0  0  0  0  0  0  0  0  0
   47.7040   33.8510   41.4990 O   0  0  0  0  0  0  0  0  0  0  0  0
   48.5360   34.9860   41.3250 C   0  0  0  0  0  0  0  0  0  0  0  0
   49.8030   34.7500   41.7610 F   0  0  0  0  0  0  0  0  0  0  0  0
   48.5120   35.2990   39.9570 F   0  0  0  0  0  0  0  0  0  0  0  0
   48.0200   36.0230   42.0790 F   0  0  0  0  0  0  0  0  0  0  0  0
  1  2  1  0  0  0  0
  2 23  1  0  0  0  0
  2  3  2  0  0  0  0
  3 11  1  0  0  0  0
  4  3  1  0  0  0  0
  4  9  1  0  0  0  0
  5  4  2  0  0  0  0
  6  1  2  0  0  0  0
  6  5  1  0  0  0  0
  7  5  1  0  0  0  0
  7  8  1  0  0  0  0
  8  9  1  0  0  0  0
  8 13  1  1  0  0  0
 10  1  1  0  0  0  0
 12  6  1  0  0  0  0
 14 21  1  1  0  0  0
 15 16  1  6  0  0  0
 15  8  1  0  0  0  0
 15 14  1  0  0  0  0
 16 18  1  0  0  0  0
 17 16  1  0  0  0  0
 18 19  1  0  0  0  0
 19 14  1  0  0  0  0
 20 19  1  0  0  0  0
 21 22  1  0  0  0  0
 24 23  1  0  0  0  0
 24 29  1  0  0  0  0
 25 24  2  0  0  0  0
 26 25  1  0  0  0  0
 26 27  2  0  0  0  0
 27 28  1  0  0  0  0
 28 29  2  0  0  0  0
 28 37  1  0  0  0  0
 30 26  1  0  0  0  0
 31 30  1  0  0  0  0
 32 30  1  0  0  0  0
 33 35  1  0  0  0  0
 33 34  1  0  0  0  0
 33 25  1  0  0  0  0
 36 33  1  0  0  0  0
 38 37  1  0  0  0  0
 38 39  1  0  0  0  0
 38 41  1  0  0  0  0
 40 38  1  0  0  0  0
M  END
>  <minimizedAffinity>
-6.39707947

>  <minimizedRMSD>
0.748306334

$$$$
