
 OpenBabel03252507143D

 42 44  0  0  1  0  0  0  0  0999 V2000
   39.2200   26.8660   42.4310 C   0  0  2  0  0  0  0  0  0  0  0  0
   40.4440   27.0000   43.3090 C   0  0  0  0  0  0  0  0  0  0  0  0
   40.9400   25.6150   43.6320 C   0  0  0  0  0  0  0  0  0  0  0  0
   41.5170   25.0100   42.5260 O   0  0  0  0  0  0  0  0  0  0  0  0
   40.8960   25.4250   41.3670 C   0  0  0  0  0  0  0  0  0  0  0  0
   39.4080   25.6460   41.5790 C   0  0  1  0  0  0  0  0  0  0  0  0
   38.3590   26.6080   43.0810 H   0  0  0  0  0  0  0  0  0  0  0  0
   41.2260   27.5810   42.8230 H   0  0  0  0  0  0  0  0  0  0  0  0
   40.1090   27.4570   44.2660 H   0  0  0  0  0  0  0  0  0  0  0  0
   41.8190   25.7900   44.3260 H   0  0  0  0  0  0  0  0  0  0  0  0
   40.2530   25.0160   44.2130 H   0  0  0  0  0  0  0  0  0  0  0  0
   41.3020   26.4390   41.1350 H   0  0  0  0  0  0  0  0  0  0  0  0
   41.0820   24.8220   40.4740 H   0  0  0  0  0  0  0  0  0  0  0  0
   39.1040   26.0010   40.5410 H   0  0  0  0  0  0  0  0  0  0  0  0
   38.4200   23.5570   40.5860 C   0  0  2  0  0  3  0  0  0  0  0  0
   38.6360   24.4360   41.8100 C   0  0  2  0  0  3  0  0  0  0  0  0
   37.1370   24.6590   42.0620 C   0  0  0  0  0  3  0  0  0  0  0  0
   36.6490   23.6880   42.3020 H   0  0  0  0  0  0  0  0  0  0  0  0
   36.7090   25.1000   40.7790 O   0  0  0  0  0  0  0  0  0  0  0  0
   37.1700   24.0960   39.9480 C   0  0  0  0  0  3  0  0  0  0  0  0
   37.3840   24.5060   38.9240 H   0  0  0  0  0  0  0  0  0  0  0  0
   38.1140   22.2700   41.0250 O   0  0  0  0  0  0  0  0  0  0  0  0
   38.0650   22.2480   42.0120 H   0  0  0  0  0  0  0  0  0  0  0  0
   38.9190   27.9930   41.7380 O   0  0  0  0  0  0  0  0  0  0  0  0
   37.4630   28.9730   43.6800 O   0  0  0  0  0  0  0  0  0  0  0  0
   37.5990   28.8570   42.2090 P   0  0  2  0  0  0  0  0  0  0  0  0
   36.2210   28.0370   41.6730 O   0  0  0  0  0  0  0  0  0  0  0  0
   36.2170   27.1070   42.0230 H   0  0  0  0  0  0  0  0  0  0  0  0
   37.6070   30.4200   41.4800 O   0  0  0  0  0  0  0  0  0  0  0  0
   37.3990   31.8490   39.6150 C   0  0  0  0  0  0  0  0  0  0  0  0
   37.5510   30.5730   40.1080 C   0  0  0  0  0  0  0  0  0  0  0  0
   37.6410   29.4930   39.1950 C   0  0  0  0  0  0  0  0  0  0  0  0
   37.5710   29.7930   37.8760 N   0  0  0  0  0  0  0  0  0  0  0  0
   37.4260   31.0280   37.4400 C   0  0  0  0  0  0  0  0  0  0  0  0
   37.3390   32.0580   38.3240 N   0  0  0  0  0  0  0  0  0  0  0  0
   38.4090   33.8400   40.7130 C   0  0  0  0  0  0  0  0  0  0  0  0
   39.5420   33.2620   40.9080 O   0  0  0  0  0  0  0  0  0  0  0  0
   37.2640   33.1880   40.0680 N   0  0  0  0  0  0  0  0  0  0  0  0
   37.7570   28.5460   39.6630 H   0  0  0  0  0  0  0  0  0  0  0  0
   37.3680   31.2770   36.3800 H   0  0  0  0  0  0  0  0  0  0  0  0
   38.4230   34.8530   41.0840 H   0  0  0  0  0  0  0  0  0  0  0  0
   36.4270   33.7980   40.0080 H   0  0  0  0  0  0  0  0  0  0  0  0
  1  7  1  1  0  0  0
  1  2  1  0  0  0  0
  2  3  1  0  0  0  0
  2  9  1  0  0  0  0
  3 11  1  0  0  0  0
  3 10  1  0  0  0  0
  4  3  1  0  0  0  0
  5  6  1  0  0  0  0
  5  4  1  0  0  0  0
  6 14  1  6  0  0  0
  6 16  1  0  0  0  0
  6  1  1  0  0  0  0
  8  2  1  0  0  0  0
 12  5  1  0  0  0  0
 13  5  1  0  0  0  0
 15 22  1  1  0  0  0
 15 16  1  0  0  0  0
 16 17  1  6  0  0  0
 17 18  1  0  0  0  0
 19 17  1  0  0  0  0
 20 15  1  0  0  0  0
 20 19  1  0  0  0  0
 21 20  1  0  0  0  0
 22 23  1  0  0  0  0
 24 26  1  0  0  0  0
 24  1  1  0  0  0  0
 26 25  2  1  0  0  0
 27 28  1  0  0  0  0
 27 26  1  0  0  0  0
 29 26  1  0  0  0  0
 30 38  1  0  0  0  0
 30 31  1  0  0  0  0
 31 29  1  0  0  0  0
 32 39  1  0  0  0  0
 32 31  2  0  0  0  0
 33 32  1  0  0  0  0
 34 33  2  0  0  0  0
 34 35  1  0  0  0  0
 35 30  2  0  0  0  0
 36 37  2  0  0  0  0
 36 41  1  0  0  0  0
 38 36  1  0  0  0  0
 40 34  1  0  0  0  0
 42 38  1  0  0  0  0
M  END
>  <minimizedAffinity>
-5.96342611

$$$$

 OpenBabel03252507143D

 42 44  0  0  1  0  0  0  0  0999 V2000
   38.5140   30.9840   40.8910 C   0  0  2  0  0  0  0  0  0  0  0  0
   39.5500   31.4990   41.8650 C   0  0  0  0  0  0  0  0  0  0  0  0
   40.5490   32.3220   41.0920 C   0  0  0  0  0  0  0  0  0  0  0  0
   40.0020   33.5280   40.6780 O   0  0  0  0  0  0  0  0  0  0  0  0
   38.6560   33.3870   40.4170 C   0  0  0  0  0  0  0  0  0  0  0  0
   38.3420   32.0230   39.8240 C   0  0  1  0  0  0  0  0  0  0  0  0
   38.9520   30.1180   40.3540 H   0  0  0  0  0  0  0  0  0  0  0  0
   39.0980   32.0950   42.6560 H   0  0  0  0  0  0  0  0  0  0  0  0
   40.0960   30.6140   42.2590 H   0  0  0  0  0  0  0  0  0  0  0  0
   41.3140   32.6300   41.8680 H   0  0  0  0  0  0  0  0  0  0  0  0
   41.1160   31.7660   40.3590 H   0  0  0  0  0  0  0  0  0  0  0  0
   38.1390   33.3900   41.4060 H   0  0  0  0  0  0  0  0  0  0  0  0
   38.1880   34.1860   39.8380 H   0  0  0  0  0  0  0  0  0  0  0  0
   37.2110   32.1030   39.7150 H   0  0  0  0  0  0  0  0  0  0  0  0
   37.8110   31.9750   37.3660 C   0  0  2  0  0  3  0  0  0  0  0  0
   38.8410   31.8120   38.4760 C   0  0  2  0  0  3  0  0  0  0  0  0
   39.1660   30.3530   38.1230 C   0  0  0  0  0  3  0  0  0  0  0  0
   39.6110   30.3040   37.1040 H   0  0  0  0  0  0  0  0  0  0  0  0
   37.8630   29.7830   38.0990 O   0  0  0  0  0  0  0  0  0  0  0  0
   37.1880   30.6140   37.2250 C   0  0  0  0  0  3  0  0  0  0  0  0
   36.0950   30.6430   37.4810 H   0  0  0  0  0  0  0  0  0  0  0  0
   38.4930   32.2200   36.1740 O   0  0  0  0  0  0  0  0  0  0  0  0
   39.4690   32.1840   36.3250 H   0  0  0  0  0  0  0  0  0  0  0  0
   37.3590   30.5900   41.4820 O   0  0  0  0  0  0  0  0  0  0  0  0
   36.0000   28.3550   41.5550 O   0  0  0  0  0  0  0  0  0  0  0  0
   37.2470   29.0270   41.9890 P   0  0  2  0  0  0  0  0  0  0  0  0
   37.2160   29.0280   43.6800 O   0  0  0  0  0  0  0  0  0  0  0  0
   36.4690   29.5950   44.0090 H   0  0  0  0  0  0  0  0  0  0  0  0
   38.6260   28.1250   41.4800 O   0  0  0  0  0  0  0  0  0  0  0  0
   38.2260   25.8270   41.8280 C   0  0  0  0  0  0  0  0  0  0  0  0
   38.9810   26.9440   42.1030 C   0  0  0  0  0  0  0  0  0  0  0  0
   40.0730   26.8290   42.9990 C   0  0  0  0  0  0  0  0  0  0  0  0
   40.3050   25.6060   43.5350 N   0  0  0  0  0  0  0  0  0  0  0  0
   39.5600   24.5580   43.2480 C   0  0  0  0  0  0  0  0  0  0  0  0
   38.5140   24.6780   42.3870 N   0  0  0  0  0  0  0  0  0  0  0  0
   37.2110   25.4090   39.5960 C   0  0  0  0  0  0  0  0  0  0  0  0
   38.2750   25.7480   38.9560 O   0  0  0  0  0  0  0  0  0  0  0  0
   37.1020   25.4280   41.0590 N   0  0  0  0  0  0  0  0  0  0  0  0
   40.5990   27.7400   43.1520 H   0  0  0  0  0  0  0  0  0  0  0  0
   39.7410   23.5720   43.6760 H   0  0  0  0  0  0  0  0  0  0  0  0
   36.4280   25.1150   38.9140 H   0  0  0  0  0  0  0  0  0  0  0  0
   36.1660   25.1390   41.4020 H   0  0  0  0  0  0  0  0  0  0  0  0
  1  7  1  6  0  0  0
  1 24  1  0  0  0  0
  1  2  1  0  0  0  0
  2  9  1  0  0  0  0
  2  8  1  0  0  0  0
  3  2  1  0  0  0  0
  3 10  1  0  0  0  0
  4  3  1  0  0  0  0
  5  4  1  0  0  0  0
  5 12  1  0  0  0  0
  6 14  1  6  0  0  0
  6  5  1  0  0  0  0
  6  1  1  0  0  0  0
 11  3  1  0  0  0  0
 13  5  1  0  0  0  0
 15 22  1  6  0  0  0
 15 16  1  0  0  0  0
 16 17  1  1  0  0  0
 16  6  1  0  0  0  0
 18 17  1  0  0  0  0
 19 17  1  0  0  0  0
 20 15  1  0  0  0  0
 20 21  1  0  0  0  0
 20 19  1  0  0  0  0
 22 23  1  0  0  0  0
 24 26  1  0  0  0  0
 26 25  2  6  0  0  0
 26 27  1  0  0  0  0
 27 28  1  0  0  0  0
 29 26  1  0  0  0  0
 29 31  1  0  0  0  0
 30 31  2  0  0  0  0
 30 35  1  0  0  0  0
 31 32  1  0  0  0  0
 32 39  1  0  0  0  0
 32 33  2  0  0  0  0
 34 33  1  0  0  0  0
 34 40  1  0  0  0  0
 35 34  2  0  0  0  0
 36 38  1  0  0  0  0
 37 36  2  0  0  0  0
 38 42  1  0  0  0  0
 38 30  1  0  0  0  0
 41 36  1  0  0  0  0
M  END
>  <minimizedAffinity>
-5.95777225

$$$$

 OpenBabel03252507143D

 42 44  0  0  1  0  0  0  0  0999 V2000
   38.3000   30.6660   40.9920 C   0  0  2  0  0  0  0  0  0  0  0  0
   37.3360   31.6130   40.3120 C   0  0  0  0  0  0  0  0  0  0  0  0
   37.9750   32.9770   40.2670 C   0  0  0  0  0  0  0  0  0  0  0  0
   39.0200   33.0200   39.3560 O   0  0  0  0  0  0  0  0  0  0  0  0
   39.6550   31.7980   39.2880 C   0  0  0  0  0  0  0  0  0  0  0  0
   39.6890   31.1100   40.6430 C   0  0  1  0  0  0  0  0  0  0  0  0
   38.2320   30.8370   42.0860 H   0  0  0  0  0  0  0  0  0  0  0  0
   37.0850   31.2780   39.3080 H   0  0  0  0  0  0  0  0  0  0  0  0
   36.4420   31.6950   40.9690 H   0  0  0  0  0  0  0  0  0  0  0  0
   37.1850   33.6380   39.7950 H   0  0  0  0  0  0  0  0  0  0  0  0
   38.1540   33.4210   41.2370 H   0  0  0  0  0  0  0  0  0  0  0  0
   39.0120   31.1410   38.6550 H   0  0  0  0  0  0  0  0  0  0  0  0
   40.6400   31.7890   38.8160 H   0  0  0  0  0  0  0  0  0  0  0  0
   40.2130   30.1380   40.3650 H   0  0  0  0  0  0  0  0  0  0  0  0
   41.8850   32.2500   41.0960 C   0  0  2  0  0  3  0  0  0  0  0  0
   40.5520   31.7410   41.6280 C   0  0  2  0  0  3  0  0  0  0  0  0
   41.1890   30.7820   42.6440 C   0  0  0  0  0  3  0  0  0  0  0  0
   41.7670   31.3630   43.3980 H   0  0  0  0  0  0  0  0  0  0  0  0
   42.0890   30.0620   41.8110 O   0  0  0  0  0  0  0  0  0  0  0  0
   42.8120   31.0730   41.2060 C   0  0  0  0  0  3  0  0  0  0  0  0
   43.1690   30.7450   40.1930 H   0  0  0  0  0  0  0  0  0  0  0  0
   42.3660   33.2140   41.9820 O   0  0  0  0  0  0  0  0  0  0  0  0
   41.7570   33.3000   42.7570 H   0  0  0  0  0  0  0  0  0  0  0  0
   38.0490   29.3580   40.7400 O   0  0  0  0  0  0  0  0  0  0  0  0
   35.5540   28.7070   41.1900 O   0  0  0  0  0  0  0  0  0  0  0  0
   36.9440   28.5890   41.6890 P   0  0  2  0  0  0  0  0  0  0  0  0
   36.9620   29.3240   43.2110 O   0  0  0  0  0  0  0  0  0  0  0  0
   36.7830   30.2980   43.1240 H   0  0  0  0  0  0  0  0  0  0  0  0
   37.3710   26.9300   41.8920 O   0  0  0  0  0  0  0  0  0  0  0  0
   38.8150   25.2180   42.6310 C   0  0  0  0  0  0  0  0  0  0  0  0
   38.5540   26.5630   42.5020 C   0  0  0  0  0  0  0  0  0  0  0  0
   39.5020   27.4930   42.9980 C   0  0  0  0  0  0  0  0  0  0  0  0
   40.6200   26.9880   43.5730 N   0  0  0  0  0  0  0  0  0  0  0  0
   40.8360   25.6920   43.6780 C   0  0  0  0  0  0  0  0  0  0  0  0
   39.9200   24.8070   43.2000 N   0  0  0  0  0  0  0  0  0  0  0  0
   38.1140   23.5480   40.9240 C   0  0  0  0  0  0  0  0  0  0  0  0
   38.4960   24.2750   39.9340 O   0  0  0  0  0  0  0  0  0  0  0  0
   38.2350   23.9570   42.3280 N   0  0  0  0  0  0  0  0  0  0  0  0
   39.2200   28.5080   42.8560 H   0  0  0  0  0  0  0  0  0  0  0  0
   41.7320   25.2790   44.1390 H   0  0  0  0  0  0  0  0  0  0  0  0
   37.7010   22.6120   40.5800 H   0  0  0  0  0  0  0  0  0  0  0  0
   37.8610   23.2530   42.9920 H   0  0  0  0  0  0  0  0  0  0  0  0
  1  7  1  1  0  0  0
  2  9  1  0  0  0  0
  2  1  1  0  0  0  0
  3  2  1  0  0  0  0
  3 11  1  0  0  0  0
  4  3  1  0  0  0  0
  5  4  1  0  0  0  0
  5  6  1  0  0  0  0
  6 14  1  6  0  0  0
  6  1  1  0  0  0  0
  6 16  1  0  0  0  0
  8  2  1  0  0  0  0
 10  3  1  0  0  0  0
 12  5  1  0  0  0  0
 13  5  1  0  0  0  0
 15 20  1  0  0  0  0
 15 16  1  0  0  0  0
 15 22  1  1  0  0  0
 16 17  1  1  0  0  0
 17 18  1  0  0  0  0
 19 17  1  0  0  0  0
 20 19  1  0  0  0  0
 21 20  1  0  0  0  0
 22 23  1  0  0  0  0
 24  1  1  0  0  0  0
 24 26  1  0  0  0  0
 26 25  2  6  0  0  0
 26 29  1  0  0  0  0
 26 27  1  0  0  0  0
 28 27  1  0  0  0  0
 29 31  1  0  0  0  0
 30 35  1  0  0  0  0
 31 30  2  0  0  0  0
 31 32  1  0  0  0  0
 32 33  2  0  0  0  0
 33 34  1  0  0  0  0
 34 40  1  0  0  0  0
 35 34  2  0  0  0  0
 36 38  1  0  0  0  0
 37 36  2  0  0  0  0
 38 30  1  0  0  0  0
 38 42  1  0  0  0  0
 39 32  1  0  0  0  0
 41 36  1  0  0  0  0
M  END
>  <minimizedAffinity>
-5.77582884

$$$$

 OpenBabel03252507143D

 42 44  0  0  1  0  0  0  0  0999 V2000
   37.1580   30.6120   40.0270 C   0  0  2  0  0  0  0  0  0  0  0  0
   36.5720   30.5210   38.6350 C   0  0  0  0  0  0  0  0  0  0  0  0
   36.2300   29.0790   38.3660 C   0  0  0  0  0  0  0  0  0  0  0  0
   35.1300   28.6710   39.1060 O   0  0  0  0  0  0  0  0  0  0  0  0
   35.0890   29.3260   40.3180 C   0  0  0  0  0  0  0  0  0  0  0  0
   36.4850   29.5700   40.8680 C   0  0  1  0  0  0  0  0  0  0  0  0
   38.2130   30.2740   39.9750 H   0  0  0  0  0  0  0  0  0  0  0  0
   35.6890   31.1480   38.5290 H   0  0  0  0  0  0  0  0  0  0  0  0
   37.3790   30.8020   37.9230 H   0  0  0  0  0  0  0  0  0  0  0  0
   35.8470   29.0790   37.3000 H   0  0  0  0  0  0  0  0  0  0  0  0
   37.0810   28.4120   38.3480 H   0  0  0  0  0  0  0  0  0  0  0  0
   34.6850   30.3460   40.1140 H   0  0  0  0  0  0  0  0  0  0  0  0
   34.4340   28.8970   41.0800 H   0  0  0  0  0  0  0  0  0  0  0  0
   36.2320   30.1290   41.8270 H   0  0  0  0  0  0  0  0  0  0  0  0
   36.6800   27.7450   42.5890 C   0  0  2  0  0  3  0  0  0  0  0  0
   37.1900   28.3740   41.2990 C   0  0  2  0  0  3  0  0  0  0  0  0
   38.6090   28.6140   41.8370 C   0  0  0  0  0  3  0  0  0  0  0  0
   39.0920   27.6380   42.0680 H   0  0  0  0  0  0  0  0  0  0  0  0
   38.3260   29.3010   43.0500 O   0  0  0  0  0  0  0  0  0  0  0  0
   37.4400   28.4470   43.6790 C   0  0  0  0  0  3  0  0  0  0  0  0
   36.7450   29.0280   44.3440 H   0  0  0  0  0  0  0  0  0  0  0  0
   37.0940   26.4140   42.6160 O   0  0  0  0  0  0  0  0  0  0  0  0
   37.6520   26.2130   41.8240 H   0  0  0  0  0  0  0  0  0  0  0  0
   37.1270   31.8620   40.5510 O   0  0  0  0  0  0  0  0  0  0  0  0
   38.8660   33.6440   41.3580 O   0  0  0  0  0  0  0  0  0  0  0  0
   38.3700   32.8810   40.1890 P   0  0  2  0  0  0  0  0  0  0  0  0
   37.7990   34.0280   39.0870 O   0  0  0  0  0  0  0  0  0  0  0  0
   37.0090   34.5010   39.4620 H   0  0  0  0  0  0  0  0  0  0  0  0
   39.6620   32.0180   39.4410 O   0  0  0  0  0  0  0  0  0  0  0  0
   41.6900   33.1080   39.9510 C   0  0  0  0  0  0  0  0  0  0  0  0
   40.7990   32.6670   39.0000 C   0  0  0  0  0  0  0  0  0  0  0  0
   41.0890   32.8970   37.6320 C   0  0  0  0  0  0  0  0  0  0  0  0
   42.2430   33.5460   37.3470 N   0  0  0  0  0  0  0  0  0  0  0  0
   43.0730   33.9550   38.2860 C   0  0  0  0  0  0  0  0  0  0  0  0
   42.7860   33.7300   39.5960 N   0  0  0  0  0  0  0  0  0  0  0  0
   42.1090   31.8750   42.0710 C   0  0  0  0  0  0  0  0  0  0  0  0
   42.1690   30.7280   41.4900 O   0  0  0  0  0  0  0  0  0  0  0  0
   41.8620   33.1350   41.3610 N   0  0  0  0  0  0  0  0  0  0  0  0
   40.3480   32.5220   36.9680 H   0  0  0  0  0  0  0  0  0  0  0  0
   44.0030   34.4780   38.0640 H   0  0  0  0  0  0  0  0  0  0  0  0
   42.2640   31.7770   43.1340 H   0  0  0  0  0  0  0  0  0  0  0  0
   41.8310   33.9580   41.9900 H   0  0  0  0  0  0  0  0  0  0  0  0
  1  7  1  6  0  0  0
  1 24  1  0  0  0  0
  1  6  1  0  0  0  0
  2  1  1  0  0  0  0
  3  2  1  0  0  0  0
  3  4  1  0  0  0  0
  4  5  1  0  0  0  0
  5  6  1  0  0  0  0
  5 13  1  0  0  0  0
  6 16  1  0  0  0  0
  6 14  1  1  0  0  0
  8  2  1  0  0  0  0
  9  2  1  0  0  0  0
 10  3  1  0  0  0  0
 11  3  1  0  0  0  0
 12  5  1  0  0  0  0
 15 22  1  6  0  0  0
 15 20  1  0  0  0  0
 16 17  1  1  0  0  0
 16 15  1  0  0  0  0
 17 18  1  0  0  0  0
 17 19  1  0  0  0  0
 19 20  1  0  0  0  0
 20 21  1  0  0  0  0
 23 22  1  0  0  0  0
 26 24  1  0  0  0  0
 26 25  2  1  0  0  0
 27 28  1  0  0  0  0
 27 26  1  0  0  0  0
 29 26  1  0  0  0  0
 30 38  1  0  0  0  0
 31 29  1  0  0  0  0
 31 30  2  0  0  0  0
 32 31  1  0  0  0  0
 33 32  2  0  0  0  0
 33 34  1  0  0  0  0
 34 35  2  0  0  0  0
 35 30  1  0  0  0  0
 36 41  1  0  0  0  0
 37 36  2  0  0  0  0
 38 42  1  0  0  0  0
 38 36  1  0  0  0  0
 39 32  1  0  0  0  0
 40 34  1  0  0  0  0
M  END
>  <minimizedAffinity>
-5.77155876

$$$$

 OpenBabel03252507143D

 42 44  0  0  1  0  0  0  0  0999 V2000
   37.3820   26.9650   40.9260 C   0  0  2  0  0  0  0  0  0  0  0  0
   36.5290   26.2360   39.9130 C   0  0  0  0  0  0  0  0  0  0  0  0
   37.1510   24.8870   39.6620 C   0  0  0  0  0  0  0  0  0  0  0  0
   36.9890   24.0420   40.7500 O   0  0  0  0  0  0  0  0  0  0  0  0
   36.9960   24.7590   41.9270 C   0  0  0  0  0  0  0  0  0  0  0  0
   37.9530   25.9380   41.8580 C   0  0  1  0  0  0  0  0  0  0  0  0
   38.2700   27.3690   40.3970 H   0  0  0  0  0  0  0  0  0  0  0  0
   35.5030   26.1220   40.2580 H   0  0  0  0  0  0  0  0  0  0  0  0
   36.5950   26.8060   38.9600 H   0  0  0  0  0  0  0  0  0  0  0  0
   36.4950   24.4210   38.8650 H   0  0  0  0  0  0  0  0  0  0  0  0
   38.1350   24.9230   39.2140 H   0  0  0  0  0  0  0  0  0  0  0  0
   35.9850   25.2220   42.0230 H   0  0  0  0  0  0  0  0  0  0  0  0
   37.1450   24.1840   42.8440 H   0  0  0  0  0  0  0  0  0  0  0  0
   37.7880   26.3960   42.8870 H   0  0  0  0  0  0  0  0  0  0  0  0
   39.9940   25.2770   43.1700 C   0  0  2  0  0  3  0  0  0  0  0  0
   39.3620   25.5820   41.8190 C   0  0  2  0  0  3  0  0  0  0  0  0
   40.3170   26.7410   41.5000 C   0  0  0  0  0  3  0  0  0  0  0  0
   41.3590   26.3570   41.4180 H   0  0  0  0  0  0  0  0  0  0  0  0
   40.1940   27.5270   42.6800 O   0  0  0  0  0  0  0  0  0  0  0  0
   40.4630   26.6110   43.6800 C   0  0  0  0  0  3  0  0  0  0  0  0
   39.9230   26.8940   44.6230 H   0  0  0  0  0  0  0  0  0  0  0  0
   41.1410   24.5150   42.9510 O   0  0  0  0  0  0  0  0  0  0  0  0
   41.2920   24.3970   41.9810 H   0  0  0  0  0  0  0  0  0  0  0  0
   36.7420   27.9880   41.5440 O   0  0  0  0  0  0  0  0  0  0  0  0
   38.2750   30.0930   41.8010 O   0  0  0  0  0  0  0  0  0  0  0  0
   37.1130   29.5230   41.0790 P   0  0  2  0  0  0  0  0  0  0  0  0
   35.7960   30.5150   41.4530 O   0  0  0  0  0  0  0  0  0  0  0  0
   35.5790   30.4470   42.4200 H   0  0  0  0  0  0  0  0  0  0  0  0
   37.3700   29.5950   39.3740 O   0  0  0  0  0  0  0  0  0  0  0  0
   38.5760   31.3100   38.2970 C   0  0  0  0  0  0  0  0  0  0  0  0
   38.5620   30.0490   38.8460 C   0  0  0  0  0  0  0  0  0  0  0  0
   39.7570   29.2870   38.8420 C   0  0  0  0  0  0  0  0  0  0  0  0
   40.8530   29.8620   38.2900 N   0  0  0  0  0  0  0  0  0  0  0  0
   40.8290   31.0740   37.7730 C   0  0  0  0  0  0  0  0  0  0  0  0
   39.6770   31.7960   37.7800 N   0  0  0  0  0  0  0  0  0  0  0  0
   37.2100   33.1820   39.2010 C   0  0  0  0  0  0  0  0  0  0  0  0
   37.5020   32.9150   40.4250 O   0  0  0  0  0  0  0  0  0  0  0  0
   37.7100   32.4100   38.0580 N   0  0  0  0  0  0  0  0  0  0  0  0
   39.6550   28.3270   39.2870 H   0  0  0  0  0  0  0  0  0  0  0  0
   41.7060   31.5420   37.3270 H   0  0  0  0  0  0  0  0  0  0  0  0
   36.5570   34.0400   39.1370 H   0  0  0  0  0  0  0  0  0  0  0  0
   37.3600   32.7570   37.1460 H   0  0  0  0  0  0  0  0  0  0  0  0
  1  7  1  6  0  0  0
  1 24  1  0  0  0  0
  1  6  1  0  0  0  0
  2  8  1  0  0  0  0
  2  1  1  0  0  0  0
  3  2  1  0  0  0  0
  3  4  1  0  0  0  0
  4  5  1  0  0  0  0
  5 12  1  0  0  0  0
  5 13  1  0  0  0  0
  6  5  1  0  0  0  0
  6 14  1  1  0  0  0
  9  2  1  0  0  0  0
 10  3  1  0  0  0  0
 11  3  1  0  0  0  0
 15 22  1  6  0  0  0
 15 20  1  0  0  0  0
 16 17  1  1  0  0  0
 16  6  1  0  0  0  0
 16 15  1  0  0  0  0
 17 19  1  0  0  0  0
 18 17  1  0  0  0  0
 19 20  1  0  0  0  0
 20 21  1  0  0  0  0
 23 22  1  0  0  0  0
 26 27  1  0  0  0  0
 26 24  1  0  0  0  0
 26 25  2  1  0  0  0
 27 28  1  0  0  0  0
 29 26  1  0  0  0  0
 30 31  1  0  0  0  0
 31 29  1  0  0  0  0
 32 31  2  0  0  0  0
 32 39  1  0  0  0  0
 33 32  1  0  0  0  0
 34 35  1  0  0  0  0
 34 33  2  0  0  0  0
 35 30  2  0  0  0  0
 36 37  2  0  0  0  0
 38 30  1  0  0  0  0
 38 36  1  0  0  0  0
 40 34  1  0  0  0  0
 41 36  1  0  0  0  0
 42 38  1  0  0  0  0
M  END
>  <minimizedAffinity>
-5.70934963

$$$$

 OpenBabel03252507143D

 42 44  0  0  1  0  0  0  0  0999 V2000
   37.0400   28.9670   38.5750 C   0  0  2  0  0  0  0  0  0  0  0  0
   36.3510   28.0310   37.6070 C   0  0  0  0  0  0  0  0  0  0  0  0
   36.6040   28.5340   36.2090 C   0  0  0  0  0  0  0  0  0  0  0  0
   37.9210   28.3310   35.8270 O   0  0  0  0  0  0  0  0  0  0  0  0
   38.7630   28.4270   36.9140 C   0  0  0  0  0  0  0  0  0  0  0  0
   38.2810   29.4740   37.9040 C   0  0  1  0  0  0  0  0  0  0  0  0
   36.4070   29.8700   38.6850 H   0  0  0  0  0  0  0  0  0  0  0  0
   36.7080   27.0080   37.7130 H   0  0  0  0  0  0  0  0  0  0  0  0
   35.2570   28.1200   37.7910 H   0  0  0  0  0  0  0  0  0  0  0  0
   36.0230   27.8220   35.5480 H   0  0  0  0  0  0  0  0  0  0  0  0
   36.1780   29.5060   35.9990 H   0  0  0  0  0  0  0  0  0  0  0  0
   38.6810   27.4600   37.4650 H   0  0  0  0  0  0  0  0  0  0  0  0
   39.8270   28.5510   36.6940 H   0  0  0  0  0  0  0  0  0  0  0  0
   39.0770   29.3740   38.7120 H   0  0  0  0  0  0  0  0  0  0  0  0
   39.7290   31.5180   37.6680 C   0  0  2  0  0  3  0  0  0  0  0  0
   38.3810   30.8480   37.4380 C   0  0  2  0  0  3  0  0  0  0  0  0
   37.5960   31.8750   38.2680 C   0  0  0  0  0  3  0  0  0  0  0  0
   37.6720   32.8780   37.7920 H   0  0  0  0  0  0  0  0  0  0  0  0
   38.3390   31.8680   39.4810 O   0  0  0  0  0  0  0  0  0  0  0  0
   39.6280   32.1120   39.0440 C   0  0  0  0  0  3  0  0  0  0  0  0
   40.3710   31.6410   39.7420 H   0  0  0  0  0  0  0  0  0  0  0  0
   39.8370   32.5900   36.7830 O   0  0  0  0  0  0  0  0  0  0  0  0
   39.0040   32.6860   36.2590 H   0  0  0  0  0  0  0  0  0  0  0  0
   37.2460   28.4280   39.8010 O   0  0  0  0  0  0  0  0  0  0  0  0
   34.7790   28.8930   40.5410 O   0  0  0  0  0  0  0  0  0  0  0  0
   36.1850   28.8130   41.0010 P   0  0  2  0  0  0  0  0  0  0  0  0
   36.5820   30.3540   41.5730 O   0  0  0  0  0  0  0  0  0  0  0  0
   36.5740   31.0090   40.8260 H   0  0  0  0  0  0  0  0  0  0  0  0
   36.3270   27.7030   42.3130 O   0  0  0  0  0  0  0  0  0  0  0  0
   37.6970   25.7990   42.5570 C   0  0  0  0  0  0  0  0  0  0  0  0
   37.5470   27.1620   42.6690 C   0  0  0  0  0  0  0  0  0  0  0  0
   38.6390   27.9350   43.1370 C   0  0  0  0  0  0  0  0  0  0  0  0
   39.7780   27.2690   43.4480 N   0  0  0  0  0  0  0  0  0  0  0  0
   39.8850   25.9610   43.3280 C   0  0  0  0  0  0  0  0  0  0  0  0
   38.8310   25.2280   42.8790 N   0  0  0  0  0  0  0  0  0  0  0  0
   36.6020   24.4720   40.7600 C   0  0  0  0  0  0  0  0  0  0  0  0
   36.9010   25.3180   39.8380 O   0  0  0  0  0  0  0  0  0  0  0  0
   36.9640   24.6450   42.1710 N   0  0  0  0  0  0  0  0  0  0  0  0
   38.4350   28.9770   43.1900 H   0  0  0  0  0  0  0  0  0  0  0  0
   40.7970   25.4180   43.5760 H   0  0  0  0  0  0  0  0  0  0  0  0
   36.0580   23.6330   40.3540 H   0  0  0  0  0  0  0  0  0  0  0  0
   36.6280   23.8740   42.7770 H   0  0  0  0  0  0  0  0  0  0  0  0
  1  7  1  1  0  0  0
  1 24  1  0  0  0  0
  2  8  1  0  0  0  0
  2  9  1  0  0  0  0
  2  1  1  0  0  0  0
  3  2  1  0  0  0  0
  4  3  1  0  0  0  0
  4  5  1  0  0  0  0
  5 12  1  0  0  0  0
  5  6  1  0  0  0  0
  6  1  1  0  0  0  0
  6 14  1  1  0  0  0
 10  3  1  0  0  0  0
 11  3  1  0  0  0  0
 13  5  1  0  0  0  0
 15 22  1  6  0  0  0
 15 20  1  0  0  0  0
 16 15  1  0  0  0  0
 16  6  1  0  0  0  0
 16 17  1  1  0  0  0
 17 19  1  0  0  0  0
 18 17  1  0  0  0  0
 20 19  1  0  0  0  0
 20 21  1  0  0  0  0
 23 22  1  0  0  0  0
 24 26  1  0  0  0  0
 26 25  2  6  0  0  0
 26 27  1  0  0  0  0
 26 29  1  0  0  0  0
 28 27  1  0  0  0  0
 29 31  1  0  0  0  0
 30 31  2  0  0  0  0
 30 35  1  0  0  0  0
 31 32  1  0  0  0  0
 32 39  1  0  0  0  0
 32 33  2  0  0  0  0
 34 33  1  0  0  0  0
 34 40  1  0  0  0  0
 35 34  2  0  0  0  0
 36 38  1  0  0  0  0
 37 36  2  0  0  0  0
 38 30  1  0  0  0  0
 38 42  1  0  0  0  0
 41 36  1  0  0  0  0
M  END
>  <minimizedAffinity>
-5.68193483

$$$$

 OpenBabel03252507143D

 42 44  0  0  1  0  0  0  0  0999 V2000
   37.2820   26.7920   40.8630 C   0  0  2  0  0  0  0  0  0  0  0  0
   36.5670   26.2130   39.6630 C   0  0  0  0  0  0  0  0  0  0  0  0
   37.2880   24.9570   39.2490 C   0  0  0  0  0  0  0  0  0  0  0  0
   37.0820   23.9290   40.1580 O   0  0  0  0  0  0  0  0  0  0  0  0
   36.9420   24.4300   41.4340 C   0  0  0  0  0  0  0  0  0  0  0  0
   37.8290   25.6440   41.6580 C   0  0  1  0  0  0  0  0  0  0  0  0
   38.1870   27.3200   40.4980 H   0  0  0  0  0  0  0  0  0  0  0  0
   35.5230   25.9960   39.8820 H   0  0  0  0  0  0  0  0  0  0  0  0
   36.6830   26.9420   38.8310 H   0  0  0  0  0  0  0  0  0  0  0  0
   36.7330   24.6080   38.3250 H   0  0  0  0  0  0  0  0  0  0  0  0
   38.3040   25.1130   38.9120 H   0  0  0  0  0  0  0  0  0  0  0  0
   35.9000   24.8250   41.5080 H   0  0  0  0  0  0  0  0  0  0  0  0
   37.0430   23.7110   42.2510 H   0  0  0  0  0  0  0  0  0  0  0  0
   37.5470   25.9090   42.7290 H   0  0  0  0  0  0  0  0  0  0  0  0
   39.8120   25.0140   43.0710 C   0  0  2  0  0  3  0  0  0  0  0  0
   39.2540   25.3610   41.6970 C   0  0  2  0  0  3  0  0  0  0  0  0
   40.1650   26.5830   41.5050 C   0  0  0  0  0  3  0  0  0  0  0  0
   41.2290   26.2570   41.4740 H   0  0  0  0  0  0  0  0  0  0  0  0
   39.9220   27.2950   42.7130 O   0  0  0  0  0  0  0  0  0  0  0  0
   40.1750   26.3400   43.6800 C   0  0  0  0  0  3  0  0  0  0  0  0
   39.5600   26.5430   44.5970 H   0  0  0  0  0  0  0  0  0  0  0  0
   41.0110   24.3240   42.8900 O   0  0  0  0  0  0  0  0  0  0  0  0
   41.2310   24.2680   41.9280 H   0  0  0  0  0  0  0  0  0  0  0  0
   36.5300   27.6630   41.5790 O   0  0  0  0  0  0  0  0  0  0  0  0
   37.5920   29.4220   43.1990 O   0  0  0  0  0  0  0  0  0  0  0  0
   37.1220   29.1810   41.8150 P   0  0  2  0  0  0  0  0  0  0  0  0
   35.8650   30.2790   41.5460 O   0  0  0  0  0  0  0  0  0  0  0  0
   35.0950   30.0700   42.1380 H   0  0  0  0  0  0  0  0  0  0  0  0
   38.3800   29.5220   40.6840 O   0  0  0  0  0  0  0  0  0  0  0  0
   39.4040   31.5830   41.1990 C   0  0  0  0  0  0  0  0  0  0  0  0
   38.6800   30.8180   40.3140 C   0  0  0  0  0  0  0  0  0  0  0  0
   38.2830   31.3910   39.0800 C   0  0  0  0  0  0  0  0  0  0  0  0
   38.6500   32.6760   38.8500 N   0  0  0  0  0  0  0  0  0  0  0  0
   39.3440   33.3780   39.7220 C   0  0  0  0  0  0  0  0  0  0  0  0
   39.7200   32.8190   40.9040 N   0  0  0  0  0  0  0  0  0  0  0  0
   41.1690   30.6250   42.6680 C   0  0  0  0  0  0  0  0  0  0  0  0
   41.6830   29.9130   41.7270 O   0  0  0  0  0  0  0  0  0  0  0  0
   40.0040   31.4970   42.4830 N   0  0  0  0  0  0  0  0  0  0  0  0
   37.7290   30.7300   38.4580 H   0  0  0  0  0  0  0  0  0  0  0  0
   39.6420   34.4110   39.5440 H   0  0  0  0  0  0  0  0  0  0  0  0
   41.7080   30.4910   43.5930 H   0  0  0  0  0  0  0  0  0  0  0  0
   39.7160   31.9840   43.3530 H   0  0  0  0  0  0  0  0  0  0  0  0
  1  7  1  6  0  0  0
  1 24  1  0  0  0  0
  1  6  1  0  0  0  0
  2  8  1  0  0  0  0
  2  1  1  0  0  0  0
  3  2  1  0  0  0  0
  3  4  1  0  0  0  0
  4  5  1  0  0  0  0
  5 12  1  0  0  0  0
  5  6  1  0  0  0  0
  5 13  1  0  0  0  0
  6 16  1  0  0  0  0
  6 14  1  1  0  0  0
  9  2  1  0  0  0  0
 10  3  1  0  0  0  0
 11  3  1  0  0  0  0
 15 22  1  6  0  0  0
 15 20  1  0  0  0  0
 16 17  1  1  0  0  0
 16 15  1  0  0  0  0
 17 19  1  0  0  0  0
 18 17  1  0  0  0  0
 19 20  1  0  0  0  0
 20 21  1  0  0  0  0
 23 22  1  0  0  0  0
 24 26  1  0  0  0  0
 26 25  2  1  0  0  0
 27 26  1  0  0  0  0
 27 28  1  0  0  0  0
 29 26  1  0  0  0  0
 30 38  1  0  0  0  0
 31 29  1  0  0  0  0
 31 30  2  0  0  0  0
 32 31  1  0  0  0  0
 33 32  2  0  0  0  0
 33 34  1  0  0  0  0
 34 35  2  0  0  0  0
 35 30  1  0  0  0  0
 36 41  1  0  0  0  0
 37 36  2  0  0  0  0
 38 36  1  0  0  0  0
 38 42  1  0  0  0  0
 39 32  1  0  0  0  0
 40 34  1  0  0  0  0
M  END
>  <minimizedAffinity>
-5.66738701

$$$$

 OpenBabel03252507143D

 42 44  0  0  1  0  0  0  0  0999 V2000
   38.3670   29.1160   42.1040 C   0  0  2  0  0  0  0  0  0  0  0  0
   38.4510   28.2690   43.3540 C   0  0  0  0  0  0  0  0  0  0  0  0
   37.0640   27.7780   43.6800 C   0  0  0  0  0  0  0  0  0  0  0  0
   36.6420   26.8130   42.7770 O   0  0  0  0  0  0  0  0  0  0  0  0
   37.1700   27.0530   41.5270 C   0  0  0  0  0  0  0  0  0  0  0  0
   37.2810   28.5420   41.2430 C   0  0  1  0  0  0  0  0  0  0  0  0
   37.9800   30.1140   42.3930 H   0  0  0  0  0  0  0  0  0  0  0  0
   39.1320   27.4300   43.2260 H   0  0  0  0  0  0  0  0  0  0  0  0
   38.7590   28.9430   44.1840 H   0  0  0  0  0  0  0  0  0  0  0  0
   37.1940   27.1980   44.6440 H   0  0  0  0  0  0  0  0  0  0  0  0
   36.3580   28.5580   43.9260 H   0  0  0  0  0  0  0  0  0  0  0  0
   38.2270   26.6920   41.5540 H   0  0  0  0  0  0  0  0  0  0  0  0
   36.7010   26.5260   40.6920 H   0  0  0  0  0  0  0  0  0  0  0  0
   37.7520   28.5190   40.2070 H   0  0  0  0  0  0  0  0  0  0  0  0
   35.2820   28.9310   39.7670 C   0  0  2  0  0  3  0  0  0  0  0  0
   36.0110   29.2280   41.0710 C   0  0  2  0  0  3  0  0  0  0  0  0
   36.1170   30.7370   40.8060 C   0  0  0  0  0  3  0  0  0  0  0  0
   35.0990   31.1840   40.7640 H   0  0  0  0  0  0  0  0  0  0  0  0
   36.6920   30.7440   39.5040 O   0  0  0  0  0  0  0  0  0  0  0  0
   35.8270   29.9360   38.7910 C   0  0  0  0  0  3  0  0  0  0  0  0
   36.3730   29.4260   37.9520 H   0  0  0  0  0  0  0  0  0  0  0  0
   33.9340   29.2450   39.9430 O   0  0  0  0  0  0  0  0  0  0  0  0
   33.7860   29.6240   40.8440 H   0  0  0  0  0  0  0  0  0  0  0  0
   39.5560   29.2770   41.4730 O   0  0  0  0  0  0  0  0  0  0  0  0
   40.6660   31.1740   42.8940 O   0  0  0  0  0  0  0  0  0  0  0  0
   40.2630   30.7640   41.5280 P   0  0  2  0  0  0  0  0  0  0  0  0
   39.1240   31.9020   41.0120 O   0  0  0  0  0  0  0  0  0  0  0  0
   38.3040   31.8440   41.5700 H   0  0  0  0  0  0  0  0  0  0  0  0
   41.6120   30.8330   40.4560 O   0  0  0  0  0  0  0  0  0  0  0  0
   42.0370   33.1260   40.1040 C   0  0  0  0  0  0  0  0  0  0  0  0
   41.7750   31.8830   39.5740 C   0  0  0  0  0  0  0  0  0  0  0  0
   41.6860   31.7450   38.1660 C   0  0  0  0  0  0  0  0  0  0  0  0
   41.8700   32.8640   37.4240 N   0  0  0  0  0  0  0  0  0  0  0  0
   42.1200   34.0380   37.9670 C   0  0  0  0  0  0  0  0  0  0  0  0
   42.2020   34.1610   39.3190 N   0  0  0  0  0  0  0  0  0  0  0  0
   43.3980   33.4450   42.1620 C   0  0  0  0  0  0  0  0  0  0  0  0
   44.2980   32.6010   41.7990 O   0  0  0  0  0  0  0  0  0  0  0  0
   42.2110   33.7650   41.3600 N   0  0  0  0  0  0  0  0  0  0  0  0
   41.4820   30.7520   37.8450 H   0  0  0  0  0  0  0  0  0  0  0  0
   42.2680   34.9420   37.3760 H   0  0  0  0  0  0  0  0  0  0  0  0
   43.6370   33.8760   43.1230 H   0  0  0  0  0  0  0  0  0  0  0  0
   41.5850   34.4550   41.8150 H   0  0  0  0  0  0  0  0  0  0  0  0
  1  7  1  1  0  0  0
  1  2  1  0  0  0  0
  2  3  1  0  0  0  0
  2  9  1  0  0  0  0
  3 11  1  0  0  0  0
  3 10  1  0  0  0  0
  4  3  1  0  0  0  0
  5 12  1  0  0  0  0
  5  4  1  0  0  0  0
  6 14  1  6  0  0  0
  6  5  1  0  0  0  0
  6  1  1  0  0  0  0
  8  2  1  0  0  0  0
 13  5  1  0  0  0  0
 15 22  1  1  0  0  0
 15 16  1  0  0  0  0
 16 17  1  6  0  0  0
 16  6  1  0  0  0  0
 18 17  1  0  0  0  0
 19 17  1  0  0  0  0
 20 19  1  0  0  0  0
 20 15  1  0  0  0  0
 21 20  1  0  0  0  0
 22 23  1  0  0  0  0
 24 26  1  0  0  0  0
 24  1  1  0  0  0  0
 26 25  2  1  0  0  0
 27 26  1  0  0  0  0
 27 28  1  0  0  0  0
 29 26  1  0  0  0  0
 30 38  1  0  0  0  0
 31 30  1  0  0  0  0
 31 29  1  0  0  0  0
 32 31  2  0  0  0  0
 33 34  2  0  0  0  0
 33 32  1  0  0  0  0
 34 35  1  0  0  0  0
 35 30  2  0  0  0  0
 36 41  1  0  0  0  0
 37 36  2  0  0  0  0
 38 42  1  0  0  0  0
 38 36  1  0  0  0  0
 39 32  1  0  0  0  0
 40 34  1  0  0  0  0
M  END
>  <minimizedAffinity>
-5.55814695

$$$$

 OpenBabel03252507143D

 42 44  0  0  1  0  0  0  0  0999 V2000
   37.3260   28.4810   40.1950 C   0  0  2  0  0  0  0  0  0  0  0  0
   36.7990   27.4210   39.2520 C   0  0  0  0  0  0  0  0  0  0  0  0
   36.3000   28.1090   38.0080 C   0  0  0  0  0  0  0  0  0  0  0  0
   37.3470   28.5970   37.2420 O   0  0  0  0  0  0  0  0  0  0  0  0
   38.3970   28.9860   38.0460 C   0  0  0  0  0  0  0  0  0  0  0  0
   37.9080   29.5800   39.3570 C   0  0  1  0  0  0  0  0  0  0  0  0
   36.4560   28.9560   40.6930 H   0  0  0  0  0  0  0  0  0  0  0  0
   37.5650   26.6900   39.0010 H   0  0  0  0  0  0  0  0  0  0  0  0
   35.9150   26.9580   39.7440 H   0  0  0  0  0  0  0  0  0  0  0  0
   35.8790   27.2680   37.3760 H   0  0  0  0  0  0  0  0  0  0  0  0
   35.4610   28.7720   38.1680 H   0  0  0  0  0  0  0  0  0  0  0  0
   38.9330   28.0520   38.3430 H   0  0  0  0  0  0  0  0  0  0  0  0
   39.1540   29.6230   37.5820 H   0  0  0  0  0  0  0  0  0  0  0  0
   38.9020   29.8000   39.8660 H   0  0  0  0  0  0  0  0  0  0  0  0
   38.1470   32.0260   38.8250 C   0  0  2  0  0  3  0  0  0  0  0  0
   37.2470   30.8690   39.2350 C   0  0  2  0  0  3  0  0  0  0  0  0
   36.8250   31.5120   40.5640 C   0  0  0  0  0  3  0  0  0  0  0  0
   36.2640   32.4520   40.3650 H   0  0  0  0  0  0  0  0  0  0  0  0
   38.0940   31.8270   41.1270 O   0  0  0  0  0  0  0  0  0  0  0  0
   38.6950   32.5580   40.1200 C   0  0  0  0  0  3  0  0  0  0  0  0
   39.8110   32.4370   40.1650 H   0  0  0  0  0  0  0  0  0  0  0  0
   37.3430   33.0350   38.2950 O   0  0  0  0  0  0  0  0  0  0  0  0
   36.3900   32.7790   38.3550 H   0  0  0  0  0  0  0  0  0  0  0  0
   38.1620   27.9980   41.1460 O   0  0  0  0  0  0  0  0  0  0  0  0
   36.2100   27.8650   42.8840 O   0  0  0  0  0  0  0  0  0  0  0  0
   37.6680   28.0700   42.7150 P   0  0  2  0  0  0  0  0  0  0  0  0
   37.9940   29.6240   43.2950 O   0  0  0  0  0  0  0  0  0  0  0  0
   37.5530   30.3040   42.7200 H   0  0  0  0  0  0  0  0  0  0  0  0
   38.5490   26.9430   43.6800 O   0  0  0  0  0  0  0  0  0  0  0  0
   40.1390   25.3000   43.1020 C   0  0  0  0  0  0  0  0  0  0  0  0
   39.8590   26.6170   43.3860 C   0  0  0  0  0  0  0  0  0  0  0  0
   40.9150   27.5610   43.3610 C   0  0  0  0  0  0  0  0  0  0  0  0
   42.1510   27.0970   43.0550 N   0  0  0  0  0  0  0  0  0  0  0  0
   42.3810   25.8270   42.7890 C   0  0  0  0  0  0  0  0  0  0  0  0
   41.3610   24.9280   42.8150 N   0  0  0  0  0  0  0  0  0  0  0  0
   38.5390   23.8160   41.9060 C   0  0  0  0  0  0  0  0  0  0  0  0
   38.2420   24.7060   41.0250 O   0  0  0  0  0  0  0  0  0  0  0  0
   39.4900   24.0400   43.0010 N   0  0  0  0  0  0  0  0  0  0  0  0
   40.6090   28.5530   43.5910 H   0  0  0  0  0  0  0  0  0  0  0  0
   43.3720   25.4470   42.5420 H   0  0  0  0  0  0  0  0  0  0  0  0
   37.9990   22.9000   41.7260 H   0  0  0  0  0  0  0  0  0  0  0  0
   39.5950   23.2190   43.6250 H   0  0  0  0  0  0  0  0  0  0  0  0
  1  7  1  1  0  0  0
  1 24  1  0  0  0  0
  2  9  1  0  0  0  0
  2  1  1  0  0  0  0
  3 11  1  0  0  0  0
  3  2  1  0  0  0  0
  4  3  1  0  0  0  0
  4  5  1  0  0  0  0
  5 12  1  0  0  0  0
  5  6  1  0  0  0  0
  6 14  1  1  0  0  0
  6  1  1  0  0  0  0
  8  2  1  0  0  0  0
 10  3  1  0  0  0  0
 13  5  1  0  0  0  0
 15 22  1  1  0  0  0
 15 16  1  0  0  0  0
 15 20  1  0  0  0  0
 16  6  1  0  0  0  0
 16 17  1  1  0  0  0
 17 19  1  0  0  0  0
 18 17  1  0  0  0  0
 20 21  1  0  0  0  0
 20 19  1  0  0  0  0
 22 23  1  0  0  0  0
 24 26  1  0  0  0  0
 26 25  2  1  0  0  0
 26 27  1  0  0  0  0
 26 29  1  0  0  0  0
 28 27  1  0  0  0  0
 30 31  1  0  0  0  0
 31 29  1  0  0  0  0
 32 31  2  0  0  0  0
 32 39  1  0  0  0  0
 33 32  1  0  0  0  0
 34 35  1  0  0  0  0
 34 33  2  0  0  0  0
 35 30  2  0  0  0  0
 36 38  1  0  0  0  0
 37 36  2  0  0  0  0
 38 30  1  0  0  0  0
 38 42  1  0  0  0  0
 40 34  1  0  0  0  0
 41 36  1  0  0  0  0
M  END
>  <minimizedAffinity>
-5.54351187

$$$$
