
 OpenBabel03252505303D

 27 28  0  0  1  0  0  0  0  0999 V2000
   46.9630   31.8260   48.2460 O   0  0  0  0  0  0  0  0  0  0  0  0
   45.9040   32.2570   47.2180 P   0  0  1  0  0  0  0  0  0  0  0  0
   44.7030   33.1880   47.9240 O   0  0  0  0  0  0  0  0  0  0  0  0
   45.0570   34.0700   48.2540 H   0  0  0  0  0  0  0  0  0  0  0  0
   46.7170   33.1210   46.0000 O   0  0  0  0  0  0  0  0  0  0  0  0
   44.5070   35.6000   44.7690 C   0  0  0  0  0  0  0  0  0  0  0  0
   44.9040   35.8200   43.4260 C   0  0  0  0  0  0  0  0  0  0  0  0
   46.0000   35.0380   42.9840 C   0  0  0  0  0  0  0  0  0  0  0  0
   46.5640   34.1660   43.8600 N   0  0  0  0  0  0  0  0  0  0  0  0
   46.1390   34.0100   45.1130 C   0  0  0  0  0  0  0  0  0  0  0  0
   45.1040   34.7300   45.5740 N   0  0  0  0  0  0  0  0  0  0  0  0
   43.6600   36.2080   45.1000 H   0  0  0  0  0  0  0  0  0  0  0  0
   44.4040   36.5350   42.7860 H   0  0  0  0  0  0  0  0  0  0  0  0
   46.3520   35.1590   41.9680 H   0  0  0  0  0  0  0  0  0  0  0  0
   45.2210   30.8480   46.6210 O   0  0  0  0  0  0  0  0  0  0  0  0
   45.3030   29.8750   47.5910 C   0  0  0  0  0  0  0  0  0  0  0  0
   44.6120   30.1490   48.4110 H   0  0  0  0  0  0  0  0  0  0  0  0
   46.3250   29.8930   48.0180 H   0  0  0  0  0  0  0  0  0  0  0  0
   45.6610   26.3420   47.9000 C   0  0  1  0  0  3  0  0  0  0  0  0
   44.8160   27.5540   48.2100 C   0  0  0  0  0  3  0  0  0  0  0  0
   43.7550   27.3110   48.4280 H   0  0  0  0  0  0  0  0  0  0  0  0
   45.0260   28.4860   47.0640 C   0  0  2  0  0  3  0  0  0  0  0  0
   46.1440   28.0460   46.3660 O   0  0  0  0  0  0  0  0  0  0  0  0
   46.2840   26.7040   46.5920 C   0  0  0  0  0  3  0  0  0  0  0  0
   45.7610   26.1480   45.7650 H   0  0  0  0  0  0  0  0  0  0  0  0
   46.6580   26.1170   48.8650 O   0  0  0  0  0  0  0  0  0  0  0  0
   46.2750   26.2400   49.7900 H   0  0  0  0  0  0  0  0  0  0  0  0
  2  3  1  0  0  0  0
  2  1  2  1  0  0  0
  3  4  1  0  0  0  0
  5  2  1  0  0  0  0
  6 12  1  0  0  0  0
  6 11  1  0  0  0  0
  7  6  2  0  0  0  0
  8  7  1  0  0  0  0
  8  9  2  0  0  0  0
  9 10  1  0  0  0  0
 10 11  2  0  0  0  0
 10  5  1  0  0  0  0
 13  7  1  0  0  0  0
 14  8  1  0  0  0  0
 15  2  1  0  0  0  0
 15 16  1  0  0  0  0
 16 18  1  0  0  0  0
 16 17  1  0  0  0  0
 19 20  1  0  0  0  0
 19 26  1  1  0  0  0
 20 21  1  0  0  0  0
 22 16  1  1  0  0  0
 22 20  1  0  0  0  0
 23 24  1  0  0  0  0
 23 22  1  0  0  0  0
 24 19  1  0  0  0  0
 25 24  1  0  0  0  0
 26 27  1  0  0  0  0
M  END
>  <minimizedAffinity>
-4.54580164

>  <minimizedRMSD>
0.7056669

$$$$
