
 OpenBabel03242520323D

 25 27  0  0  1  0  0  0  0  0999 V2000
   37.7750   28.3270   42.9840 C   0  0  1  0  0  0  0  0  0  0  0  0
   38.6160   29.5210   42.9580 C   0  0  0  0  0  0  0  0  0  0  0  0
   37.8950   29.1520   41.7160 C   0  0  2  0  0  0  0  0  0  0  0  0
   36.7610   28.3500   43.4470 H   0  0  0  0  0  0  0  0  0  0  0  0
   39.7180   29.3200   42.9810 H   0  0  0  0  0  0  0  0  0  0  0  0
   38.3470   30.3640   43.6010 H   0  0  0  0  0  0  0  0  0  0  0  0
   38.4920   28.6540   40.9230 H   0  0  0  0  0  0  0  0  0  0  0  0
   37.8040   25.8690   42.3170 C   0  0  0  0  0  0  0  0  0  0  0  0
   38.4080   26.9660   42.9910 C   0  0  0  0  0  0  0  0  0  0  0  0
   39.6020   26.7490   43.6790 C   0  0  0  0  0  0  0  0  0  0  0  0
   40.1170   25.4920   43.6610 N   0  0  0  0  0  0  0  0  0  0  0  0
   39.5270   24.4630   43.0140 C   0  0  0  0  0  0  0  0  0  0  0  0
   38.3600   24.6590   42.3370 N   0  0  0  0  0  0  0  0  0  0  0  0
   36.8810   26.1250   41.8090 H   0  0  0  0  0  0  0  0  0  0  0  0
   40.1030   27.5240   44.2000 H   0  0  0  0  0  0  0  0  0  0  0  0
   39.9650   23.4720   43.0190 H   0  0  0  0  0  0  0  0  0  0  0  0
   37.0740   31.0340   40.2810 C   0  0  1  0  0  3  0  0  0  0  0  0
   36.7130   29.9070   41.2180 C   0  0  1  0  0  3  0  0  0  0  0  0
   35.7300   29.1320   40.4170 C   0  0  0  0  0  3  0  0  0  0  0  0
   35.5600   28.0980   40.6990 H   0  0  0  0  0  0  0  0  0  0  0  0
   36.0690   29.2890   39.0800 O   0  0  0  0  0  0  0  0  0  0  0  0
   36.4890   30.6000   38.9560 C   0  0  0  0  0  3  0  0  0  0  0  0
   35.6710   31.2930   38.6530 H   0  0  0  0  0  0  0  0  0  0  0  0
   36.4900   32.2510   40.6630 O   0  0  0  0  0  0  0  0  0  0  0  0
   35.8390   32.1320   41.4010 H   0  0  0  0  0  0  0  0  0  0  0  0
  1  9  1  0  0  0  0
  1  4  1  1  0  0  0
  2  5  1  0  0  0  0
  2  1  1  0  0  0  0
  2  6  1  0  0  0  0
  3  7  1  6  0  0  0
  3  2  1  0  0  0  0
  3  1  1  0  0  0  0
  8 13  2  0  0  0  0
  8  9  1  0  0  0  0
  9 10  2  0  0  0  0
 10 15  1  0  0  0  0
 11 10  1  0  0  0  0
 12 16  1  0  0  0  0
 12 11  2  0  0  0  0
 13 12  1  0  0  0  0
 14  8  1  0  0  0  0
 17 24  1  1  0  0  0
 17 18  1  0  0  0  0
 18 19  1  6  0  0  0
 18  3  1  0  0  0  0
 19 20  1  0  0  0  0
 21 19  1  0  0  0  0
 22 21  1  0  0  0  0
 22 17  1  0  0  0  0
 23 22  1  0  0  0  0
 24 25  1  0  0  0  0
M  END
>  <minimizedAffinity>
-4.8251009

$$$$

 OpenBabel03242520323D

 25 27  0  0  1  0  0  0  0  0999 V2000
   38.2050   28.5790   43.4090 C   0  0  1  0  0  0  0  0  0  0  0  0
   37.1650   27.5840   43.6580 C   0  0  0  0  0  0  0  0  0  0  0  0
   38.3670   27.1580   42.9020 C   0  0  2  0  0  0  0  0  0  0  0  0
   38.9300   28.8630   44.2070 H   0  0  0  0  0  0  0  0  0  0  0  0
   36.2240   27.7300   43.0700 H   0  0  0  0  0  0  0  0  0  0  0  0
   36.9520   27.2980   44.6930 H   0  0  0  0  0  0  0  0  0  0  0  0
   38.2570   27.0690   41.8010 H   0  0  0  0  0  0  0  0  0  0  0  0
   36.7000   29.8630   41.8050 C   0  0  0  0  0  0  0  0  0  0  0  0
   37.9790   29.6590   42.3910 C   0  0  0  0  0  0  0  0  0  0  0  0
   39.0350   30.4770   41.9880 C   0  0  0  0  0  0  0  0  0  0  0  0
   38.7710   31.4260   41.0520 N   0  0  0  0  0  0  0  0  0  0  0  0
   37.5480   31.6040   40.5070 C   0  0  0  0  0  0  0  0  0  0  0  0
   36.5050   30.8130   40.8920 N   0  0  0  0  0  0  0  0  0  0  0  0
   35.9390   29.1860   42.1750 H   0  0  0  0  0  0  0  0  0  0  0  0
   40.0120   30.3760   42.3860 H   0  0  0  0  0  0  0  0  0  0  0  0
   37.3700   32.3720   39.7630 H   0  0  0  0  0  0  0  0  0  0  0  0
   39.7430   25.0810   42.6430 C   0  0  1  0  0  3  0  0  0  0  0  0
   39.4200   26.2850   43.4910 C   0  0  1  0  0  3  0  0  0  0  0  0
   40.7570   26.9070   43.6800 C   0  0  0  0  0  3  0  0  0  0  0  0
   40.7860   27.9560   43.9580 H   0  0  0  0  0  0  0  0  0  0  0  0
   41.5110   26.6170   42.5520 O   0  0  0  0  0  0  0  0  0  0  0  0
   41.1670   25.3260   42.1990 C   0  0  0  0  0  3  0  0  0  0  0  0
   41.8440   24.5580   42.6400 H   0  0  0  0  0  0  0  0  0  0  0  0
   39.6900   23.8840   43.3750 O   0  0  0  0  0  0  0  0  0  0  0  0
   39.5820   24.0510   44.3460 H   0  0  0  0  0  0  0  0  0  0  0  0
  1  2  1  0  0  0  0
  1  4  1  1  0  0  0
  2  6  1  0  0  0  0
  3  7  1  6  0  0  0
  3  1  1  0  0  0  0
  3 18  1  0  0  0  0
  3  2  1  0  0  0  0
  5  2  1  0  0  0  0
  8 14  1  0  0  0  0
  8  9  1  0  0  0  0
  9  1  1  0  0  0  0
 10 15  1  0  0  0  0
 10  9  2  0  0  0  0
 11 10  1  0  0  0  0
 12 13  1  0  0  0  0
 12 11  2  0  0  0  0
 13  8  2  0  0  0  0
 16 12  1  0  0  0  0
 17 24  1  1  0  0  0
 17 18  1  0  0  0  0
 18 19  1  6  0  0  0
 19 20  1  0  0  0  0
 21 19  1  0  0  0  0
 22 21  1  0  0  0  0
 22 23  1  0  0  0  0
 22 17  1  0  0  0  0
 24 25  1  0  0  0  0
M  END
>  <minimizedAffinity>
-4.720994

$$$$

 OpenBabel03242520323D

 25 27  0  0  1  0  0  0  0  0999 V2000
   38.8160   28.4670   43.1490 C   0  0  1  0  0  0  0  0  0  0  0  0
   39.1230   29.8080   42.6570 C   0  0  0  0  0  0  0  0  0  0  0  0
   38.3680   28.8960   41.7640 C   0  0  2  0  0  0  0  0  0  0  0  0
   37.9780   28.2980   43.8650 H   0  0  0  0  0  0  0  0  0  0  0  0
   40.2020   29.9810   42.4080 H   0  0  0  0  0  0  0  0  0  0  0  0
   38.6870   30.6680   43.1740 H   0  0  0  0  0  0  0  0  0  0  0  0
   38.9430   28.4110   40.9470 H   0  0  0  0  0  0  0  0  0  0  0  0
   39.6010   26.0470   43.2530 C   0  0  0  0  0  0  0  0  0  0  0  0
   39.9020   27.4360   43.2410 C   0  0  0  0  0  0  0  0  0  0  0  0
   41.2380   27.8280   43.3330 C   0  0  0  0  0  0  0  0  0  0  0  0
   42.1740   26.8480   43.4300 N   0  0  0  0  0  0  0  0  0  0  0  0
   41.8660   25.5330   43.4390 C   0  0  0  0  0  0  0  0  0  0  0  0
   40.5650   25.1330   43.3480 N   0  0  0  0  0  0  0  0  0  0  0  0
   38.5410   25.8310   43.1770 H   0  0  0  0  0  0  0  0  0  0  0  0
   41.5290   28.8470   43.3290 H   0  0  0  0  0  0  0  0  0  0  0  0
   42.6380   24.7760   43.5160 H   0  0  0  0  0  0  0  0  0  0  0  0
   36.5890   30.3680   40.7940 C   0  0  1  0  0  3  0  0  0  0  0  0
   36.9170   29.0670   41.4820 C   0  0  1  0  0  3  0  0  0  0  0  0
   36.3030   28.0640   40.5720 C   0  0  0  0  0  3  0  0  0  0  0  0
   36.6670   27.0440   40.6340 H   0  0  0  0  0  0  0  0  0  0  0  0
   36.3500   28.5880   39.2880 O   0  0  0  0  0  0  0  0  0  0  0  0
   36.0980   29.9390   39.4290 C   0  0  0  0  0  3  0  0  0  0  0  0
   35.0210   30.1980   39.3110 H   0  0  0  0  0  0  0  0  0  0  0  0
   35.5680   31.0750   41.4470 O   0  0  0  0  0  0  0  0  0  0  0  0
   35.1500   30.5360   42.1670 H   0  0  0  0  0  0  0  0  0  0  0  0
  1  9  1  0  0  0  0
  1  4  1  1  0  0  0
  2  1  1  0  0  0  0
  2  6  1  0  0  0  0
  3  7  1  6  0  0  0
  3  2  1  0  0  0  0
  3  1  1  0  0  0  0
  5  2  1  0  0  0  0
  8 13  1  0  0  0  0
  9  8  2  0  0  0  0
  9 10  1  0  0  0  0
 10 11  2  0  0  0  0
 11 12  1  0  0  0  0
 12 16  1  0  0  0  0
 13 12  2  0  0  0  0
 14  8  1  0  0  0  0
 15 10  1  0  0  0  0
 17 24  1  1  0  0  0
 17 18  1  0  0  0  0
 18 19  1  6  0  0  0
 18  3  1  0  0  0  0
 19 20  1  0  0  0  0
 21 22  1  0  0  0  0
 21 19  1  0  0  0  0
 22 17  1  0  0  0  0
 23 22  1  0  0  0  0
 24 25  1  0  0  0  0
M  END
>  <minimizedAffinity>
-4.5400877

$$$$

 OpenBabel03242520323D

 25 27  0  0  1  0  0  0  0  0999 V2000
   36.9510   25.2060   41.9490 C   0  0  1  0  0  0  0  0  0  0  0  0
   38.2160   25.7990   42.3760 C   0  0  0  0  0  0  0  0  0  0  0  0
   37.3780   26.5640   41.4220 C   0  0  2  0  0  0  0  0  0  0  0  0
   36.0530   25.2360   42.6090 H   0  0  0  0  0  0  0  0  0  0  0  0
   39.1310   25.3040   41.9600 H   0  0  0  0  0  0  0  0  0  0  0  0
   38.3430   26.0570   43.4320 H   0  0  0  0  0  0  0  0  0  0  0  0
   37.6900   26.5430   40.3560 H   0  0  0  0  0  0  0  0  0  0  0  0
   38.0810   23.2010   40.8580 C   0  0  0  0  0  0  0  0  0  0  0  0
   36.9520   24.0550   40.9860 C   0  0  0  0  0  0  0  0  0  0  0  0
   35.8380   23.8110   40.1820 C   0  0  0  0  0  0  0  0  0  0  0  0
   35.9040   22.7630   39.3190 N   0  0  0  0  0  0  0  0  0  0  0  0
   36.9880   21.9640   39.2130 C   0  0  0  0  0  0  0  0  0  0  0  0
   38.0840   22.1890   39.9930 N   0  0  0  0  0  0  0  0  0  0  0  0
   38.9000   23.4620   41.5180 H   0  0  0  0  0  0  0  0  0  0  0  0
   34.9640   24.4090   40.2290 H   0  0  0  0  0  0  0  0  0  0  0  0
   37.0080   21.1350   38.5150 H   0  0  0  0  0  0  0  0  0  0  0  0
   37.4690   28.8450   42.4530 C   0  0  1  0  0  3  0  0  0  0  0  0
   36.6120   27.7780   41.8180 C   0  0  1  0  0  3  0  0  0  0  0  0
   35.9450   28.5200   40.7170 C   0  0  0  0  0  3  0  0  0  0  0  0
   35.5380   27.9390   39.8960 H   0  0  0  0  0  0  0  0  0  0  0  0
   36.8150   29.5200   40.3050 O   0  0  0  0  0  0  0  0  0  0  0  0
   37.4200   29.9830   41.4580 C   0  0  0  0  0  3  0  0  0  0  0  0
   36.8960   30.8590   41.9040 H   0  0  0  0  0  0  0  0  0  0  0  0
   36.9490   29.2860   43.6800 O   0  0  0  0  0  0  0  0  0  0  0  0
   36.0450   28.9170   43.8500 H   0  0  0  0  0  0  0  0  0  0  0  0
  1  2  1  0  0  0  0
  1  4  1  1  0  0  0
  2  6  1  0  0  0  0
  3  7  1  6  0  0  0
  3 18  1  0  0  0  0
  3  1  1  0  0  0  0
  3  2  1  0  0  0  0
  5  2  1  0  0  0  0
  8  9  1  0  0  0  0
  8 14  1  0  0  0  0
  9  1  1  0  0  0  0
 10 15  1  0  0  0  0
 10  9  2  0  0  0  0
 11 10  1  0  0  0  0
 12 11  2  0  0  0  0
 12 13  1  0  0  0  0
 13  8  2  0  0  0  0
 16 12  1  0  0  0  0
 17 24  1  1  0  0  0
 18 19  1  6  0  0  0
 18 17  1  0  0  0  0
 20 19  1  0  0  0  0
 21 19  1  0  0  0  0
 21 22  1  0  0  0  0
 22 23  1  0  0  0  0
 22 17  1  0  0  0  0
 24 25  1  0  0  0  0
M  END
>  <minimizedAffinity>
-4.46245098

$$$$

 OpenBabel03242520323D

 25 27  0  0  1  0  0  0  0  0999 V2000
   36.8020   26.8100   41.7230 C   0  0  1  0  0  0  0  0  0  0  0  0
   37.7330   27.8520   42.1490 C   0  0  0  0  0  0  0  0  0  0  0  0
   37.1420   27.9610   40.7930 C   0  0  2  0  0  0  0  0  0  0  0  0
   35.7450   26.8080   42.0760 H   0  0  0  0  0  0  0  0  0  0  0  0
   38.8040   27.5290   42.2090 H   0  0  0  0  0  0  0  0  0  0  0  0
   37.4570   28.4860   42.9970 H   0  0  0  0  0  0  0  0  0  0  0  0
   37.7890   27.6610   39.9420 H   0  0  0  0  0  0  0  0  0  0  0  0
   36.5680   24.5740   40.5280 C   0  0  0  0  0  0  0  0  0  0  0  0
   37.3170   25.4480   41.3610 C   0  0  0  0  0  0  0  0  0  0  0  0
   38.5460   25.0070   41.8540 C   0  0  0  0  0  0  0  0  0  0  0  0
   38.9520   23.7590   41.5030 N   0  0  0  0  0  0  0  0  0  0  0  0
   38.2230   22.9430   40.7100 C   0  0  0  0  0  0  0  0  0  0  0  0
   37.0210   23.3590   40.2200 N   0  0  0  0  0  0  0  0  0  0  0  0
   35.6270   24.9940   40.1900 H   0  0  0  0  0  0  0  0  0  0  0  0
   39.1540   25.6110   42.4790 H   0  0  0  0  0  0  0  0  0  0  0  0
   38.5760   21.9530   40.4480 H   0  0  0  0  0  0  0  0  0  0  0  0
   36.5170   30.3850   40.7140 C   0  0  1  0  0  3  0  0  0  0  0  0
   36.0940   28.9610   40.4520 C   0  0  1  0  0  3  0  0  0  0  0  0
   35.6770   29.0130   39.0260 C   0  0  0  0  0  3  0  0  0  0  0  0
   35.6490   28.0750   38.4790 H   0  0  0  0  0  0  0  0  0  0  0  0
   36.4450   29.9880   38.4050 O   0  0  0  0  0  0  0  0  0  0  0  0
   36.5790   31.0020   39.3350 C   0  0  0  0  0  3  0  0  0  0  0  0
   35.8000   31.7920   39.2340 H   0  0  0  0  0  0  0  0  0  0  0  0
   35.5790   31.0850   41.4880 O   0  0  0  0  0  0  0  0  0  0  0  0
   34.7440   30.5660   41.6140 H   0  0  0  0  0  0  0  0  0  0  0  0
  1  4  1  1  0  0  0
  1  2  1  0  0  0  0
  2  5  1  0  0  0  0
  2  6  1  0  0  0  0
  3  7  1  6  0  0  0
  3  1  1  0  0  0  0
  3  2  1  0  0  0  0
  8  9  1  0  0  0  0
  9  1  1  0  0  0  0
  9 10  2  0  0  0  0
 10 15  1  0  0  0  0
 11 10  1  0  0  0  0
 12 11  2  0  0  0  0
 13  8  2  0  0  0  0
 13 12  1  0  0  0  0
 14  8  1  0  0  0  0
 16 12  1  0  0  0  0
 17 24  1  1  0  0  0
 18 19  1  6  0  0  0
 18 17  1  0  0  0  0
 18  3  1  0  0  0  0
 20 19  1  0  0  0  0
 21 19  1  0  0  0  0
 21 22  1  0  0  0  0
 22 17  1  0  0  0  0
 23 22  1  0  0  0  0
 24 25  1  0  0  0  0
M  END
>  <minimizedAffinity>
-4.4131918

$$$$

 OpenBabel03242520323D

 25 27  0  0  1  0  0  0  0  0999 V2000
   39.4030   28.5300   42.2510 C   0  0  1  0  0  0  0  0  0  0  0  0
   38.7610   27.5960   43.1730 C   0  0  0  0  0  0  0  0  0  0  0  0
   38.0940   28.8980   42.9260 C   0  0  2  0  0  0  0  0  0  0  0  0
   39.3220   28.3920   41.1480 H   0  0  0  0  0  0  0  0  0  0  0  0
   39.2830   27.4740   44.1570 H   0  0  0  0  0  0  0  0  0  0  0  0
   38.4070   26.6370   42.7840 H   0  0  0  0  0  0  0  0  0  0  0  0
   38.2090   29.6730   43.7130 H   0  0  0  0  0  0  0  0  0  0  0  0
   40.7300   30.6840   42.5400 C   0  0  0  0  0  0  0  0  0  0  0  0
   40.6370   29.2720   42.6750 C   0  0  0  0  0  0  0  0  0  0  0  0
   41.7290   28.5790   43.1980 C   0  0  0  0  0  0  0  0  0  0  0  0
   42.8220   29.3050   43.5490 N   0  0  0  0  0  0  0  0  0  0  0  0
   42.8910   30.6470   43.4130 C   0  0  0  0  0  0  0  0  0  0  0  0
   41.8320   31.3390   42.9030 N   0  0  0  0  0  0  0  0  0  0  0  0
   39.8390   31.1420   42.1260 H   0  0  0  0  0  0  0  0  0  0  0  0
   41.7230   27.5270   43.3250 H   0  0  0  0  0  0  0  0  0  0  0  0
   43.7790   31.1970   43.7030 H   0  0  0  0  0  0  0  0  0  0  0  0
   36.8200   30.2760   41.2690 C   0  0  1  0  0  3  0  0  0  0  0  0
   36.8570   29.0240   42.1080 C   0  0  1  0  0  3  0  0  0  0  0  0
   36.6280   27.9580   41.0980 C   0  0  0  0  0  3  0  0  0  0  0  0
   36.9370   26.9500   41.3560 H   0  0  0  0  0  0  0  0  0  0  0  0
   37.1580   28.4060   39.8970 O   0  0  0  0  0  0  0  0  0  0  0  0
   36.8780   29.7590   39.8490 C   0  0  0  0  0  3  0  0  0  0  0  0
   35.9260   29.9890   39.3180 H   0  0  0  0  0  0  0  0  0  0  0  0
   35.6310   31.0010   41.4440 O   0  0  0  0  0  0  0  0  0  0  0  0
   34.9700   30.4970   41.9850 H   0  0  0  0  0  0  0  0  0  0  0  0
  1  4  1  6  0  0  0
  1  9  1  0  0  0  0
  1  3  1  0  0  0  0
  1  2  1  0  0  0  0
  2  5  1  0  0  0  0
  3  2  1  0  0  0  0
  3  7  1  1  0  0  0
  6  2  1  0  0  0  0
  8  9  2  0  0  0  0
  8 13  1  0  0  0  0
  9 10  1  0  0  0  0
 10 15  1  0  0  0  0
 10 11  2  0  0  0  0
 12 11  1  0  0  0  0
 12 16  1  0  0  0  0
 13 12  2  0  0  0  0
 14  8  1  0  0  0  0
 17 24  1  6  0  0  0
 17 18  1  0  0  0  0
 18 19  1  6  0  0  0
 18  3  1  0  0  0  0
 19 20  1  0  0  0  0
 21 19  1  0  0  0  0
 22 21  1  0  0  0  0
 22 17  1  0  0  0  0
 23 22  1  0  0  0  0
 24 25  1  0  0  0  0
M  END
>  <minimizedAffinity>
-4.38413954

$$$$

 OpenBabel03242520323D

 25 27  0  0  1  0  0  0  0  0999 V2000
   38.3980   29.8750   42.5320 C   0  0  1  0  0  0  0  0  0  0  0  0
   39.6840   30.5370   42.7350 C   0  0  0  0  0  0  0  0  0  0  0  0
   39.0970   30.5620   41.3730 C   0  0  2  0  0  0  0  0  0  0  0  0
   37.4460   30.3640   42.8430 H   0  0  0  0  0  0  0  0  0  0  0  0
   40.5490   29.8450   42.9000 H   0  0  0  0  0  0  0  0  0  0  0  0
   39.7270   31.4020   43.4050 H   0  0  0  0  0  0  0  0  0  0  0  0
   39.5240   29.8520   40.6340 H   0  0  0  0  0  0  0  0  0  0  0  0
   39.3340   27.5790   43.1110 C   0  0  0  0  0  0  0  0  0  0  0  0
   38.3240   28.3760   42.5090 C   0  0  0  0  0  0  0  0  0  0  0  0
   37.2590   27.7340   41.8760 C   0  0  0  0  0  0  0  0  0  0  0  0
   37.2550   26.3760   41.8750 N   0  0  0  0  0  0  0  0  0  0  0  0
   38.2260   25.6360   42.4540 C   0  0  0  0  0  0  0  0  0  0  0  0
   39.2730   26.2480   43.0780 N   0  0  0  0  0  0  0  0  0  0  0  0
   40.1230   28.1560   43.5800 H   0  0  0  0  0  0  0  0  0  0  0  0
   36.4730   28.2710   41.4080 H   0  0  0  0  0  0  0  0  0  0  0  0
   38.1930   24.5530   42.4370 H   0  0  0  0  0  0  0  0  0  0  0  0
   39.3850   33.0030   40.8900 C   0  0  1  0  0  3  0  0  0  0  0  0
   38.4980   31.7880   40.7780 C   0  0  1  0  0  3  0  0  0  0  0  0
   38.2130   31.7360   39.3200 C   0  0  0  0  0  3  0  0  0  0  0  0
   37.8840   30.7880   38.9080 H   0  0  0  0  0  0  0  0  0  0  0  0
   39.3130   32.2690   38.6640 O   0  0  0  0  0  0  0  0  0  0  0  0
   39.7450   33.3170   39.4550 C   0  0  0  0  0  3  0  0  0  0  0  0
   39.3070   34.2980   39.1560 H   0  0  0  0  0  0  0  0  0  0  0  0
   38.7150   34.1030   41.4460 O   0  0  0  0  0  0  0  0  0  0  0  0
   37.7440   33.9300   41.5450 H   0  0  0  0  0  0  0  0  0  0  0  0
  1  2  1  0  0  0  0
  1  4  1  1  0  0  0
  2  5  1  0  0  0  0
  2  6  1  0  0  0  0
  3  7  1  6  0  0  0
  3  1  1  0  0  0  0
  3  2  1  0  0  0  0
  8 14  1  0  0  0  0
  9  1  1  0  0  0  0
  9  8  2  0  0  0  0
 10  9  1  0  0  0  0
 11 10  2  0  0  0  0
 11 12  1  0  0  0  0
 12 13  2  0  0  0  0
 13  8  1  0  0  0  0
 15 10  1  0  0  0  0
 16 12  1  0  0  0  0
 17 24  1  6  0  0  0
 18 19  1  6  0  0  0
 18 17  1  0  0  0  0
 18  3  1  0  0  0  0
 20 19  1  0  0  0  0
 21 19  1  0  0  0  0
 21 22  1  0  0  0  0
 22 17  1  0  0  0  0
 23 22  1  0  0  0  0
 24 25  1  0  0  0  0
M  END
>  <minimizedAffinity>
-4.32062387

$$$$

 OpenBabel03242520323D

 25 27  0  0  1  0  0  0  0  0999 V2000
   36.1150   28.5060   40.5180 C   0  0  1  0  0  0  0  0  0  0  0  0
   36.3230   27.3340   39.6730 C   0  0  0  0  0  0  0  0  0  0  0  0
   37.2440   27.5370   40.8180 C   0  0  2  0  0  0  0  0  0  0  0  0
   35.3110   28.5200   41.2900 H   0  0  0  0  0  0  0  0  0  0  0  0
   36.7290   27.5560   38.6530 H   0  0  0  0  0  0  0  0  0  0  0  0
   35.5420   26.5690   39.6360 H   0  0  0  0  0  0  0  0  0  0  0  0
   38.2480   27.9470   40.5820 H   0  0  0  0  0  0  0  0  0  0  0  0
   36.7150   30.1050   38.6290 C   0  0  0  0  0  0  0  0  0  0  0  0
   36.4840   29.8700   40.0120 C   0  0  0  0  0  0  0  0  0  0  0  0
   36.6240   30.9360   40.9010 C   0  0  0  0  0  0  0  0  0  0  0  0
   36.9750   32.1420   40.3840 N   0  0  0  0  0  0  0  0  0  0  0  0
   37.1900   32.3450   39.0660 C   0  0  0  0  0  0  0  0  0  0  0  0
   37.0570   31.3130   38.1840 N   0  0  0  0  0  0  0  0  0  0  0  0
   36.5850   29.2250   38.0100 H   0  0  0  0  0  0  0  0  0  0  0  0
   36.4650   30.8280   41.9440 H   0  0  0  0  0  0  0  0  0  0  0  0
   37.4680   33.3200   38.6850 H   0  0  0  0  0  0  0  0  0  0  0  0
   37.3880   25.2340   41.7900 C   0  0  1  0  0  3  0  0  0  0  0  0
   37.1880   26.7060   42.0510 C   0  0  1  0  0  3  0  0  0  0  0  0
   38.2240   26.9880   43.0790 C   0  0  0  0  0  3  0  0  0  0  0  0
   38.5350   28.0210   43.2050 H   0  0  0  0  0  0  0  0  0  0  0  0
   39.2810   26.1190   42.8510 O   0  0  0  0  0  0  0  0  0  0  0  0
   38.7030   24.9240   42.4700 C   0  0  0  0  0  3  0  0  0  0  0  0
   38.5370   24.2270   43.3230 H   0  0  0  0  0  0  0  0  0  0  0  0
   36.3770   24.4490   42.3660 O   0  0  0  0  0  0  0  0  0  0  0  0
   35.7850   24.9840   42.9530 H   0  0  0  0  0  0  0  0  0  0  0  0
  1  3  1  0  0  0  0
  1  4  1  1  0  0  0
  2  1  1  0  0  0  0
  2  3  1  0  0  0  0
  3  7  1  6  0  0  0
  3 18  1  0  0  0  0
  5  2  1  0  0  0  0
  6  2  1  0  0  0  0
  8  9  1  0  0  0  0
  9  1  1  0  0  0  0
  9 10  2  0  0  0  0
 10 15  1  0  0  0  0
 11 10  1  0  0  0  0
 12 11  2  0  0  0  0
 13  8  2  0  0  0  0
 13 12  1  0  0  0  0
 14  8  1  0  0  0  0
 16 12  1  0  0  0  0
 17 18  1  0  0  0  0
 17 24  1  1  0  0  0
 17 22  1  0  0  0  0
 18 19  1  1  0  0  0
 19 20  1  0  0  0  0
 21 19  1  0  0  0  0
 22 21  1  0  0  0  0
 22 23  1  0  0  0  0
 24 25  1  0  0  0  0
M  END
>  <minimizedAffinity>
-4.28762627

$$$$

 OpenBabel03242520323D

 25 27  0  0  1  0  0  0  0  0999 V2000
   38.7080   27.0280   43.1820 C   0  0  1  0  0  0  0  0  0  0  0  0
   40.1100   27.4080   43.3370 C   0  0  0  0  0  0  0  0  0  0  0  0
   39.2840   28.1750   42.3730 C   0  0  2  0  0  0  0  0  0  0  0  0
   37.9430   27.3380   43.9310 H   0  0  0  0  0  0  0  0  0  0  0  0
   40.8440   26.6800   42.9060 H   0  0  0  0  0  0  0  0  0  0  0  0
   40.4440   27.7900   44.3070 H   0  0  0  0  0  0  0  0  0  0  0  0
   39.4180   27.9320   41.2980 H   0  0  0  0  0  0  0  0  0  0  0  0
   37.0010   25.4630   42.1210 C   0  0  0  0  0  0  0  0  0  0  0  0
   38.3500   25.7690   42.4460 C   0  0  0  0  0  0  0  0  0  0  0  0
   39.3460   24.8630   42.0790 C   0  0  0  0  0  0  0  0  0  0  0  0
   38.9580   23.7350   41.4280 N   0  0  0  0  0  0  0  0  0  0  0  0
   37.6690   23.4630   41.1290 C   0  0  0  0  0  0  0  0  0  0  0  0
   36.6850   24.3390   41.4810 N   0  0  0  0  0  0  0  0  0  0  0  0
   36.2940   26.2190   42.4420 H   0  0  0  0  0  0  0  0  0  0  0  0
   40.3710   25.0320   42.2900 H   0  0  0  0  0  0  0  0  0  0  0  0
   37.3930   22.5530   40.6080 H   0  0  0  0  0  0  0  0  0  0  0  0
   39.7600   30.6200   42.1100 C   0  0  1  0  0  3  0  0  0  0  0  0
   38.8220   29.5650   42.6400 C   0  0  1  0  0  3  0  0  0  0  0  0
   37.5260   29.9540   42.0230 C   0  0  0  0  0  3  0  0  0  0  0  0
   36.7560   29.1920   41.9550 H   0  0  0  0  0  0  0  0  0  0  0  0
   37.8110   30.5580   40.8070 O   0  0  0  0  0  0  0  0  0  0  0  0
   38.9580   31.2990   41.0220 C   0  0  0  0  0  3  0  0  0  0  0  0
   38.7480   32.3560   41.3040 H   0  0  0  0  0  0  0  0  0  0  0  0
   40.1010   31.5680   43.0860 O   0  0  0  0  0  0  0  0  0  0  0  0
   39.5650   31.4560   43.9120 H   0  0  0  0  0  0  0  0  0  0  0  0
  1  2  1  0  0  0  0
  1  4  1  1  0  0  0
  2  6  1  0  0  0  0
  3  7  1  6  0  0  0
  3 18  1  0  0  0  0
  3  1  1  0  0  0  0
  3  2  1  0  0  0  0
  5  2  1  0  0  0  0
  8 14  1  0  0  0  0
  8  9  1  0  0  0  0
  9  1  1  0  0  0  0
 10 15  1  0  0  0  0
 10  9  2  0  0  0  0
 11 10  1  0  0  0  0
 12 11  2  0  0  0  0
 12 13  1  0  0  0  0
 13  8  2  0  0  0  0
 16 12  1  0  0  0  0
 17 18  1  0  0  0  0
 17 24  1  1  0  0  0
 18 19  1  6  0  0  0
 20 19  1  0  0  0  0
 21 22  1  0  0  0  0
 21 19  1  0  0  0  0
 22 23  1  0  0  0  0
 22 17  1  0  0  0  0
 24 25  1  0  0  0  0
M  END
>  <minimizedAffinity>
-4.28640175

$$$$
