
 OpenBabel03242512163D

 21 22  0  0  1  0  0  0  0  0999 V2000
   37.3020   29.1160   42.5800 C   0  0  0  0  0  0  0  0  0  0  0  0
   36.2650   29.1060   42.9410 H   0  0  0  0  0  0  0  0  0  0  0  0
   37.8880   29.8420   43.1950 H   0  0  0  0  0  0  0  0  0  0  0  0
   37.9720   27.7900   42.7280 C   0  0  0  0  0  0  0  0  0  0  0  0
   37.3430   26.7120   42.0670 C   0  0  0  0  0  0  0  0  0  0  0  0
   37.9550   25.4420   42.1890 C   0  0  0  0  0  0  0  0  0  0  0  0
   39.0860   25.3510   42.9200 N   0  0  0  0  0  0  0  0  0  0  0  0
   39.6500   26.4230   43.5380 C   0  0  0  0  0  0  0  0  0  0  0  0
   39.0850   27.6360   43.4340 N   0  0  0  0  0  0  0  0  0  0  0  0
   36.4530   26.7550   41.4850 H   0  0  0  0  0  0  0  0  0  0  0  0
   37.5500   24.5490   41.7200 H   0  0  0  0  0  0  0  0  0  0  0  0
   40.5550   26.3410   44.1200 H   0  0  0  0  0  0  0  0  0  0  0  0
   37.0540   31.6780   40.0950 C   0  0  2  0  0  3  0  0  0  0  0  0
   36.3560   30.8010   41.1150 C   0  0  0  0  0  3  0  0  0  0  0  0
   35.3210   30.5810   40.8170 H   0  0  0  0  0  0  0  0  0  0  0  0
   37.2660   29.5940   41.1470 C   0  0  1  0  0  3  0  0  0  0  0  0
   38.5170   29.9810   40.7150 O   0  0  0  0  0  0  0  0  0  0  0  0
   38.4990   31.3190   40.4090 C   0  0  0  0  0  3  0  0  0  0  0  0
   38.7550   31.9070   41.3130 H   0  0  0  0  0  0  0  0  0  0  0  0
   36.8070   33.0290   40.3360 O   0  0  0  0  0  0  0  0  0  0  0  0
   36.2770   33.3520   39.5640 H   0  0  0  0  0  0  0  0  0  0  0  0
  1  4  1  0  0  0  0
  1  2  1  0  0  0  0
  1  3  1  0  0  0  0
  4  9  1  0  0  0  0
  5  6  1  0  0  0  0
  5  4  2  0  0  0  0
  6  7  2  0  0  0  0
  7  8  1  0  0  0  0
  8 12  1  0  0  0  0
  9  8  2  0  0  0  0
 10  5  1  0  0  0  0
 11  6  1  0  0  0  0
 13 20  1  1  0  0  0
 13 18  1  0  0  0  0
 13 14  1  0  0  0  0
 14 16  1  0  0  0  0
 15 14  1  0  0  0  0
 16  1  1  1  0  0  0
 17 16  1  0  0  0  0
 18 17  1  0  0  0  0
 18 19  1  0  0  0  0
 21 20  1  0  0  0  0
M  END
>  <minimizedAffinity>
-4.20945597

$$$$

 OpenBabel03242512163D

 21 22  0  0  1  0  0  0  0  0999 V2000
   36.8950   27.1780   42.4100 C   0  0  0  0  0  0  0  0  0  0  0  0
   37.2640   27.2460   43.4430 H   0  0  0  0  0  0  0  0  0  0  0  0
   35.8720   26.7290   42.4250 H   0  0  0  0  0  0  0  0  0  0  0  0
   36.7670   28.5160   41.7600 C   0  0  0  0  0  0  0  0  0  0  0  0
   35.6660   28.6660   40.8880 C   0  0  0  0  0  0  0  0  0  0  0  0
   35.5180   29.9250   40.2570 C   0  0  0  0  0  0  0  0  0  0  0  0
   36.4290   30.8820   40.5300 N   0  0  0  0  0  0  0  0  0  0  0  0
   37.4720   30.6840   41.3780 C   0  0  0  0  0  0  0  0  0  0  0  0
   37.6300   29.4980   41.9880 N   0  0  0  0  0  0  0  0  0  0  0  0
   34.9340   27.9300   40.6550 H   0  0  0  0  0  0  0  0  0  0  0  0
   34.7050   30.1420   39.5680 H   0  0  0  0  0  0  0  0  0  0  0  0
   38.1960   31.4560   41.5910 H   0  0  0  0  0  0  0  0  0  0  0  0
   39.1590   24.4130   42.2450 C   0  0  2  0  0  3  0  0  0  0  0  0
   38.9140   25.8550   42.6420 C   0  0  0  0  0  3  0  0  0  0  0  0
   39.8330   26.4550   42.5730 H   0  0  0  0  0  0  0  0  0  0  0  0
   37.8320   26.2560   41.6650 C   0  0  1  0  0  3  0  0  0  0  0  0
   37.1820   25.1150   41.2430 O   0  0  0  0  0  0  0  0  0  0  0  0
   37.7420   24.0210   41.8530 C   0  0  0  0  0  3  0  0  0  0  0  0
   37.2190   23.8260   42.8110 H   0  0  0  0  0  0  0  0  0  0  0  0
   39.6100   23.6600   43.3280 O   0  0  0  0  0  0  0  0  0  0  0  0
   40.5380   23.3920   43.1090 H   0  0  0  0  0  0  0  0  0  0  0  0
  1  3  1  0  0  0  0
  1  2  1  0  0  0  0
  4  9  1  0  0  0  0
  4  1  1  0  0  0  0
  5  4  2  0  0  0  0
  6  7  2  0  0  0  0
  6  5  1  0  0  0  0
  7  8  1  0  0  0  0
  8 12  1  0  0  0  0
  8  9  2  0  0  0  0
 10  5  1  0  0  0  0
 11  6  1  0  0  0  0
 13 14  1  0  0  0  0
 13 20  1  1  0  0  0
 15 14  1  0  0  0  0
 16  1  1  1  0  0  0
 16 14  1  0  0  0  0
 17 16  1  0  0  0  0
 17 18  1  0  0  0  0
 18 13  1  0  0  0  0
 18 19  1  0  0  0  0
 21 20  1  0  0  0  0
M  END
>  <minimizedAffinity>
-4.08693123

$$$$

 OpenBabel03242512163D

 21 22  0  0  1  0  0  0  0  0999 V2000
   39.4240   30.6280   42.6580 C   0  0  0  0  0  0  0  0  0  0  0  0
   38.8380   31.3370   43.2590 H   0  0  0  0  0  0  0  0  0  0  0  0
   40.4770   30.6280   43.0320 H   0  0  0  0  0  0  0  0  0  0  0  0
   38.9260   29.2260   42.7810 C   0  0  0  0  0  0  0  0  0  0  0  0
   39.6800   28.2500   42.0940 C   0  0  0  0  0  0  0  0  0  0  0  0
   39.2320   26.9100   42.1910 C   0  0  0  0  0  0  0  0  0  0  0  0
   38.1270   26.6630   42.9260 N   0  0  0  0  0  0  0  0  0  0  0  0
   37.4370   27.6430   43.5680 C   0  0  0  0  0  0  0  0  0  0  0  0
   37.8460   28.9190   43.4880 N   0  0  0  0  0  0  0  0  0  0  0  0
   40.5530   28.4150   41.5080 H   0  0  0  0  0  0  0  0  0  0  0  0
   39.7420   26.0850   41.7000 H   0  0  0  0  0  0  0  0  0  0  0  0
   36.5540   27.4360   44.1540 H   0  0  0  0  0  0  0  0  0  0  0  0
   38.0510   32.6080   40.0140 C   0  0  2  0  0  3  0  0  0  0  0  0
   37.9510   31.3680   40.8800 C   0  0  0  0  0  3  0  0  0  0  0  0
   37.4740   30.5370   40.3410 H   0  0  0  0  0  0  0  0  0  0  0  0
   39.4020   31.1320   41.2340 C   0  0  1  0  0  3  0  0  0  0  0  0
   40.0800   32.3260   41.1140 O   0  0  0  0  0  0  0  0  0  0  0  0
   39.2060   33.3070   40.7160 C   0  0  0  0  0  3  0  0  0  0  0  0
   38.7560   33.7840   41.6110 H   0  0  0  0  0  0  0  0  0  0  0  0
   36.8850   33.3690   40.0830 O   0  0  0  0  0  0  0  0  0  0  0  0
   36.4810   33.3350   39.1790 H   0  0  0  0  0  0  0  0  0  0  0  0
  1  4  1  0  0  0  0
  1  3  1  0  0  0  0
  1  2  1  0  0  0  0
  4  9  1  0  0  0  0
  5  6  1  0  0  0  0
  5  4  2  0  0  0  0
  6  7  2  0  0  0  0
  7  8  1  0  0  0  0
  8 12  1  0  0  0  0
  9  8  2  0  0  0  0
 10  5  1  0  0  0  0
 11  6  1  0  0  0  0
 13 20  1  1  0  0  0
 13 18  1  0  0  0  0
 13 14  1  0  0  0  0
 14 16  1  0  0  0  0
 15 14  1  0  0  0  0
 16  1  1  1  0  0  0
 17 16  1  0  0  0  0
 18 17  1  0  0  0  0
 18 19  1  0  0  0  0
 21 20  1  0  0  0  0
M  END
>  <minimizedAffinity>
-4.02636433

$$$$

 OpenBabel03242512163D

 21 22  0  0  1  0  0  0  0  0999 V2000
   37.9990   30.0210   40.5910 C   0  0  0  0  0  0  0  0  0  0  0  0
   37.5700   29.5220   39.7120 H   0  0  0  0  0  0  0  0  0  0  0  0
   39.0410   29.6460   40.7430 H   0  0  0  0  0  0  0  0  0  0  0  0
   38.0970   31.5000   40.4190 C   0  0  0  0  0  0  0  0  0  0  0  0
   37.0900   32.0890   39.6230 C   0  0  0  0  0  0  0  0  0  0  0  0
   37.1560   33.4920   39.4410 C   0  0  0  0  0  0  0  0  0  0  0  0
   38.1670   34.1600   40.0350 N   0  0  0  0  0  0  0  0  0  0  0  0
   39.1130   33.5430   40.7920 C   0  0  0  0  0  0  0  0  0  0  0  0
   39.0670   32.2140   40.9770 N   0  0  0  0  0  0  0  0  0  0  0  0
   36.2830   31.5880   39.1440 H   0  0  0  0  0  0  0  0  0  0  0  0
   36.4300   34.0400   38.8470 H   0  0  0  0  0  0  0  0  0  0  0  0
   39.9180   34.0850   41.2630 H   0  0  0  0  0  0  0  0  0  0  0  0
   36.6380   27.6130   42.8590 C   0  0  2  0  0  3  0  0  0  0  0  0
   36.6050   28.2490   41.4840 C   0  0  0  0  0  3  0  0  0  0  0  0
   35.5910   28.2430   41.0610 H   0  0  0  0  0  0  0  0  0  0  0  0
   37.1520   29.6280   41.7790 C   0  0  1  0  0  3  0  0  0  0  0  0
   37.9040   29.5610   42.9320 O   0  0  0  0  0  0  0  0  0  0  0  0
   37.8940   28.2730   43.4080 C   0  0  0  0  0  3  0  0  0  0  0  0
   38.7380   27.7090   42.9610 H   0  0  0  0  0  0  0  0  0  0  0  0
   36.7930   26.2290   42.7730 O   0  0  0  0  0  0  0  0  0  0  0  0
   35.9520   25.8370   43.1210 H   0  0  0  0  0  0  0  0  0  0  0  0
  1  3  1  0  0  0  0
  2  1  1  0  0  0  0
  4  1  1  0  0  0  0
  4  9  1  0  0  0  0
  5  4  2  0  0  0  0
  6  5  1  0  0  0  0
  6  7  2  0  0  0  0
  7  8  1  0  0  0  0
  8  9  2  0  0  0  0
  8 12  1  0  0  0  0
 10  5  1  0  0  0  0
 11  6  1  0  0  0  0
 13 20  1  6  0  0  0
 13 18  1  0  0  0  0
 14 16  1  0  0  0  0
 14 13  1  0  0  0  0
 15 14  1  0  0  0  0
 16  1  1  6  0  0  0
 16 17  1  0  0  0  0
 17 18  1  0  0  0  0
 19 18  1  0  0  0  0
 20 21  1  0  0  0  0
M  END
>  <minimizedAffinity>
-4.01973295

$$$$

 OpenBabel03242512163D

 21 22  0  0  1  0  0  0  0  0999 V2000
   38.7530   30.0300   41.3620 C   0  0  0  0  0  0  0  0  0  0  0  0
   38.6750   30.8480   42.0900 H   0  0  0  0  0  0  0  0  0  0  0  0
   39.8330   29.7750   41.2260 H   0  0  0  0  0  0  0  0  0  0  0  0
   38.0740   28.7840   41.8270 C   0  0  0  0  0  0  0  0  0  0  0  0
   37.7880   28.7260   43.2090 C   0  0  0  0  0  0  0  0  0  0  0  0
   37.1430   27.5560   43.6800 C   0  0  0  0  0  0  0  0  0  0  0  0
   36.8510   26.5900   42.7840 N   0  0  0  0  0  0  0  0  0  0  0  0
   37.1510   26.6970   41.4620 C   0  0  0  0  0  0  0  0  0  0  0  0
   37.7610   27.7980   40.9960 N   0  0  0  0  0  0  0  0  0  0  0  0
   38.0060   29.4710   43.9360 H   0  0  0  0  0  0  0  0  0  0  0  0
   36.8800   27.4130   44.7250 H   0  0  0  0  0  0  0  0  0  0  0  0
   36.9140   25.9180   40.7530 H   0  0  0  0  0  0  0  0  0  0  0  0
   37.2850   32.5760   39.3230 C   0  0  2  0  0  3  0  0  0  0  0  0
   37.1070   31.5330   40.4090 C   0  0  0  0  0  3  0  0  0  0  0  0
   36.0910   31.1130   40.4020 H   0  0  0  0  0  0  0  0  0  0  0  0
   38.1950   30.5440   40.0560 C   0  0  1  0  0  3  0  0  0  0  0  0
   39.1600   31.2020   39.3220 O   0  0  0  0  0  0  0  0  0  0  0  0
   38.7970   32.5170   39.1690 C   0  0  0  0  0  3  0  0  0  0  0  0
   39.1990   33.1110   40.0150 H   0  0  0  0  0  0  0  0  0  0  0  0
   36.8720   33.8350   39.7580 O   0  0  0  0  0  0  0  0  0  0  0  0
   36.0810   34.0690   39.2080 H   0  0  0  0  0  0  0  0  0  0  0  0
  1  4  1  0  0  0  0
  1  2  1  0  0  0  0
  3  1  1  0  0  0  0
  4  5  1  0  0  0  0
  5  6  2  0  0  0  0
  5 10  1  0  0  0  0
  6 11  1  0  0  0  0
  7  6  1  0  0  0  0
  8  7  2  0  0  0  0
  9  8  1  0  0  0  0
  9  4  2  0  0  0  0
 12  8  1  0  0  0  0
 13 20  1  1  0  0  0
 13 14  1  0  0  0  0
 15 14  1  0  0  0  0
 16 14  1  0  0  0  0
 16  1  1  1  0  0  0
 17 16  1  0  0  0  0
 18 17  1  0  0  0  0
 18 13  1  0  0  0  0
 18 19  1  0  0  0  0
 21 20  1  0  0  0  0
M  END
>  <minimizedAffinity>
-3.99113536

$$$$

 OpenBabel03242512163D

 21 22  0  0  1  0  0  0  0  0999 V2000
   38.1730   31.7060   40.7730 C   0  0  0  0  0  0  0  0  0  0  0  0
   37.5450   32.3330   40.1250 H   0  0  0  0  0  0  0  0  0  0  0  0
   38.3920   32.2720   41.7120 H   0  0  0  0  0  0  0  0  0  0  0  0
   37.4910   30.4440   41.1820 C   0  0  0  0  0  0  0  0  0  0  0  0
   38.1060   29.7330   42.2370 C   0  0  0  0  0  0  0  0  0  0  0  0
   37.4810   28.5300   42.6470 C   0  0  0  0  0  0  0  0  0  0  0  0
   36.3540   28.1520   42.0090 N   0  0  0  0  0  0  0  0  0  0  0  0
   35.8040   28.8740   40.9970 C   0  0  0  0  0  0  0  0  0  0  0  0
   36.3800   30.0180   40.5940 N   0  0  0  0  0  0  0  0  0  0  0  0
   38.9920   30.0070   42.7570 H   0  0  0  0  0  0  0  0  0  0  0  0
   37.8750   27.9100   43.4490 H   0  0  0  0  0  0  0  0  0  0  0  0
   34.9010   28.5640   40.4930 H   0  0  0  0  0  0  0  0  0  0  0  0
   40.2650   31.9350   37.8810 C   0  0  2  0  0  3  0  0  0  0  0  0
   39.0990   31.2630   38.5770 C   0  0  0  0  0  3  0  0  0  0  0  0
   38.9980   30.2120   38.2700 H   0  0  0  0  0  0  0  0  0  0  0  0
   39.4650   31.4570   40.0310 C   0  0  1  0  0  3  0  0  0  0  0  0
   40.3150   32.5380   40.1250 O   0  0  0  0  0  0  0  0  0  0  0  0
   40.5320   33.0570   38.8730 C   0  0  0  0  0  3  0  0  0  0  0  0
   39.7630   33.8260   38.6550 H   0  0  0  0  0  0  0  0  0  0  0  0
   39.8890   32.4410   36.6370 O   0  0  0  0  0  0  0  0  0  0  0  0
   40.3910   31.9160   35.9640 H   0  0  0  0  0  0  0  0  0  0  0  0
  1  4  1  0  0  0  0
  1  3  1  0  0  0  0
  2  1  1  0  0  0  0
  4  5  1  0  0  0  0
  5  6  2  0  0  0  0
  5 10  1  0  0  0  0
  6 11  1  0  0  0  0
  7  6  1  0  0  0  0
  8  7  2  0  0  0  0
  9  8  1  0  0  0  0
  9  4  2  0  0  0  0
 12  8  1  0  0  0  0
 13 20  1  6  0  0  0
 13 14  1  0  0  0  0
 13 18  1  0  0  0  0
 14 16  1  0  0  0  0
 15 14  1  0  0  0  0
 16 17  1  0  0  0  0
 16  1  1  1  0  0  0
 18 17  1  0  0  0  0
 19 18  1  0  0  0  0
 21 20  1  0  0  0  0
M  END
>  <minimizedAffinity>
-3.94174957

$$$$

 OpenBabel03242512163D

 21 22  0  0  1  0  0  0  0  0999 V2000
   38.4470   28.2830   43.2950 C   0  0  0  0  0  0  0  0  0  0  0  0
   38.8330   28.6060   44.2710 H   0  0  0  0  0  0  0  0  0  0  0  0
   37.4970   27.7170   43.4550 H   0  0  0  0  0  0  0  0  0  0  0  0
   38.1140   29.4330   42.4040 C   0  0  0  0  0  0  0  0  0  0  0  0
   39.1710   30.3380   42.1560 C   0  0  0  0  0  0  0  0  0  0  0  0
   38.8860   31.4400   41.3140 C   0  0  0  0  0  0  0  0  0  0  0  0
   37.6380   31.5470   40.8110 N   0  0  0  0  0  0  0  0  0  0  0  0
   36.6560   30.6460   41.0830 C   0  0  0  0  0  0  0  0  0  0  0  0
   36.9060   29.5940   41.8790 N   0  0  0  0  0  0  0  0  0  0  0  0
   40.1620   30.2780   42.5380 H   0  0  0  0  0  0  0  0  0  0  0  0
   39.6290   32.1920   41.0620 H   0  0  0  0  0  0  0  0  0  0  0  0
   35.6600   30.7400   40.6760 H   0  0  0  0  0  0  0  0  0  0  0  0
   39.8780   25.0510   42.7480 C   0  0  2  0  0  3  0  0  0  0  0  0
   39.6780   26.2300   43.6790 C   0  0  0  0  0  3  0  0  0  0  0  0
   40.5350   26.3610   44.3540 H   0  0  0  0  0  0  0  0  0  0  0  0
   39.4800   27.3600   42.6930 C   0  0  1  0  0  3  0  0  0  0  0  0
   39.0430   26.8250   41.5000 O   0  0  0  0  0  0  0  0  0  0  0  0
   38.9400   25.4620   41.6230 C   0  0  0  0  0  3  0  0  0  0  0  0
   37.9240   25.2000   41.9800 H   0  0  0  0  0  0  0  0  0  0  0  0
   39.4610   23.8610   43.3420 O   0  0  0  0  0  0  0  0  0  0  0  0
   40.2770   23.3120   43.4600 H   0  0  0  0  0  0  0  0  0  0  0  0
  1  3  1  0  0  0  0
  1  2  1  0  0  0  0
  4  1  1  0  0  0  0
  5  4  1  0  0  0  0
  5 10  1  0  0  0  0
  6  5  2  0  0  0  0
  7  8  2  0  0  0  0
  7  6  1  0  0  0  0
  8  9  1  0  0  0  0
  9  4  2  0  0  0  0
 11  6  1  0  0  0  0
 12  8  1  0  0  0  0
 13 20  1  1  0  0  0
 13 14  1  0  0  0  0
 14 15  1  0  0  0  0
 16  1  1  1  0  0  0
 16 14  1  0  0  0  0
 17 18  1  0  0  0  0
 17 16  1  0  0  0  0
 18 19  1  0  0  0  0
 18 13  1  0  0  0  0
 20 21  1  0  0  0  0
M  END
>  <minimizedAffinity>
-3.93610597

$$$$

 OpenBabel03242512163D

 21 22  0  0  1  0  0  0  0  0999 V2000
   38.9830   29.8960   40.9140 C   0  0  0  0  0  0  0  0  0  0  0  0
   38.4440   29.1050   40.3750 H   0  0  0  0  0  0  0  0  0  0  0  0
   40.0700   29.8210   40.6660 H   0  0  0  0  0  0  0  0  0  0  0  0
   38.5450   31.2640   40.5080 C   0  0  0  0  0  0  0  0  0  0  0  0
   39.2330   32.3320   41.1250 C   0  0  0  0  0  0  0  0  0  0  0  0
   38.8400   33.6420   40.7600 C   0  0  0  0  0  0  0  0  0  0  0  0
   37.8460   33.7770   39.8560 N   0  0  0  0  0  0  0  0  0  0  0  0
   37.2160   32.7130   39.2920 C   0  0  0  0  0  0  0  0  0  0  0  0
   37.5740   31.4620   39.6250 N   0  0  0  0  0  0  0  0  0  0  0  0
   40.0180   32.2550   41.8390 H   0  0  0  0  0  0  0  0  0  0  0  0
   39.3060   34.5310   41.1780 H   0  0  0  0  0  0  0  0  0  0  0  0
   36.4220   32.8300   38.5700 H   0  0  0  0  0  0  0  0  0  0  0  0
   37.3160   28.3400   43.6700 C   0  0  2  0  0  3  0  0  0  0  0  0
   37.3090   29.4140   42.6010 C   0  0  0  0  0  3  0  0  0  0  0  0
   36.7580   30.3070   42.9290 H   0  0  0  0  0  0  0  0  0  0  0  0
   38.7900   29.6360   42.3890 C   0  0  1  0  0  3  0  0  0  0  0  0
   39.4620   28.5020   42.7920 O   0  0  0  0  0  0  0  0  0  0  0  0
   38.5580   27.5730   43.2420 C   0  0  0  0  0  3  0  0  0  0  0  0
   38.2290   26.9380   42.3940 H   0  0  0  0  0  0  0  0  0  0  0  0
   36.1770   27.5400   43.5910 O   0  0  0  0  0  0  0  0  0  0  0  0
   35.6630   27.7110   44.4210 H   0  0  0  0  0  0  0  0  0  0  0  0
  2  1  1  0  0  0  0
  3  1  1  0  0  0  0
  4  1  1  0  0  0  0
  4  5  1  0  0  0  0
  5 10  1  0  0  0  0
  6  5  2  0  0  0  0
  6 11  1  0  0  0  0
  7  6  1  0  0  0  0
  8  9  1  0  0  0  0
  8  7  2  0  0  0  0
  9  4  2  0  0  0  0
 12  8  1  0  0  0  0
 13 20  1  6  0  0  0
 14 15  1  0  0  0  0
 14 13  1  0  0  0  0
 16  1  1  6  0  0  0
 16 14  1  0  0  0  0
 16 17  1  0  0  0  0
 17 18  1  0  0  0  0
 18 13  1  0  0  0  0
 19 18  1  0  0  0  0
 20 21  1  0  0  0  0
M  END
>  <minimizedAffinity>
-3.93053222

$$$$

 OpenBabel03242512163D

 21 22  0  0  1  0  0  0  0  0999 V2000
   36.4480   30.3430   41.0360 C   0  0  0  0  0  0  0  0  0  0  0  0
   35.8080   30.0970   40.1780 H   0  0  0  0  0  0  0  0  0  0  0  0
   35.8510   30.9420   41.7670 H   0  0  0  0  0  0  0  0  0  0  0  0
   36.9200   29.1280   41.7640 C   0  0  0  0  0  0  0  0  0  0  0  0
   36.5920   27.8930   41.1630 C   0  0  0  0  0  0  0  0  0  0  0  0
   37.0270   26.7210   41.8300 C   0  0  0  0  0  0  0  0  0  0  0  0
   37.7180   26.8670   42.9800 N   0  0  0  0  0  0  0  0  0  0  0  0
   38.0070   28.0830   43.5160 C   0  0  0  0  0  0  0  0  0  0  0  0
   37.6040   29.2050   42.8980 N   0  0  0  0  0  0  0  0  0  0  0  0
   36.0490   27.7480   40.2600 H   0  0  0  0  0  0  0  0  0  0  0  0
   36.8250   25.7230   41.4510 H   0  0  0  0  0  0  0  0  0  0  0  0
   38.5610   28.1900   44.4360 H   0  0  0  0  0  0  0  0  0  0  0  0
   38.1420   32.1220   38.4360 C   0  0  2  0  0  3  0  0  0  0  0  0
   37.7920   30.7900   39.0680 C   0  0  0  0  0  3  0  0  0  0  0  0
   38.5860   30.0470   38.9100 H   0  0  0  0  0  0  0  0  0  0  0  0
   37.5860   31.1880   40.5120 C   0  0  1  0  0  3  0  0  0  0  0  0
   37.2750   32.5300   40.5540 O   0  0  0  0  0  0  0  0  0  0  0  0
   37.2620   33.0340   39.2770 C   0  0  0  0  0  3  0  0  0  0  0  0
   36.2430   32.9290   38.8510 H   0  0  0  0  0  0  0  0  0  0  0  0
   37.7690   32.1590   37.0930 O   0  0  0  0  0  0  0  0  0  0  0  0
   38.6120   32.2180   36.5760 H   0  0  0  0  0  0  0  0  0  0  0  0
  1  4  1  0  0  0  0
  1  3  1  0  0  0  0
  2  1  1  0  0  0  0
  4  9  1  0  0  0  0
  5  4  2  0  0  0  0
  5  6  1  0  0  0  0
  6  7  2  0  0  0  0
  7  8  1  0  0  0  0
  8 12  1  0  0  0  0
  9  8  2  0  0  0  0
 10  5  1  0  0  0  0
 11  6  1  0  0  0  0
 13 20  1  6  0  0  0
 13 14  1  0  0  0  0
 13 18  1  0  0  0  0
 14 16  1  0  0  0  0
 15 14  1  0  0  0  0
 16 17  1  0  0  0  0
 16  1  1  6  0  0  0
 18 17  1  0  0  0  0
 19 18  1  0  0  0  0
 21 20  1  0  0  0  0
M  END
>  <minimizedAffinity>
-3.91457224

$$$$
