
 OpenBabel03252503003D

 22 23  0  0  1  0  0  0  0  0999 V2000
   38.3750   29.6270   42.4830 C   0  0  0  0  0  0  0  0  0  0  0  0
   38.1220   30.5720   42.9960 H   0  0  0  0  0  0  0  0  0  0  0  0
   39.4300   29.3690   42.7810 H   0  0  0  0  0  0  0  0  0  0  0  0
   36.6570   31.3270   40.3420 C   0  0  1  0  0  3  0  0  0  0  0  0
   38.1000   31.3760   40.8400 C   0  0  0  0  0  3  0  0  0  0  0  0
   38.0560   31.9270   41.8030 H   0  0  0  0  0  0  0  0  0  0  0  0
   38.4020   29.8960   41.0130 C   0  0  2  0  0  3  0  0  0  0  0  0
   37.3740   29.2020   40.3920 O   0  0  0  0  0  0  0  0  0  0  0  0
   36.7530   30.0470   39.5030 C   0  0  0  0  0  3  0  0  0  0  0  0
   35.7160   29.7520   39.2930 H   0  0  0  0  0  0  0  0  0  0  0  0
   35.8200   31.0670   41.4120 O   0  0  0  0  0  0  0  0  0  0  0  0
   35.5520   31.8810   41.8840 H   0  0  0  0  0  0  0  0  0  0  0  0
   37.3180   28.2780   42.9950 S   0  0  0  0  0  0  0  0  0  0  0  0
   39.4380   26.6500   43.6800 C   0  0  0  0  0  0  0  0  0  0  0  0
   38.2640   26.7380   42.9400 C   0  0  0  0  0  0  0  0  0  0  0  0
   37.8200   25.6800   42.1740 C   0  0  0  0  0  0  0  0  0  0  0  0
   38.6040   24.5480   42.1870 N   0  0  0  0  0  0  0  0  0  0  0  0
   39.7280   24.4950   42.9090 C   0  0  0  0  0  0  0  0  0  0  0  0
   40.1730   25.4960   43.6510 N   0  0  0  0  0  0  0  0  0  0  0  0
   39.8270   27.4490   44.2970 H   0  0  0  0  0  0  0  0  0  0  0  0
   36.8990   25.7410   41.5880 H   0  0  0  0  0  0  0  0  0  0  0  0
   40.3270   23.5730   42.8930 H   0  0  0  0  0  0  0  0  0  0  0  0
  1  3  1  0  0  0  0
  1 13  1  0  0  0  0
  1  2  1  0  0  0  0
  4  5  1  0  0  0  0
  4 11  1  1  0  0  0
  5  7  1  0  0  0  0
  5  6  1  0  0  0  0
  7  1  1  1  0  0  0
  8  7  1  0  0  0  0
  9  4  1  0  0  0  0
  9  8  1  0  0  0  0
 10  9  1  0  0  0  0
 11 12  1  0  0  0  0
 14 20  1  0  0  0  0
 15 13  1  0  0  0  0
 15 14  2  0  0  0  0
 16 17  2  0  0  0  0
 16 15  1  0  0  0  0
 17 18  1  0  0  0  0
 18 19  2  0  0  0  0
 19 14  1  0  0  0  0
 21 16  1  0  0  0  0
 22 18  1  0  0  0  0
M  END
>  <minimizedAffinity>
-4.20447206

$$$$

 OpenBabel03252503003D

 22 23  0  0  1  0  0  0  0  0999 V2000
   36.9110   27.9710   40.4840 C   0  0  0  0  0  0  0  0  0  0  0  0
   36.2690   28.6950   41.0160 H   0  0  0  0  0  0  0  0  0  0  0  0
   36.2230   27.2920   39.9050 H   0  0  0  0  0  0  0  0  0  0  0  0
   37.3660   28.0000   43.6800 C   0  0  1  0  0  3  0  0  0  0  0  0
   36.6540   27.0620   42.7070 C   0  0  0  0  0  3  0  0  0  0  0  0
   35.6690   27.5390   42.5160 H   0  0  0  0  0  0  0  0  0  0  0  0
   37.5870   27.1170   41.5080 C   0  0  2  0  0  3  0  0  0  0  0  0
   38.7520   27.7360   41.9370 O   0  0  0  0  0  0  0  0  0  0  0  0
   38.8130   27.6520   43.3080 C   0  0  0  0  0  3  0  0  0  0  0  0
   39.4310   28.4420   43.7530 H   0  0  0  0  0  0  0  0  0  0  0  0
   37.1360   29.3080   43.2960 O   0  0  0  0  0  0  0  0  0  0  0  0
   36.3070   29.6680   43.6720 H   0  0  0  0  0  0  0  0  0  0  0  0
   38.0010   28.7690   39.3120 S   0  0  0  0  0  0  0  0  0  0  0  0
   38.7090   31.1210   40.5710 C   0  0  0  0  0  0  0  0  0  0  0  0
   37.9280   30.5580   39.5680 C   0  0  0  0  0  0  0  0  0  0  0  0
   37.1070   31.3360   38.7780 C   0  0  0  0  0  0  0  0  0  0  0  0
   37.1100   32.6870   39.0440 N   0  0  0  0  0  0  0  0  0  0  0  0
   37.8720   33.1980   40.0150 C   0  0  0  0  0  0  0  0  0  0  0  0
   38.6670   32.4720   40.7850 N   0  0  0  0  0  0  0  0  0  0  0  0
   39.3690   30.5550   41.2150 H   0  0  0  0  0  0  0  0  0  0  0  0
   36.4880   30.9010   37.9880 H   0  0  0  0  0  0  0  0  0  0  0  0
   37.8470   34.2820   40.1970 H   0  0  0  0  0  0  0  0  0  0  0  0
  1  2  1  0  0  0  0
  3  1  1  0  0  0  0
  4 11  1  6  0  0  0
  5  4  1  0  0  0  0
  6  5  1  0  0  0  0
  7  1  1  6  0  0  0
  7  8  1  0  0  0  0
  7  5  1  0  0  0  0
  8  9  1  0  0  0  0
  9  4  1  0  0  0  0
  9 10  1  0  0  0  0
 11 12  1  0  0  0  0
 13 15  1  0  0  0  0
 13  1  1  0  0  0  0
 14 19  1  0  0  0  0
 14 20  1  0  0  0  0
 15 14  2  0  0  0  0
 16 17  2  0  0  0  0
 16 15  1  0  0  0  0
 17 18  1  0  0  0  0
 18 22  1  0  0  0  0
 18 19  2  0  0  0  0
 21 16  1  0  0  0  0
M  END
>  <minimizedAffinity>
-4.02142906

$$$$

 OpenBabel03252503003D

 22 23  0  0  1  0  0  0  0  0999 V2000
   38.0110   31.2260   38.9540 C   0  0  0  0  0  0  0  0  0  0  0  0
   37.6280   30.3620   38.3820 H   0  0  0  0  0  0  0  0  0  0  0  0
   37.8570   32.1360   38.3090 H   0  0  0  0  0  0  0  0  0  0  0  0
   40.6880   32.3050   37.5090 C   0  0  1  0  0  3  0  0  0  0  0  0
   40.1010   32.4360   38.9130 C   0  0  0  0  0  3  0  0  0  0  0  0
   39.3420   33.2440   38.8340 H   0  0  0  0  0  0  0  0  0  0  0  0
   39.4880   31.0580   39.1060 C   0  0  2  0  0  3  0  0  0  0  0  0
   39.9750   30.2570   38.0820 O   0  0  0  0  0  0  0  0  0  0  0  0
   41.1180   30.8340   37.5830 C   0  0  0  0  0  3  0  0  0  0  0  0
   41.3250   30.5340   36.5470 H   0  0  0  0  0  0  0  0  0  0  0  0
   39.6670   32.3990   36.5820 O   0  0  0  0  0  0  0  0  0  0  0  0
   39.4710   33.3250   36.3330 H   0  0  0  0  0  0  0  0  0  0  0  0
   37.1090   31.4790   40.4780 S   0  0  0  0  0  0  0  0  0  0  0  0
   38.2540   29.9020   42.4320 C   0  0  0  0  0  0  0  0  0  0  0  0
   37.2350   29.9850   41.4890 C   0  0  0  0  0  0  0  0  0  0  0  0
   36.3340   28.9550   41.3170 C   0  0  0  0  0  0  0  0  0  0  0  0
   36.5070   27.8540   42.1260 N   0  0  0  0  0  0  0  0  0  0  0  0
   37.4960   27.8050   43.0220 C   0  0  0  0  0  0  0  0  0  0  0  0
   38.3720   28.7800   43.2060 N   0  0  0  0  0  0  0  0  0  0  0  0
   38.9830   30.6820   42.6070 H   0  0  0  0  0  0  0  0  0  0  0  0
   35.5320   29.0110   40.5760 H   0  0  0  0  0  0  0  0  0  0  0  0
   37.6010   26.9080   43.6500 H   0  0  0  0  0  0  0  0  0  0  0  0
  1 13  1  0  0  0  0
  2  1  1  0  0  0  0
  3  1  1  0  0  0  0
  4 11  1  6  0  0  0
  4  9  1  0  0  0  0
  4  5  1  0  0  0  0
  5  7  1  0  0  0  0
  6  5  1  0  0  0  0
  7  1  1  6  0  0  0
  8  7  1  0  0  0  0
  9  8  1  0  0  0  0
 10  9  1  0  0  0  0
 12 11  1  0  0  0  0
 13 15  1  0  0  0  0
 14 20  1  0  0  0  0
 14 19  1  0  0  0  0
 15 14  2  0  0  0  0
 16 15  1  0  0  0  0
 16 17  2  0  0  0  0
 17 18  1  0  0  0  0
 18 19  2  0  0  0  0
 18 22  1  0  0  0  0
 21 16  1  0  0  0  0
M  END
>  <minimizedAffinity>
-4.00313902

$$$$

 OpenBabel03252503003D

 22 23  0  0  1  0  0  0  0  0999 V2000
   36.7550   27.7390   40.5570 C   0  0  0  0  0  0  0  0  0  0  0  0
   36.0440   28.4560   41.0030 H   0  0  0  0  0  0  0  0  0  0  0  0
   36.1380   26.9610   40.0240 H   0  0  0  0  0  0  0  0  0  0  0  0
   37.3850   28.2620   43.6790 C   0  0  1  0  0  3  0  0  0  0  0  0
   36.5880   27.2120   42.9080 C   0  0  0  0  0  3  0  0  0  0  0  0
   35.6120   27.6930   42.6890 H   0  0  0  0  0  0  0  0  0  0  0  0
   37.4560   27.0330   41.6720 C   0  0  2  0  0  3  0  0  0  0  0  0
   38.6640   27.6620   41.9370 O   0  0  0  0  0  0  0  0  0  0  0  0
   38.7960   27.7970   43.2990 C   0  0  0  0  0  3  0  0  0  0  0  0
   39.4650   28.6210   43.5790 H   0  0  0  0  0  0  0  0  0  0  0  0
   37.1790   29.5000   43.0990 O   0  0  0  0  0  0  0  0  0  0  0  0
   36.3850   29.9510   43.4510 H   0  0  0  0  0  0  0  0  0  0  0  0
   37.8230   28.5110   39.3470 S   0  0  0  0  0  0  0  0  0  0  0  0
   36.8930   31.1060   39.2400 C   0  0  0  0  0  0  0  0  0  0  0  0
   37.9170   30.2830   39.6950 C   0  0  0  0  0  0  0  0  0  0  0  0
   38.9900   30.7940   40.3940 C   0  0  0  0  0  0  0  0  0  0  0  0
   38.9830   32.1540   40.6110 N   0  0  0  0  0  0  0  0  0  0  0  0
   37.9840   32.9190   40.1610 C   0  0  0  0  0  0  0  0  0  0  0  0
   36.9450   32.4510   39.4880 N   0  0  0  0  0  0  0  0  0  0  0  0
   36.0310   30.7540   38.6900 H   0  0  0  0  0  0  0  0  0  0  0  0
   39.8010   30.1540   40.7540 H   0  0  0  0  0  0  0  0  0  0  0  0
   38.0140   34.0010   40.3540 H   0  0  0  0  0  0  0  0  0  0  0  0
  1  2  1  0  0  0  0
  3  1  1  0  0  0  0
  4 11  1  6  0  0  0
  5  4  1  0  0  0  0
  6  5  1  0  0  0  0
  7  1  1  6  0  0  0
  7  8  1  0  0  0  0
  7  5  1  0  0  0  0
  8  9  1  0  0  0  0
  9 10  1  0  0  0  0
  9  4  1  0  0  0  0
 11 12  1  0  0  0  0
 13 15  1  0  0  0  0
 13  1  1  0  0  0  0
 14 19  2  0  0  0  0
 14 15  1  0  0  0  0
 15 16  2  0  0  0  0
 16 17  1  0  0  0  0
 16 21  1  0  0  0  0
 18 22  1  0  0  0  0
 18 17  2  0  0  0  0
 19 18  1  0  0  0  0
 20 14  1  0  0  0  0
M  END
>  <minimizedAffinity>
-3.94560266

$$$$

 OpenBabel03252503003D

 22 23  0  0  1  0  0  0  0  0999 V2000
   36.1010   30.5350   40.5220 C   0  0  0  0  0  0  0  0  0  0  0  0
   35.4020   31.1100   39.8880 H   0  0  0  0  0  0  0  0  0  0  0  0
   36.1120   31.0370   41.5300 H   0  0  0  0  0  0  0  0  0  0  0  0
   38.1870   32.9370   39.9780 C   0  0  1  0  0  3  0  0  0  0  0  0
   38.2010   31.6830   40.8490 C   0  0  0  0  0  3  0  0  0  0  0  0
   37.6210   31.9550   41.7570 H   0  0  0  0  0  0  0  0  0  0  0  0
   37.4730   30.6940   39.9520 C   0  0  2  0  0  3  0  0  0  0  0  0
   37.3930   31.2770   38.6960 O   0  0  0  0  0  0  0  0  0  0  0  0
   38.3490   32.2620   38.6100 C   0  0  0  0  0  3  0  0  0  0  0  0
   38.0980   33.0310   37.8690 H   0  0  0  0  0  0  0  0  0  0  0  0
   36.9270   33.5030   40.0220 O   0  0  0  0  0  0  0  0  0  0  0  0
   36.8170   34.1170   40.7760 H   0  0  0  0  0  0  0  0  0  0  0  0
   35.5610   28.8460   40.7600 S   0  0  0  0  0  0  0  0  0  0  0  0
   37.2510   28.4670   42.9080 C   0  0  0  0  0  0  0  0  0  0  0  0
   36.8290   27.9510   41.6880 C   0  0  0  0  0  0  0  0  0  0  0  0
   37.3600   26.7820   41.1830 C   0  0  0  0  0  0  0  0  0  0  0  0
   38.3230   26.1690   41.9530 N   0  0  0  0  0  0  0  0  0  0  0  0
   38.7070   26.6900   43.1220 C   0  0  0  0  0  0  0  0  0  0  0  0
   38.2120   27.8090   43.6270 N   0  0  0  0  0  0  0  0  0  0  0  0
   36.8650   29.3760   43.3480 H   0  0  0  0  0  0  0  0  0  0  0  0
   37.0360   26.3710   40.2230 H   0  0  0  0  0  0  0  0  0  0  0  0
   39.4790   26.1700   43.7080 H   0  0  0  0  0  0  0  0  0  0  0  0
  1 13  1  0  0  0  0
  1  3  1  0  0  0  0
  2  1  1  0  0  0  0
  4 11  1  6  0  0  0
  4  5  1  0  0  0  0
  5  6  1  0  0  0  0
  7  1  1  1  0  0  0
  7  5  1  0  0  0  0
  8  7  1  0  0  0  0
  9  8  1  0  0  0  0
  9  4  1  0  0  0  0
 10  9  1  0  0  0  0
 11 12  1  0  0  0  0
 13 15  1  0  0  0  0
 14 20  1  0  0  0  0
 14 19  1  0  0  0  0
 15 14  2  0  0  0  0
 16 15  1  0  0  0  0
 16 17  2  0  0  0  0
 17 18  1  0  0  0  0
 18 19  2  0  0  0  0
 18 22  1  0  0  0  0
 21 16  1  0  0  0  0
M  END
>  <minimizedAffinity>
-3.9184711

$$$$

 OpenBabel03252503003D

 22 23  0  0  1  0  0  0  0  0999 V2000
   37.7470   30.9200   39.6010 C   0  0  0  0  0  0  0  0  0  0  0  0
   38.7170   30.4280   39.7950 H   0  0  0  0  0  0  0  0  0  0  0  0
   37.3220   30.4410   38.6740 H   0  0  0  0  0  0  0  0  0  0  0  0
   39.8270   33.2270   40.4780 C   0  0  1  0  0  3  0  0  0  0  0  0
   39.5290   32.4940   39.1720 C   0  0  0  0  0  3  0  0  0  0  0  0
   40.0650   31.5250   39.2560 H   0  0  0  0  0  0  0  0  0  0  0  0
   38.0170   32.3480   39.2560 C   0  0  2  0  0  3  0  0  0  0  0  0
   37.5930   33.1680   40.2920 O   0  0  0  0  0  0  0  0  0  0  0  0
   38.5700   34.1040   40.5360 C   0  0  0  0  0  3  0  0  0  0  0  0
   38.5310   34.4980   41.5600 H   0  0  0  0  0  0  0  0  0  0  0  0
   39.7620   32.3270   41.5260 O   0  0  0  0  0  0  0  0  0  0  0  0
   40.6110   31.8650   41.6770 H   0  0  0  0  0  0  0  0  0  0  0  0
   36.5810   30.6600   40.9320 S   0  0  0  0  0  0  0  0  0  0  0  0
   36.4540   28.0820   41.9060 C   0  0  0  0  0  0  0  0  0  0  0  0
   37.1540   29.2820   41.9530 C   0  0  0  0  0  0  0  0  0  0  0  0
   38.2630   29.4320   42.7590 C   0  0  0  0  0  0  0  0  0  0  0  0
   38.6260   28.3330   43.5050 N   0  0  0  0  0  0  0  0  0  0  0  0
   37.9320   27.1930   43.4380 C   0  0  0  0  0  0  0  0  0  0  0  0
   36.8660   27.0250   42.6720 N   0  0  0  0  0  0  0  0  0  0  0  0
   35.5810   27.9130   41.2890 H   0  0  0  0  0  0  0  0  0  0  0  0
   38.8180   30.3730   42.8040 H   0  0  0  0  0  0  0  0  0  0  0  0
   38.2540   26.3380   44.0490 H   0  0  0  0  0  0  0  0  0  0  0  0
  1  2  1  0  0  0  0
  1 13  1  0  0  0  0
  3  1  1  0  0  0  0
  4  9  1  0  0  0  0
  4 11  1  1  0  0  0
  5  6  1  0  0  0  0
  5  7  1  0  0  0  0
  5  4  1  0  0  0  0
  7  1  1  1  0  0  0
  7  8  1  0  0  0  0
  8  9  1  0  0  0  0
  9 10  1  0  0  0  0
 11 12  1  0  0  0  0
 13 15  1  0  0  0  0
 14 15  2  0  0  0  0
 14 19  1  0  0  0  0
 15 16  1  0  0  0  0
 16 21  1  0  0  0  0
 16 17  2  0  0  0  0
 18 17  1  0  0  0  0
 18 22  1  0  0  0  0
 19 18  2  0  0  0  0
 20 14  1  0  0  0  0
M  END
>  <minimizedAffinity>
-3.89180589

$$$$

 OpenBabel03252503003D

 22 23  0  0  1  0  0  0  0  0999 V2000
   38.4250   28.7320   40.5770 C   0  0  0  0  0  0  0  0  0  0  0  0
   38.5970   27.6650   40.3500 H   0  0  0  0  0  0  0  0  0  0  0  0
   39.3350   29.0940   41.1340 H   0  0  0  0  0  0  0  0  0  0  0  0
   37.8560   28.0460   43.6800 C   0  0  1  0  0  3  0  0  0  0  0  0
   37.8510   29.3260   42.8470 C   0  0  0  0  0  3  0  0  0  0  0  0
   38.9180   29.6260   42.7710 H   0  0  0  0  0  0  0  0  0  0  0  0
   37.2790   28.8190   41.5320 C   0  0  2  0  0  3  0  0  0  0  0  0
   36.7770   27.5490   41.7780 O   0  0  0  0  0  0  0  0  0  0  0  0
   36.5710   27.4150   43.1300 C   0  0  0  0  0  3  0  0  0  0  0  0
   36.5910   26.3680   43.4590 H   0  0  0  0  0  0  0  0  0  0  0  0
   38.9180   27.2540   43.2820 O   0  0  0  0  0  0  0  0  0  0  0  0
   39.7470   27.4750   43.7520 H   0  0  0  0  0  0  0  0  0  0  0  0
   38.2640   29.7200   39.0950 S   0  0  0  0  0  0  0  0  0  0  0  0
   39.3280   31.9590   40.3070 C   0  0  0  0  0  0  0  0  0  0  0  0
   38.2670   31.4690   39.5530 C   0  0  0  0  0  0  0  0  0  0  0  0
   37.2310   32.2890   39.1580 C   0  0  0  0  0  0  0  0  0  0  0  0
   37.3120   33.6060   39.5540 N   0  0  0  0  0  0  0  0  0  0  0  0
   38.3450   34.0460   40.2780 C   0  0  0  0  0  0  0  0  0  0  0  0
   39.3500   33.2790   40.6680 N   0  0  0  0  0  0  0  0  0  0  0  0
   40.1640   31.3590   40.6390 H   0  0  0  0  0  0  0  0  0  0  0  0
   36.3910   31.9120   38.5670 H   0  0  0  0  0  0  0  0  0  0  0  0
   38.3730   35.1050   40.5750 H   0  0  0  0  0  0  0  0  0  0  0  0
  1  3  1  0  0  0  0
  2  1  1  0  0  0  0
  4 11  1  6  0  0  0
  5  4  1  0  0  0  0
  6  5  1  0  0  0  0
  7  1  1  6  0  0  0
  7  8  1  0  0  0  0
  7  5  1  0  0  0  0
  8  9  1  0  0  0  0
  9 10  1  0  0  0  0
  9  4  1  0  0  0  0
 11 12  1  0  0  0  0
 13 15  1  0  0  0  0
 13  1  1  0  0  0  0
 14 20  1  0  0  0  0
 14 19  1  0  0  0  0
 15 14  2  0  0  0  0
 16 15  1  0  0  0  0
 16 17  2  0  0  0  0
 17 18  1  0  0  0  0
 18 22  1  0  0  0  0
 18 19  2  0  0  0  0
 21 16  1  0  0  0  0
M  END
>  <minimizedAffinity>
-3.73498821

$$$$

 OpenBabel03252503003D

 22 23  0  0  1  0  0  0  0  0999 V2000
   37.4370   29.7150   41.8560 C   0  0  0  0  0  0  0  0  0  0  0  0
   38.3660   29.5110   41.2960 H   0  0  0  0  0  0  0  0  0  0  0  0
   37.7390   30.2660   42.7920 H   0  0  0  0  0  0  0  0  0  0  0  0
   38.4810   27.0560   43.3590 C   0  0  1  0  0  3  0  0  0  0  0  0
   37.4440   28.1300   43.6790 C   0  0  0  0  0  3  0  0  0  0  0  0
   38.0280   28.9830   44.0860 H   0  0  0  0  0  0  0  0  0  0  0  0
   36.8700   28.4050   42.2980 C   0  0  2  0  0  3  0  0  0  0  0  0
   37.3260   27.3940   41.4660 O   0  0  0  0  0  0  0  0  0  0  0  0
   37.7160   26.3300   42.2450 C   0  0  0  0  0  3  0  0  0  0  0  0
   38.4550   25.6890   41.7470 H   0  0  0  0  0  0  0  0  0  0  0  0
   39.5890   27.6540   42.7870 O   0  0  0  0  0  0  0  0  0  0  0  0
   40.2310   27.9700   43.4550 H   0  0  0  0  0  0  0  0  0  0  0  0
   36.3150   30.7670   40.9430 S   0  0  0  0  0  0  0  0  0  0  0  0
   36.1350   29.4220   38.5400 C   0  0  0  0  0  0  0  0  0  0  0  0
   36.6260   30.5590   39.1730 C   0  0  0  0  0  0  0  0  0  0  0  0
   37.3380   31.5140   38.4790 C   0  0  0  0  0  0  0  0  0  0  0  0
   37.5310   31.2730   37.1370 N   0  0  0  0  0  0  0  0  0  0  0  0
   37.0470   30.1710   36.5580 C   0  0  0  0  0  0  0  0  0  0  0  0
   36.3610   29.2410   37.2020 N   0  0  0  0  0  0  0  0  0  0  0  0
   35.5700   28.6460   39.0390 H   0  0  0  0  0  0  0  0  0  0  0  0
   37.7290   32.4100   38.9700 H   0  0  0  0  0  0  0  0  0  0  0  0
   37.2220   30.0140   35.4830 H   0  0  0  0  0  0  0  0  0  0  0  0
  1  3  1  0  0  0  0
  2  1  1  0  0  0  0
  4 11  1  6  0  0  0
  4  5  1  0  0  0  0
  5  6  1  0  0  0  0
  7  1  1  6  0  0  0
  7  5  1  0  0  0  0
  8  9  1  0  0  0  0
  8  7  1  0  0  0  0
  9  4  1  0  0  0  0
 10  9  1  0  0  0  0
 11 12  1  0  0  0  0
 13  1  1  0  0  0  0
 14 20  1  0  0  0  0
 14 15  1  0  0  0  0
 15 13  1  0  0  0  0
 16 21  1  0  0  0  0
 16 15  2  0  0  0  0
 17 16  1  0  0  0  0
 18 17  2  0  0  0  0
 18 19  1  0  0  0  0
 19 14  2  0  0  0  0
 22 18  1  0  0  0  0
M  END
>  <minimizedAffinity>
-3.73104239

$$$$

 OpenBabel03252503003D

 22 23  0  0  1  0  0  0  0  0999 V2000
   36.3100   28.4640   41.3420 C   0  0  0  0  0  0  0  0  0  0  0  0
   36.6940   27.8920   40.4780 H   0  0  0  0  0  0  0  0  0  0  0  0
   35.4000   27.9150   41.7150 H   0  0  0  0  0  0  0  0  0  0  0  0
   37.0910   30.5420   38.9990 C   0  0  1  0  0  3  0  0  0  0  0  0
   35.8540   29.7060   39.3210 C   0  0  0  0  0  3  0  0  0  0  0  0
   36.0860   28.6880   38.9430 H   0  0  0  0  0  0  0  0  0  0  0  0
   35.8320   29.7880   40.8400 C   0  0  2  0  0  3  0  0  0  0  0  0
   36.7340   30.7780   41.2000 O   0  0  0  0  0  0  0  0  0  0  0  0
   36.9510   31.5890   40.1110 C   0  0  0  0  0  3  0  0  0  0  0  0
   37.9190   32.1050   40.1550 H   0  0  0  0  0  0  0  0  0  0  0  0
   38.2230   29.7940   39.2640 O   0  0  0  0  0  0  0  0  0  0  0  0
   38.4910   29.2380   38.5040 H   0  0  0  0  0  0  0  0  0  0  0  0
   37.4910   28.5350   42.6830 S   0  0  0  0  0  0  0  0  0  0  0  0
   37.8640   25.8760   42.0450 C   0  0  0  0  0  0  0  0  0  0  0  0
   38.3350   26.9400   42.8070 C   0  0  0  0  0  0  0  0  0  0  0  0
   39.4210   26.7950   43.6450 C   0  0  0  0  0  0  0  0  0  0  0  0
   40.0000   25.5460   43.6800 N   0  0  0  0  0  0  0  0  0  0  0  0
   39.5230   24.5440   42.9360 C   0  0  0  0  0  0  0  0  0  0  0  0
   38.4840   24.6590   42.1250 N   0  0  0  0  0  0  0  0  0  0  0  0
   37.0190   25.9390   41.3730 H   0  0  0  0  0  0  0  0  0  0  0  0
   39.7960   27.6260   44.2490 H   0  0  0  0  0  0  0  0  0  0  0  0
   40.0130   23.5610   42.9910 H   0  0  0  0  0  0  0  0  0  0  0  0
  1  3  1  0  0  0  0
  1 13  1  0  0  0  0
  2  1  1  0  0  0  0
  4 11  1  1  0  0  0
  4  5  1  0  0  0  0
  4  9  1  0  0  0  0
  5  7  1  0  0  0  0
  6  5  1  0  0  0  0
  7  8  1  0  0  0  0
  7  1  1  1  0  0  0
  9 10  1  0  0  0  0
  9  8  1  0  0  0  0
 12 11  1  0  0  0  0
 13 15  1  0  0  0  0
 14 19  2  0  0  0  0
 14 15  1  0  0  0  0
 15 16  2  0  0  0  0
 16 17  1  0  0  0  0
 16 21  1  0  0  0  0
 18 22  1  0  0  0  0
 18 17  2  0  0  0  0
 19 18  1  0  0  0  0
 20 14  1  0  0  0  0
M  END
>  <minimizedAffinity>
-3.72778606

$$$$
