
 OpenBabel03252509293D

 21 22  0  0  1  0  0  0  0  0999 V2000
   46.7780   34.9380   41.9630 C   0  0  0  0  0  0  0  0  0  0  0  0
   47.8650   35.1120   42.0840 H   0  0  0  0  0  0  0  0  0  0  0  0
   46.4110   35.7640   41.3210 H   0  0  0  0  0  0  0  0  0  0  0  0
   44.5020   35.9320   44.7210 C   0  0  0  0  0  0  0  0  0  0  0  0
   45.1700   35.9490   43.4810 C   0  0  0  0  0  0  0  0  0  0  0  0
   46.0820   34.9260   43.2450 C   0  0  0  0  0  0  0  0  0  0  0  0
   46.2850   33.9710   44.2020 N   0  0  0  0  0  0  0  0  0  0  0  0
   45.6030   34.0110   45.3870 C   0  0  0  0  0  0  0  0  0  0  0  0
   44.7220   34.9850   45.6370 N   0  0  0  0  0  0  0  0  0  0  0  0
   43.7990   36.7360   44.8800 H   0  0  0  0  0  0  0  0  0  0  0  0
   44.9640   36.7330   42.7690 H   0  0  0  0  0  0  0  0  0  0  0  0
   45.7440   33.2690   46.1610 H   0  0  0  0  0  0  0  0  0  0  0  0
   46.1370   33.1680   38.8800 C   0  0  2  0  0  3  0  0  0  0  0  0
   47.1920   33.6630   39.8360 C   0  0  0  0  0  3  0  0  0  0  0  0
   47.5540   34.6440   39.4820 H   0  0  0  0  0  0  0  0  0  0  0  0
   46.5180   33.6640   41.1600 C   0  0  2  0  0  3  0  0  0  0  0  0
   45.1830   33.4310   41.0060 O   0  0  0  0  0  0  0  0  0  0  0  0
   44.8730   33.3520   39.6750 C   0  0  0  0  0  3  0  0  0  0  0  0
   44.2290   32.4550   39.4930 H   0  0  0  0  0  0  0  0  0  0  0  0
   46.3220   31.8420   38.5050 O   0  0  0  0  0  0  0  0  0  0  0  0
   46.9970   31.7800   37.7960 H   0  0  0  0  0  0  0  0  0  0  0  0
  1  2  1  0  0  0  0
  1  6  1  0  0  0  0
  3  1  1  0  0  0  0
  4 10  1  0  0  0  0
  4  9  1  0  0  0  0
  5  4  2  0  0  0  0
  6  5  1  0  0  0  0
  6  7  2  0  0  0  0
  7  8  1  0  0  0  0
  8  9  2  0  0  0  0
  8 12  1  0  0  0  0
 11  5  1  0  0  0  0
 13 20  1  1  0  0  0
 13 18  1  0  0  0  0
 13 14  1  0  0  0  0
 14 16  1  0  0  0  0
 15 14  1  0  0  0  0
 16  1  1  6  0  0  0
 17 16  1  0  0  0  0
 18 17  1  0  0  0  0
 19 18  1  0  0  0  0
 21 20  1  0  0  0  0
M  END
>  <minimizedAffinity>
-3.73056555

>  <minimizedRMSD>
1.10453689

$$$$
