
 OpenBabel03252503003D

 22 23  0  0  1  0  0  0  0  0999 V2000
   43.1950   34.0300   40.2930 C   0  0  0  0  0  0  0  0  0  0  0  0
   43.6470   34.0790   39.2860 H   0  0  0  0  0  0  0  0  0  0  0  0
   43.6360   33.1270   40.8020 H   0  0  0  0  0  0  0  0  0  0  0  0
   40.8570   34.7750   38.1960 C   0  0  1  0  0  3  0  0  0  0  0  0
   41.5150   33.4730   38.6490 C   0  0  0  0  0  3  0  0  0  0  0  0
   42.4630   33.4120   38.0720 H   0  0  0  0  0  0  0  0  0  0  0  0
   41.7350   33.7550   40.1280 C   0  0  2  0  0  3  0  0  0  0  0  0
   41.0070   34.8960   40.4300 O   0  0  0  0  0  0  0  0  0  0  0  0
   40.0440   35.0690   39.4630 C   0  0  0  0  0  3  0  0  0  0  0  0
   39.7210   36.1150   39.3720 H   0  0  0  0  0  0  0  0  0  0  0  0
   41.8260   35.7540   38.0800 O   0  0  0  0  0  0  0  0  0  0  0  0
   42.2580   35.7520   37.2020 H   0  0  0  0  0  0  0  0  0  0  0  0
   43.5960   35.4650   41.2840 S   0  0  0  0  0  0  0  0  0  0  0  0
   44.2810   35.7860   43.9370 C   0  0  0  0  0  0  0  0  0  0  0  0
   44.3030   34.9140   42.8540 C   0  0  0  0  0  0  0  0  0  0  0  0
   44.8530   33.6540   42.9600 C   0  0  0  0  0  0  0  0  0  0  0  0
   45.3730   33.3180   44.1910 N   0  0  0  0  0  0  0  0  0  0  0  0
   45.3360   34.1790   45.2130 C   0  0  0  0  0  0  0  0  0  0  0  0
   44.8140   35.3920   45.1350 N   0  0  0  0  0  0  0  0  0  0  0  0
   43.8610   36.7820   43.9060 H   0  0  0  0  0  0  0  0  0  0  0  0
   44.8760   32.9630   42.1130 H   0  0  0  0  0  0  0  0  0  0  0  0
   45.7610   33.8740   46.1800 H   0  0  0  0  0  0  0  0  0  0  0  0
  1  3  1  0  0  0  0
  1 13  1  0  0  0  0
  2  1  1  0  0  0  0
  4 11  1  1  0  0  0
  4  5  1  0  0  0  0
  4  9  1  0  0  0  0
  5  7  1  0  0  0  0
  6  5  1  0  0  0  0
  7  1  1  6  0  0  0
  7  8  1  0  0  0  0
  9  8  1  0  0  0  0
 10  9  1  0  0  0  0
 12 11  1  0  0  0  0
 13 15  1  0  0  0  0
 14 19  1  0  0  0  0
 15 16  1  0  0  0  0
 15 14  2  0  0  0  0
 16 17  2  0  0  0  0
 17 18  1  0  0  0  0
 18 22  1  0  0  0  0
 19 18  2  0  0  0  0
 20 14  1  0  0  0  0
 21 16  1  0  0  0  0
M  END
>  <minimizedAffinity>
-3.85386157

>  <minimizedRMSD>
1.88864625

$$$$
