
 OpenBabel03252509303D

 21 22  0  0  1  0  0  0  0  0999 V2000
   46.4620   34.8970   41.8720 C   0  0  0  0  0  0  0  0  0  0  0  0
   47.4730   34.4470   41.8800 H   0  0  0  0  0  0  0  0  0  0  0  0
   46.5930   35.9250   41.4760 H   0  0  0  0  0  0  0  0  0  0  0  0
   44.5240   36.0580   44.8190 C   0  0  0  0  0  0  0  0  0  0  0  0
   45.0950   36.0360   43.5310 C   0  0  0  0  0  0  0  0  0  0  0  0
   45.8670   34.9260   43.2040 C   0  0  0  0  0  0  0  0  0  0  0  0
   46.0330   33.9290   44.1240 N   0  0  0  0  0  0  0  0  0  0  0  0
   45.4520   34.0100   45.3590 C   0  0  0  0  0  0  0  0  0  0  0  0
   44.7060   35.0680   45.6950 N   0  0  0  0  0  0  0  0  0  0  0  0
   43.9300   36.9300   45.0470 H   0  0  0  0  0  0  0  0  0  0  0  0
   44.9240   36.8580   42.8520 H   0  0  0  0  0  0  0  0  0  0  0  0
   45.5670   33.2360   46.1050 H   0  0  0  0  0  0  0  0  0  0  0  0
   43.3270   33.4190   40.8580 C   0  0  2  0  0  3  0  0  0  0  0  0
   44.1560   34.6760   40.8950 C   0  0  0  0  0  3  0  0  0  0  0  0
   43.8730   35.2590   41.7890 H   0  0  0  0  0  0  0  0  0  0  0  0
   45.5600   34.1920   40.8600 C   0  0  2  0  0  3  0  0  0  0  0  0
   45.5920   32.8380   41.0180 O   0  0  0  0  0  0  0  0  0  0  0  0
   44.3280   32.3630   41.2400 C   0  0  0  0  0  3  0  0  0  0  0  0
   44.1410   31.4730   40.5860 H   0  0  0  0  0  0  0  0  0  0  0  0
   42.7670   33.1730   39.6090 O   0  0  0  0  0  0  0  0  0  0  0  0
   41.9570   33.7150   39.4860 H   0  0  0  0  0  0  0  0  0  0  0  0
  1  2  1  0  0  0  0
  1  6  1  0  0  0  0
  3  1  1  0  0  0  0
  4 10  1  0  0  0  0
  4  9  1  0  0  0  0
  5  4  2  0  0  0  0
  6  5  1  0  0  0  0
  6  7  2  0  0  0  0
  7  8  1  0  0  0  0
  8  9  2  0  0  0  0
  8 12  1  0  0  0  0
 11  5  1  0  0  0  0
 13 20  1  6  0  0  0
 13 14  1  0  0  0  0
 13 18  1  0  0  0  0
 14 15  1  0  0  0  0
 16 14  1  0  0  0  0
 16 17  1  0  0  0  0
 16  1  1  1  0  0  0
 17 18  1  0  0  0  0
 19 18  1  0  0  0  0
 21 20  1  0  0  0  0
M  END
>  <minimizedAffinity>
-3.81812382

>  <minimizedRMSD>
0.785745323

$$$$
