
 OpenBabel03252503003D

 22 23  0  0  1  0  0  0  0  0999 V2000
   43.3120   34.0930   40.5920 C   0  0  0  0  0  0  0  0  0  0  0  0
   43.7250   34.0170   39.5700 H   0  0  0  0  0  0  0  0  0  0  0  0
   43.6200   33.1560   41.1360 H   0  0  0  0  0  0  0  0  0  0  0  0
   41.0740   34.5560   38.3130 C   0  0  1  0  0  3  0  0  0  0  0  0
   41.4990   33.3660   39.1710 C   0  0  0  0  0  3  0  0  0  0  0  0
   42.3960   32.9510   38.6650 H   0  0  0  0  0  0  0  0  0  0  0  0
   41.8210   34.0540   40.4880 C   0  0  2  0  0  3  0  0  0  0  0  0
   41.3260   35.3460   40.3960 O   0  0  0  0  0  0  0  0  0  0  0  0
   40.3770   35.3810   39.4020 C   0  0  0  0  0  3  0  0  0  0  0  0
   40.2470   36.3840   38.9760 H   0  0  0  0  0  0  0  0  0  0  0  0
   42.2010   35.2500   37.9150 O   0  0  0  0  0  0  0  0  0  0  0  0
   42.5920   34.8920   37.0920 H   0  0  0  0  0  0  0  0  0  0  0  0
   43.9810   35.4890   41.4880 S   0  0  0  0  0  0  0  0  0  0  0  0
   44.3070   35.7710   44.2130 C   0  0  0  0  0  0  0  0  0  0  0  0
   44.5170   34.9340   43.1230 C   0  0  0  0  0  0  0  0  0  0  0  0
   45.1220   33.7040   43.2720 C   0  0  0  0  0  0  0  0  0  0  0  0
   45.5020   33.3630   44.5510 N   0  0  0  0  0  0  0  0  0  0  0  0
   45.2860   34.1900   45.5780 C   0  0  0  0  0  0  0  0  0  0  0  0
   44.7080   35.3740   45.4600 N   0  0  0  0  0  0  0  0  0  0  0  0
   43.8360   36.7430   44.1500 H   0  0  0  0  0  0  0  0  0  0  0  0
   45.2920   33.0400   42.4200 H   0  0  0  0  0  0  0  0  0  0  0  0
   45.6040   33.8820   46.5850 H   0  0  0  0  0  0  0  0  0  0  0  0
  1  3  1  0  0  0  0
  1 13  1  0  0  0  0
  2  1  1  0  0  0  0
  4 11  1  1  0  0  0
  4  5  1  0  0  0  0
  4  9  1  0  0  0  0
  5  7  1  0  0  0  0
  6  5  1  0  0  0  0
  7  1  1  6  0  0  0
  8  7  1  0  0  0  0
  9  8  1  0  0  0  0
 10  9  1  0  0  0  0
 12 11  1  0  0  0  0
 13 15  1  0  0  0  0
 14 19  1  0  0  0  0
 15 16  1  0  0  0  0
 15 14  2  0  0  0  0
 16 17  2  0  0  0  0
 17 18  1  0  0  0  0
 18 22  1  0  0  0  0
 19 18  2  0  0  0  0
 20 14  1  0  0  0  0
 21 16  1  0  0  0  0
M  END
>  <minimizedAffinity>
-3.94574618

>  <minimizedRMSD>
1.30210328

$$$$
