
 OpenBabel03252509303D

 21 22  0  0  1  0  0  0  0  0999 V2000
   47.3480   34.0100   42.5060 C   0  0  0  0  0  0  0  0  0  0  0  0
   47.5560   32.9270   42.5910 H   0  0  0  0  0  0  0  0  0  0  0  0
   48.3260   34.5160   42.6410 H   0  0  0  0  0  0  0  0  0  0  0  0
   44.7090   36.0220   44.1720 C   0  0  0  0  0  0  0  0  0  0  0  0
   45.6350   35.5910   43.2010 C   0  0  0  0  0  0  0  0  0  0  0  0
   46.3870   34.4610   43.5070 C   0  0  0  0  0  0  0  0  0  0  0  0
   46.1990   33.8330   44.7060 N   0  0  0  0  0  0  0  0  0  0  0  0
   45.2830   34.3020   45.6070 C   0  0  0  0  0  0  0  0  0  0  0  0
   44.5490   35.3870   45.3350 N   0  0  0  0  0  0  0  0  0  0  0  0
   44.1390   36.9000   43.9100 H   0  0  0  0  0  0  0  0  0  0  0  0
   45.7340   36.1340   42.2730 H   0  0  0  0  0  0  0  0  0  0  0  0
   45.1150   33.8250   46.5630 H   0  0  0  0  0  0  0  0  0  0  0  0
   46.8500   33.2400   39.0120 C   0  0  2  0  0  3  0  0  0  0  0  0
   46.2330   33.2460   40.3860 C   0  0  0  0  0  3  0  0  0  0  0  0
   46.3690   32.2490   40.8390 H   0  0  0  0  0  0  0  0  0  0  0  0
   46.9060   34.3700   41.0880 C   0  0  2  0  0  3  0  0  0  0  0  0
   47.9470   34.8320   40.3390 O   0  0  0  0  0  0  0  0  0  0  0  0
   48.0940   34.0640   39.2160 C   0  0  0  0  0  3  0  0  0  0  0  0
   48.2080   34.7240   38.3200 H   0  0  0  0  0  0  0  0  0  0  0  0
   46.0220   33.7900   38.0410 O   0  0  0  0  0  0  0  0  0  0  0  0
   45.3570   33.1310   37.7470 H   0  0  0  0  0  0  0  0  0  0  0  0
  1  2  1  0  0  0  0
  1  3  1  0  0  0  0
  1  6  1  0  0  0  0
  4  9  1  0  0  0  0
  5  6  1  0  0  0  0
  5  4  2  0  0  0  0
  6  7  2  0  0  0  0
  7  8  1  0  0  0  0
  8 12  1  0  0  0  0
  9  8  2  0  0  0  0
 10  4  1  0  0  0  0
 11  5  1  0  0  0  0
 13 20  1  6  0  0  0
 13 18  1  0  0  0  0
 13 14  1  0  0  0  0
 14 15  1  0  0  0  0
 14 16  1  0  0  0  0
 16  1  1  1  0  0  0
 17 16  1  0  0  0  0
 18 17  1  0  0  0  0
 19 18  1  0  0  0  0
 21 20  1  0  0  0  0
M  END
>  <minimizedAffinity>
-4.14663744

>  <minimizedRMSD>
1.1254797

$$$$
