
 OpenBabel03252502593D

 22 23  0  0  1  0  0  0  0  0999 V2000
   42.8000   34.4410   40.2170 C   0  0  0  0  0  0  0  0  0  0  0  0
   43.6450   33.9350   39.7160 H   0  0  0  0  0  0  0  0  0  0  0  0
   42.1630   33.6320   40.6740 H   0  0  0  0  0  0  0  0  0  0  0  0
   39.6640   34.7610   39.5230 C   0  0  1  0  0  3  0  0  0  0  0  0
   40.7870   35.7330   39.8810 C   0  0  0  0  0  3  0  0  0  0  0  0
   40.8710   35.6820   40.9870 H   0  0  0  0  0  0  0  0  0  0  0  0
   41.9660   35.0950   39.1640 C   0  0  2  0  0  3  0  0  0  0  0  0
   41.4440   34.1300   38.3150 O   0  0  0  0  0  0  0  0  0  0  0  0
   40.1140   34.4100   38.1010 C   0  0  0  0  0  3  0  0  0  0  0  0
   39.5370   33.5200   37.8170 H   0  0  0  0  0  0  0  0  0  0  0  0
   39.7890   33.6220   40.2980 O   0  0  0  0  0  0  0  0  0  0  0  0
   39.3410   33.7070   41.1640 H   0  0  0  0  0  0  0  0  0  0  0  0
   43.3460   35.5160   41.5390 S   0  0  0  0  0  0  0  0  0  0  0  0
   45.0000   34.7710   43.6180 C   0  0  0  0  0  0  0  0  0  0  0  0
   44.8790   34.8560   42.2360 C   0  0  0  0  0  0  0  0  0  0  0  0
   45.9000   34.4510   41.4020 C   0  0  0  0  0  0  0  0  0  0  0  0
   47.0320   33.9660   42.0170 N   0  0  0  0  0  0  0  0  0  0  0  0
   47.1170   33.8970   43.3490 C   0  0  0  0  0  0  0  0  0  0  0  0
   46.1520   34.2790   44.1690 N   0  0  0  0  0  0  0  0  0  0  0  0
   44.2290   35.0730   44.3140 H   0  0  0  0  0  0  0  0  0  0  0  0
   45.8130   34.5170   40.3130 H   0  0  0  0  0  0  0  0  0  0  0  0
   48.0380   33.5030   43.8030 H   0  0  0  0  0  0  0  0  0  0  0  0
  1  3  1  0  0  0  0
  1 13  1  0  0  0  0
  2  1  1  0  0  0  0
  4  5  1  0  0  0  0
  4 11  1  1  0  0  0
  5  6  1  0  0  0  0
  7  5  1  0  0  0  0
  7  1  1  1  0  0  0
  8  7  1  0  0  0  0
  9  8  1  0  0  0  0
  9  4  1  0  0  0  0
 10  9  1  0  0  0  0
 11 12  1  0  0  0  0
 13 15  1  0  0  0  0
 14 19  1  0  0  0  0
 14 20  1  0  0  0  0
 15 14  2  0  0  0  0
 16 17  2  0  0  0  0
 16 15  1  0  0  0  0
 17 18  1  0  0  0  0
 18 22  1  0  0  0  0
 18 19  2  0  0  0  0
 21 16  1  0  0  0  0
M  END
>  <minimizedAffinity>
-3.74338746

>  <minimizedRMSD>
3.45639372

$$$$
