
 OpenBabel03252502593D

 22 23  0  0  1  0  0  0  0  0999 V2000
   43.2010   33.9610   40.6220 C   0  0  0  0  0  0  0  0  0  0  0  0
   43.5950   33.8170   39.6000 H   0  0  0  0  0  0  0  0  0  0  0  0
   43.4820   33.0420   41.2100 H   0  0  0  0  0  0  0  0  0  0  0  0
   40.9470   34.4430   38.3640 C   0  0  1  0  0  3  0  0  0  0  0  0
   41.3420   33.2630   39.2500 C   0  0  0  0  0  3  0  0  0  0  0  0
   42.2140   32.8000   38.7430 H   0  0  0  0  0  0  0  0  0  0  0  0
   41.7090   33.9750   40.5420 C   0  0  2  0  0  3  0  0  0  0  0  0
   41.2610   35.2830   40.4190 O   0  0  0  0  0  0  0  0  0  0  0  0
   40.2980   35.3240   39.4380 C   0  0  0  0  0  3  0  0  0  0  0  0
   40.2000   36.3200   38.9860 H   0  0  0  0  0  0  0  0  0  0  0  0
   42.0920   35.0840   37.9300 O   0  0  0  0  0  0  0  0  0  0  0  0
   42.4560   34.6870   37.1120 H   0  0  0  0  0  0  0  0  0  0  0  0
   43.9380   35.3750   41.4350 S   0  0  0  0  0  0  0  0  0  0  0  0
   44.2950   35.7610   44.1440 C   0  0  0  0  0  0  0  0  0  0  0  0
   44.4890   34.8810   43.0850 C   0  0  0  0  0  0  0  0  0  0  0  0
   45.0900   33.6540   43.2750 C   0  0  0  0  0  0  0  0  0  0  0  0
   45.4810   33.3610   44.5630 N   0  0  0  0  0  0  0  0  0  0  0  0
   45.2800   34.2290   45.5590 C   0  0  0  0  0  0  0  0  0  0  0  0
   44.7060   35.4100   45.4010 N   0  0  0  0  0  0  0  0  0  0  0  0
   43.8270   36.7310   44.0480 H   0  0  0  0  0  0  0  0  0  0  0  0
   45.2480   32.9560   42.4480 H   0  0  0  0  0  0  0  0  0  0  0  0
   45.6070   33.9580   46.5740 H   0  0  0  0  0  0  0  0  0  0  0  0
  1  3  1  0  0  0  0
  1 13  1  0  0  0  0
  2  1  1  0  0  0  0
  4 11  1  1  0  0  0
  4  5  1  0  0  0  0
  4  9  1  0  0  0  0
  5  7  1  0  0  0  0
  6  5  1  0  0  0  0
  7  1  1  6  0  0  0
  8  7  1  0  0  0  0
  9  8  1  0  0  0  0
 10  9  1  0  0  0  0
 12 11  1  0  0  0  0
 13 15  1  0  0  0  0
 14 19  1  0  0  0  0
 15 16  1  0  0  0  0
 15 14  2  0  0  0  0
 16 17  2  0  0  0  0
 17 18  1  0  0  0  0
 18 22  1  0  0  0  0
 19 18  2  0  0  0  0
 20 14  1  0  0  0  0
 21 16  1  0  0  0  0
M  END
>  <minimizedAffinity>
-3.93939519

>  <minimizedRMSD>
1.41371715

$$$$
