
 OpenBabel03252503003D

 22 23  0  0  1  0  0  0  0  0999 V2000
   43.3150   34.1750   40.5180 C   0  0  0  0  0  0  0  0  0  0  0  0
   43.3910   34.3970   39.4380 H   0  0  0  0  0  0  0  0  0  0  0  0
   44.0330   33.3320   40.7270 H   0  0  0  0  0  0  0  0  0  0  0  0
   40.3260   34.6460   39.3980 C   0  0  1  0  0  3  0  0  0  0  0  0
   41.2850   33.4590   39.4240 C   0  0  0  0  0  3  0  0  0  0  0  0
   41.9810   33.6300   38.5750 H   0  0  0  0  0  0  0  0  0  0  0  0
   41.9440   33.6420   40.7820 C   0  0  2  0  0  3  0  0  0  0  0  0
   41.1970   34.5920   41.4630 O   0  0  0  0  0  0  0  0  0  0  0  0
   39.9510   34.6650   40.8850 C   0  0  0  0  0  3  0  0  0  0  0  0
   39.4640   35.6340   41.0550 H   0  0  0  0  0  0  0  0  0  0  0  0
   41.0400   35.7980   39.1270 O   0  0  0  0  0  0  0  0  0  0  0  0
   41.1460   35.9580   38.1680 H   0  0  0  0  0  0  0  0  0  0  0  0
   43.8020   35.5690   41.5290 S   0  0  0  0  0  0  0  0  0  0  0  0
   44.2900   35.7560   44.2380 C   0  0  0  0  0  0  0  0  0  0  0  0
   44.4300   34.9550   43.1100 C   0  0  0  0  0  0  0  0  0  0  0  0
   45.0350   33.7180   43.1810 C   0  0  0  0  0  0  0  0  0  0  0  0
   45.4860   33.3320   44.4230 N   0  0  0  0  0  0  0  0  0  0  0  0
   45.3370   34.1240   45.4880 C   0  0  0  0  0  0  0  0  0  0  0  0
   44.7600   35.3140   45.4450 N   0  0  0  0  0  0  0  0  0  0  0  0
   43.8210   36.7310   44.2350 H   0  0  0  0  0  0  0  0  0  0  0  0
   45.1510   33.0830   42.2980 H   0  0  0  0  0  0  0  0  0  0  0  0
   45.7110   33.7800   46.4640 H   0  0  0  0  0  0  0  0  0  0  0  0
  1  3  1  0  0  0  0
  1 13  1  0  0  0  0
  2  1  1  0  0  0  0
  4 11  1  1  0  0  0
  4  5  1  0  0  0  0
  4  9  1  0  0  0  0
  5  7  1  0  0  0  0
  6  5  1  0  0  0  0
  7  1  1  6  0  0  0
  7  8  1  0  0  0  0
  9 10  1  0  0  0  0
  9  8  1  0  0  0  0
 12 11  1  0  0  0  0
 13 15  1  0  0  0  0
 14 19  1  0  0  0  0
 15 16  1  0  0  0  0
 15 14  2  0  0  0  0
 16 17  2  0  0  0  0
 17 18  1  0  0  0  0
 18 22  1  0  0  0  0
 19 18  2  0  0  0  0
 20 14  1  0  0  0  0
 21 16  1  0  0  0  0
M  END
>  <minimizedAffinity>
-3.84097362

>  <minimizedRMSD>
1.03370428

$$$$
