
 OpenBabel03252503003D

 22 23  0  0  1  0  0  0  0  0999 V2000
   43.3130   34.1740   40.5180 C   0  0  0  0  0  0  0  0  0  0  0  0
   43.3900   34.3940   39.4380 H   0  0  0  0  0  0  0  0  0  0  0  0
   44.0300   33.3300   40.7270 H   0  0  0  0  0  0  0  0  0  0  0  0
   40.3250   34.6460   39.3960 C   0  0  1  0  0  3  0  0  0  0  0  0
   41.2840   33.4580   39.4220 C   0  0  0  0  0  3  0  0  0  0  0  0
   41.9790   33.6300   38.5740 H   0  0  0  0  0  0  0  0  0  0  0  0
   41.9420   33.6410   40.7810 C   0  0  2  0  0  3  0  0  0  0  0  0
   41.1950   34.5920   41.4620 O   0  0  0  0  0  0  0  0  0  0  0  0
   39.9500   34.6660   40.8830 C   0  0  0  0  0  3  0  0  0  0  0  0
   39.4620   35.6350   41.0540 H   0  0  0  0  0  0  0  0  0  0  0  0
   41.0400   35.7980   39.1270 O   0  0  0  0  0  0  0  0  0  0  0  0
   41.1470   35.9570   38.1670 H   0  0  0  0  0  0  0  0  0  0  0  0
   43.8010   35.5670   41.5280 S   0  0  0  0  0  0  0  0  0  0  0  0
   44.2890   35.7550   44.2370 C   0  0  0  0  0  0  0  0  0  0  0  0
   44.4290   34.9550   43.1090 C   0  0  0  0  0  0  0  0  0  0  0  0
   45.0340   33.7170   43.1800 C   0  0  0  0  0  0  0  0  0  0  0  0
   45.4860   33.3320   44.4230 N   0  0  0  0  0  0  0  0  0  0  0  0
   45.3370   34.1250   45.4880 C   0  0  0  0  0  0  0  0  0  0  0  0
   44.7600   35.3150   45.4440 N   0  0  0  0  0  0  0  0  0  0  0  0
   43.8210   36.7310   44.2340 H   0  0  0  0  0  0  0  0  0  0  0  0
   45.1490   33.0820   42.2970 H   0  0  0  0  0  0  0  0  0  0  0  0
   45.7110   33.7810   46.4630 H   0  0  0  0  0  0  0  0  0  0  0  0
  1  3  1  0  0  0  0
  1 13  1  0  0  0  0
  2  1  1  0  0  0  0
  4 11  1  1  0  0  0
  4  5  1  0  0  0  0
  4  9  1  0  0  0  0
  5  7  1  0  0  0  0
  6  5  1  0  0  0  0
  7  1  1  6  0  0  0
  7  8  1  0  0  0  0
  9 10  1  0  0  0  0
  9  8  1  0  0  0  0
 12 11  1  0  0  0  0
 13 15  1  0  0  0  0
 14 19  1  0  0  0  0
 15 16  1  0  0  0  0
 15 14  2  0  0  0  0
 16 17  2  0  0  0  0
 17 18  1  0  0  0  0
 18 22  1  0  0  0  0
 19 18  2  0  0  0  0
 20 14  1  0  0  0  0
 21 16  1  0  0  0  0
M  END
>  <minimizedAffinity>
-3.84110832

>  <minimizedRMSD>
0.905881107

$$$$
