
 OpenBabel03252509303D

 21 22  0  0  1  0  0  0  0  0999 V2000
   46.7720   34.8330   41.9280 C   0  0  0  0  0  0  0  0  0  0  0  0
   47.8600   34.9900   42.0520 H   0  0  0  0  0  0  0  0  0  0  0  0
   46.4300   35.6290   41.2360 H   0  0  0  0  0  0  0  0  0  0  0  0
   44.5050   36.0420   44.6070 C   0  0  0  0  0  0  0  0  0  0  0  0
   45.1880   35.9750   43.3770 C   0  0  0  0  0  0  0  0  0  0  0  0
   46.0610   34.9070   43.2000 C   0  0  0  0  0  0  0  0  0  0  0  0
   46.2150   33.9910   44.2020 N   0  0  0  0  0  0  0  0  0  0  0  0
   45.5220   34.1130   45.3750 C   0  0  0  0  0  0  0  0  0  0  0  0
   44.6780   35.1320   45.5680 N   0  0  0  0  0  0  0  0  0  0  0  0
   43.8340   36.8800   44.7190 H   0  0  0  0  0  0  0  0  0  0  0  0
   45.0210   36.7330   42.6260 H   0  0  0  0  0  0  0  0  0  0  0  0
   45.6250   33.4030   46.1840 H   0  0  0  0  0  0  0  0  0  0  0  0
   47.5540   32.3080   39.4650 C   0  0  2  0  0  3  0  0  0  0  0  0
   47.7250   32.7460   40.8970 C   0  0  0  0  0  3  0  0  0  0  0  0
   48.6740   33.3040   40.9830 H   0  0  0  0  0  0  0  0  0  0  0  0
   46.4920   33.5210   41.1940 C   0  0  2  0  0  3  0  0  0  0  0  0
   45.7820   33.7290   40.0480 O   0  0  0  0  0  0  0  0  0  0  0  0
   46.4690   33.2280   38.9750 C   0  0  0  0  0  3  0  0  0  0  0  0
   45.7790   32.6200   38.3370 H   0  0  0  0  0  0  0  0  0  0  0  0
   47.1900   30.9710   39.3460 O   0  0  0  0  0  0  0  0  0  0  0  0
   47.9810   30.3950   39.4310 H   0  0  0  0  0  0  0  0  0  0  0  0
  1  2  1  0  0  0  0
  1  6  1  0  0  0  0
  3  1  1  0  0  0  0
  4 10  1  0  0  0  0
  4  9  1  0  0  0  0
  5  4  2  0  0  0  0
  6  5  1  0  0  0  0
  6  7  2  0  0  0  0
  7  8  1  0  0  0  0
  8  9  2  0  0  0  0
  8 12  1  0  0  0  0
 11  5  1  0  0  0  0
 13 20  1  1  0  0  0
 13 14  1  0  0  0  0
 14 15  1  0  0  0  0
 14 16  1  0  0  0  0
 16  1  1  6  0  0  0
 17 16  1  0  0  0  0
 18 13  1  0  0  0  0
 18 17  1  0  0  0  0
 19 18  1  0  0  0  0
 20 21  1  0  0  0  0
M  END
>  <minimizedAffinity>
-3.61463165

>  <minimizedRMSD>
0.886153519

$$$$
