
 OpenBabel03252509303D

 21 22  0  0  1  0  0  0  0  0999 V2000
   46.9950   34.9950   41.8790 C   0  0  0  0  0  0  0  0  0  0  0  0
   48.0550   34.7300   42.0580 H   0  0  0  0  0  0  0  0  0  0  0  0
   47.0100   36.0070   41.4250 H   0  0  0  0  0  0  0  0  0  0  0  0
   44.5910   36.0390   44.5080 C   0  0  0  0  0  0  0  0  0  0  0  0
   45.3390   36.0500   43.3140 C   0  0  0  0  0  0  0  0  0  0  0  0
   46.2170   34.9900   43.1140 C   0  0  0  0  0  0  0  0  0  0  0  0
   46.3130   34.0080   44.0590 N   0  0  0  0  0  0  0  0  0  0  0  0
   45.5580   34.0560   45.1990 C   0  0  0  0  0  0  0  0  0  0  0  0
   44.7080   35.0660   45.4140 N   0  0  0  0  0  0  0  0  0  0  0  0
   43.9180   36.8730   44.6400 H   0  0  0  0  0  0  0  0  0  0  0  0
   45.2160   36.8570   42.6080 H   0  0  0  0  0  0  0  0  0  0  0  0
   45.6150   33.2930   45.9630 H   0  0  0  0  0  0  0  0  0  0  0  0
   44.4740   32.6970   40.6940 C   0  0  2  0  0  3  0  0  0  0  0  0
   44.8960   34.1400   40.7940 C   0  0  0  0  0  3  0  0  0  0  0  0
   44.4200   34.5850   41.6860 H   0  0  0  0  0  0  0  0  0  0  0  0
   46.3800   34.0900   40.8130 C   0  0  2  0  0  3  0  0  0  0  0  0
   46.8020   32.7990   40.9450 O   0  0  0  0  0  0  0  0  0  0  0  0
   45.7260   31.9680   41.0990 C   0  0  0  0  0  3  0  0  0  0  0  0
   45.8330   31.0850   40.4210 H   0  0  0  0  0  0  0  0  0  0  0  0
   44.0590   32.3390   39.4160 O   0  0  0  0  0  0  0  0  0  0  0  0
   43.1310   32.6230   39.2680 H   0  0  0  0  0  0  0  0  0  0  0  0
  1  2  1  0  0  0  0
  1  6  1  0  0  0  0
  3  1  1  0  0  0  0
  4 10  1  0  0  0  0
  4  9  1  0  0  0  0
  5  4  2  0  0  0  0
  6  5  1  0  0  0  0
  6  7  2  0  0  0  0
  7  8  1  0  0  0  0
  8  9  2  0  0  0  0
  8 12  1  0  0  0  0
 11  5  1  0  0  0  0
 13 20  1  6  0  0  0
 13 14  1  0  0  0  0
 13 18  1  0  0  0  0
 14 16  1  0  0  0  0
 14 15  1  0  0  0  0
 16 17  1  0  0  0  0
 16  1  1  1  0  0  0
 17 18  1  0  0  0  0
 19 18  1  0  0  0  0
 21 20  1  0  0  0  0
M  END
>  <minimizedAffinity>
-3.65645766

>  <minimizedRMSD>
0.200215012

$$$$
