
 OpenBabel03242512153D

 21 22  0  0  1  0  0  0  0  0999 V2000
   45.7110   34.0860   43.1400 C   0  0  0  0  0  0  0  0  0  0  0  0
   45.0760   34.9620   43.3300 H   0  0  0  0  0  0  0  0  0  0  0  0
   45.0530   33.2050   42.9400 H   0  0  0  0  0  0  0  0  0  0  0  0
   46.5770   34.2560   41.9370 C   0  0  0  0  0  0  0  0  0  0  0  0
   47.6850   35.1170   42.1020 C   0  0  0  0  0  0  0  0  0  0  0  0
   48.5260   35.2980   40.9770 C   0  0  0  0  0  0  0  0  0  0  0  0
   48.2140   34.6430   39.8390 N   0  0  0  0  0  0  0  0  0  0  0  0
   47.1330   33.8250   39.7350 C   0  0  0  0  0  0  0  0  0  0  0  0
   46.3230   33.6390   40.7900 N   0  0  0  0  0  0  0  0  0  0  0  0
   47.9550   35.6450   42.9840 H   0  0  0  0  0  0  0  0  0  0  0  0
   49.4030   35.9400   41.0000 H   0  0  0  0  0  0  0  0  0  0  0  0
   46.8900   33.3040   38.8210 H   0  0  0  0  0  0  0  0  0  0  0  0
   46.0350   32.9270   46.5090 C   0  0  2  0  0  0  0  0  0  0  0  0
   45.5470   34.0010   45.5580 C   0  0  0  0  0  0  0  0  0  0  0  0
   45.5690   34.9950   46.0270 H   0  0  0  0  0  0  0  0  0  0  0  0
   46.5060   33.8350   44.4000 C   0  0  1  0  0  0  0  0  0  0  0  0
   47.0070   32.5510   44.4310 O   0  0  0  0  0  0  0  0  0  0  0  0
   46.4640   31.8760   45.4960 C   0  0  0  0  0  0  0  0  0  0  0  0
   45.5250   31.3790   45.1770 H   0  0  0  0  0  0  0  0  0  0  0  0
   44.9990   32.4570   47.3160 O   0  0  0  0  0  0  0  0  0  0  0  0
   45.2270   32.7270   48.2410 H   0  0  0  0  0  0  0  0  0  0  0  0
  1  2  1  0  0  0  0
  3  1  1  0  0  0  0
  4  5  1  0  0  0  0
  4  1  1  0  0  0  0
  5 10  1  0  0  0  0
  6 11  1  0  0  0  0
  6  5  2  0  0  0  0
  7  6  1  0  0  0  0
  8  7  2  0  0  0  0
  8  9  1  0  0  0  0
  9  4  2  0  0  0  0
 12  8  1  0  0  0  0
 13 20  1  1  0  0  0
 14 15  1  0  0  0  0
 14 13  1  0  0  0  0
 16  1  1  6  0  0  0
 16 17  1  0  0  0  0
 16 14  1  0  0  0  0
 17 18  1  0  0  0  0
 18 13  1  0  0  0  0
 19 18  1  0  0  0  0
 20 21  1  0  0  0  0
M  END
>  <minimizedAffinity>
-3.84473968

>  <minimizedRMSD>
5.87771273

$$$$
