
 OpenBabel03252503003D

 22 23  0  0  1  0  0  0  0  0999 V2000
   43.1730   34.0730   40.6050 C   0  0  0  0  0  0  0  0  0  0  0  0
   43.5860   34.0230   39.5820 H   0  0  0  0  0  0  0  0  0  0  0  0
   43.5180   33.1430   41.1390 H   0  0  0  0  0  0  0  0  0  0  0  0
   40.9170   34.4200   38.3250 C   0  0  1  0  0  3  0  0  0  0  0  0
   41.3850   33.2590   39.2010 C   0  0  0  0  0  3  0  0  0  0  0  0
   42.2950   32.8680   38.7000 H   0  0  0  0  0  0  0  0  0  0  0  0
   41.6850   33.9800   40.5060 C   0  0  2  0  0  3  0  0  0  0  0  0
   41.1450   35.2530   40.3940 O   0  0  0  0  0  0  0  0  0  0  0  0
   40.1930   35.2370   39.4000 C   0  0  0  0  0  3  0  0  0  0  0  0
   40.0280   36.2290   38.9590 H   0  0  0  0  0  0  0  0  0  0  0  0
   42.0170   35.1460   37.9120 O   0  0  0  0  0  0  0  0  0  0  0  0
   42.4190   34.7870   37.0950 H   0  0  0  0  0  0  0  0  0  0  0  0
   43.7940   35.4840   41.5140 S   0  0  0  0  0  0  0  0  0  0  0  0
   44.2630   35.7500   44.2200 C   0  0  0  0  0  0  0  0  0  0  0  0
   44.4200   34.9220   43.1140 C   0  0  0  0  0  0  0  0  0  0  0  0
   45.0410   33.6950   43.2210 C   0  0  0  0  0  0  0  0  0  0  0  0
   45.4910   33.3480   44.4760 N   0  0  0  0  0  0  0  0  0  0  0  0
   45.3250   34.1670   45.5190 C   0  0  0  0  0  0  0  0  0  0  0  0
   44.7320   35.3470   45.4410 N   0  0  0  0  0  0  0  0  0  0  0  0
   43.7820   36.7180   44.1890 H   0  0  0  0  0  0  0  0  0  0  0  0
   45.1710   33.0380   42.3560 H   0  0  0  0  0  0  0  0  0  0  0  0
   45.6980   33.8540   46.5050 H   0  0  0  0  0  0  0  0  0  0  0  0
  1  3  1  0  0  0  0
  1 13  1  0  0  0  0
  2  1  1  0  0  0  0
  4 11  1  1  0  0  0
  4  5  1  0  0  0  0
  4  9  1  0  0  0  0
  5  7  1  0  0  0  0
  6  5  1  0  0  0  0
  7  1  1  6  0  0  0
  8  7  1  0  0  0  0
  9  8  1  0  0  0  0
 10  9  1  0  0  0  0
 12 11  1  0  0  0  0
 13 15  1  0  0  0  0
 14 19  1  0  0  0  0
 15 16  1  0  0  0  0
 15 14  2  0  0  0  0
 16 17  2  0  0  0  0
 17 18  1  0  0  0  0
 18 22  1  0  0  0  0
 19 18  2  0  0  0  0
 20 14  1  0  0  0  0
 21 16  1  0  0  0  0
M  END
>  <minimizedAffinity>
-3.94665337

>  <minimizedRMSD>
2.09251952

$$$$
