
 OpenBabel03252509303D

 21 22  0  0  1  0  0  0  0  0999 V2000
   46.3510   34.8680   41.8700 C   0  0  0  0  0  0  0  0  0  0  0  0
   47.3520   34.3960   41.8430 H   0  0  0  0  0  0  0  0  0  0  0  0
   46.4910   35.8940   41.4730 H   0  0  0  0  0  0  0  0  0  0  0  0
   44.5120   36.0420   44.8740 C   0  0  0  0  0  0  0  0  0  0  0  0
   45.0410   36.0140   43.5680 C   0  0  0  0  0  0  0  0  0  0  0  0
   45.8010   34.9020   43.2210 C   0  0  0  0  0  0  0  0  0  0  0  0
   45.9970   33.9090   44.1390 N   0  0  0  0  0  0  0  0  0  0  0  0
   45.4570   33.9960   45.3920 C   0  0  0  0  0  0  0  0  0  0  0  0
   44.7230   35.0560   45.7480 N   0  0  0  0  0  0  0  0  0  0  0  0
   43.9270   36.9160   45.1180 H   0  0  0  0  0  0  0  0  0  0  0  0
   44.8480   36.8330   42.8910 H   0  0  0  0  0  0  0  0  0  0  0  0
   45.5960   33.2250   46.1370 H   0  0  0  0  0  0  0  0  0  0  0  0
   43.1080   33.6190   40.8880 C   0  0  2  0  0  3  0  0  0  0  0  0
   44.0480   34.7960   40.8650 C   0  0  0  0  0  3  0  0  0  0  0  0
   43.8070   35.4550   41.7180 H   0  0  0  0  0  0  0  0  0  0  0  0
   45.4030   34.1860   40.8850 C   0  0  2  0  0  3  0  0  0  0  0  0
   45.3090   32.8460   41.1230 O   0  0  0  0  0  0  0  0  0  0  0  0
   44.0050   32.5010   41.3490 C   0  0  0  0  0  3  0  0  0  0  0  0
   43.7450   31.5940   40.7470 H   0  0  0  0  0  0  0  0  0  0  0  0
   42.5450   33.3480   39.6450 O   0  0  0  0  0  0  0  0  0  0  0  0
   41.7890   33.9510   39.4760 H   0  0  0  0  0  0  0  0  0  0  0  0
  1  6  1  0  0  0  0
  2  1  1  0  0  0  0
  3  1  1  0  0  0  0
  4 10  1  0  0  0  0
  4  9  1  0  0  0  0
  5  4  2  0  0  0  0
  6  5  1  0  0  0  0
  6  7  2  0  0  0  0
  7  8  1  0  0  0  0
  8  9  2  0  0  0  0
  8 12  1  0  0  0  0
 11  5  1  0  0  0  0
 13 20  1  6  0  0  0
 13 18  1  0  0  0  0
 14 16  1  0  0  0  0
 14 13  1  0  0  0  0
 14 15  1  0  0  0  0
 16 17  1  0  0  0  0
 16  1  1  1  0  0  0
 17 18  1  0  0  0  0
 19 18  1  0  0  0  0
 21 20  1  0  0  0  0
M  END
>  <minimizedAffinity>
-3.81754279

>  <minimizedRMSD>
1.03517473

$$$$
