
 OpenBabel03252503003D

 22 23  0  0  1  0  0  0  0  0999 V2000
   43.2240   33.9880   40.3530 C   0  0  0  0  0  0  0  0  0  0  0  0
   43.7060   33.9760   39.3590 H   0  0  0  0  0  0  0  0  0  0  0  0
   43.6010   33.0810   40.9050 H   0  0  0  0  0  0  0  0  0  0  0  0
   40.9790   34.8330   38.1940 C   0  0  1  0  0  3  0  0  0  0  0  0
   41.5590   33.5040   38.6730 C   0  0  0  0  0  3  0  0  0  0  0  0
   42.5140   33.3880   38.1190 H   0  0  0  0  0  0  0  0  0  0  0  0
   41.7570   33.7860   40.1540 C   0  0  2  0  0  3  0  0  0  0  0  0
   41.0820   34.9660   40.4290 O   0  0  0  0  0  0  0  0  0  0  0  0
   40.1530   35.1800   39.4380 C   0  0  0  0  0  3  0  0  0  0  0  0
   39.8870   36.2400   39.3310 H   0  0  0  0  0  0  0  0  0  0  0  0
   42.0000   35.7600   38.0940 O   0  0  0  0  0  0  0  0  0  0  0  0
   42.4520   35.7280   37.2260 H   0  0  0  0  0  0  0  0  0  0  0  0
   43.6770   35.4330   41.3050 S   0  0  0  0  0  0  0  0  0  0  0  0
   44.2950   35.7790   43.9720 C   0  0  0  0  0  0  0  0  0  0  0  0
   44.3510   34.9000   42.8960 C   0  0  0  0  0  0  0  0  0  0  0  0
   44.9070   33.6450   43.0260 C   0  0  0  0  0  0  0  0  0  0  0  0
   45.3990   33.3230   44.2710 N   0  0  0  0  0  0  0  0  0  0  0  0
   45.3310   34.1900   45.2850 C   0  0  0  0  0  0  0  0  0  0  0  0
   44.8020   35.3990   45.1850 N   0  0  0  0  0  0  0  0  0  0  0  0
   43.8670   36.7710   43.9230 H   0  0  0  0  0  0  0  0  0  0  0  0
   44.9570   32.9480   42.1840 H   0  0  0  0  0  0  0  0  0  0  0  0
   45.7350   33.8960   46.2650 H   0  0  0  0  0  0  0  0  0  0  0  0
  1  3  1  0  0  0  0
  1 13  1  0  0  0  0
  2  1  1  0  0  0  0
  4 11  1  1  0  0  0
  4  5  1  0  0  0  0
  4  9  1  0  0  0  0
  5  7  1  0  0  0  0
  6  5  1  0  0  0  0
  7  1  1  6  0  0  0
  7  8  1  0  0  0  0
  9  8  1  0  0  0  0
 10  9  1  0  0  0  0
 12 11  1  0  0  0  0
 13 15  1  0  0  0  0
 14 19  1  0  0  0  0
 15 16  1  0  0  0  0
 15 14  2  0  0  0  0
 16 17  2  0  0  0  0
 17 18  1  0  0  0  0
 18 22  1  0  0  0  0
 19 18  2  0  0  0  0
 20 14  1  0  0  0  0
 21 16  1  0  0  0  0
M  END
>  <minimizedAffinity>
-3.85362101

>  <minimizedRMSD>
2.14221907

$$$$
