
 OpenBabel03252507453D

 37 39  0  0  1  0  0  0  0  0999 V2000
   47.2010   34.4360   40.8500 C   0  0  0  0  0  0  0  0  0  0  0  0
   46.5980   33.6120   40.4160 H   0  0  0  0  0  0  0  0  0  0  0  0
   47.3160   35.1890   40.0250 H   0  0  0  0  0  0  0  0  0  0  0  0
   48.5280   33.9550   41.2860 C   0  0  0  0  0  0  0  0  0  0  0  0
   48.9610   32.7590   40.7510 C   0  0  0  0  0  0  0  0  0  0  0  0
   50.2020   32.2550   41.1250 C   0  0  0  0  0  0  0  0  0  0  0  0
   50.9530   32.9700   42.0150 N   0  0  0  0  0  0  0  0  0  0  0  0
   50.4940   34.1320   42.5160 C   0  0  0  0  0  0  0  0  0  0  0  0
   49.3140   34.5960   42.1500 N   0  0  0  0  0  0  0  0  0  0  0  0
   50.5930   31.3440   40.7550 H   0  0  0  0  0  0  0  0  0  0  0  0
   51.0450   34.7380   43.2220 H   0  0  0  0  0  0  0  0  0  0  0  0
   47.9400   31.8680   39.5830 S   0  0  0  0  0  0  0  0  0  0  0  0
   47.8240   29.3380   40.5100 C   0  0  2  0  0  3  0  0  0  0  0  0
   48.4410   30.1720   39.3740 C   0  0  1  0  0  3  0  0  0  0  0  0
   47.7440   29.5260   38.1910 C   0  0  0  0  0  3  0  0  0  0  0  0
   48.3310   29.5300   37.2720 H   0  0  0  0  0  0  0  0  0  0  0  0
   47.5630   28.1780   38.5230 O   0  0  0  0  0  0  0  0  0  0  0  0
   47.2680   28.1090   39.8700 C   0  0  0  0  0  3  0  0  0  0  0  0
   47.7640   27.1700   40.2380 H   0  0  0  0  0  0  0  0  0  0  0  0
   46.7990   30.0210   41.1510 O   0  0  0  0  0  0  0  0  0  0  0  0
   46.1980   30.3420   40.4520 H   0  0  0  0  0  0  0  0  0  0  0  0
   46.3710   34.9950   41.9710 C   0  0  0  0  0  0  0  0  0  0  0  0
   46.6380   36.0760   42.0560 H   0  0  0  0  0  0  0  0  0  0  0  0
   46.6580   34.5340   42.9400 H   0  0  0  0  0  0  0  0  0  0  0  0
   44.9130   34.9470   41.7350 C   0  0  0  0  0  0  0  0  0  0  0  0
   44.0190   35.4570   42.7260 C   0  0  0  0  0  0  0  0  0  0  0  0
   42.3670   35.1720   41.9680 S   0  0  0  0  0  0  0  0  0  0  0  0
   43.1750   34.4060   40.4310 C   0  0  0  0  0  0  0  0  0  0  0  0
   44.2860   34.4800   40.6920 N   0  0  0  0  0  0  0  0  0  0  0  0
   44.2560   35.8990   43.6800 H   0  0  0  0  0  0  0  0  0  0  0  0
   42.4420   33.9240   39.3480 O   0  0  0  0  0  0  0  0  0  0  0  0
   40.4660   34.3430   37.6310 O   0  0  0  0  0  0  0  0  0  0  0  0
   41.5440   35.0420   38.4490 P   0  0  0  0  0  0  0  0  0  0  0  0
   40.7980   36.1000   39.5400 O   0  0  0  0  0  0  0  0  0  0  0  0
   39.8740   35.8240   39.7680 H   0  0  0  0  0  0  0  0  0  0  0  0
   42.5820   35.9360   37.4460 O   0  0  0  0  0  0  0  0  0  0  0  0
   42.3300   36.9000   37.4450 H   0  0  0  0  0  0  0  0  0  0  0  0
  1  4  1  0  0  0  0
  1 22  1  0  0  0  0
  2  1  1  0  0  0  0
  3  1  1  0  0  0  0
  4  9  1  0  0  0  0
  5  6  1  0  0  0  0
  5  4  2  0  0  0  0
  6  7  2  0  0  0  0
  7  8  1  0  0  0  0
  8 11  1  0  0  0  0
  9  8  2  0  0  0  0
 10  6  1  0  0  0  0
 12  5  1  0  0  0  0
 13 20  1  6  0  0  0
 14 12  1  1  0  0  0
 14 13  1  0  0  0  0
 15 17  1  0  0  0  0
 15 14  1  0  0  0  0
 16 15  1  0  0  0  0
 17 18  1  0  0  0  0
 18 19  1  0  0  0  0
 18 13  1  0  0  0  0
 21 20  1  0  0  0  0
 22 23  1  0  0  0  0
 22 24  1  0  0  0  0
 25 22  1  0  0  0  0
 25 26  2  0  0  0  0
 26 30  1  0  0  0  0
 27 26  1  0  0  0  0
 28 29  2  0  0  0  0
 28 27  1  0  0  0  0
 29 25  1  0  0  0  0
 31 28  1  0  0  0  0
 32 33  2  0  0  0  0
 33 31  1  0  0  0  0
 33 34  1  0  0  0  0
 34 35  1  0  0  0  0
 36 33  1  0  0  0  0
 37 36  1  0  0  0  0
M  END
>  <minimizedAffinity>
-4.29033184

>  <minimizedRMSD>
0.87285918

$$$$
