
 OpenBabel03252507453D

 37 39  0  0  1  0  0  0  0  0999 V2000
   47.1950   34.3250   40.7790 C   0  0  0  0  0  0  0  0  0  0  0  0
   46.5710   33.4760   40.4320 H   0  0  0  0  0  0  0  0  0  0  0  0
   47.3020   35.0010   39.8880 H   0  0  0  0  0  0  0  0  0  0  0  0
   48.5250   33.8640   41.2280 C   0  0  0  0  0  0  0  0  0  0  0  0
   49.0690   32.7890   40.5540 C   0  0  0  0  0  0  0  0  0  0  0  0
   50.3170   32.3090   40.9320 C   0  0  0  0  0  0  0  0  0  0  0  0
   50.9650   32.9270   41.9660 N   0  0  0  0  0  0  0  0  0  0  0  0
   50.4010   33.9720   42.5980 C   0  0  0  0  0  0  0  0  0  0  0  0
   49.2150   34.4150   42.2250 N   0  0  0  0  0  0  0  0  0  0  0  0
   50.7910   31.4890   40.4610 H   0  0  0  0  0  0  0  0  0  0  0  0
   50.8680   34.4970   43.4200 H   0  0  0  0  0  0  0  0  0  0  0  0
   48.1780   32.0240   39.2040 S   0  0  0  0  0  0  0  0  0  0  0  0
   49.9360   31.7760   37.1740 C   0  0  2  0  0  3  0  0  0  0  0  0
   49.1960   30.9360   38.2290 C   0  0  1  0  0  3  0  0  0  0  0  0
   50.3890   30.4320   39.0190 C   0  0  0  0  0  3  0  0  0  0  0  0
   50.2440   29.4500   39.4690 H   0  0  0  0  0  0  0  0  0  0  0  0
   51.4390   30.2800   38.1040 O   0  0  0  0  0  0  0  0  0  0  0  0
   51.3550   31.3090   37.1870 C   0  0  0  0  0  3  0  0  0  0  0  0
   51.6700   30.8640   36.2060 H   0  0  0  0  0  0  0  0  0  0  0  0
   49.9010   33.1300   37.4780 O   0  0  0  0  0  0  0  0  0  0  0  0
   50.1930   33.2160   38.4060 H   0  0  0  0  0  0  0  0  0  0  0  0
   46.3980   34.9950   41.8630 C   0  0  0  0  0  0  0  0  0  0  0  0
   46.6780   36.0760   41.8410 H   0  0  0  0  0  0  0  0  0  0  0  0
   46.7060   34.6220   42.8630 H   0  0  0  0  0  0  0  0  0  0  0  0
   44.9340   34.9410   41.6680 C   0  0  0  0  0  0  0  0  0  0  0  0
   44.0670   35.4450   42.6850 C   0  0  0  0  0  0  0  0  0  0  0  0
   42.3960   35.1560   41.9720 S   0  0  0  0  0  0  0  0  0  0  0  0
   43.1630   34.3980   40.4110 C   0  0  0  0  0  0  0  0  0  0  0  0
   44.2810   34.4760   40.6410 N   0  0  0  0  0  0  0  0  0  0  0  0
   44.3290   35.8840   43.6340 H   0  0  0  0  0  0  0  0  0  0  0  0
   42.4020   33.9180   39.3470 O   0  0  0  0  0  0  0  0  0  0  0  0
   40.4400   34.3540   37.6170 O   0  0  0  0  0  0  0  0  0  0  0  0
   41.5190   35.0440   38.4420 P   0  0  0  0  0  0  0  0  0  0  0  0
   40.7750   36.1070   39.5290 O   0  0  0  0  0  0  0  0  0  0  0  0
   39.8480   35.8390   39.7500 H   0  0  0  0  0  0  0  0  0  0  0  0
   42.5710   35.9290   37.4450 O   0  0  0  0  0  0  0  0  0  0  0  0
   42.3270   36.8950   37.4430 H   0  0  0  0  0  0  0  0  0  0  0  0
  1  4  1  0  0  0  0
  1 22  1  0  0  0  0
  2  1  1  0  0  0  0
  3  1  1  0  0  0  0
  4  9  1  0  0  0  0
  5  6  1  0  0  0  0
  5  4  2  0  0  0  0
  6  7  2  0  0  0  0
  7  8  1  0  0  0  0
  8 11  1  0  0  0  0
  9  8  2  0  0  0  0
 10  6  1  0  0  0  0
 12  5  1  0  0  0  0
 13 18  1  0  0  0  0
 13 20  1  1  0  0  0
 13 14  1  0  0  0  0
 14 15  1  0  0  0  0
 14 12  1  1  0  0  0
 15 16  1  0  0  0  0
 17 15  1  0  0  0  0
 18 17  1  0  0  0  0
 19 18  1  0  0  0  0
 20 21  1  0  0  0  0
 22 24  1  0  0  0  0
 23 22  1  0  0  0  0
 25 22  1  0  0  0  0
 25 26  2  0  0  0  0
 26 30  1  0  0  0  0
 27 26  1  0  0  0  0
 28 29  2  0  0  0  0
 28 27  1  0  0  0  0
 29 25  1  0  0  0  0
 31 28  1  0  0  0  0
 32 33  2  0  0  0  0
 33 31  1  0  0  0  0
 33 34  1  0  0  0  0
 34 35  1  0  0  0  0
 36 33  1  0  0  0  0
 37 36  1  0  0  0  0
M  END
>  <minimizedAffinity>
-4.97674751

>  <minimizedRMSD>
1.12055457

$$$$
