
 OpenBabel03252507453D

 37 39  0  0  1  0  0  0  0  0999 V2000
   47.1990   34.4350   40.8510 C   0  0  0  0  0  0  0  0  0  0  0  0
   46.5960   33.6110   40.4150 H   0  0  0  0  0  0  0  0  0  0  0  0
   47.3130   35.1890   40.0260 H   0  0  0  0  0  0  0  0  0  0  0  0
   48.5260   33.9550   41.2870 C   0  0  0  0  0  0  0  0  0  0  0  0
   48.9610   32.7600   40.7510 C   0  0  0  0  0  0  0  0  0  0  0  0
   50.2010   32.2570   41.1240 C   0  0  0  0  0  0  0  0  0  0  0  0
   50.9520   32.9730   42.0150 N   0  0  0  0  0  0  0  0  0  0  0  0
   50.4920   34.1340   42.5160 C   0  0  0  0  0  0  0  0  0  0  0  0
   49.3120   34.5970   42.1500 N   0  0  0  0  0  0  0  0  0  0  0  0
   50.5930   31.3470   40.7540 H   0  0  0  0  0  0  0  0  0  0  0  0
   51.0430   34.7400   43.2230 H   0  0  0  0  0  0  0  0  0  0  0  0
   47.9390   31.8680   39.5830 S   0  0  0  0  0  0  0  0  0  0  0  0
   47.8250   29.3390   40.5110 C   0  0  2  0  0  3  0  0  0  0  0  0
   48.4410   30.1730   39.3740 C   0  0  1  0  0  3  0  0  0  0  0  0
   47.7430   29.5260   38.1930 C   0  0  0  0  0  3  0  0  0  0  0  0
   48.3300   29.5290   37.2740 H   0  0  0  0  0  0  0  0  0  0  0  0
   47.5620   28.1780   38.5250 O   0  0  0  0  0  0  0  0  0  0  0  0
   47.2680   28.1090   39.8720 C   0  0  0  0  0  3  0  0  0  0  0  0
   47.7630   27.1720   40.2400 H   0  0  0  0  0  0  0  0  0  0  0  0
   46.8000   30.0210   41.1510 O   0  0  0  0  0  0  0  0  0  0  0  0
   46.1980   30.3430   40.4520 H   0  0  0  0  0  0  0  0  0  0  0  0
   46.3680   34.9930   41.9720 C   0  0  0  0  0  0  0  0  0  0  0  0
   46.6360   36.0740   42.0590 H   0  0  0  0  0  0  0  0  0  0  0  0
   46.6550   34.5300   42.9410 H   0  0  0  0  0  0  0  0  0  0  0  0
   44.9100   34.9450   41.7350 C   0  0  0  0  0  0  0  0  0  0  0  0
   44.0160   35.4560   42.7260 C   0  0  0  0  0  0  0  0  0  0  0  0
   42.3640   35.1720   41.9660 S   0  0  0  0  0  0  0  0  0  0  0  0
   43.1730   34.4060   40.4300 C   0  0  0  0  0  0  0  0  0  0  0  0
   44.2840   34.4790   40.6920 N   0  0  0  0  0  0  0  0  0  0  0  0
   44.2520   35.8970   43.6800 H   0  0  0  0  0  0  0  0  0  0  0  0
   42.4410   33.9260   39.3460 O   0  0  0  0  0  0  0  0  0  0  0  0
   40.4630   34.3460   37.6300 O   0  0  0  0  0  0  0  0  0  0  0  0
   41.5430   35.0450   38.4470 P   0  0  0  0  0  0  0  0  0  0  0  0
   40.7980   36.1020   39.5400 O   0  0  0  0  0  0  0  0  0  0  0  0
   39.8750   35.8270   39.7670 H   0  0  0  0  0  0  0  0  0  0  0  0
   42.5810   35.9380   37.4430 O   0  0  0  0  0  0  0  0  0  0  0  0
   42.3290   36.9020   37.4430 H   0  0  0  0  0  0  0  0  0  0  0  0
  1  4  1  0  0  0  0
  1 22  1  0  0  0  0
  2  1  1  0  0  0  0
  3  1  1  0  0  0  0
  4  9  1  0  0  0  0
  5  6  1  0  0  0  0
  5  4  2  0  0  0  0
  6  7  2  0  0  0  0
  7  8  1  0  0  0  0
  8 11  1  0  0  0  0
  9  8  2  0  0  0  0
 10  6  1  0  0  0  0
 12  5  1  0  0  0  0
 13 20  1  6  0  0  0
 14 12  1  1  0  0  0
 14 13  1  0  0  0  0
 15 17  1  0  0  0  0
 15 14  1  0  0  0  0
 16 15  1  0  0  0  0
 17 18  1  0  0  0  0
 18 19  1  0  0  0  0
 18 13  1  0  0  0  0
 21 20  1  0  0  0  0
 22 23  1  0  0  0  0
 22 24  1  0  0  0  0
 25 22  1  0  0  0  0
 25 26  2  0  0  0  0
 26 30  1  0  0  0  0
 27 26  1  0  0  0  0
 28 29  2  0  0  0  0
 28 27  1  0  0  0  0
 29 25  1  0  0  0  0
 31 28  1  0  0  0  0
 32 33  2  0  0  0  0
 33 31  1  0  0  0  0
 33 34  1  0  0  0  0
 34 35  1  0  0  0  0
 36 33  1  0  0  0  0
 37 36  1  0  0  0  0
M  END
>  <minimizedAffinity>
-4.29110098

>  <minimizedRMSD>
1.04948401

$$$$
