
 OpenBabel03252507453D

 37 39  0  0  1  0  0  0  0  0999 V2000
   47.4740   34.4430   40.7410 C   0  0  0  0  0  0  0  0  0  0  0  0
   46.7860   33.7790   40.1770 H   0  0  0  0  0  0  0  0  0  0  0  0
   47.6830   35.3080   40.0560 H   0  0  0  0  0  0  0  0  0  0  0  0
   48.7330   33.7460   41.0770 C   0  0  0  0  0  0  0  0  0  0  0  0
   49.0480   32.6350   40.3210 C   0  0  0  0  0  0  0  0  0  0  0  0
   50.2200   31.9380   40.5910 C   0  0  0  0  0  0  0  0  0  0  0  0
   51.0240   32.3840   41.6030 N   0  0  0  0  0  0  0  0  0  0  0  0
   50.6810   33.4720   42.3170 C   0  0  0  0  0  0  0  0  0  0  0  0
   49.5650   34.1220   42.0470 N   0  0  0  0  0  0  0  0  0  0  0  0
   50.5200   31.0770   40.0540 H   0  0  0  0  0  0  0  0  0  0  0  0
   51.2790   33.8680   43.1260 H   0  0  0  0  0  0  0  0  0  0  0  0
   47.9620   32.0990   39.0050 S   0  0  0  0  0  0  0  0  0  0  0  0
   49.4060   32.0200   36.7280 C   0  0  2  0  0  3  0  0  0  0  0  0
   48.3360   32.8640   37.4410 C   0  0  1  0  0  3  0  0  0  0  0  0
   47.1970   32.7000   36.4520 C   0  0  0  0  0  3  0  0  0  0  0  0
   46.5230   33.5560   36.4030 H   0  0  0  0  0  0  0  0  0  0  0  0
   47.7810   32.6000   35.1840 O   0  0  0  0  0  0  0  0  0  0  0  0
   48.9530   31.8820   35.3110 C   0  0  0  0  0  3  0  0  0  0  0  0
   49.6710   32.3450   34.5840 H   0  0  0  0  0  0  0  0  0  0  0  0
   49.5230   30.7570   37.2930 O   0  0  0  0  0  0  0  0  0  0  0  0
   48.6200   30.3880   37.3450 H   0  0  0  0  0  0  0  0  0  0  0  0
   46.7010   34.8930   41.9480 C   0  0  0  0  0  0  0  0  0  0  0  0
   47.0070   35.9480   42.1470 H   0  0  0  0  0  0  0  0  0  0  0  0
   47.0050   34.3140   42.8470 H   0  0  0  0  0  0  0  0  0  0  0  0
   45.2350   34.9140   41.7630 C   0  0  0  0  0  0  0  0  0  0  0  0
   44.4160   35.6290   42.6890 C   0  0  0  0  0  0  0  0  0  0  0  0
   42.7210   35.3540   42.0280 S   0  0  0  0  0  0  0  0  0  0  0  0
   43.4170   34.3120   40.6030 C   0  0  0  0  0  0  0  0  0  0  0  0
   44.5400   34.3440   40.8190 N   0  0  0  0  0  0  0  0  0  0  0  0
   44.7170   36.1890   43.5590 H   0  0  0  0  0  0  0  0  0  0  0  0
   42.6140   33.7290   39.6250 O   0  0  0  0  0  0  0  0  0  0  0  0
   40.7130   33.9740   37.7920 O   0  0  0  0  0  0  0  0  0  0  0  0
   41.7060   34.7620   38.6360 P   0  0  0  0  0  0  0  0  0  0  0  0
   40.8470   35.8150   39.6440 O   0  0  0  0  0  0  0  0  0  0  0  0
   39.9290   35.4970   39.8340 H   0  0  0  0  0  0  0  0  0  0  0  0
   42.7480   35.6740   37.6530 O   0  0  0  0  0  0  0  0  0  0  0  0
   42.4450   36.6210   37.6010 H   0  0  0  0  0  0  0  0  0  0  0  0
  1  4  1  0  0  0  0
  1 22  1  0  0  0  0
  2  1  1  0  0  0  0
  3  1  1  0  0  0  0
  4  9  1  0  0  0  0
  5  6  1  0  0  0  0
  5  4  2  0  0  0  0
  6  7  2  0  0  0  0
  7  8  1  0  0  0  0
  8 11  1  0  0  0  0
  9  8  2  0  0  0  0
 10  6  1  0  0  0  0
 12  5  1  0  0  0  0
 13 20  1  1  0  0  0
 13 14  1  0  0  0  0
 14 12  1  1  0  0  0
 15 14  1  0  0  0  0
 16 15  1  0  0  0  0
 17 18  1  0  0  0  0
 17 15  1  0  0  0  0
 18 13  1  0  0  0  0
 19 18  1  0  0  0  0
 20 21  1  0  0  0  0
 22 23  1  0  0  0  0
 22 24  1  0  0  0  0
 25 22  1  0  0  0  0
 25 26  2  0  0  0  0
 26 30  1  0  0  0  0
 27 26  1  0  0  0  0
 28 29  2  0  0  0  0
 28 27  1  0  0  0  0
 29 25  1  0  0  0  0
 31 28  1  0  0  0  0
 32 33  2  0  0  0  0
 33 31  1  0  0  0  0
 33 34  1  0  0  0  0
 34 35  1  0  0  0  0
 36 33  1  0  0  0  0
 37 36  1  0  0  0  0
M  END
>  <minimizedAffinity>
-4.91300344

>  <minimizedRMSD>
2.3163228

$$$$
