
 OpenBabel03252507453D

 37 39  0  0  1  0  0  0  0  0999 V2000
   47.2080   34.4650   40.8570 C   0  0  0  0  0  0  0  0  0  0  0  0
   46.6050   33.6610   40.3850 H   0  0  0  0  0  0  0  0  0  0  0  0
   47.3320   35.2500   40.0630 H   0  0  0  0  0  0  0  0  0  0  0  0
   48.5300   33.9620   41.2830 C   0  0  0  0  0  0  0  0  0  0  0  0
   48.9440   32.7640   40.7350 C   0  0  0  0  0  0  0  0  0  0  0  0
   50.1790   32.2400   41.1000 C   0  0  0  0  0  0  0  0  0  0  0  0
   50.9430   32.9370   41.9940 N   0  0  0  0  0  0  0  0  0  0  0  0
   50.5030   34.1000   42.5070 C   0  0  0  0  0  0  0  0  0  0  0  0
   49.3280   34.5840   42.1490 N   0  0  0  0  0  0  0  0  0  0  0  0
   50.5560   31.3270   40.7200 H   0  0  0  0  0  0  0  0  0  0  0  0
   51.0650   34.6910   43.2160 H   0  0  0  0  0  0  0  0  0  0  0  0
   47.9060   31.8990   39.5640 S   0  0  0  0  0  0  0  0  0  0  0  0
   48.1320   29.2570   40.0590 C   0  0  2  0  0  3  0  0  0  0  0  0
   48.5850   30.3330   39.0570 C   0  0  1  0  0  3  0  0  0  0  0  0
   47.9020   29.8060   37.8100 C   0  0  0  0  0  3  0  0  0  0  0  0
   48.4330   30.0290   36.8830 H   0  0  0  0  0  0  0  0  0  0  0  0
   47.8950   28.4100   37.9170 O   0  0  0  0  0  0  0  0  0  0  0  0
   47.6860   28.0890   39.2450 C   0  0  0  0  0  3  0  0  0  0  0  0
   48.3050   27.1710   39.4320 H   0  0  0  0  0  0  0  0  0  0  0  0
   47.0740   29.6980   40.8420 O   0  0  0  0  0  0  0  0  0  0  0  0
   46.4010   30.0520   40.2280 H   0  0  0  0  0  0  0  0  0  0  0  0
   46.3710   34.9830   41.9930 C   0  0  0  0  0  0  0  0  0  0  0  0
   46.6370   36.0610   42.1180 H   0  0  0  0  0  0  0  0  0  0  0  0
   46.6550   34.4880   42.9460 H   0  0  0  0  0  0  0  0  0  0  0  0
   44.9150   34.9410   41.7480 C   0  0  0  0  0  0  0  0  0  0  0  0
   44.0180   35.4600   42.7320 C   0  0  0  0  0  0  0  0  0  0  0  0
   42.3690   35.1810   41.9640 S   0  0  0  0  0  0  0  0  0  0  0  0
   43.1820   34.4060   40.4350 C   0  0  0  0  0  0  0  0  0  0  0  0
   44.2920   34.4750   40.7030 N   0  0  0  0  0  0  0  0  0  0  0  0
   44.2510   35.9030   43.6860 H   0  0  0  0  0  0  0  0  0  0  0  0
   42.4540   33.9250   39.3490 O   0  0  0  0  0  0  0  0  0  0  0  0
   40.4730   34.3420   37.6360 O   0  0  0  0  0  0  0  0  0  0  0  0
   41.5510   35.0430   38.4520 P   0  0  0  0  0  0  0  0  0  0  0  0
   40.8050   36.0970   39.5460 O   0  0  0  0  0  0  0  0  0  0  0  0
   39.8830   35.8190   39.7750 H   0  0  0  0  0  0  0  0  0  0  0  0
   42.5860   35.9390   37.4480 O   0  0  0  0  0  0  0  0  0  0  0  0
   42.3320   36.9030   37.4490 H   0  0  0  0  0  0  0  0  0  0  0  0
  1  4  1  0  0  0  0
  1 22  1  0  0  0  0
  2  1  1  0  0  0  0
  3  1  1  0  0  0  0
  4  9  1  0  0  0  0
  5  6  1  0  0  0  0
  5  4  2  0  0  0  0
  6  7  2  0  0  0  0
  7  8  1  0  0  0  0
  8 11  1  0  0  0  0
  9  8  2  0  0  0  0
 10  6  1  0  0  0  0
 12  5  1  0  0  0  0
 13 20  1  6  0  0  0
 14 12  1  1  0  0  0
 14 13  1  0  0  0  0
 15 17  1  0  0  0  0
 15 14  1  0  0  0  0
 16 15  1  0  0  0  0
 17 18  1  0  0  0  0
 18 19  1  0  0  0  0
 18 13  1  0  0  0  0
 21 20  1  0  0  0  0
 22 23  1  0  0  0  0
 22 24  1  0  0  0  0
 25 22  1  0  0  0  0
 25 26  2  0  0  0  0
 26 30  1  0  0  0  0
 27 26  1  0  0  0  0
 28 29  2  0  0  0  0
 28 27  1  0  0  0  0
 29 25  1  0  0  0  0
 31 28  1  0  0  0  0
 32 33  2  0  0  0  0
 33 31  1  0  0  0  0
 33 34  1  0  0  0  0
 34 35  1  0  0  0  0
 36 37  1  0  0  0  0
 36 33  1  0  0  0  0
M  END
>  <minimizedAffinity>
-4.31143856

>  <minimizedRMSD>
0.495508462

$$$$
