
 OpenBabel03252508593D

 45 47  0  0  1  0  0  0  0  0999 V2000
   46.8600   34.4140   43.5080 N   0  0  0  0  0  0  0  0  0  0  0  0
   46.3700   35.4570   42.6650 C   0  0  0  0  0  0  0  0  0  0  0  0
   44.8730   35.6310   42.6790 C   0  0  0  0  0  0  0  0  0  0  0  0
   44.2140   35.3220   43.9910 C   0  0  0  0  0  0  0  0  0  0  0  0
   45.2250   34.9800   45.0590 C   0  0  0  0  0  0  0  0  0  0  0  0
   46.0310   33.7910   44.4260 C   0  0  2  0  0  0  0  0  0  0  0  0
   46.7810   36.4190   43.0930 H   0  0  0  0  0  0  0  0  0  0  0  0
   46.6980   35.4260   41.6260 H   0  0  0  0  0  0  0  0  0  0  0  0
   44.6310   36.6220   42.2850 H   0  0  0  0  0  0  0  0  0  0  0  0
   44.4820   34.8870   41.9310 H   0  0  0  0  0  0  0  0  0  0  0  0
   43.7010   36.2570   44.3200 H   0  0  0  0  0  0  0  0  0  0  0  0
   43.4820   34.5150   43.9370 H   0  0  0  0  0  0  0  0  0  0  0  0
   44.7120   34.6380   45.9590 H   0  0  0  0  0  0  0  0  0  0  0  0
   45.9130   35.8240   45.2080 H   0  0  0  0  0  0  0  0  0  0  0  0
   45.2420   33.1080   44.0620 H   0  0  0  0  0  0  0  0  0  0  0  0
   47.9520   33.6720   42.9390 C   0  0  0  0  0  0  0  0  0  0  0  0
   48.6370   33.2670   43.7100 H   0  0  0  0  0  0  0  0  0  0  0  0
   48.5390   34.3830   42.3180 H   0  0  0  0  0  0  0  0  0  0  0  0
   47.3920   32.5760   42.0830 C   0  0  0  0  0  0  0  0  0  0  0  0
   47.6370   31.5590   42.4480 H   0  0  0  0  0  0  0  0  0  0  0  0
   46.2730   32.6280   42.0490 H   0  0  0  0  0  0  0  0  0  0  0  0
   49.3730   32.0790   38.9290 C   0  0  0  0  0  0  0  0  0  0  0  0
   48.8960   31.9260   40.2380 C   0  0  0  0  0  0  0  0  0  0  0  0
   47.8960   32.7440   40.6890 C   0  0  0  0  0  0  0  0  0  0  0  0
   47.4100   33.6670   39.8500 N   0  0  0  0  0  0  0  0  0  0  0  0
   47.8780   33.8070   38.5880 C   0  0  0  0  0  0  0  0  0  0  0  0
   48.8610   33.0140   38.1200 N   0  0  0  0  0  0  0  0  0  0  0  0
   50.1620   31.4460   38.5460 H   0  0  0  0  0  0  0  0  0  0  0  0
   49.3600   31.1480   40.8290 H   0  0  0  0  0  0  0  0  0  0  0  0
   47.3610   34.6040   38.0700 H   0  0  0  0  0  0  0  0  0  0  0  0
   46.7390   33.3130   45.5150 O   0  0  0  0  0  0  0  0  0  0  0  0
   45.6240   31.0060   44.8480 O   0  0  0  0  0  0  0  0  0  0  0  0
   46.2490   31.7810   46.0020 P   0  0  2  0  0  0  0  0  0  0  0  0
   44.9830   32.0170   47.1280 O   0  0  0  0  0  0  0  0  0  0  0  0
   45.3640   32.4480   47.9370 H   0  0  0  0  0  0  0  0  0  0  0  0
   47.4620   30.9390   46.7660 O   0  0  0  0  0  0  0  0  0  0  0  0
   48.6420   28.8770   46.6140 C   0  0  2  0  0  3  0  0  0  0  0  0
   47.3360   29.5880   46.4450 C   0  0  1  0  0  3  0  0  0  0  0  0
   46.4520   28.9160   47.4780 C   0  0  0  0  0  3  0  0  0  0  0  0
   45.3760   28.9700   47.2190 H   0  0  0  0  0  0  0  0  0  0  0  0
   46.8520   27.5820   47.3780 O   0  0  0  0  0  0  0  0  0  0  0  0
   48.2550   27.6820   47.4570 C   0  0  0  0  0  3  0  0  0  0  0  0
   48.7690   26.7800   47.1020 H   0  0  0  0  0  0  0  0  0  0  0  0
   49.5170   29.6860   47.3360 O   0  0  0  0  0  0  0  0  0  0  0  0
   49.3090   29.5540   48.3060 H   0  0  0  0  0  0  0  0  0  0  0  0
  1  6  1  0  0  0  0
  2  3  1  0  0  0  0
  2  7  1  0  0  0  0
  2  1  1  0  0  0  0
  3  4  1  0  0  0  0
  4 11  1  0  0  0  0
  4  5  1  0  0  0  0
  5 14  1  0  0  0  0
  5 13  1  0  0  0  0
  6 15  1  6  0  0  0
  6  5  1  0  0  0  0
  6 31  1  0  0  0  0
  8  2  1  0  0  0  0
  9  3  1  0  0  0  0
 10  3  1  0  0  0  0
 12  4  1  0  0  0  0
 16  1  1  0  0  0  0
 16 17  1  0  0  0  0
 18 16  1  0  0  0  0
 19 20  1  0  0  0  0
 19 16  1  0  0  0  0
 21 19  1  0  0  0  0
 22 23  1  0  0  0  0
 23 24  2  0  0  0  0
 23 29  1  0  0  0  0
 24 19  1  0  0  0  0
 25 24  1  0  0  0  0
 26 25  2  0  0  0  0
 27 26  1  0  0  0  0
 27 22  2  0  0  0  0
 28 22  1  0  0  0  0
 30 26  1  0  0  0  0
 31 33  1  0  0  0  0
 33 32  2  6  0  0  0
 33 36  1  0  0  0  0
 33 34  1  0  0  0  0
 34 35  1  0  0  0  0
 37 44  1  1  0  0  0
 37 42  1  0  0  0  0
 38 37  1  0  0  0  0
 38 36  1  1  0  0  0
 38 39  1  0  0  0  0
 40 39  1  0  0  0  0
 41 42  1  0  0  0  0
 41 39  1  0  0  0  0
 43 42  1  0  0  0  0
 44 45  1  0  0  0  0
M  END
>  <minimizedAffinity>
-4.24603653

>  <minimizedRMSD>
0.99600482

$$$$
