
 OpenBabel03252508593D

 45 47  0  0  1  0  0  0  0  0999 V2000
   46.8020   34.4750   43.5300 N   0  0  0  0  0  0  0  0  0  0  0  0
   46.2880   35.5390   42.7290 C   0  0  0  0  0  0  0  0  0  0  0  0
   44.7910   35.7100   42.7920 C   0  0  0  0  0  0  0  0  0  0  0  0
   44.1710   35.3660   44.1130 C   0  0  0  0  0  0  0  0  0  0  0  0
   45.2130   34.9980   45.1420 C   0  0  0  0  0  0  0  0  0  0  0  0
   46.0000   33.8270   44.4560 C   0  0  2  0  0  0  0  0  0  0  0  0
   46.7100   36.4890   43.1700 H   0  0  0  0  0  0  0  0  0  0  0  0
   46.5850   35.5340   41.6810 H   0  0  0  0  0  0  0  0  0  0  0  0
   44.5370   36.7100   42.4300 H   0  0  0  0  0  0  0  0  0  0  0  0
   44.3790   34.9840   42.0360 H   0  0  0  0  0  0  0  0  0  0  0  0
   43.6670   36.2910   44.4810 H   0  0  0  0  0  0  0  0  0  0  0  0
   43.4380   34.5600   44.0590 H   0  0  0  0  0  0  0  0  0  0  0  0
   44.7260   34.6320   46.0480 H   0  0  0  0  0  0  0  0  0  0  0  0
   45.9030   35.8380   45.2940 H   0  0  0  0  0  0  0  0  0  0  0  0
   45.2020   33.1520   44.0980 H   0  0  0  0  0  0  0  0  0  0  0  0
   47.8780   33.7490   42.9110 C   0  0  0  0  0  0  0  0  0  0  0  0
   48.5720   33.3060   43.6520 H   0  0  0  0  0  0  0  0  0  0  0  0
   48.4600   34.4820   42.3120 H   0  0  0  0  0  0  0  0  0  0  0  0
   47.2940   32.6950   42.0190 C   0  0  0  0  0  0  0  0  0  0  0  0
   47.4920   31.6620   42.3640 H   0  0  0  0  0  0  0  0  0  0  0  0
   46.1790   32.7930   41.9630 H   0  0  0  0  0  0  0  0  0  0  0  0
   49.1230   32.0580   38.7990 C   0  0  0  0  0  0  0  0  0  0  0  0
   48.6150   31.8940   40.0950 C   0  0  0  0  0  0  0  0  0  0  0  0
   47.8330   32.8760   40.6390 C   0  0  0  0  0  0  0  0  0  0  0  0
   47.5840   33.9640   39.9010 N   0  0  0  0  0  0  0  0  0  0  0  0
   48.0810   34.1140   38.6510 C   0  0  0  0  0  0  0  0  0  0  0  0
   48.8520   33.1610   38.0930 N   0  0  0  0  0  0  0  0  0  0  0  0
   49.7440   31.2980   38.3450 H   0  0  0  0  0  0  0  0  0  0  0  0
   48.8780   30.9750   40.6010 H   0  0  0  0  0  0  0  0  0  0  0  0
   47.7690   35.0560   38.2210 H   0  0  0  0  0  0  0  0  0  0  0  0
   46.7410   33.3220   45.5110 O   0  0  0  0  0  0  0  0  0  0  0  0
   45.6310   31.0170   44.8260 O   0  0  0  0  0  0  0  0  0  0  0  0
   46.2520   31.7860   45.9860 P   0  0  2  0  0  0  0  0  0  0  0  0
   44.9820   32.0130   47.1110 O   0  0  0  0  0  0  0  0  0  0  0  0
   45.3600   32.4390   47.9240 H   0  0  0  0  0  0  0  0  0  0  0  0
   47.4640   30.9410   46.7480 O   0  0  0  0  0  0  0  0  0  0  0  0
   48.6260   28.8700   46.6000 C   0  0  2  0  0  3  0  0  0  0  0  0
   47.3240   29.5880   46.4390 C   0  0  1  0  0  3  0  0  0  0  0  0
   46.4440   28.9310   47.4830 C   0  0  0  0  0  3  0  0  0  0  0  0
   45.3680   28.9900   47.2350 H   0  0  0  0  0  0  0  0  0  0  0  0
   46.8340   27.5920   47.3910 O   0  0  0  0  0  0  0  0  0  0  0  0
   48.2400   27.6830   47.4570 C   0  0  0  0  0  3  0  0  0  0  0  0
   48.7420   26.7740   47.1030 H   0  0  0  0  0  0  0  0  0  0  0  0
   49.5140   29.6770   47.3090 O   0  0  0  0  0  0  0  0  0  0  0  0
   49.3140   29.5530   48.2810 H   0  0  0  0  0  0  0  0  0  0  0  0
  1  6  1  0  0  0  0
  2  3  1  0  0  0  0
  2  7  1  0  0  0  0
  2  1  1  0  0  0  0
  3  4  1  0  0  0  0
  4 11  1  0  0  0  0
  4  5  1  0  0  0  0
  5 14  1  0  0  0  0
  5 13  1  0  0  0  0
  6 15  1  6  0  0  0
  6  5  1  0  0  0  0
  6 31  1  0  0  0  0
  8  2  1  0  0  0  0
  9  3  1  0  0  0  0
 10  3  1  0  0  0  0
 12  4  1  0  0  0  0
 16  1  1  0  0  0  0
 16 17  1  0  0  0  0
 18 16  1  0  0  0  0
 19 20  1  0  0  0  0
 19 16  1  0  0  0  0
 21 19  1  0  0  0  0
 22 23  1  0  0  0  0
 23 29  1  0  0  0  0
 23 24  2  0  0  0  0
 24 19  1  0  0  0  0
 25 24  1  0  0  0  0
 26 25  2  0  0  0  0
 27 26  1  0  0  0  0
 27 22  2  0  0  0  0
 28 22  1  0  0  0  0
 30 26  1  0  0  0  0
 31 33  1  0  0  0  0
 33 32  2  6  0  0  0
 33 36  1  0  0  0  0
 33 34  1  0  0  0  0
 34 35  1  0  0  0  0
 37 44  1  1  0  0  0
 37 42  1  0  0  0  0
 38 37  1  0  0  0  0
 38 36  1  1  0  0  0
 38 39  1  0  0  0  0
 40 39  1  0  0  0  0
 41 42  1  0  0  0  0
 41 39  1  0  0  0  0
 43 42  1  0  0  0  0
 44 45  1  0  0  0  0
M  END
>  <minimizedAffinity>
-4.27329493

>  <minimizedRMSD>
1.24762034

$$$$
