
 OpenBabel03252503013D

 30 31  0  0  1  0  0  0  0  0999 V2000
   43.2570   35.4910   43.1300 N   0  0  0  0  0  0  0  0  0  0  0  0
   42.5870   36.2090   43.4390 H   0  0  0  0  0  0  0  0  0  0  0  0
   43.3020   35.5330   41.6590 C   0  0  0  0  0  0  0  0  0  0  0  0
   42.7310   36.3850   41.2660 H   0  0  0  0  0  0  0  0  0  0  0  0
   44.3870   35.7110   41.3970 H   0  0  0  0  0  0  0  0  0  0  0  0
   42.7430   33.9410   41.0780 S   0  0  0  0  0  0  0  0  0  0  0  0
   40.1100   34.5810   40.5490 C   0  0  0  0  0  0  0  0  0  0  0  0
   41.3060   34.1450   40.0110 C   0  0  0  0  0  0  0  0  0  0  0  0
   41.4220   33.8560   38.6420 C   0  0  0  0  0  0  0  0  0  0  0  0
   40.3000   34.0310   37.8930 N   0  0  0  0  0  0  0  0  0  0  0  0
   39.1650   34.4550   38.4510 C   0  0  0  0  0  0  0  0  0  0  0  0
   39.0220   34.7360   39.7410 N   0  0  0  0  0  0  0  0  0  0  0  0
   40.0500   34.7970   41.6120 H   0  0  0  0  0  0  0  0  0  0  0  0
   42.3770   33.5120   38.2390 H   0  0  0  0  0  0  0  0  0  0  0  0
   38.3870   34.5300   37.6900 H   0  0  0  0  0  0  0  0  0  0  0  0
   44.8190   35.7860   43.7980 S   0  0  0  0  0  0  0  0  0  0  0  0
   45.9210   35.3990   42.8950 O   0  0  0  0  0  0  0  0  0  0  0  0
   46.1020   35.9170   42.0850 H   0  0  0  0  0  0  0  0  0  0  0  0
   44.8540   37.2870   44.0870 O   0  0  0  0  0  0  0  0  0  0  0  0
   44.3990   37.5870   44.9250 H   0  0  0  0  0  0  0  0  0  0  0  0
   44.9210   35.0570   45.2930 O   0  0  0  0  0  0  0  0  0  0  0  0
   46.7260   33.4520   45.5600 C   0  0  2  0  0  3  0  0  0  0  0  0
   45.3070   33.7530   45.1220 C   0  0  2  0  0  3  0  0  0  0  0  0
   45.4440   33.3640   43.6580 C   0  0  0  0  0  3  0  0  0  0  0  0
   44.4600   33.0790   43.2360 H   0  0  0  0  0  0  0  0  0  0  0  0
   46.3370   32.3140   43.6070 O   0  0  0  0  0  0  0  0  0  0  0  0
   46.8620   32.0950   44.8540 C   0  0  0  0  0  3  0  0  0  0  0  0
   46.1740   31.4110   45.4030 H   0  0  0  0  0  0  0  0  0  0  0  0
   46.8960   33.3560   46.9120 O   0  0  0  0  0  0  0  0  0  0  0  0
   46.7440   32.4680   47.2760 H   0  0  0  0  0  0  0  0  0  0  0  0
  1  2  1  0  0  0  0
  1 16  1  0  0  0  0
  3  1  1  0  0  0  0
  4  3  1  0  0  0  0
  5  3  1  0  0  0  0
  6  3  1  0  0  0  0
  7 13  1  0  0  0  0
  8  7  1  0  0  0  0
  8  6  1  0  0  0  0
  9  8  2  0  0  0  0
 10 11  2  0  0  0  0
 10  9  1  0  0  0  0
 11 12  1  0  0  0  0
 12  7  2  0  0  0  0
 14  9  1  0  0  0  0
 15 11  1  0  0  0  0
 16 19  1  0  0  0  0
 16 21  1  0  0  0  0
 17 16  1  0  0  0  0
 18 17  1  0  0  0  0
 19 20  1  0  0  0  0
 22 29  1  1  0  0  0
 23 21  1  6  0  0  0
 23 22  1  0  0  0  0
 24 23  1  0  0  0  0
 25 24  1  0  0  0  0
 26 24  1  0  0  0  0
 26 27  1  0  0  0  0
 27 28  1  0  0  0  0
 27 22  1  0  0  0  0
 29 30  1  0  0  0  0
M  END
>  <minimizedAffinity>
-5.26637411

>  <minimizedRMSD>
0.766176462

$$$$
