
 OpenBabel03242523273D

 45 48  0  0  1  0  0  0  0  0999 V2000
   36.8520   28.9870   40.4230 C   0  0  0  0  0  0  0  0  0  0  0  0
   36.8190   27.9560   41.2430 C   0  0  0  0  0  0  0  0  0  0  0  0
   36.9770   26.7210   40.6350 C   0  0  0  0  0  0  0  0  0  0  0  0
   37.1490   26.7040   39.2310 N   0  0  0  0  0  0  0  0  0  0  0  0
   37.1690   27.7720   38.4830 C   0  0  0  0  0  0  0  0  0  0  0  0
   37.0140   29.0160   39.0740 N   0  0  0  0  0  0  0  0  0  0  0  0
   36.9830   25.7590   41.1240 H   0  0  0  0  0  0  0  0  0  0  0  0
   37.3070   27.5920   37.4260 H   0  0  0  0  0  0  0  0  0  0  0  0
   36.5290   27.9580   42.6580 C   0  0  1  0  0  0  0  0  0  0  0  0
   36.5460   26.9030   43.5050 C   0  0  0  0  0  0  0  0  0  0  0  0
   37.8000   27.7270   43.6020 C   0  0  1  0  0  0  0  0  0  0  0  0
   36.0920   28.9670   42.9460 H   0  0  0  0  0  0  0  0  0  0  0  0
   35.9590   26.8680   44.4480 H   0  0  0  0  0  0  0  0  0  0  0  0
   36.6930   25.8440   43.1370 H   0  0  0  0  0  0  0  0  0  0  0  0
   37.8940   28.4250   44.4510 H   0  0  0  0  0  0  0  0  0  0  0  0
   38.9460   27.2400   42.9320 N   0  0  0  0  0  0  0  0  0  0  0  0
   39.4790   27.9090   42.3590 H   0  0  0  0  0  0  0  0  0  0  0  0
   41.2310   26.9400   43.5500 C   0  0  1  0  0  3  0  0  0  0  0  0
   39.8160   26.4090   43.6790 C   0  0  2  0  0  3  0  0  0  0  0  0
   39.9510   25.0010   43.2150 C   0  0  0  0  0  3  0  0  0  0  0  0
   39.1130   24.6270   42.5940 H   0  0  0  0  0  0  0  0  0  0  0  0
   41.1760   24.9000   42.5810 O   0  0  0  0  0  0  0  0  0  0  0  0
   42.0240   25.6660   43.3730 C   0  0  0  0  0  3  0  0  0  0  0  0
   42.2280   25.2080   44.3600 H   0  0  0  0  0  0  0  0  0  0  0  0
   41.3800   27.8040   42.4770 O   0  0  0  0  0  0  0  0  0  0  0  0
   42.3540   27.9570   42.3840 H   0  0  0  0  0  0  0  0  0  0  0  0
   36.7810   30.4200   40.8280 C   0  0  0  0  0  0  0  0  0  0  0  0
   36.2220   31.4240   41.1520 O   0  0  0  0  0  0  0  0  0  0  0  0
   37.7330   32.3060   38.5610 Cl  0  0  0  0  0  0  0  0  0  0  0  0
   38.7670   31.8200   39.8930 C   0  0  0  0  0  0  0  0  0  0  0  0
   38.1920   30.9620   40.8640 C   0  0  0  0  0  0  0  0  0  0  0  0
   39.0990   30.6690   41.8460 C   0  0  0  0  0  0  0  0  0  0  0  0
   40.3500   31.0450   42.0050 C   0  0  0  0  0  0  0  0  0  0  0  0
   40.8620   31.8800   41.0300 C   0  0  0  0  0  0  0  0  0  0  0  0
   40.0890   32.2650   39.9890 C   0  0  0  0  0  0  0  0  0  0  0  0
   38.7340   30.0050   42.6730 H   0  0  0  0  0  0  0  0  0  0  0  0
   40.9950   30.7450   42.8410 H   0  0  0  0  0  0  0  0  0  0  0  0
   41.9110   32.2090   41.1400 H   0  0  0  0  0  0  0  0  0  0  0  0
   40.7010   33.0940   39.0840 O   0  0  0  0  0  0  0  0  0  0  0  0
   42.4050   31.6130   37.7500 O   0  0  0  0  0  0  0  0  0  0  0  0
   41.4140   32.7330   37.5940 P   0  0  0  0  0  0  0  0  0  0  0  0
   40.1980   32.3110   36.4950 O   0  0  0  0  0  0  0  0  0  0  0  0
   40.2570   31.3370   36.3210 H   0  0  0  0  0  0  0  0  0  0  0  0
   42.1880   34.0900   36.9280 O   0  0  0  0  0  0  0  0  0  0  0  0
   41.5330   34.7640   36.6600 H   0  0  0  0  0  0  0  0  0  0  0  0
  1 27  1  0  0  0  0
  1  2  1  0  0  0  0
  2  9  1  0  0  0  0
  3  7  1  0  0  0  0
  3  2  2  0  0  0  0
  4  3  1  0  0  0  0
  5  6  1  0  0  0  0
  5  4  2  0  0  0  0
  6  1  2  0  0  0  0
  8  5  1  0  0  0  0
  9 12  1  1  0  0  0
  9 10  1  0  0  0  0
  9 11  1  0  0  0  0
 10 11  1  0  0  0  0
 10 13  1  0  0  0  0
 11 15  1  1  0  0  0
 14 10  1  0  0  0  0
 16 11  1  0  0  0  0
 17 16  1  0  0  0  0
 18 25  1  6  0  0  0
 18 19  1  0  0  0  0
 19 16  1  6  0  0  0
 20 19  1  0  0  0  0
 21 20  1  0  0  0  0
 22 20  1  0  0  0  0
 22 23  1  0  0  0  0
 23 18  1  0  0  0  0
 23 24  1  0  0  0  0
 26 25  1  0  0  0  0
 27 31  1  0  0  0  0
 27 28  2  0  0  0  0
 29 30  1  0  0  0  0
 30 35  2  0  0  0  0
 30 31  1  0  0  0  0
 31 32  2  0  0  0  0
 32 33  1  0  0  0  0
 32 36  1  0  0  0  0
 33 37  1  0  0  0  0
 34 38  1  0  0  0  0
 34 33  2  0  0  0  0
 35 34  1  0  0  0  0
 39 35  1  0  0  0  0
 41 40  2  0  0  0  0
 41 39  1  0  0  0  0
 42 41  1  0  0  0  0
 43 42  1  0  0  0  0
 44 41  1  0  0  0  0
 45 44  1  0  0  0  0
M  END
>  <minimizedAffinity>
-6.59494543

$$$$

 OpenBabel03242523273D

 45 48  0  0  1  0  0  0  0  0999 V2000
   37.3820   29.8620   39.5580 C   0  0  0  0  0  0  0  0  0  0  0  0
   37.3210   30.9390   38.8010 C   0  0  0  0  0  0  0  0  0  0  0  0
   37.4690   30.7060   37.4430 C   0  0  0  0  0  0  0  0  0  0  0  0
   37.6700   29.3680   37.0290 N   0  0  0  0  0  0  0  0  0  0  0  0
   37.7210   28.3500   37.8440 C   0  0  0  0  0  0  0  0  0  0  0  0
   37.5720   28.5640   39.2050 N   0  0  0  0  0  0  0  0  0  0  0  0
   37.4490   31.4450   36.6570 H   0  0  0  0  0  0  0  0  0  0  0  0
   37.8820   27.3910   37.3730 H   0  0  0  0  0  0  0  0  0  0  0  0
   37.2320   32.3170   39.2240 C   0  0  1  0  0  0  0  0  0  0  0  0
   37.6870   32.8570   40.3770 C   0  0  0  0  0  0  0  0  0  0  0  0
   38.6230   33.1070   39.2270 C   0  0  1  0  0  0  0  0  0  0  0  0
   36.5430   32.8790   38.5150 H   0  0  0  0  0  0  0  0  0  0  0  0
   37.2690   33.7850   40.8240 H   0  0  0  0  0  0  0  0  0  0  0  0
   38.1080   32.2180   41.2110 H   0  0  0  0  0  0  0  0  0  0  0  0
   38.6040   34.1030   38.7540 H   0  0  0  0  0  0  0  0  0  0  0  0
   39.7660   32.2800   39.1340 N   0  0  0  0  0  0  0  0  0  0  0  0
   39.7100   31.4650   38.5070 H   0  0  0  0  0  0  0  0  0  0  0  0
   41.3860   32.9930   37.5340 C   0  0  1  0  0  3  0  0  0  0  0  0
   41.0170   32.9330   39.0040 C   0  0  2  0  0  3  0  0  0  0  0  0
   42.1910   32.2450   39.6090 C   0  0  0  0  0  3  0  0  0  0  0  0
   41.9490   31.5130   40.4050 H   0  0  0  0  0  0  0  0  0  0  0  0
   42.9140   31.6890   38.5690 O   0  0  0  0  0  0  0  0  0  0  0  0
   42.8590   32.6570   37.5730 C   0  0  0  0  0  3  0  0  0  0  0  0
   43.4470   33.5630   37.8140 H   0  0  0  0  0  0  0  0  0  0  0  0
   40.6630   32.0960   36.7640 O   0  0  0  0  0  0  0  0  0  0  0  0
   41.0900   32.0990   35.8710 H   0  0  0  0  0  0  0  0  0  0  0  0
   37.1790   29.8290   41.0350 C   0  0  0  0  0  0  0  0  0  0  0  0
   36.5590   29.9810   42.0440 O   0  0  0  0  0  0  0  0  0  0  0  0
   37.2570   26.9620   42.2070 Cl  0  0  0  0  0  0  0  0  0  0  0  0
   38.6350   28.0470   42.2540 C   0  0  0  0  0  0  0  0  0  0  0  0
   38.4580   29.3250   41.6670 C   0  0  0  0  0  0  0  0  0  0  0  0
   39.6060   30.0630   41.7640 C   0  0  0  0  0  0  0  0  0  0  0  0
   40.7750   29.7740   42.2930 C   0  0  0  0  0  0  0  0  0  0  0  0
   40.8950   28.5160   42.8520 C   0  0  0  0  0  0  0  0  0  0  0  0
   39.8470   27.6620   42.8360 C   0  0  0  0  0  0  0  0  0  0  0  0
   39.5720   31.0900   41.3140 H   0  0  0  0  0  0  0  0  0  0  0  0
   41.6390   30.4510   42.3160 H   0  0  0  0  0  0  0  0  0  0  0  0
   41.8670   28.2500   43.3030 H   0  0  0  0  0  0  0  0  0  0  0  0
   40.0800   26.4420   43.4180 O   0  0  0  0  0  0  0  0  0  0  0  0
   40.4180   25.0490   41.2210 O   0  0  0  0  0  0  0  0  0  0  0  0
   40.5660   24.9820   42.7160 P   0  0  0  0  0  0  0  0  0  0  0  0
   42.1750   24.6790   43.1480 O   0  0  0  0  0  0  0  0  0  0  0  0
   42.7420   24.8060   42.3460 H   0  0  0  0  0  0  0  0  0  0  0  0
   39.6700   23.6720   43.3200 O   0  0  0  0  0  0  0  0  0  0  0  0
   39.8890   23.5070   44.2580 H   0  0  0  0  0  0  0  0  0  0  0  0
  1 27  1  0  0  0  0
  2  9  1  0  0  0  0
  2  1  2  0  0  0  0
  3  2  1  0  0  0  0
  4  3  2  0  0  0  0
  4  5  1  0  0  0  0
  5  6  2  0  0  0  0
  6  1  1  0  0  0  0
  7  3  1  0  0  0  0
  8  5  1  0  0  0  0
  9 12  1  6  0  0  0
  9 11  1  0  0  0  0
  9 10  1  0  0  0  0
 10 13  1  0  0  0  0
 10 14  1  0  0  0  0
 11 15  1  6  0  0  0
 11 10  1  0  0  0  0
 16 11  1  0  0  0  0
 17 16  1  0  0  0  0
 18 25  1  6  0  0  0
 18 23  1  0  0  0  0
 18 19  1  0  0  0  0
 19 16  1  6  0  0  0
 19 20  1  0  0  0  0
 20 21  1  0  0  0  0
 22 20  1  0  0  0  0
 23 24  1  0  0  0  0
 23 22  1  0  0  0  0
 26 25  1  0  0  0  0
 27 31  1  0  0  0  0
 27 28  2  0  0  0  0
 29 30  1  0  0  0  0
 30 35  1  0  0  0  0
 31 32  1  0  0  0  0
 31 30  2  0  0  0  0
 32 33  2  0  0  0  0
 33 37  1  0  0  0  0
 33 34  1  0  0  0  0
 34 38  1  0  0  0  0
 35 34  2  0  0  0  0
 35 39  1  0  0  0  0
 36 32  1  0  0  0  0
 40 41  2  0  0  0  0
 41 42  1  0  0  0  0
 41 44  1  0  0  0  0
 41 39  1  0  0  0  0
 43 42  1  0  0  0  0
 44 45  1  0  0  0  0
M  END
>  <minimizedAffinity>
-6.27340555

$$$$

 OpenBabel03242523273D

 45 48  0  0  1  0  0  0  0  0999 V2000
   38.8190   31.0770   40.3300 C   0  0  0  0  0  0  0  0  0  0  0  0
   38.0760   30.6470   39.3290 C   0  0  0  0  0  0  0  0  0  0  0  0
   37.2120   31.5900   38.7970 C   0  0  0  0  0  0  0  0  0  0  0  0
   37.2180   32.8800   39.3770 N   0  0  0  0  0  0  0  0  0  0  0  0
   37.9860   33.2310   40.3720 C   0  0  0  0  0  0  0  0  0  0  0  0
   38.8570   32.3030   40.9150 N   0  0  0  0  0  0  0  0  0  0  0  0
   36.5250   31.4430   37.9780 H   0  0  0  0  0  0  0  0  0  0  0  0
   37.8710   34.2550   40.7020 H   0  0  0  0  0  0  0  0  0  0  0  0
   37.9810   29.3020   38.8100 C   0  0  1  0  0  0  0  0  0  0  0  0
   37.5630   28.9210   37.5810 C   0  0  0  0  0  0  0  0  0  0  0  0
   39.0630   28.9390   37.6890 C   0  0  1  0  0  0  0  0  0  0  0  0
   38.1350   28.5640   39.6600 H   0  0  0  0  0  0  0  0  0  0  0  0
   37.1420   27.9150   37.3650 H   0  0  0  0  0  0  0  0  0  0  0  0
   37.1250   29.6580   36.8430 H   0  0  0  0  0  0  0  0  0  0  0  0
   39.5820   27.9760   37.8260 H   0  0  0  0  0  0  0  0  0  0  0  0
   39.7360   30.0560   37.1420 N   0  0  0  0  0  0  0  0  0  0  0  0
   39.2160   30.9430   37.0910 H   0  0  0  0  0  0  0  0  0  0  0  0
   41.3450   31.7640   37.5700 C   0  0  1  0  0  3  0  0  0  0  0  0
   41.0670   30.2730   37.5750 C   0  0  2  0  0  3  0  0  0  0  0  0
   42.1460   29.7360   36.7020 C   0  0  0  0  0  3  0  0  0  0  0  0
   41.8380   28.9170   36.0220 H   0  0  0  0  0  0  0  0  0  0  0  0
   42.6970   30.8120   36.0310 O   0  0  0  0  0  0  0  0  0  0  0  0
   42.7400   31.8150   36.9920 C   0  0  0  0  0  3  0  0  0  0  0  0
   43.4860   31.6240   37.7860 H   0  0  0  0  0  0  0  0  0  0  0  0
   40.4340   32.4750   36.8060 O   0  0  0  0  0  0  0  0  0  0  0  0
   40.7960   33.3940   36.7350 H   0  0  0  0  0  0  0  0  0  0  0  0
   39.8750   30.2890   41.0260 C   0  0  0  0  0  0  0  0  0  0  0  0
   40.9990   30.0030   41.3090 O   0  0  0  0  0  0  0  0  0  0  0  0
   40.4480   27.2970   40.4610 Cl  0  0  0  0  0  0  0  0  0  0  0  0
   39.3440   27.8340   41.7140 C   0  0  0  0  0  0  0  0  0  0  0  0
   39.1900   29.2350   41.8670 C   0  0  0  0  0  0  0  0  0  0  0  0
   38.3120   29.5150   42.8790 C   0  0  0  0  0  0  0  0  0  0  0  0
   37.6330   28.7200   43.6760 C   0  0  0  0  0  0  0  0  0  0  0  0
   37.8190   27.3640   43.4850 C   0  0  0  0  0  0  0  0  0  0  0  0
   38.6590   26.9220   42.5220 C   0  0  0  0  0  0  0  0  0  0  0  0
   38.1320   30.6020   43.0890 H   0  0  0  0  0  0  0  0  0  0  0  0
   36.9470   29.0570   44.4650 H   0  0  0  0  0  0  0  0  0  0  0  0
   37.2590   26.6750   44.1430 H   0  0  0  0  0  0  0  0  0  0  0  0
   38.7670   25.5580   42.4240 O   0  0  0  0  0  0  0  0  0  0  0  0
   36.4480   24.4110   41.9900 O   0  0  0  0  0  0  0  0  0  0  0  0
   37.8680   24.4650   41.4980 P   0  0  0  0  0  0  0  0  0  0  0  0
   37.9250   24.9480   39.8760 O   0  0  0  0  0  0  0  0  0  0  0  0
   37.0340   25.2980   39.6230 H   0  0  0  0  0  0  0  0  0  0  0  0
   38.5460   22.9080   41.5410 O   0  0  0  0  0  0  0  0  0  0  0  0
   39.4000   22.8900   41.0680 H   0  0  0  0  0  0  0  0  0  0  0  0
  1  6  1  0  0  0  0
  1 27  1  0  0  0  0
  2  1  2  0  0  0  0
  3  2  1  0  0  0  0
  3  4  2  0  0  0  0
  4  5  1  0  0  0  0
  5  8  1  0  0  0  0
  5  6  2  0  0  0  0
  7  3  1  0  0  0  0
  9  2  1  0  0  0  0
  9 12  1  1  0  0  0
 10 11  1  0  0  0  0
 10  9  1  0  0  0  0
 11 15  1  1  0  0  0
 11  9  1  0  0  0  0
 13 10  1  0  0  0  0
 14 10  1  0  0  0  0
 16 11  1  0  0  0  0
 17 16  1  0  0  0  0
 18 25  1  6  0  0  0
 18 19  1  0  0  0  0
 19 16  1  6  0  0  0
 20 19  1  0  0  0  0
 21 20  1  0  0  0  0
 22 20  1  0  0  0  0
 22 23  1  0  0  0  0
 23 18  1  0  0  0  0
 23 24  1  0  0  0  0
 26 25  1  0  0  0  0
 27 28  2  0  0  0  0
 27 31  1  0  0  0  0
 29 30  1  0  0  0  0
 30 31  2  0  0  0  0
 30 35  1  0  0  0  0
 31 32  1  0  0  0  0
 32 36  1  0  0  0  0
 32 33  2  0  0  0  0
 33 37  1  0  0  0  0
 34 33  1  0  0  0  0
 34 38  1  0  0  0  0
 35 34  2  0  0  0  0
 39 35  1  0  0  0  0
 41 44  1  0  0  0  0
 41 40  2  0  0  0  0
 41 39  1  0  0  0  0
 42 41  1  0  0  0  0
 43 42  1  0  0  0  0
 45 44  1  0  0  0  0
M  END
>  <minimizedAffinity>
-6.18220425

$$$$

 OpenBabel03242523273D

 45 48  0  0  1  0  0  0  0  0999 V2000
   38.8650   30.8850   40.0090 C   0  0  0  0  0  0  0  0  0  0  0  0
   39.1210   30.1250   38.9630 C   0  0  0  0  0  0  0  0  0  0  0  0
   38.2840   30.3270   37.8770 C   0  0  0  0  0  0  0  0  0  0  0  0
   37.2670   31.3010   38.0110 N   0  0  0  0  0  0  0  0  0  0  0  0
   37.0740   32.0150   39.0860 C   0  0  0  0  0  0  0  0  0  0  0  0
   37.9030   31.8290   40.1800 N   0  0  0  0  0  0  0  0  0  0  0  0
   38.3250   29.8140   36.9290 H   0  0  0  0  0  0  0  0  0  0  0  0
   36.2540   32.7170   39.0310 H   0  0  0  0  0  0  0  0  0  0  0  0
   40.0810   29.0510   38.8600 C   0  0  1  0  0  0  0  0  0  0  0  0
   40.5720   28.4890   37.7320 C   0  0  0  0  0  0  0  0  0  0  0  0
   41.5230   29.4910   38.3250 C   0  0  1  0  0  0  0  0  0  0  0  0
   40.2420   28.5980   39.8900 H   0  0  0  0  0  0  0  0  0  0  0  0
   40.9780   27.4550   37.6920 H   0  0  0  0  0  0  0  0  0  0  0  0
   40.1700   28.7540   36.7080 H   0  0  0  0  0  0  0  0  0  0  0  0
   42.3810   29.1080   38.9040 H   0  0  0  0  0  0  0  0  0  0  0  0
   41.5620   30.7740   37.7320 N   0  0  0  0  0  0  0  0  0  0  0  0
   40.6920   31.1250   37.3090 H   0  0  0  0  0  0  0  0  0  0  0  0
   41.3970   33.0680   38.3680 C   0  0  1  0  0  3  0  0  0  0  0  0
   42.2160   31.7950   38.4650 C   0  0  2  0  0  3  0  0  0  0  0  0
   43.5490   32.2240   37.9600 C   0  0  0  0  0  3  0  0  0  0  0  0
   44.0700   31.4860   37.3170 H   0  0  0  0  0  0  0  0  0  0  0  0
   43.3710   33.4470   37.3380 O   0  0  0  0  0  0  0  0  0  0  0  0
   42.4710   34.1110   38.1620 C   0  0  0  0  0  3  0  0  0  0  0  0
   42.9070   34.4010   39.1370 H   0  0  0  0  0  0  0  0  0  0  0  0
   40.4860   33.0390   37.3240 O   0  0  0  0  0  0  0  0  0  0  0  0
   40.1310   33.9590   37.2470 H   0  0  0  0  0  0  0  0  0  0  0  0
   39.6590   30.9180   41.2710 C   0  0  0  0  0  0  0  0  0  0  0  0
   40.4700   31.3630   42.0250 O   0  0  0  0  0  0  0  0  0  0  0  0
   41.7380   28.7140   41.9170 Cl  0  0  0  0  0  0  0  0  0  0  0  0
   40.0770   28.6470   42.4750 C   0  0  0  0  0  0  0  0  0  0  0  0
   39.2400   29.7330   42.1130 C   0  0  0  0  0  0  0  0  0  0  0  0
   37.9800   29.5600   42.6160 C   0  0  0  0  0  0  0  0  0  0  0  0
   37.4660   28.5890   43.3410 C   0  0  0  0  0  0  0  0  0  0  0  0
   38.3230   27.5550   43.6660 C   0  0  0  0  0  0  0  0  0  0  0  0
   39.6070   27.5770   43.2440 C   0  0  0  0  0  0  0  0  0  0  0  0
   37.2430   30.3770   42.3960 H   0  0  0  0  0  0  0  0  0  0  0  0
   36.4270   28.5510   43.6950 H   0  0  0  0  0  0  0  0  0  0  0  0
   37.9150   26.7270   44.2740 H   0  0  0  0  0  0  0  0  0  0  0  0
   40.3660   26.5000   43.6270 O   0  0  0  0  0  0  0  0  0  0  0  0
   40.5550   25.2950   41.3050 O   0  0  0  0  0  0  0  0  0  0  0  0
   40.7400   25.0840   42.7820 P   0  0  0  0  0  0  0  0  0  0  0  0
   42.3380   24.6460   43.1310 O   0  0  0  0  0  0  0  0  0  0  0  0
   42.8900   24.8110   42.3260 H   0  0  0  0  0  0  0  0  0  0  0  0
   39.7800   23.7800   43.2960 O   0  0  0  0  0  0  0  0  0  0  0  0
   40.0140   23.5180   44.2070 H   0  0  0  0  0  0  0  0  0  0  0  0
  1  6  1  0  0  0  0
  1 27  1  0  0  0  0
  2  1  2  0  0  0  0
  3  4  2  0  0  0  0
  3  2  1  0  0  0  0
  4  5  1  0  0  0  0
  5  6  2  0  0  0  0
  7  3  1  0  0  0  0
  8  5  1  0  0  0  0
  9  2  1  0  0  0  0
  9 12  1  1  0  0  0
 10 11  1  0  0  0  0
 10  9  1  0  0  0  0
 11  9  1  0  0  0  0
 11 15  1  1  0  0  0
 13 10  1  0  0  0  0
 14 10  1  0  0  0  0
 16 11  1  0  0  0  0
 17 16  1  0  0  0  0
 18 25  1  6  0  0  0
 18 19  1  0  0  0  0
 19 16  1  6  0  0  0
 20 19  1  0  0  0  0
 21 20  1  0  0  0  0
 22 20  1  0  0  0  0
 22 23  1  0  0  0  0
 23 18  1  0  0  0  0
 23 24  1  0  0  0  0
 26 25  1  0  0  0  0
 27 28  2  0  0  0  0
 27 31  1  0  0  0  0
 29 30  1  0  0  0  0
 30 35  1  0  0  0  0
 31 30  2  0  0  0  0
 31 32  1  0  0  0  0
 32 33  2  0  0  0  0
 33 34  1  0  0  0  0
 33 37  1  0  0  0  0
 34 38  1  0  0  0  0
 35 39  1  0  0  0  0
 35 34  2  0  0  0  0
 36 32  1  0  0  0  0
 40 41  2  0  0  0  0
 41 42  1  0  0  0  0
 41 44  1  0  0  0  0
 41 39  1  0  0  0  0
 43 42  1  0  0  0  0
 44 45  1  0  0  0  0
M  END
>  <minimizedAffinity>
-6.17915869

$$$$

 OpenBabel03242523273D

 45 48  0  0  1  0  0  0  0  0999 V2000
   38.6200   30.8720   39.1610 C   0  0  0  0  0  0  0  0  0  0  0  0
   39.2710   31.9970   38.9410 C   0  0  0  0  0  0  0  0  0  0  0  0
   40.3450   31.8900   38.0730 C   0  0  0  0  0  0  0  0  0  0  0  0
   40.6220   30.6120   37.5340 N   0  0  0  0  0  0  0  0  0  0  0  0
   39.9300   29.5390   37.8020 C   0  0  0  0  0  0  0  0  0  0  0  0
   38.8510   29.6280   38.6660 N   0  0  0  0  0  0  0  0  0  0  0  0
   41.0020   32.6870   37.7600 H   0  0  0  0  0  0  0  0  0  0  0  0
   40.2690   28.6370   37.3110 H   0  0  0  0  0  0  0  0  0  0  0  0
   39.0660   33.2790   39.5750 C   0  0  1  0  0  0  0  0  0  0  0  0
   38.6060   33.5160   40.8240 C   0  0  0  0  0  0  0  0  0  0  0  0
   40.1040   33.6210   40.7440 C   0  0  1  0  0  0  0  0  0  0  0  0
   39.1740   34.1000   38.7960 H   0  0  0  0  0  0  0  0  0  0  0  0
   38.1070   34.4640   41.1210 H   0  0  0  0  0  0  0  0  0  0  0  0
   38.2160   32.6860   41.4860 H   0  0  0  0  0  0  0  0  0  0  0  0
   40.5490   34.6290   40.7030 H   0  0  0  0  0  0  0  0  0  0  0  0
   40.8540   32.5130   41.2030 N   0  0  0  0  0  0  0  0  0  0  0  0
   40.5360   31.5760   40.9190 H   0  0  0  0  0  0  0  0  0  0  0  0
   42.8800   31.9550   42.3330 C   0  0  1  0  0  3  0  0  0  0  0  0
   42.2640   32.6170   41.1150 C   0  0  2  0  0  3  0  0  0  0  0  0
   42.8320   33.9920   41.1660 C   0  0  0  0  0  3  0  0  0  0  0  0
   42.1290   34.8040   40.8920 H   0  0  0  0  0  0  0  0  0  0  0  0
   43.3780   34.1570   42.4260 O   0  0  0  0  0  0  0  0  0  0  0  0
   43.9770   32.9310   42.6910 C   0  0  0  0  0  3  0  0  0  0  0  0
   44.8710   32.7400   42.0680 H   0  0  0  0  0  0  0  0  0  0  0  0
   41.9710   31.7850   43.3650 O   0  0  0  0  0  0  0  0  0  0  0  0
   42.5030   31.5070   44.1520 H   0  0  0  0  0  0  0  0  0  0  0  0
   37.3910   30.7300   39.9910 C   0  0  0  0  0  0  0  0  0  0  0  0
   36.2650   30.9760   40.3050 O   0  0  0  0  0  0  0  0  0  0  0  0
   36.0820   27.9290   39.7790 Cl  0  0  0  0  0  0  0  0  0  0  0  0
   37.1340   28.3910   41.1050 C   0  0  0  0  0  0  0  0  0  0  0  0
   37.6710   29.7020   41.0640 C   0  0  0  0  0  0  0  0  0  0  0  0
   38.4760   29.9280   42.1480 C   0  0  0  0  0  0  0  0  0  0  0  0
   38.7980   29.1510   43.1590 C   0  0  0  0  0  0  0  0  0  0  0  0
   38.2470   27.8840   43.1520 C   0  0  0  0  0  0  0  0  0  0  0  0
   37.4290   27.5040   42.1450 C   0  0  0  0  0  0  0  0  0  0  0  0
   38.9620   30.9370   42.1990 H   0  0  0  0  0  0  0  0  0  0  0  0
   39.4610   29.4380   43.9860 H   0  0  0  0  0  0  0  0  0  0  0  0
   38.5030   27.2120   43.9910 H   0  0  0  0  0  0  0  0  0  0  0  0
   36.9410   26.2250   42.2410 O   0  0  0  0  0  0  0  0  0  0  0  0
   38.4390   25.1250   40.3900 O   0  0  0  0  0  0  0  0  0  0  0  0
   37.4780   24.8030   41.5010 P   0  0  0  0  0  0  0  0  0  0  0  0
   38.2160   23.8240   42.6690 O   0  0  0  0  0  0  0  0  0  0  0  0
   39.1920   23.8210   42.5020 H   0  0  0  0  0  0  0  0  0  0  0  0
   36.1820   23.8930   40.8870 O   0  0  0  0  0  0  0  0  0  0  0  0
   35.6410   23.5280   41.6140 H   0  0  0  0  0  0  0  0  0  0  0  0
  1 27  1  0  0  0  0
  2  1  1  0  0  0  0
  2  9  1  0  0  0  0
  3  2  2  0  0  0  0
  4  5  2  0  0  0  0
  4  3  1  0  0  0  0
  5  6  1  0  0  0  0
  6  1  2  0  0  0  0
  7  3  1  0  0  0  0
  8  5  1  0  0  0  0
  9 12  1  6  0  0  0
  9 11  1  0  0  0  0
  9 10  1  0  0  0  0
 10 13  1  0  0  0  0
 10 14  1  0  0  0  0
 11 15  1  1  0  0  0
 11 10  1  0  0  0  0
 11 16  1  0  0  0  0
 17 16  1  0  0  0  0
 18 23  1  0  0  0  0
 18 25  1  1  0  0  0
 19 20  1  0  0  0  0
 19 16  1  1  0  0  0
 19 18  1  0  0  0  0
 20 22  1  0  0  0  0
 21 20  1  0  0  0  0
 22 23  1  0  0  0  0
 24 23  1  0  0  0  0
 25 26  1  0  0  0  0
 27 28  2  0  0  0  0
 27 31  1  0  0  0  0
 29 30  1  0  0  0  0
 30 35  1  0  0  0  0
 31 30  2  0  0  0  0
 31 32  1  0  0  0  0
 32 36  1  0  0  0  0
 32 33  2  0  0  0  0
 33 37  1  0  0  0  0
 34 33  1  0  0  0  0
 34 38  1  0  0  0  0
 35 39  1  0  0  0  0
 35 34  2  0  0  0  0
 40 41  2  0  0  0  0
 41 39  1  0  0  0  0
 41 42  1  0  0  0  0
 43 42  1  0  0  0  0
 44 41  1  0  0  0  0
 44 45  1  0  0  0  0
M  END
>  <minimizedAffinity>
-6.04767847

$$$$

 OpenBabel03242523273D

 45 48  0  0  1  0  0  0  0  0999 V2000
   36.1220   27.4310   39.8180 C   0  0  0  0  0  0  0  0  0  0  0  0
   36.7440   27.2250   40.9620 C   0  0  0  0  0  0  0  0  0  0  0  0
   37.5550   26.1020   40.9910 C   0  0  0  0  0  0  0  0  0  0  0  0
   37.6200   25.3140   39.8170 N   0  0  0  0  0  0  0  0  0  0  0  0
   36.9690   25.5830   38.7190 C   0  0  0  0  0  0  0  0  0  0  0  0
   36.1560   26.7030   38.6700 N   0  0  0  0  0  0  0  0  0  0  0  0
   38.1490   25.7580   41.8240 H   0  0  0  0  0  0  0  0  0  0  0  0
   37.1240   24.8840   37.9090 H   0  0  0  0  0  0  0  0  0  0  0  0
   36.5930   27.9570   42.1980 C   0  0  1  0  0  0  0  0  0  0  0  0
   37.2140   27.7230   43.3760 C   0  0  0  0  0  0  0  0  0  0  0  0
   37.8580   28.8450   42.6090 C   0  0  1  0  0  0  0  0  0  0  0  0
   35.7140   28.6720   42.1000 H   0  0  0  0  0  0  0  0  0  0  0  0
   36.7970   28.0340   44.3580 H   0  0  0  0  0  0  0  0  0  0  0  0
   37.8670   26.8130   43.5370 H   0  0  0  0  0  0  0  0  0  0  0  0
   37.6320   29.8780   42.9200 H   0  0  0  0  0  0  0  0  0  0  0  0
   39.0420   28.5430   41.8960 N   0  0  0  0  0  0  0  0  0  0  0  0
   39.2820   29.1510   41.1000 H   0  0  0  0  0  0  0  0  0  0  0  0
   41.3940   28.9180   42.0380 C   0  0  1  0  0  3  0  0  0  0  0  0
   40.1910   28.2410   42.6670 C   0  0  2  0  0  3  0  0  0  0  0  0
   40.6040   26.8120   42.7110 C   0  0  0  0  0  3  0  0  0  0  0  0
   39.8050   26.0820   42.4710 H   0  0  0  0  0  0  0  0  0  0  0  0
   41.7100   26.6860   41.8900 O   0  0  0  0  0  0  0  0  0  0  0  0
   42.4450   27.8380   42.1440 C   0  0  0  0  0  3  0  0  0  0  0  0
   42.8990   27.8500   43.1530 H   0  0  0  0  0  0  0  0  0  0  0  0
   41.1650   29.3000   40.7260 O   0  0  0  0  0  0  0  0  0  0  0  0
   42.0460   29.5720   40.3640 H   0  0  0  0  0  0  0  0  0  0  0  0
   35.2550   28.6010   39.5020 C   0  0  0  0  0  0  0  0  0  0  0  0
   34.2260   29.2070   39.4740 O   0  0  0  0  0  0  0  0  0  0  0  0
   36.1660   31.0770   41.1260 Cl  0  0  0  0  0  0  0  0  0  0  0  0
   36.5930   30.8340   39.4420 C   0  0  0  0  0  0  0  0  0  0  0  0
   36.1150   29.6480   38.8300 C   0  0  0  0  0  0  0  0  0  0  0  0
   36.5240   29.5790   37.5260 C   0  0  0  0  0  0  0  0  0  0  0  0
   37.2500   30.4070   36.8050 C   0  0  0  0  0  0  0  0  0  0  0  0
   37.6900   31.5480   37.4490 C   0  0  0  0  0  0  0  0  0  0  0  0
   37.3700   31.7640   38.7450 C   0  0  0  0  0  0  0  0  0  0  0  0
   36.2080   28.6660   36.9560 H   0  0  0  0  0  0  0  0  0  0  0  0
   37.5220   30.2520   35.7530 H   0  0  0  0  0  0  0  0  0  0  0  0
   38.3010   32.2590   36.8650 H   0  0  0  0  0  0  0  0  0  0  0  0
   37.8620   32.9270   39.2810 O   0  0  0  0  0  0  0  0  0  0  0  0
   40.3190   33.8070   39.5400 O   0  0  0  0  0  0  0  0  0  0  0  0
   39.1870   33.1750   40.3010 P   0  0  0  0  0  0  0  0  0  0  0  0
   38.7050   34.1610   41.5910 O   0  0  0  0  0  0  0  0  0  0  0  0
   39.1210   35.0530   41.4740 H   0  0  0  0  0  0  0  0  0  0  0  0
   39.7130   31.7210   41.0030 O   0  0  0  0  0  0  0  0  0  0  0  0
   39.0520   31.3850   41.6390 H   0  0  0  0  0  0  0  0  0  0  0  0
  1  2  1  0  0  0  0
  2  3  2  0  0  0  0
  2  9  1  0  0  0  0
  3  7  1  0  0  0  0
  4  3  1  0  0  0  0
  5  4  2  0  0  0  0
  6  5  1  0  0  0  0
  6  1  2  0  0  0  0
  8  5  1  0  0  0  0
  9 12  1  1  0  0  0
  9 11  1  0  0  0  0
  9 10  1  0  0  0  0
 10 14  1  0  0  0  0
 10 13  1  0  0  0  0
 11 15  1  1  0  0  0
 11 10  1  0  0  0  0
 16 11  1  0  0  0  0
 17 16  1  0  0  0  0
 18 25  1  6  0  0  0
 18 23  1  0  0  0  0
 18 19  1  0  0  0  0
 19 16  1  6  0  0  0
 19 20  1  0  0  0  0
 21 20  1  0  0  0  0
 22 23  1  0  0  0  0
 22 20  1  0  0  0  0
 23 24  1  0  0  0  0
 26 25  1  0  0  0  0
 27  1  1  0  0  0  0
 28 27  2  0  0  0  0
 30 29  1  0  0  0  0
 31 30  1  0  0  0  0
 31 27  1  0  0  0  0
 32 31  2  0  0  0  0
 33 34  2  0  0  0  0
 33 32  1  0  0  0  0
 34 35  1  0  0  0  0
 35 39  1  0  0  0  0
 35 30  2  0  0  0  0
 36 32  1  0  0  0  0
 37 33  1  0  0  0  0
 38 34  1  0  0  0  0
 39 41  1  0  0  0  0
 40 41  2  0  0  0  0
 41 44  1  0  0  0  0
 41 42  1  0  0  0  0
 43 42  1  0  0  0  0
 44 45  1  0  0  0  0
M  END
>  <minimizedAffinity>
-6.00409508

$$$$

 OpenBabel03242523273D

 45 48  0  0  1  0  0  0  0  0999 V2000
   38.8180   29.9530   41.1970 C   0  0  0  0  0  0  0  0  0  0  0  0
   39.1110   29.2790   42.2910 C   0  0  0  0  0  0  0  0  0  0  0  0
   40.4190   28.8300   42.3660 C   0  0  0  0  0  0  0  0  0  0  0  0
   41.2760   29.1340   41.2820 N   0  0  0  0  0  0  0  0  0  0  0  0
   40.9100   29.8090   40.2270 C   0  0  0  0  0  0  0  0  0  0  0  0
   39.6070   30.2680   40.1360 N   0  0  0  0  0  0  0  0  0  0  0  0
   40.8610   28.2640   43.1730 H   0  0  0  0  0  0  0  0  0  0  0  0
   41.6820   29.9580   39.4850 H   0  0  0  0  0  0  0  0  0  0  0  0
   38.2140   28.8650   43.3450 C   0  0  1  0  0  0  0  0  0  0  0  0
   37.0360   28.2130   43.2170 C   0  0  0  0  0  0  0  0  0  0  0  0
   38.1580   27.2860   43.5950 C   0  0  1  0  0  0  0  0  0  0  0  0
   38.5500   29.3360   44.3230 H   0  0  0  0  0  0  0  0  0  0  0  0
   36.2240   28.2650   43.9740 H   0  0  0  0  0  0  0  0  0  0  0  0
   36.5690   28.0160   42.2060 H   0  0  0  0  0  0  0  0  0  0  0  0
   38.2330   26.9700   44.6490 H   0  0  0  0  0  0  0  0  0  0  0  0
   38.7300   26.5090   42.5610 N   0  0  0  0  0  0  0  0  0  0  0  0
   39.5970   25.9980   42.7770 H   0  0  0  0  0  0  0  0  0  0  0  0
   37.9770   24.2640   42.2660 C   0  0  1  0  0  3  0  0  0  0  0  0
   37.8430   25.7030   41.8050 C   0  0  2  0  0  3  0  0  0  0  0  0
   38.1160   25.6060   40.3440 C   0  0  0  0  0  3  0  0  0  0  0  0
   38.7200   26.4330   39.9220 H   0  0  0  0  0  0  0  0  0  0  0  0
   38.6760   24.3620   40.1190 O   0  0  0  0  0  0  0  0  0  0  0  0
   37.9530   23.5170   40.9530 C   0  0  0  0  0  3  0  0  0  0  0  0
   36.9070   23.3700   40.6210 H   0  0  0  0  0  0  0  0  0  0  0  0
   39.1450   24.0380   42.9770 O   0  0  0  0  0  0  0  0  0  0  0  0
   39.2130   23.0560   43.0820 H   0  0  0  0  0  0  0  0  0  0  0  0
   37.5100   30.6050   40.9050 C   0  0  0  0  0  0  0  0  0  0  0  0
   36.5320   31.2340   41.1770 O   0  0  0  0  0  0  0  0  0  0  0  0
   35.7110   28.2000   40.1420 Cl  0  0  0  0  0  0  0  0  0  0  0  0
   36.3890   29.2970   38.9520 C   0  0  0  0  0  0  0  0  0  0  0  0
   37.1840   30.3610   39.4480 C   0  0  0  0  0  0  0  0  0  0  0  0
   37.6420   31.1400   38.4210 C   0  0  0  0  0  0  0  0  0  0  0  0
   37.4620   31.0470   37.1210 C   0  0  0  0  0  0  0  0  0  0  0  0
   36.6800   29.9930   36.6900 C   0  0  0  0  0  0  0  0  0  0  0  0
   36.1500   29.1290   37.5850 C   0  0  0  0  0  0  0  0  0  0  0  0
   38.2710   32.0220   38.7130 H   0  0  0  0  0  0  0  0  0  0  0  0
   37.8820   31.7370   36.3770 H   0  0  0  0  0  0  0  0  0  0  0  0
   36.5140   29.8930   35.6020 H   0  0  0  0  0  0  0  0  0  0  0  0
   35.3910   28.1220   37.0440 O   0  0  0  0  0  0  0  0  0  0  0  0
   33.3180   28.5050   35.4830 O   0  0  0  0  0  0  0  0  0  0  0  0
   33.7150   28.0150   36.8480 P   0  0  0  0  0  0  0  0  0  0  0  0
   33.2410   26.4040   37.0700 O   0  0  0  0  0  0  0  0  0  0  0  0
   32.9780   26.0320   36.1910 H   0  0  0  0  0  0  0  0  0  0  0  0
   32.8900   28.9070   38.0350 O   0  0  0  0  0  0  0  0  0  0  0  0
   32.9990   28.4950   38.9140 H   0  0  0  0  0  0  0  0  0  0  0  0
  1  2  1  0  0  0  0
  2  3  2  0  0  0  0
  2  9  1  0  0  0  0
  3  7  1  0  0  0  0
  4  3  1  0  0  0  0
  5  4  2  0  0  0  0
  6  5  1  0  0  0  0
  6  1  2  0  0  0  0
  8  5  1  0  0  0  0
  9 11  1  0  0  0  0
  9 12  1  1  0  0  0
 10  9  1  0  0  0  0
 10 11  1  0  0  0  0
 10 13  1  0  0  0  0
 11 15  1  1  0  0  0
 14 10  1  0  0  0  0
 16 17  1  0  0  0  0
 16 11  1  0  0  0  0
 18 25  1  6  0  0  0
 19 18  1  0  0  0  0
 19 16  1  1  0  0  0
 20 19  1  0  0  0  0
 21 20  1  0  0  0  0
 22 20  1  0  0  0  0
 22 23  1  0  0  0  0
 23 18  1  0  0  0  0
 24 23  1  0  0  0  0
 25 26  1  0  0  0  0
 27 28  2  0  0  0  0
 27  1  1  0  0  0  0
 30 31  1  0  0  0  0
 30 29  1  0  0  0  0
 31 27  1  0  0  0  0
 32 36  1  0  0  0  0
 32 31  2  0  0  0  0
 33 32  1  0  0  0  0
 34 33  2  0  0  0  0
 34 35  1  0  0  0  0
 35 30  2  0  0  0  0
 37 33  1  0  0  0  0
 38 34  1  0  0  0  0
 39 35  1  0  0  0  0
 40 41  2  0  0  0  0
 41 39  1  0  0  0  0
 41 42  1  0  0  0  0
 41 44  1  0  0  0  0
 43 42  1  0  0  0  0
 44 45  1  0  0  0  0
M  END
>  <minimizedAffinity>
-5.8717618

$$$$

 OpenBabel03242523273D

 45 48  0  0  1  0  0  0  0  0999 V2000
   37.7100   26.1450   41.9550 C   0  0  0  0  0  0  0  0  0  0  0  0
   38.9560   25.8340   42.2500 C   0  0  0  0  0  0  0  0  0  0  0  0
   39.5630   24.9560   41.3660 C   0  0  0  0  0  0  0  0  0  0  0  0
   38.7940   24.4980   40.2710 N   0  0  0  0  0  0  0  0  0  0  0  0
   37.5580   24.8530   40.0450 C   0  0  0  0  0  0  0  0  0  0  0  0
   36.9360   25.7310   40.9170 N   0  0  0  0  0  0  0  0  0  0  0  0
   40.5730   24.5790   41.4250 H   0  0  0  0  0  0  0  0  0  0  0  0
   37.1070   24.4140   39.1660 H   0  0  0  0  0  0  0  0  0  0  0  0
   39.7080   26.2050   43.4260 C   0  0  1  0  0  0  0  0  0  0  0  0
   41.0170   25.9740   43.6750 C   0  0  0  0  0  0  0  0  0  0  0  0
   40.7710   27.3780   43.1990 C   0  0  1  0  0  0  0  0  0  0  0  0
   38.9880   26.5710   44.2260 H   0  0  0  0  0  0  0  0  0  0  0  0
   41.4430   25.9170   44.7000 H   0  0  0  0  0  0  0  0  0  0  0  0
   41.6520   25.3370   42.9890 H   0  0  0  0  0  0  0  0  0  0  0  0
   40.7570   28.1830   43.9530 H   0  0  0  0  0  0  0  0  0  0  0  0
   41.0520   27.6580   41.8410 N   0  0  0  0  0  0  0  0  0  0  0  0
   40.2940   27.5070   41.1600 H   0  0  0  0  0  0  0  0  0  0  0  0
   40.9560   29.6570   40.5420 C   0  0  1  0  0  3  0  0  0  0  0  0
   41.7420   28.8650   41.5690 C   0  0  2  0  0  3  0  0  0  0  0  0
   43.0800   28.7340   40.9280 C   0  0  0  0  0  3  0  0  0  0  0  0
   43.5720   27.7510   41.0620 H   0  0  0  0  0  0  0  0  0  0  0  0
   42.9270   29.0830   39.5990 O   0  0  0  0  0  0  0  0  0  0  0  0
   42.0550   30.1640   39.6370 C   0  0  0  0  0  3  0  0  0  0  0  0
   42.5110   31.0750   40.0710 H   0  0  0  0  0  0  0  0  0  0  0  0
   40.0320   28.8810   39.8620 O   0  0  0  0  0  0  0  0  0  0  0  0
   39.7000   29.4430   39.1180 H   0  0  0  0  0  0  0  0  0  0  0  0
   36.8610   27.1190   42.6970 C   0  0  0  0  0  0  0  0  0  0  0  0
   36.2200   27.5040   43.6290 O   0  0  0  0  0  0  0  0  0  0  0  0
   38.5560   29.6600   43.2180 Cl  0  0  0  0  0  0  0  0  0  0  0  0
   37.3550   29.5620   41.9430 C   0  0  0  0  0  0  0  0  0  0  0  0
   36.6640   28.3310   41.8140 C   0  0  0  0  0  0  0  0  0  0  0  0
   35.7680   28.3870   40.7810 C   0  0  0  0  0  0  0  0  0  0  0  0
   35.4740   29.3610   39.9460 C   0  0  0  0  0  0  0  0  0  0  0  0
   36.1760   30.5390   40.1150 C   0  0  0  0  0  0  0  0  0  0  0  0
   37.1020   30.6440   41.0950 C   0  0  0  0  0  0  0  0  0  0  0  0
   35.1780   27.4530   40.5880 H   0  0  0  0  0  0  0  0  0  0  0  0
   34.7270   29.2970   39.1440 H   0  0  0  0  0  0  0  0  0  0  0  0
   35.9470   31.3720   39.4260 H   0  0  0  0  0  0  0  0  0  0  0  0
   37.7370   31.8580   41.1680 O   0  0  0  0  0  0  0  0  0  0  0  0
   39.2690   33.8650   40.4560 O   0  0  0  0  0  0  0  0  0  0  0  0
   38.2540   32.8870   39.9300 P   0  0  0  0  0  0  0  0  0  0  0  0
   38.9120   31.9510   38.6820 O   0  0  0  0  0  0  0  0  0  0  0  0
   39.8930   32.0840   38.6750 H   0  0  0  0  0  0  0  0  0  0  0  0
   36.9540   33.7320   39.2390 O   0  0  0  0  0  0  0  0  0  0  0  0
   36.3720   33.1240   38.7420 H   0  0  0  0  0  0  0  0  0  0  0  0
  1  2  1  0  0  0  0
  1 27  1  0  0  0  0
  2  9  1  0  0  0  0
  3  7  1  0  0  0  0
  3  2  2  0  0  0  0
  4  3  1  0  0  0  0
  5  4  2  0  0  0  0
  5  6  1  0  0  0  0
  6  1  2  0  0  0  0
  8  5  1  0  0  0  0
  9 10  1  0  0  0  0
  9 12  1  1  0  0  0
 10 13  1  0  0  0  0
 11  9  1  0  0  0  0
 11 10  1  0  0  0  0
 11 15  1  1  0  0  0
 14 10  1  0  0  0  0
 16 11  1  0  0  0  0
 17 16  1  0  0  0  0
 18 25  1  6  0  0  0
 18 19  1  0  0  0  0
 19 16  1  6  0  0  0
 20 21  1  0  0  0  0
 20 19  1  0  0  0  0
 22 23  1  0  0  0  0
 22 20  1  0  0  0  0
 23 24  1  0  0  0  0
 23 18  1  0  0  0  0
 26 25  1  0  0  0  0
 27 28  2  0  0  0  0
 30 29  1  0  0  0  0
 31 30  1  0  0  0  0
 31 27  1  0  0  0  0
 32 31  2  0  0  0  0
 33 34  2  0  0  0  0
 33 32  1  0  0  0  0
 34 35  1  0  0  0  0
 35 39  1  0  0  0  0
 35 30  2  0  0  0  0
 36 32  1  0  0  0  0
 37 33  1  0  0  0  0
 38 34  1  0  0  0  0
 41 40  2  0  0  0  0
 41 39  1  0  0  0  0
 42 41  1  0  0  0  0
 43 42  1  0  0  0  0
 44 41  1  0  0  0  0
 45 44  1  0  0  0  0
M  END
>  <minimizedAffinity>
-5.83789968

$$$$

 OpenBabel03242523273D

 45 48  0  0  1  0  0  0  0  0999 V2000
   37.5130   25.9960   40.4240 C   0  0  0  0  0  0  0  0  0  0  0  0
   37.5690   26.3720   41.6860 C   0  0  0  0  0  0  0  0  0  0  0  0
   38.5170   25.7120   42.4500 C   0  0  0  0  0  0  0  0  0  0  0  0
   39.3000   24.7250   41.8070 N   0  0  0  0  0  0  0  0  0  0  0  0
   39.1850   24.4060   40.5470 C   0  0  0  0  0  0  0  0  0  0  0  0
   38.2440   25.0570   39.7670 N   0  0  0  0  0  0  0  0  0  0  0  0
   38.7240   25.8700   43.4980 H   0  0  0  0  0  0  0  0  0  0  0  0
   39.8560   23.6300   40.2050 H   0  0  0  0  0  0  0  0  0  0  0  0
   36.6960   27.2940   42.3760 C   0  0  1  0  0  0  0  0  0  0  0  0
   36.8110   27.7440   43.6460 C   0  0  0  0  0  0  0  0  0  0  0  0
   37.3260   28.7400   42.6430 C   0  0  1  0  0  0  0  0  0  0  0  0
   35.7620   27.4580   41.7500 H   0  0  0  0  0  0  0  0  0  0  0  0
   35.9500   28.1150   44.2420 H   0  0  0  0  0  0  0  0  0  0  0  0
   37.5880   27.3330   44.3580 H   0  0  0  0  0  0  0  0  0  0  0  0
   36.6780   29.5940   42.3850 H   0  0  0  0  0  0  0  0  0  0  0  0
   38.7270   28.8100   42.4640 N   0  0  0  0  0  0  0  0  0  0  0  0
   39.2070   27.9550   42.1490 H   0  0  0  0  0  0  0  0  0  0  0  0
   40.3910   29.5260   40.9120 C   0  0  1  0  0  3  0  0  0  0  0  0
   39.2270   29.9500   41.7860 C   0  0  2  0  0  3  0  0  0  0  0  0
   39.8250   31.0170   42.6350 C   0  0  0  0  0  3  0  0  0  0  0  0
   39.5000   31.0140   43.6940 H   0  0  0  0  0  0  0  0  0  0  0  0
   41.1970   30.9240   42.4930 O   0  0  0  0  0  0  0  0  0  0  0  0
   41.3740   30.6510   41.1420 C   0  0  0  0  0  3  0  0  0  0  0  0
   41.1250   31.5100   40.4890 H   0  0  0  0  0  0  0  0  0  0  0  0
   40.9110   28.2940   41.2740 O   0  0  0  0  0  0  0  0  0  0  0  0
   41.7520   28.1920   40.7610 H   0  0  0  0  0  0  0  0  0  0  0  0
   36.6380   26.5970   39.3780 C   0  0  0  0  0  0  0  0  0  0  0  0
   35.6510   26.6780   38.7110 O   0  0  0  0  0  0  0  0  0  0  0  0
   35.4040   29.4230   39.6870 Cl  0  0  0  0  0  0  0  0  0  0  0  0
   36.9150   29.1310   38.8450 C   0  0  0  0  0  0  0  0  0  0  0  0
   37.3650   27.7880   38.7930 C   0  0  0  0  0  0  0  0  0  0  0  0
   38.5520   27.7030   38.1170 C   0  0  0  0  0  0  0  0  0  0  0  0
   39.2870   28.6310   37.5440 C   0  0  0  0  0  0  0  0  0  0  0  0
   38.8030   29.9230   37.6230 C   0  0  0  0  0  0  0  0  0  0  0  0
   37.6380   30.1760   38.2610 C   0  0  0  0  0  0  0  0  0  0  0  0
   39.0000   26.6780   38.0340 H   0  0  0  0  0  0  0  0  0  0  0  0
   40.2350   28.4490   37.0220 H   0  0  0  0  0  0  0  0  0  0  0  0
   39.4020   30.7210   37.1490 H   0  0  0  0  0  0  0  0  0  0  0  0
   37.2560   31.4940   38.2780 O   0  0  0  0  0  0  0  0  0  0  0  0
   38.9550   32.8660   39.7310 O   0  0  0  0  0  0  0  0  0  0  0  0
   37.4870   32.6730   39.4680 P   0  0  0  0  0  0  0  0  0  0  0  0
   36.7740   34.1180   38.9490 O   0  0  0  0  0  0  0  0  0  0  0  0
   37.4950   34.7590   38.7230 H   0  0  0  0  0  0  0  0  0  0  0  0
   36.6980   32.2610   40.9140 O   0  0  0  0  0  0  0  0  0  0  0  0
   35.7280   32.3010   40.8020 H   0  0  0  0  0  0  0  0  0  0  0  0
  1  2  1  0  0  0  0
  2  9  1  0  0  0  0
  2  3  2  0  0  0  0
  3  7  1  0  0  0  0
  4  3  1  0  0  0  0
  5  4  2  0  0  0  0
  6  1  2  0  0  0  0
  6  5  1  0  0  0  0
  8  5  1  0  0  0  0
  9 12  1  6  0  0  0
  9 11  1  0  0  0  0
  9 10  1  0  0  0  0
 10 13  1  0  0  0  0
 10 14  1  0  0  0  0
 11 15  1  6  0  0  0
 11 10  1  0  0  0  0
 16 11  1  0  0  0  0
 17 16  1  0  0  0  0
 18 23  1  0  0  0  0
 18 25  1  1  0  0  0
 18 19  1  0  0  0  0
 19 16  1  1  0  0  0
 19 20  1  0  0  0  0
 20 21  1  0  0  0  0
 22 20  1  0  0  0  0
 23 22  1  0  0  0  0
 24 23  1  0  0  0  0
 26 25  1  0  0  0  0
 27  1  1  0  0  0  0
 28 27  2  0  0  0  0
 30 29  1  0  0  0  0
 31 30  1  0  0  0  0
 31 27  1  0  0  0  0
 32 31  2  0  0  0  0
 33 34  2  0  0  0  0
 33 32  1  0  0  0  0
 34 35  1  0  0  0  0
 35 39  1  0  0  0  0
 35 30  2  0  0  0  0
 36 32  1  0  0  0  0
 37 33  1  0  0  0  0
 38 34  1  0  0  0  0
 39 41  1  0  0  0  0
 41 40  2  0  0  0  0
 41 44  1  0  0  0  0
 42 41  1  0  0  0  0
 43 42  1  0  0  0  0
 45 44  1  0  0  0  0
M  END
>  <minimizedAffinity>
-5.77795458

$$$$
