
 OpenBabel03242523263D

 45 48  0  0  1  0  0  0  0  0999 V2000
   47.3980   32.7220   44.0320 C   0  0  0  0  0  0  0  0  0  0  0  0
   48.2390   33.2120   43.1430 C   0  0  0  0  0  0  0  0  0  0  0  0
   49.0660   32.2760   42.5440 C   0  0  0  0  0  0  0  0  0  0  0  0
   48.9230   30.9270   42.9480 N   0  0  0  0  0  0  0  0  0  0  0  0
   48.0640   30.5180   43.8400 C   0  0  0  0  0  0  0  0  0  0  0  0
   47.2280   31.4390   44.4480 N   0  0  0  0  0  0  0  0  0  0  0  0
   49.8180   32.4670   41.7940 H   0  0  0  0  0  0  0  0  0  0  0  0
   48.0790   29.4550   44.0400 H   0  0  0  0  0  0  0  0  0  0  0  0
   48.4700   34.5990   42.8110 C   0  0  1  0  0  0  0  0  0  0  0  0
   49.4750   35.1120   42.0660 C   0  0  0  0  0  0  0  0  0  0  0  0
   48.2000   34.9740   41.2800 C   0  0  1  0  0  0  0  0  0  0  0  0
   47.7740   35.2490   43.4310 H   0  0  0  0  0  0  0  0  0  0  0  0
   49.8310   36.1600   42.1610 H   0  0  0  0  0  0  0  0  0  0  0  0
   50.3360   34.4740   41.7030 H   0  0  0  0  0  0  0  0  0  0  0  0
   47.5970   35.8820   41.1130 H   0  0  0  0  0  0  0  0  0  0  0  0
   48.0930   33.8610   40.4140 N   0  0  0  0  0  0  0  0  0  0  0  0
   47.7790   32.9710   40.8260 H   0  0  0  0  0  0  0  0  0  0  0  0
   46.7940   32.8050   38.7140 C   0  0  1  0  0  0  0  0  0  0  0  0
   47.4720   34.0860   39.1610 C   0  0  2  0  0  0  0  0  0  0  0  0
   48.3750   34.3950   38.0190 C   0  0  0  0  0  0  0  0  0  0  0  0
   49.3730   34.7870   38.2990 H   0  0  0  0  0  0  0  0  0  0  0  0
   48.4460   33.2550   37.2390 O   0  0  0  0  0  0  0  0  0  0  0  0
   47.1440   32.7680   37.2440 C   0  0  0  0  0  0  0  0  0  0  0  0
   46.4400   33.4030   36.6730 H   0  0  0  0  0  0  0  0  0  0  0  0
   47.2600   31.6900   39.3920 O   0  0  0  0  0  0  0  0  0  0  0  0
   46.8840   30.9060   38.9180 H   0  0  0  0  0  0  0  0  0  0  0  0
   46.3570   33.5000   44.7610 C   0  0  0  0  0  0  0  0  0  0  0  0
   45.7980   33.9100   45.7330 O   0  0  0  0  0  0  0  0  0  0  0  0
   44.4800   31.7650   43.0090 Cl  0  0  0  0  0  0  0  0  0  0  0  0
   44.5830   33.5090   42.8550 C   0  0  0  0  0  0  0  0  0  0  0  0
   45.4760   34.1740   43.7320 C   0  0  0  0  0  0  0  0  0  0  0  0
   45.4530   35.5240   43.5130 C   0  0  0  0  0  0  0  0  0  0  0  0
   44.7640   36.2470   42.6560 C   0  0  0  0  0  0  0  0  0  0  0  0
   43.9080   35.5500   41.8240 C   0  0  0  0  0  0  0  0  0  0  0  0
   43.8140   34.2050   41.9170 C   0  0  0  0  0  0  0  0  0  0  0  0
   46.1180   36.1430   44.1700 H   0  0  0  0  0  0  0  0  0  0  0  0
   44.8240   37.3390   42.5640 H   0  0  0  0  0  0  0  0  0  0  0  0
   43.3190   36.1350   41.0950 H   0  0  0  0  0  0  0  0  0  0  0  0
   42.9330   33.6200   41.0420 O   0  0  0  0  0  0  0  0  0  0  0  0
   40.6520   33.0680   39.8710 O   0  0  0  0  0  0  0  0  0  0  0  0
   41.2810   33.3080   41.2160 P   0  0  0  0  0  0  0  0  0  0  0  0
   41.0820   31.9610   42.2220 O   0  0  0  0  0  0  0  0  0  0  0  0
   40.7730   31.2000   41.6670 H   0  0  0  0  0  0  0  0  0  0  0  0
   40.4840   34.5890   41.9970 O   0  0  0  0  0  0  0  0  0  0  0  0
   40.7590   34.6480   42.9320 H   0  0  0  0  0  0  0  0  0  0  0  0
  1  6  1  0  0  0  0
  1 27  1  0  0  0  0
  2  1  2  0  0  0  0
  3  4  2  0  0  0  0
  3  2  1  0  0  0  0
  4  5  1  0  0  0  0
  5  8  1  0  0  0  0
  5  6  2  0  0  0  0
  7  3  1  0  0  0  0
  9  2  1  0  0  0  0
  9 12  1  1  0  0  0
 10 13  1  0  0  0  0
 10  9  1  0  0  0  0
 11 15  1  6  0  0  0
 11 10  1  0  0  0  0
 11  9  1  0  0  0  0
 14 10  1  0  0  0  0
 16 17  1  0  0  0  0
 16 11  1  0  0  0  0
 18 19  1  0  0  0  0
 18 25  1  1  0  0  0
 19 16  1  1  0  0  0
 20 21  1  0  0  0  0
 20 19  1  0  0  0  0
 22 23  1  0  0  0  0
 22 20  1  0  0  0  0
 23 18  1  0  0  0  0
 24 23  1  0  0  0  0
 26 25  1  0  0  0  0
 27 28  2  0  0  0  0
 30 29  1  0  0  0  0
 30 31  1  0  0  0  0
 31 27  1  0  0  0  0
 32 31  2  0  0  0  0
 32 36  1  0  0  0  0
 33 32  1  0  0  0  0
 34 35  1  0  0  0  0
 34 33  2  0  0  0  0
 35 30  2  0  0  0  0
 37 33  1  0  0  0  0
 38 34  1  0  0  0  0
 39 41  1  0  0  0  0
 39 35  1  0  0  0  0
 40 41  2  0  0  0  0
 41 44  1  0  0  0  0
 41 42  1  0  0  0  0
 43 42  1  0  0  0  0
 44 45  1  0  0  0  0
M  END
>  <minimizedAffinity>
-6.0200758

>  <minimizedRMSD>
0.57356286

$$$$
