
 OpenBabel03252503013D

 30 31  0  0  1  0  0  0  0  0999 V2000
   37.2190   29.6390   42.9310 N   0  0  0  0  0  0  0  0  0  0  0  0
   36.6710   30.1850   43.6090 H   0  0  0  0  0  0  0  0  0  0  0  0
   37.1980   28.2350   43.3740 C   0  0  0  0  0  0  0  0  0  0  0  0
   37.0240   28.1600   44.4550 H   0  0  0  0  0  0  0  0  0  0  0  0
   36.3040   27.7720   42.8600 H   0  0  0  0  0  0  0  0  0  0  0  0
   38.7250   27.4940   42.8200 S   0  0  0  0  0  0  0  0  0  0  0  0
   39.4180   25.1970   41.4540 C   0  0  0  0  0  0  0  0  0  0  0  0
   38.3930   25.8900   42.0700 C   0  0  0  0  0  0  0  0  0  0  0  0
   37.0920   25.3650   42.1220 C   0  0  0  0  0  0  0  0  0  0  0  0
   36.9090   24.1510   41.5360 N   0  0  0  0  0  0  0  0  0  0  0  0
   37.9260   23.5140   40.9520 C   0  0  0  0  0  0  0  0  0  0  0  0
   39.1660   23.9830   40.8860 N   0  0  0  0  0  0  0  0  0  0  0  0
   40.4140   25.6280   41.4290 H   0  0  0  0  0  0  0  0  0  0  0  0
   36.2970   25.9320   42.6130 H   0  0  0  0  0  0  0  0  0  0  0  0
   37.5780   22.5640   40.5440 H   0  0  0  0  0  0  0  0  0  0  0  0
   36.5550   29.7900   41.3470 S   0  0  0  0  0  0  0  0  0  0  0  0
   35.9010   28.5560   40.8690 O   0  0  0  0  0  0  0  0  0  0  0  0
   35.0540   28.2620   41.2620 H   0  0  0  0  0  0  0  0  0  0  0  0
   35.5500   30.9380   41.4410 O   0  0  0  0  0  0  0  0  0  0  0  0
   35.9290   31.8620   41.4100 H   0  0  0  0  0  0  0  0  0  0  0  0
   37.7380   30.3380   40.3080 O   0  0  0  0  0  0  0  0  0  0  0  0
   38.1040   32.7230   40.0240 C   0  0  2  0  0  3  0  0  0  0  0  0
   38.3050   31.4650   40.8420 C   0  0  2  0  0  3  0  0  0  0  0  0
   39.8250   31.4310   40.8200 C   0  0  0  0  0  3  0  0  0  0  0  0
   40.2160   30.8750   41.6960 H   0  0  0  0  0  0  0  0  0  0  0  0
   40.2540   32.7420   40.8240 O   0  0  0  0  0  0  0  0  0  0  0  0
   39.1730   33.5800   40.7190 C   0  0  0  0  0  3  0  0  0  0  0  0
   38.7770   33.7620   41.7450 H   0  0  0  0  0  0  0  0  0  0  0  0
   36.8560   33.2710   40.1170 O   0  0  0  0  0  0  0  0  0  0  0  0
   36.7440   33.8990   40.8510 H   0  0  0  0  0  0  0  0  0  0  0  0
  1  3  1  0  0  0  0
  1  2  1  0  0  0  0
  3  4  1  0  0  0  0
  5  3  1  0  0  0  0
  6  3  1  0  0  0  0
  7  8  1  0  0  0  0
  8  9  2  0  0  0  0
  8  6  1  0  0  0  0
  9 14  1  0  0  0  0
 10  9  1  0  0  0  0
 11 10  2  0  0  0  0
 12 11  1  0  0  0  0
 12  7  2  0  0  0  0
 13  7  1  0  0  0  0
 15 11  1  0  0  0  0
 16 19  1  0  0  0  0
 16  1  1  0  0  0  0
 17 18  1  0  0  0  0
 17 16  1  0  0  0  0
 20 19  1  0  0  0  0
 21 16  1  0  0  0  0
 22 29  1  1  0  0  0
 22 27  1  0  0  0  0
 22 23  1  0  0  0  0
 23 21  1  6  0  0  0
 24 26  1  0  0  0  0
 24 23  1  0  0  0  0
 24 25  1  0  0  0  0
 27 26  1  0  0  0  0
 27 28  1  0  0  0  0
 29 30  1  0  0  0  0
M  END
>  <minimizedAffinity>
-5.24716043

$$$$

 OpenBabel03252503013D

 30 31  0  0  1  0  0  0  0  0999 V2000
   36.9430   28.8470   40.9590 N   0  0  0  0  0  0  0  0  0  0  0  0
   37.8240   28.9910   40.4460 H   0  0  0  0  0  0  0  0  0  0  0  0
   37.2210   29.0790   42.3870 C   0  0  0  0  0  0  0  0  0  0  0  0
   38.2420   29.4540   42.5390 H   0  0  0  0  0  0  0  0  0  0  0  0
   36.5140   29.9040   42.6990 H   0  0  0  0  0  0  0  0  0  0  0  0
   36.8610   27.5530   43.2390 S   0  0  0  0  0  0  0  0  0  0  0  0
   38.0630   25.2650   42.2690 C   0  0  0  0  0  0  0  0  0  0  0  0
   38.2300   26.4000   43.0410 C   0  0  0  0  0  0  0  0  0  0  0  0
   39.4530   26.6710   43.6750 C   0  0  0  0  0  0  0  0  0  0  0  0
   40.4450   25.7600   43.4860 N   0  0  0  0  0  0  0  0  0  0  0  0
   40.2430   24.6780   42.7320 C   0  0  0  0  0  0  0  0  0  0  0  0
   39.1010   24.3920   42.1200 N   0  0  0  0  0  0  0  0  0  0  0  0
   37.1060   25.0810   41.7900 H   0  0  0  0  0  0  0  0  0  0  0  0
   39.5610   27.5740   44.2810 H   0  0  0  0  0  0  0  0  0  0  0  0
   41.1530   24.0750   42.7040 H   0  0  0  0  0  0  0  0  0  0  0  0
   35.7230   29.9240   40.3910 S   0  0  0  0  0  0  0  0  0  0  0  0
   34.4160   29.2690   40.1900 O   0  0  0  0  0  0  0  0  0  0  0  0
   33.8850   28.9760   40.9580 H   0  0  0  0  0  0  0  0  0  0  0  0
   35.6260   31.0170   41.4570 O   0  0  0  0  0  0  0  0  0  0  0  0
   36.3230   31.7310   41.4230 H   0  0  0  0  0  0  0  0  0  0  0  0
   36.2740   30.7030   39.0250 O   0  0  0  0  0  0  0  0  0  0  0  0
   37.6230   32.7130   39.2350 C   0  0  2  0  0  3  0  0  0  0  0  0
   37.5250   31.2020   39.2770 C   0  0  2  0  0  3  0  0  0  0  0  0
   38.5220   30.8870   38.1730 C   0  0  0  0  0  3  0  0  0  0  0  0
   38.9490   29.8740   38.3110 H   0  0  0  0  0  0  0  0  0  0  0  0
   39.5010   31.8580   38.2310 O   0  0  0  0  0  0  0  0  0  0  0  0
   39.1550   32.8060   39.1600 C   0  0  0  0  0  3  0  0  0  0  0  0
   39.5150   32.4590   40.1560 H   0  0  0  0  0  0  0  0  0  0  0  0
   37.1160   33.3490   40.3320 O   0  0  0  0  0  0  0  0  0  0  0  0
   37.7500   33.4680   41.0590 H   0  0  0  0  0  0  0  0  0  0  0  0
  1  3  1  0  0  0  0
  2  1  1  0  0  0  0
  3  4  1  0  0  0  0
  3  5  1  0  0  0  0
  3  6  1  0  0  0  0
  7  8  1  0  0  0  0
  8  6  1  0  0  0  0
  8  9  2  0  0  0  0
  9 14  1  0  0  0  0
 10  9  1  0  0  0  0
 11 10  2  0  0  0  0
 12  7  2  0  0  0  0
 12 11  1  0  0  0  0
 13  7  1  0  0  0  0
 15 11  1  0  0  0  0
 16  1  1  0  0  0  0
 16 19  1  0  0  0  0
 17 16  1  0  0  0  0
 17 18  1  0  0  0  0
 20 19  1  0  0  0  0
 21 16  1  0  0  0  0
 22 23  1  0  0  0  0
 22 29  1  1  0  0  0
 23 21  1  6  0  0  0
 24 26  1  0  0  0  0
 24 25  1  0  0  0  0
 24 23  1  0  0  0  0
 26 27  1  0  0  0  0
 27 22  1  0  0  0  0
 27 28  1  0  0  0  0
 29 30  1  0  0  0  0
M  END
>  <minimizedAffinity>
-5.19689798

$$$$

 OpenBabel03252503013D

 30 31  0  0  1  0  0  0  0  0999 V2000
   36.0670   28.3880   40.9750 N   0  0  0  0  0  0  0  0  0  0  0  0
   35.1150   28.4440   40.5860 H   0  0  0  0  0  0  0  0  0  0  0  0
   36.9380   27.8200   39.9330 C   0  0  0  0  0  0  0  0  0  0  0  0
   36.5500   28.0350   38.9280 H   0  0  0  0  0  0  0  0  0  0  0  0
   37.9210   28.3670   40.0330 H   0  0  0  0  0  0  0  0  0  0  0  0
   37.1170   26.0820   40.2980 S   0  0  0  0  0  0  0  0  0  0  0  0
   38.5240   24.6160   42.1670 C   0  0  0  0  0  0  0  0  0  0  0  0
   38.3910   25.8450   41.5480 C   0  0  0  0  0  0  0  0  0  0  0  0
   39.2360   26.9170   41.8790 C   0  0  0  0  0  0  0  0  0  0  0  0
   40.1760   26.6720   42.8310 N   0  0  0  0  0  0  0  0  0  0  0  0
   40.2710   25.4700   43.4030 C   0  0  0  0  0  0  0  0  0  0  0  0
   39.4890   24.4370   43.1140 N   0  0  0  0  0  0  0  0  0  0  0  0
   37.8560   23.8050   41.8910 H   0  0  0  0  0  0  0  0  0  0  0  0
   39.1120   27.8800   41.3770 H   0  0  0  0  0  0  0  0  0  0  0  0
   41.0800   25.4750   44.1350 H   0  0  0  0  0  0  0  0  0  0  0  0
   36.6240   29.9480   41.4530 S   0  0  0  0  0  0  0  0  0  0  0  0
   35.5570   30.9680   41.4710 O   0  0  0  0  0  0  0  0  0  0  0  0
   34.8580   30.9410   42.1550 H   0  0  0  0  0  0  0  0  0  0  0  0
   37.2130   29.7520   42.8510 O   0  0  0  0  0  0  0  0  0  0  0  0
   38.1350   29.3700   42.8930 H   0  0  0  0  0  0  0  0  0  0  0  0
   37.9190   30.3830   40.4980 O   0  0  0  0  0  0  0  0  0  0  0  0
   38.1620   32.7560   40.0370 C   0  0  2  0  0  3  0  0  0  0  0  0
   38.4190   31.5750   40.9500 C   0  0  2  0  0  3  0  0  0  0  0  0
   39.9380   31.6210   40.9440 C   0  0  0  0  0  3  0  0  0  0  0  0
   40.3470   31.1550   41.8630 H   0  0  0  0  0  0  0  0  0  0  0  0
   40.2970   32.9500   40.8520 O   0  0  0  0  0  0  0  0  0  0  0  0
   39.1750   33.7190   40.6730 C   0  0  0  0  0  3  0  0  0  0  0  0
   38.7560   33.9570   41.6780 H   0  0  0  0  0  0  0  0  0  0  0  0
   36.8860   33.2410   40.0760 O   0  0  0  0  0  0  0  0  0  0  0  0
   36.7310   33.9160   40.7580 H   0  0  0  0  0  0  0  0  0  0  0  0
  1 16  1  0  0  0  0
  2  1  1  0  0  0  0
  3  5  1  0  0  0  0
  3  6  1  0  0  0  0
  3  1  1  0  0  0  0
  4  3  1  0  0  0  0
  6  8  1  0  0  0  0
  7 12  1  0  0  0  0
  8  9  1  0  0  0  0
  8  7  2  0  0  0  0
  9 10  2  0  0  0  0
 10 11  1  0  0  0  0
 11 15  1  0  0  0  0
 12 11  2  0  0  0  0
 13  7  1  0  0  0  0
 14  9  1  0  0  0  0
 16 17  1  0  0  0  0
 16 19  1  0  0  0  0
 17 18  1  0  0  0  0
 19 20  1  0  0  0  0
 21 16  1  0  0  0  0
 22 29  1  1  0  0  0
 22 27  1  0  0  0  0
 22 23  1  0  0  0  0
 23 21  1  6  0  0  0
 24 23  1  0  0  0  0
 24 25  1  0  0  0  0
 26 24  1  0  0  0  0
 27 26  1  0  0  0  0
 27 28  1  0  0  0  0
 29 30  1  0  0  0  0
M  END
>  <minimizedAffinity>
-5.10126638

$$$$

 OpenBabel03252503013D

 30 31  0  0  1  0  0  0  0  0999 V2000
   36.5720   30.8460   38.4680 N   0  0  0  0  0  0  0  0  0  0  0  0
   36.5920   30.9660   37.4460 H   0  0  0  0  0  0  0  0  0  0  0  0
   37.2530   29.5760   38.7760 C   0  0  0  0  0  0  0  0  0  0  0  0
   37.5700   29.0610   37.8600 H   0  0  0  0  0  0  0  0  0  0  0  0
   38.1900   29.8670   39.3360 H   0  0  0  0  0  0  0  0  0  0  0  0
   36.1440   28.6310   39.8070 S   0  0  0  0  0  0  0  0  0  0  0  0
   37.2560   26.9070   41.6540 C   0  0  0  0  0  0  0  0  0  0  0  0
   36.9510   28.2230   41.3650 C   0  0  0  0  0  0  0  0  0  0  0  0
   37.2580   29.2530   42.2690 C   0  0  0  0  0  0  0  0  0  0  0  0
   37.8660   28.8780   43.4260 N   0  0  0  0  0  0  0  0  0  0  0  0
   38.1450   27.5950   43.6660 C   0  0  0  0  0  0  0  0  0  0  0  0
   37.8670   26.5990   42.8350 N   0  0  0  0  0  0  0  0  0  0  0  0
   37.0060   26.1310   40.9370 H   0  0  0  0  0  0  0  0  0  0  0  0
   37.0060   30.2870   42.0190 H   0  0  0  0  0  0  0  0  0  0  0  0
   38.6270   27.5010   44.6400 H   0  0  0  0  0  0  0  0  0  0  0  0
   37.3560   32.1650   39.2540 S   0  0  0  0  0  0  0  0  0  0  0  0
   37.2840   33.4250   38.4900 O   0  0  0  0  0  0  0  0  0  0  0  0
   36.4340   33.9030   38.4020 H   0  0  0  0  0  0  0  0  0  0  0  0
   36.6490   32.3040   40.6030 O   0  0  0  0  0  0  0  0  0  0  0  0
   36.9280   31.6650   41.3180 H   0  0  0  0  0  0  0  0  0  0  0  0
   38.9190   31.7260   39.6320 O   0  0  0  0  0  0  0  0  0  0  0  0
   40.4250   32.2350   37.7950 C   0  0  2  0  0  3  0  0  0  0  0  0
   39.7770   32.6510   39.0990 C   0  0  2  0  0  3  0  0  0  0  0  0
   41.0420   32.8290   39.9230 C   0  0  0  0  0  3  0  0  0  0  0  0
   40.8680   33.5400   40.7560 H   0  0  0  0  0  0  0  0  0  0  0  0
   42.0170   33.2920   39.0640 O   0  0  0  0  0  0  0  0  0  0  0  0
   41.5330   33.2980   37.7800 C   0  0  0  0  0  3  0  0  0  0  0  0
   41.0040   34.2660   37.6150 H   0  0  0  0  0  0  0  0  0  0  0  0
   39.6100   32.3170   36.7010 O   0  0  0  0  0  0  0  0  0  0  0  0
   39.6090   33.1840   36.2620 H   0  0  0  0  0  0  0  0  0  0  0  0
  1  3  1  0  0  0  0
  1 16  1  0  0  0  0
  2  1  1  0  0  0  0
  3  5  1  0  0  0  0
  3  6  1  0  0  0  0
  4  3  1  0  0  0  0
  6  8  1  0  0  0  0
  7 12  1  0  0  0  0
  8  7  2  0  0  0  0
  8  9  1  0  0  0  0
  9 10  2  0  0  0  0
 10 11  1  0  0  0  0
 11 15  1  0  0  0  0
 12 11  2  0  0  0  0
 13  7  1  0  0  0  0
 14  9  1  0  0  0  0
 16 21  1  0  0  0  0
 16 19  1  0  0  0  0
 17 16  1  0  0  0  0
 18 17  1  0  0  0  0
 19 20  1  0  0  0  0
 22 29  1  6  0  0  0
 22 23  1  0  0  0  0
 23 21  1  1  0  0  0
 23 24  1  0  0  0  0
 24 25  1  0  0  0  0
 26 24  1  0  0  0  0
 27 22  1  0  0  0  0
 27 26  1  0  0  0  0
 28 27  1  0  0  0  0
 30 29  1  0  0  0  0
M  END
>  <minimizedAffinity>
-5.00972414

$$$$

 OpenBabel03252503013D

 30 31  0  0  1  0  0  0  0  0999 V2000
   35.9870   30.9850   41.1560 N   0  0  0  0  0  0  0  0  0  0  0  0
   35.0580   31.4300   41.1710 H   0  0  0  0  0  0  0  0  0  0  0  0
   35.7860   29.5560   40.8610 C   0  0  0  0  0  0  0  0  0  0  0  0
   34.7450   29.2540   41.0350 H   0  0  0  0  0  0  0  0  0  0  0  0
   35.9830   29.4480   39.7540 H   0  0  0  0  0  0  0  0  0  0  0  0
   36.9860   28.6540   41.8280 S   0  0  0  0  0  0  0  0  0  0  0  0
   37.1240   25.9550   42.3880 C   0  0  0  0  0  0  0  0  0  0  0  0
   36.9270   26.9050   41.4040 C   0  0  0  0  0  0  0  0  0  0  0  0
   36.6830   26.5290   40.0730 C   0  0  0  0  0  0  0  0  0  0  0  0
   36.6520   25.1940   39.8200 N   0  0  0  0  0  0  0  0  0  0  0  0
   36.8460   24.3080   40.8000 C   0  0  0  0  0  0  0  0  0  0  0  0
   37.0790   24.6290   42.0660 N   0  0  0  0  0  0  0  0  0  0  0  0
   37.3110   26.2740   43.4090 H   0  0  0  0  0  0  0  0  0  0  0  0
   36.5320   27.2990   39.3120 H   0  0  0  0  0  0  0  0  0  0  0  0
   36.7840   23.2960   40.3970 H   0  0  0  0  0  0  0  0  0  0  0  0
   36.9970   31.7180   39.9670 S   0  0  0  0  0  0  0  0  0  0  0  0
   36.6700   31.3040   38.5890 O   0  0  0  0  0  0  0  0  0  0  0  0
   35.8440   31.6100   38.1630 H   0  0  0  0  0  0  0  0  0  0  0  0
   36.7970   33.2240   40.1460 O   0  0  0  0  0  0  0  0  0  0  0  0
   37.3030   33.6530   40.8930 H   0  0  0  0  0  0  0  0  0  0  0  0
   38.5930   31.4470   40.3630 O   0  0  0  0  0  0  0  0  0  0  0  0
   40.0810   32.2530   38.6210 C   0  0  2  0  0  3  0  0  0  0  0  0
   39.3430   32.5040   39.9180 C   0  0  2  0  0  3  0  0  0  0  0  0
   40.5450   32.7910   40.8030 C   0  0  0  0  0  3  0  0  0  0  0  0
   40.2540   33.4220   41.6660 H   0  0  0  0  0  0  0  0  0  0  0  0
   41.4810   33.4240   40.0110 O   0  0  0  0  0  0  0  0  0  0  0  0
   41.0440   33.4470   38.7110 C   0  0  0  0  0  3  0  0  0  0  0  0
   40.4010   34.3480   38.5790 H   0  0  0  0  0  0  0  0  0  0  0  0
   39.3000   32.2970   37.5010 O   0  0  0  0  0  0  0  0  0  0  0  0
   39.2030   33.1820   37.1110 H   0  0  0  0  0  0  0  0  0  0  0  0
  1  2  1  0  0  0  0
  3  4  1  0  0  0  0
  3  1  1  0  0  0  0
  3  6  1  0  0  0  0
  5  3  1  0  0  0  0
  7 13  1  0  0  0  0
  8  6  1  0  0  0  0
  8  7  2  0  0  0  0
  9  8  1  0  0  0  0
 10  9  2  0  0  0  0
 10 11  1  0  0  0  0
 11 12  2  0  0  0  0
 12  7  1  0  0  0  0
 14  9  1  0  0  0  0
 15 11  1  0  0  0  0
 16 19  1  0  0  0  0
 16 21  1  0  0  0  0
 16  1  1  0  0  0  0
 17 16  1  0  0  0  0
 18 17  1  0  0  0  0
 19 20  1  0  0  0  0
 22 29  1  6  0  0  0
 22 27  1  0  0  0  0
 22 23  1  0  0  0  0
 23 21  1  1  0  0  0
 23 24  1  0  0  0  0
 24 25  1  0  0  0  0
 26 24  1  0  0  0  0
 27 26  1  0  0  0  0
 28 27  1  0  0  0  0
 30 29  1  0  0  0  0
M  END
>  <minimizedAffinity>
-4.89411974

$$$$

 OpenBabel03252503013D

 30 31  0  0  1  0  0  0  0  0999 V2000
   39.3230   32.8300   41.1730 N   0  0  0  0  0  0  0  0  0  0  0  0
   38.8640   32.8950   42.0930 H   0  0  0  0  0  0  0  0  0  0  0  0
   40.2670   31.7010   41.2290 C   0  0  0  0  0  0  0  0  0  0  0  0
   40.1710   31.0560   40.3460 H   0  0  0  0  0  0  0  0  0  0  0  0
   41.2950   32.1680   41.1890 H   0  0  0  0  0  0  0  0  0  0  0  0
   39.9880   30.8690   42.7830 S   0  0  0  0  0  0  0  0  0  0  0  0
   39.4010   28.5250   41.4470 C   0  0  0  0  0  0  0  0  0  0  0  0
   39.0670   29.3460   42.5080 C   0  0  0  0  0  0  0  0  0  0  0  0
   38.0180   29.0120   43.3800 C   0  0  0  0  0  0  0  0  0  0  0  0
   37.3630   27.8500   43.1160 N   0  0  0  0  0  0  0  0  0  0  0  0
   37.7170   27.0850   42.0820 C   0  0  0  0  0  0  0  0  0  0  0  0
   38.7030   27.3710   41.2400 N   0  0  0  0  0  0  0  0  0  0  0  0
   40.2180   28.8090   40.7900 H   0  0  0  0  0  0  0  0  0  0  0  0
   37.7710   29.6770   44.2110 H   0  0  0  0  0  0  0  0  0  0  0  0
   37.0760   26.2040   42.0400 H   0  0  0  0  0  0  0  0  0  0  0  0
   38.1580   32.5920   39.9250 S   0  0  0  0  0  0  0  0  0  0  0  0
   36.8580   33.2280   40.2120 O   0  0  0  0  0  0  0  0  0  0  0  0
   36.7690   34.2020   40.1920 H   0  0  0  0  0  0  0  0  0  0  0  0
   38.7920   33.1890   38.6680 O   0  0  0  0  0  0  0  0  0  0  0  0
   39.4650   32.6200   38.1980 H   0  0  0  0  0  0  0  0  0  0  0  0
   38.0250   30.9610   39.6060 O   0  0  0  0  0  0  0  0  0  0  0  0
   35.9650   30.0020   40.4670 C   0  0  2  0  0  3  0  0  0  0  0  0
   36.7130   30.6720   39.3340 C   0  0  2  0  0  3  0  0  0  0  0  0
   36.5530   29.5790   38.2890 C   0  0  0  0  0  3  0  0  0  0  0  0
   36.6230   30.0020   37.2670 H   0  0  0  0  0  0  0  0  0  0  0  0
   35.3210   28.9960   38.5080 O   0  0  0  0  0  0  0  0  0  0  0  0
   34.7600   29.5190   39.6450 C   0  0  0  0  0  3  0  0  0  0  0  0
   34.2110   30.4470   39.3630 H   0  0  0  0  0  0  0  0  0  0  0  0
   35.6000   30.8380   41.4830 O   0  0  0  0  0  0  0  0  0  0  0  0
   34.7400   31.2740   41.3600 H   0  0  0  0  0  0  0  0  0  0  0  0
  1  3  1  0  0  0  0
  1  2  1  0  0  0  0
  3  6  1  0  0  0  0
  4  3  1  0  0  0  0
  5  3  1  0  0  0  0
  7  8  1  0  0  0  0
  8  6  1  0  0  0  0
  8  9  2  0  0  0  0
  9 14  1  0  0  0  0
 10  9  1  0  0  0  0
 11 10  2  0  0  0  0
 12  7  2  0  0  0  0
 12 11  1  0  0  0  0
 13  7  1  0  0  0  0
 15 11  1  0  0  0  0
 16 17  1  0  0  0  0
 16  1  1  0  0  0  0
 18 17  1  0  0  0  0
 19 16  1  0  0  0  0
 20 19  1  0  0  0  0
 21 16  1  0  0  0  0
 22 29  1  1  0  0  0
 23 21  1  1  0  0  0
 23 22  1  0  0  0  0
 24 26  1  0  0  0  0
 24 23  1  0  0  0  0
 25 24  1  0  0  0  0
 26 27  1  0  0  0  0
 27 22  1  0  0  0  0
 28 27  1  0  0  0  0
 30 29  1  0  0  0  0
M  END
>  <minimizedAffinity>
-4.89283037

$$$$

 OpenBabel03252503013D

 30 31  0  0  1  0  0  0  0  0999 V2000
   38.8470   30.7070   38.7250 N   0  0  0  0  0  0  0  0  0  0  0  0
   39.2050   30.6920   39.6910 H   0  0  0  0  0  0  0  0  0  0  0  0
   37.3910   30.9140   38.7960 C   0  0  0  0  0  0  0  0  0  0  0  0
   37.0580   31.6610   38.0630 H   0  0  0  0  0  0  0  0  0  0  0  0
   36.9330   29.9260   38.4950 H   0  0  0  0  0  0  0  0  0  0  0  0
   37.0070   31.3220   40.4910 S   0  0  0  0  0  0  0  0  0  0  0  0
   38.1900   29.8290   42.4890 C   0  0  0  0  0  0  0  0  0  0  0  0
   37.1940   29.8640   41.5310 C   0  0  0  0  0  0  0  0  0  0  0  0
   36.3220   28.7770   41.3530 C   0  0  0  0  0  0  0  0  0  0  0  0
   36.5180   27.7080   42.1700 N   0  0  0  0  0  0  0  0  0  0  0  0
   37.4910   27.7150   43.0830 C   0  0  0  0  0  0  0  0  0  0  0  0
   38.3310   28.7240   43.2770 N   0  0  0  0  0  0  0  0  0  0  0  0
   38.8500   30.6830   42.6040 H   0  0  0  0  0  0  0  0  0  0  0  0
   35.5430   28.8270   40.5880 H   0  0  0  0  0  0  0  0  0  0  0  0
   37.4840   26.7730   43.6340 H   0  0  0  0  0  0  0  0  0  0  0  0
   39.5990   31.9640   37.8150 S   0  0  0  0  0  0  0  0  0  0  0  0
   38.9010   32.2650   36.5500 O   0  0  0  0  0  0  0  0  0  0  0  0
   38.0300   32.7110   36.5600 H   0  0  0  0  0  0  0  0  0  0  0  0
   39.6010   33.1810   38.7400 O   0  0  0  0  0  0  0  0  0  0  0  0
   40.3170   33.2080   39.4360 H   0  0  0  0  0  0  0  0  0  0  0  0
   41.2090   31.5900   37.5930 O   0  0  0  0  0  0  0  0  0  0  0  0
   43.0420   33.1800   37.4650 C   0  0  2  0  0  3  0  0  0  0  0  0
   41.9700   32.4940   38.2860 C   0  0  2  0  0  3  0  0  0  0  0  0
   42.8720   31.8390   39.3200 C   0  0  0  0  0  3  0  0  0  0  0  0
   42.3170   31.6550   40.2620 H   0  0  0  0  0  0  0  0  0  0  0  0
   43.9340   32.6950   39.5230 O   0  0  0  0  0  0  0  0  0  0  0  0
   43.8560   33.7430   38.6400 C   0  0  0  0  0  3  0  0  0  0  0  0
   43.2070   34.5270   39.0930 H   0  0  0  0  0  0  0  0  0  0  0  0
   42.5830   34.1600   36.6320 O   0  0  0  0  0  0  0  0  0  0  0  0
   42.5280   35.0420   37.0370 H   0  0  0  0  0  0  0  0  0  0  0  0
  1  3  1  0  0  0  0
  1  2  1  0  0  0  0
  3  6  1  0  0  0  0
  4  3  1  0  0  0  0
  5  3  1  0  0  0  0
  6  8  1  0  0  0  0
  7 13  1  0  0  0  0
  7 12  1  0  0  0  0
  8  7  2  0  0  0  0
  9  8  1  0  0  0  0
  9 10  2  0  0  0  0
 10 11  1  0  0  0  0
 11 12  2  0  0  0  0
 11 15  1  0  0  0  0
 14  9  1  0  0  0  0
 16  1  1  0  0  0  0
 16 19  1  0  0  0  0
 17 18  1  0  0  0  0
 17 16  1  0  0  0  0
 19 20  1  0  0  0  0
 21 16  1  0  0  0  0
 22 29  1  6  0  0  0
 22 23  1  0  0  0  0
 22 27  1  0  0  0  0
 23 21  1  6  0  0  0
 23 24  1  0  0  0  0
 24 26  1  0  0  0  0
 24 25  1  0  0  0  0
 27 28  1  0  0  0  0
 27 26  1  0  0  0  0
 29 30  1  0  0  0  0
M  END
>  <minimizedAffinity>
-4.89150715

$$$$

 OpenBabel03252503013D

 30 31  0  0  1  0  0  0  0  0999 V2000
   36.3080   30.6480   38.9360 N   0  0  0  0  0  0  0  0  0  0  0  0
   35.4560   31.1100   38.5880 H   0  0  0  0  0  0  0  0  0  0  0  0
   37.3740   30.8860   37.9490 C   0  0  0  0  0  0  0  0  0  0  0  0
   37.0770   31.6490   37.2170 H   0  0  0  0  0  0  0  0  0  0  0  0
   38.2390   31.3110   38.5390 H   0  0  0  0  0  0  0  0  0  0  0  0
   37.7850   29.3020   37.2370 S   0  0  0  0  0  0  0  0  0  0  0  0
   35.3490   28.6050   36.1410 C   0  0  0  0  0  0  0  0  0  0  0  0
   36.3020   28.2900   37.0910 C   0  0  0  0  0  0  0  0  0  0  0  0
   36.1350   27.1910   37.9490 C   0  0  0  0  0  0  0  0  0  0  0  0
   34.9940   26.4690   37.7880 N   0  0  0  0  0  0  0  0  0  0  0  0
   34.0980   26.8070   36.8580 C   0  0  0  0  0  0  0  0  0  0  0  0
   34.2260   27.8380   36.0320 N   0  0  0  0  0  0  0  0  0  0  0  0
   35.5050   29.4600   35.4910 H   0  0  0  0  0  0  0  0  0  0  0  0
   36.9020   26.9630   38.6940 H   0  0  0  0  0  0  0  0  0  0  0  0
   33.2590   26.1100   36.8870 H   0  0  0  0  0  0  0  0  0  0  0  0
   36.7550   31.2710   40.4800 S   0  0  0  0  0  0  0  0  0  0  0  0
   36.9530   32.7330   40.4830 O   0  0  0  0  0  0  0  0  0  0  0  0
   36.1880   33.3370   40.3930 H   0  0  0  0  0  0  0  0  0  0  0  0
   35.6130   30.8740   41.4170 O   0  0  0  0  0  0  0  0  0  0  0  0
   35.6230   29.9340   41.7540 H   0  0  0  0  0  0  0  0  0  0  0  0
   38.0830   30.4360   41.0440 O   0  0  0  0  0  0  0  0  0  0  0  0
   37.8820   28.7970   42.8250 C   0  0  2  0  0  3  0  0  0  0  0  0
   37.6970   29.1620   41.3670 C   0  0  2  0  0  3  0  0  0  0  0  0
   38.5970   28.0990   40.7600 C   0  0  0  0  0  3  0  0  0  0  0  0
   38.2910   27.8760   39.7180 H   0  0  0  0  0  0  0  0  0  0  0  0
   38.4940   26.9810   41.5630 O   0  0  0  0  0  0  0  0  0  0  0  0
   37.7320   27.2760   42.6650 C   0  0  0  0  0  3  0  0  0  0  0  0
   36.6620   27.1170   42.3970 H   0  0  0  0  0  0  0  0  0  0  0  0
   36.9480   29.3260   43.6690 O   0  0  0  0  0  0  0  0  0  0  0  0
   36.1490   28.7830   43.7800 H   0  0  0  0  0  0  0  0  0  0  0  0
  1 16  1  0  0  0  0
  2  1  1  0  0  0  0
  3  5  1  0  0  0  0
  3  1  1  0  0  0  0
  4  3  1  0  0  0  0
  6  3  1  0  0  0  0
  7  8  1  0  0  0  0
  8  6  1  0  0  0  0
  8  9  2  0  0  0  0
  9 14  1  0  0  0  0
 10  9  1  0  0  0  0
 11 15  1  0  0  0  0
 11 10  2  0  0  0  0
 12  7  2  0  0  0  0
 12 11  1  0  0  0  0
 13  7  1  0  0  0  0
 16 17  1  0  0  0  0
 16 21  1  0  0  0  0
 16 19  1  0  0  0  0
 18 17  1  0  0  0  0
 19 20  1  0  0  0  0
 22 29  1  1  0  0  0
 23 21  1  1  0  0  0
 23 22  1  0  0  0  0
 24 23  1  0  0  0  0
 24 26  1  0  0  0  0
 25 24  1  0  0  0  0
 26 27  1  0  0  0  0
 27 22  1  0  0  0  0
 28 27  1  0  0  0  0
 29 30  1  0  0  0  0
M  END
>  <minimizedAffinity>
-4.64087296

$$$$

 OpenBabel03252503013D

 30 31  0  0  1  0  0  0  0  0999 V2000
   37.0650   29.5010   39.5690 N   0  0  0  0  0  0  0  0  0  0  0  0
   36.7210   28.5950   39.2220 H   0  0  0  0  0  0  0  0  0  0  0  0
   36.6670   30.5290   38.5920 C   0  0  0  0  0  0  0  0  0  0  0  0
   35.9020   30.1490   37.9030 H   0  0  0  0  0  0  0  0  0  0  0  0
   36.1880   31.3510   39.2010 H   0  0  0  0  0  0  0  0  0  0  0  0
   38.1620   31.0920   37.7960 S   0  0  0  0  0  0  0  0  0  0  0  0
   38.2540   33.0200   39.7710 C   0  0  0  0  0  0  0  0  0  0  0  0
   38.9830   32.3200   38.8280 C   0  0  0  0  0  0  0  0  0  0  0  0
   40.3580   32.5490   38.6580 C   0  0  0  0  0  0  0  0  0  0  0  0
   40.9160   33.4890   39.4680 N   0  0  0  0  0  0  0  0  0  0  0  0
   40.1770   34.1420   40.3670 C   0  0  0  0  0  0  0  0  0  0  0  0
   38.8770   33.9490   40.5520 N   0  0  0  0  0  0  0  0  0  0  0  0
   37.1920   32.8210   39.8790 H   0  0  0  0  0  0  0  0  0  0  0  0
   40.9130   31.9840   37.9050 H   0  0  0  0  0  0  0  0  0  0  0  0
   40.8030   34.8480   40.9130 H   0  0  0  0  0  0  0  0  0  0  0  0
   36.4060   29.8490   41.1240 S   0  0  0  0  0  0  0  0  0  0  0  0
   35.6920   31.1400   41.1790 O   0  0  0  0  0  0  0  0  0  0  0  0
   34.8330   31.2500   40.7240 H   0  0  0  0  0  0  0  0  0  0  0  0
   35.4570   28.6890   41.4260 O   0  0  0  0  0  0  0  0  0  0  0  0
   35.8800   27.8450   41.7530 H   0  0  0  0  0  0  0  0  0  0  0  0
   37.6120   29.7270   42.2690 O   0  0  0  0  0  0  0  0  0  0  0  0
   37.9180   27.6200   43.4390 C   0  0  2  0  0  3  0  0  0  0  0  0
   38.1510   28.4690   42.2070 C   0  0  2  0  0  3  0  0  0  0  0  0
   39.6710   28.4750   42.2310 C   0  0  0  0  0  3  0  0  0  0  0  0
   40.0770   28.6480   41.2140 H   0  0  0  0  0  0  0  0  0  0  0  0
   40.0680   27.2510   42.7280 O   0  0  0  0  0  0  0  0  0  0  0  0
   38.9660   26.5400   43.1320 C   0  0  0  0  0  3  0  0  0  0  0  0
   38.5670   25.9910   42.2480 H   0  0  0  0  0  0  0  0  0  0  0  0
   36.6570   27.1060   43.5480 O   0  0  0  0  0  0  0  0  0  0  0  0
   36.5300   26.2500   43.1050 H   0  0  0  0  0  0  0  0  0  0  0  0
  1 16  1  0  0  0  0
  2  1  1  0  0  0  0
  3  5  1  0  0  0  0
  3  1  1  0  0  0  0
  4  3  1  0  0  0  0
  6  3  1  0  0  0  0
  6  8  1  0  0  0  0
  7 13  1  0  0  0  0
  7 12  1  0  0  0  0
  8  7  2  0  0  0  0
  9  8  1  0  0  0  0
  9 10  2  0  0  0  0
 10 11  1  0  0  0  0
 11 12  2  0  0  0  0
 11 15  1  0  0  0  0
 14  9  1  0  0  0  0
 16 17  1  0  0  0  0
 16 19  1  0  0  0  0
 16 21  1  0  0  0  0
 18 17  1  0  0  0  0
 19 20  1  0  0  0  0
 22 29  1  6  0  0  0
 23 24  1  0  0  0  0
 23 21  1  1  0  0  0
 23 22  1  0  0  0  0
 24 26  1  0  0  0  0
 25 24  1  0  0  0  0
 26 27  1  0  0  0  0
 27 22  1  0  0  0  0
 28 27  1  0  0  0  0
 30 29  1  0  0  0  0
M  END
>  <minimizedAffinity>
-4.63830519

$$$$
