
 OpenBabel03242521103D

 19 20  0  0  1  0  0  0  0  0999 V2000
   37.1640   28.5840   39.4810 S   0  0  0  0  0  0  0  0  0  0  0  0
   36.9220   27.6750   43.4090 C   0  0  0  0  0  0  0  0  0  0  0  0
   38.3010   27.3970   43.6800 C   0  0  0  0  0  0  0  0  0  0  0  0
   39.2240   27.5080   42.6420 C   0  0  0  0  0  0  0  0  0  0  0  0
   38.7730   27.8700   41.4210 N   0  0  0  0  0  0  0  0  0  0  0  0
   37.4690   28.1290   41.1780 C   0  0  0  0  0  0  0  0  0  0  0  0
   36.5440   28.0360   42.1540 N   0  0  0  0  0  0  0  0  0  0  0  0
   36.1660   27.6040   44.1850 H   0  0  0  0  0  0  0  0  0  0  0  0
   38.5440   27.1190   44.6900 H   0  0  0  0  0  0  0  0  0  0  0  0
   40.2610   27.2990   42.8610 H   0  0  0  0  0  0  0  0  0  0  0  0
   36.7640   31.1110   40.5170 C   0  0  1  0  0  3  0  0  0  0  0  0
   36.4470   30.2250   39.3310 C   0  0  1  0  0  3  0  0  0  0  0  0
   37.1870   30.9480   38.2320 C   0  0  0  0  0  3  0  0  0  0  0  0
   38.2320   30.5400   38.1710 H   0  0  0  0  0  0  0  0  0  0  0  0
   37.2760   32.2850   38.5620 O   0  0  0  0  0  0  0  0  0  0  0  0
   36.8850   32.4560   39.8790 C   0  0  0  0  0  3  0  0  0  0  0  0
   35.9480   33.0230   39.9050 H   0  0  0  0  0  0  0  0  0  0  0  0
   35.7000   31.1110   41.3880 O   0  0  0  0  0  0  0  0  0  0  0  0
   34.8760   31.1840   40.8220 H   0  0  0  0  0  0  0  0  0  0  0  0
  1  6  1  0  0  0  0
  2  3  1  0  0  0  0
  2  8  1  0  0  0  0
  3  9  1  0  0  0  0
  4 10  1  0  0  0  0
  4  3  2  0  0  0  0
  5  4  1  0  0  0  0
  6  5  2  0  0  0  0
  6  7  1  0  0  0  0
  7  2  2  0  0  0  0
 11 18  1  1  0  0  0
 12  1  1  1  0  0  0
 12 11  1  0  0  0  0
 13 15  1  0  0  0  0
 13 12  1  0  0  0  0
 14 13  1  0  0  0  0
 15 16  1  0  0  0  0
 16 17  1  0  0  0  0
 16 11  1  0  0  0  0
 19 18  1  0  0  0  0
M  END
>  <minimizedAffinity>
-4.23423433

$$$$

 OpenBabel03242521103D

 19 20  0  0  1  0  0  0  0  0999 V2000
   35.8340   30.0390   40.3920 S   0  0  0  0  0  0  0  0  0  0  0  0
   37.4330   26.7700   42.1450 C   0  0  0  0  0  0  0  0  0  0  0  0
   38.0540   27.3820   43.2810 C   0  0  0  0  0  0  0  0  0  0  0  0
   37.9430   28.7620   43.4440 C   0  0  0  0  0  0  0  0  0  0  0  0
   37.2540   29.4610   42.5160 N   0  0  0  0  0  0  0  0  0  0  0  0
   36.6740   28.8720   41.4480 C   0  0  0  0  0  0  0  0  0  0  0  0
   36.7550   27.5410   41.2540 N   0  0  0  0  0  0  0  0  0  0  0  0
   37.4900   25.6990   41.9760 H   0  0  0  0  0  0  0  0  0  0  0  0
   38.5750   26.7250   43.9550 H   0  0  0  0  0  0  0  0  0  0  0  0
   38.4130   29.2100   44.3080 H   0  0  0  0  0  0  0  0  0  0  0  0
   37.5360   32.2090   40.3070 C   0  0  1  0  0  3  0  0  0  0  0  0
   36.9770   31.0760   39.4730 C   0  0  1  0  0  3  0  0  0  0  0  0
   38.2260   30.2660   39.2210 C   0  0  0  0  0  3  0  0  0  0  0  0
   38.3410   29.5120   40.0460 H   0  0  0  0  0  0  0  0  0  0  0  0
   39.3180   31.1100   39.2670 O   0  0  0  0  0  0  0  0  0  0  0  0
   38.9230   32.3380   39.7680 C   0  0  0  0  0  3  0  0  0  0  0  0
   39.0010   33.0910   38.9760 H   0  0  0  0  0  0  0  0  0  0  0  0
   36.8340   33.3620   40.0460 O   0  0  0  0  0  0  0  0  0  0  0  0
   36.7040   33.3900   39.0520 H   0  0  0  0  0  0  0  0  0  0  0  0
  1  6  1  0  0  0  0
  2  3  1  0  0  0  0
  3  4  2  0  0  0  0
  3  9  1  0  0  0  0
  4 10  1  0  0  0  0
  5  4  1  0  0  0  0
  6  5  2  0  0  0  0
  7  6  1  0  0  0  0
  7  2  2  0  0  0  0
  8  2  1  0  0  0  0
 11 18  1  6  0  0  0
 12 11  1  0  0  0  0
 12  1  1  1  0  0  0
 13 15  1  0  0  0  0
 13 12  1  0  0  0  0
 13 14  1  0  0  0  0
 15 16  1  0  0  0  0
 16 11  1  0  0  0  0
 17 16  1  0  0  0  0
 19 18  1  0  0  0  0
M  END
>  <minimizedAffinity>
-4.09067297

$$$$

 OpenBabel03242521103D

 19 20  0  0  1  0  0  0  0  0999 V2000
   39.4740   30.0760   41.4960 S   0  0  0  0  0  0  0  0  0  0  0  0
   38.5640   33.8720   40.4590 C   0  0  0  0  0  0  0  0  0  0  0  0
   37.4690   33.6260   39.5710 C   0  0  0  0  0  0  0  0  0  0  0  0
   37.0720   32.3090   39.3430 C   0  0  0  0  0  0  0  0  0  0  0  0
   37.7450   31.3220   39.9730 N   0  0  0  0  0  0  0  0  0  0  0  0
   38.7780   31.5670   40.8090 C   0  0  0  0  0  0  0  0  0  0  0  0
   39.1920   32.8240   41.0570 N   0  0  0  0  0  0  0  0  0  0  0  0
   38.9090   34.8800   40.6690 H   0  0  0  0  0  0  0  0  0  0  0  0
   37.0070   34.4900   39.1270 H   0  0  0  0  0  0  0  0  0  0  0  0
   36.2410   32.1380   38.6730 H   0  0  0  0  0  0  0  0  0  0  0  0
   37.2330   28.5120   41.8780 C   0  0  1  0  0  3  0  0  0  0  0  0
   38.3400   29.2410   42.6100 C   0  0  1  0  0  3  0  0  0  0  0  0
   39.0800   28.0800   43.2300 C   0  0  0  0  0  3  0  0  0  0  0  0
   39.8740   27.7340   42.5140 H   0  0  0  0  0  0  0  0  0  0  0  0
   38.1950   27.0370   43.4140 O   0  0  0  0  0  0  0  0  0  0  0  0
   37.0150   27.3180   42.7480 C   0  0  0  0  0  3  0  0  0  0  0  0
   36.2150   27.4700   43.4820 H   0  0  0  0  0  0  0  0  0  0  0  0
   36.0980   29.2880   41.8710 O   0  0  0  0  0  0  0  0  0  0  0  0
   36.0180   29.6730   42.7930 H   0  0  0  0  0  0  0  0  0  0  0  0
  2  8  1  0  0  0  0
  2  7  1  0  0  0  0
  3  2  2  0  0  0  0
  4  3  1  0  0  0  0
  4  5  2  0  0  0  0
  5  6  1  0  0  0  0
  6  7  2  0  0  0  0
  6  1  1  0  0  0  0
  9  3  1  0  0  0  0
 10  4  1  0  0  0  0
 11 18  1  1  0  0  0
 11 12  1  0  0  0  0
 11 16  1  0  0  0  0
 12  1  1  6  0  0  0
 12 13  1  0  0  0  0
 13 15  1  0  0  0  0
 14 13  1  0  0  0  0
 16 15  1  0  0  0  0
 16 17  1  0  0  0  0
 18 19  1  0  0  0  0
M  END
>  <minimizedAffinity>
-3.92269731

$$$$

 OpenBabel03242521103D

 19 20  0  0  1  0  0  0  0  0999 V2000
   39.6260   30.1980   40.7280 S   0  0  0  0  0  0  0  0  0  0  0  0
   36.2580   28.2150   41.7480 C   0  0  0  0  0  0  0  0  0  0  0  0
   36.6780   27.6470   42.9940 C   0  0  0  0  0  0  0  0  0  0  0  0
   37.9690   27.9090   43.4490 C   0  0  0  0  0  0  0  0  0  0  0  0
   38.7700   28.6870   42.6890 N   0  0  0  0  0  0  0  0  0  0  0  0
   38.3620   29.2150   41.5140 C   0  0  0  0  0  0  0  0  0  0  0  0
   37.1220   28.9890   41.0380 N   0  0  0  0  0  0  0  0  0  0  0  0
   35.2630   28.0410   41.3520 H   0  0  0  0  0  0  0  0  0  0  0  0
   35.9550   27.0450   43.5140 H   0  0  0  0  0  0  0  0  0  0  0  0
   38.2720   27.4770   44.3930 H   0  0  0  0  0  0  0  0  0  0  0  0
   38.1510   32.5310   40.7500 C   0  0  1  0  0  3  0  0  0  0  0  0
   38.9470   31.6100   39.8490 C   0  0  1  0  0  3  0  0  0  0  0  0
   40.0990   32.5100   39.4720 C   0  0  0  0  0  3  0  0  0  0  0  0
   40.9240   32.3760   40.2230 H   0  0  0  0  0  0  0  0  0  0  0  0
   39.6780   33.8220   39.5400 O   0  0  0  0  0  0  0  0  0  0  0  0
   38.4420   33.8720   40.1620 C   0  0  0  0  0  3  0  0  0  0  0  0
   37.6860   34.1880   39.4340 H   0  0  0  0  0  0  0  0  0  0  0  0
   36.8110   32.2550   40.6210 O   0  0  0  0  0  0  0  0  0  0  0  0
   36.6450   32.1280   39.6410 H   0  0  0  0  0  0  0  0  0  0  0  0
  1  6  1  0  0  0  0
  2  3  1  0  0  0  0
  3  4  2  0  0  0  0
  3  9  1  0  0  0  0
  4 10  1  0  0  0  0
  5  4  1  0  0  0  0
  6  5  2  0  0  0  0
  7  6  1  0  0  0  0
  7  2  2  0  0  0  0
  8  2  1  0  0  0  0
 11 18  1  6  0  0  0
 12  1  1  1  0  0  0
 12 11  1  0  0  0  0
 13 15  1  0  0  0  0
 13 12  1  0  0  0  0
 13 14  1  0  0  0  0
 15 16  1  0  0  0  0
 16 11  1  0  0  0  0
 17 16  1  0  0  0  0
 19 18  1  0  0  0  0
M  END
>  <minimizedAffinity>
-3.89477634

$$$$

 OpenBabel03242521103D

 19 20  0  0  1  0  0  0  0  0999 V2000
   38.6410   28.6510   40.1310 S   0  0  0  0  0  0  0  0  0  0  0  0
   38.2160   32.6320   40.6670 C   0  0  0  0  0  0  0  0  0  0  0  0
   37.4990   32.9630   39.4720 C   0  0  0  0  0  0  0  0  0  0  0  0
   37.1860   31.9450   38.5730 C   0  0  0  0  0  0  0  0  0  0  0  0
   37.5780   30.6870   38.8710 N   0  0  0  0  0  0  0  0  0  0  0  0
   38.2550   30.3870   40.0010 C   0  0  0  0  0  0  0  0  0  0  0  0
   38.5760   31.3410   40.8970 N   0  0  0  0  0  0  0  0  0  0  0  0
   38.4810   33.3890   41.3980 H   0  0  0  0  0  0  0  0  0  0  0  0
   37.2370   33.9980   39.3410 H   0  0  0  0  0  0  0  0  0  0  0  0
   36.6420   32.2080   37.6780 H   0  0  0  0  0  0  0  0  0  0  0  0
   36.9840   28.4070   42.3240 C   0  0  1  0  0  3  0  0  0  0  0  0
   38.3380   28.0030   41.7790 C   0  0  1  0  0  3  0  0  0  0  0  0
   38.1590   26.5090   41.6560 C   0  0  0  0  0  3  0  0  0  0  0  0
   37.7540   26.2760   40.6340 H   0  0  0  0  0  0  0  0  0  0  0  0
   37.2240   26.0970   42.5840 O   0  0  0  0  0  0  0  0  0  0  0  0
   36.5990   27.2070   43.1250 C   0  0  0  0  0  3  0  0  0  0  0  0
   36.8770   27.2960   44.1820 H   0  0  0  0  0  0  0  0  0  0  0  0
   37.1290   29.4890   43.1600 O   0  0  0  0  0  0  0  0  0  0  0  0
   37.9400   29.3030   43.7180 H   0  0  0  0  0  0  0  0  0  0  0  0
  2  7  1  0  0  0  0
  2  8  1  0  0  0  0
  3  2  2  0  0  0  0
  4  5  2  0  0  0  0
  4  3  1  0  0  0  0
  5  6  1  0  0  0  0
  6  1  1  0  0  0  0
  6  7  2  0  0  0  0
  9  3  1  0  0  0  0
 10  4  1  0  0  0  0
 11 16  1  0  0  0  0
 11 18  1  1  0  0  0
 12  1  1  6  0  0  0
 12 11  1  0  0  0  0
 13 12  1  0  0  0  0
 13 15  1  0  0  0  0
 14 13  1  0  0  0  0
 15 16  1  0  0  0  0
 16 17  1  0  0  0  0
 18 19  1  0  0  0  0
M  END
>  <minimizedAffinity>
-3.85691428

$$$$

 OpenBabel03242521103D

 19 20  0  0  1  0  0  0  0  0999 V2000
   38.6770   28.7120   40.0550 S   0  0  0  0  0  0  0  0  0  0  0  0
   37.1810   32.2330   38.7580 C   0  0  0  0  0  0  0  0  0  0  0  0
   37.6620   33.0970   39.7930 C   0  0  0  0  0  0  0  0  0  0  0  0
   38.4200   32.5500   40.8270 C   0  0  0  0  0  0  0  0  0  0  0  0
   38.6640   31.2220   40.8060 N   0  0  0  0  0  0  0  0  0  0  0  0
   38.2030   30.4150   39.8240 C   0  0  0  0  0  0  0  0  0  0  0  0
   37.4690   30.9040   38.8060 N   0  0  0  0  0  0  0  0  0  0  0  0
   36.5880   32.6120   37.9320 H   0  0  0  0  0  0  0  0  0  0  0  0
   37.4080   34.1390   39.7050 H   0  0  0  0  0  0  0  0  0  0  0  0
   38.7800   33.2140   41.6000 H   0  0  0  0  0  0  0  0  0  0  0  0
   36.9870   28.4210   42.2170 C   0  0  1  0  0  3  0  0  0  0  0  0
   38.3970   28.1450   41.7360 C   0  0  1  0  0  3  0  0  0  0  0  0
   38.3980   26.6350   41.7150 C   0  0  0  0  0  3  0  0  0  0  0  0
   38.0570   26.2880   40.7020 H   0  0  0  0  0  0  0  0  0  0  0  0
   37.4860   26.1780   42.6450 O   0  0  0  0  0  0  0  0  0  0  0  0
   36.7190   27.2390   43.0910 C   0  0  0  0  0  3  0  0  0  0  0  0
   36.9480   27.4320   44.1450 H   0  0  0  0  0  0  0  0  0  0  0  0
   36.9770   29.5650   42.9780 O   0  0  0  0  0  0  0  0  0  0  0  0
   37.7850   29.5150   43.5690 H   0  0  0  0  0  0  0  0  0  0  0  0
  2  7  2  0  0  0  0
  2  3  1  0  0  0  0
  3  4  2  0  0  0  0
  4 10  1  0  0  0  0
  5  4  1  0  0  0  0
  6  1  1  0  0  0  0
  6  5  2  0  0  0  0
  7  6  1  0  0  0  0
  8  2  1  0  0  0  0
  9  3  1  0  0  0  0
 11 18  1  1  0  0  0
 11 16  1  0  0  0  0
 12  1  1  6  0  0  0
 12 11  1  0  0  0  0
 13 12  1  0  0  0  0
 13 15  1  0  0  0  0
 14 13  1  0  0  0  0
 15 16  1  0  0  0  0
 16 17  1  0  0  0  0
 18 19  1  0  0  0  0
M  END
>  <minimizedAffinity>
-3.79002976

$$$$

 OpenBabel03242521103D

 19 20  0  0  1  0  0  0  0  0999 V2000
   38.2990   28.5350   42.2790 S   0  0  0  0  0  0  0  0  0  0  0  0
   37.0110   24.7130   42.0610 C   0  0  0  0  0  0  0  0  0  0  0  0
   38.2500   24.0550   41.7720 C   0  0  0  0  0  0  0  0  0  0  0  0
   39.4080   24.8230   41.6630 C   0  0  0  0  0  0  0  0  0  0  0  0
   39.3070   26.1590   41.8330 N   0  0  0  0  0  0  0  0  0  0  0  0
   38.1320   26.7680   42.1050 C   0  0  0  0  0  0  0  0  0  0  0  0
   36.9900   26.0630   42.2210 N   0  0  0  0  0  0  0  0  0  0  0  0
   36.0830   24.1590   42.1570 H   0  0  0  0  0  0  0  0  0  0  0  0
   38.2090   22.9860   41.6580 H   0  0  0  0  0  0  0  0  0  0  0  0
   40.3360   24.3130   41.4470 H   0  0  0  0  0  0  0  0  0  0  0  0
   36.7020   30.5390   41.2570 C   0  0  1  0  0  3  0  0  0  0  0  0
   37.6500   29.4270   40.8620 C   0  0  1  0  0  3  0  0  0  0  0  0
   38.7860   30.2230   40.2640 C   0  0  0  0  0  3  0  0  0  0  0  0
   39.5220   30.4690   41.0770 H   0  0  0  0  0  0  0  0  0  0  0  0
   38.2850   31.4120   39.7750 O   0  0  0  0  0  0  0  0  0  0  0  0
   36.9840   31.5740   40.2170 C   0  0  0  0  0  3  0  0  0  0  0  0
   36.3020   31.5100   39.3610 H   0  0  0  0  0  0  0  0  0  0  0  0
   35.4040   30.1040   41.1300 O   0  0  0  0  0  0  0  0  0  0  0  0
   35.3640   29.5950   40.2680 H   0  0  0  0  0  0  0  0  0  0  0  0
  2  8  1  0  0  0  0
  2  7  1  0  0  0  0
  3  2  2  0  0  0  0
  4  3  1  0  0  0  0
  4  5  2  0  0  0  0
  5  6  1  0  0  0  0
  6  7  2  0  0  0  0
  6  1  1  0  0  0  0
  9  3  1  0  0  0  0
 10  4  1  0  0  0  0
 11 18  1  6  0  0  0
 12 11  1  0  0  0  0
 12  1  1  1  0  0  0
 13 12  1  0  0  0  0
 13 14  1  0  0  0  0
 15 16  1  0  0  0  0
 15 13  1  0  0  0  0
 16 11  1  0  0  0  0
 17 16  1  0  0  0  0
 19 18  1  0  0  0  0
M  END
>  <minimizedAffinity>
-3.72221661

$$$$

 OpenBabel03242521103D

 19 20  0  0  1  0  0  0  0  0999 V2000
   38.9010   29.6920   40.7380 S   0  0  0  0  0  0  0  0  0  0  0  0
   37.8140   33.5090   39.9840 C   0  0  0  0  0  0  0  0  0  0  0  0
   39.0760   34.1610   40.1620 C   0  0  0  0  0  0  0  0  0  0  0  0
   40.1880   33.3910   40.5000 C   0  0  0  0  0  0  0  0  0  0  0  0
   40.0210   32.0590   40.6480 N   0  0  0  0  0  0  0  0  0  0  0  0
   38.8240   31.4550   40.4790 C   0  0  0  0  0  0  0  0  0  0  0  0
   37.7250   32.1620   40.1500 N   0  0  0  0  0  0  0  0  0  0  0  0
   36.9200   34.0650   39.7190 H   0  0  0  0  0  0  0  0  0  0  0  0
   39.0900   35.2270   40.0160 H   0  0  0  0  0  0  0  0  0  0  0  0
   41.1350   33.8960   40.6280 H   0  0  0  0  0  0  0  0  0  0  0  0
   36.8600   28.1240   41.7320 C   0  0  1  0  0  3  0  0  0  0  0  0
   37.8930   29.1590   42.1250 C   0  0  1  0  0  3  0  0  0  0  0  0
   38.7730   28.3460   43.0430 C   0  0  0  0  0  3  0  0  0  0  0  0
   39.5860   27.8660   42.4340 H   0  0  0  0  0  0  0  0  0  0  0  0
   38.0160   27.3370   43.6050 O   0  0  0  0  0  0  0  0  0  0  0  0
   36.7980   27.2660   42.9530 C   0  0  0  0  0  3  0  0  0  0  0  0
   36.0020   27.5680   43.6430 H   0  0  0  0  0  0  0  0  0  0  0  0
   35.6450   28.7370   41.5410 O   0  0  0  0  0  0  0  0  0  0  0  0
   35.5420   29.3930   42.2910 H   0  0  0  0  0  0  0  0  0  0  0  0
  2  7  2  0  0  0  0
  2  3  1  0  0  0  0
  3  4  2  0  0  0  0
  4 10  1  0  0  0  0
  4  5  1  0  0  0  0
  6  5  2  0  0  0  0
  6  1  1  0  0  0  0
  7  6  1  0  0  0  0
  8  2  1  0  0  0  0
  9  3  1  0  0  0  0
 11 18  1  1  0  0  0
 11 12  1  0  0  0  0
 11 16  1  0  0  0  0
 12  1  1  6  0  0  0
 12 13  1  0  0  0  0
 13 15  1  0  0  0  0
 14 13  1  0  0  0  0
 16 15  1  0  0  0  0
 16 17  1  0  0  0  0
 18 19  1  0  0  0  0
M  END
>  <minimizedAffinity>
-3.71541405

$$$$

 OpenBabel03242521103D

 19 20  0  0  1  0  0  0  0  0999 V2000
   37.1580   30.9290   40.3300 S   0  0  0  0  0  0  0  0  0  0  0  0
   37.7130   28.4280   43.4530 C   0  0  0  0  0  0  0  0  0  0  0  0
   37.3210   27.1920   42.8460 C   0  0  0  0  0  0  0  0  0  0  0  0
   36.9120   27.1970   41.5140 C   0  0  0  0  0  0  0  0  0  0  0  0
   36.9010   28.3760   40.8540 N   0  0  0  0  0  0  0  0  0  0  0  0
   37.2720   29.5370   41.4380 C   0  0  0  0  0  0  0  0  0  0  0  0
   37.6760   29.5750   42.7220 N   0  0  0  0  0  0  0  0  0  0  0  0
   38.0400   28.4750   44.4870 H   0  0  0  0  0  0  0  0  0  0  0  0
   37.3710   26.3160   43.4680 H   0  0  0  0  0  0  0  0  0  0  0  0
   36.6220   26.2570   41.0680 H   0  0  0  0  0  0  0  0  0  0  0  0
   39.6290   31.9710   40.9830 C   0  0  1  0  0  3  0  0  0  0  0  0
   38.1590   32.3190   40.8730 C   0  0  1  0  0  3  0  0  0  0  0  0
   38.1900   33.3250   39.7480 C   0  0  0  0  0  3  0  0  0  0  0  0
   38.0660   32.7820   38.7720 H   0  0  0  0  0  0  0  0  0  0  0  0
   39.4280   33.9360   39.7330 O   0  0  0  0  0  0  0  0  0  0  0  0
   40.2840   33.2510   40.5780 C   0  0  0  0  0  3  0  0  0  0  0  0
   40.5310   33.8890   41.4340 H   0  0  0  0  0  0  0  0  0  0  0  0
   39.9380   31.6930   42.2940 O   0  0  0  0  0  0  0  0  0  0  0  0
   39.4700   32.3870   42.8440 H   0  0  0  0  0  0  0  0  0  0  0  0
  1  6  1  0  0  0  0
  2  8  1  0  0  0  0
  3  2  1  0  0  0  0
  3  9  1  0  0  0  0
  4  3  2  0  0  0  0
  5  6  2  0  0  0  0
  5  4  1  0  0  0  0
  6  7  1  0  0  0  0
  7  2  2  0  0  0  0
 10  4  1  0  0  0  0
 11 18  1  1  0  0  0
 12  1  1  6  0  0  0
 12 11  1  0  0  0  0
 13 12  1  0  0  0  0
 14 13  1  0  0  0  0
 15 13  1  0  0  0  0
 15 16  1  0  0  0  0
 16 11  1  0  0  0  0
 16 17  1  0  0  0  0
 18 19  1  0  0  0  0
M  END
>  <minimizedAffinity>
-3.71150398

$$$$
