
 OpenBabel03252503013D

 30 31  0  0  1  0  0  0  0  0999 V2000
   42.8560   35.6090   42.7400 N   0  0  0  0  0  0  0  0  0  0  0  0
   42.4910   36.5300   43.0210 H   0  0  0  0  0  0  0  0  0  0  0  0
   42.9800   35.6110   41.2730 C   0  0  0  0  0  0  0  0  0  0  0  0
   42.4020   36.4300   40.8250 H   0  0  0  0  0  0  0  0  0  0  0  0
   44.0700   35.8210   41.0640 H   0  0  0  0  0  0  0  0  0  0  0  0
   42.5090   33.9840   40.7110 S   0  0  0  0  0  0  0  0  0  0  0  0
   39.7630   34.0430   40.4400 C   0  0  0  0  0  0  0  0  0  0  0  0
   40.9730   34.0760   39.7750 C   0  0  0  0  0  0  0  0  0  0  0  0
   41.0280   34.1810   38.3750 C   0  0  0  0  0  0  0  0  0  0  0  0
   39.8340   34.2470   37.7290 N   0  0  0  0  0  0  0  0  0  0  0  0
   38.6860   34.2120   38.4090 C   0  0  0  0  0  0  0  0  0  0  0  0
   38.6000   34.1130   39.7300 N   0  0  0  0  0  0  0  0  0  0  0  0
   39.7510   33.9610   41.5230 H   0  0  0  0  0  0  0  0  0  0  0  0
   41.9980   34.2050   37.8710 H   0  0  0  0  0  0  0  0  0  0  0  0
   37.8460   34.2750   37.7160 H   0  0  0  0  0  0  0  0  0  0  0  0
   44.3830   35.3050   43.4810 S   0  0  0  0  0  0  0  0  0  0  0  0
   45.4500   36.2080   43.0080 O   0  0  0  0  0  0  0  0  0  0  0  0
   45.4470   37.1530   43.2620 H   0  0  0  0  0  0  0  0  0  0  0  0
   44.1430   35.4840   44.9810 O   0  0  0  0  0  0  0  0  0  0  0  0
   43.7180   34.7150   45.4560 H   0  0  0  0  0  0  0  0  0  0  0  0
   44.7690   33.6940   43.2970 O   0  0  0  0  0  0  0  0  0  0  0  0
   47.1030   34.1220   43.8160 C   0  0  2  0  0  3  0  0  0  0  0  0
   46.0610   33.5990   42.8490 C   0  0  2  0  0  3  0  0  0  0  0  0
   46.3530   34.5340   41.6860 C   0  0  0  0  0  3  0  0  0  0  0  0
   46.0380   34.0750   40.7280 H   0  0  0  0  0  0  0  0  0  0  0  0
   47.7120   34.7790   41.7030 O   0  0  0  0  0  0  0  0  0  0  0  0
   48.2680   34.2060   42.8180 C   0  0  0  0  0  3  0  0  0  0  0  0
   48.5170   33.1470   42.5730 H   0  0  0  0  0  0  0  0  0  0  0  0
   47.3750   33.2920   44.8660 O   0  0  0  0  0  0  0  0  0  0  0  0
   48.0690   32.6350   44.6910 H   0  0  0  0  0  0  0  0  0  0  0  0
  1  2  1  0  0  0  0
  1 16  1  0  0  0  0
  3  1  1  0  0  0  0
  4  3  1  0  0  0  0
  5  3  1  0  0  0  0
  6  3  1  0  0  0  0
  7 13  1  0  0  0  0
  8  7  1  0  0  0  0
  8  6  1  0  0  0  0
  9  8  2  0  0  0  0
 10  9  1  0  0  0  0
 10 11  2  0  0  0  0
 11 12  1  0  0  0  0
 12  7  2  0  0  0  0
 14  9  1  0  0  0  0
 15 11  1  0  0  0  0
 16 19  1  0  0  0  0
 17 18  1  0  0  0  0
 17 16  1  0  0  0  0
 19 20  1  0  0  0  0
 21 16  1  0  0  0  0
 22 29  1  1  0  0  0
 23 21  1  1  0  0  0
 23 22  1  0  0  0  0
 24 26  1  0  0  0  0
 24 23  1  0  0  0  0
 25 24  1  0  0  0  0
 26 27  1  0  0  0  0
 27 22  1  0  0  0  0
 28 27  1  0  0  0  0
 30 29  1  0  0  0  0
M  END
>  <minimizedAffinity>
-5.05573845

>  <minimizedRMSD>
2.1236639

$$$$
