
 OpenBabel03252503013D

 30 31  0  0  1  0  0  0  0  0999 V2000
   43.4840   35.8920   42.4700 N   0  0  0  0  0  0  0  0  0  0  0  0
   43.1970   36.8600   42.2690 H   0  0  0  0  0  0  0  0  0  0  0  0
   43.7330   35.2280   41.1790 C   0  0  0  0  0  0  0  0  0  0  0  0
   43.5750   35.9180   40.3390 H   0  0  0  0  0  0  0  0  0  0  0  0
   44.8300   34.9600   41.1870 H   0  0  0  0  0  0  0  0  0  0  0  0
   42.7050   33.7700   41.1390 S   0  0  0  0  0  0  0  0  0  0  0  0
   40.0910   34.4630   40.5850 C   0  0  0  0  0  0  0  0  0  0  0  0
   41.2940   34.0420   40.0520 C   0  0  0  0  0  0  0  0  0  0  0  0
   41.4380   33.8190   38.6730 C   0  0  0  0  0  0  0  0  0  0  0  0
   40.3350   34.0420   37.9090 N   0  0  0  0  0  0  0  0  0  0  0  0
   39.1920   34.4490   38.4630 C   0  0  0  0  0  0  0  0  0  0  0  0
   39.0230   34.6690   39.7610 N   0  0  0  0  0  0  0  0  0  0  0  0
   40.0090   34.6270   41.6550 H   0  0  0  0  0  0  0  0  0  0  0  0
   42.4000   33.4840   38.2750 H   0  0  0  0  0  0  0  0  0  0  0  0
   38.4320   34.5700   37.6890 H   0  0  0  0  0  0  0  0  0  0  0  0
   44.9000   35.8650   43.4530 S   0  0  0  0  0  0  0  0  0  0  0  0
   46.1480   35.7520   42.6740 O   0  0  0  0  0  0  0  0  0  0  0  0
   46.4640   36.5030   42.1340 H   0  0  0  0  0  0  0  0  0  0  0  0
   44.8660   37.1770   44.2390 O   0  0  0  0  0  0  0  0  0  0  0  0
   44.2670   37.1990   45.0380 H   0  0  0  0  0  0  0  0  0  0  0  0
   44.7440   34.6700   44.6050 O   0  0  0  0  0  0  0  0  0  0  0  0
   45.8330   32.6130   43.9090 C   0  0  2  0  0  3  0  0  0  0  0  0
   45.9020   33.9390   44.6390 C   0  0  2  0  0  3  0  0  0  0  0  0
   46.2270   33.4080   46.0270 C   0  0  0  0  0  3  0  0  0  0  0  0
   46.7510   34.1790   46.6260 H   0  0  0  0  0  0  0  0  0  0  0  0
   47.0120   32.2870   45.8500 O   0  0  0  0  0  0  0  0  0  0  0  0
   47.1020   31.9930   44.5130 C   0  0  0  0  0  3  0  0  0  0  0  0
   47.9460   32.5850   44.0870 H   0  0  0  0  0  0  0  0  0  0  0  0
   45.8970   32.7070   42.5480 O   0  0  0  0  0  0  0  0  0  0  0  0
   46.7990   32.7000   42.1850 H   0  0  0  0  0  0  0  0  0  0  0  0
  1 16  1  0  0  0  0
  2  1  1  0  0  0  0
  3  5  1  0  0  0  0
  3  1  1  0  0  0  0
  4  3  1  0  0  0  0
  6  3  1  0  0  0  0
  7 13  1  0  0  0  0
  8  7  1  0  0  0  0
  8  6  1  0  0  0  0
  9  8  2  0  0  0  0
 10 11  2  0  0  0  0
 10  9  1  0  0  0  0
 11 12  1  0  0  0  0
 12  7  2  0  0  0  0
 14  9  1  0  0  0  0
 15 11  1  0  0  0  0
 16 19  1  0  0  0  0
 16 21  1  0  0  0  0
 17 16  1  0  0  0  0
 18 17  1  0  0  0  0
 19 20  1  0  0  0  0
 22 29  1  6  0  0  0
 22 27  1  0  0  0  0
 22 23  1  0  0  0  0
 23 21  1  1  0  0  0
 23 24  1  0  0  0  0
 24 25  1  0  0  0  0
 26 24  1  0  0  0  0
 27 26  1  0  0  0  0
 28 27  1  0  0  0  0
 30 29  1  0  0  0  0
M  END
>  <minimizedAffinity>
-4.72289371

>  <minimizedRMSD>
1.31548166

$$$$
