
 OpenBabel03252503013D

 30 31  0  0  1  0  0  0  0  0999 V2000
   43.4830   35.9390   42.3490 N   0  0  0  0  0  0  0  0  0  0  0  0
   43.2800   36.9170   42.1020 H   0  0  0  0  0  0  0  0  0  0  0  0
   43.6940   35.2000   41.0930 C   0  0  0  0  0  0  0  0  0  0  0  0
   43.3820   35.7950   40.2230 H   0  0  0  0  0  0  0  0  0  0  0  0
   44.8110   35.0570   41.0140 H   0  0  0  0  0  0  0  0  0  0  0  0
   42.8450   33.6390   41.2600 S   0  0  0  0  0  0  0  0  0  0  0  0
   40.1510   33.0370   41.3000 C   0  0  0  0  0  0  0  0  0  0  0  0
   41.1370   33.8050   40.7110 C   0  0  0  0  0  0  0  0  0  0  0  0
   40.8320   34.7170   39.6870 C   0  0  0  0  0  0  0  0  0  0  0  0
   39.5250   34.7930   39.3190 N   0  0  0  0  0  0  0  0  0  0  0  0
   38.6030   34.0340   39.9140 C   0  0  0  0  0  0  0  0  0  0  0  0
   38.8580   33.1640   40.8830 N   0  0  0  0  0  0  0  0  0  0  0  0
   40.4170   32.3410   42.0890 H   0  0  0  0  0  0  0  0  0  0  0  0
   41.6290   35.3120   39.2360 H   0  0  0  0  0  0  0  0  0  0  0  0
   37.6230   34.2400   39.4810 H   0  0  0  0  0  0  0  0  0  0  0  0
   44.8770   35.8390   43.3580 S   0  0  0  0  0  0  0  0  0  0  0  0
   46.1410   35.7730   42.5990 O   0  0  0  0  0  0  0  0  0  0  0  0
   46.4710   36.5580   42.1170 H   0  0  0  0  0  0  0  0  0  0  0  0
   44.8310   37.0940   44.2300 O   0  0  0  0  0  0  0  0  0  0  0  0
   44.2150   37.0650   45.0160 H   0  0  0  0  0  0  0  0  0  0  0  0
   44.6940   34.5690   44.4220 O   0  0  0  0  0  0  0  0  0  0  0  0
   45.9780   32.5930   43.8300 C   0  0  2  0  0  3  0  0  0  0  0  0
   45.8960   33.9250   44.5490 C   0  0  2  0  0  3  0  0  0  0  0  0
   46.1530   33.4250   45.9630 C   0  0  0  0  0  3  0  0  0  0  0  0
   46.5740   34.2340   46.5910 H   0  0  0  0  0  0  0  0  0  0  0  0
   47.0280   32.3630   45.8570 O   0  0  0  0  0  0  0  0  0  0  0  0
   47.2390   32.0690   44.5330 C   0  0  0  0  0  3  0  0  0  0  0  0
   48.0670   32.7190   44.1660 H   0  0  0  0  0  0  0  0  0  0  0  0
   46.1360   32.6850   42.4770 O   0  0  0  0  0  0  0  0  0  0  0  0
   47.0600   32.7430   42.1820 H   0  0  0  0  0  0  0  0  0  0  0  0
  1 16  1  0  0  0  0
  2  1  1  0  0  0  0
  3  6  1  0  0  0  0
  3  1  1  0  0  0  0
  4  3  1  0  0  0  0
  5  3  1  0  0  0  0
  7 13  1  0  0  0  0
  8  6  1  0  0  0  0
  8  7  2  0  0  0  0
  9  8  1  0  0  0  0
 10  9  2  0  0  0  0
 10 11  1  0  0  0  0
 11 12  2  0  0  0  0
 12  7  1  0  0  0  0
 14  9  1  0  0  0  0
 15 11  1  0  0  0  0
 16 19  1  0  0  0  0
 16 21  1  0  0  0  0
 17 16  1  0  0  0  0
 18 17  1  0  0  0  0
 19 20  1  0  0  0  0
 22 29  1  6  0  0  0
 22 27  1  0  0  0  0
 22 23  1  0  0  0  0
 23 21  1  1  0  0  0
 23 24  1  0  0  0  0
 24 25  1  0  0  0  0
 26 24  1  0  0  0  0
 27 26  1  0  0  0  0
 28 27  1  0  0  0  0
 30 29  1  0  0  0  0
M  END
>  <minimizedAffinity>
-4.73503923

>  <minimizedRMSD>
1.35805857

$$$$
