
 OpenBabel03252506153D

 39 41  0  0  1  0  0  0  0  0999 V2000
   45.1490   32.9870   41.2770 F   0  0  0  0  0  0  0  0  0  0  0  0
   46.2430   33.6480   40.9830 C   0  0  0  0  0  0  0  0  0  0  0  0
   46.7060   34.5930   41.8930 C   0  0  0  0  0  0  0  0  0  0  0  0
   47.8720   35.3590   41.6780 C   0  0  0  0  0  0  0  0  0  0  0  0
   48.5990   35.1620   40.4970 C   0  0  0  0  0  0  0  0  0  0  0  0
   48.0960   34.2120   39.6290 C   0  0  0  0  0  0  0  0  0  0  0  0
   46.9830   33.4750   39.8220 C   0  0  0  0  0  0  0  0  0  0  0  0
   48.1680   36.0810   42.4440 H   0  0  0  0  0  0  0  0  0  0  0  0
   49.4630   35.7720   40.4030 H   0  0  0  0  0  0  0  0  0  0  0  0
   48.7720   34.1710   38.7650 H   0  0  0  0  0  0  0  0  0  0  0  0
   45.4260   34.0720   45.2830 C   0  0  0  0  0  0  0  0  0  0  0  0
   44.6590   35.2410   45.4960 C   0  0  0  0  0  0  0  0  0  0  0  0
   44.5890   36.2170   44.4470 C   0  0  0  0  0  0  0  0  0  0  0  0
   45.2810   35.9440   43.2970 N   0  0  0  0  0  0  0  0  0  0  0  0
   45.9850   34.8330   43.1480 C   0  0  0  0  0  0  0  0  0  0  0  0
   46.0640   33.8990   44.1250 N   0  0  0  0  0  0  0  0  0  0  0  0
   44.1290   35.4220   46.4120 H   0  0  0  0  0  0  0  0  0  0  0  0
   44.0130   37.1220   44.5730 H   0  0  0  0  0  0  0  0  0  0  0  0
   45.4730   33.1430   46.3320 N   0  0  0  0  0  0  0  0  0  0  0  0
   44.8710   32.2990   46.5060 H   0  0  0  0  0  0  0  0  0  0  0  0
   46.0900   33.0500   47.1750 H   0  0  0  0  0  0  0  0  0  0  0  0
   46.5930   32.5690   38.8800 O   0  0  0  0  0  0  0  0  0  0  0  0
   45.3710   33.8810   36.9370 O   0  0  0  0  0  0  0  0  0  0  0  0
   46.4160   32.8160   37.2330 P   0  0  2  0  0  0  0  0  0  0  0  0
   45.9510   31.3720   36.4760 O   0  0  0  0  0  0  0  0  0  0  0  0
   45.3600   29.1480   36.8030 C   0  0  2  0  0  3  0  0  0  0  0  0
   45.1390   30.5780   37.2580 C   0  0  2  0  0  3  0  0  0  0  0  0
   43.6770   30.7700   36.9870 C   0  0  0  0  0  3  0  0  0  0  0  0
   43.5110   31.2190   35.9860 H   0  0  0  0  0  0  0  0  0  0  0  0
   43.0620   29.5500   37.0390 O   0  0  0  0  0  0  0  0  0  0  0  0
   43.9990   28.5580   36.9640 C   0  0  0  0  0  3  0  0  0  0  0  0
   43.7730   27.8230   36.1380 H   0  0  0  0  0  0  0  0  0  0  0  0
   46.3240   28.5150   37.5860 O   0  0  0  0  0  0  0  0  0  0  0  0
   46.8410   27.8310   37.1300 H   0  0  0  0  0  0  0  0  0  0  0  0
   47.8550   33.2610   36.4720 O   0  0  0  0  0  0  0  0  0  0  0  0
   48.8380   32.2740   36.6590 C   0  0  0  0  0  0  0  0  0  0  0  0
   49.2100   31.9040   35.3620 F   0  0  0  0  0  0  0  0  0  0  0  0
   49.9530   32.8020   37.2710 F   0  0  0  0  0  0  0  0  0  0  0  0
   48.4100   31.2060   37.4030 F   0  0  0  0  0  0  0  0  0  0  0  0
  2  1  1  0  0  0  0
  2  3  1  0  0  0  0
  3 15  1  0  0  0  0
  4  3  2  0  0  0  0
  4  8  1  0  0  0  0
  5  4  1  0  0  0  0
  6  7  1  0  0  0  0
  6  5  2  0  0  0  0
  7  2  2  0  0  0  0
  9  5  1  0  0  0  0
 10  6  1  0  0  0  0
 11 12  1  0  0  0  0
 11 19  1  0  0  0  0
 12 17  1  0  0  0  0
 13 18  1  0  0  0  0
 13 12  2  0  0  0  0
 14 13  1  0  0  0  0
 15 14  2  0  0  0  0
 15 16  1  0  0  0  0
 16 11  2  0  0  0  0
 19 20  1  0  0  0  0
 19 21  1  0  0  0  0
 22  7  1  0  0  0  0
 24 23  2  6  0  0  0
 24 22  1  0  0  0  0
 25 24  1  0  0  0  0
 26 31  1  0  0  0  0
 26 27  1  0  0  0  0
 26 33  1  1  0  0  0
 27 25  1  6  0  0  0
 28 30  1  0  0  0  0
 28 27  1  0  0  0  0
 29 28  1  0  0  0  0
 31 30  1  0  0  0  0
 32 31  1  0  0  0  0
 34 33  1  0  0  0  0
 35 36  1  0  0  0  0
 35 24  1  0  0  0  0
 36 38  1  0  0  0  0
 36 39  1  0  0  0  0
 37 36  1  0  0  0  0
M  END
>  <minimizedAffinity>
-5.28808498

>  <minimizedRMSD>
2.98928285

$$$$
