
 OpenBabel03252503013D

 30 31  0  0  1  0  0  0  0  0999 V2000
   43.2880   35.8620   42.3110 N   0  0  0  0  0  0  0  0  0  0  0  0
   43.1110   36.8760   42.2790 H   0  0  0  0  0  0  0  0  0  0  0  0
   43.4030   35.3900   40.9210 C   0  0  0  0  0  0  0  0  0  0  0  0
   42.9300   36.0900   40.2210 H   0  0  0  0  0  0  0  0  0  0  0  0
   44.5100   35.3910   40.6950 H   0  0  0  0  0  0  0  0  0  0  0  0
   42.7300   33.7370   40.8790 S   0  0  0  0  0  0  0  0  0  0  0  0
   40.0780   33.0270   41.1720 C   0  0  0  0  0  0  0  0  0  0  0  0
   40.9790   33.7980   40.4610 C   0  0  0  0  0  0  0  0  0  0  0  0
   40.5520   34.6300   39.4140 C   0  0  0  0  0  0  0  0  0  0  0  0
   39.2180   34.6280   39.1490 N   0  0  0  0  0  0  0  0  0  0  0  0
   38.3810   33.8700   39.8600 C   0  0  0  0  0  0  0  0  0  0  0  0
   38.7520   33.0730   40.8550 N   0  0  0  0  0  0  0  0  0  0  0  0
   40.4380   32.3920   41.9760 H   0  0  0  0  0  0  0  0  0  0  0  0
   41.2820   35.2290   38.8650 H   0  0  0  0  0  0  0  0  0  0  0  0
   37.3620   34.0070   39.4970 H   0  0  0  0  0  0  0  0  0  0  0  0
   44.7300   35.5220   43.1940 S   0  0  0  0  0  0  0  0  0  0  0  0
   45.9580   35.7080   42.3970 O   0  0  0  0  0  0  0  0  0  0  0  0
   46.2530   36.6060   42.1450 H   0  0  0  0  0  0  0  0  0  0  0  0
   44.7040   36.4770   44.3870 O   0  0  0  0  0  0  0  0  0  0  0  0
   44.1260   36.2100   45.1570 H   0  0  0  0  0  0  0  0  0  0  0  0
   44.6150   33.9980   43.8610 O   0  0  0  0  0  0  0  0  0  0  0  0
   46.9930   33.7200   44.2750 C   0  0  2  0  0  3  0  0  0  0  0  0
   45.7420   33.2900   43.5360 C   0  0  2  0  0  3  0  0  0  0  0  0
   46.2230   33.5600   42.1190 C   0  0  0  0  0  3  0  0  0  0  0  0
   45.6740   32.9270   41.3940 H   0  0  0  0  0  0  0  0  0  0  0  0
   47.5760   33.2890   42.0990 O   0  0  0  0  0  0  0  0  0  0  0  0
   48.0090   33.0080   43.3690 C   0  0  0  0  0  3  0  0  0  0  0  0
   47.8480   31.9190   43.5540 H   0  0  0  0  0  0  0  0  0  0  0  0
   47.0640   33.2960   45.5710 O   0  0  0  0  0  0  0  0  0  0  0  0
   47.4650   32.4190   45.6880 H   0  0  0  0  0  0  0  0  0  0  0  0
  1 16  1  0  0  0  0
  2  1  1  0  0  0  0
  3  1  1  0  0  0  0
  4  3  1  0  0  0  0
  5  3  1  0  0  0  0
  6  3  1  0  0  0  0
  7 13  1  0  0  0  0
  8  6  1  0  0  0  0
  8  7  2  0  0  0  0
  9  8  1  0  0  0  0
 10  9  2  0  0  0  0
 10 11  1  0  0  0  0
 11 12  2  0  0  0  0
 12  7  1  0  0  0  0
 14  9  1  0  0  0  0
 15 11  1  0  0  0  0
 16 21  1  0  0  0  0
 16 19  1  0  0  0  0
 17 16  1  0  0  0  0
 18 17  1  0  0  0  0
 19 20  1  0  0  0  0
 22 29  1  1  0  0  0
 23 21  1  1  0  0  0
 23 22  1  0  0  0  0
 24 23  1  0  0  0  0
 25 24  1  0  0  0  0
 26 24  1  0  0  0  0
 26 27  1  0  0  0  0
 27 28  1  0  0  0  0
 27 22  1  0  0  0  0
 29 30  1  0  0  0  0
M  END
>  <minimizedAffinity>
-4.60434866

>  <minimizedRMSD>
1.5130527

$$$$
