
 OpenBabel03252506153D

 39 41  0  0  1  0  0  0  0  0999 V2000
   45.7280   33.0920   41.3260 F   0  0  0  0  0  0  0  0  0  0  0  0
   46.7610   33.8860   41.1680 C   0  0  0  0  0  0  0  0  0  0  0  0
   47.0310   34.8190   42.1620 C   0  0  0  0  0  0  0  0  0  0  0  0
   48.1150   35.7210   42.0950 C   0  0  0  0  0  0  0  0  0  0  0  0
   48.9590   35.6750   40.9780 C   0  0  0  0  0  0  0  0  0  0  0  0
   48.6460   34.7300   40.0210 C   0  0  0  0  0  0  0  0  0  0  0  0
   47.6130   33.8640   40.0730 C   0  0  0  0  0  0  0  0  0  0  0  0
   48.2590   36.4240   42.9200 H   0  0  0  0  0  0  0  0  0  0  0  0
   49.7530   36.3810   40.9950 H   0  0  0  0  0  0  0  0  0  0  0  0
   49.3950   34.8140   39.2230 H   0  0  0  0  0  0  0  0  0  0  0  0
   45.5320   33.9620   45.3910 C   0  0  0  0  0  0  0  0  0  0  0  0
   44.6190   35.0230   45.5870 C   0  0  0  0  0  0  0  0  0  0  0  0
   44.5270   36.0450   44.5840 C   0  0  0  0  0  0  0  0  0  0  0  0
   45.3420   35.9180   43.4920 N   0  0  0  0  0  0  0  0  0  0  0  0
   46.1810   34.9040   43.3550 C   0  0  0  0  0  0  0  0  0  0  0  0
   46.2840   33.9290   44.2900 N   0  0  0  0  0  0  0  0  0  0  0  0
   43.9940   35.0900   46.4580 H   0  0  0  0  0  0  0  0  0  0  0  0
   43.8400   36.8710   44.7010 H   0  0  0  0  0  0  0  0  0  0  0  0
   45.5960   32.9840   46.3930 N   0  0  0  0  0  0  0  0  0  0  0  0
   45.0830   32.0690   46.4690 H   0  0  0  0  0  0  0  0  0  0  0  0
   46.1440   32.9110   47.2840 H   0  0  0  0  0  0  0  0  0  0  0  0
   47.4130   32.9780   39.0560 O   0  0  0  0  0  0  0  0  0  0  0  0
   47.6750   34.3570   36.8140 O   0  0  0  0  0  0  0  0  0  0  0  0
   48.0340   33.0470   37.5020 P   0  0  2  0  0  0  0  0  0  0  0  0
   47.4270   31.7630   36.5770 O   0  0  0  0  0  0  0  0  0  0  0  0
   45.4430   32.9740   36.6170 C   0  0  2  0  0  3  0  0  0  0  0  0
   46.0640   31.5930   36.6990 C   0  0  2  0  0  3  0  0  0  0  0  0
   45.6390   31.1410   38.0650 C   0  0  0  0  0  3  0  0  0  0  0  0
   46.4150   31.3730   38.8220 H   0  0  0  0  0  0  0  0  0  0  0  0
   44.4800   31.7880   38.3950 O   0  0  0  0  0  0  0  0  0  0  0  0
   44.2970   32.8570   37.5630 C   0  0  0  0  0  3  0  0  0  0  0  0
   44.1390   33.8170   38.1350 H   0  0  0  0  0  0  0  0  0  0  0  0
   45.0470   33.2700   35.3130 O   0  0  0  0  0  0  0  0  0  0  0  0
   45.0790   34.2100   35.0750 H   0  0  0  0  0  0  0  0  0  0  0  0
   49.7110   32.8660   37.4500 O   0  0  0  0  0  0  0  0  0  0  0  0
   50.0900   31.6300   38.0040 C   0  0  0  0  0  0  0  0  0  0  0  0
   50.3420   30.8160   36.8940 F   0  0  0  0  0  0  0  0  0  0  0  0
   51.2700   31.7480   38.7030 F   0  0  0  0  0  0  0  0  0  0  0  0
   49.1500   31.0920   38.8430 F   0  0  0  0  0  0  0  0  0  0  0  0
  2  1  1  0  0  0  0
  2  3  1  0  0  0  0
  3 15  1  0  0  0  0
  4  3  2  0  0  0  0
  4  8  1  0  0  0  0
  5  9  1  0  0  0  0
  5  4  1  0  0  0  0
  6  7  1  0  0  0  0
  6  5  2  0  0  0  0
  7  2  2  0  0  0  0
 10  6  1  0  0  0  0
 11 12  1  0  0  0  0
 11 19  1  0  0  0  0
 12 17  1  0  0  0  0
 13 18  1  0  0  0  0
 13 12  2  0  0  0  0
 14 13  1  0  0  0  0
 15 14  2  0  0  0  0
 15 16  1  0  0  0  0
 16 11  2  0  0  0  0
 19 20  1  0  0  0  0
 19 21  1  0  0  0  0
 22  7  1  0  0  0  0
 24 23  2  6  0  0  0
 24 22  1  0  0  0  0
 25 24  1  0  0  0  0
 26 33  1  6  0  0  0
 26 27  1  0  0  0  0
 26 31  1  0  0  0  0
 27 25  1  1  0  0  0
 27 28  1  0  0  0  0
 28 30  1  0  0  0  0
 28 29  1  0  0  0  0
 31 32  1  0  0  0  0
 31 30  1  0  0  0  0
 34 33  1  0  0  0  0
 35 24  1  0  0  0  0
 35 36  1  0  0  0  0
 36 38  1  0  0  0  0
 36 39  1  0  0  0  0
 37 36  1  0  0  0  0
M  END
>  <minimizedAffinity>
-5.81794262

>  <minimizedRMSD>
1.83936155

$$$$
