
 OpenBabel03242523133D

 46 50  0  0  1  0  0  0  0  0999 V2000
   36.6360   24.2210   41.2870 C   0  0  0  0  0  0  0  0  0  0  0  0
   36.9800   25.5530   41.0550 C   0  0  0  0  0  0  0  0  0  0  0  0
   36.7320   26.1080   39.8360 C   0  0  0  0  0  0  0  0  0  0  0  0
   36.1480   25.3010   38.8960 N   0  0  0  0  0  0  0  0  0  0  0  0
   35.8180   24.0290   39.1120 C   0  0  0  0  0  0  0  0  0  0  0  0
   36.0600   23.5000   40.2920 N   0  0  0  0  0  0  0  0  0  0  0  0
   36.8310   23.7740   42.2570 H   0  0  0  0  0  0  0  0  0  0  0  0
   35.3580   23.3500   38.4070 H   0  0  0  0  0  0  0  0  0  0  0  0
   37.5890   26.2470   42.1030 N   0  0  0  0  0  0  0  0  0  0  0  0
   38.9490   26.0240   42.4660 C   0  0  0  0  0  0  0  0  0  0  0  0
   39.4940   26.9680   43.4970 C   0  0  0  0  0  0  0  0  0  0  0  0
   39.0850   28.3000   43.3530 N   0  0  0  0  0  0  0  0  0  0  0  0
   37.7550   28.5120   43.0460 C   0  0  0  0  0  0  0  0  0  0  0  0
   36.9770   27.2210   42.9200 C   0  0  0  0  0  0  0  0  0  0  0  0
   39.0230   24.9880   42.8940 H   0  0  0  0  0  0  0  0  0  0  0  0
   39.6690   26.0100   41.6200 H   0  0  0  0  0  0  0  0  0  0  0  0
   39.1200   26.5940   44.4860 H   0  0  0  0  0  0  0  0  0  0  0  0
   40.5950   26.8320   43.5310 H   0  0  0  0  0  0  0  0  0  0  0  0
   39.4900   28.8800   44.0960 H   0  0  0  0  0  0  0  0  0  0  0  0
   37.2690   29.0550   43.9110 H   0  0  0  0  0  0  0  0  0  0  0  0
   37.6200   29.1850   42.1890 H   0  0  0  0  0  0  0  0  0  0  0  0
   36.8470   26.8400   43.9600 H   0  0  0  0  0  0  0  0  0  0  0  0
   35.9800   27.4790   42.5240 H   0  0  0  0  0  0  0  0  0  0  0  0
   35.7870   27.9450   38.7110 C   0  0  0  0  0  0  0  0  0  0  0  0
   36.9440   27.3750   39.2850 C   0  0  0  0  0  0  0  0  0  0  0  0
   38.0310   28.1960   39.1150 C   0  0  0  0  0  0  0  0  0  0  0  0
   38.0500   29.3970   38.4880 C   0  0  0  0  0  0  0  0  0  0  0  0
   36.8670   29.8860   37.9450 C   0  0  0  0  0  0  0  0  0  0  0  0
   35.7190   29.1450   38.0620 C   0  0  0  0  0  0  0  0  0  0  0  0
   37.2090   31.1040   37.3800 O   0  0  0  0  0  0  0  0  0  0  0  0
   38.5730   31.3880   37.6170 C   0  0  2  0  0  0  0  0  0  0  0  0
   39.1140   30.2580   38.2970 O   0  0  0  0  0  0  0  0  0  0  0  0
   34.7480   27.5560   38.6790 H   0  0  0  0  0  0  0  0  0  0  0  0
   38.8980   27.7890   39.5320 H   0  0  0  0  0  0  0  0  0  0  0  0
   34.8870   29.6190   37.6150 H   0  0  0  0  0  0  0  0  0  0  0  0
   39.1850   31.5170   36.7270 H   0  0  0  0  0  0  0  0  0  0  0  0
   38.6080   32.4890   38.4940 O   0  0  0  0  0  0  0  0  0  0  0  0
   38.4110   32.8670   40.7630 C   0  0  1  0  0  3  0  0  0  0  0  0
   39.2810   32.2680   39.6600 C   0  0  2  0  0  3  0  0  0  0  0  0
   40.5330   33.0840   39.8280 C   0  0  0  0  0  3  0  0  0  0  0  0
   41.2030   32.4770   40.5040 H   0  0  0  0  0  0  0  0  0  0  0  0
   40.2080   34.2140   40.5410 O   0  0  0  0  0  0  0  0  0  0  0  0
   38.8430   34.3310   40.6140 C   0  0  0  0  0  3  0  0  0  0  0  0
   38.4570   34.7140   39.6610 H   0  0  0  0  0  0  0  0  0  0  0  0
   37.0590   32.8510   40.4250 O   0  0  0  0  0  0  0  0  0  0  0  0
   36.6850   31.9370   40.4120 H   0  0  0  0  0  0  0  0  0  0  0  0
  1  7  1  0  0  0  0
  2  1  1  0  0  0  0
  2  9  1  0  0  0  0
  3  2  2  0  0  0  0
  4  5  2  0  0  0  0
  4  3  1  0  0  0  0
  5  6  1  0  0  0  0
  6  1  2  0  0  0  0
  8  5  1  0  0  0  0
  9 10  1  0  0  0  0
  9 14  1  0  0  0  0
 10 15  1  0  0  0  0
 10 11  1  0  0  0  0
 11 18  1  0  0  0  0
 11 17  1  0  0  0  0
 12 11  1  0  0  0  0
 12 19  1  0  0  0  0
 13 12  1  0  0  0  0
 13 20  1  0  0  0  0
 14 13  1  0  0  0  0
 14 22  1  0  0  0  0
 16 10  1  0  0  0  0
 21 13  1  0  0  0  0
 23 14  1  0  0  0  0
 24 25  1  0  0  0  0
 25  3  1  0  0  0  0
 26 25  2  0  0  0  0
 26 34  1  0  0  0  0
 27 26  1  0  0  0  0
 28 29  1  0  0  0  0
 28 27  2  0  0  0  0
 29 24  2  0  0  0  0
 30 31  1  0  0  0  0
 30 28  1  0  0  0  0
 31 36  1  6  0  0  0
 31 32  1  0  0  0  0
 31 37  1  0  0  0  0
 32 27  1  0  0  0  0
 33 24  1  0  0  0  0
 35 29  1  0  0  0  0
 38 45  1  6  0  0  0
 39 37  1  6  0  0  0
 39 40  1  0  0  0  0
 39 38  1  0  0  0  0
 40 41  1  0  0  0  0
 40 42  1  0  0  0  0
 42 43  1  0  0  0  0
 43 38  1  0  0  0  0
 44 43  1  0  0  0  0
 46 45  1  0  0  0  0
M  END
>  <minimizedAffinity>
-6.31724596

$$$$

 OpenBabel03242523133D

 46 50  0  0  1  0  0  0  0  0999 V2000
   36.6540   24.0940   40.8970 C   0  0  0  0  0  0  0  0  0  0  0  0
   36.9660   25.4540   40.8900 C   0  0  0  0  0  0  0  0  0  0  0  0
   36.6850   26.2010   39.7870 C   0  0  0  0  0  0  0  0  0  0  0  0
   36.1020   25.5510   38.7310 N   0  0  0  0  0  0  0  0  0  0  0  0
   35.8030   24.2540   38.7320 C   0  0  0  0  0  0  0  0  0  0  0  0
   36.0770   23.5380   39.8020 N   0  0  0  0  0  0  0  0  0  0  0  0
   36.8760   23.4940   41.7740 H   0  0  0  0  0  0  0  0  0  0  0  0
   35.3450   23.6930   37.9290 H   0  0  0  0  0  0  0  0  0  0  0  0
   37.5780   25.9750   42.0320 N   0  0  0  0  0  0  0  0  0  0  0  0
   38.8980   25.6030   42.4160 C   0  0  0  0  0  0  0  0  0  0  0  0
   39.4670   26.3780   43.5680 C   0  0  0  0  0  0  0  0  0  0  0  0
   39.1680   27.7470   43.5630 N   0  0  0  0  0  0  0  0  0  0  0  0
   37.8730   28.0990   43.2350 C   0  0  0  0  0  0  0  0  0  0  0  0
   37.0050   26.8980   42.9330 C   0  0  0  0  0  0  0  0  0  0  0  0
   38.8730   24.5230   42.7250 H   0  0  0  0  0  0  0  0  0  0  0  0
   39.6530   25.6260   41.6010 H   0  0  0  0  0  0  0  0  0  0  0  0
   39.0210   25.9280   44.4930 H   0  0  0  0  0  0  0  0  0  0  0  0
   40.5520   26.1510   43.6270 H   0  0  0  0  0  0  0  0  0  0  0  0
   39.5830   28.2060   44.3820 H   0  0  0  0  0  0  0  0  0  0  0  0
   37.3920   28.5800   44.1380 H   0  0  0  0  0  0  0  0  0  0  0  0
   37.8290   28.8730   42.4560 H   0  0  0  0  0  0  0  0  0  0  0  0
   36.8000   26.4150   43.9170 H   0  0  0  0  0  0  0  0  0  0  0  0
   36.0500   27.2780   42.5330 H   0  0  0  0  0  0  0  0  0  0  0  0
   35.6950   28.3280   39.6190 C   0  0  0  0  0  0  0  0  0  0  0  0
   36.8590   27.5480   39.4560 C   0  0  0  0  0  0  0  0  0  0  0  0
   37.8900   28.3040   38.9530 C   0  0  0  0  0  0  0  0  0  0  0  0
   37.8500   29.6200   38.6360 C   0  0  0  0  0  0  0  0  0  0  0  0
   36.6610   30.3170   38.8220 C   0  0  0  0  0  0  0  0  0  0  0  0
   35.5690   29.6560   39.3230 C   0  0  0  0  0  0  0  0  0  0  0  0
   36.9350   31.6100   38.4080 O   0  0  0  0  0  0  0  0  0  0  0  0
   38.2900   31.7240   38.0220 C   0  0  2  0  0  0  0  0  0  0  0  0
   38.8570   30.4210   38.1340 O   0  0  0  0  0  0  0  0  0  0  0  0
   34.6960   28.0380   40.0070 H   0  0  0  0  0  0  0  0  0  0  0  0
   38.7600   27.7420   38.8240 H   0  0  0  0  0  0  0  0  0  0  0  0
   34.7270   30.2880   39.4230 H   0  0  0  0  0  0  0  0  0  0  0  0
   38.4570   32.0310   36.9920 H   0  0  0  0  0  0  0  0  0  0  0  0
   38.9100   32.5590   38.9710 O   0  0  0  0  0  0  0  0  0  0  0  0
   40.5850   32.8600   40.5310 C   0  0  1  0  0  3  0  0  0  0  0  0
   40.2470   32.3410   39.1340 C   0  0  2  0  0  3  0  0  0  0  0  0
   41.1350   33.2180   38.2960 C   0  0  0  0  0  3  0  0  0  0  0  0
   42.0850   32.6290   38.1410 H   0  0  0  0  0  0  0  0  0  0  0  0
   41.4900   34.3080   39.0550 O   0  0  0  0  0  0  0  0  0  0  0  0
   40.7150   34.3490   40.1870 C   0  0  0  0  0  3  0  0  0  0  0  0
   39.7220   34.7380   39.9350 H   0  0  0  0  0  0  0  0  0  0  0  0
   39.4940   32.7810   41.3940 O   0  0  0  0  0  0  0  0  0  0  0  0
   39.2650   31.8490   41.6260 H   0  0  0  0  0  0  0  0  0  0  0  0
  1  7  1  0  0  0  0
  2  1  1  0  0  0  0
  2  9  1  0  0  0  0
  3  2  2  0  0  0  0
  4  5  2  0  0  0  0
  4  3  1  0  0  0  0
  5  6  1  0  0  0  0
  6  1  2  0  0  0  0
  8  5  1  0  0  0  0
  9 10  1  0  0  0  0
  9 14  1  0  0  0  0
 10 15  1  0  0  0  0
 10 11  1  0  0  0  0
 11 18  1  0  0  0  0
 11 17  1  0  0  0  0
 12 11  1  0  0  0  0
 12 19  1  0  0  0  0
 13 12  1  0  0  0  0
 13 20  1  0  0  0  0
 14 13  1  0  0  0  0
 14 22  1  0  0  0  0
 16 10  1  0  0  0  0
 21 13  1  0  0  0  0
 23 14  1  0  0  0  0
 24 33  1  0  0  0  0
 25 24  1  0  0  0  0
 25  3  1  0  0  0  0
 26 25  2  0  0  0  0
 27 28  2  0  0  0  0
 27 26  1  0  0  0  0
 28 29  1  0  0  0  0
 29 35  1  0  0  0  0
 29 24  2  0  0  0  0
 30 28  1  0  0  0  0
 31 36  1  6  0  0  0
 31 32  1  0  0  0  0
 31 30  1  0  0  0  0
 31 37  1  0  0  0  0
 32 27  1  0  0  0  0
 34 26  1  0  0  0  0
 38 45  1  1  0  0  0
 39 37  1  6  0  0  0
 39 38  1  0  0  0  0
 40 42  1  0  0  0  0
 40 39  1  0  0  0  0
 41 40  1  0  0  0  0
 42 43  1  0  0  0  0
 43 38  1  0  0  0  0
 44 43  1  0  0  0  0
 45 46  1  0  0  0  0
M  END
>  <minimizedAffinity>
-6.00418329

$$$$

 OpenBabel03242523133D

 46 50  0  0  1  0  0  0  0  0999 V2000
   38.2710   22.8070   40.6150 C   0  0  0  0  0  0  0  0  0  0  0  0
   38.4000   24.1530   40.9570 C   0  0  0  0  0  0  0  0  0  0  0  0
   37.4260   25.0340   40.5970 C   0  0  0  0  0  0  0  0  0  0  0  0
   36.3590   24.5260   39.9030 N   0  0  0  0  0  0  0  0  0  0  0  0
   36.2310   23.2420   39.5740 C   0  0  0  0  0  0  0  0  0  0  0  0
   37.1760   22.3970   39.9260 N   0  0  0  0  0  0  0  0  0  0  0  0
   39.0450   22.1010   40.9000 H   0  0  0  0  0  0  0  0  0  0  0  0
   35.4130   22.7910   39.0290 H   0  0  0  0  0  0  0  0  0  0  0  0
   39.5550   24.5290   41.6470 N   0  0  0  0  0  0  0  0  0  0  0  0
   40.6980   25.0500   40.9770 C   0  0  0  0  0  0  0  0  0  0  0  0
   41.7850   25.5600   41.8760 C   0  0  0  0  0  0  0  0  0  0  0  0
   41.3370   26.2580   43.0050 N   0  0  0  0  0  0  0  0  0  0  0  0
   40.2570   25.7230   43.6790 C   0  0  0  0  0  0  0  0  0  0  0  0
   39.7510   24.4480   43.0420 C   0  0  0  0  0  0  0  0  0  0  0  0
   41.1410   24.2210   40.3610 H   0  0  0  0  0  0  0  0  0  0  0  0
   40.4890   25.8470   40.2310 H   0  0  0  0  0  0  0  0  0  0  0  0
   42.3450   24.6540   42.2280 H   0  0  0  0  0  0  0  0  0  0  0  0
   42.5070   26.1240   41.2500 H   0  0  0  0  0  0  0  0  0  0  0  0
   42.1340   26.5670   43.5730 H   0  0  0  0  0  0  0  0  0  0  0  0
   40.5950   25.4120   44.7120 H   0  0  0  0  0  0  0  0  0  0  0  0
   39.4630   26.4610   43.8610 H   0  0  0  0  0  0  0  0  0  0  0  0
   40.5040   23.6630   43.2900 H   0  0  0  0  0  0  0  0  0  0  0  0
   38.8060   24.1850   43.5450 H   0  0  0  0  0  0  0  0  0  0  0  0
   36.8870   26.7680   42.0910 C   0  0  0  0  0  0  0  0  0  0  0  0
   37.2450   26.4080   40.7740 C   0  0  0  0  0  0  0  0  0  0  0  0
   37.2810   27.5110   39.9570 C   0  0  0  0  0  0  0  0  0  0  0  0
   37.0150   28.7910   40.3110 C   0  0  0  0  0  0  0  0  0  0  0  0
   36.6650   29.0620   41.6290 C   0  0  0  0  0  0  0  0  0  0  0  0
   36.6020   28.0300   42.5300 C   0  0  0  0  0  0  0  0  0  0  0  0
   36.4540   30.4300   41.6690 O   0  0  0  0  0  0  0  0  0  0  0  0
   36.7210   31.0050   40.4070 C   0  0  2  0  0  0  0  0  0  0  0  0
   37.0420   29.9300   39.5280 O   0  0  0  0  0  0  0  0  0  0  0  0
   36.7770   26.1320   42.9940 H   0  0  0  0  0  0  0  0  0  0  0  0
   37.5430   27.2630   38.9760 H   0  0  0  0  0  0  0  0  0  0  0  0
   36.3290   28.3570   43.4970 H   0  0  0  0  0  0  0  0  0  0  0  0
   35.8860   31.5250   39.9430 H   0  0  0  0  0  0  0  0  0  0  0  0
   37.8700   31.8040   40.5640 O   0  0  0  0  0  0  0  0  0  0  0  0
   39.4280   32.4380   38.9830 C   0  0  1  0  0  3  0  0  0  0  0  0
   38.0550   32.7340   39.5830 C   0  0  2  0  0  3  0  0  0  0  0  0
   38.2730   34.1370   40.0790 C   0  0  0  0  0  3  0  0  0  0  0  0
   37.9100   34.8130   39.2510 H   0  0  0  0  0  0  0  0  0  0  0  0
   39.6290   34.3480   40.1670 O   0  0  0  0  0  0  0  0  0  0  0  0
   40.2870   33.1520   40.0330 C   0  0  0  0  0  3  0  0  0  0  0  0
   40.2240   32.5930   40.9750 H   0  0  0  0  0  0  0  0  0  0  0  0
   39.7650   31.0900   39.0940 O   0  0  0  0  0  0  0  0  0  0  0  0
   39.2130   30.5160   38.5110 H   0  0  0  0  0  0  0  0  0  0  0  0
  1  7  1  0  0  0  0
  1  2  1  0  0  0  0
  2  9  1  0  0  0  0
  3 25  1  0  0  0  0
  3  2  2  0  0  0  0
  4  3  1  0  0  0  0
  5  4  2  0  0  0  0
  5  6  1  0  0  0  0
  6  1  2  0  0  0  0
  8  5  1  0  0  0  0
  9 14  1  0  0  0  0
 10  9  1  0  0  0  0
 10 11  1  0  0  0  0
 11 17  1  0  0  0  0
 11 12  1  0  0  0  0
 12 19  1  0  0  0  0
 12 13  1  0  0  0  0
 13 21  1  0  0  0  0
 13 20  1  0  0  0  0
 14 22  1  0  0  0  0
 14 23  1  0  0  0  0
 14 13  1  0  0  0  0
 15 10  1  0  0  0  0
 16 10  1  0  0  0  0
 18 11  1  0  0  0  0
 24 29  1  0  0  0  0
 24 33  1  0  0  0  0
 25 24  2  0  0  0  0
 26 27  2  0  0  0  0
 26 25  1  0  0  0  0
 27 28  1  0  0  0  0
 28 30  1  0  0  0  0
 28 29  2  0  0  0  0
 29 35  1  0  0  0  0
 31 36  1  6  0  0  0
 31 37  1  0  0  0  0
 31 30  1  0  0  0  0
 32 27  1  0  0  0  0
 32 31  1  0  0  0  0
 34 26  1  0  0  0  0
 38 45  1  1  0  0  0
 38 39  1  0  0  0  0
 38 43  1  0  0  0  0
 39 40  1  0  0  0  0
 39 37  1  1  0  0  0
 40 42  1  0  0  0  0
 41 40  1  0  0  0  0
 43 42  1  0  0  0  0
 43 44  1  0  0  0  0
 46 45  1  0  0  0  0
M  END
>  <minimizedAffinity>
-6.00387144

$$$$

 OpenBabel03242523133D

 46 50  0  0  1  0  0  0  0  0999 V2000
   35.8750   27.4590   38.6730 C   0  0  0  0  0  0  0  0  0  0  0  0
   36.6780   28.4070   39.3090 C   0  0  0  0  0  0  0  0  0  0  0  0
   36.9640   29.5780   38.6740 C   0  0  0  0  0  0  0  0  0  0  0  0
   36.4330   29.7490   37.4230 N   0  0  0  0  0  0  0  0  0  0  0  0
   35.6670   28.8480   36.8120 C   0  0  0  0  0  0  0  0  0  0  0  0
   35.3940   27.7200   37.4320 N   0  0  0  0  0  0  0  0  0  0  0  0
   35.6440   26.5240   39.1750 H   0  0  0  0  0  0  0  0  0  0  0  0
   35.2240   28.9330   35.8290 H   0  0  0  0  0  0  0  0  0  0  0  0
   37.1660   28.0840   40.5770 N   0  0  0  0  0  0  0  0  0  0  0  0
   38.3660   27.3370   40.7550 C   0  0  0  0  0  0  0  0  0  0  0  0
   38.8370   27.2220   42.1740 C   0  0  0  0  0  0  0  0  0  0  0  0
   38.6940   28.3860   42.9400 N   0  0  0  0  0  0  0  0  0  0  0  0
   37.5090   29.0810   42.7970 C   0  0  0  0  0  0  0  0  0  0  0  0
   36.5700   28.4290   41.8080 C   0  0  0  0  0  0  0  0  0  0  0  0
   38.1770   26.2930   40.3830 H   0  0  0  0  0  0  0  0  0  0  0  0
   39.2320   27.6790   40.1480 H   0  0  0  0  0  0  0  0  0  0  0  0
   38.2120   26.4180   42.6430 H   0  0  0  0  0  0  0  0  0  0  0  0
   39.8700   26.8140   42.1560 H   0  0  0  0  0  0  0  0  0  0  0  0
   39.0300   28.2280   43.8970 H   0  0  0  0  0  0  0  0  0  0  0  0
   36.9540   29.0510   43.7820 H   0  0  0  0  0  0  0  0  0  0  0  0
   37.6660   30.1520   42.6050 H   0  0  0  0  0  0  0  0  0  0  0  0
   36.1690   27.5230   42.3200 H   0  0  0  0  0  0  0  0  0  0  0  0
   35.7330   29.1270   41.6440 H   0  0  0  0  0  0  0  0  0  0  0  0
   36.9820   31.6800   39.7280 C   0  0  0  0  0  0  0  0  0  0  0  0
   37.7130   30.7080   39.0130 C   0  0  0  0  0  0  0  0  0  0  0  0
   38.9960   31.1370   38.7740 C   0  0  0  0  0  0  0  0  0  0  0  0
   39.5370   32.3220   39.1470 C   0  0  0  0  0  0  0  0  0  0  0  0
   38.7460   33.2280   39.8460 C   0  0  0  0  0  0  0  0  0  0  0  0
   37.4490   32.8960   40.1400 C   0  0  0  0  0  0  0  0  0  0  0  0
   39.5680   34.3200   40.0710 O   0  0  0  0  0  0  0  0  0  0  0  0
   40.8640   34.0710   39.5650 C   0  0  2  0  0  0  0  0  0  0  0  0
   40.8180   32.7940   38.9340 O   0  0  0  0  0  0  0  0  0  0  0  0
   35.9330   31.6520   40.0900 H   0  0  0  0  0  0  0  0  0  0  0  0
   39.5520   30.4300   38.2440 H   0  0  0  0  0  0  0  0  0  0  0  0
   36.9500   33.6600   40.6740 H   0  0  0  0  0  0  0  0  0  0  0  0
   41.2090   34.7650   38.8020 H   0  0  0  0  0  0  0  0  0  0  0  0
   41.7200   33.9820   40.6790 O   0  0  0  0  0  0  0  0  0  0  0  0
   43.1540   32.5800   41.8240 C   0  0  1  0  0  3  0  0  0  0  0  0
   42.8410   33.2310   40.4770 C   0  0  2  0  0  3  0  0  0  0  0  0
   44.1000   34.0260   40.2620 C   0  0  0  0  0  3  0  0  0  0  0  0
   44.7720   33.3670   39.6380 H   0  0  0  0  0  0  0  0  0  0  0  0
   44.7300   34.1580   41.4770 O   0  0  0  0  0  0  0  0  0  0  0  0
   43.8790   33.7630   42.4770 C   0  0  0  0  0  3  0  0  0  0  0  0
   43.1480   34.5570   42.6700 H   0  0  0  0  0  0  0  0  0  0  0  0
   42.0050   32.3910   42.5890 O   0  0  0  0  0  0  0  0  0  0  0  0
   41.4140   31.6950   42.2140 H   0  0  0  0  0  0  0  0  0  0  0  0
  1  7  1  0  0  0  0
  1  2  1  0  0  0  0
  2  9  1  0  0  0  0
  3 25  1  0  0  0  0
  3  2  2  0  0  0  0
  4  3  1  0  0  0  0
  5  4  2  0  0  0  0
  5  6  1  0  0  0  0
  6  1  2  0  0  0  0
  8  5  1  0  0  0  0
  9 10  1  0  0  0  0
  9 14  1  0  0  0  0
 10 11  1  0  0  0  0
 11 17  1  0  0  0  0
 11 12  1  0  0  0  0
 12 19  1  0  0  0  0
 13 12  1  0  0  0  0
 13 20  1  0  0  0  0
 14 22  1  0  0  0  0
 14 13  1  0  0  0  0
 15 10  1  0  0  0  0
 16 10  1  0  0  0  0
 18 11  1  0  0  0  0
 21 13  1  0  0  0  0
 23 14  1  0  0  0  0
 24 33  1  0  0  0  0
 24 29  1  0  0  0  0
 25 24  2  0  0  0  0
 26 25  1  0  0  0  0
 26 27  2  0  0  0  0
 27 28  1  0  0  0  0
 28 30  1  0  0  0  0
 28 29  2  0  0  0  0
 29 35  1  0  0  0  0
 31 36  1  6  0  0  0
 31 30  1  0  0  0  0
 31 37  1  0  0  0  0
 32 27  1  0  0  0  0
 32 31  1  0  0  0  0
 34 26  1  0  0  0  0
 38 43  1  0  0  0  0
 38 45  1  1  0  0  0
 39 37  1  1  0  0  0
 39 38  1  0  0  0  0
 40 39  1  0  0  0  0
 40 42  1  0  0  0  0
 41 40  1  0  0  0  0
 42 43  1  0  0  0  0
 43 44  1  0  0  0  0
 46 45  1  0  0  0  0
M  END
>  <minimizedAffinity>
-5.97001886

$$$$

 OpenBabel03242523133D

 46 50  0  0  1  0  0  0  0  0999 V2000
   41.6170   34.1950   40.2480 C   0  0  0  0  0  0  0  0  0  0  0  0
   40.8550   33.0390   40.4150 C   0  0  0  0  0  0  0  0  0  0  0  0
   41.2680   32.0840   41.2930 C   0  0  0  0  0  0  0  0  0  0  0  0
   42.4350   32.3280   41.9680 N   0  0  0  0  0  0  0  0  0  0  0  0
   43.1660   33.4300   41.8130 C   0  0  0  0  0  0  0  0  0  0  0  0
   42.7600   34.3480   40.9630 N   0  0  0  0  0  0  0  0  0  0  0  0
   41.2910   34.9600   39.5490 H   0  0  0  0  0  0  0  0  0  0  0  0
   44.0910   33.6710   42.3180 H   0  0  0  0  0  0  0  0  0  0  0  0
   39.6980   32.9190   39.6410 N   0  0  0  0  0  0  0  0  0  0  0  0
   39.6590   32.1180   38.4630 C   0  0  0  0  0  0  0  0  0  0  0  0
   38.3000   31.9630   37.8460 C   0  0  0  0  0  0  0  0  0  0  0  0
   37.2520   31.8010   38.7610 N   0  0  0  0  0  0  0  0  0  0  0  0
   37.2710   32.6120   39.8780 C   0  0  0  0  0  0  0  0  0  0  0  0
   38.4600   33.5450   39.8960 C   0  0  0  0  0  0  0  0  0  0  0  0
   40.3170   32.6070   37.6950 H   0  0  0  0  0  0  0  0  0  0  0  0
   40.0900   31.0990   38.5680 H   0  0  0  0  0  0  0  0  0  0  0  0
   38.1140   32.9060   37.2680 H   0  0  0  0  0  0  0  0  0  0  0  0
   38.3650   31.1600   37.0820 H   0  0  0  0  0  0  0  0  0  0  0  0
   36.3570   31.7090   38.2660 H   0  0  0  0  0  0  0  0  0  0  0  0
   36.3710   33.2970   39.8410 H   0  0  0  0  0  0  0  0  0  0  0  0
   37.1470   32.0490   40.8130 H   0  0  0  0  0  0  0  0  0  0  0  0
   38.2470   34.3270   39.1290 H   0  0  0  0  0  0  0  0  0  0  0  0
   38.4770   34.0330   40.8850 H   0  0  0  0  0  0  0  0  0  0  0  0
   39.6140   30.9380   42.5100 C   0  0  0  0  0  0  0  0  0  0  0  0
   40.7590   30.8440   41.6900 C   0  0  0  0  0  0  0  0  0  0  0  0
   41.1340   29.5350   41.5190 C   0  0  0  0  0  0  0  0  0  0  0  0
   40.5280   28.4420   42.0440 C   0  0  0  0  0  0  0  0  0  0  0  0
   39.4060   28.6210   42.8460 C   0  0  0  0  0  0  0  0  0  0  0  0
   38.9450   29.8910   43.0790 C   0  0  0  0  0  0  0  0  0  0  0  0
   39.0300   27.3430   43.2250 O   0  0  0  0  0  0  0  0  0  0  0  0
   39.8760   26.3850   42.6230 C   0  0  2  0  0  0  0  0  0  0  0  0
   40.8640   27.1110   41.8970 O   0  0  0  0  0  0  0  0  0  0  0  0
   39.0490   31.8350   42.8370 H   0  0  0  0  0  0  0  0  0  0  0  0
   41.9820   29.4460   40.9160 H   0  0  0  0  0  0  0  0  0  0  0  0
   38.0890   29.9010   43.6990 H   0  0  0  0  0  0  0  0  0  0  0  0
   40.4250   25.7480   43.3130 H   0  0  0  0  0  0  0  0  0  0  0  0
   39.0840   25.6730   41.7020 O   0  0  0  0  0  0  0  0  0  0  0  0
   37.1210   24.4590   41.7580 C   0  0  1  0  0  3  0  0  0  0  0  0
   37.7400   25.8540   41.8470 C   0  0  2  0  0  3  0  0  0  0  0  0
   37.0650   26.5250   40.6820 C   0  0  0  0  0  3  0  0  0  0  0  0
   36.1600   27.0440   41.1120 H   0  0  0  0  0  0  0  0  0  0  0  0
   36.5760   25.5420   39.8540 O   0  0  0  0  0  0  0  0  0  0  0  0
   37.0920   24.3280   40.2310 C   0  0  0  0  0  3  0  0  0  0  0  0
   38.1230   24.2420   39.8680 H   0  0  0  0  0  0  0  0  0  0  0  0
   38.0020   23.4700   42.1910 O   0  0  0  0  0  0  0  0  0  0  0  0
   38.1590   23.5080   43.1650 H   0  0  0  0  0  0  0  0  0  0  0  0
  1  2  2  0  0  0  0
  1  6  1  0  0  0  0
  2  3  1  0  0  0  0
  3 25  1  0  0  0  0
  3  4  2  0  0  0  0
  5  4  1  0  0  0  0
  5  8  1  0  0  0  0
  6  5  2  0  0  0  0
  7  1  1  0  0  0  0
  9 14  1  0  0  0  0
  9  2  1  0  0  0  0
 10 16  1  0  0  0  0
 10  9  1  0  0  0  0
 11 10  1  0  0  0  0
 11 12  1  0  0  0  0
 12 13  1  0  0  0  0
 13 14  1  0  0  0  0
 13 21  1  0  0  0  0
 14 23  1  0  0  0  0
 15 10  1  0  0  0  0
 17 11  1  0  0  0  0
 18 11  1  0  0  0  0
 19 12  1  0  0  0  0
 20 13  1  0  0  0  0
 22 14  1  0  0  0  0
 24 33  1  0  0  0  0
 24 29  1  0  0  0  0
 25 24  2  0  0  0  0
 26 25  1  0  0  0  0
 26 27  2  0  0  0  0
 27 28  1  0  0  0  0
 28 29  2  0  0  0  0
 28 30  1  0  0  0  0
 29 35  1  0  0  0  0
 31 30  1  0  0  0  0
 31 36  1  1  0  0  0
 32 27  1  0  0  0  0
 32 31  1  0  0  0  0
 34 26  1  0  0  0  0
 37 31  1  0  0  0  0
 38 39  1  0  0  0  0
 38 45  1  1  0  0  0
 39 37  1  6  0  0  0
 40 41  1  0  0  0  0
 40 39  1  0  0  0  0
 42 43  1  0  0  0  0
 42 40  1  0  0  0  0
 43 38  1  0  0  0  0
 44 43  1  0  0  0  0
 45 46  1  0  0  0  0
M  END
>  <minimizedAffinity>
-5.8599205

$$$$

 OpenBabel03242523133D

 46 50  0  0  1  0  0  0  0  0999 V2000
   36.5070   25.0600   39.6290 C   0  0  0  0  0  0  0  0  0  0  0  0
   36.9560   26.3010   40.0820 C   0  0  0  0  0  0  0  0  0  0  0  0
   36.6260   27.4270   39.3910 C   0  0  0  0  0  0  0  0  0  0  0  0
   35.8580   27.2620   38.2690 N   0  0  0  0  0  0  0  0  0  0  0  0
   35.4270   26.0800   37.8310 C   0  0  0  0  0  0  0  0  0  0  0  0
   35.7490   24.9960   38.5050 N   0  0  0  0  0  0  0  0  0  0  0  0
   36.7670   24.1590   40.1760 H   0  0  0  0  0  0  0  0  0  0  0  0
   34.8210   25.8940   36.9550 H   0  0  0  0  0  0  0  0  0  0  0  0
   37.7500   26.3130   41.2310 N   0  0  0  0  0  0  0  0  0  0  0  0
   39.1670   26.1840   41.1690 C   0  0  0  0  0  0  0  0  0  0  0  0
   39.8800   26.3850   42.4740 C   0  0  0  0  0  0  0  0  0  0  0  0
   39.3690   27.4160   43.2730 N   0  0  0  0  0  0  0  0  0  0  0  0
   37.9940   27.5070   43.3660 C   0  0  0  0  0  0  0  0  0  0  0  0
   37.2870   26.4420   42.5570 C   0  0  0  0  0  0  0  0  0  0  0  0
   39.4010   25.1420   40.8210 H   0  0  0  0  0  0  0  0  0  0  0  0
   39.6690   26.8300   40.4180 H   0  0  0  0  0  0  0  0  0  0  0  0
   39.7700   25.4220   43.0370 H   0  0  0  0  0  0  0  0  0  0  0  0
   40.9650   26.4740   42.2570 H   0  0  0  0  0  0  0  0  0  0  0  0
   39.9010   27.4870   44.1480 H   0  0  0  0  0  0  0  0  0  0  0  0
   37.6920   27.3020   44.4360 H   0  0  0  0  0  0  0  0  0  0  0  0
   37.6220   28.5210   43.1660 H   0  0  0  0  0  0  0  0  0  0  0  0
   37.4270   25.4890   43.1190 H   0  0  0  0  0  0  0  0  0  0  0  0
   36.2120   26.6880   42.5640 H   0  0  0  0  0  0  0  0  0  0  0  0
   36.1990   29.3760   40.6370 C   0  0  0  0  0  0  0  0  0  0  0  0
   36.9000   28.7870   39.5620 C   0  0  0  0  0  0  0  0  0  0  0  0
   37.6570   29.7210   38.9000 C   0  0  0  0  0  0  0  0  0  0  0  0
   37.7540   31.0410   39.1920 C   0  0  0  0  0  0  0  0  0  0  0  0
   37.0270   31.5430   40.2650 C   0  0  0  0  0  0  0  0  0  0  0  0
   36.2390   30.6930   40.9970 C   0  0  0  0  0  0  0  0  0  0  0  0
   37.3280   32.8950   40.2990 O   0  0  0  0  0  0  0  0  0  0  0  0
   38.2690   33.2130   39.2940 C   0  0  2  0  0  0  0  0  0  0  0  0
   38.5040   32.0140   38.5600 O   0  0  0  0  0  0  0  0  0  0  0  0
   35.5130   28.9100   41.3750 H   0  0  0  0  0  0  0  0  0  0  0  0
   38.1820   29.3030   38.1000 H   0  0  0  0  0  0  0  0  0  0  0  0
   35.7390   31.1870   41.7860 H   0  0  0  0  0  0  0  0  0  0  0  0
   37.9410   33.9480   38.5630 H   0  0  0  0  0  0  0  0  0  0  0  0
   39.4610   33.5650   39.9560 O   0  0  0  0  0  0  0  0  0  0  0  0
   41.4280   32.5630   40.6350 C   0  0  1  0  0  3  0  0  0  0  0  0
   40.5900   33.0040   39.4350 C   0  0  2  0  0  3  0  0  0  0  0  0
   41.5350   33.9770   38.7860 C   0  0  0  0  0  3  0  0  0  0  0  0
   42.0960   33.3820   38.0080 H   0  0  0  0  0  0  0  0  0  0  0  0
   42.4710   34.3450   39.7230 O   0  0  0  0  0  0  0  0  0  0  0  0
   42.0690   33.9170   40.9630 C   0  0  0  0  0  3  0  0  0  0  0  0
   41.2930   34.5890   41.3470 H   0  0  0  0  0  0  0  0  0  0  0  0
   40.6350   32.2600   41.7400 O   0  0  0  0  0  0  0  0  0  0  0  0
   40.1070   31.4360   41.6090 H   0  0  0  0  0  0  0  0  0  0  0  0
  1  2  1  0  0  0  0
  1  7  1  0  0  0  0
  2  9  1  0  0  0  0
  3 25  1  0  0  0  0
  3  2  2  0  0  0  0
  4  3  1  0  0  0  0
  5  4  2  0  0  0  0
  5  6  1  0  0  0  0
  6  1  2  0  0  0  0
  8  5  1  0  0  0  0
  9 14  1  0  0  0  0
 10  9  1  0  0  0  0
 10 11  1  0  0  0  0
 11 17  1  0  0  0  0
 11 12  1  0  0  0  0
 12 13  1  0  0  0  0
 12 19  1  0  0  0  0
 13 20  1  0  0  0  0
 14 23  1  0  0  0  0
 14 22  1  0  0  0  0
 14 13  1  0  0  0  0
 15 10  1  0  0  0  0
 16 10  1  0  0  0  0
 18 11  1  0  0  0  0
 21 13  1  0  0  0  0
 24 29  1  0  0  0  0
 24 33  1  0  0  0  0
 25 24  2  0  0  0  0
 26 27  2  0  0  0  0
 26 25  1  0  0  0  0
 27 28  1  0  0  0  0
 28 30  1  0  0  0  0
 28 29  2  0  0  0  0
 29 35  1  0  0  0  0
 31 36  1  6  0  0  0
 31 37  1  0  0  0  0
 31 30  1  0  0  0  0
 32 27  1  0  0  0  0
 32 31  1  0  0  0  0
 34 26  1  0  0  0  0
 38 43  1  0  0  0  0
 38 45  1  1  0  0  0
 39 37  1  1  0  0  0
 39 38  1  0  0  0  0
 40 39  1  0  0  0  0
 40 42  1  0  0  0  0
 41 40  1  0  0  0  0
 42 43  1  0  0  0  0
 43 44  1  0  0  0  0
 46 45  1  0  0  0  0
M  END
>  <minimizedAffinity>
-5.83098221

$$$$

 OpenBabel03242523133D

 46 50  0  0  1  0  0  0  0  0999 V2000
   38.2380   29.7300   42.6610 C   0  0  0  0  0  0  0  0  0  0  0  0
   37.6950   29.7310   41.3760 C   0  0  0  0  0  0  0  0  0  0  0  0
   36.8220   28.7500   41.0160 C   0  0  0  0  0  0  0  0  0  0  0  0
   36.5280   27.8050   41.9630 N   0  0  0  0  0  0  0  0  0  0  0  0
   37.0430   27.7990   43.1910 C   0  0  0  0  0  0  0  0  0  0  0  0
   37.8860   28.7500   43.5320 N   0  0  0  0  0  0  0  0  0  0  0  0
   38.9350   30.5100   42.9540 H   0  0  0  0  0  0  0  0  0  0  0  0
   36.8460   27.0790   43.9730 H   0  0  0  0  0  0  0  0  0  0  0  0
   38.1050   30.7470   40.5100 N   0  0  0  0  0  0  0  0  0  0  0  0
   39.1970   30.5790   39.6120 C   0  0  0  0  0  0  0  0  0  0  0  0
   39.3970   31.7020   38.6380 C   0  0  0  0  0  0  0  0  0  0  0  0
   38.2170   32.2440   38.1110 N   0  0  0  0  0  0  0  0  0  0  0  0
   37.1780   32.4480   38.9970 C   0  0  0  0  0  0  0  0  0  0  0  0
   37.5280   32.0310   40.4070 C   0  0  0  0  0  0  0  0  0  0  0  0
   40.1350   30.5010   40.2240 H   0  0  0  0  0  0  0  0  0  0  0  0
   39.1870   29.6350   39.0260 H   0  0  0  0  0  0  0  0  0  0  0  0
   39.9280   32.5110   39.2050 H   0  0  0  0  0  0  0  0  0  0  0  0
   40.1220   31.3600   37.8700 H   0  0  0  0  0  0  0  0  0  0  0  0
   38.4340   33.0090   37.4620 H   0  0  0  0  0  0  0  0  0  0  0  0
   36.9790   33.5590   39.0680 H   0  0  0  0  0  0  0  0  0  0  0  0
   36.2280   32.0230   38.6420 H   0  0  0  0  0  0  0  0  0  0  0  0
   38.2270   32.8100   40.7910 H   0  0  0  0  0  0  0  0  0  0  0  0
   36.6000   32.0810   41.0020 H   0  0  0  0  0  0  0  0  0  0  0  0
   36.2650   27.1290   39.4060 C   0  0  0  0  0  0  0  0  0  0  0  0
   36.1150   28.4610   39.8460 C   0  0  0  0  0  0  0  0  0  0  0  0
   35.3360   29.1810   38.9730 C   0  0  0  0  0  0  0  0  0  0  0  0
   34.7680   28.7270   37.8300 C   0  0  0  0  0  0  0  0  0  0  0  0
   34.9680   27.4000   37.4650 C   0  0  0  0  0  0  0  0  0  0  0  0
   35.7290   26.5920   38.2690 C   0  0  0  0  0  0  0  0  0  0  0  0
   34.2790   27.2490   36.2730 O   0  0  0  0  0  0  0  0  0  0  0  0
   33.6170   28.4510   35.9340 C   0  0  2  0  0  0  0  0  0  0  0  0
   33.9760   29.4090   36.9260 O   0  0  0  0  0  0  0  0  0  0  0  0
   36.8160   26.2860   39.8740 H   0  0  0  0  0  0  0  0  0  0  0  0
   35.2160   30.1710   39.2820 H   0  0  0  0  0  0  0  0  0  0  0  0
   35.8080   25.6080   37.8910 H   0  0  0  0  0  0  0  0  0  0  0  0
   33.9060   28.8900   34.9820 H   0  0  0  0  0  0  0  0  0  0  0  0
   32.2370   28.1950   36.0450 O   0  0  0  0  0  0  0  0  0  0  0  0
   30.4990   29.5700   36.6950 C   0  0  1  0  0  3  0  0  0  0  0  0
   31.4340   29.1810   35.5500 C   0  0  2  0  0  3  0  0  0  0  0  0
   30.4320   28.7220   34.5270 C   0  0  0  0  0  3  0  0  0  0  0  0
   30.2270   29.6210   33.8770 H   0  0  0  0  0  0  0  0  0  0  0  0
   29.2520   28.4550   35.1800 O   0  0  0  0  0  0  0  0  0  0  0  0
   29.4730   28.4420   36.5340 C   0  0  0  0  0  3  0  0  0  0  0  0
   29.9460   27.4950   36.8180 H   0  0  0  0  0  0  0  0  0  0  0  0
   31.0850   29.3530   37.9410 O   0  0  0  0  0  0  0  0  0  0  0  0
   31.8240   29.9820   38.1230 H   0  0  0  0  0  0  0  0  0  0  0  0
  1  7  1  0  0  0  0
  1  6  1  0  0  0  0
  2  1  2  0  0  0  0
  3  2  1  0  0  0  0
  3  4  2  0  0  0  0
  4  5  1  0  0  0  0
  5  6  2  0  0  0  0
  5  8  1  0  0  0  0
  9  2  1  0  0  0  0
 10 15  1  0  0  0  0
 10  9  1  0  0  0  0
 11 17  1  0  0  0  0
 11 10  1  0  0  0  0
 12 11  1  0  0  0  0
 12 13  1  0  0  0  0
 13 20  1  0  0  0  0
 13 14  1  0  0  0  0
 14  9  1  0  0  0  0
 14 22  1  0  0  0  0
 14 23  1  0  0  0  0
 16 10  1  0  0  0  0
 18 11  1  0  0  0  0
 19 12  1  0  0  0  0
 21 13  1  0  0  0  0
 24 25  1  0  0  0  0
 24 33  1  0  0  0  0
 25  3  1  0  0  0  0
 26 34  1  0  0  0  0
 26 25  2  0  0  0  0
 27 26  1  0  0  0  0
 28 27  2  0  0  0  0
 28 29  1  0  0  0  0
 29 24  2  0  0  0  0
 30 28  1  0  0  0  0
 31 36  1  6  0  0  0
 31 37  1  0  0  0  0
 31 30  1  0  0  0  0
 31 32  1  0  0  0  0
 32 27  1  0  0  0  0
 35 29  1  0  0  0  0
 38 45  1  1  0  0  0
 39 37  1  1  0  0  0
 39 38  1  0  0  0  0
 40 42  1  0  0  0  0
 40 39  1  0  0  0  0
 41 40  1  0  0  0  0
 42 43  1  0  0  0  0
 43 38  1  0  0  0  0
 43 44  1  0  0  0  0
 45 46  1  0  0  0  0
M  END
>  <minimizedAffinity>
-5.61985254

$$$$

 OpenBabel03242523133D

 46 50  0  0  1  0  0  0  0  0999 V2000
   39.5680   31.3350   41.7820 C   0  0  0  0  0  0  0  0  0  0  0  0
   38.6000   30.4740   41.2640 C   0  0  0  0  0  0  0  0  0  0  0  0
   37.8210   30.8860   40.2260 C   0  0  0  0  0  0  0  0  0  0  0  0
   38.0450   32.1510   39.7480 N   0  0  0  0  0  0  0  0  0  0  0  0
   38.9680   32.9770   40.2390 C   0  0  0  0  0  0  0  0  0  0  0  0
   39.7170   32.5710   41.2420 N   0  0  0  0  0  0  0  0  0  0  0  0
   40.1920   31.0110   42.6100 H   0  0  0  0  0  0  0  0  0  0  0  0
   39.1850   33.9800   39.9000 H   0  0  0  0  0  0  0  0  0  0  0  0
   38.4710   29.2210   41.8680 N   0  0  0  0  0  0  0  0  0  0  0  0
   37.9110   29.0640   43.1680 C   0  0  0  0  0  0  0  0  0  0  0  0
   37.6900   27.6440   43.5970 C   0  0  0  0  0  0  0  0  0  0  0  0
   37.2160   26.7900   42.5930 N   0  0  0  0  0  0  0  0  0  0  0  0
   37.7960   26.9160   41.3460 C   0  0  0  0  0  0  0  0  0  0  0  0
   38.8620   27.9870   41.3080 C   0  0  0  0  0  0  0  0  0  0  0  0
   38.6220   29.5260   43.9050 H   0  0  0  0  0  0  0  0  0  0  0  0
   36.9590   29.6110   43.3430 H   0  0  0  0  0  0  0  0  0  0  0  0
   38.6910   27.2640   43.9320 H   0  0  0  0  0  0  0  0  0  0  0  0
   37.0640   27.6600   44.5130 H   0  0  0  0  0  0  0  0  0  0  0  0
   37.0980   25.8390   42.9590 H   0  0  0  0  0  0  0  0  0  0  0  0
   38.3450   25.9560   41.1070 H   0  0  0  0  0  0  0  0  0  0  0  0
   37.0530   27.0140   40.5410 H   0  0  0  0  0  0  0  0  0  0  0  0
   39.7380   27.5650   41.8550 H   0  0  0  0  0  0  0  0  0  0  0  0
   39.1520   28.1210   40.2520 H   0  0  0  0  0  0  0  0  0  0  0  0
   35.6990   29.8740   40.2810 C   0  0  0  0  0  0  0  0  0  0  0  0
   36.7900   30.2950   39.4910 C   0  0  0  0  0  0  0  0  0  0  0  0
   36.5940   29.9690   38.1720 C   0  0  0  0  0  0  0  0  0  0  0  0
   35.5220   29.3300   37.6450 C   0  0  0  0  0  0  0  0  0  0  0  0
   34.4900   28.9440   38.4940 C   0  0  0  0  0  0  0  0  0  0  0  0
   34.5840   29.2240   39.8320 C   0  0  0  0  0  0  0  0  0  0  0  0
   33.5650   28.3220   37.6710 O   0  0  0  0  0  0  0  0  0  0  0  0
   33.9940   28.3700   36.3260 C   0  0  2  0  0  0  0  0  0  0  0  0
   35.2790   28.9870   36.3290 O   0  0  0  0  0  0  0  0  0  0  0  0
   35.5300   29.9860   41.3730 H   0  0  0  0  0  0  0  0  0  0  0  0
   37.3930   30.2720   37.5710 H   0  0  0  0  0  0  0  0  0  0  0  0
   33.7420   28.8860   40.3740 H   0  0  0  0  0  0  0  0  0  0  0  0
   34.1310   27.4050   35.8450 H   0  0  0  0  0  0  0  0  0  0  0  0
   33.0980   29.2200   35.6480 O   0  0  0  0  0  0  0  0  0  0  0  0
   30.9820   28.7870   34.8320 C   0  0  1  0  0  3  0  0  0  0  0  0
   31.8040   29.1370   36.0720 C   0  0  2  0  0  3  0  0  0  0  0  0
   31.1800   30.4520   36.4500 C   0  0  0  0  0  3  0  0  0  0  0  0
   30.3830   30.2040   37.2100 H   0  0  0  0  0  0  0  0  0  0  0  0
   30.5100   30.9330   35.3490 O   0  0  0  0  0  0  0  0  0  0  0  0
   30.8600   30.1990   34.2450 C   0  0  0  0  0  3  0  0  0  0  0  0
   31.8480   30.5180   33.8920 H   0  0  0  0  0  0  0  0  0  0  0  0
   31.7280   28.0690   33.8990 O   0  0  0  0  0  0  0  0  0  0  0  0
   31.9370   27.1560   34.2090 H   0  0  0  0  0  0  0  0  0  0  0  0
  1  7  1  0  0  0  0
  2  1  1  0  0  0  0
  2  9  1  0  0  0  0
  3  2  2  0  0  0  0
  4  3  1  0  0  0  0
  4  5  2  0  0  0  0
  5  6  1  0  0  0  0
  6  1  2  0  0  0  0
  8  5  1  0  0  0  0
  9 10  1  0  0  0  0
 10 16  1  0  0  0  0
 10 11  1  0  0  0  0
 10 15  1  0  0  0  0
 11 17  1  0  0  0  0
 11 18  1  0  0  0  0
 12 19  1  0  0  0  0
 12 11  1  0  0  0  0
 13 12  1  0  0  0  0
 14 13  1  0  0  0  0
 14 22  1  0  0  0  0
 14  9  1  0  0  0  0
 20 13  1  0  0  0  0
 21 13  1  0  0  0  0
 23 14  1  0  0  0  0
 24 33  1  0  0  0  0
 25  3  1  0  0  0  0
 25 24  2  0  0  0  0
 26 25  1  0  0  0  0
 27 26  2  0  0  0  0
 27 28  1  0  0  0  0
 28 29  2  0  0  0  0
 29 24  1  0  0  0  0
 29 35  1  0  0  0  0
 30 28  1  0  0  0  0
 31 36  1  6  0  0  0
 31 32  1  0  0  0  0
 31 30  1  0  0  0  0
 32 27  1  0  0  0  0
 34 26  1  0  0  0  0
 37 31  1  0  0  0  0
 38 45  1  6  0  0  0
 38 39  1  0  0  0  0
 39 37  1  6  0  0  0
 39 40  1  0  0  0  0
 40 41  1  0  0  0  0
 42 40  1  0  0  0  0
 43 38  1  0  0  0  0
 43 42  1  0  0  0  0
 44 43  1  0  0  0  0
 45 46  1  0  0  0  0
M  END
>  <minimizedAffinity>
-5.61630869

$$$$

 OpenBabel03242523133D

 46 50  0  0  1  0  0  0  0  0999 V2000
   30.0750   27.8820   35.6730 C   0  0  0  0  0  0  0  0  0  0  0  0
   31.1540   28.6370   36.1350 C   0  0  0  0  0  0  0  0  0  0  0  0
   32.4230   28.1880   35.9320 C   0  0  0  0  0  0  0  0  0  0  0  0
   32.5590   26.9950   35.2710 N   0  0  0  0  0  0  0  0  0  0  0  0
   31.5330   26.2710   34.8280 C   0  0  0  0  0  0  0  0  0  0  0  0
   30.3100   26.7120   35.0280 N   0  0  0  0  0  0  0  0  0  0  0  0
   29.0610   28.2360   35.8330 H   0  0  0  0  0  0  0  0  0  0  0  0
   31.5850   25.3270   34.3040 H   0  0  0  0  0  0  0  0  0  0  0  0
   30.8600   29.8230   36.8110 N   0  0  0  0  0  0  0  0  0  0  0  0
   30.6770   31.0570   36.1240 C   0  0  0  0  0  0  0  0  0  0  0  0
   30.2030   32.1950   36.9780 C   0  0  0  0  0  0  0  0  0  0  0  0
   29.2410   31.8530   37.9370 N   0  0  0  0  0  0  0  0  0  0  0  0
   29.4480   30.6780   38.6330 C   0  0  0  0  0  0  0  0  0  0  0  0
   30.7130   29.9680   38.2070 C   0  0  0  0  0  0  0  0  0  0  0  0
   31.6700   31.3590   35.6930 H   0  0  0  0  0  0  0  0  0  0  0  0
   30.0090   31.0120   35.2380 H   0  0  0  0  0  0  0  0  0  0  0  0
   31.1100   32.5760   37.5170 H   0  0  0  0  0  0  0  0  0  0  0  0
   29.8970   33.0220   36.3030 H   0  0  0  0  0  0  0  0  0  0  0  0
   28.9730   32.6780   38.4850 H   0  0  0  0  0  0  0  0  0  0  0  0
   29.6140   30.9300   39.7230 H   0  0  0  0  0  0  0  0  0  0  0  0
   28.5640   30.0250   38.6350 H   0  0  0  0  0  0  0  0  0  0  0  0
   31.5550   30.5620   38.6340 H   0  0  0  0  0  0  0  0  0  0  0  0
   30.7120   28.9790   38.6950 H   0  0  0  0  0  0  0  0  0  0  0  0
   34.4930   28.9640   35.1290 C   0  0  0  0  0  0  0  0  0  0  0  0
   33.6910   28.6800   36.2540 C   0  0  0  0  0  0  0  0  0  0  0  0
   34.3800   28.9120   37.4190 C   0  0  0  0  0  0  0  0  0  0  0  0
   35.6580   29.3500   37.5310 C   0  0  0  0  0  0  0  0  0  0  0  0
   36.3820   29.6040   36.3710 C   0  0  0  0  0  0  0  0  0  0  0  0
   35.7850   29.4070   35.1530 C   0  0  0  0  0  0  0  0  0  0  0  0
   37.6260   30.0230   36.8120 O   0  0  0  0  0  0  0  0  0  0  0  0
   37.6540   30.0790   38.2230 C   0  0  2  0  0  0  0  0  0  0  0  0
   36.3890   29.6020   38.6760 O   0  0  0  0  0  0  0  0  0  0  0  0
   34.2460   28.8970   34.0480 H   0  0  0  0  0  0  0  0  0  0  0  0
   33.8020   28.7050   38.2640 H   0  0  0  0  0  0  0  0  0  0  0  0
   36.4310   29.6340   34.3480 H   0  0  0  0  0  0  0  0  0  0  0  0
   38.3960   29.4450   38.7020 H   0  0  0  0  0  0  0  0  0  0  0  0
   37.7620   31.4400   38.5700 O   0  0  0  0  0  0  0  0  0  0  0  0
   37.8400   32.5000   40.6190 C   0  0  1  0  0  3  0  0  0  0  0  0
   38.6330   31.7010   39.5870 C   0  0  2  0  0  3  0  0  0  0  0  0
   39.7150   32.6900   39.2510 C   0  0  0  0  0  3  0  0  0  0  0  0
   40.5830   32.4320   39.9230 H   0  0  0  0  0  0  0  0  0  0  0  0
   39.2880   33.9340   39.6510 O   0  0  0  0  0  0  0  0  0  0  0  0
   37.9530   33.8810   39.9630 C   0  0  0  0  0  3  0  0  0  0  0  0
   37.3620   33.8790   39.0400 H   0  0  0  0  0  0  0  0  0  0  0  0
   36.4810   32.1910   40.5830 O   0  0  0  0  0  0  0  0  0  0  0  0
   36.2940   31.2800   40.9150 H   0  0  0  0  0  0  0  0  0  0  0  0
  1  7  1  0  0  0  0
  1  2  1  0  0  0  0
  2  9  1  0  0  0  0
  3  2  2  0  0  0  0
  3 25  1  0  0  0  0
  4  3  1  0  0  0  0
  5  6  1  0  0  0  0
  5  4  2  0  0  0  0
  6  1  2  0  0  0  0
  8  5  1  0  0  0  0
  9 14  1  0  0  0  0
 10  9  1  0  0  0  0
 10 11  1  0  0  0  0
 11 17  1  0  0  0  0
 11 12  1  0  0  0  0
 12 19  1  0  0  0  0
 12 13  1  0  0  0  0
 13 21  1  0  0  0  0
 13 20  1  0  0  0  0
 14 13  1  0  0  0  0
 14 22  1  0  0  0  0
 14 23  1  0  0  0  0
 15 10  1  0  0  0  0
 16 10  1  0  0  0  0
 18 11  1  0  0  0  0
 24 29  2  0  0  0  0
 24 25  1  0  0  0  0
 25 26  2  0  0  0  0
 26 27  1  0  0  0  0
 26 34  1  0  0  0  0
 27 32  1  0  0  0  0
 28 30  1  0  0  0  0
 28 27  2  0  0  0  0
 29 28  1  0  0  0  0
 30 31  1  0  0  0  0
 31 37  1  0  0  0  0
 31 32  1  0  0  0  0
 31 36  1  1  0  0  0
 33 24  1  0  0  0  0
 35 29  1  0  0  0  0
 38 45  1  6  0  0  0
 39 37  1  6  0  0  0
 39 38  1  0  0  0  0
 40 39  1  0  0  0  0
 40 42  1  0  0  0  0
 40 41  1  0  0  0  0
 42 43  1  0  0  0  0
 43 38  1  0  0  0  0
 44 43  1  0  0  0  0
 45 46  1  0  0  0  0
M  END
>  <minimizedAffinity>
-5.57238483

$$$$
