
 OpenBabel03242516413D

 32 33  0  0  1  0  0  0  0  0999 V2000
   49.1300   34.2630   41.8490 C   0  0  0  0  0  0  0  0  0  0  0  0
   49.2180   33.9060   42.9060 H   0  0  0  0  0  0  0  0  0  0  0  0
   49.9830   34.9360   41.5600 H   0  0  0  0  0  0  0  0  0  0  0  0
   47.8430   35.0060   41.6820 C   0  0  0  0  0  0  0  0  0  0  0  0
   47.3640   34.8750   40.7050 H   0  0  0  0  0  0  0  0  0  0  0  0
   48.0790   36.1080   41.7540 H   0  0  0  0  0  0  0  0  0  0  0  0
   44.9080   35.1370   44.0360 C   0  0  0  0  0  0  0  0  0  0  0  0
   45.7560   35.4090   42.9430 C   0  0  0  0  0  0  0  0  0  0  0  0
   46.9520   34.7160   42.8390 C   0  0  0  0  0  0  0  0  0  0  0  0
   47.2630   33.8040   43.7900 N   0  0  0  0  0  0  0  0  0  0  0  0
   46.4250   33.5650   44.8300 C   0  0  0  0  0  0  0  0  0  0  0  0
   45.2650   34.2190   44.9570 N   0  0  0  0  0  0  0  0  0  0  0  0
   43.6830   35.8210   44.1760 N   0  0  0  0  0  0  0  0  0  0  0  0
   45.4500   36.1570   42.2070 H   0  0  0  0  0  0  0  0  0  0  0  0
   46.7780   32.8170   45.5270 H   0  0  0  0  0  0  0  0  0  0  0  0
   43.4240   36.7350   43.7770 H   0  0  0  0  0  0  0  0  0  0  0  0
   42.9170   35.3990   44.7380 H   0  0  0  0  0  0  0  0  0  0  0  0
   49.1750   33.1670   41.0010 O   0  0  0  0  0  0  0  0  0  0  0  0
   50.0900   31.2060   42.4720 O   0  0  0  0  0  0  0  0  0  0  0  0
   50.4800   32.1530   41.3660 P   0  0  2  0  0  0  0  0  0  0  0  0
   51.8000   33.1200   41.7530 O   0  0  0  0  0  0  0  0  0  0  0  0
   52.0190   33.0070   42.7000 H   0  0  0  0  0  0  0  0  0  0  0  0
   50.9020   31.2860   39.9580 O   0  0  0  0  0  0  0  0  0  0  0  0
   52.4010   31.5770   38.1780 C   0  0  1  0  0  0  0  0  0  0  0  0
   52.2380   31.3850   39.6720 C   0  0  2  0  0  0  0  0  0  0  0  0
   52.8150   29.9690   39.7940 C   0  0  0  0  0  0  0  0  0  0  0  0
   52.5640   29.5010   40.7580 H   0  0  0  0  0  0  0  0  0  0  0  0
   52.3630   29.2850   38.6870 O   0  0  0  0  0  0  0  0  0  0  0  0
   52.1190   30.1820   37.6780 C   0  0  0  0  0  0  0  0  0  0  0  0
   52.6050   29.9390   36.7190 H   0  0  0  0  0  0  0  0  0  0  0  0
   51.5280   32.5300   37.6590 O   0  0  0  0  0  0  0  0  0  0  0  0
   51.8540   32.6790   36.7180 H   0  0  0  0  0  0  0  0  0  0  0  0
  1  2  1  0  0  0  0
  3  1  1  0  0  0  0
  4  6  1  0  0  0  0
  4  1  1  0  0  0  0
  4  9  1  0  0  0  0
  5  4  1  0  0  0  0
  7 13  1  0  0  0  0
  7 12  1  0  0  0  0
  8  7  2  0  0  0  0
  9  8  1  0  0  0  0
  9 10  2  0  0  0  0
 10 11  1  0  0  0  0
 11 12  2  0  0  0  0
 11 15  1  0  0  0  0
 13 17  1  0  0  0  0
 14  8  1  0  0  0  0
 16 13  1  0  0  0  0
 18 20  1  0  0  0  0
 18  1  1  0  0  0  0
 20 21  1  0  0  0  0
 20 19  2  1  0  0  0
 21 22  1  0  0  0  0
 23 20  1  0  0  0  0
 24 31  1  6  0  0  0
 24 25  1  0  0  0  0
 25 26  1  0  0  0  0
 25 23  1  6  0  0  0
 26 27  1  0  0  0  0
 28 26  1  0  0  0  0
 29 24  1  0  0  0  0
 29 28  1  0  0  0  0
 30 29  1  0  0  0  0
 32 31  1  0  0  0  0
M  END
>  <minimizedAffinity>
-5.1364193

>  <minimizedRMSD>
1.77525771

$$$$
