
 OpenBabel03242514553D

 19 20  0  0  1  0  0  0  0  0999 V2000
   46.5320   32.4820   43.5590 S   0  0  0  0  0  0  0  0  0  0  0  0
   48.1030   33.1920   43.0550 C   0  0  0  0  0  0  0  0  0  0  0  0
   49.0640   32.2430   42.7140 C   0  0  0  0  0  0  0  0  0  0  0  0
   50.3460   32.6870   42.3010 C   0  0  0  0  0  0  0  0  0  0  0  0
   50.5410   34.0360   42.2690 N   0  0  0  0  0  0  0  0  0  0  0  0
   49.5880   34.9220   42.6050 C   0  0  0  0  0  0  0  0  0  0  0  0
   48.3710   34.5080   42.9970 N   0  0  0  0  0  0  0  0  0  0  0  0
   48.9210   31.1720   42.7400 H   0  0  0  0  0  0  0  0  0  0  0  0
   51.1090   31.9600   42.0320 H   0  0  0  0  0  0  0  0  0  0  0  0
   49.7800   35.9920   42.5650 H   0  0  0  0  0  0  0  0  0  0  0  0
   45.6400   35.1050   43.3530 C   0  0  2  0  0  0  0  0  0  0  0  0
   45.3230   33.7450   43.9340 C   0  0  2  0  0  0  0  0  0  0  0  0
   45.2890   34.1300   45.4180 C   0  0  0  0  0  0  0  0  0  0  0  0
   46.3480   34.1720   45.7610 H   0  0  0  0  0  0  0  0  0  0  0  0
   44.7180   35.3720   45.4830 O   0  0  0  0  0  0  0  0  0  0  0  0
   44.7590   35.9810   44.2480 C   0  0  0  0  0  0  0  0  0  0  0  0
   43.7470   35.9720   43.7620 H   0  0  0  0  0  0  0  0  0  0  0  0
   45.2390   35.2010   42.0230 O   0  0  0  0  0  0  0  0  0  0  0  0
   45.5630   36.0330   41.6040 H   0  0  0  0  0  0  0  0  0  0  0  0
  2  1  1  0  0  0  0
  3  8  1  0  0  0  0
  3  2  2  0  0  0  0
  4  3  1  0  0  0  0
  5  4  2  0  0  0  0
  5  6  1  0  0  0  0
  6  7  2  0  0  0  0
  7  2  1  0  0  0  0
  9  4  1  0  0  0  0
 10  6  1  0  0  0  0
 11 18  1  6  0  0  0
 11 12  1  0  0  0  0
 11 16  1  0  0  0  0
 12  1  1  1  0  0  0
 12 13  1  0  0  0  0
 13 15  1  0  0  0  0
 13 14  1  0  0  0  0
 16 15  1  0  0  0  0
 17 16  1  0  0  0  0
 19 18  1  0  0  0  0
M  END
>  <minimizedAffinity>
-3.93677211

>  <minimizedRMSD>
4.06639624

$$$$
