
 OpenBabel03252507543D

 44 47  0  0  1  0  0  0  0  0999 V2000
   47.0680   34.8550   41.9660 C   0  0  2  0  0  0  0  0  0  0  0  0
   46.3420   34.1700   40.8080 C   0  0  0  0  0  0  0  0  0  0  0  0
   47.5580   34.0190   39.8670 C   0  0  0  0  0  0  0  0  0  0  0  0
   48.7090   33.7160   40.7740 C   0  0  1  0  0  0  0  0  0  0  0  0
   48.1880   33.8730   42.1720 C   0  0  0  0  0  0  0  0  0  0  0  0
   47.4620   35.8160   41.6010 H   0  0  0  0  0  0  0  0  0  0  0  0
   45.9810   33.1930   41.1280 H   0  0  0  0  0  0  0  0  0  0  0  0
   45.6030   34.8520   40.3860 H   0  0  0  0  0  0  0  0  0  0  0  0
   47.3830   33.2680   39.0950 H   0  0  0  0  0  0  0  0  0  0  0  0
   47.6860   35.0330   39.4040 H   0  0  0  0  0  0  0  0  0  0  0  0
   49.5750   34.3910   40.5810 H   0  0  0  0  0  0  0  0  0  0  0  0
   47.8580   32.9440   42.6380 H   0  0  0  0  0  0  0  0  0  0  0  0
   48.9930   34.3910   42.7600 H   0  0  0  0  0  0  0  0  0  0  0  0
   44.5270   36.0220   44.4890 C   0  0  0  0  0  0  0  0  0  0  0  0
   45.2740   36.0050   43.3110 C   0  0  0  0  0  0  0  0  0  0  0  0
   46.1930   34.9750   43.1630 C   0  0  0  0  0  0  0  0  0  0  0  0
   46.3460   34.0070   44.1680 N   0  0  0  0  0  0  0  0  0  0  0  0
   45.5890   34.0800   45.2920 C   0  0  0  0  0  0  0  0  0  0  0  0
   44.6860   35.0810   45.4500 N   0  0  0  0  0  0  0  0  0  0  0  0
   43.8080   36.8210   44.6150 H   0  0  0  0  0  0  0  0  0  0  0  0
   45.1730   36.7410   42.5240 H   0  0  0  0  0  0  0  0  0  0  0  0
   45.7890   33.2840   45.9970 H   0  0  0  0  0  0  0  0  0  0  0  0
   49.2510   32.3090   40.6540 C   0  0  2  0  0  0  0  0  0  0  0  0
   50.0920   31.8580   41.7560 C   0  0  0  0  0  0  0  0  0  0  0  0
   50.6690   32.0530   40.3920 C   0  0  1  0  0  0  0  0  0  0  0  0
   48.5240   31.5950   40.2290 H   0  0  0  0  0  0  0  0  0  0  0  0
   50.4610   32.5680   42.5530 H   0  0  0  0  0  0  0  0  0  0  0  0
   49.9590   30.8410   42.1650 H   0  0  0  0  0  0  0  0  0  0  0  0
   51.3030   32.9160   40.1350 H   0  0  0  0  0  0  0  0  0  0  0  0
   50.9900   30.8900   39.6500 O   0  0  0  0  0  0  0  0  0  0  0  0
   51.5120   30.2670   37.1730 O   0  0  0  0  0  0  0  0  0  0  0  0
   51.6670   31.3730   38.1880 P   0  0  1  0  0  0  0  0  0  0  0  0
   50.8320   32.7430   37.5830 O   0  0  0  0  0  0  0  0  0  0  0  0
   49.9470   32.4050   37.2900 H   0  0  0  0  0  0  0  0  0  0  0  0
   53.2740   31.7880   38.2710 O   0  0  0  0  0  0  0  0  0  0  0  0
   53.4420   30.0120   39.8900 C   0  0  1  0  0  3  0  0  0  0  0  0
   54.0090   30.6840   38.6330 C   0  0  1  0  0  3  0  0  0  0  0  0
   53.8970   29.5250   37.6700 C   0  0  0  0  0  3  0  0  0  0  0  0
   52.8250   29.4220   37.3370 H   0  0  0  0  0  0  0  0  0  0  0  0
   54.1720   28.3770   38.3980 O   0  0  0  0  0  0  0  0  0  0  0  0
   54.1000   28.6610   39.7440 C   0  0  0  0  0  3  0  0  0  0  0  0
   53.6610   27.8850   40.3710 H   0  0  0  0  0  0  0  0  0  0  0  0
   53.8620   30.6740   41.0400 O   0  0  0  0  0  0  0  0  0  0  0  0
   53.1110   31.2480   41.3370 H   0  0  0  0  0  0  0  0  0  0  0  0
  1  6  1  6  0  0  0
  1  5  1  0  0  0  0
  1 16  1  0  0  0  0
  2  7  1  0  0  0  0
  2  1  1  0  0  0  0
  3  4  1  0  0  0  0
  3  2  1  0  0  0  0
  4 11  1  6  0  0  0
  4  5  1  0  0  0  0
  5 12  1  0  0  0  0
  5 13  1  0  0  0  0
  8  2  1  0  0  0  0
  9  3  1  0  0  0  0
 10  3  1  0  0  0  0
 14 20  1  0  0  0  0
 14 19  1  0  0  0  0
 15 14  2  0  0  0  0
 16 15  1  0  0  0  0
 16 17  2  0  0  0  0
 17 18  1  0  0  0  0
 18 19  2  0  0  0  0
 18 22  1  0  0  0  0
 21 15  1  0  0  0  0
 23 26  1  6  0  0  0
 23  4  1  0  0  0  0
 23 24  1  0  0  0  0
 24 28  1  0  0  0  0
 24 27  1  0  0  0  0
 25 29  1  6  0  0  0
 25 23  1  0  0  0  0
 25 24  1  0  0  0  0
 30 25  1  0  0  0  0
 32 31  2  6  0  0  0
 32 35  1  0  0  0  0
 32 30  1  0  0  0  0
 33 32  1  0  0  0  0
 34 33  1  0  0  0  0
 36 43  1  1  0  0  0
 37 35  1  6  0  0  0
 37 36  1  0  0  0  0
 38 40  1  0  0  0  0
 38 37  1  0  0  0  0
 39 38  1  0  0  0  0
 40 41  1  0  0  0  0
 41 36  1  0  0  0  0
 41 42  1  0  0  0  0
 43 44  1  0  0  0  0
M  END
>  <minimizedAffinity>
-5.31380987

>  <minimizedRMSD>
0.561827123

$$$$
