
 OpenBabel03252509133D

 32 35  0  0  1  0  0  0  0  0999 V2000
   39.5240   30.4480   42.0890 C   0  0  0  0  0  0  0  0  0  0  0  0
   38.3500   29.9220   41.5590 C   0  0  0  0  0  0  0  0  0  0  0  0
   37.4580   30.6650   40.8060 C   0  0  0  0  0  0  0  0  0  0  0  0
   37.7320   32.0090   40.5540 C   0  0  0  0  0  0  0  0  0  0  0  0
   37.1360   33.0210   39.8890 N   0  0  0  0  0  0  0  0  0  0  0  0
   37.8720   34.1440   39.9770 C   0  0  0  0  0  0  0  0  0  0  0  0
   38.9350   33.8010   40.7110 N   0  0  0  0  0  0  0  0  0  0  0  0
   38.8990   32.5120   41.0880 C   0  0  0  0  0  0  0  0  0  0  0  0
   39.8020   31.7930   41.8400 C   0  0  0  0  0  0  0  0  0  0  0  0
   40.1920   29.8240   42.6750 H   0  0  0  0  0  0  0  0  0  0  0  0
   36.2270   32.9160   39.3860 H   0  0  0  0  0  0  0  0  0  0  0  0
   37.6800   35.1190   39.5630 H   0  0  0  0  0  0  0  0  0  0  0  0
   40.7060   32.2430   42.2350 H   0  0  0  0  0  0  0  0  0  0  0  0
   38.3570   26.2620   41.3450 C   0  0  0  0  0  0  0  0  0  0  0  0
   37.4150   25.8860   42.2870 C   0  0  0  0  0  0  0  0  0  0  0  0
   36.7600   26.8990   43.0130 C   0  0  0  0  0  0  0  0  0  0  0  0
   37.0990   28.1980   42.7400 N   0  0  0  0  0  0  0  0  0  0  0  0
   38.0340   28.5120   41.8020 C   0  0  0  0  0  0  0  0  0  0  0  0
   38.6660   27.5610   41.1020 N   0  0  0  0  0  0  0  0  0  0  0  0
   38.8550   25.4780   40.7910 H   0  0  0  0  0  0  0  0  0  0  0  0
   37.1330   24.8780   42.5180 H   0  0  0  0  0  0  0  0  0  0  0  0
   36.0070   26.7500   43.7750 H   0  0  0  0  0  0  0  0  0  0  0  0
   35.9570   29.9810   40.1400 S   0  0  0  0  0  0  0  0  0  0  0  0
   36.9870   28.8560   37.9290 C   0  0  1  0  0  3  0  0  0  0  0  0
   35.9430   29.8970   38.3560 C   0  0  1  0  0  3  0  0  0  0  0  0
   34.7050   29.0900   37.9580 C   0  0  0  0  0  3  0  0  0  0  0  0
   33.8350   29.5810   38.4030 H   0  0  0  0  0  0  0  0  0  0  0  0
   34.9540   27.8030   38.4110 O   0  0  0  0  0  0  0  0  0  0  0  0
   36.3160   27.6110   38.4900 C   0  0  0  0  0  3  0  0  0  0  0  0
   36.6950   26.6910   38.0250 H   0  0  0  0  0  0  0  0  0  0  0  0
   37.0000   28.7100   36.5460 O   0  0  0  0  0  0  0  0  0  0  0  0
   37.8310   28.2230   36.3260 H   0  0  0  0  0  0  0  0  0  0  0  0
  1 10  1  0  0  0  0
  2 18  1  0  0  0  0
  2  1  2  0  0  0  0
  3  2  1  0  0  0  0
  4  3  2  0  0  0  0
  4  8  1  0  0  0  0
  5  6  1  0  0  0  0
  5  4  1  0  0  0  0
  6  7  2  0  0  0  0
  7  8  1  0  0  0  0
  8  9  2  0  0  0  0
  9  1  1  0  0  0  0
  9 13  1  0  0  0  0
 11  5  1  0  0  0  0
 12  6  1  0  0  0  0
 14 15  1  0  0  0  0
 15 21  1  0  0  0  0
 15 16  2  0  0  0  0
 16 22  1  0  0  0  0
 17 16  1  0  0  0  0
 18 17  2  0  0  0  0
 19 14  2  0  0  0  0
 19 18  1  0  0  0  0
 20 14  1  0  0  0  0
 23  3  1  0  0  0  0
 24 31  1  6  0  0  0
 24 25  1  0  0  0  0
 24 29  1  0  0  0  0
 25 23  1  1  0  0  0
 26 25  1  0  0  0  0
 26 27  1  0  0  0  0
 26 28  1  0  0  0  0
 28 29  1  0  0  0  0
 30 29  1  0  0  0  0
 32 31  1  0  0  0  0
M  END
>  <minimizedAffinity>
-5.26554346

$$$$

 OpenBabel03252509133D

 32 35  0  0  1  0  0  0  0  0999 V2000
   36.5990   24.5470   40.4380 C   0  0  0  0  0  0  0  0  0  0  0  0
   37.1060   25.8410   40.3760 C   0  0  0  0  0  0  0  0  0  0  0  0
   36.8590   26.7010   39.3210 C   0  0  0  0  0  0  0  0  0  0  0  0
   36.0650   26.2700   38.2580 C   0  0  0  0  0  0  0  0  0  0  0  0
   35.6130   26.7910   37.0990 N   0  0  0  0  0  0  0  0  0  0  0  0
   34.8550   25.8950   36.4400 C   0  0  0  0  0  0  0  0  0  0  0  0
   34.8510   24.8100   37.2190 N   0  0  0  0  0  0  0  0  0  0  0  0
   35.5720   24.9840   38.3390 C   0  0  0  0  0  0  0  0  0  0  0  0
   35.8040   24.1100   39.3780 C   0  0  0  0  0  0  0  0  0  0  0  0
   36.8220   23.9090   41.2880 H   0  0  0  0  0  0  0  0  0  0  0  0
   35.8370   27.7610   36.7840 H   0  0  0  0  0  0  0  0  0  0  0  0
   34.3500   25.9940   35.4940 H   0  0  0  0  0  0  0  0  0  0  0  0
   35.3900   23.1070   39.3870 H   0  0  0  0  0  0  0  0  0  0  0  0
   38.1620   27.3520   43.5440 C   0  0  0  0  0  0  0  0  0  0  0  0
   39.5390   27.2240   43.5150 C   0  0  0  0  0  0  0  0  0  0  0  0
   40.1260   26.6100   42.3920 C   0  0  0  0  0  0  0  0  0  0  0  0
   39.2920   26.1760   41.3950 N   0  0  0  0  0  0  0  0  0  0  0  0
   37.9410   26.3270   41.4760 C   0  0  0  0  0  0  0  0  0  0  0  0
   37.3670   26.9100   42.5370 N   0  0  0  0  0  0  0  0  0  0  0  0
   37.7190   27.8260   44.4100 H   0  0  0  0  0  0  0  0  0  0  0  0
   40.2120   27.5560   44.2810 H   0  0  0  0  0  0  0  0  0  0  0  0
   41.1850   26.4450   42.2380 H   0  0  0  0  0  0  0  0  0  0  0  0
   37.5190   28.3520   39.2490 S   0  0  0  0  0  0  0  0  0  0  0  0
   36.4600   30.0090   41.0780 C   0  0  1  0  0  3  0  0  0  0  0  0
   36.3100   29.6180   39.6010 C   0  0  1  0  0  3  0  0  0  0  0  0
   36.8480   30.9240   39.0100 C   0  0  0  0  0  3  0  0  0  0  0  0
   37.0380   30.7500   37.9460 H   0  0  0  0  0  0  0  0  0  0  0  0
   37.9680   31.2270   39.7680 O   0  0  0  0  0  0  0  0  0  0  0  0
   37.8400   30.6450   41.0110 C   0  0  0  0  0  3  0  0  0  0  0  0
   38.0340   31.3050   41.8670 H   0  0  0  0  0  0  0  0  0  0  0  0
   35.5700   31.0260   41.4100 O   0  0  0  0  0  0  0  0  0  0  0  0
   35.5470   31.0620   42.3970 H   0  0  0  0  0  0  0  0  0  0  0  0
  1 10  1  0  0  0  0
  2  1  1  0  0  0  0
  2 18  1  0  0  0  0
  3  2  2  0  0  0  0
  4  8  2  0  0  0  0
  4  3  1  0  0  0  0
  5  4  1  0  0  0  0
  6  5  1  0  0  0  0
  6  7  2  0  0  0  0
  7  8  1  0  0  0  0
  8  9  1  0  0  0  0
  9 13  1  0  0  0  0
  9  1  2  0  0  0  0
 11  5  1  0  0  0  0
 12  6  1  0  0  0  0
 14 20  1  0  0  0  0
 15 14  1  0  0  0  0
 15 21  1  0  0  0  0
 16 15  2  0  0  0  0
 17 18  2  0  0  0  0
 17 16  1  0  0  0  0
 18 19  1  0  0  0  0
 19 14  2  0  0  0  0
 22 16  1  0  0  0  0
 23  3  1  0  0  0  0
 24 31  1  6  0  0  0
 25 23  1  1  0  0  0
 25 24  1  0  0  0  0
 26 25  1  0  0  0  0
 26 28  1  0  0  0  0
 27 26  1  0  0  0  0
 28 29  1  0  0  0  0
 29 24  1  0  0  0  0
 29 30  1  0  0  0  0
 31 32  1  0  0  0  0
M  END
>  <minimizedAffinity>
-5.20167017

$$$$

 OpenBabel03252509133D

 32 35  0  0  1  0  0  0  0  0999 V2000
   36.1640   27.2110   39.3420 C   0  0  0  0  0  0  0  0  0  0  0  0
   37.1790   28.0300   39.8260 C   0  0  0  0  0  0  0  0  0  0  0  0
   37.7060   29.0880   39.1070 C   0  0  0  0  0  0  0  0  0  0  0  0
   37.2080   29.3650   37.8340 C   0  0  0  0  0  0  0  0  0  0  0  0
   37.4480   30.2710   36.8640 N   0  0  0  0  0  0  0  0  0  0  0  0
   36.6420   30.0610   35.8080 C   0  0  0  0  0  0  0  0  0  0  0  0
   35.8980   29.0040   36.1490 N   0  0  0  0  0  0  0  0  0  0  0  0
   36.2020   28.5410   37.3730 C   0  0  0  0  0  0  0  0  0  0  0  0
   35.6620   27.4820   38.0690 C   0  0  0  0  0  0  0  0  0  0  0  0
   35.7840   26.3910   39.9450 H   0  0  0  0  0  0  0  0  0  0  0  0
   38.1690   31.0210   36.9510 H   0  0  0  0  0  0  0  0  0  0  0  0
   36.5800   30.6020   34.8790 H   0  0  0  0  0  0  0  0  0  0  0  0
   34.8710   26.8680   37.6540 H   0  0  0  0  0  0  0  0  0  0  0  0
   39.2970   26.7750   42.5430 C   0  0  0  0  0  0  0  0  0  0  0  0
   38.7080   27.3070   43.6770 C   0  0  0  0  0  0  0  0  0  0  0  0
   37.5630   28.1110   43.5170 C   0  0  0  0  0  0  0  0  0  0  0  0
   37.1030   28.3170   42.2430 N   0  0  0  0  0  0  0  0  0  0  0  0
   37.7220   27.7690   41.1610 C   0  0  0  0  0  0  0  0  0  0  0  0
   38.8110   27.0020   41.2950 N   0  0  0  0  0  0  0  0  0  0  0  0
   40.1750   26.1580   42.6740 H   0  0  0  0  0  0  0  0  0  0  0  0
   39.0480   27.1590   44.6820 H   0  0  0  0  0  0  0  0  0  0  0  0
   37.0050   28.5880   44.3120 H   0  0  0  0  0  0  0  0  0  0  0  0
   39.0090   30.1240   39.7340 S   0  0  0  0  0  0  0  0  0  0  0  0
   39.3050   32.6280   40.6620 C   0  0  1  0  0  3  0  0  0  0  0  0
   38.4380   31.3780   40.8700 C   0  0  1  0  0  3  0  0  0  0  0  0
   37.1450   31.9530   40.2870 C   0  0  0  0  0  3  0  0  0  0  0  0
   36.4530   31.1190   40.1340 H   0  0  0  0  0  0  0  0  0  0  0  0
   37.5350   32.6160   39.1330 O   0  0  0  0  0  0  0  0  0  0  0  0
   38.8550   32.9910   39.2550 C   0  0  0  0  0  3  0  0  0  0  0  0
   39.0780   34.0370   39.0060 H   0  0  0  0  0  0  0  0  0  0  0  0
   38.8860   33.6630   41.4920 O   0  0  0  0  0  0  0  0  0  0  0  0
   39.6110   34.3340   41.4860 H   0  0  0  0  0  0  0  0  0  0  0  0
  1  2  1  0  0  0  0
  1 10  1  0  0  0  0
  2 18  1  0  0  0  0
  3 23  1  0  0  0  0
  3  2  2  0  0  0  0
  4  3  1  0  0  0  0
  5 11  1  0  0  0  0
  5  4  1  0  0  0  0
  6  7  2  0  0  0  0
  6  5  1  0  0  0  0
  7  8  1  0  0  0  0
  8  4  2  0  0  0  0
  8  9  1  0  0  0  0
  9  1  2  0  0  0  0
 12  6  1  0  0  0  0
 13  9  1  0  0  0  0
 14 20  1  0  0  0  0
 14 15  1  0  0  0  0
 15 21  1  0  0  0  0
 16 15  2  0  0  0  0
 16 22  1  0  0  0  0
 17 16  1  0  0  0  0
 18 19  1  0  0  0  0
 18 17  2  0  0  0  0
 19 14  2  0  0  0  0
 24 25  1  0  0  0  0
 24 31  1  1  0  0  0
 25 23  1  6  0  0  0
 26 25  1  0  0  0  0
 27 26  1  0  0  0  0
 28 29  1  0  0  0  0
 28 26  1  0  0  0  0
 29 24  1  0  0  0  0
 30 29  1  0  0  0  0
 32 31  1  0  0  0  0
M  END
>  <minimizedAffinity>
-5.11953306

$$$$

 OpenBabel03252509133D

 32 35  0  0  1  0  0  0  0  0999 V2000
   36.1530   27.1480   39.0590 C   0  0  0  0  0  0  0  0  0  0  0  0
   37.1350   28.0860   39.3630 C   0  0  0  0  0  0  0  0  0  0  0  0
   37.6240   28.9960   38.4430 C   0  0  0  0  0  0  0  0  0  0  0  0
   37.1200   28.9910   37.1430 C   0  0  0  0  0  0  0  0  0  0  0  0
   37.3300   29.6920   36.0090 N   0  0  0  0  0  0  0  0  0  0  0  0
   36.5350   29.2430   35.0200 C   0  0  0  0  0  0  0  0  0  0  0  0
   35.8310   28.2490   35.5710 N   0  0  0  0  0  0  0  0  0  0  0  0
   36.1480   28.0550   36.8620 C   0  0  0  0  0  0  0  0  0  0  0  0
   35.6460   27.1380   37.7590 C   0  0  0  0  0  0  0  0  0  0  0  0
   35.8020   26.4540   39.8170 H   0  0  0  0  0  0  0  0  0  0  0  0
   38.0220   30.4710   35.9390 H   0  0  0  0  0  0  0  0  0  0  0  0
   36.4570   29.5820   34.0010 H   0  0  0  0  0  0  0  0  0  0  0  0
   34.8800   26.4230   37.4800 H   0  0  0  0  0  0  0  0  0  0  0  0
   39.2950   27.4930   42.2660 C   0  0  0  0  0  0  0  0  0  0  0  0
   38.6770   28.2130   43.2740 C   0  0  0  0  0  0  0  0  0  0  0  0
   37.4990   28.9160   42.9620 C   0  0  0  0  0  0  0  0  0  0  0  0
   37.0350   28.8440   41.6750 N   0  0  0  0  0  0  0  0  0  0  0  0
   37.6840   28.1210   40.7210 C   0  0  0  0  0  0  0  0  0  0  0  0
   38.8060   27.4450   41.0000 N   0  0  0  0  0  0  0  0  0  0  0  0
   40.1990   26.9550   42.5130 H   0  0  0  0  0  0  0  0  0  0  0  0
   39.0200   28.2840   44.2870 H   0  0  0  0  0  0  0  0  0  0  0  0
   36.9160   29.5170   43.6490 H   0  0  0  0  0  0  0  0  0  0  0  0
   38.8850   30.1860   38.8420 S   0  0  0  0  0  0  0  0  0  0  0  0
   37.5450   32.1080   40.1550 C   0  0  1  0  0  3  0  0  0  0  0  0
   38.3000   31.8730   38.8390 C   0  0  1  0  0  3  0  0  0  0  0  0
   39.5040   32.7630   39.1570 C   0  0  0  0  0  3  0  0  0  0  0  0
   40.2800   32.5430   38.4180 H   0  0  0  0  0  0  0  0  0  0  0  0
   39.8350   32.4640   40.4690 O   0  0  0  0  0  0  0  0  0  0  0  0
   38.7160   31.9910   41.1180 C   0  0  0  0  0  3  0  0  0  0  0  0
   38.4990   32.4530   42.0910 H   0  0  0  0  0  0  0  0  0  0  0  0
   37.0940   33.4220   40.2360 O   0  0  0  0  0  0  0  0  0  0  0  0
   36.4310   33.4420   40.9680 H   0  0  0  0  0  0  0  0  0  0  0  0
  1  2  1  0  0  0  0
  1 10  1  0  0  0  0
  2 18  1  0  0  0  0
  3 23  1  0  0  0  0
  3  2  2  0  0  0  0
  4  3  1  0  0  0  0
  5  4  1  0  0  0  0
  6  7  2  0  0  0  0
  6  5  1  0  0  0  0
  7  8  1  0  0  0  0
  8  4  2  0  0  0  0
  8  9  1  0  0  0  0
  9  1  2  0  0  0  0
 11  5  1  0  0  0  0
 12  6  1  0  0  0  0
 13  9  1  0  0  0  0
 14 20  1  0  0  0  0
 14 15  1  0  0  0  0
 15 21  1  0  0  0  0
 16 15  2  0  0  0  0
 16 22  1  0  0  0  0
 17 16  1  0  0  0  0
 18 19  1  0  0  0  0
 18 17  2  0  0  0  0
 19 14  2  0  0  0  0
 24 31  1  6  0  0  0
 24 29  1  0  0  0  0
 25 23  1  1  0  0  0
 25 26  1  0  0  0  0
 25 24  1  0  0  0  0
 26 28  1  0  0  0  0
 27 26  1  0  0  0  0
 28 29  1  0  0  0  0
 29 30  1  0  0  0  0
 31 32  1  0  0  0  0
M  END
>  <minimizedAffinity>
-5.10979462

$$$$

 OpenBabel03252509133D

 32 35  0  0  1  0  0  0  0  0999 V2000
   37.6820   31.1290   37.0640 C   0  0  0  0  0  0  0  0  0  0  0  0
   37.5590   31.1530   38.4500 C   0  0  0  0  0  0  0  0  0  0  0  0
   36.7350   30.2930   39.1530 C   0  0  0  0  0  0  0  0  0  0  0  0
   35.9820   29.3470   38.4570 C   0  0  0  0  0  0  0  0  0  0  0  0
   35.1020   28.3740   38.7700 N   0  0  0  0  0  0  0  0  0  0  0  0
   34.6720   27.7480   37.6590 C   0  0  0  0  0  0  0  0  0  0  0  0
   35.3070   28.3580   36.6540 N   0  0  0  0  0  0  0  0  0  0  0  0
   36.1170   29.3400   37.0850 C   0  0  0  0  0  0  0  0  0  0  0  0
   36.9300   30.1850   36.3630 C   0  0  0  0  0  0  0  0  0  0  0  0
   38.3420   31.8270   36.5580 H   0  0  0  0  0  0  0  0  0  0  0  0
   34.8140   28.1590   39.7500 H   0  0  0  0  0  0  0  0  0  0  0  0
   33.9730   26.9340   37.5620 H   0  0  0  0  0  0  0  0  0  0  0  0
   36.9950   30.1330   35.2820 H   0  0  0  0  0  0  0  0  0  0  0  0
   38.5020   34.1610   40.3220 C   0  0  0  0  0  0  0  0  0  0  0  0
   39.8310   33.9370   40.6360 C   0  0  0  0  0  0  0  0  0  0  0  0
   40.4230   32.7360   40.2020 C   0  0  0  0  0  0  0  0  0  0  0  0
   39.6430   31.8610   39.4930 N   0  0  0  0  0  0  0  0  0  0  0  0
   38.3390   32.1320   39.2120 C   0  0  0  0  0  0  0  0  0  0  0  0
   37.7600   33.2700   39.6170 N   0  0  0  0  0  0  0  0  0  0  0  0
   38.0550   35.0860   40.6580 H   0  0  0  0  0  0  0  0  0  0  0  0
   40.4620   34.6050   41.1880 H   0  0  0  0  0  0  0  0  0  0  0  0
   41.4480   32.4320   40.3760 H   0  0  0  0  0  0  0  0  0  0  0  0
   36.5810   30.3380   40.9250 S   0  0  0  0  0  0  0  0  0  0  0  0
   37.3720   28.8100   42.9870 C   0  0  1  0  0  3  0  0  0  0  0  0
   37.9450   29.5620   41.7780 C   0  0  1  0  0  3  0  0  0  0  0  0
   38.3350   28.3270   40.9620 C   0  0  0  0  0  3  0  0  0  0  0  0
   38.5580   28.6610   39.9450 H   0  0  0  0  0  0  0  0  0  0  0  0
   37.2560   27.4640   41.0780 O   0  0  0  0  0  0  0  0  0  0  0  0
   36.5800   27.7450   42.2450 C   0  0  0  0  0  3  0  0  0  0  0  0
   36.3500   26.8800   42.8820 H   0  0  0  0  0  0  0  0  0  0  0  0
   38.3810   28.1450   43.6770 O   0  0  0  0  0  0  0  0  0  0  0  0
   37.9970   27.8910   44.5520 H   0  0  0  0  0  0  0  0  0  0  0  0
  1  2  1  0  0  0  0
  2  3  2  0  0  0  0
  2 18  1  0  0  0  0
  3 23  1  0  0  0  0
  4  5  1  0  0  0  0
  4  3  1  0  0  0  0
  5 11  1  0  0  0  0
  6  5  1  0  0  0  0
  7  8  1  0  0  0  0
  7  6  2  0  0  0  0
  8  4  2  0  0  0  0
  9  1  2  0  0  0  0
  9  8  1  0  0  0  0
 10  1  1  0  0  0  0
 12  6  1  0  0  0  0
 13  9  1  0  0  0  0
 14 15  1  0  0  0  0
 14 20  1  0  0  0  0
 15 21  1  0  0  0  0
 16 22  1  0  0  0  0
 16 15  2  0  0  0  0
 17 16  1  0  0  0  0
 18 17  2  0  0  0  0
 18 19  1  0  0  0  0
 19 14  2  0  0  0  0
 24 31  1  1  0  0  0
 25 23  1  6  0  0  0
 25 24  1  0  0  0  0
 26 28  1  0  0  0  0
 26 25  1  0  0  0  0
 27 26  1  0  0  0  0
 28 29  1  0  0  0  0
 29 30  1  0  0  0  0
 29 24  1  0  0  0  0
 31 32  1  0  0  0  0
M  END
>  <minimizedAffinity>
-5.09283924

$$$$

 OpenBabel03252509133D

 32 35  0  0  1  0  0  0  0  0999 V2000
   36.5720   26.7090   39.6640 C   0  0  0  0  0  0  0  0  0  0  0  0
   36.4550   28.0530   39.3260 C   0  0  0  0  0  0  0  0  0  0  0  0
   36.6660   29.0820   40.2250 C   0  0  0  0  0  0  0  0  0  0  0  0
   37.0160   28.7780   41.5410 C   0  0  0  0  0  0  0  0  0  0  0  0
   37.2950   29.4710   42.6640 N   0  0  0  0  0  0  0  0  0  0  0  0
   37.5780   28.6350   43.6800 C   0  0  0  0  0  0  0  0  0  0  0  0
   37.4670   27.4100   43.1560 N   0  0  0  0  0  0  0  0  0  0  0  0
   37.1260   27.4410   41.8570 C   0  0  0  0  0  0  0  0  0  0  0  0
   36.9210   26.3990   40.9800 C   0  0  0  0  0  0  0  0  0  0  0  0
   36.3940   25.9360   38.9220 H   0  0  0  0  0  0  0  0  0  0  0  0
   37.2850   30.5140   42.7090 H   0  0  0  0  0  0  0  0  0  0  0  0
   37.8400   28.8630   44.6990 H   0  0  0  0  0  0  0  0  0  0  0  0
   37.0220   25.3630   41.2860 H   0  0  0  0  0  0  0  0  0  0  0  0
   34.4910   28.8770   36.3410 C   0  0  0  0  0  0  0  0  0  0  0  0
   35.4570   29.0700   35.3690 C   0  0  0  0  0  0  0  0  0  0  0  0
   36.8080   28.9170   35.7330 C   0  0  0  0  0  0  0  0  0  0  0  0
   37.0830   28.5850   37.0340 N   0  0  0  0  0  0  0  0  0  0  0  0
   36.0930   28.4070   37.9510 C   0  0  0  0  0  0  0  0  0  0  0  0
   34.8020   28.5480   37.6210 N   0  0  0  0  0  0  0  0  0  0  0  0
   33.4560   28.9960   36.0530 H   0  0  0  0  0  0  0  0  0  0  0  0
   35.2670   29.3300   34.3460 H   0  0  0  0  0  0  0  0  0  0  0  0
   37.6610   29.0370   35.0780 H   0  0  0  0  0  0  0  0  0  0  0  0
   36.5070   30.7970   39.7820 S   0  0  0  0  0  0  0  0  0  0  0  0
   38.1510   32.8950   39.4460 C   0  0  1  0  0  3  0  0  0  0  0  0
   37.9460   31.4560   38.9530 C   0  0  1  0  0  3  0  0  0  0  0  0
   39.1720   30.8490   39.6390 C   0  0  0  0  0  3  0  0  0  0  0  0
   39.0700   29.7600   39.5930 H   0  0  0  0  0  0  0  0  0  0  0  0
   39.1720   31.3880   40.9160 O   0  0  0  0  0  0  0  0  0  0  0  0
   38.5070   32.5950   40.8940 C   0  0  0  0  0  3  0  0  0  0  0  0
   39.0270   33.4340   41.3750 H   0  0  0  0  0  0  0  0  0  0  0  0
   39.2850   33.4560   38.8680 O   0  0  0  0  0  0  0  0  0  0  0  0
   39.2270   34.4290   39.0320 H   0  0  0  0  0  0  0  0  0  0  0  0
  1  9  1  0  0  0  0
  2  1  2  0  0  0  0
  2  3  1  0  0  0  0
  3  4  2  0  0  0  0
  4  8  1  0  0  0  0
  4  5  1  0  0  0  0
  5 11  1  0  0  0  0
  5  6  1  0  0  0  0
  6 12  1  0  0  0  0
  7  6  2  0  0  0  0
  8  7  1  0  0  0  0
  9 13  1  0  0  0  0
  9  8  2  0  0  0  0
 10  1  1  0  0  0  0
 14 19  1  0  0  0  0
 15 16  1  0  0  0  0
 15 14  2  0  0  0  0
 16 17  2  0  0  0  0
 17 18  1  0  0  0  0
 18  2  1  0  0  0  0
 19 18  2  0  0  0  0
 20 14  1  0  0  0  0
 21 15  1  0  0  0  0
 22 16  1  0  0  0  0
 23  3  1  0  0  0  0
 24 31  1  6  0  0  0
 24 29  1  0  0  0  0
 25 24  1  0  0  0  0
 25 26  1  0  0  0  0
 25 23  1  1  0  0  0
 26 28  1  0  0  0  0
 27 26  1  0  0  0  0
 29 28  1  0  0  0  0
 29 30  1  0  0  0  0
 31 32  1  0  0  0  0
M  END
>  <minimizedAffinity>
-5.08500099

$$$$

 OpenBabel03252509133D

 32 35  0  0  1  0  0  0  0  0999 V2000
   36.3800   30.0340   37.2660 C   0  0  0  0  0  0  0  0  0  0  0  0
   37.1450   29.9600   38.4260 C   0  0  0  0  0  0  0  0  0  0  0  0
   37.3320   28.7880   39.1360 C   0  0  0  0  0  0  0  0  0  0  0  0
   36.7350   27.6110   38.6830 C   0  0  0  0  0  0  0  0  0  0  0  0
   36.6850   26.3230   39.0800 N   0  0  0  0  0  0  0  0  0  0  0  0
   35.9340   25.5950   38.2340 C   0  0  0  0  0  0  0  0  0  0  0  0
   35.5220   26.4640   37.3070 N   0  0  0  0  0  0  0  0  0  0  0  0
   35.9810   27.7060   37.5330 C   0  0  0  0  0  0  0  0  0  0  0  0
   35.7790   28.8600   36.8090 C   0  0  0  0  0  0  0  0  0  0  0  0
   36.2620   30.9790   36.7440 H   0  0  0  0  0  0  0  0  0  0  0  0
   37.1740   25.9690   39.9330 H   0  0  0  0  0  0  0  0  0  0  0  0
   35.6950   24.5450   38.2650 H   0  0  0  0  0  0  0  0  0  0  0  0
   35.1740   28.8750   35.9090 H   0  0  0  0  0  0  0  0  0  0  0  0
   37.7270   33.1250   40.1810 C   0  0  0  0  0  0  0  0  0  0  0  0
   39.0320   33.4410   39.8440 C   0  0  0  0  0  0  0  0  0  0  0  0
   39.7320   32.5590   38.9990 C   0  0  0  0  0  0  0  0  0  0  0  0
   39.0750   31.4390   38.5630 N   0  0  0  0  0  0  0  0  0  0  0  0
   37.7890   31.1760   38.9270 C   0  0  0  0  0  0  0  0  0  0  0  0
   37.1090   32.0050   39.7290 N   0  0  0  0  0  0  0  0  0  0  0  0
   37.1960   33.8080   40.8300 H   0  0  0  0  0  0  0  0  0  0  0  0
   39.5660   34.3100   40.1710 H   0  0  0  0  0  0  0  0  0  0  0  0
   40.7520   32.6810   38.6570 H   0  0  0  0  0  0  0  0  0  0  0  0
   38.3070   28.7070   40.6220 S   0  0  0  0  0  0  0  0  0  0  0  0
   36.7200   27.6220   42.4990 C   0  0  1  0  0  3  0  0  0  0  0  0
   37.3570   28.9650   42.1120 C   0  0  1  0  0  3  0  0  0  0  0  0
   38.3550   29.0350   43.2710 C   0  0  0  0  0  3  0  0  0  0  0  0
   39.0730   29.8270   43.0380 H   0  0  0  0  0  0  0  0  0  0  0  0
   38.8910   27.7590   43.3610 O   0  0  0  0  0  0  0  0  0  0  0  0
   37.9880   26.8560   42.8440 C   0  0  0  0  0  3  0  0  0  0  0  0
   37.7820   25.9770   43.4710 H   0  0  0  0  0  0  0  0  0  0  0  0
   35.9950   27.7430   43.6800 O   0  0  0  0  0  0  0  0  0  0  0  0
   35.4300   26.9350   43.7420 H   0  0  0  0  0  0  0  0  0  0  0  0
  1  2  1  0  0  0  0
  2 18  1  0  0  0  0
  2  3  2  0  0  0  0
  3 23  1  0  0  0  0
  4  5  1  0  0  0  0
  4  3  1  0  0  0  0
  5 11  1  0  0  0  0
  6 12  1  0  0  0  0
  6  5  1  0  0  0  0
  7  8  1  0  0  0  0
  7  6  2  0  0  0  0
  8  4  2  0  0  0  0
  9  1  2  0  0  0  0
  9  8  1  0  0  0  0
 10  1  1  0  0  0  0
 13  9  1  0  0  0  0
 14 20  1  0  0  0  0
 15 21  1  0  0  0  0
 15 14  1  0  0  0  0
 16 15  2  0  0  0  0
 17 18  2  0  0  0  0
 17 16  1  0  0  0  0
 18 19  1  0  0  0  0
 19 14  2  0  0  0  0
 22 16  1  0  0  0  0
 24 29  1  0  0  0  0
 24 31  1  1  0  0  0
 25 23  1  6  0  0  0
 25 24  1  0  0  0  0
 25 26  1  0  0  0  0
 26 28  1  0  0  0  0
 27 26  1  0  0  0  0
 29 28  1  0  0  0  0
 29 30  1  0  0  0  0
 31 32  1  0  0  0  0
M  END
>  <minimizedAffinity>
-5.0662384

$$$$

 OpenBabel03252509133D

 32 35  0  0  1  0  0  0  0  0999 V2000
   37.0180   28.4600   42.6940 C   0  0  0  0  0  0  0  0  0  0  0  0
   37.7150   28.7580   41.5280 C   0  0  0  0  0  0  0  0  0  0  0  0
   38.1650   27.7920   40.6460 C   0  0  0  0  0  0  0  0  0  0  0  0
   37.9160   26.4470   40.9200 C   0  0  0  0  0  0  0  0  0  0  0  0
   38.1790   25.2630   40.3300 N   0  0  0  0  0  0  0  0  0  0  0  0
   37.6860   24.2480   41.0630 C   0  0  0  0  0  0  0  0  0  0  0  0
   37.1130   24.8340   42.1180 N   0  0  0  0  0  0  0  0  0  0  0  0
   37.2240   26.1720   42.0810 C   0  0  0  0  0  0  0  0  0  0  0  0
   36.7670   27.1150   42.9740 C   0  0  0  0  0  0  0  0  0  0  0  0
   36.6860   29.2540   43.3560 H   0  0  0  0  0  0  0  0  0  0  0  0
   38.6980   25.1780   39.4280 H   0  0  0  0  0  0  0  0  0  0  0  0
   37.7250   23.1890   40.8740 H   0  0  0  0  0  0  0  0  0  0  0  0
   36.2270   26.8390   43.8730 H   0  0  0  0  0  0  0  0  0  0  0  0
   39.3680   32.0230   41.3070 C   0  0  0  0  0  0  0  0  0  0  0  0
   38.4660   32.7880   40.5880 C   0  0  0  0  0  0  0  0  0  0  0  0
   37.2670   32.1830   40.1680 C   0  0  0  0  0  0  0  0  0  0  0  0
   37.0670   30.8680   40.4990 N   0  0  0  0  0  0  0  0  0  0  0  0
   37.9900   30.1610   41.2080 C   0  0  0  0  0  0  0  0  0  0  0  0
   39.1350   30.7220   41.6160 N   0  0  0  0  0  0  0  0  0  0  0  0
   40.2860   32.4960   41.6260 H   0  0  0  0  0  0  0  0  0  0  0  0
   38.5980   33.8170   40.3180 H   0  0  0  0  0  0  0  0  0  0  0  0
   36.4770   32.6600   39.6020 H   0  0  0  0  0  0  0  0  0  0  0  0
   39.0620   28.1870   39.1610 S   0  0  0  0  0  0  0  0  0  0  0  0
   38.7310   28.1340   36.4960 C   0  0  1  0  0  3  0  0  0  0  0  0
   38.0070   28.5780   37.7740 C   0  0  1  0  0  3  0  0  0  0  0  0
   36.9050   27.5170   37.7390 C   0  0  0  0  0  3  0  0  0  0  0  0
   36.4080   27.5260   38.7140 H   0  0  0  0  0  0  0  0  0  0  0  0
   37.5550   26.3350   37.4180 O   0  0  0  0  0  0  0  0  0  0  0  0
   38.7100   26.6310   36.7270 C   0  0  0  0  0  3  0  0  0  0  0  0
   38.8660   26.0670   35.7970 H   0  0  0  0  0  0  0  0  0  0  0  0
   37.9440   28.3750   35.3740 O   0  0  0  0  0  0  0  0  0  0  0  0
   38.5430   28.2960   34.5930 H   0  0  0  0  0  0  0  0  0  0  0  0
  1  9  1  0  0  0  0
  1 10  1  0  0  0  0
  2  1  2  0  0  0  0
  3  4  2  0  0  0  0
  3  2  1  0  0  0  0
  4  8  1  0  0  0  0
  5  4  1  0  0  0  0
  5  6  1  0  0  0  0
  6  7  2  0  0  0  0
  8  7  1  0  0  0  0
  8  9  2  0  0  0  0
  9 13  1  0  0  0  0
 11  5  1  0  0  0  0
 12  6  1  0  0  0  0
 14 19  1  0  0  0  0
 14 20  1  0  0  0  0
 15 14  2  0  0  0  0
 16 17  2  0  0  0  0
 16 15  1  0  0  0  0
 17 18  1  0  0  0  0
 18  2  1  0  0  0  0
 18 19  2  0  0  0  0
 21 15  1  0  0  0  0
 22 16  1  0  0  0  0
 23  3  1  0  0  0  0
 24 31  1  6  0  0  0
 24 29  1  0  0  0  0
 24 25  1  0  0  0  0
 25 23  1  1  0  0  0
 26 25  1  0  0  0  0
 26 27  1  0  0  0  0
 28 26  1  0  0  0  0
 29 28  1  0  0  0  0
 30 29  1  0  0  0  0
 32 31  1  0  0  0  0
M  END
>  <minimizedAffinity>
-5.03054762

$$$$

 OpenBabel03252509133D

 32 35  0  0  1  0  0  0  0  0999 V2000
   36.4930   26.1590   39.4590 C   0  0  0  0  0  0  0  0  0  0  0  0
   36.5530   27.4260   40.0280 C   0  0  0  0  0  0  0  0  0  0  0  0
   35.9850   28.5460   39.4470 C   0  0  0  0  0  0  0  0  0  0  0  0
   35.3140   28.4190   38.2310 C   0  0  0  0  0  0  0  0  0  0  0  0
   34.6550   29.2380   37.3860 N   0  0  0  0  0  0  0  0  0  0  0  0
   34.1900   28.5520   36.3260 C   0  0  0  0  0  0  0  0  0  0  0  0
   34.5780   27.2910   36.5370 N   0  0  0  0  0  0  0  0  0  0  0  0
   35.2660   27.1540   37.6830 C   0  0  0  0  0  0  0  0  0  0  0  0
   35.8230   26.0250   38.2420 C   0  0  0  0  0  0  0  0  0  0  0  0
   36.9550   25.3100   39.9550 H   0  0  0  0  0  0  0  0  0  0  0  0
   34.5390   30.2610   37.5580 H   0  0  0  0  0  0  0  0  0  0  0  0
   33.6290   28.9050   35.4780 H   0  0  0  0  0  0  0  0  0  0  0  0
   35.7530   25.0540   37.7640 H   0  0  0  0  0  0  0  0  0  0  0  0
   37.2130   27.7300   43.6220 C   0  0  0  0  0  0  0  0  0  0  0  0
   38.5840   27.9140   43.6790 C   0  0  0  0  0  0  0  0  0  0  0  0
   39.3030   27.9370   42.4690 C   0  0  0  0  0  0  0  0  0  0  0  0
   38.5970   27.7740   41.3060 N   0  0  0  0  0  0  0  0  0  0  0  0
   37.2470   27.5950   41.3070 C   0  0  0  0  0  0  0  0  0  0  0  0
   36.5480   27.5710   42.4490 N   0  0  0  0  0  0  0  0  0  0  0  0
   36.6680   27.7140   44.5550 H   0  0  0  0  0  0  0  0  0  0  0  0
   39.1580   28.0450   44.5750 H   0  0  0  0  0  0  0  0  0  0  0  0
   40.3720   28.0720   42.3660 H   0  0  0  0  0  0  0  0  0  0  0  0
   36.0760   30.1640   40.1820 S   0  0  0  0  0  0  0  0  0  0  0  0
   37.3930   32.5020   40.0560 C   0  0  1  0  0  3  0  0  0  0  0  0
   36.8880   31.3720   39.1470 C   0  0  1  0  0  3  0  0  0  0  0  0
   38.2610   30.7990   38.7870 C   0  0  0  0  0  3  0  0  0  0  0  0
   38.0980   29.8240   38.3170 H   0  0  0  0  0  0  0  0  0  0  0  0
   38.9630   30.7690   39.9820 O   0  0  0  0  0  0  0  0  0  0  0  0
   38.4450   31.7240   40.8300 C   0  0  0  0  0  3  0  0  0  0  0  0
   39.1810   32.3850   41.3080 H   0  0  0  0  0  0  0  0  0  0  0  0
   38.0750   33.4620   39.3150 O   0  0  0  0  0  0  0  0  0  0  0  0
   38.1590   34.2540   39.8990 H   0  0  0  0  0  0  0  0  0  0  0  0
  1 10  1  0  0  0  0
  1  2  1  0  0  0  0
  2 18  1  0  0  0  0
  3  2  2  0  0  0  0
  3 23  1  0  0  0  0
  4  3  1  0  0  0  0
  5 11  1  0  0  0  0
  5  4  1  0  0  0  0
  6  7  2  0  0  0  0
  6  5  1  0  0  0  0
  7  8  1  0  0  0  0
  8  4  2  0  0  0  0
  8  9  1  0  0  0  0
  9  1  2  0  0  0  0
 12  6  1  0  0  0  0
 13  9  1  0  0  0  0
 14 15  1  0  0  0  0
 14 20  1  0  0  0  0
 15 21  1  0  0  0  0
 16 15  2  0  0  0  0
 17 18  2  0  0  0  0
 17 16  1  0  0  0  0
 18 19  1  0  0  0  0
 19 14  2  0  0  0  0
 22 16  1  0  0  0  0
 24 31  1  6  0  0  0
 24 29  1  0  0  0  0
 25 24  1  0  0  0  0
 25 23  1  1  0  0  0
 26 25  1  0  0  0  0
 26 28  1  0  0  0  0
 27 26  1  0  0  0  0
 28 29  1  0  0  0  0
 29 30  1  0  0  0  0
 31 32  1  0  0  0  0
M  END
>  <minimizedAffinity>
-5.01049471

$$$$
