
 OpenBabel03252507543D

 44 47  0  0  1  0  0  0  0  0999 V2000
   47.1130   34.8040   42.1230 C   0  0  2  0  0  0  0  0  0  0  0  0
   46.3250   34.3590   40.8900 C   0  0  0  0  0  0  0  0  0  0  0  0
   47.5220   34.2130   39.9250 C   0  0  0  0  0  0  0  0  0  0  0  0
   48.6330   33.6740   40.7720 C   0  0  1  0  0  0  0  0  0  0  0  0
   48.1250   33.6930   42.1830 C   0  0  0  0  0  0  0  0  0  0  0  0
   47.6050   35.7600   41.8860 H   0  0  0  0  0  0  0  0  0  0  0  0
   45.8640   33.3900   41.0790 H   0  0  0  0  0  0  0  0  0  0  0  0
   45.6610   35.1640   40.5710 H   0  0  0  0  0  0  0  0  0  0  0  0
   47.2750   33.5950   39.0610 H   0  0  0  0  0  0  0  0  0  0  0  0
   47.7560   35.2620   39.6020 H   0  0  0  0  0  0  0  0  0  0  0  0
   49.5640   34.2760   40.6620 H   0  0  0  0  0  0  0  0  0  0  0  0
   47.6990   32.7490   42.5230 H   0  0  0  0  0  0  0  0  0  0  0  0
   48.9770   34.0410   42.8280 H   0  0  0  0  0  0  0  0  0  0  0  0
   44.5400   35.7690   44.6980 C   0  0  0  0  0  0  0  0  0  0  0  0
   45.2690   35.8170   43.5100 C   0  0  0  0  0  0  0  0  0  0  0  0
   46.2500   34.8500   43.3330 C   0  0  0  0  0  0  0  0  0  0  0  0
   46.4790   33.8790   44.3210 N   0  0  0  0  0  0  0  0  0  0  0  0
   45.7350   33.8870   45.4560 C   0  0  0  0  0  0  0  0  0  0  0  0
   44.7730   34.8260   45.6420 N   0  0  0  0  0  0  0  0  0  0  0  0
   43.7740   36.5180   44.8470 H   0  0  0  0  0  0  0  0  0  0  0  0
   45.1090   36.5560   42.7360 H   0  0  0  0  0  0  0  0  0  0  0  0
   45.9970   33.0950   46.1460 H   0  0  0  0  0  0  0  0  0  0  0  0
   49.0280   32.2480   40.4580 C   0  0  2  0  0  0  0  0  0  0  0  0
   50.0500   31.6690   41.3210 C   0  0  0  0  0  0  0  0  0  0  0  0
   50.3320   31.9230   39.8760 C   0  0  1  0  0  0  0  0  0  0  0  0
   48.1740   31.6120   40.1650 H   0  0  0  0  0  0  0  0  0  0  0  0
   50.6350   32.2970   42.0540 H   0  0  0  0  0  0  0  0  0  0  0  0
   49.9320   30.6360   41.6930 H   0  0  0  0  0  0  0  0  0  0  0  0
   50.9590   32.7610   39.5330 H   0  0  0  0  0  0  0  0  0  0  0  0
   50.3960   30.7970   39.0190 O   0  0  0  0  0  0  0  0  0  0  0  0
   49.0340   30.8200   36.7970 O   0  0  0  0  0  0  0  0  0  0  0  0
   50.2990   31.3430   37.4310 P   0  0  1  0  0  0  0  0  0  0  0  0
   50.2130   33.0560   37.4070 O   0  0  0  0  0  0  0  0  0  0  0  0
   49.3090   33.2800   37.7500 H   0  0  0  0  0  0  0  0  0  0  0  0
   51.5850   30.9140   36.4710 O   0  0  0  0  0  0  0  0  0  0  0  0
   53.6780   29.7220   36.4550 C   0  0  1  0  0  3  0  0  0  0  0  0
   52.6220   30.4860   37.2650 C   0  0  1  0  0  3  0  0  0  0  0  0
   53.4910   31.6010   37.7990 C   0  0  0  0  0  3  0  0  0  0  0  0
   53.6620   32.3610   36.9860 H   0  0  0  0  0  0  0  0  0  0  0  0
   54.7350   31.0450   38.0560 O   0  0  0  0  0  0  0  0  0  0  0  0
   54.8290   29.8240   37.4270 C   0  0  0  0  0  3  0  0  0  0  0  0
   55.7990   29.5870   36.9890 H   0  0  0  0  0  0  0  0  0  0  0  0
   53.2860   28.4040   36.2480 O   0  0  0  0  0  0  0  0  0  0  0  0
   52.9290   28.3470   35.3260 H   0  0  0  0  0  0  0  0  0  0  0  0
  1  6  1  6  0  0  0
  1  5  1  0  0  0  0
  1 16  1  0  0  0  0
  2  7  1  0  0  0  0
  2  1  1  0  0  0  0
  3  4  1  0  0  0  0
  3  2  1  0  0  0  0
  4 11  1  6  0  0  0
  4  5  1  0  0  0  0
  5 12  1  0  0  0  0
  5 13  1  0  0  0  0
  8  2  1  0  0  0  0
  9  3  1  0  0  0  0
 10  3  1  0  0  0  0
 14 20  1  0  0  0  0
 14 19  1  0  0  0  0
 15 14  2  0  0  0  0
 16 15  1  0  0  0  0
 16 17  2  0  0  0  0
 17 18  1  0  0  0  0
 18 19  2  0  0  0  0
 18 22  1  0  0  0  0
 21 15  1  0  0  0  0
 23 26  1  6  0  0  0
 23  4  1  0  0  0  0
 23 24  1  0  0  0  0
 24 28  1  0  0  0  0
 24 27  1  0  0  0  0
 25 29  1  6  0  0  0
 25 23  1  0  0  0  0
 25 24  1  0  0  0  0
 30 25  1  0  0  0  0
 32 31  2  6  0  0  0
 32 30  1  0  0  0  0
 33 32  1  0  0  0  0
 33 34  1  0  0  0  0
 35 32  1  0  0  0  0
 36 43  1  1  0  0  0
 36 37  1  0  0  0  0
 36 41  1  0  0  0  0
 37 35  1  6  0  0  0
 37 38  1  0  0  0  0
 38 40  1  0  0  0  0
 39 38  1  0  0  0  0
 41 40  1  0  0  0  0
 42 41  1  0  0  0  0
 44 43  1  0  0  0  0
M  END
>  <minimizedAffinity>
-5.19530535

>  <minimizedRMSD>
1.66966975

$$$$
