
 OpenBabel03242517433D

 19 20  0  0  1  0  0  0  0  0999 V2000
   37.6560   28.8890   43.2650 S   0  0  0  0  0  0  0  0  0  0  0  0
   39.5830   26.9470   43.6760 C   0  0  0  0  0  0  0  0  0  0  0  0
   38.3400   27.2330   43.0990 C   0  0  0  0  0  0  0  0  0  0  0  0
   37.6430   26.2360   42.4010 C   0  0  0  0  0  0  0  0  0  0  0  0
   38.2520   25.0170   42.3350 N   0  0  0  0  0  0  0  0  0  0  0  0
   39.4470   24.7640   42.8980 C   0  0  0  0  0  0  0  0  0  0  0  0
   40.1080   25.7120   43.5600 N   0  0  0  0  0  0  0  0  0  0  0  0
   40.0880   27.7600   44.2110 H   0  0  0  0  0  0  0  0  0  0  0  0
   36.7030   26.4720   41.9710 H   0  0  0  0  0  0  0  0  0  0  0  0
   39.8820   23.7750   42.8120 H   0  0  0  0  0  0  0  0  0  0  0  0
   36.4860   29.8600   41.0640 C   0  0  2  0  0  3  0  0  0  0  0  0
   37.8240   29.8540   41.7770 C   0  0  2  0  0  3  0  0  0  0  0  0
   38.7360   29.2900   40.7390 C   0  0  0  0  0  3  0  0  0  0  0  0
   39.2260   28.3970   41.1380 H   0  0  0  0  0  0  0  0  0  0  0  0
   37.9820   29.0440   39.5970 O   0  0  0  0  0  0  0  0  0  0  0  0
   36.9500   30.0030   39.6300 C   0  0  0  0  0  3  0  0  0  0  0  0
   37.3600   31.0280   39.4590 H   0  0  0  0  0  0  0  0  0  0  0  0
   35.6410   30.8770   41.4670 O   0  0  0  0  0  0  0  0  0  0  0  0
   36.0970   31.7310   41.5230 H   0  0  0  0  0  0  0  0  0  0  0  0
  2  8  1  0  0  0  0
  3  1  1  0  0  0  0
  3  2  2  0  0  0  0
  4  3  1  0  0  0  0
  5  4  2  0  0  0  0
  5  6  1  0  0  0  0
  6  7  2  0  0  0  0
  7  2  1  0  0  0  0
  9  4  1  0  0  0  0
 10  6  1  0  0  0  0
 11 18  1  1  0  0  0
 11 12  1  0  0  0  0
 12  1  1  1  0  0  0
 13 14  1  0  0  0  0
 13 12  1  0  0  0  0
 15 16  1  0  0  0  0
 15 13  1  0  0  0  0
 16 11  1  0  0  0  0
 17 16  1  0  0  0  0
 18 19  1  0  0  0  0
M  END
>  <minimizedAffinity>
-4.09635353

$$$$

 OpenBabel03242517433D

 19 20  0  0  1  0  0  0  0  0999 V2000
   39.2410   30.3550   40.6810 S   0  0  0  0  0  0  0  0  0  0  0  0
   38.7190   28.7930   42.9040 C   0  0  0  0  0  0  0  0  0  0  0  0
   38.2300   29.2450   41.6720 C   0  0  0  0  0  0  0  0  0  0  0  0
   36.9660   28.8330   41.2230 C   0  0  0  0  0  0  0  0  0  0  0  0
   36.2840   27.9910   42.0520 N   0  0  0  0  0  0  0  0  0  0  0  0
   36.7720   27.5710   43.2310 C   0  0  0  0  0  0  0  0  0  0  0  0
   37.9720   27.9620   43.6570 N   0  0  0  0  0  0  0  0  0  0  0  0
   39.7110   29.1440   43.2100 H   0  0  0  0  0  0  0  0  0  0  0  0
   36.6140   29.1850   40.2870 H   0  0  0  0  0  0  0  0  0  0  0  0
   36.1830   26.9010   43.8490 H   0  0  0  0  0  0  0  0  0  0  0  0
   37.8000   32.5370   40.1140 C   0  0  2  0  0  3  0  0  0  0  0  0
   38.9170   32.0720   41.0280 C   0  0  2  0  0  3  0  0  0  0  0  0
   40.0190   33.0210   40.6920 C   0  0  0  0  0  3  0  0  0  0  0  0
   40.8960   32.4520   40.3660 H   0  0  0  0  0  0  0  0  0  0  0  0
   39.5430   33.9030   39.7290 O   0  0  0  0  0  0  0  0  0  0  0  0
   38.1600   34.0010   39.9780 C   0  0  0  0  0  3  0  0  0  0  0  0
   37.9700   34.5350   40.9410 H   0  0  0  0  0  0  0  0  0  0  0  0
   36.5330   32.3330   40.6290 O   0  0  0  0  0  0  0  0  0  0  0  0
   36.4670   32.6090   41.5560 H   0  0  0  0  0  0  0  0  0  0  0  0
  1  3  1  0  0  0  0
  2  8  1  0  0  0  0
  2  7  1  0  0  0  0
  3  2  2  0  0  0  0
  4  3  1  0  0  0  0
  4  5  2  0  0  0  0
  5  6  1  0  0  0  0
  6  7  2  0  0  0  0
  6 10  1  0  0  0  0
  9  4  1  0  0  0  0
 11 18  1  1  0  0  0
 11 12  1  0  0  0  0
 12  1  1  6  0  0  0
 13 12  1  0  0  0  0
 14 13  1  0  0  0  0
 15 16  1  0  0  0  0
 15 13  1  0  0  0  0
 16 11  1  0  0  0  0
 16 17  1  0  0  0  0
 18 19  1  0  0  0  0
M  END
>  <minimizedAffinity>
-4.06999207

$$$$

 OpenBabel03242517433D

 19 20  0  0  1  0  0  0  0  0999 V2000
   38.6860   29.2960   40.7690 S   0  0  0  0  0  0  0  0  0  0  0  0
   39.0760   32.0140   41.1120 C   0  0  0  0  0  0  0  0  0  0  0  0
   38.3490   31.0310   40.4300 C   0  0  0  0  0  0  0  0  0  0  0  0
   37.3720   31.4020   39.4940 C   0  0  0  0  0  0  0  0  0  0  0  0
   37.1970   32.7430   39.3130 N   0  0  0  0  0  0  0  0  0  0  0  0
   37.9080   33.6700   39.9790 C   0  0  0  0  0  0  0  0  0  0  0  0
   38.8350   33.3170   40.8680 N   0  0  0  0  0  0  0  0  0  0  0  0
   39.8280   31.6730   41.8330 H   0  0  0  0  0  0  0  0  0  0  0  0
   36.8320   30.6430   38.9870 H   0  0  0  0  0  0  0  0  0  0  0  0
   37.7240   34.7220   39.7940 H   0  0  0  0  0  0  0  0  0  0  0  0
   37.4640   28.1860   42.8740 C   0  0  2  0  0  3  0  0  0  0  0  0
   37.2590   28.4300   41.3920 C   0  0  2  0  0  3  0  0  0  0  0  0
   37.0590   27.0480   40.8660 C   0  0  0  0  0  3  0  0  0  0  0  0
   37.8060   26.8470   40.0910 H   0  0  0  0  0  0  0  0  0  0  0  0
   37.1260   26.1680   41.9400 O   0  0  0  0  0  0  0  0  0  0  0  0
   36.6660   26.9100   43.0460 C   0  0  0  0  0  3  0  0  0  0  0  0
   35.5740   27.1240   42.9490 H   0  0  0  0  0  0  0  0  0  0  0  0
   37.0200   29.2190   43.6790 O   0  0  0  0  0  0  0  0  0  0  0  0
   36.1420   29.5340   43.4180 H   0  0  0  0  0  0  0  0  0  0  0  0
  2  8  1  0  0  0  0
  3  1  1  0  0  0  0
  3  2  2  0  0  0  0
  4  3  1  0  0  0  0
  5  4  2  0  0  0  0
  5  6  1  0  0  0  0
  6  7  2  0  0  0  0
  7  2  1  0  0  0  0
  9  4  1  0  0  0  0
 10  6  1  0  0  0  0
 11 16  1  0  0  0  0
 11 18  1  1  0  0  0
 12  1  1  6  0  0  0
 12 11  1  0  0  0  0
 13 12  1  0  0  0  0
 13 15  1  0  0  0  0
 14 13  1  0  0  0  0
 15 16  1  0  0  0  0
 17 16  1  0  0  0  0
 19 18  1  0  0  0  0
M  END
>  <minimizedAffinity>
-3.88906097

$$$$

 OpenBabel03242517433D

 19 20  0  0  1  0  0  0  0  0999 V2000
   37.0400   28.5520   39.5540 S   0  0  0  0  0  0  0  0  0  0  0  0
   37.4820   27.0460   41.8330 C   0  0  0  0  0  0  0  0  0  0  0  0
   37.0530   27.0210   40.5000 C   0  0  0  0  0  0  0  0  0  0  0  0
   36.6400   25.8140   39.9160 C   0  0  0  0  0  0  0  0  0  0  0  0
   36.6890   24.7140   40.7210 N   0  0  0  0  0  0  0  0  0  0  0  0
   37.1030   24.7610   42.0000 C   0  0  0  0  0  0  0  0  0  0  0  0
   37.4960   25.9070   42.5530 N   0  0  0  0  0  0  0  0  0  0  0  0
   37.7940   28.0130   42.2420 H   0  0  0  0  0  0  0  0  0  0  0  0
   36.3190   25.8160   38.9060 H   0  0  0  0  0  0  0  0  0  0  0  0
   37.1210   23.8530   42.5920 H   0  0  0  0  0  0  0  0  0  0  0  0
   36.6280   31.0610   40.3870 C   0  0  2  0  0  3  0  0  0  0  0  0
   37.6460   29.9420   40.4900 C   0  0  2  0  0  3  0  0  0  0  0  0
   38.8840   30.5880   39.9650 C   0  0  0  0  0  3  0  0  0  0  0  0
   39.2610   30.0060   39.1170 H   0  0  0  0  0  0  0  0  0  0  0  0
   38.5740   31.9030   39.6390 O   0  0  0  0  0  0  0  0  0  0  0  0
   37.5390   32.2620   40.5250 C   0  0  0  0  0  3  0  0  0  0  0  0
   37.9240   32.3340   41.5710 H   0  0  0  0  0  0  0  0  0  0  0  0
   35.6410   31.0120   41.3530 O   0  0  0  0  0  0  0  0  0  0  0  0
   36.0020   30.8470   42.2370 H   0  0  0  0  0  0  0  0  0  0  0  0
  1  3  1  0  0  0  0
  2  8  1  0  0  0  0
  2  7  1  0  0  0  0
  3  2  2  0  0  0  0
  4  3  1  0  0  0  0
  4  5  2  0  0  0  0
  5  6  1  0  0  0  0
  6  7  2  0  0  0  0
  6 10  1  0  0  0  0
  9  4  1  0  0  0  0
 11 12  1  0  0  0  0
 11 16  1  0  0  0  0
 11 18  1  1  0  0  0
 12  1  1  6  0  0  0
 13 12  1  0  0  0  0
 14 13  1  0  0  0  0
 15 13  1  0  0  0  0
 15 16  1  0  0  0  0
 16 17  1  0  0  0  0
 18 19  1  0  0  0  0
M  END
>  <minimizedAffinity>
-3.81162262

$$$$

 OpenBabel03242517433D

 19 20  0  0  1  0  0  0  0  0999 V2000
   40.0060   30.7990   40.3870 S   0  0  0  0  0  0  0  0  0  0  0  0
   37.8540   29.0780   40.6390 C   0  0  0  0  0  0  0  0  0  0  0  0
   38.8210   29.8230   41.3250 C   0  0  0  0  0  0  0  0  0  0  0  0
   38.8590   29.8040   42.7280 C   0  0  0  0  0  0  0  0  0  0  0  0
   37.9160   29.0320   43.3400 N   0  0  0  0  0  0  0  0  0  0  0  0
   36.9960   28.3240   42.6600 C   0  0  0  0  0  0  0  0  0  0  0  0
   36.9610   28.3420   41.3290 N   0  0  0  0  0  0  0  0  0  0  0  0
   37.8670   29.1260   39.5440 H   0  0  0  0  0  0  0  0  0  0  0  0
   39.5990   30.3750   43.2290 H   0  0  0  0  0  0  0  0  0  0  0  0
   36.2700   27.7270   43.2020 H   0  0  0  0  0  0  0  0  0  0  0  0
   38.2430   32.8050   40.5430 C   0  0  2  0  0  3  0  0  0  0  0  0
   39.2580   32.2050   39.5890 C   0  0  2  0  0  3  0  0  0  0  0  0
   38.4270   31.9030   38.3870 C   0  0  0  0  0  3  0  0  0  0  0  0
   38.5090   30.8370   38.1520 H   0  0  0  0  0  0  0  0  0  0  0  0
   37.1260   32.3120   38.6550 O   0  0  0  0  0  0  0  0  0  0  0  0
   37.2610   33.3910   39.5510 C   0  0  0  0  0  3  0  0  0  0  0  0
   37.7140   34.2740   39.0380 H   0  0  0  0  0  0  0  0  0  0  0  0
   38.7730   33.7450   41.4060 O   0  0  0  0  0  0  0  0  0  0  0  0
   39.3510   34.3760   40.9500 H   0  0  0  0  0  0  0  0  0  0  0  0
  1  3  1  0  0  0  0
  2  3  2  0  0  0  0
  2  7  1  0  0  0  0
  3  4  1  0  0  0  0
  4  9  1  0  0  0  0
  4  5  2  0  0  0  0
  6 10  1  0  0  0  0
  6  5  1  0  0  0  0
  7  6  2  0  0  0  0
  8  2  1  0  0  0  0
 11 18  1  1  0  0  0
 12  1  1  1  0  0  0
 12 11  1  0  0  0  0
 13 15  1  0  0  0  0
 13 12  1  0  0  0  0
 14 13  1  0  0  0  0
 15 16  1  0  0  0  0
 16 11  1  0  0  0  0
 17 16  1  0  0  0  0
 19 18  1  0  0  0  0
M  END
>  <minimizedAffinity>
-3.75749612

$$$$

 OpenBabel03242517433D

 19 20  0  0  1  0  0  0  0  0999 V2000
   37.5850   30.6100   38.7500 S   0  0  0  0  0  0  0  0  0  0  0  0
   38.1320   33.1870   39.5970 C   0  0  0  0  0  0  0  0  0  0  0  0
   38.6490   31.8980   39.4190 C   0  0  0  0  0  0  0  0  0  0  0  0
   39.9820   31.6220   39.7600 C   0  0  0  0  0  0  0  0  0  0  0  0
   40.7000   32.6690   40.2580 N   0  0  0  0  0  0  0  0  0  0  0  0
   40.1820   33.8990   40.4220 C   0  0  0  0  0  0  0  0  0  0  0  0
   38.9170   34.1610   40.0970 N   0  0  0  0  0  0  0  0  0  0  0  0
   37.0850   33.3510   39.3160 H   0  0  0  0  0  0  0  0  0  0  0  0
   40.3550   30.6400   39.6170 H   0  0  0  0  0  0  0  0  0  0  0  0
   40.8010   34.6940   40.8230 H   0  0  0  0  0  0  0  0  0  0  0  0
   36.8510   30.2330   41.2950 C   0  0  2  0  0  3  0  0  0  0  0  0
   37.0230   29.4690   39.9970 C   0  0  2  0  0  3  0  0  0  0  0  0
   37.9920   28.4010   40.3830 C   0  0  0  0  0  3  0  0  0  0  0  0
   38.8710   28.4620   39.7340 H   0  0  0  0  0  0  0  0  0  0  0  0
   38.2870   28.5590   41.7320 O   0  0  0  0  0  0  0  0  0  0  0  0
   37.1270   29.1290   42.2930 C   0  0  0  0  0  3  0  0  0  0  0  0
   36.2880   28.3920   42.2930 H   0  0  0  0  0  0  0  0  0  0  0  0
   35.6020   30.8060   41.4470 O   0  0  0  0  0  0  0  0  0  0  0  0
   34.8880   30.1910   41.2180 H   0  0  0  0  0  0  0  0  0  0  0  0
  1  3  1  0  0  0  0
  2  7  1  0  0  0  0
  3  2  2  0  0  0  0
  3  4  1  0  0  0  0
  4  5  2  0  0  0  0
  5  6  1  0  0  0  0
  6 10  1  0  0  0  0
  7  6  2  0  0  0  0
  8  2  1  0  0  0  0
  9  4  1  0  0  0  0
 11 18  1  1  0  0  0
 11 16  1  0  0  0  0
 12  1  1  6  0  0  0
 12 13  1  0  0  0  0
 12 11  1  0  0  0  0
 13 15  1  0  0  0  0
 14 13  1  0  0  0  0
 15 16  1  0  0  0  0
 16 17  1  0  0  0  0
 19 18  1  0  0  0  0
M  END
>  <minimizedAffinity>
-3.72885609

$$$$

 OpenBabel03242517433D

 19 20  0  0  1  0  0  0  0  0999 V2000
   38.9900   30.8240   41.7000 S   0  0  0  0  0  0  0  0  0  0  0  0
   38.2200   28.7250   43.3300 C   0  0  0  0  0  0  0  0  0  0  0  0
   38.8820   29.0860   42.1500 C   0  0  0  0  0  0  0  0  0  0  0  0
   39.4510   28.0970   41.3330 C   0  0  0  0  0  0  0  0  0  0  0  0
   39.3120   26.8110   41.7660 N   0  0  0  0  0  0  0  0  0  0  0  0
   38.6710   26.4880   42.9040 C   0  0  0  0  0  0  0  0  0  0  0  0
   38.1310   27.4270   43.6790 N   0  0  0  0  0  0  0  0  0  0  0  0
   37.7930   29.5340   43.9330 H   0  0  0  0  0  0  0  0  0  0  0  0
   39.9480   28.3900   40.4430 H   0  0  0  0  0  0  0  0  0  0  0  0
   38.5920   25.4470   43.1980 H   0  0  0  0  0  0  0  0  0  0  0  0
   36.6170   30.4500   40.5230 C   0  0  2  0  0  3  0  0  0  0  0  0
   37.8900   31.2580   40.3670 C   0  0  2  0  0  3  0  0  0  0  0  0
   38.3470   30.8720   38.9990 C   0  0  0  0  0  3  0  0  0  0  0  0
   39.3590   30.4600   39.0610 H   0  0  0  0  0  0  0  0  0  0  0  0
   37.4170   29.9810   38.4740 O   0  0  0  0  0  0  0  0  0  0  0  0
   36.1930   30.3390   39.0730 C   0  0  0  0  0  3  0  0  0  0  0  0
   35.8470   31.3320   38.6970 H   0  0  0  0  0  0  0  0  0  0  0  0
   35.6650   31.0530   41.3240 O   0  0  0  0  0  0  0  0  0  0  0  0
   35.5500   31.9920   41.1110 H   0  0  0  0  0  0  0  0  0  0  0  0
  1  3  1  0  0  0  0
  2  7  1  0  0  0  0
  2  8  1  0  0  0  0
  3  2  2  0  0  0  0
  4  5  2  0  0  0  0
  4  3  1  0  0  0  0
  5  6  1  0  0  0  0
  6 10  1  0  0  0  0
  6  7  2  0  0  0  0
  9  4  1  0  0  0  0
 11 18  1  1  0  0  0
 12 11  1  0  0  0  0
 12  1  1  1  0  0  0
 13 14  1  0  0  0  0
 13 12  1  0  0  0  0
 15 13  1  0  0  0  0
 15 16  1  0  0  0  0
 16 11  1  0  0  0  0
 17 16  1  0  0  0  0
 19 18  1  0  0  0  0
M  END
>  <minimizedAffinity>
-3.67857075

$$$$

 OpenBabel03242517433D

 19 20  0  0  1  0  0  0  0  0999 V2000
   38.4420   29.9170   39.9940 S   0  0  0  0  0  0  0  0  0  0  0  0
   38.5630   27.2960   40.8700 C   0  0  0  0  0  0  0  0  0  0  0  0
   38.6360   28.6420   41.2480 C   0  0  0  0  0  0  0  0  0  0  0  0
   38.8580   28.9840   42.5900 C   0  0  0  0  0  0  0  0  0  0  0  0
   38.9910   27.9400   43.4580 N   0  0  0  0  0  0  0  0  0  0  0  0
   38.9180   26.6540   43.0730 C   0  0  0  0  0  0  0  0  0  0  0  0
   38.7070   26.3300   41.7980 N   0  0  0  0  0  0  0  0  0  0  0  0
   38.3880   27.0810   39.8090 H   0  0  0  0  0  0  0  0  0  0  0  0
   38.9100   30.0090   42.8570 H   0  0  0  0  0  0  0  0  0  0  0  0
   39.0310   25.8660   43.8090 H   0  0  0  0  0  0  0  0  0  0  0  0
   35.8440   29.8150   40.6230 C   0  0  2  0  0  3  0  0  0  0  0  0
   36.7570   30.0870   39.4430 C   0  0  2  0  0  3  0  0  0  0  0  0
   36.2960   29.0790   38.4440 C   0  0  0  0  0  3  0  0  0  0  0  0
   37.1430   28.4500   38.1520 H   0  0  0  0  0  0  0  0  0  0  0  0
   35.2470   28.3650   39.0110 O   0  0  0  0  0  0  0  0  0  0  0  0
   34.6310   29.2690   39.9000 C   0  0  0  0  0  3  0  0  0  0  0  0
   34.1190   30.0870   39.3370 H   0  0  0  0  0  0  0  0  0  0  0  0
   35.5660   30.9330   41.3860 O   0  0  0  0  0  0  0  0  0  0  0  0
   35.3370   31.7010   40.8410 H   0  0  0  0  0  0  0  0  0  0  0  0
  1  3  1  0  0  0  0
  2  3  2  0  0  0  0
  2  7  1  0  0  0  0
  3  4  1  0  0  0  0
  4  9  1  0  0  0  0
  4  5  2  0  0  0  0
  6  5  1  0  0  0  0
  6 10  1  0  0  0  0
  7  6  2  0  0  0  0
  8  2  1  0  0  0  0
 11 18  1  6  0  0  0
 12  1  1  1  0  0  0
 12 11  1  0  0  0  0
 13 15  1  0  0  0  0
 13 12  1  0  0  0  0
 14 13  1  0  0  0  0
 15 16  1  0  0  0  0
 16 11  1  0  0  0  0
 17 16  1  0  0  0  0
 19 18  1  0  0  0  0
M  END
>  <minimizedAffinity>
-3.67743468

$$$$

 OpenBabel03242517433D

 19 20  0  0  1  0  0  0  0  0999 V2000
   37.7830   29.6820   40.3780 S   0  0  0  0  0  0  0  0  0  0  0  0
   37.1100   32.2390   39.5620 C   0  0  0  0  0  0  0  0  0  0  0  0
   38.0080   31.4660   40.3080 C   0  0  0  0  0  0  0  0  0  0  0  0
   39.0690   32.0820   40.9890 C   0  0  0  0  0  0  0  0  0  0  0  0
   39.1480   33.4390   40.8680 N   0  0  0  0  0  0  0  0  0  0  0  0
   38.2720   34.1610   40.1470 C   0  0  0  0  0  0  0  0  0  0  0  0
   37.2660   33.5760   39.5000 N   0  0  0  0  0  0  0  0  0  0  0  0
   36.2980   31.7100   39.0490 H   0  0  0  0  0  0  0  0  0  0  0  0
   39.7390   31.4800   41.5480 H   0  0  0  0  0  0  0  0  0  0  0  0
   38.3860   35.2380   40.0880 H   0  0  0  0  0  0  0  0  0  0  0  0
   38.9360   28.3390   42.3850 C   0  0  2  0  0  3  0  0  0  0  0  0
   37.6530   29.0730   42.0470 C   0  0  2  0  0  3  0  0  0  0  0  0
   36.6160   28.0240   42.2760 C   0  0  0  0  0  3  0  0  0  0  0  0
   36.0390   27.8830   41.3560 H   0  0  0  0  0  0  0  0  0  0  0  0
   37.2630   26.8710   42.7050 O   0  0  0  0  0  0  0  0  0  0  0  0
   38.4100   27.3300   43.3830 C   0  0  0  0  0  3  0  0  0  0  0  0
   38.1270   27.8420   44.3350 H   0  0  0  0  0  0  0  0  0  0  0  0
   39.9270   29.1520   42.9010 O   0  0  0  0  0  0  0  0  0  0  0  0
   39.5890   29.7520   43.5840 H   0  0  0  0  0  0  0  0  0  0  0  0
  2  3  1  0  0  0  0
  3  1  1  0  0  0  0
  3  4  2  0  0  0  0
  4  9  1  0  0  0  0
  5  4  1  0  0  0  0
  6  5  2  0  0  0  0
  7  2  2  0  0  0  0
  7  6  1  0  0  0  0
  8  2  1  0  0  0  0
 10  6  1  0  0  0  0
 11 18  1  1  0  0  0
 11 16  1  0  0  0  0
 12  1  1  6  0  0  0
 12 13  1  0  0  0  0
 12 11  1  0  0  0  0
 13 15  1  0  0  0  0
 14 13  1  0  0  0  0
 15 16  1  0  0  0  0
 16 17  1  0  0  0  0
 18 19  1  0  0  0  0
M  END
>  <minimizedAffinity>
-3.64325833

$$$$
