
 OpenBabel03252507543D

 44 47  0  0  1  0  0  0  0  0999 V2000
   47.1140   34.8210   41.9810 C   0  0  2  0  0  0  0  0  0  0  0  0
   46.3640   34.2340   40.7850 C   0  0  0  0  0  0  0  0  0  0  0  0
   47.5820   34.0510   39.8530 C   0  0  0  0  0  0  0  0  0  0  0  0
   48.7000   33.6380   40.7580 C   0  0  1  0  0  0  0  0  0  0  0  0
   48.1690   33.7640   42.1560 C   0  0  0  0  0  0  0  0  0  0  0  0
   47.5700   35.7720   41.6640 H   0  0  0  0  0  0  0  0  0  0  0  0
   45.9410   33.2680   41.0560 H   0  0  0  0  0  0  0  0  0  0  0  0
   45.6740   34.9780   40.3860 H   0  0  0  0  0  0  0  0  0  0  0  0
   47.3740   33.3480   39.0450 H   0  0  0  0  0  0  0  0  0  0  0  0
   47.7790   35.0750   39.4380 H   0  0  0  0  0  0  0  0  0  0  0  0
   49.6080   34.2670   40.6060 H   0  0  0  0  0  0  0  0  0  0  0  0
   47.7770   32.8380   42.5750 H   0  0  0  0  0  0  0  0  0  0  0  0
   48.9960   34.2050   42.7760 H   0  0  0  0  0  0  0  0  0  0  0  0
   44.5480   35.9830   44.4810 C   0  0  0  0  0  0  0  0  0  0  0  0
   45.3020   35.9650   43.3080 C   0  0  0  0  0  0  0  0  0  0  0  0
   46.2310   34.9410   43.1720 C   0  0  0  0  0  0  0  0  0  0  0  0
   46.3840   33.9800   44.1840 N   0  0  0  0  0  0  0  0  0  0  0  0
   45.6200   34.0540   45.3020 C   0  0  0  0  0  0  0  0  0  0  0  0
   44.7080   35.0490   45.4490 N   0  0  0  0  0  0  0  0  0  0  0  0
   43.8210   36.7760   44.5980 H   0  0  0  0  0  0  0  0  0  0  0  0
   45.2000   36.6950   42.5160 H   0  0  0  0  0  0  0  0  0  0  0  0
   45.8220   33.2640   46.0130 H   0  0  0  0  0  0  0  0  0  0  0  0
   49.1580   32.2070   40.5820 C   0  0  2  0  0  0  0  0  0  0  0  0
   49.8670   31.6240   41.7130 C   0  0  0  0  0  0  0  0  0  0  0  0
   50.5730   31.8690   40.4200 C   0  0  1  0  0  0  0  0  0  0  0  0
   48.4260   31.5770   40.0460 H   0  0  0  0  0  0  0  0  0  0  0  0
   50.2100   32.2510   42.5870 H   0  0  0  0  0  0  0  0  0  0  0  0
   49.6330   30.5940   42.0340 H   0  0  0  0  0  0  0  0  0  0  0  0
   51.2820   32.6990   40.2800 H   0  0  0  0  0  0  0  0  0  0  0  0
   50.8820   30.7380   39.6240 O   0  0  0  0  0  0  0  0  0  0  0  0
   51.7990   30.1590   37.2540 O   0  0  0  0  0  0  0  0  0  0  0  0
   51.7430   31.2660   38.2790 P   0  0  1  0  0  0  0  0  0  0  0  0
   50.9370   32.5940   37.5540 O   0  0  0  0  0  0  0  0  0  0  0  0
   50.1240   32.2120   37.1320 H   0  0  0  0  0  0  0  0  0  0  0  0
   53.2950   31.7640   38.6010 O   0  0  0  0  0  0  0  0  0  0  0  0
   53.3960   29.3600   38.7070 C   0  0  1  0  0  3  0  0  0  0  0  0
   54.1440   30.6850   38.5160 C   0  0  1  0  0  3  0  0  0  0  0  0
   54.7040   30.4480   37.1320 C   0  0  0  0  0  3  0  0  0  0  0  0
   53.8880   30.6020   36.3710 H   0  0  0  0  0  0  0  0  0  0  0  0
   55.0270   29.1010   37.0620 O   0  0  0  0  0  0  0  0  0  0  0  0
   54.4200   28.4290   38.1000 C   0  0  0  0  0  3  0  0  0  0  0  0
   54.0320   27.4390   37.8660 H   0  0  0  0  0  0  0  0  0  0  0  0
   53.1900   29.0960   40.0580 O   0  0  0  0  0  0  0  0  0  0  0  0
   52.2520   29.3420   40.2630 H   0  0  0  0  0  0  0  0  0  0  0  0
  1  6  1  6  0  0  0
  1  5  1  0  0  0  0
  1 16  1  0  0  0  0
  2  7  1  0  0  0  0
  2  1  1  0  0  0  0
  3  4  1  0  0  0  0
  3  2  1  0  0  0  0
  4 11  1  6  0  0  0
  4  5  1  0  0  0  0
  5 12  1  0  0  0  0
  5 13  1  0  0  0  0
  8  2  1  0  0  0  0
  9  3  1  0  0  0  0
 10  3  1  0  0  0  0
 14 20  1  0  0  0  0
 14 19  1  0  0  0  0
 15 14  2  0  0  0  0
 16 15  1  0  0  0  0
 16 17  2  0  0  0  0
 17 18  1  0  0  0  0
 18 19  2  0  0  0  0
 18 22  1  0  0  0  0
 21 15  1  0  0  0  0
 23 26  1  6  0  0  0
 23  4  1  0  0  0  0
 23 24  1  0  0  0  0
 24 28  1  0  0  0  0
 24 27  1  0  0  0  0
 25 29  1  6  0  0  0
 25 23  1  0  0  0  0
 25 24  1  0  0  0  0
 30 25  1  0  0  0  0
 32 31  2  6  0  0  0
 32 35  1  0  0  0  0
 32 30  1  0  0  0  0
 33 32  1  0  0  0  0
 34 33  1  0  0  0  0
 36 43  1  1  0  0  0
 37 35  1  6  0  0  0
 37 36  1  0  0  0  0
 38 37  1  0  0  0  0
 39 38  1  0  0  0  0
 40 38  1  0  0  0  0
 40 41  1  0  0  0  0
 41 36  1  0  0  0  0
 42 41  1  0  0  0  0
 43 44  1  0  0  0  0
M  END
>  <minimizedAffinity>
-5.12421656

>  <minimizedRMSD>
0.741586387

$$$$
