
 OpenBabel03252507563D

 44 47  0  0  1  0  0  0  0  0999 V2000
   36.7850   28.4040   41.9900 C   0  0  2  0  0  0  0  0  0  0  0  0
   36.3320   28.0360   40.5760 C   0  0  0  0  0  0  0  0  0  0  0  0
   35.4180   29.2570   40.3320 C   0  0  0  0  0  0  0  0  0  0  0  0
   36.1190   30.4000   40.9980 C   0  0  1  0  0  0  0  0  0  0  0  0
   37.2800   29.8000   41.7350 C   0  0  0  0  0  0  0  0  0  0  0  0
   35.8960   28.4230   42.6390 H   0  0  0  0  0  0  0  0  0  0  0  0
   37.1860   28.0550   39.9000 H   0  0  0  0  0  0  0  0  0  0  0  0
   35.7510   27.1130   40.6080 H   0  0  0  0  0  0  0  0  0  0  0  0
   35.2170   29.4090   39.2710 H   0  0  0  0  0  0  0  0  0  0  0  0
   34.4680   29.0150   40.8790 H   0  0  0  0  0  0  0  0  0  0  0  0
   35.4400   30.9560   41.6850 H   0  0  0  0  0  0  0  0  0  0  0  0
   38.2230   29.8240   41.1890 H   0  0  0  0  0  0  0  0  0  0  0  0
   37.3400   30.3280   42.7250 H   0  0  0  0  0  0  0  0  0  0  0  0
   39.8830   27.0100   43.6160 C   0  0  0  0  0  0  0  0  0  0  0  0
   38.9210   27.9500   43.2490 C   0  0  0  0  0  0  0  0  0  0  0  0
   37.8650   27.4990   42.4680 C   0  0  0  0  0  0  0  0  0  0  0  0
   37.7920   26.1520   42.0780 N   0  0  0  0  0  0  0  0  0  0  0  0
   38.7620   25.2870   42.4680 C   0  0  0  0  0  0  0  0  0  0  0  0
   39.7990   25.7140   43.2310 N   0  0  0  0  0  0  0  0  0  0  0  0
   40.7100   27.3500   44.2240 H   0  0  0  0  0  0  0  0  0  0  0  0
   38.9570   28.9920   43.5390 H   0  0  0  0  0  0  0  0  0  0  0  0
   38.6040   24.2770   42.1110 H   0  0  0  0  0  0  0  0  0  0  0  0
   36.6790   31.4350   40.0470 C   0  0  2  0  0  0  0  0  0  0  0  0
   36.8500   31.0010   38.6660 C   0  0  0  0  0  0  0  0  0  0  0  0
   38.0370   31.3290   39.5110 C   0  0  1  0  0  0  0  0  0  0  0  0
   36.2890   32.4510   40.2290 H   0  0  0  0  0  0  0  0  0  0  0  0
   36.7430   29.9190   38.3650 H   0  0  0  0  0  0  0  0  0  0  0  0
   36.5500   31.6720   37.8420 H   0  0  0  0  0  0  0  0  0  0  0  0
   38.6940   30.5530   39.9350 H   0  0  0  0  0  0  0  0  0  0  0  0
   38.7200   32.5380   39.2310 O   0  0  0  0  0  0  0  0  0  0  0  0
   40.4670   30.6810   38.6900 O   0  0  0  0  0  0  0  0  0  0  0  0
   40.1900   32.1530   38.5100 P   0  0  1  0  0  0  0  0  0  0  0  0
   40.1100   32.4570   36.8250 O   0  0  0  0  0  0  0  0  0  0  0  0
   39.5180   31.7500   36.4560 H   0  0  0  0  0  0  0  0  0  0  0  0
   41.4910   33.0080   39.0910 O   0  0  0  0  0  0  0  0  0  0  0  0
   43.2850   33.9510   37.7890 C   0  0  1  0  0  3  0  0  0  0  0  0
   42.6060   32.6950   38.3490 C   0  0  1  0  0  3  0  0  0  0  0  0
   43.7550   32.1450   39.1630 C   0  0  0  0  0  3  0  0  0  0  0  0
   43.8440   32.7300   40.1220 H   0  0  0  0  0  0  0  0  0  0  0  0
   44.9120   32.4200   38.4510 O   0  0  0  0  0  0  0  0  0  0  0  0
   44.6420   33.3630   37.4840 C   0  0  0  0  0  3  0  0  0  0  0  0
   45.4190   34.1080   37.3140 H   0  0  0  0  0  0  0  0  0  0  0  0
   42.6390   34.3940   36.6390 O   0  0  0  0  0  0  0  0  0  0  0  0
   42.0610   35.1550   36.9030 H   0  0  0  0  0  0  0  0  0  0  0  0
  1 16  1  0  0  0  0
  1  6  1  1  0  0  0
  2  8  1  0  0  0  0
  2  1  1  0  0  0  0
  3  2  1  0  0  0  0
  3 10  1  0  0  0  0
  3  4  1  0  0  0  0
  4 11  1  1  0  0  0
  4  5  1  0  0  0  0
  5  1  1  0  0  0  0
  5 13  1  0  0  0  0
  7  2  1  0  0  0  0
  9  3  1  0  0  0  0
 12  5  1  0  0  0  0
 14 20  1  0  0  0  0
 15 21  1  0  0  0  0
 15 14  1  0  0  0  0
 16 15  2  0  0  0  0
 17 16  1  0  0  0  0
 17 18  2  0  0  0  0
 18 19  1  0  0  0  0
 19 14  2  0  0  0  0
 22 18  1  0  0  0  0
 23 26  1  1  0  0  0
 23  4  1  0  0  0  0
 24 25  1  0  0  0  0
 24 23  1  0  0  0  0
 25 29  1  1  0  0  0
 25 23  1  0  0  0  0
 27 24  1  0  0  0  0
 28 24  1  0  0  0  0
 30 25  1  0  0  0  0
 32 31  2  1  0  0  0
 32 35  1  0  0  0  0
 32 30  1  0  0  0  0
 33 32  1  0  0  0  0
 34 33  1  0  0  0  0
 36 43  1  6  0  0  0
 36 37  1  0  0  0  0
 37 35  1  1  0  0  0
 37 38  1  0  0  0  0
 38 39  1  0  0  0  0
 40 38  1  0  0  0  0
 41 36  1  0  0  0  0
 41 40  1  0  0  0  0
 42 41  1  0  0  0  0
 43 44  1  0  0  0  0
M  END
>  <minimizedAffinity>
-6.59018564

$$$$

 OpenBabel03252507563D

 44 47  0  0  1  0  0  0  0  0999 V2000
   37.3820   28.6570   42.3530 C   0  0  2  0  0  0  0  0  0  0  0  0
   36.9510   28.0210   41.0300 C   0  0  0  0  0  0  0  0  0  0  0  0
   35.7780   28.9770   40.7180 C   0  0  0  0  0  0  0  0  0  0  0  0
   36.2400   30.3190   41.1920 C   0  0  1  0  0  0  0  0  0  0  0  0
   37.5410   30.0830   41.9020 C   0  0  0  0  0  0  0  0  0  0  0  0
   36.5440   28.5680   43.0620 H   0  0  0  0  0  0  0  0  0  0  0  0
   37.7450   28.1360   40.2920 H   0  0  0  0  0  0  0  0  0  0  0  0
   36.5930   27.0080   41.2110 H   0  0  0  0  0  0  0  0  0  0  0  0
   35.4960   28.9440   39.6650 H   0  0  0  0  0  0  0  0  0  0  0  0
   34.9340   28.6080   41.3600 H   0  0  0  0  0  0  0  0  0  0  0  0
   35.4890   30.8010   41.8610 H   0  0  0  0  0  0  0  0  0  0  0  0
   38.4260   30.2370   41.2860 H   0  0  0  0  0  0  0  0  0  0  0  0
   37.5310   30.7340   42.8180 H   0  0  0  0  0  0  0  0  0  0  0  0
   39.9560   26.4670   44.0150 C   0  0  0  0  0  0  0  0  0  0  0  0
   38.7000   26.9010   43.5890 C   0  0  0  0  0  0  0  0  0  0  0  0
   38.6580   28.0740   42.8470 C   0  0  0  0  0  0  0  0  0  0  0  0
   39.8390   28.7740   42.5530 N   0  0  0  0  0  0  0  0  0  0  0  0
   41.0300   28.2990   42.9980 C   0  0  0  0  0  0  0  0  0  0  0  0
   41.0860   27.1540   43.7240 N   0  0  0  0  0  0  0  0  0  0  0  0
   40.0000   25.5540   44.5940 H   0  0  0  0  0  0  0  0  0  0  0  0
   37.7780   26.3770   43.8030 H   0  0  0  0  0  0  0  0  0  0  0  0
   41.8710   28.9170   42.7140 H   0  0  0  0  0  0  0  0  0  0  0  0
   36.5080   31.3190   40.0890 C   0  0  2  0  0  0  0  0  0  0  0  0
   37.0840   30.7740   38.8660 C   0  0  0  0  0  0  0  0  0  0  0  0
   37.8700   31.7110   39.7230 C   0  0  1  0  0  0  0  0  0  0  0  0
   35.7210   32.0880   39.9970 H   0  0  0  0  0  0  0  0  0  0  0  0
   37.4710   29.7150   38.8100 H   0  0  0  0  0  0  0  0  0  0  0  0
   36.6990   31.1060   37.8860 H   0  0  0  0  0  0  0  0  0  0  0  0
   38.6910   31.3700   40.3750 H   0  0  0  0  0  0  0  0  0  0  0  0
   38.0580   33.0300   39.2430 O   0  0  0  0  0  0  0  0  0  0  0  0
   38.8240   35.0640   40.6820 O   0  0  0  0  0  0  0  0  0  0  0  0
   39.2960   33.7390   40.1330 P   0  0  1  0  0  0  0  0  0  0  0  0
   39.6970   32.7440   41.4710 O   0  0  0  0  0  0  0  0  0  0  0  0
   38.9320   32.8230   42.0980 H   0  0  0  0  0  0  0  0  0  0  0  0
   40.7020   33.9930   39.2850 O   0  0  0  0  0  0  0  0  0  0  0  0
   41.1970   32.7170   37.3020 C   0  0  1  0  0  3  0  0  0  0  0  0
   41.1840   32.7860   38.8350 C   0  0  1  0  0  3  0  0  0  0  0  0
   42.6580   32.5750   39.0960 C   0  0  0  0  0  3  0  0  0  0  0  0
   43.2130   33.5330   38.8880 H   0  0  0  0  0  0  0  0  0  0  0  0
   43.1040   31.6740   38.1420 O   0  0  0  0  0  0  0  0  0  0  0  0
   42.1720   31.5770   37.1320 C   0  0  0  0  0  3  0  0  0  0  0  0
   42.5710   31.4840   36.1220 H   0  0  0  0  0  0  0  0  0  0  0  0
   39.9350   32.4020   36.8090 O   0  0  0  0  0  0  0  0  0  0  0  0
   39.5230   33.2470   36.4970 H   0  0  0  0  0  0  0  0  0  0  0  0
  1 16  1  0  0  0  0
  1  6  1  1  0  0  0
  2  8  1  0  0  0  0
  2  1  1  0  0  0  0
  3  2  1  0  0  0  0
  3  4  1  0  0  0  0
  3 10  1  0  0  0  0
  4 11  1  1  0  0  0
  4  5  1  0  0  0  0
  5  1  1  0  0  0  0
  5 13  1  0  0  0  0
  7  2  1  0  0  0  0
  9  3  1  0  0  0  0
 12  5  1  0  0  0  0
 14 20  1  0  0  0  0
 15 21  1  0  0  0  0
 15 14  2  0  0  0  0
 16 15  1  0  0  0  0
 17 16  2  0  0  0  0
 17 18  1  0  0  0  0
 18 19  2  0  0  0  0
 19 14  1  0  0  0  0
 22 18  1  0  0  0  0
 23 26  1  6  0  0  0
 23  4  1  0  0  0  0
 24 25  1  0  0  0  0
 24 23  1  0  0  0  0
 25 23  1  0  0  0  0
 25 29  1  1  0  0  0
 27 24  1  0  0  0  0
 28 24  1  0  0  0  0
 30 25  1  0  0  0  0
 30 32  1  0  0  0  0
 32 31  2  1  0  0  0
 32 33  1  0  0  0  0
 33 34  1  0  0  0  0
 35 32  1  0  0  0  0
 36 43  1  1  0  0  0
 36 37  1  0  0  0  0
 37 38  1  0  0  0  0
 37 35  1  6  0  0  0
 39 38  1  0  0  0  0
 40 38  1  0  0  0  0
 41 36  1  0  0  0  0
 41 40  1  0  0  0  0
 42 41  1  0  0  0  0
 44 43  1  0  0  0  0
M  END
>  <minimizedAffinity>
-6.30737638

$$$$

 OpenBabel03252507563D

 44 47  0  0  1  0  0  0  0  0999 V2000
   36.7100   28.4720   41.9920 C   0  0  2  0  0  0  0  0  0  0  0  0
   36.1410   28.0340   40.6420 C   0  0  0  0  0  0  0  0  0  0  0  0
   35.3030   29.3000   40.3540 C   0  0  0  0  0  0  0  0  0  0  0  0
   36.1260   30.4320   40.8830 C   0  0  1  0  0  0  0  0  0  0  0  0
   37.2870   29.8030   41.5970 C   0  0  0  0  0  0  0  0  0  0  0  0
   35.8690   28.6090   42.6880 H   0  0  0  0  0  0  0  0  0  0  0  0
   36.9480   27.9360   39.9170 H   0  0  0  0  0  0  0  0  0  0  0  0
   35.4990   27.1630   40.7820 H   0  0  0  0  0  0  0  0  0  0  0  0
   35.0450   29.3850   39.2980 H   0  0  0  0  0  0  0  0  0  0  0  0
   34.3760   29.1730   40.9730 H   0  0  0  0  0  0  0  0  0  0  0  0
   35.5350   31.0900   41.5610 H   0  0  0  0  0  0  0  0  0  0  0  0
   38.1910   29.7130   40.9950 H   0  0  0  0  0  0  0  0  0  0  0  0
   37.4480   30.3990   42.5360 H   0  0  0  0  0  0  0  0  0  0  0  0
   39.6630   26.9310   43.7490 C   0  0  0  0  0  0  0  0  0  0  0  0
   38.7290   27.9020   43.3880 C   0  0  0  0  0  0  0  0  0  0  0  0
   37.7510   27.5270   42.4770 C   0  0  0  0  0  0  0  0  0  0  0  0
   37.7240   26.2230   41.9570 N   0  0  0  0  0  0  0  0  0  0  0  0
   38.6630   25.3240   42.3480 C   0  0  0  0  0  0  0  0  0  0  0  0
   39.6250   25.6770   43.2380 N   0  0  0  0  0  0  0  0  0  0  0  0
   40.4300   27.2130   44.4580 H   0  0  0  0  0  0  0  0  0  0  0  0
   38.7310   28.9120   43.7770 H   0  0  0  0  0  0  0  0  0  0  0  0
   38.5470   24.3530   41.8850 H   0  0  0  0  0  0  0  0  0  0  0  0
   36.6960   31.3460   39.8210 C   0  0  2  0  0  0  0  0  0  0  0  0
   37.5480   30.7070   38.8260 C   0  0  0  0  0  0  0  0  0  0  0  0
   38.1180   31.6940   39.7910 C   0  0  1  0  0  0  0  0  0  0  0  0
   35.9830   32.1150   39.4780 H   0  0  0  0  0  0  0  0  0  0  0  0
   37.9050   29.6420   38.9420 H   0  0  0  0  0  0  0  0  0  0  0  0
   37.4370   30.9710   37.7590 H   0  0  0  0  0  0  0  0  0  0  0  0
   38.7350   31.3920   40.6520 H   0  0  0  0  0  0  0  0  0  0  0  0
   38.4610   32.9730   39.2870 O   0  0  0  0  0  0  0  0  0  0  0  0
   40.4410   34.6420   39.5810 O   0  0  0  0  0  0  0  0  0  0  0  0
   39.5720   33.6680   40.3400 P   0  0  1  0  0  0  0  0  0  0  0  0
   38.7490   34.5560   41.5540 O   0  0  0  0  0  0  0  0  0  0  0  0
   38.3840   35.3560   41.0940 H   0  0  0  0  0  0  0  0  0  0  0  0
   40.5580   32.5850   41.1230 O   0  0  0  0  0  0  0  0  0  0  0  0
   42.8570   32.6920   41.8360 C   0  0  1  0  0  3  0  0  0  0  0  0
   41.8500   32.7440   40.6790 C   0  0  1  0  0  3  0  0  0  0  0  0
   42.3680   31.5840   39.8590 C   0  0  0  0  0  3  0  0  0  0  0  0
   42.0340   30.6180   40.3300 H   0  0  0  0  0  0  0  0  0  0  0  0
   43.7490   31.5990   39.9810 O   0  0  0  0  0  0  0  0  0  0  0  0
   44.1070   32.4040   41.0390 C   0  0  0  0  0  3  0  0  0  0  0  0
   44.9450   32.0550   41.6420 H   0  0  0  0  0  0  0  0  0  0  0  0
   42.9260   33.9180   42.4900 O   0  0  0  0  0  0  0  0  0  0  0  0
   42.3850   33.8390   43.3160 H   0  0  0  0  0  0  0  0  0  0  0  0
  1 16  1  0  0  0  0
  1  6  1  1  0  0  0
  2  8  1  0  0  0  0
  2  1  1  0  0  0  0
  3  2  1  0  0  0  0
  3  4  1  0  0  0  0
  3 10  1  0  0  0  0
  4 11  1  1  0  0  0
  4  5  1  0  0  0  0
  5  1  1  0  0  0  0
  5 13  1  0  0  0  0
  7  2  1  0  0  0  0
  9  3  1  0  0  0  0
 12  5  1  0  0  0  0
 14 20  1  0  0  0  0
 15 14  1  0  0  0  0
 15 21  1  0  0  0  0
 16 15  2  0  0  0  0
 17 18  2  0  0  0  0
 17 16  1  0  0  0  0
 18 19  1  0  0  0  0
 19 14  2  0  0  0  0
 22 18  1  0  0  0  0
 23 26  1  6  0  0  0
 23  4  1  0  0  0  0
 24 27  1  0  0  0  0
 24 25  1  0  0  0  0
 24 23  1  0  0  0  0
 25 23  1  0  0  0  0
 25 29  1  1  0  0  0
 28 24  1  0  0  0  0
 30 25  1  0  0  0  0
 30 32  1  0  0  0  0
 32 31  2  6  0  0  0
 32 35  1  0  0  0  0
 32 33  1  0  0  0  0
 34 33  1  0  0  0  0
 36 43  1  6  0  0  0
 37 35  1  1  0  0  0
 37 36  1  0  0  0  0
 38 40  1  0  0  0  0
 38 39  1  0  0  0  0
 38 37  1  0  0  0  0
 40 41  1  0  0  0  0
 41 42  1  0  0  0  0
 41 36  1  0  0  0  0
 43 44  1  0  0  0  0
M  END
>  <minimizedAffinity>
-6.15380955

$$$$

 OpenBabel03252507563D

 44 47  0  0  1  0  0  0  0  0999 V2000
   38.8620   27.1620   43.4130 C   0  0  2  0  0  0  0  0  0  0  0  0
   38.5930   25.9210   42.5610 C   0  0  0  0  0  0  0  0  0  0  0  0
   37.0550   26.0450   42.5020 C   0  0  0  0  0  0  0  0  0  0  0  0
   36.7910   27.5150   42.4150 C   0  0  1  0  0  0  0  0  0  0  0  0
   38.1210   28.1870   42.6000 C   0  0  0  0  0  0  0  0  0  0  0  0
   38.3740   27.0180   44.3890 H   0  0  0  0  0  0  0  0  0  0  0  0
   39.0260   26.0550   41.5700 H   0  0  0  0  0  0  0  0  0  0  0  0
   38.8930   25.0280   43.1110 H   0  0  0  0  0  0  0  0  0  0  0  0
   36.6310   25.4620   41.6840 H   0  0  0  0  0  0  0  0  0  0  0  0
   36.7000   25.6470   43.4900 H   0  0  0  0  0  0  0  0  0  0  0  0
   36.0530   27.8490   43.1800 H   0  0  0  0  0  0  0  0  0  0  0  0
   38.6310   28.4430   41.6720 H   0  0  0  0  0  0  0  0  0  0  0  0
   37.9410   29.0800   43.2570 H   0  0  0  0  0  0  0  0  0  0  0  0
   42.2800   28.6870   42.9840 C   0  0  0  0  0  0  0  0  0  0  0  0
   40.9010   28.5290   42.8410 C   0  0  0  0  0  0  0  0  0  0  0  0
   40.3180   27.4560   43.5030 C   0  0  0  0  0  0  0  0  0  0  0  0
   41.1010   26.5840   44.2750 N   0  0  0  0  0  0  0  0  0  0  0  0
   42.4390   26.7920   44.3740 C   0  0  0  0  0  0  0  0  0  0  0  0
   43.0220   27.8360   43.7320 N   0  0  0  0  0  0  0  0  0  0  0  0
   42.7440   29.5190   42.4730 H   0  0  0  0  0  0  0  0  0  0  0  0
   40.2780   29.1890   42.2510 H   0  0  0  0  0  0  0  0  0  0  0  0
   42.9420   26.0610   44.9930 H   0  0  0  0  0  0  0  0  0  0  0  0
   36.2390   27.9780   41.0840 C   0  0  2  0  0  0  0  0  0  0  0  0
   36.5070   27.1050   39.9490 C   0  0  0  0  0  0  0  0  0  0  0  0
   37.1160   28.4670   40.0180 C   0  0  1  0  0  0  0  0  0  0  0  0
   35.2390   28.4380   41.1630 H   0  0  0  0  0  0  0  0  0  0  0  0
   37.2270   26.2390   40.0200 H   0  0  0  0  0  0  0  0  0  0  0  0
   35.7030   26.8890   39.2230 H   0  0  0  0  0  0  0  0  0  0  0  0
   38.1770   28.6290   40.2650 H   0  0  0  0  0  0  0  0  0  0  0  0
   36.5920   29.4580   39.1520 O   0  0  0  0  0  0  0  0  0  0  0  0
   36.9460   31.9900   38.6460 O   0  0  0  0  0  0  0  0  0  0  0  0
   37.0420   30.9640   39.7490 P   0  0  1  0  0  0  0  0  0  0  0  0
   35.9620   31.4460   40.9910 O   0  0  0  0  0  0  0  0  0  0  0  0
   35.1090   31.6610   40.5310 H   0  0  0  0  0  0  0  0  0  0  0  0
   38.5720   31.0260   40.3930 O   0  0  0  0  0  0  0  0  0  0  0  0
   39.1870   33.3060   40.8640 C   0  0  1  0  0  3  0  0  0  0  0  0
   39.2320   32.1220   39.8900 C   0  0  1  0  0  3  0  0  0  0  0  0
   40.7300   31.9490   39.7920 C   0  0  0  0  0  3  0  0  0  0  0  0
   41.1050   31.4220   40.7150 H   0  0  0  0  0  0  0  0  0  0  0  0
   41.2800   33.2210   39.8420 O   0  0  0  0  0  0  0  0  0  0  0  0
   40.3340   34.1110   40.3000 C   0  0  0  0  0  3  0  0  0  0  0  0
   40.6970   34.8910   40.9680 H   0  0  0  0  0  0  0  0  0  0  0  0
   37.9770   33.9850   40.7670 O   0  0  0  0  0  0  0  0  0  0  0  0
   37.4140   33.6890   41.5270 H   0  0  0  0  0  0  0  0  0  0  0  0
  1 16  1  0  0  0  0
  1  6  1  1  0  0  0
  2  8  1  0  0  0  0
  2  1  1  0  0  0  0
  3  2  1  0  0  0  0
  3 10  1  0  0  0  0
  4  3  1  0  0  0  0
  4  5  1  0  0  0  0
  4 11  1  1  0  0  0
  5 13  1  0  0  0  0
  5  1  1  0  0  0  0
  7  2  1  0  0  0  0
  9  3  1  0  0  0  0
 12  5  1  0  0  0  0
 14 19  1  0  0  0  0
 15 14  2  0  0  0  0
 15 16  1  0  0  0  0
 16 17  2  0  0  0  0
 17 18  1  0  0  0  0
 18 22  1  0  0  0  0
 19 18  2  0  0  0  0
 20 14  1  0  0  0  0
 21 15  1  0  0  0  0
 23 26  1  1  0  0  0
 23  4  1  0  0  0  0
 24 25  1  0  0  0  0
 24 27  1  0  0  0  0
 24 23  1  0  0  0  0
 25 29  1  1  0  0  0
 25 23  1  0  0  0  0
 28 24  1  0  0  0  0
 30 32  1  0  0  0  0
 30 25  1  0  0  0  0
 32 31  2  6  0  0  0
 32 35  1  0  0  0  0
 32 33  1  0  0  0  0
 34 33  1  0  0  0  0
 36 43  1  6  0  0  0
 37 35  1  1  0  0  0
 37 36  1  0  0  0  0
 38 40  1  0  0  0  0
 38 37  1  0  0  0  0
 38 39  1  0  0  0  0
 40 41  1  0  0  0  0
 41 36  1  0  0  0  0
 41 42  1  0  0  0  0
 43 44  1  0  0  0  0
M  END
>  <minimizedAffinity>
-6.06585121

$$$$

 OpenBabel03252507563D

 44 47  0  0  1  0  0  0  0  0999 V2000
   37.9400   26.2410   41.6090 C   0  0  2  0  0  0  0  0  0  0  0  0
   37.1010   26.4240   42.8740 C   0  0  0  0  0  0  0  0  0  0  0  0
   37.6870   27.7850   43.3110 C   0  0  0  0  0  0  0  0  0  0  0  0
   37.9240   28.5280   42.0340 C   0  0  1  0  0  0  0  0  0  0  0  0
   37.6520   27.5510   40.9290 C   0  0  0  0  0  0  0  0  0  0  0  0
   38.9990   26.1870   41.9070 H   0  0  0  0  0  0  0  0  0  0  0  0
   36.0500   26.5280   42.6050 H   0  0  0  0  0  0  0  0  0  0  0  0
   37.3480   25.6420   43.5930 H   0  0  0  0  0  0  0  0  0  0  0  0
   37.0340   28.3000   44.0180 H   0  0  0  0  0  0  0  0  0  0  0  0
   38.6650   27.5290   43.7980 H   0  0  0  0  0  0  0  0  0  0  0  0
   38.9620   28.9320   41.9790 H   0  0  0  0  0  0  0  0  0  0  0  0
   36.6440   27.6030   40.5180 H   0  0  0  0  0  0  0  0  0  0  0  0
   38.4460   27.7140   40.1510 H   0  0  0  0  0  0  0  0  0  0  0  0
   36.1170   24.0120   39.1810 C   0  0  0  0  0  0  0  0  0  0  0  0
   36.4830   25.1830   39.8470 C   0  0  0  0  0  0  0  0  0  0  0  0
   37.4760   25.0750   40.8110 C   0  0  0  0  0  0  0  0  0  0  0  0
   38.0710   23.8330   41.0850 N   0  0  0  0  0  0  0  0  0  0  0  0
   37.6700   22.7310   40.4030 C   0  0  0  0  0  0  0  0  0  0  0  0
   36.7000   22.8210   39.4580 N   0  0  0  0  0  0  0  0  0  0  0  0
   35.3440   24.0850   38.4280 H   0  0  0  0  0  0  0  0  0  0  0  0
   36.0380   26.1490   39.6510 H   0  0  0  0  0  0  0  0  0  0  0  0
   38.1950   21.8310   40.6950 H   0  0  0  0  0  0  0  0  0  0  0  0
   37.0110   29.7150   41.8170 C   0  0  2  0  0  0  0  0  0  0  0  0
   35.9140   29.5070   40.8810 C   0  0  0  0  0  0  0  0  0  0  0  0
   37.0140   30.4640   40.5590 C   0  0  1  0  0  0  0  0  0  0  0  0
   36.8070   30.2830   42.7410 H   0  0  0  0  0  0  0  0  0  0  0  0
   35.8540   28.5880   40.2280 H   0  0  0  0  0  0  0  0  0  0  0  0
   34.9050   29.8800   41.1300 H   0  0  0  0  0  0  0  0  0  0  0  0
   37.8060   30.2330   39.8300 H   0  0  0  0  0  0  0  0  0  0  0  0
   36.7130   31.8470   40.6290 O   0  0  0  0  0  0  0  0  0  0  0  0
   37.2100   31.8670   38.0700 O   0  0  0  0  0  0  0  0  0  0  0  0
   37.4900   32.6150   39.3500 P   0  0  1  0  0  0  0  0  0  0  0  0
   36.8720   34.2030   39.1610 O   0  0  0  0  0  0  0  0  0  0  0  0
   35.9560   34.0890   38.7960 H   0  0  0  0  0  0  0  0  0  0  0  0
   39.1360   32.7590   39.5250 O   0  0  0  0  0  0  0  0  0  0  0  0
   40.5900   32.2260   37.6790 C   0  0  1  0  0  3  0  0  0  0  0  0
   39.7550   31.7230   38.8640 C   0  0  1  0  0  3  0  0  0  0  0  0
   40.8490   31.0500   39.6590 C   0  0  0  0  0  3  0  0  0  0  0  0
   41.4520   31.8330   40.1990 H   0  0  0  0  0  0  0  0  0  0  0  0
   41.7160   30.4820   38.7380 O   0  0  0  0  0  0  0  0  0  0  0  0
   41.4740   31.0160   37.4920 C   0  0  0  0  0  3  0  0  0  0  0  0
   42.3520   31.2010   36.8730 H   0  0  0  0  0  0  0  0  0  0  0  0
   39.7850   32.4610   36.5680 O   0  0  0  0  0  0  0  0  0  0  0  0
   39.6290   33.4380   36.5220 H   0  0  0  0  0  0  0  0  0  0  0  0
  1  6  1  1  0  0  0
  1  2  1  0  0  0  0
  2  3  1  0  0  0  0
  2  8  1  0  0  0  0
  3 10  1  0  0  0  0
  3  9  1  0  0  0  0
  4 11  1  6  0  0  0
  4  3  1  0  0  0  0
  5  1  1  0  0  0  0
  5  4  1  0  0  0  0
  7  2  1  0  0  0  0
 12  5  1  0  0  0  0
 13  5  1  0  0  0  0
 14 19  2  0  0  0  0
 14 15  1  0  0  0  0
 15 16  2  0  0  0  0
 16 17  1  0  0  0  0
 16  1  1  0  0  0  0
 18 22  1  0  0  0  0
 18 17  2  0  0  0  0
 19 18  1  0  0  0  0
 20 14  1  0  0  0  0
 21 15  1  0  0  0  0
 23  4  1  0  0  0  0
 23 26  1  1  0  0  0
 24 28  1  0  0  0  0
 24 23  1  0  0  0  0
 25 29  1  6  0  0  0
 25 30  1  0  0  0  0
 25 24  1  0  0  0  0
 25 23  1  0  0  0  0
 27 24  1  0  0  0  0
 32 31  2  6  0  0  0
 32 35  1  0  0  0  0
 32 30  1  0  0  0  0
 33 32  1  0  0  0  0
 34 33  1  0  0  0  0
 36 43  1  6  0  0  0
 36 37  1  0  0  0  0
 37 35  1  1  0  0  0
 37 38  1  0  0  0  0
 38 39  1  0  0  0  0
 40 38  1  0  0  0  0
 41 36  1  0  0  0  0
 41 40  1  0  0  0  0
 42 41  1  0  0  0  0
 44 43  1  0  0  0  0
M  END
>  <minimizedAffinity>
-6.00045252

$$$$

 OpenBabel03252507563D

 44 47  0  0  1  0  0  0  0  0999 V2000
   38.4150   27.2260   42.0700 C   0  0  2  0  0  0  0  0  0  0  0  0
   37.3410   27.8730   42.9470 C   0  0  0  0  0  0  0  0  0  0  0  0
   38.0770   29.2030   43.2200 C   0  0  0  0  0  0  0  0  0  0  0  0
   38.7870   29.5180   41.9410 C   0  0  1  0  0  0  0  0  0  0  0  0
   38.6000   28.3210   41.0570 C   0  0  0  0  0  0  0  0  0  0  0  0
   39.3250   27.1070   42.6780 H   0  0  0  0  0  0  0  0  0  0  0  0
   36.4420   28.0460   42.3570 H   0  0  0  0  0  0  0  0  0  0  0  0
   37.2230   27.2950   43.8640 H   0  0  0  0  0  0  0  0  0  0  0  0
   37.3940   29.9830   43.5600 H   0  0  0  0  0  0  0  0  0  0  0  0
   38.8200   28.9560   44.0240 H   0  0  0  0  0  0  0  0  0  0  0  0
   39.8670   29.7380   42.1110 H   0  0  0  0  0  0  0  0  0  0  0  0
   37.7650   28.4000   40.3600 H   0  0  0  0  0  0  0  0  0  0  0  0
   39.5810   28.1460   40.5390 H   0  0  0  0  0  0  0  0  0  0  0  0
   36.5180   24.6880   40.0340 C   0  0  0  0  0  0  0  0  0  0  0  0
   36.9020   25.9380   40.5200 C   0  0  0  0  0  0  0  0  0  0  0  0
   37.9280   25.9620   41.4560 C   0  0  0  0  0  0  0  0  0  0  0  0
   38.5350   24.7690   41.8770 N   0  0  0  0  0  0  0  0  0  0  0  0
   38.1160   23.5840   41.3660 C   0  0  0  0  0  0  0  0  0  0  0  0
   37.1140   23.5450   40.4510 N   0  0  0  0  0  0  0  0  0  0  0  0
   35.7200   24.6580   39.3050 H   0  0  0  0  0  0  0  0  0  0  0  0
   36.4480   26.8700   40.2090 H   0  0  0  0  0  0  0  0  0  0  0  0
   38.6530   22.7320   41.7600 H   0  0  0  0  0  0  0  0  0  0  0  0
   38.2390   30.7150   41.1950 C   0  0  2  0  0  0  0  0  0  0  0  0
   36.9730   30.5050   40.5030 C   0  0  0  0  0  0  0  0  0  0  0  0
   38.2250   30.7670   39.7320 C   0  0  1  0  0  0  0  0  0  0  0  0
   38.3870   31.6690   41.7310 H   0  0  0  0  0  0  0  0  0  0  0  0
   36.5250   29.4760   40.3800 H   0  0  0  0  0  0  0  0  0  0  0  0
   36.1830   31.2750   40.5620 H   0  0  0  0  0  0  0  0  0  0  0  0
   38.7630   29.9740   39.1890 H   0  0  0  0  0  0  0  0  0  0  0  0
   38.3620   32.0410   39.1280 O   0  0  0  0  0  0  0  0  0  0  0  0
   40.6610   30.8690   38.7600 O   0  0  0  0  0  0  0  0  0  0  0  0
   39.9210   32.1600   38.5080 P   0  0  1  0  0  0  0  0  0  0  0  0
   39.8590   32.3910   36.8110 O   0  0  0  0  0  0  0  0  0  0  0  0
   39.5630   31.5210   36.4360 H   0  0  0  0  0  0  0  0  0  0  0  0
   40.8210   33.4110   39.1300 O   0  0  0  0  0  0  0  0  0  0  0  0
   42.7340   34.3270   37.9900 C   0  0  1  0  0  3  0  0  0  0  0  0
   42.1500   33.1980   38.8480 C   0  0  1  0  0  3  0  0  0  0  0  0
   43.0610   33.3130   40.0480 C   0  0  0  0  0  3  0  0  0  0  0  0
   42.7380   34.1880   40.6780 H   0  0  0  0  0  0  0  0  0  0  0  0
   44.3150   33.6490   39.5610 O   0  0  0  0  0  0  0  0  0  0  0  0
   44.2000   34.0860   38.2610 C   0  0  0  0  0  3  0  0  0  0  0  0
   44.8450   34.9180   37.9780 H   0  0  0  0  0  0  0  0  0  0  0  0
   42.4160   34.1470   36.6480 O   0  0  0  0  0  0  0  0  0  0  0  0
   41.6580   34.7520   36.4430 H   0  0  0  0  0  0  0  0  0  0  0  0
  1  6  1  1  0  0  0
  1  2  1  0  0  0  0
  2  3  1  0  0  0  0
  2  8  1  0  0  0  0
  3  9  1  0  0  0  0
  3 10  1  0  0  0  0
  4 11  1  1  0  0  0
  4  3  1  0  0  0  0
  5  4  1  0  0  0  0
  5  1  1  0  0  0  0
  7  2  1  0  0  0  0
 12  5  1  0  0  0  0
 13  5  1  0  0  0  0
 14 19  2  0  0  0  0
 14 15  1  0  0  0  0
 15 16  2  0  0  0  0
 16 17  1  0  0  0  0
 16  1  1  0  0  0  0
 18 22  1  0  0  0  0
 18 17  2  0  0  0  0
 19 18  1  0  0  0  0
 20 14  1  0  0  0  0
 21 15  1  0  0  0  0
 23 26  1  1  0  0  0
 23  4  1  0  0  0  0
 24 28  1  0  0  0  0
 24 23  1  0  0  0  0
 25 29  1  6  0  0  0
 25 24  1  0  0  0  0
 25 23  1  0  0  0  0
 27 24  1  0  0  0  0
 30 25  1  0  0  0  0
 32 31  2  1  0  0  0
 32 30  1  0  0  0  0
 32 35  1  0  0  0  0
 33 32  1  0  0  0  0
 34 33  1  0  0  0  0
 36 43  1  6  0  0  0
 36 41  1  0  0  0  0
 36 37  1  0  0  0  0
 37 35  1  1  0  0  0
 37 38  1  0  0  0  0
 38 39  1  0  0  0  0
 40 38  1  0  0  0  0
 41 40  1  0  0  0  0
 42 41  1  0  0  0  0
 44 43  1  0  0  0  0
M  END
>  <minimizedAffinity>
-5.91529322

$$$$

 OpenBabel03252507563D

 44 47  0  0  1  0  0  0  0  0999 V2000
   38.5170   24.4800   40.9060 C   0  0  2  0  0  0  0  0  0  0  0  0
   37.1270   25.1070   40.7920 C   0  0  0  0  0  0  0  0  0  0  0  0
   36.9590   25.4990   42.2760 C   0  0  0  0  0  0  0  0  0  0  0  0
   38.3240   25.9260   42.7170 C   0  0  1  0  0  0  0  0  0  0  0  0
   39.2450   25.6110   41.5750 C   0  0  0  0  0  0  0  0  0  0  0  0
   38.4460   23.6140   41.5820 H   0  0  0  0  0  0  0  0  0  0  0  0
   37.1760   25.9960   40.1640 H   0  0  0  0  0  0  0  0  0  0  0  0
   36.4040   24.3420   40.5040 H   0  0  0  0  0  0  0  0  0  0  0  0
   36.1840   26.2550   42.4120 H   0  0  0  0  0  0  0  0  0  0  0  0
   36.6670   24.5450   42.7900 H   0  0  0  0  0  0  0  0  0  0  0  0
   38.6370   25.4070   43.6520 H   0  0  0  0  0  0  0  0  0  0  0  0
   39.4370   26.4490   40.9050 H   0  0  0  0  0  0  0  0  0  0  0  0
   40.1860   25.1940   42.0260 H   0  0  0  0  0  0  0  0  0  0  0  0
   39.9890   24.7130   37.4470 C   0  0  0  0  0  0  0  0  0  0  0  0
   39.5000   25.1410   38.6810 C   0  0  0  0  0  0  0  0  0  0  0  0
   39.0800   24.1570   39.5670 C   0  0  0  0  0  0  0  0  0  0  0  0
   39.1550   22.8010   39.2130 N   0  0  0  0  0  0  0  0  0  0  0  0
   39.6400   22.4500   37.9950 C   0  0  0  0  0  0  0  0  0  0  0  0
   40.0540   23.4000   37.1190 N   0  0  0  0  0  0  0  0  0  0  0  0
   40.3190   25.4710   36.7490 H   0  0  0  0  0  0  0  0  0  0  0  0
   39.4340   26.1800   38.9750 H   0  0  0  0  0  0  0  0  0  0  0  0
   39.6510   21.3810   37.8300 H   0  0  0  0  0  0  0  0  0  0  0  0
   38.4580   27.4060   43.0040 C   0  0  2  0  0  0  0  0  0  0  0  0
   37.5860   27.9300   44.0470 C   0  0  0  0  0  0  0  0  0  0  0  0
   37.4130   28.3590   42.6270 C   0  0  1  0  0  0  0  0  0  0  0  0
   39.5020   27.7640   42.9700 H   0  0  0  0  0  0  0  0  0  0  0  0
   36.7440   27.3180   44.4830 H   0  0  0  0  0  0  0  0  0  0  0  0
   37.9900   28.6340   44.7960 H   0  0  0  0  0  0  0  0  0  0  0  0
   36.5910   27.9890   41.9930 H   0  0  0  0  0  0  0  0  0  0  0  0
   37.8240   29.6710   42.2890 O   0  0  0  0  0  0  0  0  0  0  0  0
   36.5140   28.9410   40.1580 O   0  0  0  0  0  0  0  0  0  0  0  0
   36.9570   30.1580   40.9330 P   0  0  1  0  0  0  0  0  0  0  0  0
   35.5430   31.0000   41.4140 O   0  0  0  0  0  0  0  0  0  0  0  0
   34.9420   30.3100   41.7970 H   0  0  0  0  0  0  0  0  0  0  0  0
   37.7870   31.1630   39.9030 O   0  0  0  0  0  0  0  0  0  0  0  0
   39.2940   32.8480   40.7350 C   0  0  1  0  0  3  0  0  0  0  0  0
   37.8480   32.4230   40.4500 C   0  0  1  0  0  3  0  0  0  0  0  0
   37.4570   33.5290   39.4960 C   0  0  0  0  0  3  0  0  0  0  0  0
   37.8980   33.3180   38.4820 H   0  0  0  0  0  0  0  0  0  0  0  0
   38.0890   34.6790   39.9440 O   0  0  0  0  0  0  0  0  0  0  0  0
   39.0790   34.3390   40.8390 C   0  0  0  0  0  3  0  0  0  0  0  0
   39.9970   34.9230   40.7800 H   0  0  0  0  0  0  0  0  0  0  0  0
   39.7460   32.3020   41.9320 O   0  0  0  0  0  0  0  0  0  0  0  0
   40.3080   31.5190   41.7030 H   0  0  0  0  0  0  0  0  0  0  0  0
  1  5  1  0  0  0  0
  1  6  1  1  0  0  0
  2  1  1  0  0  0  0
  2  3  1  0  0  0  0
  3  9  1  0  0  0  0
  3  4  1  0  0  0  0
  3 10  1  0  0  0  0
  4 23  1  0  0  0  0
  4 11  1  1  0  0  0
  5 13  1  0  0  0  0
  5  4  1  0  0  0  0
  7  2  1  0  0  0  0
  8  2  1  0  0  0  0
 12  5  1  0  0  0  0
 14 15  1  0  0  0  0
 15 21  1  0  0  0  0
 15 16  2  0  0  0  0
 16  1  1  0  0  0  0
 17 16  1  0  0  0  0
 18 17  2  0  0  0  0
 19 14  2  0  0  0  0
 19 18  1  0  0  0  0
 20 14  1  0  0  0  0
 22 18  1  0  0  0  0
 23 26  1  6  0  0  0
 23 24  1  0  0  0  0
 24 27  1  0  0  0  0
 24 28  1  0  0  0  0
 25 29  1  6  0  0  0
 25 23  1  0  0  0  0
 25 24  1  0  0  0  0
 30 25  1  0  0  0  0
 32 31  2  6  0  0  0
 32 33  1  0  0  0  0
 32 30  1  0  0  0  0
 33 34  1  0  0  0  0
 35 32  1  0  0  0  0
 36 41  1  0  0  0  0
 36 43  1  1  0  0  0
 37 35  1  6  0  0  0
 37 36  1  0  0  0  0
 38 40  1  0  0  0  0
 38 37  1  0  0  0  0
 39 38  1  0  0  0  0
 40 41  1  0  0  0  0
 42 41  1  0  0  0  0
 44 43  1  0  0  0  0
M  END
>  <minimizedAffinity>
-5.88307047

$$$$

 OpenBabel03252507563D

 44 47  0  0  1  0  0  0  0  0999 V2000
   38.2510   26.5850   42.2750 C   0  0  2  0  0  0  0  0  0  0  0  0
   36.9350   26.5620   43.0540 C   0  0  0  0  0  0  0  0  0  0  0  0
   37.0050   28.0000   43.6130 C   0  0  0  0  0  0  0  0  0  0  0  0
   37.6160   28.8100   42.5140 C   0  0  1  0  0  0  0  0  0  0  0  0
   38.0340   27.8280   41.4580 C   0  0  0  0  0  0  0  0  0  0  0  0
   39.0700   26.7360   42.9950 H   0  0  0  0  0  0  0  0  0  0  0  0
   36.1010   26.4610   42.3610 H   0  0  0  0  0  0  0  0  0  0  0  0
   36.9990   25.8260   43.8560 H   0  0  0  0  0  0  0  0  0  0  0  0
   36.0280   28.3550   43.9450 H   0  0  0  0  0  0  0  0  0  0  0  0
   37.7120   27.9320   44.4830 H   0  0  0  0  0  0  0  0  0  0  0  0
   38.4790   29.4140   42.8770 H   0  0  0  0  0  0  0  0  0  0  0  0
   37.3070   27.6890   40.6580 H   0  0  0  0  0  0  0  0  0  0  0  0
   39.0350   28.1690   41.0800 H   0  0  0  0  0  0  0  0  0  0  0  0
   37.9790   23.1100   40.8470 C   0  0  0  0  0  0  0  0  0  0  0  0
   37.7350   24.1860   41.7020 C   0  0  0  0  0  0  0  0  0  0  0  0
   38.4050   25.3720   41.4290 C   0  0  0  0  0  0  0  0  0  0  0  0
   39.2830   25.4580   40.3370 N   0  0  0  0  0  0  0  0  0  0  0  0
   39.4780   24.3750   39.5430 C   0  0  0  0  0  0  0  0  0  0  0  0
   38.8300   23.2100   39.7980 N   0  0  0  0  0  0  0  0  0  0  0  0
   37.4630   22.1820   41.0510 H   0  0  0  0  0  0  0  0  0  0  0  0
   37.0630   24.1410   42.5480 H   0  0  0  0  0  0  0  0  0  0  0  0
   40.1730   24.5550   38.7350 H   0  0  0  0  0  0  0  0  0  0  0  0
   36.6730   29.7950   41.8590 C   0  0  2  0  0  0  0  0  0  0  0  0
   35.9600   29.3070   40.6850 C   0  0  0  0  0  0  0  0  0  0  0  0
   36.9730   30.3970   40.5580 C   0  0  1  0  0  0  0  0  0  0  0  0
   36.1180   30.4160   42.5840 H   0  0  0  0  0  0  0  0  0  0  0  0
   36.2260   28.3270   40.1920 H   0  0  0  0  0  0  0  0  0  0  0  0
   34.8850   29.5290   40.5670 H   0  0  0  0  0  0  0  0  0  0  0  0
   37.9770   30.2260   40.1380 H   0  0  0  0  0  0  0  0  0  0  0  0
   36.4920   31.7080   40.3240 O   0  0  0  0  0  0  0  0  0  0  0  0
   37.4310   31.9240   37.9030 O   0  0  0  0  0  0  0  0  0  0  0  0
   37.5720   32.4860   39.2960 P   0  0  1  0  0  0  0  0  0  0  0  0
   37.1990   34.1570   39.2140 O   0  0  0  0  0  0  0  0  0  0  0  0
   36.3550   34.2150   38.6950 H   0  0  0  0  0  0  0  0  0  0  0  0
   39.1660   32.3720   39.7500 O   0  0  0  0  0  0  0  0  0  0  0  0
   40.4330   34.2550   40.5560 C   0  0  1  0  0  3  0  0  0  0  0  0
   39.8320   33.5090   39.3580 C   0  0  1  0  0  3  0  0  0  0  0  0
   41.1000   33.2440   38.5800 C   0  0  0  0  0  3  0  0  0  0  0  0
   41.6530   32.3850   39.0520 H   0  0  0  0  0  0  0  0  0  0  0  0
   41.9130   34.3530   38.7590 O   0  0  0  0  0  0  0  0  0  0  0  0
   41.4440   35.0990   39.8180 C   0  0  0  0  0  3  0  0  0  0  0  0
   42.2030   35.5440   40.4600 H   0  0  0  0  0  0  0  0  0  0  0  0
   39.4700   35.0320   41.1930 O   0  0  0  0  0  0  0  0  0  0  0  0
   39.1770   34.5330   41.9970 H   0  0  0  0  0  0  0  0  0  0  0  0
  1  6  1  1  0  0  0
  1  2  1  0  0  0  0
  2  3  1  0  0  0  0
  2  8  1  0  0  0  0
  3  9  1  0  0  0  0
  3 10  1  0  0  0  0
  4 11  1  1  0  0  0
  4  3  1  0  0  0  0
  5  1  1  0  0  0  0
  5  4  1  0  0  0  0
  7  2  1  0  0  0  0
 12  5  1  0  0  0  0
 13  5  1  0  0  0  0
 14 20  1  0  0  0  0
 14 15  1  0  0  0  0
 15 21  1  0  0  0  0
 16 15  2  0  0  0  0
 16  1  1  0  0  0  0
 17 16  1  0  0  0  0
 18 19  1  0  0  0  0
 18 17  2  0  0  0  0
 19 14  2  0  0  0  0
 22 18  1  0  0  0  0
 23  4  1  0  0  0  0
 23 26  1  1  0  0  0
 24 23  1  0  0  0  0
 25 29  1  6  0  0  0
 25 24  1  0  0  0  0
 25 23  1  0  0  0  0
 27 24  1  0  0  0  0
 28 24  1  0  0  0  0
 30 25  1  0  0  0  0
 32 31  2  6  0  0  0
 32 35  1  0  0  0  0
 32 30  1  0  0  0  0
 33 32  1  0  0  0  0
 34 33  1  0  0  0  0
 36 43  1  6  0  0  0
 37 35  1  1  0  0  0
 37 36  1  0  0  0  0
 38 40  1  0  0  0  0
 38 39  1  0  0  0  0
 38 37  1  0  0  0  0
 40 41  1  0  0  0  0
 41 42  1  0  0  0  0
 41 36  1  0  0  0  0
 43 44  1  0  0  0  0
M  END
>  <minimizedAffinity>
-5.85599995

$$$$

 OpenBabel03252507563D

 44 47  0  0  1  0  0  0  0  0999 V2000
   36.9250   27.3240   41.6370 C   0  0  2  0  0  0  0  0  0  0  0  0
   37.0520   27.2020   40.1170 C   0  0  0  0  0  0  0  0  0  0  0  0
   35.7820   28.0000   39.7440 C   0  0  0  0  0  0  0  0  0  0  0  0
   35.7100   29.1010   40.7550 C   0  0  1  0  0  0  0  0  0  0  0  0
   36.7910   28.8160   41.7560 C   0  0  0  0  0  0  0  0  0  0  0  0
   35.9900   26.8280   41.9410 H   0  0  0  0  0  0  0  0  0  0  0  0
   37.9460   27.7260   39.7810 H   0  0  0  0  0  0  0  0  0  0  0  0
   36.9560   26.1560   39.8250 H   0  0  0  0  0  0  0  0  0  0  0  0
   35.8070   28.3410   38.7080 H   0  0  0  0  0  0  0  0  0  0  0  0
   34.9380   27.2770   39.8970 H   0  0  0  0  0  0  0  0  0  0  0  0
   34.7070   29.1510   41.2390 H   0  0  0  0  0  0  0  0  0  0  0  0
   37.7280   29.3430   41.5700 H   0  0  0  0  0  0  0  0  0  0  0  0
   36.3610   29.0420   42.7690 H   0  0  0  0  0  0  0  0  0  0  0  0
   39.5850   25.0890   43.0920 C   0  0  0  0  0  0  0  0  0  0  0  0
   38.4310   25.4510   42.3970 C   0  0  0  0  0  0  0  0  0  0  0  0
   38.1370   26.8070   42.3270 C   0  0  0  0  0  0  0  0  0  0  0  0
   38.9790   27.7510   42.9360 N   0  0  0  0  0  0  0  0  0  0  0  0
   40.0880   27.3340   43.5980 C   0  0  0  0  0  0  0  0  0  0  0  0
   40.3870   26.0120   43.6750 N   0  0  0  0  0  0  0  0  0  0  0  0
   39.8230   24.0360   43.1530 H   0  0  0  0  0  0  0  0  0  0  0  0
   37.7680   24.7410   41.9200 H   0  0  0  0  0  0  0  0  0  0  0  0
   40.6610   28.1440   44.0280 H   0  0  0  0  0  0  0  0  0  0  0  0
   35.9670   30.4840   40.2000 C   0  0  2  0  0  0  0  0  0  0  0  0
   36.7590   30.5400   38.9780 C   0  0  0  0  0  0  0  0  0  0  0  0
   37.2950   31.0990   40.2550 C   0  0  1  0  0  0  0  0  0  0  0  0
   35.0970   31.1580   40.2880 H   0  0  0  0  0  0  0  0  0  0  0  0
   37.2950   29.6320   38.5740 H   0  0  0  0  0  0  0  0  0  0  0  0
   36.4540   31.2150   38.1590 H   0  0  0  0  0  0  0  0  0  0  0  0
   38.0690   30.5860   40.8470 H   0  0  0  0  0  0  0  0  0  0  0  0
   37.3520   32.5090   40.3750 O   0  0  0  0  0  0  0  0  0  0  0  0
   39.0070   34.4230   41.0020 O   0  0  0  0  0  0  0  0  0  0  0  0
   38.9380   32.9400   40.7290 P   0  0  1  0  0  0  0  0  0  0  0  0
   39.4590   32.1340   42.1500 O   0  0  0  0  0  0  0  0  0  0  0  0
   38.9650   32.5650   42.8950 H   0  0  0  0  0  0  0  0  0  0  0  0
   40.0380   32.5730   39.5390 O   0  0  0  0  0  0  0  0  0  0  0  0
   42.2840   33.0520   40.2660 C   0  0  1  0  0  3  0  0  0  0  0  0
   41.0280   33.5280   39.5260 C   0  0  1  0  0  3  0  0  0  0  0  0
   41.6310   33.7730   38.1620 C   0  0  0  0  0  3  0  0  0  0  0  0
   41.7730   32.7880   37.6360 H   0  0  0  0  0  0  0  0  0  0  0  0
   42.9090   34.2660   38.3770 O   0  0  0  0  0  0  0  0  0  0  0  0
   43.2780   34.0280   39.6830 C   0  0  0  0  0  3  0  0  0  0  0  0
   44.3190   33.7480   39.8400 H   0  0  0  0  0  0  0  0  0  0  0  0
   42.1420   33.2110   41.6410 O   0  0  0  0  0  0  0  0  0  0  0  0
   41.9150   32.3230   42.0160 H   0  0  0  0  0  0  0  0  0  0  0  0
  1  5  1  0  0  0  0
  1  6  1  1  0  0  0
  1 16  1  0  0  0  0
  2  1  1  0  0  0  0
  3 10  1  0  0  0  0
  3  2  1  0  0  0  0
  3  4  1  0  0  0  0
  4 11  1  1  0  0  0
  4  5  1  0  0  0  0
  5 13  1  0  0  0  0
  7  2  1  0  0  0  0
  8  2  1  0  0  0  0
  9  3  1  0  0  0  0
 12  5  1  0  0  0  0
 14 20  1  0  0  0  0
 14 19  1  0  0  0  0
 15 14  2  0  0  0  0
 16 15  1  0  0  0  0
 16 17  2  0  0  0  0
 17 18  1  0  0  0  0
 18 19  2  0  0  0  0
 18 22  1  0  0  0  0
 21 15  1  0  0  0  0
 23 25  1  0  0  0  0
 23 26  1  1  0  0  0
 23  4  1  0  0  0  0
 24 23  1  0  0  0  0
 24 25  1  0  0  0  0
 25 30  1  0  0  0  0
 25 29  1  1  0  0  0
 27 24  1  0  0  0  0
 28 24  1  0  0  0  0
 30 32  1  0  0  0  0
 32 31  2  1  0  0  0
 32 33  1  0  0  0  0
 33 34  1  0  0  0  0
 35 32  1  0  0  0  0
 36 43  1  1  0  0  0
 37 35  1  6  0  0  0
 37 36  1  0  0  0  0
 38 40  1  0  0  0  0
 38 37  1  0  0  0  0
 39 38  1  0  0  0  0
 40 41  1  0  0  0  0
 41 42  1  0  0  0  0
 41 36  1  0  0  0  0
 43 44  1  0  0  0  0
M  END
>  <minimizedAffinity>
-5.76141977

$$$$
