
 OpenBabel03252509313D

 27 28  0  0  1  0  0  0  0  0999 V2000
   49.8270   32.9630   41.1140 O   0  0  0  0  0  0  0  0  0  0  0  0
   48.8390   32.9280   42.2590 P   0  0  2  0  0  0  0  0  0  0  0  0
   48.9780   34.2360   43.3020 O   0  0  0  0  0  0  0  0  0  0  0  0
   48.7100   33.9450   44.2080 H   0  0  0  0  0  0  0  0  0  0  0  0
   49.1230   31.5220   43.1640 O   0  0  0  0  0  0  0  0  0  0  0  0
   48.0570   30.6720   42.9230 C   0  0  0  0  0  0  0  0  0  0  0  0
   47.3330   31.0720   42.1930 H   0  0  0  0  0  0  0  0  0  0  0  0
   48.4170   29.7060   42.4680 H   0  0  0  0  0  0  0  0  0  0  0  0
   47.3440   29.9060   46.5090 C   0  0  0  0  0  0  0  0  0  0  0  0
   48.0500   30.2150   45.3360 C   0  0  0  0  0  0  0  0  0  0  0  0
   47.3280   30.3480   44.1560 C   0  0  0  0  0  0  0  0  0  0  0  0
   45.9650   30.1730   44.1840 N   0  0  0  0  0  0  0  0  0  0  0  0
   45.3150   29.8740   45.3400 C   0  0  0  0  0  0  0  0  0  0  0  0
   46.0010   29.7430   46.4830 N   0  0  0  0  0  0  0  0  0  0  0  0
   47.8340   29.7860   47.4630 H   0  0  0  0  0  0  0  0  0  0  0  0
   49.1310   30.3420   45.3790 H   0  0  0  0  0  0  0  0  0  0  0  0
   44.2370   29.7530   45.2670 H   0  0  0  0  0  0  0  0  0  0  0  0
   47.2980   32.8240   41.5940 O   0  0  0  0  0  0  0  0  0  0  0  0
   45.6520   33.6700   43.0590 C   0  0  2  0  0  3  0  0  0  0  0  0
   46.4880   33.8760   41.8200 C   0  0  2  0  0  3  0  0  0  0  0  0
   45.5310   34.2820   40.7510 C   0  0  0  0  0  3  0  0  0  0  0  0
   45.9260   35.0180   40.0540 H   0  0  0  0  0  0  0  0  0  0  0  0
   44.5190   34.8940   41.5270 O   0  0  0  0  0  0  0  0  0  0  0  0
   44.2540   33.9440   42.5370 C   0  0  0  0  0  3  0  0  0  0  0  0
   43.5790   34.3820   43.2690 H   0  0  0  0  0  0  0  0  0  0  0  0
   45.9930   34.5640   44.0790 O   0  0  0  0  0  0  0  0  0  0  0  0
   46.7330   34.2180   44.6150 H   0  0  0  0  0  0  0  0  0  0  0  0
  2  1  2  6  0  0  0
  2  5  1  0  0  0  0
  2  3  1  0  0  0  0
  3  4  1  0  0  0  0
  6  5  1  0  0  0  0
  6 11  1  0  0  0  0
  7  6  1  0  0  0  0
  8  6  1  0  0  0  0
  9 15  1  0  0  0  0
 10 16  1  0  0  0  0
 10  9  2  0  0  0  0
 11 12  2  0  0  0  0
 11 10  1  0  0  0  0
 12 13  1  0  0  0  0
 13 14  2  0  0  0  0
 14  9  1  0  0  0  0
 17 13  1  0  0  0  0
 18  2  1  0  0  0  0
 19 26  1  1  0  0  0
 20 18  1  6  0  0  0
 20 19  1  0  0  0  0
 21 23  1  0  0  0  0
 21 20  1  0  0  0  0
 22 21  1  0  0  0  0
 23 24  1  0  0  0  0
 24 19  1  0  0  0  0
 24 25  1  0  0  0  0
 26 27  1  0  0  0  0
M  END
>  <minimizedAffinity>
-2.91815114

>  <minimizedRMSD>
4.62010527

$$$$
