
 OpenBabel03252508073D

 44 47  0  0  1  0  0  0  0  0999 V2000
   45.2450   35.8420   42.9220 C   0  0  0  0  0  0  0  0  0  0  0  0
   45.5200   34.4840   42.9570 C   0  0  0  0  0  0  0  0  0  0  0  0
   45.3310   33.7720   44.1160 C   0  0  0  0  0  0  0  0  0  0  0  0
   44.8610   34.4760   45.2090 N   0  0  0  0  0  0  0  0  0  0  0  0
   44.5980   35.7780   45.1700 C   0  0  0  0  0  0  0  0  0  0  0  0
   44.7950   36.4510   44.0160 N   0  0  0  0  0  0  0  0  0  0  0  0
   45.3940   36.4140   42.0010 H   0  0  0  0  0  0  0  0  0  0  0  0
   44.2330   36.3080   46.0340 H   0  0  0  0  0  0  0  0  0  0  0  0
   45.5640   32.3930   44.3150 C   0  0  0  0  0  0  0  0  0  0  0  0
   45.1310   31.3910   43.4400 C   0  0  0  0  0  0  0  0  0  0  0  0
   45.2970   30.0490   43.6640 C   0  0  0  0  0  0  0  0  0  0  0  0
   45.9230   29.6230   44.8080 C   0  0  0  0  0  0  0  0  0  0  0  0
   46.3730   30.6230   45.7100 C   0  0  0  0  0  0  0  0  0  0  0  0
   46.9970   30.2100   46.8600 C   0  0  0  0  0  0  0  0  0  0  0  0
   47.4590   31.1280   47.7810 C   0  0  0  0  0  0  0  0  0  0  0  0
   47.2860   32.5020   47.5310 C   0  0  0  0  0  0  0  0  0  0  0  0
   46.6400   32.8760   46.3390 C   0  0  0  0  0  0  0  0  0  0  0  0
   46.1900   31.9410   45.4480 C   0  0  0  0  0  0  0  0  0  0  0  0
   44.6320   31.7240   42.5300 H   0  0  0  0  0  0  0  0  0  0  0  0
   44.9200   29.3570   42.9130 H   0  0  0  0  0  0  0  0  0  0  0  0
   46.0690   28.5710   45.0140 H   0  0  0  0  0  0  0  0  0  0  0  0
   47.1280   29.1380   47.0430 H   0  0  0  0  0  0  0  0  0  0  0  0
   47.9380   30.7320   48.6600 H   0  0  0  0  0  0  0  0  0  0  0  0
   47.6780   33.1300   48.3000 H   0  0  0  0  0  0  0  0  0  0  0  0
   46.6250   33.9450   46.3210 H   0  0  0  0  0  0  0  0  0  0  0  0
   45.9750   33.9080   41.8030 O   0  0  0  0  0  0  0  0  0  0  0  0
   48.0300   32.4010   41.2000 O   0  0  0  0  0  0  0  0  0  0  0  0
   47.6050   33.8180   41.3490 P   0  0  1  0  0  0  0  0  0  0  0  0
   47.8550   34.5700   39.8510 O   0  0  0  0  0  0  0  0  0  0  0  0
   48.4660   32.4090   38.9770 C   0  0  1  0  0  3  0  0  0  0  0  0
   47.6750   33.7120   38.7960 C   0  0  1  0  0  3  0  0  0  0  0  0
   46.2770   33.1360   38.7140 C   0  0  0  0  0  3  0  0  0  0  0  0
   45.9900   32.9340   39.7870 H   0  0  0  0  0  0  0  0  0  0  0  0
   46.3750   31.8850   38.1290 O   0  0  0  0  0  0  0  0  0  0  0  0
   47.7030   31.5790   37.9600 C   0  0  0  0  0  3  0  0  0  0  0  0
   47.9490   30.5160   38.0030 H   0  0  0  0  0  0  0  0  0  0  0  0
   49.7950   32.5850   38.6100 O   0  0  0  0  0  0  0  0  0  0  0  0
   50.3140   32.7570   39.4510 H   0  0  0  0  0  0  0  0  0  0  0  0
   48.5180   34.6120   42.5110 O   0  0  0  0  0  0  0  0  0  0  0  0
   49.7260   35.2620   42.3140 C   0  0  0  0  0  0  0  0  0  0  0  0
   49.4150   36.3720   41.8430 O   0  0  0  0  0  0  0  0  0  0  0  0
   50.8300   34.4280   42.7190 N   0  0  0  0  0  0  0  0  0  0  0  0
   50.9360   34.2990   43.7590 H   0  0  0  0  0  0  0  0  0  0  0  0
   51.5430   33.9280   42.1430 H   0  0  0  0  0  0  0  0  0  0  0  0
  1  2  2  0  0  0  0
  1  6  1  0  0  0  0
  2  3  1  0  0  0  0
  3  9  1  0  0  0  0
  3  4  2  0  0  0  0
  5  4  1  0  0  0  0
  5  8  1  0  0  0  0
  6  5  2  0  0  0  0
  7  1  1  0  0  0  0
  9 18  1  0  0  0  0
 10 11  1  0  0  0  0
 10  9  2  0  0  0  0
 11 12  2  0  0  0  0
 12 21  1  0  0  0  0
 12 13  1  0  0  0  0
 13 14  1  0  0  0  0
 14 22  1  0  0  0  0
 14 15  2  0  0  0  0
 15 23  1  0  0  0  0
 16 15  1  0  0  0  0
 16 24  1  0  0  0  0
 17 16  2  0  0  0  0
 18 13  2  0  0  0  0
 18 17  1  0  0  0  0
 19 10  1  0  0  0  0
 20 11  1  0  0  0  0
 25 17  1  0  0  0  0
 26  2  1  0  0  0  0
 28 27  2  6  0  0  0
 28 26  1  0  0  0  0
 28 39  1  0  0  0  0
 29 28  1  0  0  0  0
 30 37  1  6  0  0  0
 31 30  1  0  0  0  0
 31 29  1  1  0  0  0
 32 31  1  0  0  0  0
 32 33  1  0  0  0  0
 34 32  1  0  0  0  0
 35 36  1  0  0  0  0
 35 34  1  0  0  0  0
 35 30  1  0  0  0  0
 37 38  1  0  0  0  0
 40 39  1  0  0  0  0
 40 42  1  0  0  0  0
 41 40  2  0  0  0  0
 42 43  1  0  0  0  0
 44 42  1  0  0  0  0
M  END
>  <minimizedAffinity>
-6.150702

>  <minimizedRMSD>
0.434268504

$$$$
