
 OpenBabel03242521583D

 33 35  0  0  1  0  0  0  0  0999 V2000
   46.7740   34.8200   42.1320 C   0  0  0  0  0  0  0  0  0  0  0  0
   48.0000   35.4120   41.9400 C   0  0  0  0  0  0  0  0  0  0  0  0
   48.7580   35.2690   40.7800 C   0  0  0  0  0  0  0  0  0  0  0  0
   48.2610   34.4920   39.7620 C   0  0  0  0  0  0  0  0  0  0  0  0
   47.0540   33.9200   39.9670 C   0  0  0  0  0  0  0  0  0  0  0  0
   46.3400   34.0670   41.0850 N   0  0  0  0  0  0  0  0  0  0  0  0
   48.3210   36.0120   42.7980 H   0  0  0  0  0  0  0  0  0  0  0  0
   49.6960   35.8240   40.8420 H   0  0  0  0  0  0  0  0  0  0  0  0
   48.9910   34.4930   38.9760 H   0  0  0  0  0  0  0  0  0  0  0  0
   44.4430   35.9500   44.8670 C   0  0  0  0  0  0  0  0  0  0  0  0
   45.1030   35.9650   43.6330 C   0  0  0  0  0  0  0  0  0  0  0  0
   45.9990   34.9670   43.3560 C   0  0  0  0  0  0  0  0  0  0  0  0
   46.1990   34.0030   44.3120 N   0  0  0  0  0  0  0  0  0  0  0  0
   45.5540   34.0050   45.4960 C   0  0  0  0  0  0  0  0  0  0  0  0
   44.6790   34.9810   45.7650 N   0  0  0  0  0  0  0  0  0  0  0  0
   43.7390   36.7510   45.0620 H   0  0  0  0  0  0  0  0  0  0  0  0
   44.9580   36.7210   42.8620 H   0  0  0  0  0  0  0  0  0  0  0  0
   45.8090   33.1810   46.1590 H   0  0  0  0  0  0  0  0  0  0  0  0
   46.5350   33.1360   38.9540 O   0  0  0  0  0  0  0  0  0  0  0  0
   47.8370   34.5330   37.1240 O   0  0  0  0  0  0  0  0  0  0  0  0
   47.0750   33.2540   37.3320 P   0  0  1  0  0  0  0  0  0  0  0  0
   48.0800   31.9290   37.0110 O   0  0  0  0  0  0  0  0  0  0  0  0
   48.9060   32.1670   36.5500 H   0  0  0  0  0  0  0  0  0  0  0  0
   45.6990   33.2410   36.3370 O   0  0  0  0  0  0  0  0  0  0  0  0
   44.5780   31.1300   36.1940 C   0  0  2  0  0  0  0  0  0  0  0  0
   45.7020   32.0110   35.6720 C   0  0  1  0  0  0  0  0  0  0  0  0
   45.3190   32.1460   34.2260 C   0  0  0  0  0  0  0  0  0  0  0  0
   46.2190   32.3340   33.6110 H   0  0  0  0  0  0  0  0  0  0  0  0
   44.6690   30.9770   33.8640 O   0  0  0  0  0  0  0  0  0  0  0  0
   44.2470   30.3170   34.9930 C   0  0  0  0  0  0  0  0  0  0  0  0
   44.7670   29.3300   35.1090 H   0  0  0  0  0  0  0  0  0  0  0  0
   43.5190   31.9660   36.5360 O   0  0  0  0  0  0  0  0  0  0  0  0
   43.2950   32.5080   35.7550 H   0  0  0  0  0  0  0  0  0  0  0  0
  1 12  1  0  0  0  0
  2  1  1  0  0  0  0
  2  7  1  0  0  0  0
  3  8  1  0  0  0  0
  3  2  2  0  0  0  0
  4  5  2  0  0  0  0
  4  3  1  0  0  0  0
  5  6  1  0  0  0  0
  6  1  2  0  0  0  0
  9  4  1  0  0  0  0
 10 16  1  0  0  0  0
 10 15  1  0  0  0  0
 11 10  2  0  0  0  0
 12 11  1  0  0  0  0
 12 13  2  0  0  0  0
 13 14  1  0  0  0  0
 14 15  2  0  0  0  0
 14 18  1  0  0  0  0
 17 11  1  0  0  0  0
 19  5  1  0  0  0  0
 21 20  2  6  0  0  0
 21 19  1  0  0  0  0
 22 21  1  0  0  0  0
 23 22  1  0  0  0  0
 24 21  1  0  0  0  0
 25 32  1  6  0  0  0
 26 25  1  0  0  0  0
 26 24  1  1  0  0  0
 27 26  1  0  0  0  0
 28 27  1  0  0  0  0
 29 27  1  0  0  0  0
 29 30  1  0  0  0  0
 30 31  1  0  0  0  0
 30 25  1  0  0  0  0
 33 32  1  0  0  0  0
M  END
>  <minimizedAffinity>
-5.85041571

>  <minimizedRMSD>
1.1409409

$$$$
