
 OpenBabel03252505003D

 37 39  0  0  1  0  0  0  0  0999 V2000
   36.7790   30.4470   39.7120 N   0  0  0  0  0  0  0  0  0  0  0  0
   36.9080   29.8660   38.4300 C   0  0  0  0  0  0  0  0  0  0  0  0
   37.2390   31.0320   37.5800 C   0  0  0  0  0  0  0  0  0  0  0  0
   37.3310   32.2680   38.4700 C   0  0  0  0  0  0  0  0  0  0  0  0
   37.5220   31.6320   39.8540 C   0  0  2  0  0  0  0  0  0  0  0  0
   36.8450   28.9320   37.9350 H   0  0  0  0  0  0  0  0  0  0  0  0
   37.4310   31.0980   36.5130 H   0  0  0  0  0  0  0  0  0  0  0  0
   36.4150   32.8530   38.4000 H   0  0  0  0  0  0  0  0  0  0  0  0
   38.2400   32.7980   38.1520 H   0  0  0  0  0  0  0  0  0  0  0  0
   37.1810   32.2470   40.6850 H   0  0  0  0  0  0  0  0  0  0  0  0
   35.9610   29.8600   40.6450 C   0  0  0  0  0  0  0  0  0  0  0  0
   35.1190   29.3630   40.0920 H   0  0  0  0  0  0  0  0  0  0  0  0
   35.4080   30.5720   41.2980 H   0  0  0  0  0  0  0  0  0  0  0  0
   37.2960   26.7350   42.3150 C   0  0  0  0  0  0  0  0  0  0  0  0
   36.5890   27.5430   41.3720 C   0  0  0  0  0  0  0  0  0  0  0  0
   36.6090   28.9250   41.5410 C   0  0  0  0  0  0  0  0  0  0  0  0
   37.3000   29.4130   42.5920 N   0  0  0  0  0  0  0  0  0  0  0  0
   37.9800   28.6240   43.4970 C   0  0  0  0  0  0  0  0  0  0  0  0
   37.9760   27.2980   43.3560 N   0  0  0  0  0  0  0  0  0  0  0  0
   37.2580   25.6520   42.1500 H   0  0  0  0  0  0  0  0  0  0  0  0
   36.0550   27.1150   40.5550 H   0  0  0  0  0  0  0  0  0  0  0  0
   38.4870   29.1460   44.2850 H   0  0  0  0  0  0  0  0  0  0  0  0
   38.8690   31.2560   39.9170 O   0  0  0  0  0  0  0  0  0  0  0  0
   40.0870   31.4260   42.2700 O   0  0  0  0  0  0  0  0  0  0  0  0
   39.7900   32.1370   40.9780 P   0  0  2  0  0  0  0  0  0  0  0  0
   38.8900   33.5190   41.4060 O   0  0  0  0  0  0  0  0  0  0  0  0
   38.3760   33.8400   40.6230 H   0  0  0  0  0  0  0  0  0  0  0  0
   41.1980   32.7420   40.2590 O   0  0  0  0  0  0  0  0  0  0  0  0
   41.0780   33.1690   37.8900 C   0  0  1  0  0  3  0  0  0  0  0  0
   41.4640   32.2610   39.0250 C   0  0  1  0  0  3  0  0  0  0  0  0
   42.8630   31.8600   38.7410 C   0  0  0  0  0  3  0  0  0  0  0  0
   43.5620   32.0000   39.5870 H   0  0  0  0  0  0  0  0  0  0  0  0
   43.3110   32.5400   37.6100 O   0  0  0  0  0  0  0  0  0  0  0  0
   42.4370   33.5840   37.3640 C   0  0  0  0  0  3  0  0  0  0  0  0
   42.4110   33.8940   36.3160 H   0  0  0  0  0  0  0  0  0  0  0  0
   40.4380   32.4690   36.8600 O   0  0  0  0  0  0  0  0  0  0  0  0
   40.7680   32.7590   35.9730 H   0  0  0  0  0  0  0  0  0  0  0  0
  1  5  1  0  0  0  0
  1 11  1  0  0  0  0
  2  1  1  0  0  0  0
  3  2  2  0  0  0  0
  3  4  1  0  0  0  0
  4  5  1  0  0  0  0
  5 23  1  0  0  0  0
  5 10  1  1  0  0  0
  6  2  1  0  0  0  0
  7  3  1  0  0  0  0
  8  4  1  0  0  0  0
  9  4  1  0  0  0  0
 11 13  1  0  0  0  0
 11 16  1  0  0  0  0
 12 11  1  0  0  0  0
 14 19  1  0  0  0  0
 15 16  1  0  0  0  0
 15 14  2  0  0  0  0
 16 17  2  0  0  0  0
 17 18  1  0  0  0  0
 18 22  1  0  0  0  0
 19 18  2  0  0  0  0
 20 14  1  0  0  0  0
 21 15  1  0  0  0  0
 23 25  1  0  0  0  0
 25 26  1  0  0  0  0
 25 24  2  1  0  0  0
 27 26  1  0  0  0  0
 28 25  1  0  0  0  0
 29 36  1  6  0  0  0
 29 30  1  0  0  0  0
 30 28  1  1  0  0  0
 31 30  1  0  0  0  0
 31 32  1  0  0  0  0
 33 31  1  0  0  0  0
 34 33  1  0  0  0  0
 34 29  1  0  0  0  0
 35 34  1  0  0  0  0
 37 36  1  0  0  0  0
M  END
>  <minimizedAffinity>
-5.47947264

$$$$

 OpenBabel03252505003D

 37 39  0  0  1  0  0  0  0  0999 V2000
   36.9490   29.0500   38.5960 N   0  0  0  0  0  0  0  0  0  0  0  0
   37.2180   27.7040   38.2590 C   0  0  0  0  0  0  0  0  0  0  0  0
   37.3620   27.7620   36.7870 C   0  0  0  0  0  0  0  0  0  0  0  0
   37.2040   29.2140   36.3450 C   0  0  0  0  0  0  0  0  0  0  0  0
   37.4640   29.9630   37.6590 C   0  0  2  0  0  0  0  0  0  0  0  0
   37.3390   26.7480   38.7010 H   0  0  0  0  0  0  0  0  0  0  0  0
   37.5710   26.9790   36.0640 H   0  0  0  0  0  0  0  0  0  0  0  0
   36.2010   29.3850   35.9560 H   0  0  0  0  0  0  0  0  0  0  0  0
   38.0130   29.3960   35.6220 H   0  0  0  0  0  0  0  0  0  0  0  0
   36.9940   30.9420   37.7220 H   0  0  0  0  0  0  0  0  0  0  0  0
   36.2210   29.3350   39.7240 C   0  0  0  0  0  0  0  0  0  0  0  0
   35.2800   28.7220   39.6840 H   0  0  0  0  0  0  0  0  0  0  0  0
   35.8110   30.3690   39.7700 H   0  0  0  0  0  0  0  0  0  0  0  0
   37.3590   28.0320   43.0920 C   0  0  0  0  0  0  0  0  0  0  0  0
   36.5730   28.1460   41.9040 C   0  0  0  0  0  0  0  0  0  0  0  0
   36.9120   29.1290   40.9800 C   0  0  0  0  0  0  0  0  0  0  0  0
   37.9690   29.9170   41.2700 N   0  0  0  0  0  0  0  0  0  0  0  0
   38.7220   29.7990   42.4200 C   0  0  0  0  0  0  0  0  0  0  0  0
   38.4170   28.8640   43.3200 N   0  0  0  0  0  0  0  0  0  0  0  0
   37.0620   27.2460   43.7970 H   0  0  0  0  0  0  0  0  0  0  0  0
   35.7450   27.5020   41.7150 H   0  0  0  0  0  0  0  0  0  0  0  0
   39.5340   30.4920   42.5210 H   0  0  0  0  0  0  0  0  0  0  0  0
   38.8540   29.9680   37.8260 O   0  0  0  0  0  0  0  0  0  0  0  0
   38.8600   32.3120   39.0730 O   0  0  0  0  0  0  0  0  0  0  0  0
   39.5270   31.4710   38.0180 P   0  0  2  0  0  0  0  0  0  0  0  0
   39.3150   32.3140   36.5530 O   0  0  0  0  0  0  0  0  0  0  0  0
   39.4110   31.6900   35.7910 H   0  0  0  0  0  0  0  0  0  0  0  0
   41.2030   31.4020   38.2420 O   0  0  0  0  0  0  0  0  0  0  0  0
   42.6450   33.2150   37.5770 C   0  0  1  0  0  3  0  0  0  0  0  0
   41.9380   31.9320   37.2400 C   0  0  1  0  0  3  0  0  0  0  0  0
   42.9760   31.0660   36.6300 C   0  0  0  0  0  3  0  0  0  0  0  0
   43.0450   30.0530   37.0690 H   0  0  0  0  0  0  0  0  0  0  0  0
   44.2050   31.7180   36.6910 O   0  0  0  0  0  0  0  0  0  0  0  0
   44.0920   32.7640   37.5900 C   0  0  0  0  0  3  0  0  0  0  0  0
   44.7930   33.5800   37.4020 H   0  0  0  0  0  0  0  0  0  0  0  0
   42.5210   34.1610   36.5530 O   0  0  0  0  0  0  0  0  0  0  0  0
   43.3820   34.6200   36.3860 H   0  0  0  0  0  0  0  0  0  0  0  0
  1 11  1  0  0  0  0
  2  1  1  0  0  0  0
  2  6  1  0  0  0  0
  3  2  2  0  0  0  0
  4  3  1  0  0  0  0
  4  5  1  0  0  0  0
  5 10  1  1  0  0  0
  5 23  1  0  0  0  0
  5  1  1  0  0  0  0
  7  3  1  0  0  0  0
  8  4  1  0  0  0  0
  9  4  1  0  0  0  0
 11 13  1  0  0  0  0
 11 16  1  0  0  0  0
 12 11  1  0  0  0  0
 14 19  1  0  0  0  0
 14 20  1  0  0  0  0
 15 14  2  0  0  0  0
 16 17  2  0  0  0  0
 16 15  1  0  0  0  0
 17 18  1  0  0  0  0
 18 22  1  0  0  0  0
 18 19  2  0  0  0  0
 21 15  1  0  0  0  0
 23 25  1  0  0  0  0
 25 28  1  0  0  0  0
 25 24  2  1  0  0  0
 26 25  1  0  0  0  0
 27 26  1  0  0  0  0
 29 36  1  6  0  0  0
 29 34  1  0  0  0  0
 30 29  1  0  0  0  0
 30 28  1  1  0  0  0
 31 33  1  0  0  0  0
 31 32  1  0  0  0  0
 31 30  1  0  0  0  0
 33 34  1  0  0  0  0
 35 34  1  0  0  0  0
 37 36  1  0  0  0  0
M  END
>  <minimizedAffinity>
-5.36218071

$$$$

 OpenBabel03252505003D

 37 39  0  0  1  0  0  0  0  0999 V2000
   35.9680   27.7580   39.4160 N   0  0  0  0  0  0  0  0  0  0  0  0
   35.4790   27.6170   38.0980 C   0  0  0  0  0  0  0  0  0  0  0  0
   34.3010   28.5140   38.0920 C   0  0  0  0  0  0  0  0  0  0  0  0
   34.2010   29.1860   39.4590 C   0  0  0  0  0  0  0  0  0  0  0  0
   35.6250   28.9900   39.9990 C   0  0  2  0  0  0  0  0  0  0  0  0
   35.6800   27.1090   37.1890 H   0  0  0  0  0  0  0  0  0  0  0  0
   33.5910   28.7460   37.3040 H   0  0  0  0  0  0  0  0  0  0  0  0
   33.4490   28.6900   40.0710 H   0  0  0  0  0  0  0  0  0  0  0  0
   34.0000   30.2480   39.2560 H   0  0  0  0  0  0  0  0  0  0  0  0
   35.6990   28.9790   41.0850 H   0  0  0  0  0  0  0  0  0  0  0  0
   36.6650   26.7280   39.9960 C   0  0  0  0  0  0  0  0  0  0  0  0
   37.2860   26.2460   39.1940 H   0  0  0  0  0  0  0  0  0  0  0  0
   36.0410   25.8720   40.3380 H   0  0  0  0  0  0  0  0  0  0  0  0
   37.9890   27.3900   43.4810 C   0  0  0  0  0  0  0  0  0  0  0  0
   37.0630   27.0270   42.4540 C   0  0  0  0  0  0  0  0  0  0  0  0
   37.4880   27.0940   41.1300 C   0  0  0  0  0  0  0  0  0  0  0  0
   38.7540   27.5010   40.9030 N   0  0  0  0  0  0  0  0  0  0  0  0
   39.6400   27.8500   41.9020 C   0  0  0  0  0  0  0  0  0  0  0  0
   39.2570   27.7930   43.1770 N   0  0  0  0  0  0  0  0  0  0  0  0
   37.6190   27.3250   44.5120 H   0  0  0  0  0  0  0  0  0  0  0  0
   36.0710   26.7110   42.6790 H   0  0  0  0  0  0  0  0  0  0  0  0
   40.6150   28.1550   41.5770 H   0  0  0  0  0  0  0  0  0  0  0  0
   36.4090   29.9650   39.3680 O   0  0  0  0  0  0  0  0  0  0  0  0
   37.2310   30.4900   41.8370 O   0  0  0  0  0  0  0  0  0  0  0  0
   37.3010   30.9130   40.3940 P   0  0  2  0  0  0  0  0  0  0  0  0
   36.6410   32.4820   40.3400 O   0  0  0  0  0  0  0  0  0  0  0  0
   36.3390   32.6870   39.4200 H   0  0  0  0  0  0  0  0  0  0  0  0
   38.9010   31.0960   39.8740 O   0  0  0  0  0  0  0  0  0  0  0  0
   39.8940   31.9720   37.8600 C   0  0  1  0  0  3  0  0  0  0  0  0
   39.1000   30.8980   38.5520 C   0  0  1  0  0  3  0  0  0  0  0  0
   39.7380   29.6230   38.1470 C   0  0  0  0  0  3  0  0  0  0  0  0
   39.9930   28.9490   38.9870 H   0  0  0  0  0  0  0  0  0  0  0  0
   40.8650   29.9020   37.3770 O   0  0  0  0  0  0  0  0  0  0  0  0
   41.1830   31.2370   37.5510 C   0  0  0  0  0  3  0  0  0  0  0  0
   41.7270   31.6700   36.7080 H   0  0  0  0  0  0  0  0  0  0  0  0
   39.3230   32.3290   36.6330 O   0  0  0  0  0  0  0  0  0  0  0  0
   40.0160   32.4290   35.9330 H   0  0  0  0  0  0  0  0  0  0  0  0
  1 11  1  0  0  0  0
  1  5  1  0  0  0  0
  2  1  1  0  0  0  0
  3  2  2  0  0  0  0
  3  4  1  0  0  0  0
  4  5  1  0  0  0  0
  4  8  1  0  0  0  0
  5 10  1  1  0  0  0
  6  2  1  0  0  0  0
  7  3  1  0  0  0  0
  9  4  1  0  0  0  0
 11 13  1  0  0  0  0
 11 16  1  0  0  0  0
 12 11  1  0  0  0  0
 14 20  1  0  0  0  0
 15 21  1  0  0  0  0
 15 14  2  0  0  0  0
 16 15  1  0  0  0  0
 17 16  2  0  0  0  0
 17 18  1  0  0  0  0
 18 19  2  0  0  0  0
 19 14  1  0  0  0  0
 22 18  1  0  0  0  0
 23  5  1  0  0  0  0
 23 25  1  0  0  0  0
 25 24  2  1  0  0  0
 26 25  1  0  0  0  0
 27 26  1  0  0  0  0
 28 25  1  0  0  0  0
 29 36  1  6  0  0  0
 29 30  1  0  0  0  0
 30 28  1  1  0  0  0
 31 30  1  0  0  0  0
 31 32  1  0  0  0  0
 33 34  1  0  0  0  0
 33 31  1  0  0  0  0
 34 29  1  0  0  0  0
 35 34  1  0  0  0  0
 37 36  1  0  0  0  0
M  END
>  <minimizedAffinity>
-5.26797628

$$$$

 OpenBabel03252505003D

 37 39  0  0  1  0  0  0  0  0999 V2000
   35.8290   28.8500   39.1430 N   0  0  0  0  0  0  0  0  0  0  0  0
   36.1120   27.5410   38.6910 C   0  0  0  0  0  0  0  0  0  0  0  0
   35.8300   27.6330   37.2410 C   0  0  0  0  0  0  0  0  0  0  0  0
   35.4250   29.0690   36.9190 C   0  0  0  0  0  0  0  0  0  0  0  0
   35.9760   29.8210   38.1390 C   0  0  2  0  0  0  0  0  0  0  0  0
   36.4370   26.5950   39.0420 H   0  0  0  0  0  0  0  0  0  0  0  0
   35.8970   26.8840   36.4570 H   0  0  0  0  0  0  0  0  0  0  0  0
   34.3420   29.1460   36.8320 H   0  0  0  0  0  0  0  0  0  0  0  0
   35.9790   29.3380   36.0080 H   0  0  0  0  0  0  0  0  0  0  0  0
   35.4560   30.7490   38.3690 H   0  0  0  0  0  0  0  0  0  0  0  0
   35.4240   29.0470   40.4410 C   0  0  0  0  0  0  0  0  0  0  0  0
   34.5850   28.3290   40.6460 H   0  0  0  0  0  0  0  0  0  0  0  0
   34.9320   30.0260   40.6350 H   0  0  0  0  0  0  0  0  0  0  0  0
   37.6350   27.8590   43.2760 C   0  0  0  0  0  0  0  0  0  0  0  0
   36.5380   27.8780   42.3590 C   0  0  0  0  0  0  0  0  0  0  0  0
   36.4630   28.9220   41.4420 C   0  0  0  0  0  0  0  0  0  0  0  0
   37.4370   29.8550   41.4800 N   0  0  0  0  0  0  0  0  0  0  0  0
   38.4920   29.8280   42.3690 C   0  0  0  0  0  0  0  0  0  0  0  0
   38.5860   28.8380   43.2570 N   0  0  0  0  0  0  0  0  0  0  0  0
   37.6610   27.0220   43.9840 H   0  0  0  0  0  0  0  0  0  0  0  0
   35.7900   27.1200   42.3650 H   0  0  0  0  0  0  0  0  0  0  0  0
   39.1950   30.6340   42.2870 H   0  0  0  0  0  0  0  0  0  0  0  0
   37.3510   29.9590   37.9120 O   0  0  0  0  0  0  0  0  0  0  0  0
   37.0010   32.4520   38.7570 O   0  0  0  0  0  0  0  0  0  0  0  0
   37.9240   31.5100   38.0300 P   0  0  2  0  0  0  0  0  0  0  0  0
   38.0580   32.1260   36.4480 O   0  0  0  0  0  0  0  0  0  0  0  0
   38.3510   31.4070   35.8330 H   0  0  0  0  0  0  0  0  0  0  0  0
   39.4960   31.5700   38.6550 O   0  0  0  0  0  0  0  0  0  0  0  0
   40.0000   32.7800   40.6770 C   0  0  1  0  0  3  0  0  0  0  0  0
   39.8600   32.7600   39.1800 C   0  0  1  0  0  3  0  0  0  0  0  0
   41.1070   33.3740   38.6660 C   0  0  0  0  0  3  0  0  0  0  0  0
   41.6250   32.7810   37.8880 H   0  0  0  0  0  0  0  0  0  0  0  0
   41.9590   33.6390   39.7360 O   0  0  0  0  0  0  0  0  0  0  0  0
   41.5000   32.9330   40.8340 C   0  0  0  0  0  3  0  0  0  0  0  0
   41.7840   33.3800   41.7900 H   0  0  0  0  0  0  0  0  0  0  0  0
   39.4120   33.9190   41.2390 O   0  0  0  0  0  0  0  0  0  0  0  0
   39.9900   34.3090   41.9420 H   0  0  0  0  0  0  0  0  0  0  0  0
  1 11  1  0  0  0  0
  2  6  1  0  0  0  0
  2  1  1  0  0  0  0
  3  2  2  0  0  0  0
  4  3  1  0  0  0  0
  4  5  1  0  0  0  0
  5 10  1  1  0  0  0
  5  1  1  0  0  0  0
  7  3  1  0  0  0  0
  8  4  1  0  0  0  0
  9  4  1  0  0  0  0
 11 13  1  0  0  0  0
 11 12  1  0  0  0  0
 11 16  1  0  0  0  0
 14 20  1  0  0  0  0
 15 21  1  0  0  0  0
 15 14  2  0  0  0  0
 16 17  2  0  0  0  0
 16 15  1  0  0  0  0
 17 18  1  0  0  0  0
 18 19  2  0  0  0  0
 19 14  1  0  0  0  0
 22 18  1  0  0  0  0
 23 25  1  0  0  0  0
 23  5  1  0  0  0  0
 25 28  1  0  0  0  0
 25 24  2  1  0  0  0
 26 25  1  0  0  0  0
 27 26  1  0  0  0  0
 29 34  1  0  0  0  0
 29 36  1  6  0  0  0
 30 28  1  6  0  0  0
 30 29  1  0  0  0  0
 31 30  1  0  0  0  0
 31 33  1  0  0  0  0
 32 31  1  0  0  0  0
 33 34  1  0  0  0  0
 34 35  1  0  0  0  0
 36 37  1  0  0  0  0
M  END
>  <minimizedAffinity>
-5.21816206

$$$$

 OpenBabel03252505003D

 37 39  0  0  1  0  0  0  0  0999 V2000
   38.8290   29.4540   42.7470 N   0  0  0  0  0  0  0  0  0  0  0  0
   39.5240   28.2290   42.8650 C   0  0  0  0  0  0  0  0  0  0  0  0
   38.5000   27.3320   43.4480 C   0  0  0  0  0  0  0  0  0  0  0  0
   37.2010   28.1190   43.5990 C   0  0  0  0  0  0  0  0  0  0  0  0
   37.4390   29.2870   42.6320 C   0  0  2  0  0  0  0  0  0  0  0  0
   40.4720   27.7930   42.6780 H   0  0  0  0  0  0  0  0  0  0  0  0
   38.5530   26.2840   43.7280 H   0  0  0  0  0  0  0  0  0  0  0  0
   37.0740   28.4460   44.6300 H   0  0  0  0  0  0  0  0  0  0  0  0
   36.4060   27.4560   43.2270 H   0  0  0  0  0  0  0  0  0  0  0  0
   36.8830   30.1920   42.8720 H   0  0  0  0  0  0  0  0  0  0  0  0
   39.5260   30.6360   42.7880 C   0  0  0  0  0  0  0  0  0  0  0  0
   40.5490   30.4120   43.1950 H   0  0  0  0  0  0  0  0  0  0  0  0
   39.1490   31.3780   43.5270 H   0  0  0  0  0  0  0  0  0  0  0  0
   40.4080   31.7290   39.2710 C   0  0  0  0  0  0  0  0  0  0  0  0
   40.4330   30.9530   40.4710 C   0  0  0  0  0  0  0  0  0  0  0  0
   39.6200   31.3470   41.5300 C   0  0  0  0  0  0  0  0  0  0  0  0
   38.8560   32.4450   41.3520 N   0  0  0  0  0  0  0  0  0  0  0  0
   38.8390   33.1880   40.1890 C   0  0  0  0  0  0  0  0  0  0  0  0
   39.6080   32.8300   39.1620 N   0  0  0  0  0  0  0  0  0  0  0  0
   41.0610   31.3880   38.4590 H   0  0  0  0  0  0  0  0  0  0  0  0
   41.0520   30.0910   40.5690 H   0  0  0  0  0  0  0  0  0  0  0  0
   38.1840   34.0380   40.1860 H   0  0  0  0  0  0  0  0  0  0  0  0
   37.2000   28.7750   41.3510 O   0  0  0  0  0  0  0  0  0  0  0  0
   37.1030   30.3980   39.2520 O   0  0  0  0  0  0  0  0  0  0  0  0
   36.3090   29.7630   40.3610 P   0  0  2  0  0  0  0  0  0  0  0  0
   35.7330   31.0520   41.3140 O   0  0  0  0  0  0  0  0  0  0  0  0
   35.5070   30.7240   42.2200 H   0  0  0  0  0  0  0  0  0  0  0  0
   34.9170   28.9990   39.7750 O   0  0  0  0  0  0  0  0  0  0  0  0
   35.5520   27.7050   37.8430 C   0  0  1  0  0  3  0  0  0  0  0  0
   34.8430   28.8940   38.4300 C   0  0  1  0  0  3  0  0  0  0  0  0
   33.4890   28.8760   37.8250 C   0  0  0  0  0  3  0  0  0  0  0  0
   32.6600   28.9500   38.5540 H   0  0  0  0  0  0  0  0  0  0  0  0
   33.3580   27.7340   37.0380 O   0  0  0  0  0  0  0  0  0  0  0  0
   34.3820   26.8640   37.3700 C   0  0  0  0  0  3  0  0  0  0  0  0
   34.6510   26.1780   36.5630 H   0  0  0  0  0  0  0  0  0  0  0  0
   36.2930   28.0500   36.7080 O   0  0  0  0  0  0  0  0  0  0  0  0
   36.1800   27.3770   35.9900 H   0  0  0  0  0  0  0  0  0  0  0  0
  1 11  1  0  0  0  0
  1  2  1  0  0  0  0
  2  3  2  0  0  0  0
  3  4  1  0  0  0  0
  3  7  1  0  0  0  0
  4  8  1  0  0  0  0
  5  1  1  0  0  0  0
  5 10  1  1  0  0  0
  5  4  1  0  0  0  0
  6  2  1  0  0  0  0
  9  4  1  0  0  0  0
 11 12  1  0  0  0  0
 11 13  1  0  0  0  0
 14 15  1  0  0  0  0
 15 21  1  0  0  0  0
 15 16  2  0  0  0  0
 16 11  1  0  0  0  0
 17 16  1  0  0  0  0
 18 17  2  0  0  0  0
 19 14  2  0  0  0  0
 19 18  1  0  0  0  0
 20 14  1  0  0  0  0
 22 18  1  0  0  0  0
 23  5  1  0  0  0  0
 25 24  2  6  0  0  0
 25 26  1  0  0  0  0
 25 23  1  0  0  0  0
 26 27  1  0  0  0  0
 28 25  1  0  0  0  0
 29 36  1  6  0  0  0
 29 30  1  0  0  0  0
 30 28  1  1  0  0  0
 31 30  1  0  0  0  0
 31 32  1  0  0  0  0
 33 34  1  0  0  0  0
 33 31  1  0  0  0  0
 34 29  1  0  0  0  0
 35 34  1  0  0  0  0
 37 36  1  0  0  0  0
M  END
>  <minimizedAffinity>
-5.14182854

$$$$

 OpenBabel03252505003D

 37 39  0  0  1  0  0  0  0  0999 V2000
   37.1560   27.8460   41.4810 N   0  0  0  0  0  0  0  0  0  0  0  0
   36.4820   27.7540   42.7200 C   0  0  0  0  0  0  0  0  0  0  0  0
   37.5020   28.2380   43.6780 C   0  0  0  0  0  0  0  0  0  0  0  0
   38.7480   28.6410   42.8940 C   0  0  0  0  0  0  0  0  0  0  0  0
   38.1740   28.8150   41.4800 C   0  0  2  0  0  0  0  0  0  0  0  0
   35.5500   27.4710   43.1360 H   0  0  0  0  0  0  0  0  0  0  0  0
   37.4620   28.3520   44.7570 H   0  0  0  0  0  0  0  0  0  0  0  0
   39.5000   27.8550   42.9480 H   0  0  0  0  0  0  0  0  0  0  0  0
   39.0640   29.6080   43.3120 H   0  0  0  0  0  0  0  0  0  0  0  0
   38.8960   28.6690   40.6790 H   0  0  0  0  0  0  0  0  0  0  0  0
   36.8050   27.0060   40.4530 C   0  0  0  0  0  0  0  0  0  0  0  0
   37.1810   27.4640   39.4990 H   0  0  0  0  0  0  0  0  0  0  0  0
   35.7120   26.9400   40.2530 H   0  0  0  0  0  0  0  0  0  0  0  0
   37.1070   23.2330   40.3540 C   0  0  0  0  0  0  0  0  0  0  0  0
   36.5200   24.5270   40.2000 C   0  0  0  0  0  0  0  0  0  0  0  0
   37.2650   25.6390   40.5820 C   0  0  0  0  0  0  0  0  0  0  0  0
   38.5010   25.4200   41.0770 N   0  0  0  0  0  0  0  0  0  0  0  0
   39.0590   24.1660   41.2220 C   0  0  0  0  0  0  0  0  0  0  0  0
   38.3650   23.0860   40.8630 N   0  0  0  0  0  0  0  0  0  0  0  0
   36.4910   22.3810   40.0430 H   0  0  0  0  0  0  0  0  0  0  0  0
   35.5390   24.6540   39.8040 H   0  0  0  0  0  0  0  0  0  0  0  0
   40.0510   24.1380   41.6290 H   0  0  0  0  0  0  0  0  0  0  0  0
   37.5400   30.0630   41.4780 O   0  0  0  0  0  0  0  0  0  0  0  0
   37.8760   32.5490   40.6090 O   0  0  0  0  0  0  0  0  0  0  0  0
   38.0270   31.0900   40.2720 P   0  0  2  0  0  0  0  0  0  0  0  0
   37.0120   30.8190   38.9310 O   0  0  0  0  0  0  0  0  0  0  0  0
   36.7920   29.8560   38.8670 H   0  0  0  0  0  0  0  0  0  0  0  0
   39.5860   30.7360   39.7160 O   0  0  0  0  0  0  0  0  0  0  0  0
   40.0840   32.0580   37.7630 C   0  0  1  0  0  3  0  0  0  0  0  0
   39.7280   30.7300   38.3720 C   0  0  1  0  0  3  0  0  0  0  0  0
   40.6990   29.7680   37.7980 C   0  0  0  0  0  3  0  0  0  0  0  0
   41.2210   29.1400   38.5460 H   0  0  0  0  0  0  0  0  0  0  0  0
   41.6140   30.4610   37.0080 O   0  0  0  0  0  0  0  0  0  0  0  0
   41.5090   31.8070   37.3110 C   0  0  0  0  0  3  0  0  0  0  0  0
   41.8180   32.4640   36.4950 H   0  0  0  0  0  0  0  0  0  0  0  0
   39.3320   32.3200   36.6130 O   0  0  0  0  0  0  0  0  0  0  0  0
   39.8980   32.6990   35.8940 H   0  0  0  0  0  0  0  0  0  0  0  0
  1  2  1  0  0  0  0
  2  6  1  0  0  0  0
  2  3  2  0  0  0  0
  3  7  1  0  0  0  0
  4  8  1  0  0  0  0
  4  9  1  0  0  0  0
  4  3  1  0  0  0  0
  5 10  1  6  0  0  0
  5  1  1  0  0  0  0
  5  4  1  0  0  0  0
 11 16  1  0  0  0  0
 11  1  1  0  0  0  0
 12 11  1  0  0  0  0
 13 11  1  0  0  0  0
 14 19  1  0  0  0  0
 15 14  2  0  0  0  0
 15 16  1  0  0  0  0
 16 17  2  0  0  0  0
 17 18  1  0  0  0  0
 18 22  1  0  0  0  0
 19 18  2  0  0  0  0
 20 14  1  0  0  0  0
 21 15  1  0  0  0  0
 23  5  1  0  0  0  0
 25 24  2  1  0  0  0
 25 23  1  0  0  0  0
 26 25  1  0  0  0  0
 27 26  1  0  0  0  0
 28 25  1  0  0  0  0
 29 36  1  6  0  0  0
 29 30  1  0  0  0  0
 30 28  1  1  0  0  0
 31 30  1  0  0  0  0
 31 32  1  0  0  0  0
 33 34  1  0  0  0  0
 33 31  1  0  0  0  0
 34 29  1  0  0  0  0
 35 34  1  0  0  0  0
 37 36  1  0  0  0  0
M  END
>  <minimizedAffinity>
-5.13754225

$$$$

 OpenBabel03252505003D

 37 39  0  0  1  0  0  0  0  0999 V2000
   37.9140   28.9880   40.4400 N   0  0  0  0  0  0  0  0  0  0  0  0
   37.2920   28.7560   39.1930 C   0  0  0  0  0  0  0  0  0  0  0  0
   35.9670   29.3930   39.3710 C   0  0  0  0  0  0  0  0  0  0  0  0
   35.9180   30.0220   40.7600 C   0  0  0  0  0  0  0  0  0  0  0  0
   37.4110   30.1200   41.1030 C   0  0  2  0  0  0  0  0  0  0  0  0
   37.4680   28.3060   38.2500 H   0  0  0  0  0  0  0  0  0  0  0  0
   35.1250   29.4790   38.6900 H   0  0  0  0  0  0  0  0  0  0  0  0
   35.3700   29.3790   41.4480 H   0  0  0  0  0  0  0  0  0  0  0  0
   35.4800   31.0220   40.6200 H   0  0  0  0  0  0  0  0  0  0  0  0
   37.6300   30.1180   42.1690 H   0  0  0  0  0  0  0  0  0  0  0  0
   38.8780   28.1190   40.8900 C   0  0  0  0  0  0  0  0  0  0  0  0
   39.3330   28.5670   41.8140 H   0  0  0  0  0  0  0  0  0  0  0  0
   39.7680   28.0210   40.2290 H   0  0  0  0  0  0  0  0  0  0  0  0
   37.0200   25.0690   42.1490 C   0  0  0  0  0  0  0  0  0  0  0  0
   37.3860   26.4440   42.0110 C   0  0  0  0  0  0  0  0  0  0  0  0
   38.4260   26.7670   41.1450 C   0  0  0  0  0  0  0  0  0  0  0  0
   39.0250   25.7530   40.4880 N   0  0  0  0  0  0  0  0  0  0  0  0
   38.6650   24.4280   40.6270 C   0  0  0  0  0  0  0  0  0  0  0  0
   37.6720   24.0940   41.4500 N   0  0  0  0  0  0  0  0  0  0  0  0
   36.1970   24.8520   42.8400 H   0  0  0  0  0  0  0  0  0  0  0  0
   36.8850   27.2140   42.5510 H   0  0  0  0  0  0  0  0  0  0  0  0
   39.2280   23.7250   40.0430 H   0  0  0  0  0  0  0  0  0  0  0  0
   37.8890   31.2380   40.4080 O   0  0  0  0  0  0  0  0  0  0  0  0
   39.6690   31.3390   42.3750 O   0  0  0  0  0  0  0  0  0  0  0  0
   39.2380   31.9420   41.0660 P   0  0  2  0  0  0  0  0  0  0  0  0
   38.8470   33.5640   41.4120 O   0  0  0  0  0  0  0  0  0  0  0  0
   38.2470   33.9210   40.7100 H   0  0  0  0  0  0  0  0  0  0  0  0
   40.5200   32.0300   39.9640 O   0  0  0  0  0  0  0  0  0  0  0  0
   40.6880   32.3540   37.5820 C   0  0  1  0  0  3  0  0  0  0  0  0
   40.2670   31.5010   38.7470 C   0  0  1  0  0  3  0  0  0  0  0  0
   40.8240   30.1560   38.4630 C   0  0  0  0  0  3  0  0  0  0  0  0
   41.4040   29.7150   39.2960 H   0  0  0  0  0  0  0  0  0  0  0  0
   41.5920   30.2170   37.3020 O   0  0  0  0  0  0  0  0  0  0  0  0
   41.8450   31.5490   37.0250 C   0  0  0  0  0  3  0  0  0  0  0  0
   42.0300   31.7480   35.9670 H   0  0  0  0  0  0  0  0  0  0  0  0
   39.7040   32.3960   36.5880 O   0  0  0  0  0  0  0  0  0  0  0  0
   40.1030   32.3070   35.6860 H   0  0  0  0  0  0  0  0  0  0  0  0
  1 11  1  0  0  0  0
  1  5  1  0  0  0  0
  2  3  2  0  0  0  0
  2  1  1  0  0  0  0
  3  4  1  0  0  0  0
  4  5  1  0  0  0  0
  4  8  1  0  0  0  0
  5 10  1  1  0  0  0
  6  2  1  0  0  0  0
  7  3  1  0  0  0  0
  9  4  1  0  0  0  0
 11 16  1  0  0  0  0
 11 12  1  0  0  0  0
 13 11  1  0  0  0  0
 14 20  1  0  0  0  0
 15 14  1  0  0  0  0
 15 21  1  0  0  0  0
 16 15  2  0  0  0  0
 17 18  2  0  0  0  0
 17 16  1  0  0  0  0
 18 19  1  0  0  0  0
 19 14  2  0  0  0  0
 22 18  1  0  0  0  0
 23 25  1  0  0  0  0
 23  5  1  0  0  0  0
 25 26  1  0  0  0  0
 25 24  2  1  0  0  0
 27 26  1  0  0  0  0
 28 25  1  0  0  0  0
 29 36  1  6  0  0  0
 29 30  1  0  0  0  0
 30 28  1  1  0  0  0
 31 30  1  0  0  0  0
 31 32  1  0  0  0  0
 33 31  1  0  0  0  0
 34 33  1  0  0  0  0
 34 29  1  0  0  0  0
 35 34  1  0  0  0  0
 37 36  1  0  0  0  0
M  END
>  <minimizedAffinity>
-5.12435722

$$$$

 OpenBabel03252505003D

 37 39  0  0  1  0  0  0  0  0999 V2000
   36.1460   27.4050   38.7390 N   0  0  0  0  0  0  0  0  0  0  0  0
   36.1070   27.7430   37.3680 C   0  0  0  0  0  0  0  0  0  0  0  0
   35.0030   28.7270   37.3100 C   0  0  0  0  0  0  0  0  0  0  0  0
   34.4730   28.9410   38.7250 C   0  0  0  0  0  0  0  0  0  0  0  0
   35.6450   28.4210   39.5700 C   0  0  2  0  0  0  0  0  0  0  0  0
   36.5870   27.5280   36.4470 H   0  0  0  0  0  0  0  0  0  0  0  0
   34.5860   29.2760   36.4710 H   0  0  0  0  0  0  0  0  0  0  0  0
   33.5590   28.3690   38.8780 H   0  0  0  0  0  0  0  0  0  0  0  0
   34.3580   30.0290   38.8400 H   0  0  0  0  0  0  0  0  0  0  0  0
   35.3640   28.0600   40.5570 H   0  0  0  0  0  0  0  0  0  0  0  0
   36.6100   26.1700   39.1210 C   0  0  0  0  0  0  0  0  0  0  0  0
   36.9840   25.6490   38.1980 H   0  0  0  0  0  0  0  0  0  0  0  0
   35.8270   25.4620   39.4730 H   0  0  0  0  0  0  0  0  0  0  0  0
   39.8070   26.6630   41.0890 C   0  0  0  0  0  0  0  0  0  0  0  0
   38.9090   26.6900   39.9770 C   0  0  0  0  0  0  0  0  0  0  0  0
   37.6260   26.1790   40.1520 C   0  0  0  0  0  0  0  0  0  0  0  0
   37.3140   25.6880   41.3690 N   0  0  0  0  0  0  0  0  0  0  0  0
   38.1880   25.6670   42.4370 C   0  0  0  0  0  0  0  0  0  0  0  0
   39.4210   26.1510   42.2940 N   0  0  0  0  0  0  0  0  0  0  0  0
   40.8080   27.0750   40.9140 H   0  0  0  0  0  0  0  0  0  0  0  0
   39.1990   27.0870   39.0320 H   0  0  0  0  0  0  0  0  0  0  0  0
   37.8050   25.2470   43.3470 H   0  0  0  0  0  0  0  0  0  0  0  0
   36.5990   29.4460   39.5700 O   0  0  0  0  0  0  0  0  0  0  0  0
   37.0570   29.0860   42.1600 O   0  0  0  0  0  0  0  0  0  0  0  0
   36.9160   30.1030   41.0590 P   0  0  2  0  0  0  0  0  0  0  0  0
   35.5760   31.0640   41.4870 O   0  0  0  0  0  0  0  0  0  0  0  0
   35.2150   31.5120   40.6820 H   0  0  0  0  0  0  0  0  0  0  0  0
   38.2260   31.1730   41.0240 O   0  0  0  0  0  0  0  0  0  0  0  0
   37.8680   33.4240   40.2400 C   0  0  1  0  0  3  0  0  0  0  0  0
   38.2630   32.0010   39.9570 C   0  0  1  0  0  3  0  0  0  0  0  0
   39.5440   32.0950   39.2160 C   0  0  0  0  0  3  0  0  0  0  0  0
   40.3570   31.4640   39.6240 H   0  0  0  0  0  0  0  0  0  0  0  0
   39.9360   33.4300   39.1520 O   0  0  0  0  0  0  0  0  0  0  0  0
   39.1940   34.1390   40.0800 C   0  0  0  0  0  3  0  0  0  0  0  0
   39.0790   35.1970   39.8310 H   0  0  0  0  0  0  0  0  0  0  0  0
   37.0100   33.9300   39.2560 O   0  0  0  0  0  0  0  0  0  0  0  0
   37.2630   34.8520   39.0030 H   0  0  0  0  0  0  0  0  0  0  0  0
  1 11  1  0  0  0  0
  1  5  1  0  0  0  0
  2  1  1  0  0  0  0
  3  2  2  0  0  0  0
  3  4  1  0  0  0  0
  4  9  1  0  0  0  0
  4  8  1  0  0  0  0
  4  5  1  0  0  0  0
  5 23  1  0  0  0  0
  5 10  1  1  0  0  0
  6  2  1  0  0  0  0
  7  3  1  0  0  0  0
 11 13  1  0  0  0  0
 11 16  1  0  0  0  0
 12 11  1  0  0  0  0
 14 19  1  0  0  0  0
 15 16  1  0  0  0  0
 15 14  2  0  0  0  0
 16 17  2  0  0  0  0
 17 18  1  0  0  0  0
 18 22  1  0  0  0  0
 19 18  2  0  0  0  0
 20 14  1  0  0  0  0
 21 15  1  0  0  0  0
 23 25  1  0  0  0  0
 25 26  1  0  0  0  0
 25 24  2  1  0  0  0
 27 26  1  0  0  0  0
 28 25  1  0  0  0  0
 29 36  1  6  0  0  0
 30 29  1  0  0  0  0
 30 28  1  1  0  0  0
 31 32  1  0  0  0  0
 31 30  1  0  0  0  0
 33 31  1  0  0  0  0
 33 34  1  0  0  0  0
 34 29  1  0  0  0  0
 35 34  1  0  0  0  0
 37 36  1  0  0  0  0
M  END
>  <minimizedAffinity>
-5.12195206

$$$$

 OpenBabel03252505003D

 37 39  0  0  1  0  0  0  0  0999 V2000
   38.6270   25.9250   42.6090 N   0  0  0  0  0  0  0  0  0  0  0  0
   39.3150   24.8060   42.0870 C   0  0  0  0  0  0  0  0  0  0  0  0
   38.2110   23.9440   41.6080 C   0  0  0  0  0  0  0  0  0  0  0  0
   36.8910   24.6700   41.8530 C   0  0  0  0  0  0  0  0  0  0  0  0
   37.3680   26.1200   42.0160 C   0  0  2  0  0  0  0  0  0  0  0  0
   40.2950   24.4280   41.9450 H   0  0  0  0  0  0  0  0  0  0  0  0
   38.2290   22.9690   41.1300 H   0  0  0  0  0  0  0  0  0  0  0  0
   36.4070   24.2850   42.7490 H   0  0  0  0  0  0  0  0  0  0  0  0
   36.3080   24.5500   40.9290 H   0  0  0  0  0  0  0  0  0  0  0  0
   36.7110   26.7470   42.6170 H   0  0  0  0  0  0  0  0  0  0  0  0
   39.1980   26.6640   43.6160 C   0  0  0  0  0  0  0  0  0  0  0  0
   39.9640   26.0150   44.1190 H   0  0  0  0  0  0  0  0  0  0  0  0
   38.5190   26.9060   44.4630 H   0  0  0  0  0  0  0  0  0  0  0  0
   41.5640   29.3810   42.4500 C   0  0  0  0  0  0  0  0  0  0  0  0
   41.1230   28.0870   42.8660 C   0  0  0  0  0  0  0  0  0  0  0  0
   39.7830   27.9240   43.2070 C   0  0  0  0  0  0  0  0  0  0  0  0
   38.9840   29.0090   43.1240 N   0  0  0  0  0  0  0  0  0  0  0  0
   39.4200   30.2550   42.7220 C   0  0  0  0  0  0  0  0  0  0  0  0
   40.6980   30.4350   42.3890 N   0  0  0  0  0  0  0  0  0  0  0  0
   42.6250   29.4710   42.1890 H   0  0  0  0  0  0  0  0  0  0  0  0
   41.7890   27.2570   42.9170 H   0  0  0  0  0  0  0  0  0  0  0  0
   38.6770   31.0270   42.7020 H   0  0  0  0  0  0  0  0  0  0  0  0
   37.6030   26.5920   40.7190 O   0  0  0  0  0  0  0  0  0  0  0  0
   35.8160   28.4400   41.3820 O   0  0  0  0  0  0  0  0  0  0  0  0
   36.7310   27.9370   40.2980 P   0  0  2  0  0  0  0  0  0  0  0  0
   35.7150   27.5000   39.0020 O   0  0  0  0  0  0  0  0  0  0  0  0
   36.1840   26.8600   38.4100 H   0  0  0  0  0  0  0  0  0  0  0  0
   37.7100   29.1730   39.6830 O   0  0  0  0  0  0  0  0  0  0  0  0
   37.5740   31.5480   40.0710 C   0  0  1  0  0  3  0  0  0  0  0  0
   37.0630   30.3180   39.3740 C   0  0  1  0  0  3  0  0  0  0  0  0
   36.9900   30.6880   37.9400 C   0  0  0  0  0  3  0  0  0  0  0  0
   37.4850   29.9740   37.2550 H   0  0  0  0  0  0  0  0  0  0  0  0
   37.5050   31.9720   37.7740 O   0  0  0  0  0  0  0  0  0  0  0  0
   38.2080   32.3030   38.9200 C   0  0  0  0  0  3  0  0  0  0  0  0
   38.2680   33.3790   39.0990 H   0  0  0  0  0  0  0  0  0  0  0  0
   36.5290   32.3430   40.5550 O   0  0  0  0  0  0  0  0  0  0  0  0
   36.6980   33.3020   40.3770 H   0  0  0  0  0  0  0  0  0  0  0  0
  1 11  1  0  0  0  0
  2  1  1  0  0  0  0
  3  4  1  0  0  0  0
  3  2  2  0  0  0  0
  4  5  1  0  0  0  0
  4  8  1  0  0  0  0
  5  1  1  0  0  0  0
  5 10  1  1  0  0  0
  6  2  1  0  0  0  0
  7  3  1  0  0  0  0
  9  4  1  0  0  0  0
 11 12  1  0  0  0  0
 11 13  1  0  0  0  0
 14 15  1  0  0  0  0
 15 21  1  0  0  0  0
 15 16  2  0  0  0  0
 16 11  1  0  0  0  0
 17 16  1  0  0  0  0
 18 17  2  0  0  0  0
 19 14  2  0  0  0  0
 19 18  1  0  0  0  0
 20 14  1  0  0  0  0
 22 18  1  0  0  0  0
 23  5  1  0  0  0  0
 25 23  1  0  0  0  0
 25 24  2  1  0  0  0
 26 25  1  0  0  0  0
 27 26  1  0  0  0  0
 28 25  1  0  0  0  0
 29 36  1  6  0  0  0
 30 28  1  6  0  0  0
 30 29  1  0  0  0  0
 31 30  1  0  0  0  0
 32 31  1  0  0  0  0
 33 31  1  0  0  0  0
 33 34  1  0  0  0  0
 34 35  1  0  0  0  0
 34 29  1  0  0  0  0
 37 36  1  0  0  0  0
M  END
>  <minimizedAffinity>
-5.05403566

$$$$
