
 OpenBabel03252504583D

 37 39  0  0  1  0  0  0  0  0999 V2000
   47.7360   34.0160   41.9210 N   0  0  0  0  0  0  0  0  0  0  0  0
   47.8500   35.2510   41.2430 C   0  0  0  0  0  0  0  0  0  0  0  0
   49.1800   35.7350   41.6770 C   0  0  0  0  0  0  0  0  0  0  0  0
   49.8030   34.6810   42.5870 C   0  0  0  0  0  0  0  0  0  0  0  0
   48.9810   33.4380   42.2200 C   0  0  2  0  0  0  0  0  0  0  0  0
   47.3200   35.8820   40.5760 H   0  0  0  0  0  0  0  0  0  0  0  0
   49.7190   36.6450   41.4280 H   0  0  0  0  0  0  0  0  0  0  0  0
   49.6880   34.9670   43.6320 H   0  0  0  0  0  0  0  0  0  0  0  0
   50.8460   34.5760   42.2520 H   0  0  0  0  0  0  0  0  0  0  0  0
   48.9210   32.6870   43.0060 H   0  0  0  0  0  0  0  0  0  0  0  0
   46.4920   33.5300   42.2420 C   0  0  0  0  0  0  0  0  0  0  0  0
   46.5880   32.4190   42.3770 H   0  0  0  0  0  0  0  0  0  0  0  0
   45.7390   33.5920   41.4260 H   0  0  0  0  0  0  0  0  0  0  0  0
   44.5260   35.7750   44.5740 C   0  0  0  0  0  0  0  0  0  0  0  0
   45.1110   35.3010   43.3580 C   0  0  0  0  0  0  0  0  0  0  0  0
   45.8700   34.1350   43.4010 C   0  0  0  0  0  0  0  0  0  0  0  0
   46.0040   33.5240   44.5970 N   0  0  0  0  0  0  0  0  0  0  0  0
   45.4350   33.9890   45.7650 C   0  0  0  0  0  0  0  0  0  0  0  0
   44.7040   35.1040   45.7490 N   0  0  0  0  0  0  0  0  0  0  0  0
   43.9360   36.6960   44.5020 H   0  0  0  0  0  0  0  0  0  0  0  0
   44.9790   35.8160   42.4350 H   0  0  0  0  0  0  0  0  0  0  0  0
   45.6240   33.4040   46.6440 H   0  0  0  0  0  0  0  0  0  0  0  0
   49.5100   32.9760   41.0080 O   0  0  0  0  0  0  0  0  0  0  0  0
   50.5550   30.9590   42.3830 O   0  0  0  0  0  0  0  0  0  0  0  0
   50.6930   31.8230   41.1590 P   0  0  2  0  0  0  0  0  0  0  0  0
   52.1780   32.6390   41.3330 O   0  0  0  0  0  0  0  0  0  0  0  0
   52.1810   33.4540   40.7710 H   0  0  0  0  0  0  0  0  0  0  0  0
   50.8690   30.8950   39.7550 O   0  0  0  0  0  0  0  0  0  0  0  0
   52.7950   31.1320   38.3250 C   0  0  1  0  0  0  0  0  0  0  0  0
   51.3990   31.5480   38.6970 C   0  0  1  0  0  0  0  0  0  0  0  0
   50.6330   31.5160   37.4280 C   0  0  0  0  0  0  0  0  0  0  0  0
   49.6860   30.9450   37.4780 H   0  0  0  0  0  0  0  0  0  0  0  0
   51.4540   31.0270   36.4140 O   0  0  0  0  0  0  0  0  0  0  0  0
   52.5540   30.4300   37.0030 C   0  0  0  0  0  0  0  0  0  0  0  0
   53.4390   30.4160   36.3620 H   0  0  0  0  0  0  0  0  0  0  0  0
   53.6120   32.2360   38.0580 O   0  0  0  0  0  0  0  0  0  0  0  0
   54.1690   32.0820   37.2540 H   0  0  0  0  0  0  0  0  0  0  0  0
  1  5  1  0  0  0  0
  1 11  1  0  0  0  0
  2  3  2  0  0  0  0
  2  1  1  0  0  0  0
  3  4  1  0  0  0  0
  4  8  1  0  0  0  0
  5  4  1  0  0  0  0
  5 10  1  1  0  0  0
  6  2  1  0  0  0  0
  7  3  1  0  0  0  0
  9  4  1  0  0  0  0
 11 12  1  0  0  0  0
 11 16  1  0  0  0  0
 13 11  1  0  0  0  0
 14 19  1  0  0  0  0
 15 16  1  0  0  0  0
 15 14  2  0  0  0  0
 16 17  2  0  0  0  0
 17 18  1  0  0  0  0
 18 22  1  0  0  0  0
 19 18  2  0  0  0  0
 20 14  1  0  0  0  0
 21 15  1  0  0  0  0
 23 25  1  0  0  0  0
 23  5  1  0  0  0  0
 25 26  1  0  0  0  0
 25 24  2  1  0  0  0
 27 26  1  0  0  0  0
 28 25  1  0  0  0  0
 29 36  1  6  0  0  0
 29 30  1  0  0  0  0
 30 28  1  1  0  0  0
 31 32  1  0  0  0  0
 31 30  1  0  0  0  0
 33 34  1  0  0  0  0
 33 31  1  0  0  0  0
 34 29  1  0  0  0  0
 35 34  1  0  0  0  0
 37 36  1  0  0  0  0
M  END
>  <minimizedAffinity>
-5.59883833

>  <minimizedRMSD>
1.81359768

$$$$
