
 OpenBabel03252504223D

 32 35  0  0  1  0  0  0  0  0999 V2000
   49.3860   32.2440   39.9960 C   0  0  0  0  0  0  0  0  0  0  0  0
   50.5440   31.9220   40.7230 C   0  0  0  0  0  0  0  0  0  0  0  0
   50.6250   32.3260   42.0780 C   0  0  0  0  0  0  0  0  0  0  0  0
   49.5540   33.0090   42.5820 N   0  0  0  0  0  0  0  0  0  0  0  0
   48.4610   33.2990   41.8560 C   0  0  0  0  0  0  0  0  0  0  0  0
   48.3860   32.9140   40.5670 N   0  0  0  0  0  0  0  0  0  0  0  0
   47.3960   34.0120   42.4680 N   0  0  0  0  0  0  0  0  0  0  0  0
   46.7110   35.0460   41.9300 C   0  0  0  0  0  0  0  0  0  0  0  0
   45.7720   35.4490   42.8350 N   0  0  0  0  0  0  0  0  0  0  0  0
   45.8990   34.6600   43.9030 C   0  0  0  0  0  0  0  0  0  0  0  0
   45.2590   34.5630   45.1230 C   0  0  0  0  0  0  0  0  0  0  0  0
   45.5780   33.6670   46.0430 N   0  0  0  0  0  0  0  0  0  0  0  0
   46.5700   32.7780   45.8370 C   0  0  0  0  0  0  0  0  0  0  0  0
   47.2050   32.8520   44.6630 N   0  0  0  0  0  0  0  0  0  0  0  0
   46.9140   33.7450   43.7000 C   0  0  0  0  0  0  0  0  0  0  0  0
   51.3610   31.3900   40.3080 H   0  0  0  0  0  0  0  0  0  0  0  0
   51.5000   32.1010   42.6810 H   0  0  0  0  0  0  0  0  0  0  0  0
   46.8350   35.5160   40.9640 H   0  0  0  0  0  0  0  0  0  0  0  0
   46.8720   32.0300   46.5460 H   0  0  0  0  0  0  0  0  0  0  0  0
   44.1940   35.4430   45.4620 N   0  0  0  0  0  0  0  0  0  0  0  0
   43.4350   35.6660   44.7600 H   0  0  0  0  0  0  0  0  0  0  0  0
   44.1680   35.8600   46.3970 H   0  0  0  0  0  0  0  0  0  0  0  0
   49.4040   31.6750   38.3000 S   0  0  0  0  0  0  0  0  0  0  0  0
   47.3650   33.0960   37.0580 C   0  0  1  0  0  0  0  0  0  0  0  0
   47.7580   31.7210   37.6010 C   0  0  1  0  0  0  0  0  0  0  0  0
   47.6540   30.9320   36.3070 C   0  0  0  0  0  0  0  0  0  0  0  0
   48.5800   31.0670   35.6730 H   0  0  0  0  0  0  0  0  0  0  0  0
   46.6040   31.4740   35.5780 O   0  0  0  0  0  0  0  0  0  0  0  0
   46.1700   32.6280   36.2160 C   0  0  0  0  0  0  0  0  0  0  0  0
   45.3980   32.3060   36.9640 H   0  0  0  0  0  0  0  0  0  0  0  0
   46.9590   33.9580   38.0590 O   0  0  0  0  0  0  0  0  0  0  0  0
   46.9400   33.4270   38.9120 H   0  0  0  0  0  0  0  0  0  0  0  0
  1  6  2  0  0  0  0
  1  2  1  0  0  0  0
  2  3  2  0  0  0  0
  3  4  1  0  0  0  0
  3 17  1  0  0  0  0
  5  7  1  0  0  0  0
  5  4  2  0  0  0  0
  6  5  1  0  0  0  0
  7 15  1  0  0  0  0
  8  7  1  0  0  0  0
  8  9  2  0  0  0  0
  9 10  1  0  0  0  0
 10 11  1  0  0  0  0
 11 20  1  0  0  0  0
 11 12  2  0  0  0  0
 13 12  1  0  0  0  0
 13 19  1  0  0  0  0
 14 13  2  0  0  0  0
 15 10  2  0  0  0  0
 15 14  1  0  0  0  0
 16  2  1  0  0  0  0
 18  8  1  0  0  0  0
 20 22  1  0  0  0  0
 21 20  1  0  0  0  0
 23  1  1  0  0  0  0
 24 25  1  0  0  0  0
 24 31  1  1  0  0  0
 25 23  1  6  0  0  0
 26 25  1  0  0  0  0
 27 26  1  0  0  0  0
 28 29  1  0  0  0  0
 28 26  1  0  0  0  0
 29 30  1  0  0  0  0
 29 24  1  0  0  0  0
 31 32  1  0  0  0  0
M  END
>  <minimizedAffinity>
-5.89840794

>  <minimizedRMSD>
2.53467822

$$$$
