
 OpenBabel03252501043D

 31 33  0  0  1  0  0  0  0  0999 V2000
   36.5350   28.9840   39.8990 C   0  0  1  0  0  0  0  0  0  0  0  0
   35.1170   29.3510   40.1470 C   0  0  0  0  0  0  0  0  0  0  0  0
   36.1410   30.3960   39.7270 C   0  0  1  0  0  0  0  0  0  0  0  0
   36.8590   28.4110   38.9950 H   0  0  0  0  0  0  0  0  0  0  0  0
   34.3670   28.9840   39.4150 H   0  0  0  0  0  0  0  0  0  0  0  0
   34.7050   29.5320   41.1390 H   0  0  0  0  0  0  0  0  0  0  0  0
   35.8870   30.7950   38.7230 H   0  0  0  0  0  0  0  0  0  0  0  0
   37.4790   27.8920   43.3750 C   0  0  0  0  0  0  0  0  0  0  0  0
   36.6780   28.1860   42.2620 C   0  0  0  0  0  0  0  0  0  0  0  0
   37.3250   28.6440   41.1180 C   0  0  0  0  0  0  0  0  0  0  0  0
   38.6780   28.7900   41.1080 N   0  0  0  0  0  0  0  0  0  0  0  0
   39.4280   28.4990   42.1960 C   0  0  0  0  0  0  0  0  0  0  0  0
   38.8220   28.0490   43.3310 N   0  0  0  0  0  0  0  0  0  0  0  0
   37.0030   27.5350   44.2770 H   0  0  0  0  0  0  0  0  0  0  0  0
   35.6330   28.0400   42.3580 H   0  0  0  0  0  0  0  0  0  0  0  0
   40.4860   28.5880   42.2600 H   0  0  0  0  0  0  0  0  0  0  0  0
   36.6630   31.2960   40.5690 O   0  0  0  0  0  0  0  0  0  0  0  0
   38.5720   33.0670   41.0760 O   0  0  0  0  0  0  0  0  0  0  0  0
   37.7120   32.4200   40.0120 P   0  0  2  0  0  0  0  0  0  0  0  0
   36.9710   33.6980   39.1850 O   0  0  0  0  0  0  0  0  0  0  0  0
   36.7400   33.3910   38.2950 H   0  0  0  0  0  0  0  0  0  0  0  0
   38.7800   31.7220   38.9210 O   0  0  0  0  0  0  0  0  0  0  0  0
   40.6030   32.2980   37.6040 C   0  0  1  0  0  3  0  0  0  0  0  0
   40.0760   32.2070   39.0250 C   0  0  2  0  0  3  0  0  0  0  0  0
   41.0110   31.1530   39.6300 C   0  0  0  0  0  3  0  0  0  0  0  0
   41.5440   31.5620   40.5250 H   0  0  0  0  0  0  0  0  0  0  0  0
   41.9900   30.8930   38.6730 O   0  0  0  0  0  0  0  0  0  0  0  0
   41.2430   30.9090   37.4880 C   0  0  0  0  0  3  0  0  0  0  0  0
   41.8670   30.8110   36.5790 H   0  0  0  0  0  0  0  0  0  0  0  0
   39.6030   32.3890   36.6600 O   0  0  0  0  0  0  0  0  0  0  0  0
   38.9870   33.1330   36.9290 H   0  0  0  0  0  0  0  0  0  0  0  0
  1  4  1  6  0  0  0
  1  2  1  0  0  0  0
  1 10  1  0  0  0  0
  2  6  1  0  0  0  0
  3  7  1  6  0  0  0
  3  1  1  0  0  0  0
  3  2  1  0  0  0  0
  3 17  1  0  0  0  0
  5  2  1  0  0  0  0
  8 14  1  0  0  0  0
  9 15  1  0  0  0  0
  9  8  2  0  0  0  0
 10  9  1  0  0  0  0
 11 10  2  0  0  0  0
 11 12  1  0  0  0  0
 12 16  1  0  0  0  0
 12 13  2  0  0  0  0
 13  8  1  0  0  0  0
 19 17  1  0  0  0  0
 19 18  2  1  0  0  0
 20 19  1  0  0  0  0
 21 20  1  0  0  0  0
 22 19  1  0  0  0  0
 23 30  1  6  0  0  0
 23 24  1  0  0  0  0
 24 22  1  6  0  0  0
 24 25  1  0  0  0  0
 25 26  1  0  0  0  0
 27 25  1  0  0  0  0
 28 23  1  0  0  0  0
 28 27  1  0  0  0  0
 29 28  1  0  0  0  0
 30 31  1  0  0  0  0
M  END
>  <minimizedAffinity>
-5.19728899

$$$$

 OpenBabel03252501043D

 31 33  0  0  1  0  0  0  0  0999 V2000
   37.2890   31.6210   37.9930 C   0  0  1  0  0  0  0  0  0  0  0  0
   37.8010   30.4990   37.1640 C   0  0  0  0  0  0  0  0  0  0  0  0
   36.8670   30.2490   38.3400 C   0  0  1  0  0  0  0  0  0  0  0  0
   36.5120   32.3350   37.6230 H   0  0  0  0  0  0  0  0  0  0  0  0
   37.4160   30.4240   36.1250 H   0  0  0  0  0  0  0  0  0  0  0  0
   38.7840   30.0490   37.2970 H   0  0  0  0  0  0  0  0  0  0  0  0
   35.8990   29.8450   37.9780 H   0  0  0  0  0  0  0  0  0  0  0  0
   40.5530   32.7210   39.5090 C   0  0  0  0  0  0  0  0  0  0  0  0
   39.6570   32.0940   38.6310 C   0  0  0  0  0  0  0  0  0  0  0  0
   38.2990   32.2650   38.8810 C   0  0  0  0  0  0  0  0  0  0  0  0
   37.8860   33.0140   39.9400 N   0  0  0  0  0  0  0  0  0  0  0  0
   38.7720   33.6090   40.7730 C   0  0  0  0  0  0  0  0  0  0  0  0
   40.1080   33.4580   40.5530 N   0  0  0  0  0  0  0  0  0  0  0  0
   41.6140   32.6040   39.3390 H   0  0  0  0  0  0  0  0  0  0  0  0
   40.0660   31.5330   37.8320 H   0  0  0  0  0  0  0  0  0  0  0  0
   38.5220   34.2070   41.6170 H   0  0  0  0  0  0  0  0  0  0  0  0
   37.2770   29.7490   39.5130 O   0  0  0  0  0  0  0  0  0  0  0  0
   34.9470   28.8660   40.4260 O   0  0  0  0  0  0  0  0  0  0  0  0
   36.2210   29.6160   40.7540 P   0  0  2  0  0  0  0  0  0  0  0  0
   35.7220   31.1030   41.3910 O   0  0  0  0  0  0  0  0  0  0  0  0
   36.4310   31.4450   41.9570 H   0  0  0  0  0  0  0  0  0  0  0  0
   36.9280   28.7830   42.0280 O   0  0  0  0  0  0  0  0  0  0  0  0
   38.2070   26.8630   42.2820 C   0  0  1  0  0  3  0  0  0  0  0  0
   38.1850   28.2770   41.7300 C   0  0  2  0  0  3  0  0  0  0  0  0
   39.2670   28.9530   42.5800 C   0  0  0  0  0  3  0  0  0  0  0  0
   40.0690   29.3860   41.9330 H   0  0  0  0  0  0  0  0  0  0  0  0
   39.8690   27.9460   43.3320 O   0  0  0  0  0  0  0  0  0  0  0  0
   38.7700   27.1510   43.6790 C   0  0  0  0  0  3  0  0  0  0  0  0
   39.0540   26.2250   44.2150 H   0  0  0  0  0  0  0  0  0  0  0  0
   36.9490   26.3180   42.4300 O   0  0  0  0  0  0  0  0  0  0  0  0
   36.4600   26.4240   41.5620 H   0  0  0  0  0  0  0  0  0  0  0  0
  1  4  1  6  0  0  0
  1  3  1  0  0  0  0
  1 10  1  0  0  0  0
  2  6  1  0  0  0  0
  2  1  1  0  0  0  0
  2  3  1  0  0  0  0
  3  7  1  6  0  0  0
  3 17  1  0  0  0  0
  5  2  1  0  0  0  0
  8 13  1  0  0  0  0
  9 10  1  0  0  0  0
  9  8  2  0  0  0  0
 10 11  2  0  0  0  0
 11 12  1  0  0  0  0
 12 16  1  0  0  0  0
 13 12  2  0  0  0  0
 14  8  1  0  0  0  0
 15  9  1  0  0  0  0
 17 19  1  0  0  0  0
 19 18  2  6  0  0  0
 19 20  1  0  0  0  0
 19 22  1  0  0  0  0
 20 21  1  0  0  0  0
 23 30  1  1  0  0  0
 23 28  1  0  0  0  0
 24 22  1  1  0  0  0
 24 23  1  0  0  0  0
 24 25  1  0  0  0  0
 25 27  1  0  0  0  0
 26 25  1  0  0  0  0
 27 28  1  0  0  0  0
 28 29  1  0  0  0  0
 31 30  1  0  0  0  0
M  END
>  <minimizedAffinity>
-5.12066841

$$$$

 OpenBabel03252501043D

 31 33  0  0  1  0  0  0  0  0999 V2000
   39.1970   25.3540   43.3190 C   0  0  1  0  0  0  0  0  0  0  0  0
   40.6050   25.7820   43.1170 C   0  0  0  0  0  0  0  0  0  0  0  0
   39.4870   26.8010   43.2840 C   0  0  1  0  0  0  0  0  0  0  0  0
   38.8350   24.9100   44.2790 H   0  0  0  0  0  0  0  0  0  0  0  0
   41.3130   25.5930   43.9510 H   0  0  0  0  0  0  0  0  0  0  0  0
   41.0860   25.8340   42.1410 H   0  0  0  0  0  0  0  0  0  0  0  0
   39.6310   27.3730   44.2250 H   0  0  0  0  0  0  0  0  0  0  0  0
   36.5940   24.0390   40.9380 C   0  0  0  0  0  0  0  0  0  0  0  0
   37.1520   24.6030   42.0950 C   0  0  0  0  0  0  0  0  0  0  0  0
   38.5340   24.7670   42.1180 C   0  0  0  0  0  0  0  0  0  0  0  0
   39.2870   24.3870   41.0500 N   0  0  0  0  0  0  0  0  0  0  0  0
   38.7240   23.8450   39.9460 C   0  0  0  0  0  0  0  0  0  0  0  0
   37.3730   23.6720   39.8950 N   0  0  0  0  0  0  0  0  0  0  0  0
   35.5240   23.8990   40.8940 H   0  0  0  0  0  0  0  0  0  0  0  0
   36.4910   24.8720   42.8770 H   0  0  0  0  0  0  0  0  0  0  0  0
   39.2480   23.5260   39.0760 H   0  0  0  0  0  0  0  0  0  0  0  0
   38.9820   27.5150   42.2700 O   0  0  0  0  0  0  0  0  0  0  0  0
   39.2940   30.0230   43.0750 O   0  0  0  0  0  0  0  0  0  0  0  0
   38.3230   28.9840   42.5560 P   0  0  2  0  0  0  0  0  0  0  0  0
   37.0480   28.9570   43.6690 O   0  0  0  0  0  0  0  0  0  0  0  0
   36.2560   28.6280   43.2160 H   0  0  0  0  0  0  0  0  0  0  0  0
   37.6860   29.6170   41.1390 O   0  0  0  0  0  0  0  0  0  0  0  0
   37.0370   31.7370   40.4520 C   0  0  1  0  0  3  0  0  0  0  0  0
   38.2210   30.8490   40.7910 C   0  0  2  0  0  3  0  0  0  0  0  0
   38.9440   30.7750   39.4420 C   0  0  0  0  0  3  0  0  0  0  0  0
   39.9970   31.1410   39.5330 H   0  0  0  0  0  0  0  0  0  0  0  0
   38.2910   31.6650   38.5910 O   0  0  0  0  0  0  0  0  0  0  0  0
   36.9500   31.4680   38.9450 C   0  0  0  0  0  3  0  0  0  0  0  0
   36.2580   32.1650   38.4340 H   0  0  0  0  0  0  0  0  0  0  0  0
   35.8600   31.3170   41.0320 O   0  0  0  0  0  0  0  0  0  0  0  0
   36.0230   31.1900   42.0120 H   0  0  0  0  0  0  0  0  0  0  0  0
  1  4  1  1  0  0  0
  2  3  1  0  0  0  0
  2  1  1  0  0  0  0
  2  5  1  0  0  0  0
  3  1  1  0  0  0  0
  3  7  1  1  0  0  0
  6  2  1  0  0  0  0
  8  9  1  0  0  0  0
  9 10  2  0  0  0  0
  9 15  1  0  0  0  0
 10  1  1  0  0  0  0
 11 10  1  0  0  0  0
 12 11  2  0  0  0  0
 13 12  1  0  0  0  0
 13  8  2  0  0  0  0
 14  8  1  0  0  0  0
 16 12  1  0  0  0  0
 17 19  1  0  0  0  0
 17  3  1  0  0  0  0
 19 18  2  1  0  0  0
 19 20  1  0  0  0  0
 21 20  1  0  0  0  0
 22 19  1  0  0  0  0
 23 24  1  0  0  0  0
 23 30  1  1  0  0  0
 24 22  1  6  0  0  0
 25 26  1  0  0  0  0
 25 24  1  0  0  0  0
 27 28  1  0  0  0  0
 27 25  1  0  0  0  0
 28 23  1  0  0  0  0
 29 28  1  0  0  0  0
 30 31  1  0  0  0  0
M  END
>  <minimizedAffinity>
-5.10082102

$$$$

 OpenBabel03252501043D

 31 33  0  0  1  0  0  0  0  0999 V2000
   37.4760   27.0340   38.9100 C   0  0  1  0  0  0  0  0  0  0  0  0
   36.1630   27.1400   38.2220 C   0  0  0  0  0  0  0  0  0  0  0  0
   36.6940   28.2730   39.0880 C   0  0  1  0  0  0  0  0  0  0  0  0
   38.4480   27.0950   38.3620 H   0  0  0  0  0  0  0  0  0  0  0  0
   36.1810   27.2330   37.1160 H   0  0  0  0  0  0  0  0  0  0  0  0
   35.2420   26.7050   38.6070 H   0  0  0  0  0  0  0  0  0  0  0  0
   36.8990   29.1670   38.4630 H   0  0  0  0  0  0  0  0  0  0  0  0
   36.6920   24.1800   41.2360 C   0  0  0  0  0  0  0  0  0  0  0  0
   36.6070   25.0300   40.1240 C   0  0  0  0  0  0  0  0  0  0  0  0
   37.5130   26.0850   40.0610 C   0  0  0  0  0  0  0  0  0  0  0  0
   38.4320   26.2590   41.0490 N   0  0  0  0  0  0  0  0  0  0  0  0
   38.4930   25.4240   42.1120 C   0  0  0  0  0  0  0  0  0  0  0  0
   37.6180   24.3830   42.2010 N   0  0  0  0  0  0  0  0  0  0  0  0
   36.0000   23.3530   41.3110 H   0  0  0  0  0  0  0  0  0  0  0  0
   35.8630   24.8180   39.4010 H   0  0  0  0  0  0  0  0  0  0  0  0
   39.1820   25.4990   42.9190 H   0  0  0  0  0  0  0  0  0  0  0  0
   36.2270   28.5460   40.3130 O   0  0  0  0  0  0  0  0  0  0  0  0
   37.4800   29.5510   42.4240 O   0  0  0  0  0  0  0  0  0  0  0  0
   36.7750   29.8580   41.1200 P   0  0  2  0  0  0  0  0  0  0  0  0
   35.5660   30.9770   41.5090 O   0  0  0  0  0  0  0  0  0  0  0  0
   35.3540   31.4860   40.7120 H   0  0  0  0  0  0  0  0  0  0  0  0
   37.8890   30.6910   40.1810 O   0  0  0  0  0  0  0  0  0  0  0  0
   38.5440   32.8460   40.7410 C   0  0  1  0  0  3  0  0  0  0  0  0
   38.8450   31.3690   40.9230 C   0  0  2  0  0  3  0  0  0  0  0  0
   40.2280   31.2570   40.2720 C   0  0  0  0  0  3  0  0  0  0  0  0
   40.9780   30.8540   40.9990 H   0  0  0  0  0  0  0  0  0  0  0  0
   40.6330   32.5560   39.9700 O   0  0  0  0  0  0  0  0  0  0  0  0
   39.4350   33.1330   39.5270 C   0  0  0  0  0  3  0  0  0  0  0  0
   39.5250   34.2160   39.3190 H   0  0  0  0  0  0  0  0  0  0  0  0
   37.2360   33.0930   40.3810 O   0  0  0  0  0  0  0  0  0  0  0  0
   36.6390   32.6180   41.0310 H   0  0  0  0  0  0  0  0  0  0  0  0
  1  4  1  6  0  0  0
  1  3  1  0  0  0  0
  1 10  1  0  0  0  0
  2  6  1  0  0  0  0
  2  1  1  0  0  0  0
  2  3  1  0  0  0  0
  3  7  1  6  0  0  0
  3 17  1  0  0  0  0
  5  2  1  0  0  0  0
  8 14  1  0  0  0  0
  8 13  1  0  0  0  0
  9  8  2  0  0  0  0
 10  9  1  0  0  0  0
 10 11  2  0  0  0  0
 11 12  1  0  0  0  0
 12 13  2  0  0  0  0
 12 16  1  0  0  0  0
 15  9  1  0  0  0  0
 17 19  1  0  0  0  0
 19 20  1  0  0  0  0
 19 18  2  1  0  0  0
 21 20  1  0  0  0  0
 22 19  1  0  0  0  0
 23 30  1  6  0  0  0
 23 24  1  0  0  0  0
 24 22  1  6  0  0  0
 25 24  1  0  0  0  0
 25 26  1  0  0  0  0
 27 25  1  0  0  0  0
 28 27  1  0  0  0  0
 28 23  1  0  0  0  0
 29 28  1  0  0  0  0
 30 31  1  0  0  0  0
M  END
>  <minimizedAffinity>
-5.0262208

$$$$

 OpenBabel03252501043D

 31 33  0  0  1  0  0  0  0  0999 V2000
   39.2380   30.2290   42.8530 C   0  0  1  0  0  0  0  0  0  0  0  0
   40.4900   30.3490   42.0600 C   0  0  0  0  0  0  0  0  0  0  0  0
   39.2050   31.0320   41.6140 C   0  0  1  0  0  0  0  0  0  0  0  0
   39.0920   30.7560   43.8280 H   0  0  0  0  0  0  0  0  0  0  0  0
   41.3110   30.9490   42.5050 H   0  0  0  0  0  0  0  0  0  0  0  0
   40.8350   29.5910   41.3590 H   0  0  0  0  0  0  0  0  0  0  0  0
   39.3280   32.1340   41.6500 H   0  0  0  0  0  0  0  0  0  0  0  0
   38.6680   26.5250   42.5060 C   0  0  0  0  0  0  0  0  0  0  0  0
   39.3440   27.7530   42.5380 C   0  0  0  0  0  0  0  0  0  0  0  0
   38.5860   28.8880   42.8100 C   0  0  0  0  0  0  0  0  0  0  0  0
   37.2470   28.7820   43.0300 N   0  0  0  0  0  0  0  0  0  0  0  0
   36.6180   27.5850   42.9930 C   0  0  0  0  0  0  0  0  0  0  0  0
   37.3350   26.4560   42.7290 N   0  0  0  0  0  0  0  0  0  0  0  0
   39.2310   25.6280   42.2960 H   0  0  0  0  0  0  0  0  0  0  0  0
   40.3880   27.7430   42.3580 H   0  0  0  0  0  0  0  0  0  0  0  0
   35.5790   27.4260   43.1550 H   0  0  0  0  0  0  0  0  0  0  0  0
   38.4470   30.5880   40.6040 O   0  0  0  0  0  0  0  0  0  0  0  0
   37.1780   32.8730   40.1490 O   0  0  0  0  0  0  0  0  0  0  0  0
   37.0600   31.3660   40.2240 P   0  0  2  0  0  0  0  0  0  0  0  0
   35.7880   31.0620   41.2990 O   0  0  0  0  0  0  0  0  0  0  0  0
   35.4190   30.1890   41.0960 H   0  0  0  0  0  0  0  0  0  0  0  0
   36.5150   30.8730   38.7140 O   0  0  0  0  0  0  0  0  0  0  0  0
   37.1320   29.4490   36.9880 C   0  0  1  0  0  3  0  0  0  0  0  0
   36.7430   29.5290   38.4540 C   0  0  2  0  0  3  0  0  0  0  0  0
   35.4320   28.7360   38.4660 C   0  0  0  0  0  3  0  0  0  0  0  0
   35.4930   27.8770   39.1790 H   0  0  0  0  0  0  0  0  0  0  0  0
   35.2900   28.1820   37.1950 O   0  0  0  0  0  0  0  0  0  0  0  0
   35.7440   29.2250   36.3760 C   0  0  0  0  0  3  0  0  0  0  0  0
   35.7980   28.9450   35.3060 H   0  0  0  0  0  0  0  0  0  0  0  0
   37.6320   30.6340   36.4940 O   0  0  0  0  0  0  0  0  0  0  0  0
   38.3620   30.9450   37.1060 H   0  0  0  0  0  0  0  0  0  0  0  0
  1  4  1  1  0  0  0
  2  5  1  0  0  0  0
  2  1  1  0  0  0  0
  3  7  1  1  0  0  0
  3  2  1  0  0  0  0
  3  1  1  0  0  0  0
  6  2  1  0  0  0  0
  8  9  2  0  0  0  0
  8 13  1  0  0  0  0
  9 10  1  0  0  0  0
 10  1  1  0  0  0  0
 10 11  2  0  0  0  0
 12 11  1  0  0  0  0
 12 16  1  0  0  0  0
 13 12  2  0  0  0  0
 14  8  1  0  0  0  0
 15  9  1  0  0  0  0
 17  3  1  0  0  0  0
 19 18  2  6  0  0  0
 19 17  1  0  0  0  0
 19 20  1  0  0  0  0
 21 20  1  0  0  0  0
 22 19  1  0  0  0  0
 23 30  1  6  0  0  0
 23 24  1  0  0  0  0
 24 25  1  0  0  0  0
 24 22  1  6  0  0  0
 25 26  1  0  0  0  0
 27 25  1  0  0  0  0
 28 23  1  0  0  0  0
 28 27  1  0  0  0  0
 29 28  1  0  0  0  0
 30 31  1  0  0  0  0
M  END
>  <minimizedAffinity>
-5.01075888

$$$$

 OpenBabel03252501043D

 31 33  0  0  1  0  0  0  0  0999 V2000
   39.7530   32.7020   40.6530 C   0  0  1  0  0  0  0  0  0  0  0  0
   38.9980   33.9430   40.3420 C   0  0  0  0  0  0  0  0  0  0  0  0
   38.2780   32.6480   40.6880 C   0  0  1  0  0  0  0  0  0  0  0  0
   40.3110   32.5620   41.6120 H   0  0  0  0  0  0  0  0  0  0  0  0
   39.0510   34.7650   41.0870 H   0  0  0  0  0  0  0  0  0  0  0  0
   38.7920   34.2880   39.3290 H   0  0  0  0  0  0  0  0  0  0  0  0
   37.7300   32.7610   41.6460 H   0  0  0  0  0  0  0  0  0  0  0  0
   41.4840   30.1990   38.4370 C   0  0  0  0  0  0  0  0  0  0  0  0
   40.8510   30.7380   39.5670 C   0  0  0  0  0  0  0  0  0  0  0  0
   40.4270   32.0610   39.4860 C   0  0  0  0  0  0  0  0  0  0  0  0
   40.6300   32.7770   38.3470 N   0  0  0  0  0  0  0  0  0  0  0  0
   41.2430   32.2340   37.2700 C   0  0  0  0  0  0  0  0  0  0  0  0
   41.6700   30.9400   37.3210 N   0  0  0  0  0  0  0  0  0  0  0  0
   41.8240   29.1740   38.4730 H   0  0  0  0  0  0  0  0  0  0  0  0
   40.7320   30.1080   40.4100 H   0  0  0  0  0  0  0  0  0  0  0  0
   41.4340   32.7320   36.3500 H   0  0  0  0  0  0  0  0  0  0  0  0
   37.6600   31.8820   39.7800 O   0  0  0  0  0  0  0  0  0  0  0  0
   35.9950   29.9140   39.1570 O   0  0  0  0  0  0  0  0  0  0  0  0
   36.7360   30.6250   40.2680 P   0  0  2  0  0  0  0  0  0  0  0  0
   35.5550   31.0450   41.4070 O   0  0  0  0  0  0  0  0  0  0  0  0
   35.9850   31.1370   42.2710 H   0  0  0  0  0  0  0  0  0  0  0  0
   37.6910   29.4570   41.0030 O   0  0  0  0  0  0  0  0  0  0  0  0
   37.8630   28.8860   43.2470 C   0  0  1  0  0  3  0  0  0  0  0  0
   37.0290   28.7360   41.9870 C   0  0  2  0  0  3  0  0  0  0  0  0
   37.1320   27.2290   41.7290 C   0  0  0  0  0  3  0  0  0  0  0  0
   36.1170   26.7600   41.7010 H   0  0  0  0  0  0  0  0  0  0  0  0
   37.7880   26.6810   42.8300 O   0  0  0  0  0  0  0  0  0  0  0  0
   38.7620   27.6530   43.0960 C   0  0  0  0  0  3  0  0  0  0  0  0
   39.3450   27.4450   44.0140 H   0  0  0  0  0  0  0  0  0  0  0  0
   38.6670   30.0060   43.2360 O   0  0  0  0  0  0  0  0  0  0  0  0
   38.0940   30.7980   43.0140 H   0  0  0  0  0  0  0  0  0  0  0  0
  1  3  1  0  0  0  0
  1  4  1  1  0  0  0
  2  1  1  0  0  0  0
  2  3  1  0  0  0  0
  2  5  1  0  0  0  0
  3  7  1  1  0  0  0
  6  2  1  0  0  0  0
  8 14  1  0  0  0  0
  8  9  1  0  0  0  0
  9 15  1  0  0  0  0
 10  9  2  0  0  0  0
 10  1  1  0  0  0  0
 11 10  1  0  0  0  0
 12 13  1  0  0  0  0
 12 11  2  0  0  0  0
 13  8  2  0  0  0  0
 16 12  1  0  0  0  0
 17 19  1  0  0  0  0
 17  3  1  0  0  0  0
 19 18  2  6  0  0  0
 19 22  1  0  0  0  0
 19 20  1  0  0  0  0
 20 21  1  0  0  0  0
 23 30  1  6  0  0  0
 24 22  1  6  0  0  0
 24 23  1  0  0  0  0
 25 24  1  0  0  0  0
 25 27  1  0  0  0  0
 26 25  1  0  0  0  0
 27 28  1  0  0  0  0
 28 23  1  0  0  0  0
 28 29  1  0  0  0  0
 31 30  1  0  0  0  0
M  END
>  <minimizedAffinity>
-4.99259233

$$$$

 OpenBabel03252501043D

 31 33  0  0  1  0  0  0  0  0999 V2000
   38.0710   29.8470   37.3190 C   0  0  1  0  0  0  0  0  0  0  0  0
   38.0150   31.3310   37.3540 C   0  0  0  0  0  0  0  0  0  0  0  0
   37.5620   30.4970   38.5430 C   0  0  1  0  0  0  0  0  0  0  0  0
   39.0330   29.2800   37.3820 H   0  0  0  0  0  0  0  0  0  0  0  0
   38.9840   31.8710   37.3920 H   0  0  0  0  0  0  0  0  0  0  0  0
   37.2090   31.9160   36.9120 H   0  0  0  0  0  0  0  0  0  0  0  0
   38.2310   30.6750   39.4100 H   0  0  0  0  0  0  0  0  0  0  0  0
   35.5180   29.2530   34.6180 C   0  0  0  0  0  0  0  0  0  0  0  0
   36.4580   29.9250   35.4130 C   0  0  0  0  0  0  0  0  0  0  0  0
   37.0670   29.1950   36.4300 C   0  0  0  0  0  0  0  0  0  0  0  0
   36.7440   27.8870   36.6220 N   0  0  0  0  0  0  0  0  0  0  0  0
   35.8330   27.2620   35.8410 C   0  0  0  0  0  0  0  0  0  0  0  0
   35.2200   27.9520   34.8380 N   0  0  0  0  0  0  0  0  0  0  0  0
   35.0300   29.7960   33.8220 H   0  0  0  0  0  0  0  0  0  0  0  0
   36.6500   30.9420   35.1910 H   0  0  0  0  0  0  0  0  0  0  0  0
   35.5330   26.2450   35.9330 H   0  0  0  0  0  0  0  0  0  0  0  0
   36.2760   30.3050   38.8620 O   0  0  0  0  0  0  0  0  0  0  0  0
   34.6400   28.9500   40.4510 O   0  0  0  0  0  0  0  0  0  0  0  0
   35.8750   29.8210   40.3720 P   0  0  2  0  0  0  0  0  0  0  0  0
   35.6020   31.0980   41.4500 O   0  0  0  0  0  0  0  0  0  0  0  0
   36.4610   31.4490   41.7300 H   0  0  0  0  0  0  0  0  0  0  0  0
   37.1200   28.9140   41.0380 O   0  0  0  0  0  0  0  0  0  0  0  0
   37.0080   27.9580   43.1500 C   0  0  1  0  0  3  0  0  0  0  0  0
   36.6870   27.7620   41.6790 C   0  0  2  0  0  3  0  0  0  0  0  0
   37.5800   26.5670   41.3280 C   0  0  0  0  0  3  0  0  0  0  0  0
   36.9700   25.7190   40.9260 H   0  0  0  0  0  0  0  0  0  0  0  0
   38.1340   26.1190   42.5250 O   0  0  0  0  0  0  0  0  0  0  0  0
   38.4040   27.3250   43.1850 C   0  0  0  0  0  3  0  0  0  0  0  0
   38.7740   27.1830   44.2180 H   0  0  0  0  0  0  0  0  0  0  0  0
   37.1290   29.2840   43.5070 O   0  0  0  0  0  0  0  0  0  0  0  0
   36.3120   29.7690   43.1870 H   0  0  0  0  0  0  0  0  0  0  0  0
  1  2  1  0  0  0  0
  1  4  1  1  0  0  0
  1  3  1  0  0  0  0
  2  5  1  0  0  0  0
  2  3  1  0  0  0  0
  3 17  1  0  0  0  0
  3  7  1  1  0  0  0
  6  2  1  0  0  0  0
  8 13  2  0  0  0  0
  8  9  1  0  0  0  0
  9 10  2  0  0  0  0
 10 11  1  0  0  0  0
 10  1  1  0  0  0  0
 12 16  1  0  0  0  0
 12 11  2  0  0  0  0
 13 12  1  0  0  0  0
 14  8  1  0  0  0  0
 15  9  1  0  0  0  0
 17 19  1  0  0  0  0
 19 18  2  6  0  0  0
 19 22  1  0  0  0  0
 19 20  1  0  0  0  0
 20 21  1  0  0  0  0
 23 28  1  0  0  0  0
 23 30  1  6  0  0  0
 24 22  1  6  0  0  0
 24 23  1  0  0  0  0
 25 24  1  0  0  0  0
 25 27  1  0  0  0  0
 26 25  1  0  0  0  0
 27 28  1  0  0  0  0
 28 29  1  0  0  0  0
 31 30  1  0  0  0  0
M  END
>  <minimizedAffinity>
-4.95869446

$$$$

 OpenBabel03252501043D

 31 33  0  0  1  0  0  0  0  0999 V2000
   37.4920   28.7150   43.1040 C   0  0  1  0  0  0  0  0  0  0  0  0
   38.3620   27.6000   43.5610 C   0  0  0  0  0  0  0  0  0  0  0  0
   38.9480   28.9490   43.1710 C   0  0  1  0  0  0  0  0  0  0  0  0
   36.8320   29.2870   43.8010 H   0  0  0  0  0  0  0  0  0  0  0  0
   38.2930   27.3140   44.6310 H   0  0  0  0  0  0  0  0  0  0  0  0
   38.6940   26.7880   42.9140 H   0  0  0  0  0  0  0  0  0  0  0  0
   39.4030   29.4380   44.0570 H   0  0  0  0  0  0  0  0  0  0  0  0
   35.5940   29.3220   39.9100 C   0  0  0  0  0  0  0  0  0  0  0  0
   36.1310   29.5560   41.1850 C   0  0  0  0  0  0  0  0  0  0  0  0
   36.8960   28.5380   41.7480 C   0  0  0  0  0  0  0  0  0  0  0  0
   37.0980   27.3770   41.0680 N   0  0  0  0  0  0  0  0  0  0  0  0
   36.5680   27.1760   39.8390 C   0  0  0  0  0  0  0  0  0  0  0  0
   35.8140   28.1550   39.2630 N   0  0  0  0  0  0  0  0  0  0  0  0
   34.9950   30.0950   39.4500 H   0  0  0  0  0  0  0  0  0  0  0  0
   35.9260   30.4900   41.6400 H   0  0  0  0  0  0  0  0  0  0  0  0
   36.6840   26.2970   39.2510 H   0  0  0  0  0  0  0  0  0  0  0  0
   39.5990   29.1660   42.0200 O   0  0  0  0  0  0  0  0  0  0  0  0
   41.2480   30.6750   40.5930 O   0  0  0  0  0  0  0  0  0  0  0  0
   40.2170   30.6450   41.7000 P   0  0  2  0  0  0  0  0  0  0  0  0
   40.9580   31.3800   43.0330 O   0  0  0  0  0  0  0  0  0  0  0  0
   40.2640   31.7330   43.6110 H   0  0  0  0  0  0  0  0  0  0  0  0
   38.9950   31.6900   41.2180 O   0  0  0  0  0  0  0  0  0  0  0  0
   38.6760   33.6600   40.0330 C   0  0  1  0  0  3  0  0  0  0  0  0
   39.1960   32.2360   39.9580 C   0  0  2  0  0  3  0  0  0  0  0  0
   38.2420   31.6160   38.9310 C   0  0  0  0  0  3  0  0  0  0  0  0
   38.8090   31.2000   38.0610 H   0  0  0  0  0  0  0  0  0  0  0  0
   37.4640   32.6590   38.4300 O   0  0  0  0  0  0  0  0  0  0  0  0
   37.2300   33.4200   39.5830 C   0  0  0  0  0  3  0  0  0  0  0  0
   36.6930   34.3660   39.3780 H   0  0  0  0  0  0  0  0  0  0  0  0
   38.6480   34.1610   41.3170 O   0  0  0  0  0  0  0  0  0  0  0  0
   39.5520   34.0210   41.7260 H   0  0  0  0  0  0  0  0  0  0  0  0
  1  3  1  0  0  0  0
  1  2  1  0  0  0  0
  1  4  1  1  0  0  0
  2  5  1  0  0  0  0
  3  2  1  0  0  0  0
  3  7  1  1  0  0  0
  6  2  1  0  0  0  0
  8  9  1  0  0  0  0
  9 15  1  0  0  0  0
  9 10  2  0  0  0  0
 10  1  1  0  0  0  0
 11 10  1  0  0  0  0
 12 11  2  0  0  0  0
 13 12  1  0  0  0  0
 13  8  2  0  0  0  0
 14  8  1  0  0  0  0
 16 12  1  0  0  0  0
 17  3  1  0  0  0  0
 19 18  2  6  0  0  0
 19 17  1  0  0  0  0
 19 20  1  0  0  0  0
 20 21  1  0  0  0  0
 22 19  1  0  0  0  0
 23 30  1  1  0  0  0
 24 23  1  0  0  0  0
 24 22  1  1  0  0  0
 25 24  1  0  0  0  0
 26 25  1  0  0  0  0
 27 25  1  0  0  0  0
 27 28  1  0  0  0  0
 28 23  1  0  0  0  0
 29 28  1  0  0  0  0
 30 31  1  0  0  0  0
M  END
>  <minimizedAffinity>
-4.82137156

$$$$

 OpenBabel03252501043D

 31 33  0  0  1  0  0  0  0  0999 V2000
   36.3200   27.6440   40.3780 C   0  0  1  0  0  0  0  0  0  0  0  0
   35.5740   28.9200   40.5310 C   0  0  0  0  0  0  0  0  0  0  0  0
   36.5100   28.6900   39.3530 C   0  0  1  0  0  0  0  0  0  0  0  0
   35.8230   26.6900   40.0740 H   0  0  0  0  0  0  0  0  0  0  0  0
   34.4750   28.8810   40.3820 H   0  0  0  0  0  0  0  0  0  0  0  0
   35.8970   29.7340   41.1790 H   0  0  0  0  0  0  0  0  0  0  0  0
   35.9320   28.6670   38.4060 H   0  0  0  0  0  0  0  0  0  0  0  0
   38.5260   27.9100   43.4160 C   0  0  0  0  0  0  0  0  0  0  0  0
   37.4490   28.1460   42.5500 C   0  0  0  0  0  0  0  0  0  0  0  0
   37.4320   27.4390   41.3510 C   0  0  0  0  0  0  0  0  0  0  0  0
   38.4320   26.5630   41.0580 N   0  0  0  0  0  0  0  0  0  0  0  0
   39.4610   26.3540   41.9110 C   0  0  0  0  0  0  0  0  0  0  0  0
   39.5040   27.0330   43.0930 N   0  0  0  0  0  0  0  0  0  0  0  0
   38.5650   28.4460   44.3530 H   0  0  0  0  0  0  0  0  0  0  0  0
   36.7140   28.8420   42.8590 H   0  0  0  0  0  0  0  0  0  0  0  0
   40.2740   25.6870   41.7490 H   0  0  0  0  0  0  0  0  0  0  0  0
   37.7210   29.2530   39.2530 O   0  0  0  0  0  0  0  0  0  0  0  0
   36.9490   30.3710   36.9750 O   0  0  0  0  0  0  0  0  0  0  0  0
   38.0550   30.2500   38.0010 P   0  0  2  0  0  0  0  0  0  0  0  0
   39.4390   29.8140   37.1290 O   0  0  0  0  0  0  0  0  0  0  0  0
   40.2180   30.0950   37.6330 H   0  0  0  0  0  0  0  0  0  0  0  0
   38.3340   31.8070   38.5610 O   0  0  0  0  0  0  0  0  0  0  0  0
   38.3000   32.8490   40.6350 C   0  0  1  0  0  3  0  0  0  0  0  0
   39.0340   31.8500   39.7580 C   0  0  2  0  0  3  0  0  0  0  0  0
   40.3910   32.5400   39.5790 C   0  0  0  0  0  3  0  0  0  0  0  0
   41.2220   31.8830   39.9370 H   0  0  0  0  0  0  0  0  0  0  0  0
   40.3830   33.6550   40.4140 O   0  0  0  0  0  0  0  0  0  0  0  0
   39.0710   34.1200   40.2600 C   0  0  0  0  0  3  0  0  0  0  0  0
   38.8290   34.9690   40.9280 H   0  0  0  0  0  0  0  0  0  0  0  0
   36.9820   33.0240   40.2710 O   0  0  0  0  0  0  0  0  0  0  0  0
   36.5520   32.1200   40.2120 H   0  0  0  0  0  0  0  0  0  0  0  0
  1  4  1  6  0  0  0
  1  2  1  0  0  0  0
  1 10  1  0  0  0  0
  2  6  1  0  0  0  0
  3  7  1  6  0  0  0
  3  1  1  0  0  0  0
  3  2  1  0  0  0  0
  5  2  1  0  0  0  0
  8 14  1  0  0  0  0
  9 15  1  0  0  0  0
  9  8  2  0  0  0  0
 10  9  1  0  0  0  0
 11 10  2  0  0  0  0
 11 12  1  0  0  0  0
 12 13  2  0  0  0  0
 13  8  1  0  0  0  0
 16 12  1  0  0  0  0
 17  3  1  0  0  0  0
 19 18  2  6  0  0  0
 19 22  1  0  0  0  0
 19 17  1  0  0  0  0
 20 21  1  0  0  0  0
 20 19  1  0  0  0  0
 23 30  1  6  0  0  0
 24 22  1  6  0  0  0
 24 23  1  0  0  0  0
 25 24  1  0  0  0  0
 25 26  1  0  0  0  0
 25 27  1  0  0  0  0
 28 27  1  0  0  0  0
 28 23  1  0  0  0  0
 28 29  1  0  0  0  0
 31 30  1  0  0  0  0
M  END
>  <minimizedAffinity>
-4.72485876

$$$$
