
 OpenBabel03252504573D

 37 39  0  0  1  0  0  0  0  0999 V2000
   47.8940   34.0130   42.0380 N   0  0  0  0  0  0  0  0  0  0  0  0
   47.8560   35.0850   41.1170 C   0  0  0  0  0  0  0  0  0  0  0  0
   49.0670   35.8590   41.4730 C   0  0  0  0  0  0  0  0  0  0  0  0
   49.7900   35.1300   42.6020 C   0  0  0  0  0  0  0  0  0  0  0  0
   49.1940   33.7200   42.4850 C   0  0  2  0  0  0  0  0  0  0  0  0
   47.2760   35.4700   40.3180 H   0  0  0  0  0  0  0  0  0  0  0  0
   49.4720   36.7740   41.0510 H   0  0  0  0  0  0  0  0  0  0  0  0
   49.5700   35.6000   43.5590 H   0  0  0  0  0  0  0  0  0  0  0  0
   50.8540   35.1310   42.3240 H   0  0  0  0  0  0  0  0  0  0  0  0
   49.2030   33.1470   43.4100 H   0  0  0  0  0  0  0  0  0  0  0  0
   46.7240   33.4060   42.4230 C   0  0  0  0  0  0  0  0  0  0  0  0
   46.9640   32.3380   42.6740 H   0  0  0  0  0  0  0  0  0  0  0  0
   45.9720   33.2810   41.6130 H   0  0  0  0  0  0  0  0  0  0  0  0
   44.5980   35.7140   44.5420 C   0  0  0  0  0  0  0  0  0  0  0  0
   45.2640   35.2050   43.3850 C   0  0  0  0  0  0  0  0  0  0  0  0
   46.0230   34.0450   43.5170 C   0  0  0  0  0  0  0  0  0  0  0  0
   46.0810   33.4760   44.7390 N   0  0  0  0  0  0  0  0  0  0  0  0
   45.4340   33.9760   45.8510 C   0  0  0  0  0  0  0  0  0  0  0  0
   44.7010   35.0840   45.7490 N   0  0  0  0  0  0  0  0  0  0  0  0
   44.0100   36.6290   44.4000 H   0  0  0  0  0  0  0  0  0  0  0  0
   45.1920   35.6870   42.4380 H   0  0  0  0  0  0  0  0  0  0  0  0
   45.5670   33.4210   46.7590 H   0  0  0  0  0  0  0  0  0  0  0  0
   49.8600   33.1130   41.4130 O   0  0  0  0  0  0  0  0  0  0  0  0
   49.2340   30.7270   42.3940 O   0  0  0  0  0  0  0  0  0  0  0  0
   50.2750   31.5270   41.6590 P   0  0  2  0  0  0  0  0  0  0  0  0
   51.6570   31.5110   42.6550 O   0  0  0  0  0  0  0  0  0  0  0  0
   52.2460   32.2720   42.4220 H   0  0  0  0  0  0  0  0  0  0  0  0
   50.7600   30.7590   40.2310 O   0  0  0  0  0  0  0  0  0  0  0  0
   52.2360   31.2460   38.3880 C   0  0  1  0  0  3  0  0  0  0  0  0
   51.0120   31.5860   39.1920 C   0  0  1  0  0  3  0  0  0  0  0  0
   49.9310   31.7690   38.1950 C   0  0  0  0  0  3  0  0  0  0  0  0
   49.0070   31.1950   38.4060 H   0  0  0  0  0  0  0  0  0  0  0  0
   50.4240   31.4650   36.9270 O   0  0  0  0  0  0  0  0  0  0  0  0
   51.6150   30.7800   37.0850 C   0  0  0  0  0  3  0  0  0  0  0  0
   52.2930   30.8800   36.2330 H   0  0  0  0  0  0  0  0  0  0  0  0
   52.9960   32.3830   38.0940 O   0  0  0  0  0  0  0  0  0  0  0  0
   53.3090   32.3700   37.1540 H   0  0  0  0  0  0  0  0  0  0  0  0
  1 11  1  0  0  0  0
  1  5  1  0  0  0  0
  2  3  2  0  0  0  0
  2  1  1  0  0  0  0
  3  4  1  0  0  0  0
  4  8  1  0  0  0  0
  5  4  1  0  0  0  0
  5 10  1  1  0  0  0
  6  2  1  0  0  0  0
  7  3  1  0  0  0  0
  9  4  1  0  0  0  0
 11 12  1  0  0  0  0
 11 16  1  0  0  0  0
 13 11  1  0  0  0  0
 14 19  1  0  0  0  0
 15 16  1  0  0  0  0
 15 14  2  0  0  0  0
 16 17  2  0  0  0  0
 17 18  1  0  0  0  0
 18 22  1  0  0  0  0
 19 18  2  0  0  0  0
 20 14  1  0  0  0  0
 21 15  1  0  0  0  0
 23 25  1  0  0  0  0
 23  5  1  0  0  0  0
 25 24  2  1  0  0  0
 25 26  1  0  0  0  0
 27 26  1  0  0  0  0
 28 25  1  0  0  0  0
 29 36  1  6  0  0  0
 29 30  1  0  0  0  0
 30 28  1  1  0  0  0
 31 32  1  0  0  0  0
 31 30  1  0  0  0  0
 33 34  1  0  0  0  0
 33 31  1  0  0  0  0
 34 29  1  0  0  0  0
 35 34  1  0  0  0  0
 37 36  1  0  0  0  0
M  END
>  <minimizedAffinity>
-5.41852617

>  <minimizedRMSD>
1.21133065

$$$$
