
 OpenBabel03242520493D

 19 20  0  0  1  0  0  0  0  0999 V2000
   38.6920   31.0890   41.4490 O   0  0  0  0  0  0  0  0  0  0  0  0
   37.6220   28.1540   43.4730 C   0  0  0  0  0  0  0  0  0  0  0  0
   38.3850   29.2750   43.1120 C   0  0  0  0  0  0  0  0  0  0  0  0
   38.0530   29.9720   41.9490 C   0  0  0  0  0  0  0  0  0  0  0  0
   36.9940   29.5220   41.2160 N   0  0  0  0  0  0  0  0  0  0  0  0
   36.2770   28.4340   41.5930 C   0  0  0  0  0  0  0  0  0  0  0  0
   36.5900   27.7570   42.7140 N   0  0  0  0  0  0  0  0  0  0  0  0
   37.9410   27.6790   44.3740 H   0  0  0  0  0  0  0  0  0  0  0  0
   39.2270   29.6610   43.6640 H   0  0  0  0  0  0  0  0  0  0  0  0
   35.4460   28.1560   40.9350 H   0  0  0  0  0  0  0  0  0  0  0  0
   37.9600   32.7690   39.9570 C   0  0  2  0  0  3  0  0  0  0  0  0
   38.7660   31.4720   40.1140 C   0  0  1  0  0  3  0  0  0  0  0  0
   40.1520   32.0660   39.8770 C   0  0  0  0  0  3  0  0  0  0  0  0
   40.2340   32.4980   38.8700 H   0  0  0  0  0  0  0  0  0  0  0  0
   40.1060   33.1190   40.8030 O   0  0  0  0  0  0  0  0  0  0  0  0
   38.8640   33.7130   40.7080 C   0  0  0  0  0  3  0  0  0  0  0  0
   38.8670   34.7110   40.2210 H   0  0  0  0  0  0  0  0  0  0  0  0
   36.6860   32.6710   40.4510 O   0  0  0  0  0  0  0  0  0  0  0  0
   36.4170   33.5090   40.9230 H   0  0  0  0  0  0  0  0  0  0  0  0
  1  4  1  0  0  0  0
  2  8  1  0  0  0  0
  3  2  1  0  0  0  0
  3  9  1  0  0  0  0
  4  3  2  0  0  0  0
  5  6  2  0  0  0  0
  5  4  1  0  0  0  0
  6  7  1  0  0  0  0
  7  2  2  0  0  0  0
 10  6  1  0  0  0  0
 11 12  1  0  0  0  0
 11 18  1  1  0  0  0
 11 16  1  0  0  0  0
 12  1  1  1  0  0  0
 13 12  1  0  0  0  0
 13 15  1  0  0  0  0
 14 13  1  0  0  0  0
 16 15  1  0  0  0  0
 17 16  1  0  0  0  0
 18 19  1  0  0  0  0
M  END
>  <minimizedAffinity>
-4.16442633

$$$$

 OpenBabel03242520493D

 19 20  0  0  1  0  0  0  0  0999 V2000
   38.4170   30.2110   41.4230 O   0  0  0  0  0  0  0  0  0  0  0  0
   37.1980   33.1220   39.4490 C   0  0  0  0  0  0  0  0  0  0  0  0
   37.2540   31.7990   39.9150 C   0  0  0  0  0  0  0  0  0  0  0  0
   38.2220   31.4570   40.8600 C   0  0  0  0  0  0  0  0  0  0  0  0
   39.0720   32.4350   41.2870 N   0  0  0  0  0  0  0  0  0  0  0  0
   38.9910   33.7050   40.8160 C   0  0  0  0  0  0  0  0  0  0  0  0
   38.0600   34.0440   39.9040 N   0  0  0  0  0  0  0  0  0  0  0  0
   36.4310   33.3000   38.7290 H   0  0  0  0  0  0  0  0  0  0  0  0
   36.6020   31.0000   39.6030 H   0  0  0  0  0  0  0  0  0  0  0  0
   39.7190   34.4150   41.2230 H   0  0  0  0  0  0  0  0  0  0  0  0
   38.1560   28.9060   43.3750 C   0  0  2  0  0  3  0  0  0  0  0  0
   39.0230   29.9410   42.6450 C   0  0  1  0  0  3  0  0  0  0  0  0
   40.2270   29.0420   42.3780 C   0  0  0  0  0  3  0  0  0  0  0  0
   40.6810   28.6940   43.3170 H   0  0  0  0  0  0  0  0  0  0  0  0
   39.5700   27.9570   41.7800 O   0  0  0  0  0  0  0  0  0  0  0  0
   38.4240   27.7030   42.5070 C   0  0  0  0  0  3  0  0  0  0  0  0
   38.4670   26.7840   43.1270 H   0  0  0  0  0  0  0  0  0  0  0  0
   36.8400   29.2760   43.4620 O   0  0  0  0  0  0  0  0  0  0  0  0
   36.2350   28.4940   43.3190 H   0  0  0  0  0  0  0  0  0  0  0  0
  2  7  2  0  0  0  0
  2  3  1  0  0  0  0
  3  4  2  0  0  0  0
  4  5  1  0  0  0  0
  4  1  1  0  0  0  0
  6 10  1  0  0  0  0
  6  5  2  0  0  0  0
  7  6  1  0  0  0  0
  8  2  1  0  0  0  0
  9  3  1  0  0  0  0
 11 18  1  6  0  0  0
 12  1  1  6  0  0  0
 12 11  1  0  0  0  0
 13 12  1  0  0  0  0
 13 14  1  0  0  0  0
 15 13  1  0  0  0  0
 15 16  1  0  0  0  0
 16 17  1  0  0  0  0
 16 11  1  0  0  0  0
 19 18  1  0  0  0  0
M  END
>  <minimizedAffinity>
-4.0206542

$$$$

 OpenBabel03242520493D

 19 20  0  0  1  0  0  0  0  0999 V2000
   38.2410   31.3150   40.9130 O   0  0  0  0  0  0  0  0  0  0  0  0
   36.2720   28.2660   41.7380 C   0  0  0  0  0  0  0  0  0  0  0  0
   36.6760   29.3930   41.0070 C   0  0  0  0  0  0  0  0  0  0  0  0
   37.7190   30.1790   41.4990 C   0  0  0  0  0  0  0  0  0  0  0  0
   38.2980   29.8060   42.6780 N   0  0  0  0  0  0  0  0  0  0  0  0
   37.8820   28.7100   43.3600 C   0  0  0  0  0  0  0  0  0  0  0  0
   36.8770   27.9460   42.8920 N   0  0  0  0  0  0  0  0  0  0  0  0
   35.4690   27.7210   41.2940 H   0  0  0  0  0  0  0  0  0  0  0  0
   36.2450   29.7200   40.0750 H   0  0  0  0  0  0  0  0  0  0  0  0
   38.4130   28.4970   44.2950 H   0  0  0  0  0  0  0  0  0  0  0  0
   38.3820   33.5940   40.3070 C   0  0  2  0  0  3  0  0  0  0  0  0
   37.5230   32.3220   40.2770 C   0  0  1  0  0  3  0  0  0  0  0  0
   37.5950   32.0660   38.7740 C   0  0  0  0  0  3  0  0  0  0  0  0
   37.1470   32.8940   38.2070 H   0  0  0  0  0  0  0  0  0  0  0  0
   38.9860   32.1190   38.6040 O   0  0  0  0  0  0  0  0  0  0  0  0
   39.4630   33.1840   39.3400 C   0  0  0  0  0  3  0  0  0  0  0  0
   39.7860   34.0550   38.7320 H   0  0  0  0  0  0  0  0  0  0  0  0
   38.8200   33.9150   41.5640 O   0  0  0  0  0  0  0  0  0  0  0  0
   39.7620   34.2460   41.5440 H   0  0  0  0  0  0  0  0  0  0  0  0
  1  4  1  0  0  0  0
  2  7  1  0  0  0  0
  3  4  1  0  0  0  0
  3  2  2  0  0  0  0
  4  5  2  0  0  0  0
  5  6  1  0  0  0  0
  6 10  1  0  0  0  0
  7  6  2  0  0  0  0
  8  2  1  0  0  0  0
  9  3  1  0  0  0  0
 11 18  1  1  0  0  0
 12 11  1  0  0  0  0
 12  1  1  1  0  0  0
 13 12  1  0  0  0  0
 14 13  1  0  0  0  0
 15 13  1  0  0  0  0
 15 16  1  0  0  0  0
 16 11  1  0  0  0  0
 17 16  1  0  0  0  0
 19 18  1  0  0  0  0
M  END
>  <minimizedAffinity>
-4.00390911

$$$$

 OpenBabel03242520493D

 19 20  0  0  1  0  0  0  0  0999 V2000
   37.6100   30.7450   41.2940 O   0  0  0  0  0  0  0  0  0  0  0  0
   36.9300   27.1070   41.6850 C   0  0  0  0  0  0  0  0  0  0  0  0
   37.0250   28.3490   41.0390 C   0  0  0  0  0  0  0  0  0  0  0  0
   37.4590   29.4580   41.7680 C   0  0  0  0  0  0  0  0  0  0  0  0
   37.7710   29.2740   43.0840 N   0  0  0  0  0  0  0  0  0  0  0  0
   37.6670   28.0590   43.6780 C   0  0  0  0  0  0  0  0  0  0  0  0
   37.2500   26.9840   42.9820 N   0  0  0  0  0  0  0  0  0  0  0  0
   36.5910   26.3120   41.0580 H   0  0  0  0  0  0  0  0  0  0  0  0
   36.7890   28.5340   40.0040 H   0  0  0  0  0  0  0  0  0  0  0  0
   37.9420   28.0190   44.7380 H   0  0  0  0  0  0  0  0  0  0  0  0
   38.0240   32.6440   39.9500 C   0  0  2  0  0  3  0  0  0  0  0  0
   38.1390   31.1180   40.0630 C   0  0  1  0  0  3  0  0  0  0  0  0
   39.6600   31.0380   40.1660 C   0  0  0  0  0  3  0  0  0  0  0  0
   40.1420   31.4340   39.2620 H   0  0  0  0  0  0  0  0  0  0  0  0
   39.8620   31.9530   41.2090 O   0  0  0  0  0  0  0  0  0  0  0  0
   39.0510   33.0450   40.9780 C   0  0  0  0  0  3  0  0  0  0  0  0
   39.5900   33.9570   40.6470 H   0  0  0  0  0  0  0  0  0  0  0  0
   36.7560   33.1050   40.1870 O   0  0  0  0  0  0  0  0  0  0  0  0
   36.7730   33.9510   40.7180 H   0  0  0  0  0  0  0  0  0  0  0  0
  1  4  1  0  0  0  0
  2  7  1  0  0  0  0
  3  2  2  0  0  0  0
  3  4  1  0  0  0  0
  4  5  2  0  0  0  0
  5  6  1  0  0  0  0
  6 10  1  0  0  0  0
  7  6  2  0  0  0  0
  8  2  1  0  0  0  0
  9  3  1  0  0  0  0
 11 12  1  0  0  0  0
 11 18  1  1  0  0  0
 11 16  1  0  0  0  0
 12 13  1  0  0  0  0
 12  1  1  1  0  0  0
 13 15  1  0  0  0  0
 14 13  1  0  0  0  0
 16 15  1  0  0  0  0
 17 16  1  0  0  0  0
 18 19  1  0  0  0  0
M  END
>  <minimizedAffinity>
-3.95522881

$$$$

 OpenBabel03242520493D

 19 20  0  0  1  0  0  0  0  0999 V2000
   37.2450   28.7640   40.9170 O   0  0  0  0  0  0  0  0  0  0  0  0
   37.1570   31.3210   38.2140 C   0  0  0  0  0  0  0  0  0  0  0  0
   37.1470   30.0440   38.7950 C   0  0  0  0  0  0  0  0  0  0  0  0
   37.2400   29.9330   40.1830 C   0  0  0  0  0  0  0  0  0  0  0  0
   37.3370   31.0840   40.9110 N   0  0  0  0  0  0  0  0  0  0  0  0
   37.3440   32.3040   40.3160 C   0  0  0  0  0  0  0  0  0  0  0  0
   37.2540   32.4190   38.9780 N   0  0  0  0  0  0  0  0  0  0  0  0
   37.0820   31.3170   37.1490 H   0  0  0  0  0  0  0  0  0  0  0  0
   37.0720   29.1130   38.2570 H   0  0  0  0  0  0  0  0  0  0  0  0
   37.4250   33.1650   40.9900 H   0  0  0  0  0  0  0  0  0  0  0  0
   37.7310   28.1980   43.1590 C   0  0  2  0  0  3  0  0  0  0  0  0
   38.2750   28.2990   41.7270 C   0  0  1  0  0  3  0  0  0  0  0  0
   38.4330   26.8030   41.4660 C   0  0  0  0  0  3  0  0  0  0  0  0
   39.1530   26.3510   42.1630 H   0  0  0  0  0  0  0  0  0  0  0  0
   37.1470   26.3760   41.8250 O   0  0  0  0  0  0  0  0  0  0  0  0
   36.7890   27.0350   42.9830 C   0  0  0  0  0  3  0  0  0  0  0  0
   36.7880   26.4000   43.8930 H   0  0  0  0  0  0  0  0  0  0  0  0
   37.1460   29.3580   43.5920 O   0  0  0  0  0  0  0  0  0  0  0  0
   36.3230   29.1690   44.1250 H   0  0  0  0  0  0  0  0  0  0  0  0
  2  3  2  0  0  0  0
  2  7  1  0  0  0  0
  3  4  1  0  0  0  0
  4  5  2  0  0  0  0
  4  1  1  0  0  0  0
  6  5  1  0  0  0  0
  6 10  1  0  0  0  0
  7  6  2  0  0  0  0
  8  2  1  0  0  0  0
  9  3  1  0  0  0  0
 11 18  1  6  0  0  0
 12  1  1  6  0  0  0
 12 11  1  0  0  0  0
 13 12  1  0  0  0  0
 13 15  1  0  0  0  0
 13 14  1  0  0  0  0
 15 16  1  0  0  0  0
 16 11  1  0  0  0  0
 16 17  1  0  0  0  0
 18 19  1  0  0  0  0
M  END
>  <minimizedAffinity>
-3.80459452

$$$$

 OpenBabel03242520493D

 19 20  0  0  1  0  0  0  0  0999 V2000
   37.1610   28.8260   40.7670 O   0  0  0  0  0  0  0  0  0  0  0  0
   36.6160   25.2410   39.9270 C   0  0  0  0  0  0  0  0  0  0  0  0
   36.7040   26.6260   39.7180 C   0  0  0  0  0  0  0  0  0  0  0  0
   37.0320   27.4520   40.7940 C   0  0  0  0  0  0  0  0  0  0  0  0
   37.2520   26.8640   42.0060 N   0  0  0  0  0  0  0  0  0  0  0  0
   37.1580   25.5210   42.1740 C   0  0  0  0  0  0  0  0  0  0  0  0
   36.8430   24.7170   41.1410 N   0  0  0  0  0  0  0  0  0  0  0  0
   36.3610   24.6820   39.0540 H   0  0  0  0  0  0  0  0  0  0  0  0
   36.5380   27.1270   38.7780 H   0  0  0  0  0  0  0  0  0  0  0  0
   37.3540   25.1500   43.1860 H   0  0  0  0  0  0  0  0  0  0  0  0
   36.4500   31.0450   40.3740 C   0  0  2  0  0  3  0  0  0  0  0  0
   36.7490   29.6770   39.7460 C   0  0  1  0  0  3  0  0  0  0  0  0
   37.9860   30.0850   38.9520 C   0  0  0  0  0  3  0  0  0  0  0  0
   37.7440   30.8520   38.2030 H   0  0  0  0  0  0  0  0  0  0  0  0
   38.7220   30.6920   39.9800 O   0  0  0  0  0  0  0  0  0  0  0  0
   37.8540   31.4690   40.7210 C   0  0  0  0  0  3  0  0  0  0  0  0
   37.9740   32.5620   40.5720 H   0  0  0  0  0  0  0  0  0  0  0  0
   35.5880   30.9710   41.4350 O   0  0  0  0  0  0  0  0  0  0  0  0
   35.8620   31.5940   42.1660 H   0  0  0  0  0  0  0  0  0  0  0  0
  1  4  1  0  0  0  0
  2  7  1  0  0  0  0
  3  2  2  0  0  0  0
  3  4  1  0  0  0  0
  4  5  2  0  0  0  0
  5  6  1  0  0  0  0
  6 10  1  0  0  0  0
  7  6  2  0  0  0  0
  8  2  1  0  0  0  0
  9  3  1  0  0  0  0
 11 16  1  0  0  0  0
 11 18  1  1  0  0  0
 12 11  1  0  0  0  0
 12  1  1  1  0  0  0
 13 12  1  0  0  0  0
 13 15  1  0  0  0  0
 14 13  1  0  0  0  0
 15 16  1  0  0  0  0
 17 16  1  0  0  0  0
 18 19  1  0  0  0  0
M  END
>  <minimizedAffinity>
-3.78082538

$$$$

 OpenBabel03242520493D

 19 20  0  0  1  0  0  0  0  0999 V2000
   38.4990   28.7650   42.0400 O   0  0  0  0  0  0  0  0  0  0  0  0
   39.2580   32.3000   41.1540 C   0  0  0  0  0  0  0  0  0  0  0  0
   39.4830   31.0090   41.6560 C   0  0  0  0  0  0  0  0  0  0  0  0
   38.4510   30.0720   41.5960 C   0  0  0  0  0  0  0  0  0  0  0  0
   37.2640   30.4630   41.0470 N   0  0  0  0  0  0  0  0  0  0  0  0
   37.0800   31.7200   40.5710 C   0  0  0  0  0  0  0  0  0  0  0  0
   38.0710   32.6300   40.6240 N   0  0  0  0  0  0  0  0  0  0  0  0
   40.0970   32.9540   41.2370 H   0  0  0  0  0  0  0  0  0  0  0  0
   40.4040   30.6620   42.0960 H   0  0  0  0  0  0  0  0  0  0  0  0
   36.0910   31.9330   40.1500 H   0  0  0  0  0  0  0  0  0  0  0  0
   36.8220   27.4650   43.0800 C   0  0  2  0  0  3  0  0  0  0  0  0
   38.0940   28.2990   43.2870 C   0  0  1  0  0  3  0  0  0  0  0  0
   39.0240   27.1550   43.6800 C   0  0  0  0  0  3  0  0  0  0  0  0
   38.6840   26.6640   44.6020 H   0  0  0  0  0  0  0  0  0  0  0  0
   38.7800   26.2880   42.6050 O   0  0  0  0  0  0  0  0  0  0  0  0
   37.4190   26.2770   42.3700 C   0  0  0  0  0  3  0  0  0  0  0  0
   36.9060   25.3440   42.6820 H   0  0  0  0  0  0  0  0  0  0  0  0
   35.8520   28.1310   42.3790 O   0  0  0  0  0  0  0  0  0  0  0  0
   35.3890   27.5230   41.7360 H   0  0  0  0  0  0  0  0  0  0  0  0
  2  8  1  0  0  0  0
  2  3  1  0  0  0  0
  3  9  1  0  0  0  0
  4  3  2  0  0  0  0
  4  1  1  0  0  0  0
  5  4  1  0  0  0  0
  6  7  1  0  0  0  0
  6  5  2  0  0  0  0
  7  2  2  0  0  0  0
 10  6  1  0  0  0  0
 11 18  1  6  0  0  0
 11 12  1  0  0  0  0
 12  1  1  6  0  0  0
 12 13  1  0  0  0  0
 13 14  1  0  0  0  0
 15 13  1  0  0  0  0
 16 15  1  0  0  0  0
 16 17  1  0  0  0  0
 16 11  1  0  0  0  0
 19 18  1  0  0  0  0
M  END
>  <minimizedAffinity>
-3.74151993

$$$$

 OpenBabel03242520493D

 19 20  0  0  1  0  0  0  0  0999 V2000
   38.9980   31.7530   39.1210 O   0  0  0  0  0  0  0  0  0  0  0  0
   35.8670   29.7420   39.0380 C   0  0  0  0  0  0  0  0  0  0  0  0
   37.0410   30.3400   38.5540 C   0  0  0  0  0  0  0  0  0  0  0  0
   37.8210   31.0990   39.4270 C   0  0  0  0  0  0  0  0  0  0  0  0
   37.3980   31.2230   40.7190 N   0  0  0  0  0  0  0  0  0  0  0  0
   36.2570   30.6320   41.1540 C   0  0  0  0  0  0  0  0  0  0  0  0
   35.4990   29.8970   40.3190 N   0  0  0  0  0  0  0  0  0  0  0  0
   35.3290   29.1800   38.3080 H   0  0  0  0  0  0  0  0  0  0  0  0
   37.4080   30.2660   37.5440 H   0  0  0  0  0  0  0  0  0  0  0  0
   36.0070   30.7930   42.2090 H   0  0  0  0  0  0  0  0  0  0  0  0
   40.6530   32.1060   37.4720 C   0  0  2  0  0  3  0  0  0  0  0  0
   40.1490   31.1810   38.5870 C   0  0  1  0  0  3  0  0  0  0  0  0
   41.2870   31.4170   39.5750 C   0  0  0  0  0  3  0  0  0  0  0  0
   42.2510   31.0920   39.1580 H   0  0  0  0  0  0  0  0  0  0  0  0
   41.2710   32.8180   39.6050 O   0  0  0  0  0  0  0  0  0  0  0  0
   41.1220   33.2680   38.3090 C   0  0  0  0  0  3  0  0  0  0  0  0
   42.0370   33.7150   37.8680 H   0  0  0  0  0  0  0  0  0  0  0  0
   39.6870   32.4090   36.5490 O   0  0  0  0  0  0  0  0  0  0  0  0
   39.7450   33.3650   36.2670 H   0  0  0  0  0  0  0  0  0  0  0  0
  1  4  1  0  0  0  0
  2  7  1  0  0  0  0
  3  2  2  0  0  0  0
  3  4  1  0  0  0  0
  4  5  2  0  0  0  0
  5  6  1  0  0  0  0
  6 10  1  0  0  0  0
  7  6  2  0  0  0  0
  8  2  1  0  0  0  0
  9  3  1  0  0  0  0
 11 18  1  6  0  0  0
 11 16  1  0  0  0  0
 11 12  1  0  0  0  0
 12  1  1  1  0  0  0
 12 13  1  0  0  0  0
 13 15  1  0  0  0  0
 14 13  1  0  0  0  0
 16 15  1  0  0  0  0
 17 16  1  0  0  0  0
 19 18  1  0  0  0  0
M  END
>  <minimizedAffinity>
-3.68825555

$$$$

 OpenBabel03242520493D

 19 20  0  0  1  0  0  0  0  0999 V2000
   38.1240   30.5130   40.4510 O   0  0  0  0  0  0  0  0  0  0  0  0
   38.8410   34.1610   40.2800 C   0  0  0  0  0  0  0  0  0  0  0  0
   38.0720   32.9880   40.2980 C   0  0  0  0  0  0  0  0  0  0  0  0
   38.7210   31.7570   40.4160 C   0  0  0  0  0  0  0  0  0  0  0  0
   40.0830   31.7600   40.5080 N   0  0  0  0  0  0  0  0  0  0  0  0
   40.7960   32.9130   40.4870 C   0  0  0  0  0  0  0  0  0  0  0  0
   40.1780   34.1040   40.3740 N   0  0  0  0  0  0  0  0  0  0  0  0
   38.2690   35.0580   40.1870 H   0  0  0  0  0  0  0  0  0  0  0  0
   36.9980   32.9440   40.2280 H   0  0  0  0  0  0  0  0  0  0  0  0
   41.8840   32.8060   40.5680 H   0  0  0  0  0  0  0  0  0  0  0  0
   36.1590   29.6020   41.3950 C   0  0  2  0  0  3  0  0  0  0  0  0
   37.6630   29.8470   41.5820 C   0  0  1  0  0  3  0  0  0  0  0  0
   38.1180   28.3940   41.4840 C   0  0  0  0  0  3  0  0  0  0  0  0
   37.6840   27.7850   42.2890 H   0  0  0  0  0  0  0  0  0  0  0  0
   37.4890   28.0420   40.2810 O   0  0  0  0  0  0  0  0  0  0  0  0
   36.2120   28.5670   40.3010 C   0  0  0  0  0  3  0  0  0  0  0  0
   35.4080   27.8160   40.4430 H   0  0  0  0  0  0  0  0  0  0  0  0
   35.4650   30.7410   41.0830 O   0  0  0  0  0  0  0  0  0  0  0  0
   34.7620   30.5580   40.3980 H   0  0  0  0  0  0  0  0  0  0  0  0
  2  3  2  0  0  0  0
  2  7  1  0  0  0  0
  3  4  1  0  0  0  0
  4  1  1  0  0  0  0
  4  5  2  0  0  0  0
  6  5  1  0  0  0  0
  6 10  1  0  0  0  0
  7  6  2  0  0  0  0
  8  2  1  0  0  0  0
  9  3  1  0  0  0  0
 11 18  1  6  0  0  0
 11 12  1  0  0  0  0
 12  1  1  6  0  0  0
 13 12  1  0  0  0  0
 13 14  1  0  0  0  0
 15 16  1  0  0  0  0
 15 13  1  0  0  0  0
 16 17  1  0  0  0  0
 16 11  1  0  0  0  0
 19 18  1  0  0  0  0
M  END
>  <minimizedAffinity>
-3.67290735

$$$$
