
 OpenBabel03242521543D

 48 52  0  0  1  0  0  0  0  0999 V2000
   46.4220   32.9830   44.6770 C   0  0  0  0  0  0  0  0  0  0  0  0
   46.3240   33.4600   45.9830 C   0  0  0  0  0  0  0  0  0  0  0  0
   46.0980   32.6290   47.0850 C   0  0  0  0  0  0  0  0  0  0  0  0
   45.9620   31.2790   46.9190 C   0  0  0  0  0  0  0  0  0  0  0  0
   46.0490   30.7650   45.6060 C   0  0  0  0  0  0  0  0  0  0  0  0
   45.8550   29.4280   45.4800 C   0  0  0  0  0  0  0  0  0  0  0  0
   45.8630   28.9020   44.1860 C   0  0  0  0  0  0  0  0  0  0  0  0
   46.0650   29.7980   43.0790 C   0  0  0  0  0  0  0  0  0  0  0  0
   46.2450   31.1300   43.3760 C   0  0  0  0  0  0  0  0  0  0  0  0
   46.2690   31.6850   44.5780 C   0  0  0  0  0  0  0  0  0  0  0  0
   46.4320   34.5480   46.1310 H   0  0  0  0  0  0  0  0  0  0  0  0
   46.0340   33.0640   48.0670 H   0  0  0  0  0  0  0  0  0  0  0  0
   45.7950   30.6170   47.7590 H   0  0  0  0  0  0  0  0  0  0  0  0
   45.7030   28.8020   46.3480 H   0  0  0  0  0  0  0  0  0  0  0  0
   45.7090   27.8340   44.1610 H   0  0  0  0  0  0  0  0  0  0  0  0
   46.0220   29.1280   42.2340 H   0  0  0  0  0  0  0  0  0  0  0  0
   44.5840   31.8250   41.8950 C   0  0  0  0  0  0  0  0  0  0  0  0
   45.9990   31.5360   42.0080 C   0  0  0  0  0  0  0  0  0  0  0  0
   46.5860   31.5960   40.8140 C   0  0  0  0  0  0  0  0  0  0  0  0
   45.9570   31.8860   39.6180 C   0  0  0  0  0  0  0  0  0  0  0  0
   44.6140   32.1510   39.5390 C   0  0  0  0  0  0  0  0  0  0  0  0
   43.9240   32.1160   40.7190 C   0  0  0  0  0  0  0  0  0  0  0  0
   47.6470   31.3690   40.9970 H   0  0  0  0  0  0  0  0  0  0  0  0
   46.6690   31.8690   38.7870 H   0  0  0  0  0  0  0  0  0  0  0  0
   44.3350   32.3450   38.5340 H   0  0  0  0  0  0  0  0  0  0  0  0
   43.6430   31.8610   42.9590 O   0  0  0  0  0  0  0  0  0  0  0  0
   43.3720   32.7960   43.2350 H   0  0  0  0  0  0  0  0  0  0  0  0
   42.5810   32.3830   40.5730 O   0  0  0  0  0  0  0  0  0  0  0  0
   42.5960   34.7460   41.1080 C   0  0  2  0  0  0  0  0  0  0  0  0
   41.9370   33.5780   40.3840 C   0  0  2  0  0  0  0  0  0  0  0  0
   40.6490   33.5040   41.2250 C   0  0  0  0  0  0  0  0  0  0  0  0
   40.9050   32.9580   42.1720 H   0  0  0  0  0  0  0  0  0  0  0  0
   40.2990   34.7830   41.5450 O   0  0  0  0  0  0  0  0  0  0  0  0
   41.4170   35.5900   41.4620 C   0  0  0  0  0  0  0  0  0  0  0  0
   41.2260   36.3520   40.6730 H   0  0  0  0  0  0  0  0  0  0  0  0
   43.4050   35.4810   40.2460 O   0  0  0  0  0  0  0  0  0  0  0  0
   44.1490   34.8820   39.9640 H   0  0  0  0  0  0  0  0  0  0  0  0
   47.0030   35.3560   41.8570 C   0  0  0  0  0  0  0  0  0  0  0  0
   48.4160   35.4050   41.8700 C   0  0  0  0  0  0  0  0  0  0  0  0
   49.0440   34.6160   42.8070 C   0  0  0  0  0  0  0  0  0  0  0  0
   48.2340   33.9060   43.5880 N   0  0  0  0  0  0  0  0  0  0  0  0
   46.9080   33.8380   43.6060 C   0  0  0  0  0  0  0  0  0  0  0  0
   46.3270   34.5840   42.7140 N   0  0  0  0  0  0  0  0  0  0  0  0
   46.4640   35.9520   41.1440 H   0  0  0  0  0  0  0  0  0  0  0  0
   48.9810   36.0190   41.1940 H   0  0  0  0  0  0  0  0  0  0  0  0
   50.4560   34.5170   42.8930 N   0  0  0  0  0  0  0  0  0  0  0  0
   50.8840   34.3800   41.9530 H   0  0  0  0  0  0  0  0  0  0  0  0
   50.9340   34.5810   43.8110 H   0  0  0  0  0  0  0  0  0  0  0  0
  1  2  1  0  0  0  0
  2 11  1  0  0  0  0
  2  3  2  0  0  0  0
  3 12  1  0  0  0  0
  4  3  1  0  0  0  0
  4 13  1  0  0  0  0
  5  4  2  0  0  0  0
  6  5  1  0  0  0  0
  6 14  1  0  0  0  0
  7  6  2  0  0  0  0
  8  9  2  0  0  0  0
  8  7  1  0  0  0  0
  9 10  1  0  0  0  0
 10  1  2  0  0  0  0
 10  5  1  0  0  0  0
 15  7  1  0  0  0  0
 16  8  1  0  0  0  0
 17 18  1  0  0  0  0
 17 26  1  0  0  0  0
 18  9  1  0  0  0  0
 19 23  1  0  0  0  0
 19 18  2  0  0  0  0
 20 19  1  0  0  0  0
 21 20  2  0  0  0  0
 21 22  1  0  0  0  0
 22 17  2  0  0  0  0
 24 20  1  0  0  0  0
 25 21  1  0  0  0  0
 26 27  1  0  0  0  0
 28 22  1  0  0  0  0
 29 36  1  6  0  0  0
 29 34  1  0  0  0  0
 30 28  1  1  0  0  0
 30 29  1  0  0  0  0
 30 31  1  0  0  0  0
 31 33  1  0  0  0  0
 31 32  1  0  0  0  0
 34 33  1  0  0  0  0
 35 34  1  0  0  0  0
 37 36  1  0  0  0  0
 38 39  2  0  0  0  0
 38 43  1  0  0  0  0
 39 40  1  0  0  0  0
 40 46  1  0  0  0  0
 40 41  2  0  0  0  0
 41 42  1  0  0  0  0
 42  1  1  0  0  0  0
 43 42  2  0  0  0  0
 44 38  1  0  0  0  0
 45 39  1  0  0  0  0
 46 48  1  0  0  0  0
 47 46  1  0  0  0  0
M  END
>  <minimizedAffinity>
-6.54698467

>  <minimizedRMSD>
3.83095145

$$$$
