
 OpenBabel03252504583D

 37 39  0  0  1  0  0  0  0  0999 V2000
   47.8230   34.0250   41.9880 N   0  0  0  0  0  0  0  0  0  0  0  0
   47.8500   35.2170   41.2290 C   0  0  0  0  0  0  0  0  0  0  0  0
   49.1370   35.8270   41.6300 C   0  0  0  0  0  0  0  0  0  0  0  0
   49.8310   34.8860   42.6110 C   0  0  0  0  0  0  0  0  0  0  0  0
   49.1060   33.5630   42.3280 C   0  0  2  0  0  0  0  0  0  0  0  0
   47.2790   35.7600   40.5200 H   0  0  0  0  0  0  0  0  0  0  0  0
   49.6080   36.7560   41.3220 H   0  0  0  0  0  0  0  0  0  0  0  0
   49.6880   35.2320   43.6340 H   0  0  0  0  0  0  0  0  0  0  0  0
   50.8810   34.8370   42.2860 H   0  0  0  0  0  0  0  0  0  0  0  0
   49.0960   32.8650   43.1630 H   0  0  0  0  0  0  0  0  0  0  0  0
   46.6170   33.4710   42.3400 C   0  0  0  0  0  0  0  0  0  0  0  0
   46.7910   32.3780   42.5320 H   0  0  0  0  0  0  0  0  0  0  0  0
   45.8610   33.4370   41.5250 H   0  0  0  0  0  0  0  0  0  0  0  0
   44.5700   35.7430   44.5720 C   0  0  0  0  0  0  0  0  0  0  0  0
   45.1970   35.2550   43.3840 C   0  0  0  0  0  0  0  0  0  0  0  0
   45.9540   34.0900   43.4690 C   0  0  0  0  0  0  0  0  0  0  0  0
   46.0480   33.4960   44.6760 N   0  0  0  0  0  0  0  0  0  0  0  0
   45.4390   33.9750   45.8180 C   0  0  0  0  0  0  0  0  0  0  0  0
   44.7080   35.0880   45.7620 N   0  0  0  0  0  0  0  0  0  0  0  0
   43.9810   36.6620   44.4670 H   0  0  0  0  0  0  0  0  0  0  0  0
   45.0960   35.7570   42.4500 H   0  0  0  0  0  0  0  0  0  0  0  0
   45.5980   33.4020   46.7100 H   0  0  0  0  0  0  0  0  0  0  0  0
   49.6760   33.0610   41.1510 O   0  0  0  0  0  0  0  0  0  0  0  0
   50.7250   31.2270   42.7590 O   0  0  0  0  0  0  0  0  0  0  0  0
   50.7420   31.8100   41.3720 P   0  0  2  0  0  0  0  0  0  0  0  0
   52.3120   32.4350   41.1530 O   0  0  0  0  0  0  0  0  0  0  0  0
   52.3040   33.1170   40.4350 H   0  0  0  0  0  0  0  0  0  0  0  0
   50.5820   30.6120   40.1880 O   0  0  0  0  0  0  0  0  0  0  0  0
   51.3240   30.7950   37.9010 C   0  0  1  0  0  3  0  0  0  0  0  0
   50.2810   31.0640   38.9510 C   0  0  1  0  0  3  0  0  0  0  0  0
   49.0040   30.6040   38.3540 C   0  0  0  0  0  3  0  0  0  0  0  0
   48.4160   29.9200   38.9960 H   0  0  0  0  0  0  0  0  0  0  0  0
   49.2640   30.0190   37.1160 O   0  0  0  0  0  0  0  0  0  0  0  0
   50.6220   29.7640   37.0410 C   0  0  0  0  0  3  0  0  0  0  0  0
   51.0040   29.7350   36.0170 H   0  0  0  0  0  0  0  0  0  0  0  0
   51.5500   31.9160   37.0940 O   0  0  0  0  0  0  0  0  0  0  0  0
   51.6200   31.6600   36.1410 H   0  0  0  0  0  0  0  0  0  0  0  0
  1  5  1  0  0  0  0
  1 11  1  0  0  0  0
  2  3  2  0  0  0  0
  2  1  1  0  0  0  0
  3  4  1  0  0  0  0
  4  8  1  0  0  0  0
  5  4  1  0  0  0  0
  5 10  1  1  0  0  0
  6  2  1  0  0  0  0
  7  3  1  0  0  0  0
  9  4  1  0  0  0  0
 11 12  1  0  0  0  0
 11 16  1  0  0  0  0
 13 11  1  0  0  0  0
 14 19  1  0  0  0  0
 15 16  1  0  0  0  0
 15 14  2  0  0  0  0
 16 17  2  0  0  0  0
 17 18  1  0  0  0  0
 18 22  1  0  0  0  0
 19 18  2  0  0  0  0
 20 14  1  0  0  0  0
 21 15  1  0  0  0  0
 23 25  1  0  0  0  0
 23  5  1  0  0  0  0
 25 24  2  1  0  0  0
 26 25  1  0  0  0  0
 27 26  1  0  0  0  0
 28 25  1  0  0  0  0
 29 36  1  6  0  0  0
 29 30  1  0  0  0  0
 30 28  1  1  0  0  0
 31 30  1  0  0  0  0
 31 32  1  0  0  0  0
 33 31  1  0  0  0  0
 34 33  1  0  0  0  0
 34 29  1  0  0  0  0
 35 34  1  0  0  0  0
 37 36  1  0  0  0  0
M  END
>  <minimizedAffinity>
-5.26432419

>  <minimizedRMSD>
1.64761567

$$$$
