
 OpenBabel03252508073D

 44 47  0  0  1  0  0  0  0  0999 V2000
   45.2490   35.8600   42.9180 C   0  0  0  0  0  0  0  0  0  0  0  0
   45.5160   34.5000   42.9460 C   0  0  0  0  0  0  0  0  0  0  0  0
   45.3210   33.7840   44.1010 C   0  0  0  0  0  0  0  0  0  0  0  0
   44.8520   34.4840   45.1970 N   0  0  0  0  0  0  0  0  0  0  0  0
   44.5960   35.7880   45.1640 C   0  0  0  0  0  0  0  0  0  0  0  0
   44.8000   36.4660   44.0140 N   0  0  0  0  0  0  0  0  0  0  0  0
   45.4040   36.4360   42.0000 H   0  0  0  0  0  0  0  0  0  0  0  0
   44.2330   36.3160   46.0300 H   0  0  0  0  0  0  0  0  0  0  0  0
   45.5450   32.4020   44.2930 C   0  0  0  0  0  0  0  0  0  0  0  0
   45.1010   31.4070   43.4170 C   0  0  0  0  0  0  0  0  0  0  0  0
   45.2590   30.0620   43.6340 C   0  0  0  0  0  0  0  0  0  0  0  0
   45.8880   29.6280   44.7740 C   0  0  0  0  0  0  0  0  0  0  0  0
   46.3490   30.6210   45.6780 C   0  0  0  0  0  0  0  0  0  0  0  0
   46.9750   30.1990   46.8230 C   0  0  0  0  0  0  0  0  0  0  0  0
   47.4480   31.1110   47.7460 C   0  0  0  0  0  0  0  0  0  0  0  0
   47.2830   32.4860   47.5020 C   0  0  0  0  0  0  0  0  0  0  0  0
   46.6340   32.8700   46.3150 C   0  0  0  0  0  0  0  0  0  0  0  0
   46.1730   31.9410   45.4220 C   0  0  0  0  0  0  0  0  0  0  0  0
   44.6010   31.7460   42.5100 H   0  0  0  0  0  0  0  0  0  0  0  0
   44.8740   29.3760   42.8830 H   0  0  0  0  0  0  0  0  0  0  0  0
   46.0270   28.5740   44.9750 H   0  0  0  0  0  0  0  0  0  0  0  0
   47.1000   29.1260   47.0020 H   0  0  0  0  0  0  0  0  0  0  0  0
   47.9280   30.7080   48.6210 H   0  0  0  0  0  0  0  0  0  0  0  0
   47.6820   33.1090   48.2720 H   0  0  0  0  0  0  0  0  0  0  0  0
   46.6250   33.9390   46.3000 H   0  0  0  0  0  0  0  0  0  0  0  0
   45.9710   33.9280   41.7900 O   0  0  0  0  0  0  0  0  0  0  0  0
   48.0180   32.4050   41.1970 O   0  0  0  0  0  0  0  0  0  0  0  0
   47.6020   33.8260   41.3420 P   0  0  1  0  0  0  0  0  0  0  0  0
   47.8630   34.5740   39.8450 O   0  0  0  0  0  0  0  0  0  0  0  0
   48.4710   32.4110   38.9750 C   0  0  1  0  0  3  0  0  0  0  0  0
   47.6830   33.7160   38.7900 C   0  0  1  0  0  3  0  0  0  0  0  0
   46.2850   33.1430   38.7050 C   0  0  0  0  0  3  0  0  0  0  0  0
   45.9940   32.9430   39.7780 H   0  0  0  0  0  0  0  0  0  0  0  0
   46.3810   31.8910   38.1210 O   0  0  0  0  0  0  0  0  0  0  0  0
   47.7100   31.5820   37.9560 C   0  0  0  0  0  3  0  0  0  0  0  0
   47.9530   30.5200   38.0010 H   0  0  0  0  0  0  0  0  0  0  0  0
   49.8010   32.5840   38.6110 O   0  0  0  0  0  0  0  0  0  0  0  0
   50.3190   32.7550   39.4530 H   0  0  0  0  0  0  0  0  0  0  0  0
   48.5170   34.6140   42.5070 O   0  0  0  0  0  0  0  0  0  0  0  0
   49.7250   35.2630   42.3130 C   0  0  0  0  0  0  0  0  0  0  0  0
   49.4150   36.3730   41.8420 O   0  0  0  0  0  0  0  0  0  0  0  0
   50.8280   34.4280   42.7190 N   0  0  0  0  0  0  0  0  0  0  0  0
   50.9320   34.2990   43.7590 H   0  0  0  0  0  0  0  0  0  0  0  0
   51.5410   33.9280   42.1440 H   0  0  0  0  0  0  0  0  0  0  0  0
  1  2  2  0  0  0  0
  1  6  1  0  0  0  0
  2  3  1  0  0  0  0
  3  9  1  0  0  0  0
  3  4  2  0  0  0  0
  5  4  1  0  0  0  0
  5  8  1  0  0  0  0
  6  5  2  0  0  0  0
  7  1  1  0  0  0  0
  9 18  1  0  0  0  0
 10 11  1  0  0  0  0
 10  9  2  0  0  0  0
 11 12  2  0  0  0  0
 12 21  1  0  0  0  0
 12 13  1  0  0  0  0
 13 14  1  0  0  0  0
 14 22  1  0  0  0  0
 14 15  2  0  0  0  0
 15 23  1  0  0  0  0
 16 15  1  0  0  0  0
 16 24  1  0  0  0  0
 17 16  2  0  0  0  0
 18 13  2  0  0  0  0
 18 17  1  0  0  0  0
 19 10  1  0  0  0  0
 20 11  1  0  0  0  0
 25 17  1  0  0  0  0
 26  2  1  0  0  0  0
 28 27  2  6  0  0  0
 28 26  1  0  0  0  0
 28 39  1  0  0  0  0
 29 28  1  0  0  0  0
 30 37  1  6  0  0  0
 31 30  1  0  0  0  0
 31 29  1  1  0  0  0
 32 31  1  0  0  0  0
 32 33  1  0  0  0  0
 34 32  1  0  0  0  0
 35 36  1  0  0  0  0
 35 34  1  0  0  0  0
 35 30  1  0  0  0  0
 37 38  1  0  0  0  0
 40 39  1  0  0  0  0
 40 42  1  0  0  0  0
 41 40  2  0  0  0  0
 42 43  1  0  0  0  0
 44 42  1  0  0  0  0
M  END
>  <minimizedAffinity>
-6.14384413

>  <minimizedRMSD>
0.518837631

$$$$
