
 OpenBabel03252508073D

 44 47  0  0  1  0  0  0  0  0999 V2000
   45.3200   36.3300   42.7870 C   0  0  0  0  0  0  0  0  0  0  0  0
   45.4520   34.9530   42.7110 C   0  0  0  0  0  0  0  0  0  0  0  0
   45.1350   34.1700   43.7940 C   0  0  0  0  0  0  0  0  0  0  0  0
   44.6870   34.8250   44.9270 N   0  0  0  0  0  0  0  0  0  0  0  0
   44.5620   36.1460   44.9930 C   0  0  0  0  0  0  0  0  0  0  0  0
   44.8820   36.8890   43.9130 N   0  0  0  0  0  0  0  0  0  0  0  0
   45.5710   36.9600   41.9280 H   0  0  0  0  0  0  0  0  0  0  0  0
   44.2120   36.6370   45.8860 H   0  0  0  0  0  0  0  0  0  0  0  0
   45.2150   32.7620   43.8780 C   0  0  0  0  0  0  0  0  0  0  0  0
   44.6000   31.8870   42.9770 C   0  0  0  0  0  0  0  0  0  0  0  0
   44.6200   30.5220   43.0930 C   0  0  0  0  0  0  0  0  0  0  0  0
   45.2760   29.9390   44.1490 C   0  0  0  0  0  0  0  0  0  0  0  0
   45.9080   30.8080   45.0760 C   0  0  0  0  0  0  0  0  0  0  0  0
   46.5630   30.2390   46.1390 C   0  0  0  0  0  0  0  0  0  0  0  0
   47.2000   31.0240   47.0790 C   0  0  0  0  0  0  0  0  0  0  0  0
   47.1750   32.4230   46.9380 C   0  0  0  0  0  0  0  0  0  0  0  0
   46.4900   32.9600   45.8330 C   0  0  0  0  0  0  0  0  0  0  0  0
   45.8650   32.1550   44.9210 C   0  0  0  0  0  0  0  0  0  0  0  0
   44.0780   32.3440   42.1360 H   0  0  0  0  0  0  0  0  0  0  0  0
   44.1080   29.9370   42.3320 H   0  0  0  0  0  0  0  0  0  0  0  0
   45.3090   28.8650   44.2690 H   0  0  0  0  0  0  0  0  0  0  0  0
   46.5780   29.1480   46.2370 H   0  0  0  0  0  0  0  0  0  0  0  0
   47.6930   30.5090   47.8860 H   0  0  0  0  0  0  0  0  0  0  0  0
   47.6960   32.9410   47.7130 H   0  0  0  0  0  0  0  0  0  0  0  0
   46.6020   34.0220   45.8890 H   0  0  0  0  0  0  0  0  0  0  0  0
   45.9010   34.4320   41.5300 O   0  0  0  0  0  0  0  0  0  0  0  0
   47.5680   32.4350   41.2270 O   0  0  0  0  0  0  0  0  0  0  0  0
   47.4910   33.9200   41.2450 P   0  0  1  0  0  0  0  0  0  0  0  0
   48.0370   34.4610   39.7350 O   0  0  0  0  0  0  0  0  0  0  0  0
   48.0580   34.0350   37.3640 C   0  0  1  0  0  3  0  0  0  0  0  0
   48.0410   33.4670   38.7900 C   0  0  1  0  0  3  0  0  0  0  0  0
   49.3300   32.6730   38.7490 C   0  0  0  0  0  3  0  0  0  0  0  0
   50.1410   33.4440   38.9040 H   0  0  0  0  0  0  0  0  0  0  0  0
   49.5040   32.2280   37.4490 O   0  0  0  0  0  0  0  0  0  0  0  0
   48.5210   32.7730   36.6590 C   0  0  0  0  0  3  0  0  0  0  0  0
   48.7960   32.9390   35.6170 H   0  0  0  0  0  0  0  0  0  0  0  0
   46.7800   34.4090   36.9680 O   0  0  0  0  0  0  0  0  0  0  0  0
   46.6980   35.3970   37.1220 H   0  0  0  0  0  0  0  0  0  0  0  0
   48.4740   34.5690   42.4390 O   0  0  0  0  0  0  0  0  0  0  0  0
   49.6610   35.2590   42.2510 C   0  0  0  0  0  0  0  0  0  0  0  0
   49.3200   36.3410   41.7380 O   0  0  0  0  0  0  0  0  0  0  0  0
   50.7850   34.4810   42.7090 N   0  0  0  0  0  0  0  0  0  0  0  0
   50.8690   34.3890   43.7550 H   0  0  0  0  0  0  0  0  0  0  0  0
   51.5310   33.9920   42.1670 H   0  0  0  0  0  0  0  0  0  0  0  0
  1  6  1  0  0  0  0
  2  1  2  0  0  0  0
  2  3  1  0  0  0  0
  3  9  1  0  0  0  0
  3  4  2  0  0  0  0
  4  5  1  0  0  0  0
  5  8  1  0  0  0  0
  6  5  2  0  0  0  0
  7  1  1  0  0  0  0
  9 18  1  0  0  0  0
 10 11  1  0  0  0  0
 10  9  2  0  0  0  0
 11 12  2  0  0  0  0
 12 21  1  0  0  0  0
 12 13  1  0  0  0  0
 13 14  1  0  0  0  0
 14 22  1  0  0  0  0
 14 15  2  0  0  0  0
 15 23  1  0  0  0  0
 16 15  1  0  0  0  0
 16 24  1  0  0  0  0
 17 25  1  0  0  0  0
 17 16  2  0  0  0  0
 18 13  2  0  0  0  0
 18 17  1  0  0  0  0
 19 10  1  0  0  0  0
 20 11  1  0  0  0  0
 26  2  1  0  0  0  0
 28 27  2  1  0  0  0
 28 26  1  0  0  0  0
 28 39  1  0  0  0  0
 29 28  1  0  0  0  0
 30 37  1  6  0  0  0
 30 31  1  0  0  0  0
 31 29  1  1  0  0  0
 32 31  1  0  0  0  0
 32 33  1  0  0  0  0
 34 32  1  0  0  0  0
 35 30  1  0  0  0  0
 35 34  1  0  0  0  0
 36 35  1  0  0  0  0
 37 38  1  0  0  0  0
 40 39  1  0  0  0  0
 40 42  1  0  0  0  0
 41 40  2  0  0  0  0
 42 43  1  0  0  0  0
 44 42  1  0  0  0  0
M  END
>  <minimizedAffinity>
-6.33054399

>  <minimizedRMSD>
0.451848626

$$$$
