
 OpenBabel03242512543D

 29 30  0  0  1  0  0  0  0  0999 V2000
   44.5870   40.6870   45.5880 O   0  0  0  0  0  0  0  0  0  0  0  0
   45.3770   40.4660   44.4780 C   0  0  0  0  0  0  0  0  0  0  0  0
   45.1570   41.2100   43.6840 H   0  0  0  0  0  0  0  0  0  0  0  0
   46.4310   40.6730   44.7760 H   0  0  0  0  0  0  0  0  0  0  0  0
   44.9270   38.0690   44.8110 C   0  0  0  0  0  0  0  0  0  0  0  0
   45.3330   39.0630   44.0430 C   0  0  0  0  0  0  0  0  0  0  0  0
   44.9730   36.7250   44.2630 C   0  0  0  0  0  0  0  0  0  0  0  0
   45.1270   36.5530   42.8800 C   0  0  0  0  0  0  0  0  0  0  0  0
   45.1780   35.2480   42.3630 C   0  0  0  0  0  0  0  0  0  0  0  0
   45.0750   34.2080   43.2230 N   0  0  0  0  0  0  0  0  0  0  0  0
   44.9260   34.4040   44.5600 C   0  0  0  0  0  0  0  0  0  0  0  0
   44.8800   35.6420   45.0370 N   0  0  0  0  0  0  0  0  0  0  0  0
   45.2100   37.3570   42.1630 H   0  0  0  0  0  0  0  0  0  0  0  0
   45.2940   35.0510   41.3090 H   0  0  0  0  0  0  0  0  0  0  0  0
   44.8560   33.4890   45.1280 H   0  0  0  0  0  0  0  0  0  0  0  0
   44.3360   42.8710   46.9270 O   0  0  0  0  0  0  0  0  0  0  0  0
   43.9430   42.2540   45.5960 P   0  0  1  0  0  0  0  0  0  0  0  0
   44.6190   43.1570   44.3350 O   0  0  0  0  0  0  0  0  0  0  0  0
   43.9770   43.2890   43.5890 H   0  0  0  0  0  0  0  0  0  0  0  0
   42.2970   42.2720   45.4220 O   0  0  0  0  0  0  0  0  0  0  0  0
   41.3950   44.2570   44.3830 C   0  0  1  0  0  0  0  0  0  0  0  0
   41.6280   43.4240   45.6150 C   0  0  1  0  0  0  0  0  0  0  0  0
   40.2890   43.3560   46.2570 C   0  0  0  0  0  0  0  0  0  0  0  0
   40.1700   44.0240   47.1440 H   0  0  0  0  0  0  0  0  0  0  0  0
   39.3360   43.7920   45.3510 O   0  0  0  0  0  0  0  0  0  0  0  0
   39.9310   44.0550   44.1440 C   0  0  0  0  0  0  0  0  0  0  0  0
   39.7010   43.3050   43.3430 H   0  0  0  0  0  0  0  0  0  0  0  0
   41.5590   45.6310   44.6580 O   0  0  0  0  0  0  0  0  0  0  0  0
   41.5400   46.0680   43.7490 H   0  0  0  0  0  0  0  0  0  0  0  0
  1 17  1  0  0  0  0
  2  4  1  0  0  0  0
  2  1  1  0  0  0  0
  3  2  1  0  0  0  0
  6  2  1  0  0  0  0
  6  5  2  0  0  0  0
  7  5  1  0  0  0  0
  7 12  1  0  0  0  0
  8  7  2  0  0  0  0
  9  8  1  0  0  0  0
  9 10  2  0  0  0  0
 10 11  1  0  0  0  0
 11 12  2  0  0  0  0
 11 15  1  0  0  0  0
 13  8  1  0  0  0  0
 14  9  1  0  0  0  0
 17 16  2  1  0  0  0
 18 17  1  0  0  0  0
 19 18  1  0  0  0  0
 20 17  1  0  0  0  0
 21 28  1  1  0  0  0
 21 22  1  0  0  0  0
 22 20  1  6  0  0  0
 22 23  1  0  0  0  0
 23 24  1  0  0  0  0
 25 23  1  0  0  0  0
 26 21  1  0  0  0  0
 26 25  1  0  0  0  0
 27 26  1  0  0  0  0
 29 28  1  0  0  0  0
M  END
>  <minimizedAffinity>
-2.81958842

>  <minimizedRMSD>
2.35207582

$$$$
