
 OpenBabel03252508073D

 44 47  0  0  1  0  0  0  0  0999 V2000
   45.1810   35.5870   43.1130 C   0  0  0  0  0  0  0  0  0  0  0  0
   45.5390   34.2500   43.1830 C   0  0  0  0  0  0  0  0  0  0  0  0
   45.4390   33.5700   44.3720 C   0  0  0  0  0  0  0  0  0  0  0  0
   44.9690   34.2830   45.4590 N   0  0  0  0  0  0  0  0  0  0  0  0
   44.6260   35.5650   45.3870 C   0  0  0  0  0  0  0  0  0  0  0  0
   44.7370   36.2070   44.2040 N   0  0  0  0  0  0  0  0  0  0  0  0
   45.2600   36.1340   42.1690 H   0  0  0  0  0  0  0  0  0  0  0  0
   44.2630   36.1040   46.2460 H   0  0  0  0  0  0  0  0  0  0  0  0
   45.7630   32.2150   44.6070 C   0  0  0  0  0  0  0  0  0  0  0  0
   45.4140   31.1660   43.7510 C   0  0  0  0  0  0  0  0  0  0  0  0
   45.6670   29.8440   44.0080 C   0  0  0  0  0  0  0  0  0  0  0  0
   46.3030   29.4890   45.1720 C   0  0  0  0  0  0  0  0  0  0  0  0
   46.6680   30.5370   46.0560 C   0  0  0  0  0  0  0  0  0  0  0  0
   47.3010   30.1950   47.2240 C   0  0  0  0  0  0  0  0  0  0  0  0
   47.6830   31.1640   48.1300 C   0  0  0  0  0  0  0  0  0  0  0  0
   47.4210   32.5160   47.8440 C   0  0  0  0  0  0  0  0  0  0  0  0
   46.7700   32.8180   46.6350 C   0  0  0  0  0  0  0  0  0  0  0  0
   46.3990   31.8330   45.7590 C   0  0  0  0  0  0  0  0  0  0  0  0
   44.9080   31.4430   42.8250 H   0  0  0  0  0  0  0  0  0  0  0  0
   45.3520   29.1110   43.2700 H   0  0  0  0  0  0  0  0  0  0  0  0
   46.5170   28.4540   45.4050 H   0  0  0  0  0  0  0  0  0  0  0  0
   47.5020   29.1390   47.4360 H   0  0  0  0  0  0  0  0  0  0  0  0
   48.1740   30.8220   49.0250 H   0  0  0  0  0  0  0  0  0  0  0  0
   47.7560   33.1870   48.6040 H   0  0  0  0  0  0  0  0  0  0  0  0
   46.6810   33.8820   46.5900 H   0  0  0  0  0  0  0  0  0  0  0  0
   45.9850   33.6610   42.0310 O   0  0  0  0  0  0  0  0  0  0  0  0
   48.1540   32.3990   41.2830 O   0  0  0  0  0  0  0  0  0  0  0  0
   47.5740   33.7580   41.4510 P   0  0  1  0  0  0  0  0  0  0  0  0
   47.6160   34.5060   39.9320 O   0  0  0  0  0  0  0  0  0  0  0  0
   46.3930   33.1490   38.3610 C   0  0  1  0  0  3  0  0  0  0  0  0
   47.7540   33.6060   38.9060 C   0  0  1  0  0  3  0  0  0  0  0  0
   48.3300   34.2090   37.6420 C   0  0  0  0  0  3  0  0  0  0  0  0
   47.8480   35.2270   37.5690 H   0  0  0  0  0  0  0  0  0  0  0  0
   47.8220   33.4950   36.5700 O   0  0  0  0  0  0  0  0  0  0  0  0
   46.8920   32.5970   37.0380 C   0  0  0  0  0  3  0  0  0  0  0  0
   46.0870   32.3530   36.3440 H   0  0  0  0  0  0  0  0  0  0  0  0
   45.8490   32.1540   39.1640 O   0  0  0  0  0  0  0  0  0  0  0  0
   45.2010   32.5970   39.7880 H   0  0  0  0  0  0  0  0  0  0  0  0
   48.4720   34.6770   42.5310 O   0  0  0  0  0  0  0  0  0  0  0  0
   49.6870   35.2940   42.2830 C   0  0  0  0  0  0  0  0  0  0  0  0
   49.3880   36.3790   41.7510 O   0  0  0  0  0  0  0  0  0  0  0  0
   50.7820   34.4670   42.7240 N   0  0  0  0  0  0  0  0  0  0  0  0
   50.8990   34.3970   43.7680 H   0  0  0  0  0  0  0  0  0  0  0  0
   51.4800   33.9220   42.1700 H   0  0  0  0  0  0  0  0  0  0  0  0
  1  2  2  0  0  0  0
  1  6  1  0  0  0  0
  2  3  1  0  0  0  0
  3  9  1  0  0  0  0
  3  4  2  0  0  0  0
  5  4  1  0  0  0  0
  5  8  1  0  0  0  0
  6  5  2  0  0  0  0
  7  1  1  0  0  0  0
  9 18  1  0  0  0  0
 10 11  1  0  0  0  0
 10  9  2  0  0  0  0
 11 12  2  0  0  0  0
 12 21  1  0  0  0  0
 12 13  1  0  0  0  0
 13 14  1  0  0  0  0
 14 22  1  0  0  0  0
 14 15  2  0  0  0  0
 15 23  1  0  0  0  0
 16 15  1  0  0  0  0
 16 24  1  0  0  0  0
 17 16  2  0  0  0  0
 18 13  2  0  0  0  0
 18 17  1  0  0  0  0
 19 10  1  0  0  0  0
 20 11  1  0  0  0  0
 25 17  1  0  0  0  0
 26  2  1  0  0  0  0
 28 27  2  6  0  0  0
 28 26  1  0  0  0  0
 28 39  1  0  0  0  0
 29 28  1  0  0  0  0
 30 31  1  0  0  0  0
 30 37  1  1  0  0  0
 31 29  1  1  0  0  0
 32 31  1  0  0  0  0
 33 32  1  0  0  0  0
 34 35  1  0  0  0  0
 34 32  1  0  0  0  0
 35 30  1  0  0  0  0
 36 35  1  0  0  0  0
 37 38  1  0  0  0  0
 40 39  1  0  0  0  0
 40 42  1  0  0  0  0
 41 40  2  0  0  0  0
 42 43  1  0  0  0  0
 44 42  1  0  0  0  0
M  END
>  <minimizedAffinity>
-6.32712746

>  <minimizedRMSD>
0.688461304

$$$$
