
 OpenBabel03252508073D

 44 47  0  0  1  0  0  0  0  0999 V2000
   45.3440   36.0990   42.6960 C   0  0  0  0  0  0  0  0  0  0  0  0
   45.5330   34.7260   42.7040 C   0  0  0  0  0  0  0  0  0  0  0  0
   45.2490   33.9980   43.8330 C   0  0  0  0  0  0  0  0  0  0  0  0
   44.7740   34.7010   44.9240 N   0  0  0  0  0  0  0  0  0  0  0  0
   44.5920   36.0180   44.9110 C   0  0  0  0  0  0  0  0  0  0  0  0
   44.8820   36.7060   43.7860 N   0  0  0  0  0  0  0  0  0  0  0  0
   45.5690   36.6840   41.7990 H   0  0  0  0  0  0  0  0  0  0  0  0
   44.2220   36.5470   45.7720 H   0  0  0  0  0  0  0  0  0  0  0  0
   45.3870   32.6020   44.0020 C   0  0  0  0  0  0  0  0  0  0  0  0
   44.8680   31.6500   43.1190 C   0  0  0  0  0  0  0  0  0  0  0  0
   44.9430   30.2950   43.3140 C   0  0  0  0  0  0  0  0  0  0  0  0
   45.5600   29.8050   44.4380 C   0  0  0  0  0  0  0  0  0  0  0  0
   46.0960   30.7530   45.3480 C   0  0  0  0  0  0  0  0  0  0  0  0
   46.7120   30.2750   46.4770 C   0  0  0  0  0  0  0  0  0  0  0  0
   47.2550   31.1410   47.4050 C   0  0  0  0  0  0  0  0  0  0  0  0
   47.1740   32.5270   47.1830 C   0  0  0  0  0  0  0  0  0  0  0  0
   46.5330   32.9690   46.0120 C   0  0  0  0  0  0  0  0  0  0  0  0
   46.0010   32.0850   45.1130 C   0  0  0  0  0  0  0  0  0  0  0  0
   44.3770   32.0350   42.2250 H   0  0  0  0  0  0  0  0  0  0  0  0
   44.5040   29.6460   42.5600 H   0  0  0  0  0  0  0  0  0  0  0  0
   45.6350   28.7410   44.6210 H   0  0  0  0  0  0  0  0  0  0  0  0
   46.7710   29.1930   46.6390 H   0  0  0  0  0  0  0  0  0  0  0  0
   47.7210   30.6950   48.2670 H   0  0  0  0  0  0  0  0  0  0  0  0
   47.6240   33.1110   47.9550 H   0  0  0  0  0  0  0  0  0  0  0  0
   46.5930   34.0370   46.0130 H   0  0  0  0  0  0  0  0  0  0  0  0
   46.0050   34.1530   41.5550 O   0  0  0  0  0  0  0  0  0  0  0  0
   47.8910   32.3930   41.1050 O   0  0  0  0  0  0  0  0  0  0  0  0
   47.6400   33.8530   41.2280 P   0  0  1  0  0  0  0  0  0  0  0  0
   48.1000   34.5610   39.7590 O   0  0  0  0  0  0  0  0  0  0  0  0
   48.7070   33.0370   37.9940 C   0  0  1  0  0  3  0  0  0  0  0  0
   47.6160   33.8780   38.6720 C   0  0  1  0  0  3  0  0  0  0  0  0
   46.6480   32.7710   39.0330 C   0  0  0  0  0  3  0  0  0  0  0  0
   47.0810   32.3070   39.9660 H   0  0  0  0  0  0  0  0  0  0  0  0
   46.7570   31.7890   38.0610 O   0  0  0  0  0  0  0  0  0  0  0  0
   47.7830   32.1200   37.2120 C   0  0  0  0  0  3  0  0  0  0  0  0
   48.3040   31.2770   36.7550 H   0  0  0  0  0  0  0  0  0  0  0  0
   49.4850   33.8250   37.1550 O   0  0  0  0  0  0  0  0  0  0  0  0
   50.3100   34.0790   37.6670 H   0  0  0  0  0  0  0  0  0  0  0  0
   48.5540   34.5280   42.4620 O   0  0  0  0  0  0  0  0  0  0  0  0
   49.7440   35.2260   42.3260 C   0  0  0  0  0  0  0  0  0  0  0  0
   49.4060   36.3480   41.9050 O   0  0  0  0  0  0  0  0  0  0  0  0
   50.8660   34.4080   42.7130 N   0  0  0  0  0  0  0  0  0  0  0  0
   50.9540   34.2300   43.7480 H   0  0  0  0  0  0  0  0  0  0  0  0
   51.6070   33.9620   42.1300 H   0  0  0  0  0  0  0  0  0  0  0  0
  1  2  2  0  0  0  0
  1  6  1  0  0  0  0
  2  3  1  0  0  0  0
  3  9  1  0  0  0  0
  3  4  2  0  0  0  0
  5  4  1  0  0  0  0
  5  8  1  0  0  0  0
  6  5  2  0  0  0  0
  7  1  1  0  0  0  0
  9 18  1  0  0  0  0
 10 11  1  0  0  0  0
 10  9  2  0  0  0  0
 11 12  2  0  0  0  0
 12 21  1  0  0  0  0
 12 13  1  0  0  0  0
 13 14  1  0  0  0  0
 14 22  1  0  0  0  0
 14 15  2  0  0  0  0
 15 23  1  0  0  0  0
 16 15  1  0  0  0  0
 16 24  1  0  0  0  0
 17 25  1  0  0  0  0
 17 16  2  0  0  0  0
 18 13  2  0  0  0  0
 18 17  1  0  0  0  0
 19 10  1  0  0  0  0
 20 11  1  0  0  0  0
 26  2  1  0  0  0  0
 28 27  2  6  0  0  0
 28 26  1  0  0  0  0
 28 39  1  0  0  0  0
 29 28  1  0  0  0  0
 30 37  1  6  0  0  0
 30 31  1  0  0  0  0
 31 32  1  0  0  0  0
 31 29  1  1  0  0  0
 32 33  1  0  0  0  0
 34 32  1  0  0  0  0
 35 30  1  0  0  0  0
 35 34  1  0  0  0  0
 36 35  1  0  0  0  0
 37 38  1  0  0  0  0
 40 39  1  0  0  0  0
 40 42  1  0  0  0  0
 41 40  2  0  0  0  0
 42 43  1  0  0  0  0
 44 42  1  0  0  0  0
M  END
>  <minimizedAffinity>
-6.18210554

>  <minimizedRMSD>
0.674860656

$$$$
