
 OpenBabel03252502233D

 34 36  0  0  1  0  0  0  0  0999 V2000
   46.8020   34.5870   42.2270 N   0  0  0  0  0  0  0  0  0  0  0  0
   48.2630   34.6530   42.2500 C   0  0  0  0  0  0  0  0  0  0  0  0
   48.6260   35.4080   40.9730 C   0  0  0  0  0  0  0  0  0  0  0  0
   48.2490   34.6040   39.7690 C   0  0  0  0  0  0  0  0  0  0  0  0
   46.9320   33.8900   39.8780 C   0  0  0  0  0  0  0  0  0  0  0  0
   46.0790   34.3290   41.0310 C   0  0  1  0  0  0  0  0  0  0  0  0
   48.6720   33.6260   42.1810 H   0  0  0  0  0  0  0  0  0  0  0  0
   48.6250   35.2180   43.1310 H   0  0  0  0  0  0  0  0  0  0  0  0
   48.0820   36.3750   41.0090 H   0  0  0  0  0  0  0  0  0  0  0  0
   49.7260   35.5530   41.0010 H   0  0  0  0  0  0  0  0  0  0  0  0
   48.3120   35.2640   38.8750 H   0  0  0  0  0  0  0  0  0  0  0  0
   49.0390   33.8230   39.6190 H   0  0  0  0  0  0  0  0  0  0  0  0
   47.0340   32.7840   39.9010 H   0  0  0  0  0  0  0  0  0  0  0  0
   46.3640   34.1040   38.9480 H   0  0  0  0  0  0  0  0  0  0  0  0
   45.4950   35.2390   40.7620 H   0  0  0  0  0  0  0  0  0  0  0  0
   44.5050   35.9670   44.8190 C   0  0  0  0  0  0  0  0  0  0  0  0
   45.1920   35.8830   43.5940 C   0  0  0  0  0  0  0  0  0  0  0  0
   46.0480   34.7840   43.4270 C   0  0  0  0  0  0  0  0  0  0  0  0
   46.1540   33.8800   44.4490 N   0  0  0  0  0  0  0  0  0  0  0  0
   45.4710   34.0050   45.6100 C   0  0  0  0  0  0  0  0  0  0  0  0
   44.6420   35.0580   45.7900 N   0  0  0  0  0  0  0  0  0  0  0  0
   43.8290   36.8080   44.9870 H   0  0  0  0  0  0  0  0  0  0  0  0
   45.0940   36.5970   42.8170 H   0  0  0  0  0  0  0  0  0  0  0  0
   45.6420   33.2240   46.3370 H   0  0  0  0  0  0  0  0  0  0  0  0
   45.1500   33.2900   41.2610 O   0  0  0  0  0  0  0  0  0  0  0  0
   43.3560   33.8040   39.7430 C   0  0  1  0  0  0  0  0  0  0  0  0
   43.8670   33.7750   41.1880 C   0  0  1  0  0  0  0  0  0  0  0  0
   42.9070   32.8230   41.8240 C   0  0  0  0  0  0  0  0  0  0  0  0
   42.2930   33.3800   42.5600 H   0  0  0  0  0  0  0  0  0  0  0  0
   42.0260   32.3650   40.8480 O   0  0  0  0  0  0  0  0  0  0  0  0
   41.8920   33.4510   40.0020 C   0  0  0  0  0  0  0  0  0  0  0  0
   41.3650   33.2150   39.0610 H   0  0  0  0  0  0  0  0  0  0  0  0
   43.4010   35.0570   39.1820 O   0  0  0  0  0  0  0  0  0  0  0  0
   44.1550   35.1710   38.5490 H   0  0  0  0  0  0  0  0  0  0  0  0
  1  2  1  0  0  0  0
  1 18  1  0  0  0  0
  2  8  1  0  0  0  0
  3 10  1  0  0  0  0
  3  9  1  0  0  0  0
  3  2  1  0  0  0  0
  4  5  1  0  0  0  0
  4  3  1  0  0  0  0
  5 13  1  0  0  0  0
  5  6  1  0  0  0  0
  6 15  1  6  0  0  0
  6 25  1  0  0  0  0
  6  1  1  0  0  0  0
  7  2  1  0  0  0  0
 11  4  1  0  0  0  0
 12  4  1  0  0  0  0
 14  5  1  0  0  0  0
 16 22  1  0  0  0  0
 16 21  1  0  0  0  0
 17 16  2  0  0  0  0
 18 17  1  0  0  0  0
 18 19  2  0  0  0  0
 19 20  1  0  0  0  0
 20 21  2  0  0  0  0
 20 24  1  0  0  0  0
 23 17  1  0  0  0  0
 26 33  1  1  0  0  0
 26 31  1  0  0  0  0
 26 27  1  0  0  0  0
 27 25  1  6  0  0  0
 27 28  1  0  0  0  0
 28 29  1  0  0  0  0
 30 28  1  0  0  0  0
 31 30  1  0  0  0  0
 32 31  1  0  0  0  0
 34 33  1  0  0  0  0
M  END
>  <minimizedAffinity>
-5.54257774

>  <minimizedRMSD>
0.37792781

$$$$
