
 OpenBabel03252506453D

 42 45  0  0  1  0  0  0  0  0999 V2000
   49.3990   33.3110   41.4250 N   0  0  1  0  0  0  0  0  0  0  0  0
   50.6790   33.1250   42.0780 C   0  0  0  0  0  0  0  0  0  0  0  0
   51.3110   31.8040   41.7450 C   0  0  0  0  0  0  0  0  0  0  0  0
   50.4770   30.7210   42.4050 C   0  0  0  0  0  0  0  0  0  0  0  0
   49.0050   31.0460   42.2930 C   0  0  0  0  0  0  0  0  0  0  0  0
   48.7990   32.0360   41.1810 C   0  0  2  0  0  0  0  0  0  0  0  0
   51.3360   33.9990   41.9300 H   0  0  0  0  0  0  0  0  0  0  0  0
   50.4640   33.0830   43.1830 H   0  0  0  0  0  0  0  0  0  0  0  0
   52.3150   31.8080   42.2380 H   0  0  0  0  0  0  0  0  0  0  0  0
   51.4950   31.6230   40.6840 H   0  0  0  0  0  0  0  0  0  0  0  0
   50.7870   30.6120   43.4730 H   0  0  0  0  0  0  0  0  0  0  0  0
   50.6810   29.7740   41.9130 H   0  0  0  0  0  0  0  0  0  0  0  0
   48.7840   31.6360   43.2370 H   0  0  0  0  0  0  0  0  0  0  0  0
   48.3280   30.2110   42.3270 H   0  0  0  0  0  0  0  0  0  0  0  0
   47.6920   32.2700   41.2630 H   0  0  0  0  0  0  0  0  0  0  0  0
   47.2230   34.5810   41.9730 C   0  0  1  0  0  0  0  0  0  0  0  0
   48.3180   35.5350   41.6720 C   0  0  0  0  0  0  0  0  0  0  0  0
   48.6380   34.2040   42.2240 C   0  0  2  0  0  0  0  0  0  0  0  0
   46.7350   34.1130   41.0780 H   0  0  0  0  0  0  0  0  0  0  0  0
   48.6220   35.7800   40.6450 H   0  0  0  0  0  0  0  0  0  0  0  0
   48.4610   36.3920   42.3770 H   0  0  0  0  0  0  0  0  0  0  0  0
   48.8830   34.1280   43.3230 H   0  0  0  0  0  0  0  0  0  0  0  0
   45.5260   36.0240   43.1400 C   0  0  0  0  0  0  0  0  0  0  0  0
   46.3230   34.8650   43.0900 C   0  0  0  0  0  0  0  0  0  0  0  0
   46.2080   33.9670   44.1760 C   0  0  0  0  0  0  0  0  0  0  0  0
   45.3530   34.2600   45.1910 N   0  0  0  0  0  0  0  0  0  0  0  0
   44.6060   35.3850   45.1990 C   0  0  0  0  0  0  0  0  0  0  0  0
   44.6850   36.2780   44.1730 N   0  0  0  0  0  0  0  0  0  0  0  0
   45.6130   36.7110   42.3110 H   0  0  0  0  0  0  0  0  0  0  0  0
   46.8010   33.0660   44.1790 H   0  0  0  0  0  0  0  0  0  0  0  0
   43.9170   35.6420   45.9950 H   0  0  0  0  0  0  0  0  0  0  0  0
   49.1370   31.4780   39.9310 N   0  0  0  0  0  0  0  0  0  0  0  0
   50.1500   31.5310   39.7640 H   0  0  0  0  0  0  0  0  0  0  0  0
   48.2290   32.8420   38.0770 C   0  0  1  0  0  3  0  0  0  0  0  0
   48.3740   31.5350   38.7940 C   0  0  2  0  0  3  0  0  0  0  0  0
   46.9580   31.0550   38.8020 C   0  0  0  0  0  3  0  0  0  0  0  0
   46.7300   30.3340   39.5880 H   0  0  0  0  0  0  0  0  0  0  0  0
   46.1350   32.1690   38.7510 O   0  0  0  0  0  0  0  0  0  0  0  0
   46.8710   33.2990   38.5440 C   0  0  0  0  0  3  0  0  0  0  0  0
   46.8570   33.9300   39.4260 H   0  0  0  0  0  0  0  0  0  0  0  0
   49.2300   33.7490   38.2360 O   0  0  0  0  0  0  0  0  0  0  0  0
   48.8450   34.5800   38.6550 H   0  0  0  0  0  0  0  0  0  0  0  0
  1  2  1  1  0  0  0
  1 18  1  0  0  0  0
  2  8  1  0  0  0  0
  3  2  1  0  0  0  0
  3  9  1  0  0  0  0
  3  4  1  0  0  0  0
  4 11  1  0  0  0  0
  5 14  1  0  0  0  0
  5  4  1  0  0  0  0
  5 13  1  0  0  0  0
  6 15  1  6  0  0  0
  6  1  1  0  0  0  0
  6  5  1  0  0  0  0
  7  2  1  0  0  0  0
 10  3  1  0  0  0  0
 12  4  1  0  0  0  0
 16 19  1  6  0  0  0
 16 18  1  0  0  0  0
 16 24  1  0  0  0  0
 17 16  1  0  0  0  0
 17 18  1  0  0  0  0
 17 21  1  0  0  0  0
 18 22  1  1  0  0  0
 20 17  1  0  0  0  0
 23 28  1  0  0  0  0
 24 23  2  0  0  0  0
 24 25  1  0  0  0  0
 25 30  1  0  0  0  0
 25 26  2  0  0  0  0
 26 27  1  0  0  0  0
 27 31  1  0  0  0  0
 28 27  2  0  0  0  0
 29 23  1  0  0  0  0
 32  6  1  0  0  0  0
 33 32  1  0  0  0  0
 34 41  1  1  0  0  0
 34 39  1  0  0  0  0
 34 35  1  0  0  0  0
 35 36  1  0  0  0  0
 35 32  1  1  0  0  0
 36 37  1  0  0  0  0
 38 36  1  0  0  0  0
 39 38  1  0  0  0  0
 39 40  1  0  0  0  0
 41 42  1  0  0  0  0
M  END
>  <minimizedAffinity>
-5.08331203

>  <minimizedRMSD>
2.2369895

$$$$
