
 OpenBabel03242512103D

 33 35  0  0  1  0  0  0  0  0999 V2000
   37.4060   29.5480   40.5800 C   0  0  1  0  0  0  0  0  0  0  0  0
   36.2120   30.4960   40.9890 C   0  0  0  0  0  0  0  0  0  0  0  0
   37.6040   30.9530   40.9210 C   0  0  2  0  0  0  0  0  0  0  0  0
   37.3290   29.2640   39.5260 H   0  0  0  0  0  0  0  0  0  0  0  0
   35.4920   30.7470   40.1950 H   0  0  0  0  0  0  0  0  0  0  0  0
   35.7090   30.2620   41.9470 H   0  0  0  0  0  0  0  0  0  0  0  0
   38.2370   31.1020   41.8080 H   0  0  0  0  0  0  0  0  0  0  0  0
   37.6380   28.4840   41.5950 C   0  0  0  0  0  0  0  0  0  0  0  0
   38.1520   28.8220   42.6580 O   0  0  0  0  0  0  0  0  0  0  0  0
   37.3120   26.2050   42.4280 C   0  0  0  0  0  0  0  0  0  0  0  0
   37.3040   27.1090   41.4200 C   0  0  0  0  0  0  0  0  0  0  0  0
   36.9380   26.6400   40.1280 C   0  0  0  0  0  0  0  0  0  0  0  0
   36.6150   25.3390   39.9410 N   0  0  0  0  0  0  0  0  0  0  0  0
   36.6390   24.4680   40.9920 C   0  0  0  0  0  0  0  0  0  0  0  0
   36.9780   24.8990   42.1950 N   0  0  0  0  0  0  0  0  0  0  0  0
   37.5880   26.5430   43.4170 H   0  0  0  0  0  0  0  0  0  0  0  0
   36.8890   27.2470   39.2550 H   0  0  0  0  0  0  0  0  0  0  0  0
   36.3990   23.4200   40.9420 H   0  0  0  0  0  0  0  0  0  0  0  0
   37.8410   31.8920   39.9230 O   0  0  0  0  0  0  0  0  0  0  0  0
   40.0830   31.9780   41.1930 O   0  0  0  0  0  0  0  0  0  0  0  0
   39.1000   32.8880   40.4820 P   0  0  2  0  0  0  0  0  0  0  0  0
   38.5860   34.1300   41.4610 O   0  0  0  0  0  0  0  0  0  0  0  0
   37.6470   34.3700   41.3090 H   0  0  0  0  0  0  0  0  0  0  0  0
   39.9480   33.4720   39.1020 O   0  0  0  0  0  0  0  0  0  0  0  0
   40.6540   31.7150   37.6130 C   0  0  2  0  0  3  0  0  0  0  0  0
   41.0040   32.6460   38.7570 C   0  0  1  0  0  3  0  0  0  0  0  0
   42.0580   33.5180   38.1080 C   0  0  0  0  0  3  0  0  0  0  0  0
   41.5690   34.4180   37.6580 H   0  0  0  0  0  0  0  0  0  0  0  0
   42.6310   32.8240   37.0720 O   0  0  0  0  0  0  0  0  0  0  0  0
   41.9890   31.6330   36.9040 C   0  0  0  0  0  3  0  0  0  0  0  0
   42.5940   30.8510   37.4470 H   0  0  0  0  0  0  0  0  0  0  0  0
   39.7520   32.3270   36.7610 O   0  0  0  0  0  0  0  0  0  0  0  0
   38.8350   32.2810   37.1790 H   0  0  0  0  0  0  0  0  0  0  0  0
  1  4  1  6  0  0  0
  1  3  1  0  0  0  0
  1  2  1  0  0  0  0
  1  8  1  0  0  0  0
  2  6  1  0  0  0  0
  3  2  1  0  0  0  0
  3  7  1  1  0  0  0
  5  2  1  0  0  0  0
  8  9  2  0  0  0  0
 10 16  1  0  0  0  0
 11  8  1  0  0  0  0
 11 10  2  0  0  0  0
 12 11  1  0  0  0  0
 13 12  2  0  0  0  0
 13 14  1  0  0  0  0
 14 15  2  0  0  0  0
 15 10  1  0  0  0  0
 17 12  1  0  0  0  0
 18 14  1  0  0  0  0
 19 21  1  0  0  0  0
 19  3  1  0  0  0  0
 21 20  2  1  0  0  0
 21 22  1  0  0  0  0
 23 22  1  0  0  0  0
 24 21  1  0  0  0  0
 25 32  1  6  0  0  0
 25 26  1  0  0  0  0
 26 24  1  6  0  0  0
 27 26  1  0  0  0  0
 28 27  1  0  0  0  0
 29 27  1  0  0  0  0
 30 29  1  0  0  0  0
 30 31  1  0  0  0  0
 30 25  1  0  0  0  0
 32 33  1  0  0  0  0
M  END
>  <minimizedAffinity>
-5.37391281

$$$$

 OpenBabel03242512103D

 33 35  0  0  1  0  0  0  0  0999 V2000
   36.8580   30.0570   39.7430 C   0  0  1  0  0  0  0  0  0  0  0  0
   36.1810   31.1140   40.7000 C   0  0  0  0  0  0  0  0  0  0  0  0
   37.6020   31.1610   40.3400 C   0  0  2  0  0  0  0  0  0  0  0  0
   36.4790   30.1630   38.7220 H   0  0  0  0  0  0  0  0  0  0  0  0
   35.4540   31.7990   40.2370 H   0  0  0  0  0  0  0  0  0  0  0  0
   35.8270   30.7330   41.6770 H   0  0  0  0  0  0  0  0  0  0  0  0
   38.4080   30.8330   41.0120 H   0  0  0  0  0  0  0  0  0  0  0  0
   36.8950   28.7020   40.3580 C   0  0  0  0  0  0  0  0  0  0  0  0
   36.0400   27.8960   39.9990 O   0  0  0  0  0  0  0  0  0  0  0  0
   39.1570   28.0680   41.0470 C   0  0  0  0  0  0  0  0  0  0  0  0
   37.8490   28.2780   41.3280 C   0  0  0  0  0  0  0  0  0  0  0  0
   37.4290   28.0600   42.6700 C   0  0  0  0  0  0  0  0  0  0  0  0
   38.3200   27.6600   43.6070 N   0  0  0  0  0  0  0  0  0  0  0  0
   39.6290   27.4630   43.2710 C   0  0  0  0  0  0  0  0  0  0  0  0
   40.0240   27.6640   42.0250 N   0  0  0  0  0  0  0  0  0  0  0  0
   39.4940   28.2280   40.0330 H   0  0  0  0  0  0  0  0  0  0  0  0
   36.4330   28.1920   43.0220 H   0  0  0  0  0  0  0  0  0  0  0  0
   40.4070   27.1470   43.9430 H   0  0  0  0  0  0  0  0  0  0  0  0
   37.9530   32.2680   39.5740 O   0  0  0  0  0  0  0  0  0  0  0  0
   40.0620   31.9170   41.0140 O   0  0  0  0  0  0  0  0  0  0  0  0
   39.2450   33.0250   40.3780 P   0  0  2  0  0  0  0  0  0  0  0  0
   38.7650   34.1610   41.4940 O   0  0  0  0  0  0  0  0  0  0  0  0
   37.8730   34.5230   41.3080 H   0  0  0  0  0  0  0  0  0  0  0  0
   40.2730   33.7060   39.1760 O   0  0  0  0  0  0  0  0  0  0  0  0
   40.7660   31.8590   37.7120 C   0  0  2  0  0  3  0  0  0  0  0  0
   41.2580   32.8200   38.7760 C   0  0  1  0  0  3  0  0  0  0  0  0
   42.2830   33.6160   37.9960 C   0  0  0  0  0  3  0  0  0  0  0  0
   41.7920   34.5170   37.5510 H   0  0  0  0  0  0  0  0  0  0  0  0
   42.7290   32.8540   36.9450 O   0  0  0  0  0  0  0  0  0  0  0  0
   42.0260   31.6860   36.8910 C   0  0  0  0  0  3  0  0  0  0  0  0
   42.6450   30.9020   37.4120 H   0  0  0  0  0  0  0  0  0  0  0  0
   39.8170   32.4750   36.9160 O   0  0  0  0  0  0  0  0  0  0  0  0
   38.9400   32.4880   37.4170 H   0  0  0  0  0  0  0  0  0  0  0  0
  1  4  1  6  0  0  0
  1  3  1  0  0  0  0
  1  8  1  0  0  0  0
  1  2  1  0  0  0  0
  2  6  1  0  0  0  0
  3  2  1  0  0  0  0
  3  7  1  1  0  0  0
  5  2  1  0  0  0  0
  8 11  1  0  0  0  0
  9  8  2  0  0  0  0
 10 11  2  0  0  0  0
 10 15  1  0  0  0  0
 11 12  1  0  0  0  0
 12 17  1  0  0  0  0
 12 13  2  0  0  0  0
 14 13  1  0  0  0  0
 14 18  1  0  0  0  0
 15 14  2  0  0  0  0
 16 10  1  0  0  0  0
 19  3  1  0  0  0  0
 19 21  1  0  0  0  0
 21 20  2  1  0  0  0
 21 22  1  0  0  0  0
 23 22  1  0  0  0  0
 24 21  1  0  0  0  0
 25 32  1  6  0  0  0
 25 26  1  0  0  0  0
 26 24  1  6  0  0  0
 27 26  1  0  0  0  0
 28 27  1  0  0  0  0
 29 27  1  0  0  0  0
 30 29  1  0  0  0  0
 30 31  1  0  0  0  0
 30 25  1  0  0  0  0
 32 33  1  0  0  0  0
M  END
>  <minimizedAffinity>
-5.14961481

$$$$

 OpenBabel03242512103D

 33 35  0  0  1  0  0  0  0  0999 V2000
   37.7860   29.5300   42.6100 C   0  0  1  0  0  0  0  0  0  0  0  0
   39.3010   29.0880   42.5560 C   0  0  0  0  0  0  0  0  0  0  0  0
   38.7270   30.0790   41.6380 C   0  0  2  0  0  0  0  0  0  0  0  0
   37.5810   30.0920   43.5260 H   0  0  0  0  0  0  0  0  0  0  0  0
   39.9310   29.3970   43.4030 H   0  0  0  0  0  0  0  0  0  0  0  0
   39.4940   28.0400   42.2540 H   0  0  0  0  0  0  0  0  0  0  0  0
   38.4580   29.8560   40.5960 H   0  0  0  0  0  0  0  0  0  0  0  0
   36.8740   28.4160   42.2310 C   0  0  0  0  0  0  0  0  0  0  0  0
   36.6040   27.5890   43.0990 O   0  0  0  0  0  0  0  0  0  0  0  0
   36.5980   27.2130   40.1180 C   0  0  0  0  0  0  0  0  0  0  0  0
   36.2950   28.2450   40.9400 C   0  0  0  0  0  0  0  0  0  0  0  0
   35.3450   29.1940   40.4710 C   0  0  0  0  0  0  0  0  0  0  0  0
   34.7820   29.0480   39.2480 N   0  0  0  0  0  0  0  0  0  0  0  0
   35.1220   27.9880   38.4580 C   0  0  0  0  0  0  0  0  0  0  0  0
   36.0050   27.1030   38.8900 N   0  0  0  0  0  0  0  0  0  0  0  0
   37.3170   26.4810   40.4570 H   0  0  0  0  0  0  0  0  0  0  0  0
   35.0190   30.0460   41.0190 H   0  0  0  0  0  0  0  0  0  0  0  0
   34.7300   27.7890   37.4760 H   0  0  0  0  0  0  0  0  0  0  0  0
   39.2380   31.3620   41.8030 O   0  0  0  0  0  0  0  0  0  0  0  0
   39.2570   33.6610   40.6370 O   0  0  0  0  0  0  0  0  0  0  0  0
   38.5540   32.3180   40.5750 P   0  0  2  0  0  0  0  0  0  0  0  0
   36.9020   32.4780   40.6950 O   0  0  0  0  0  0  0  0  0  0  0  0
   36.4840   31.7440   41.1940 H   0  0  0  0  0  0  0  0  0  0  0  0
   39.0210   31.6350   39.0660 O   0  0  0  0  0  0  0  0  0  0  0  0
   37.6170   31.6540   37.1100 C   0  0  2  0  0  3  0  0  0  0  0  0
   37.9630   31.0040   38.4350 C   0  0  1  0  0  3  0  0  0  0  0  0
   38.4620   29.6510   37.9730 C   0  0  0  0  0  3  0  0  0  0  0  0
   39.5700   29.6970   37.8200 H   0  0  0  0  0  0  0  0  0  0  0  0
   37.9100   29.3700   36.7480 O   0  0  0  0  0  0  0  0  0  0  0  0
   37.1890   30.4420   36.3110 C   0  0  0  0  0  3  0  0  0  0  0  0
   36.1100   30.2470   36.5760 H   0  0  0  0  0  0  0  0  0  0  0  0
   38.7570   32.1740   36.5230 O   0  0  0  0  0  0  0  0  0  0  0  0
   38.9820   33.0470   36.9780 H   0  0  0  0  0  0  0  0  0  0  0  0
  1  4  1  1  0  0  0
  2  1  1  0  0  0  0
  2  5  1  0  0  0  0
  3  7  1  6  0  0  0
  3 19  1  0  0  0  0
  3  2  1  0  0  0  0
  3  1  1  0  0  0  0
  6  2  1  0  0  0  0
  8  1  1  0  0  0  0
  8  9  2  0  0  0  0
 10 16  1  0  0  0  0
 10 11  1  0  0  0  0
 11  8  1  0  0  0  0
 12 11  2  0  0  0  0
 12 17  1  0  0  0  0
 13 12  1  0  0  0  0
 14 15  1  0  0  0  0
 14 13  2  0  0  0  0
 15 10  2  0  0  0  0
 18 14  1  0  0  0  0
 21 20  2  1  0  0  0
 21 22  1  0  0  0  0
 21 19  1  0  0  0  0
 22 23  1  0  0  0  0
 24 21  1  0  0  0  0
 25 32  1  6  0  0  0
 25 26  1  0  0  0  0
 26 24  1  6  0  0  0
 27 26  1  0  0  0  0
 28 27  1  0  0  0  0
 29 27  1  0  0  0  0
 30 31  1  0  0  0  0
 30 29  1  0  0  0  0
 30 25  1  0  0  0  0
 32 33  1  0  0  0  0
M  END
>  <minimizedAffinity>
-5.1333375

$$$$

 OpenBabel03242512103D

 33 35  0  0  1  0  0  0  0  0999 V2000
   37.4220   28.7990   41.0200 C   0  0  1  0  0  0  0  0  0  0  0  0
   35.8450   28.8750   41.0390 C   0  0  0  0  0  0  0  0  0  0  0  0
   36.6980   30.0620   40.9180 C   0  0  2  0  0  0  0  0  0  0  0  0
   37.7730   28.3140   40.1050 H   0  0  0  0  0  0  0  0  0  0  0  0
   35.3240   28.4580   40.1640 H   0  0  0  0  0  0  0  0  0  0  0  0
   35.3530   28.5900   41.9890 H   0  0  0  0  0  0  0  0  0  0  0  0
   36.9000   30.7510   41.7510 H   0  0  0  0  0  0  0  0  0  0  0  0
   37.9660   28.3450   42.3290 C   0  0  0  0  0  0  0  0  0  0  0  0
   37.9650   29.1550   43.2520 O   0  0  0  0  0  0  0  0  0  0  0  0
   37.9550   25.9120   42.0580 C   0  0  0  0  0  0  0  0  0  0  0  0
   38.4850   27.0420   42.5830 C   0  0  0  0  0  0  0  0  0  0  0  0
   39.6210   26.8960   43.4270 C   0  0  0  0  0  0  0  0  0  0  0  0
   40.1300   25.6670   43.6790 N   0  0  0  0  0  0  0  0  0  0  0  0
   39.5580   24.5590   43.1230 C   0  0  0  0  0  0  0  0  0  0  0  0
   38.5020   24.6890   42.3370 N   0  0  0  0  0  0  0  0  0  0  0  0
   37.0920   26.0030   41.4140 H   0  0  0  0  0  0  0  0  0  0  0  0
   40.1330   27.7010   43.8980 H   0  0  0  0  0  0  0  0  0  0  0  0
   39.8900   23.5460   43.2630 H   0  0  0  0  0  0  0  0  0  0  0  0
   36.5890   30.7130   39.6940 O   0  0  0  0  0  0  0  0  0  0  0  0
   38.5720   31.8220   40.9110 O   0  0  0  0  0  0  0  0  0  0  0  0
   37.6000   32.0770   39.7760 P   0  0  2  0  0  0  0  0  0  0  0  0
   36.7760   33.5080   39.9750 O   0  0  0  0  0  0  0  0  0  0  0  0
   35.8490   33.4610   39.6590 H   0  0  0  0  0  0  0  0  0  0  0  0
   38.5670   32.0900   38.3520 O   0  0  0  0  0  0  0  0  0  0  0  0
   39.6910   29.9790   38.0670 C   0  0  2  0  0  3  0  0  0  0  0  0
   39.7640   31.4190   38.5350 C   0  0  1  0  0  3  0  0  0  0  0  0
   40.7530   31.9960   37.5430 C   0  0  0  0  0  3  0  0  0  0  0  0
   40.1980   32.4130   36.6650 H   0  0  0  0  0  0  0  0  0  0  0  0
   41.5400   30.9790   37.0610 O   0  0  0  0  0  0  0  0  0  0  0  0
   41.0990   29.7840   37.5490 C   0  0  0  0  0  3  0  0  0  0  0  0
   41.7400   29.5350   38.4430 H   0  0  0  0  0  0  0  0  0  0  0  0
   38.8210   29.8690   36.9980 O   0  0  0  0  0  0  0  0  0  0  0  0
   37.8750   29.8820   37.3520 H   0  0  0  0  0  0  0  0  0  0  0  0
  1  4  1  6  0  0  0
  1  2  1  0  0  0  0
  1  8  1  0  0  0  0
  2  6  1  0  0  0  0
  3  1  1  0  0  0  0
  3  2  1  0  0  0  0
  3  7  1  1  0  0  0
  5  2  1  0  0  0  0
  8 11  1  0  0  0  0
  8  9  2  0  0  0  0
 10 15  2  0  0  0  0
 10 11  1  0  0  0  0
 11 12  2  0  0  0  0
 12 13  1  0  0  0  0
 12 17  1  0  0  0  0
 14 18  1  0  0  0  0
 14 13  2  0  0  0  0
 15 14  1  0  0  0  0
 16 10  1  0  0  0  0
 19 21  1  0  0  0  0
 19  3  1  0  0  0  0
 21 22  1  0  0  0  0
 21 20  2  1  0  0  0
 23 22  1  0  0  0  0
 24 21  1  0  0  0  0
 25 32  1  6  0  0  0
 25 26  1  0  0  0  0
 26 24  1  6  0  0  0
 27 26  1  0  0  0  0
 28 27  1  0  0  0  0
 29 27  1  0  0  0  0
 29 30  1  0  0  0  0
 30 25  1  0  0  0  0
 30 31  1  0  0  0  0
 32 33  1  0  0  0  0
M  END
>  <minimizedAffinity>
-5.12434053

$$$$

 OpenBabel03242512103D

 33 35  0  0  1  0  0  0  0  0999 V2000
   37.1700   29.1670   37.0180 C   0  0  1  0  0  0  0  0  0  0  0  0
   37.2480   30.7320   37.2100 C   0  0  0  0  0  0  0  0  0  0  0  0
   36.5300   29.8510   38.1370 C   0  0  2  0  0  0  0  0  0  0  0  0
   38.1530   28.7100   37.1670 H   0  0  0  0  0  0  0  0  0  0  0  0
   38.2350   31.1440   37.4670 H   0  0  0  0  0  0  0  0  0  0  0  0
   36.7280   31.3440   36.4480 H   0  0  0  0  0  0  0  0  0  0  0  0
   35.4350   29.7440   38.1470 H   0  0  0  0  0  0  0  0  0  0  0  0
   36.3830   28.7990   35.8080 C   0  0  0  0  0  0  0  0  0  0  0  0
   36.9750   28.7920   34.7320 O   0  0  0  0  0  0  0  0  0  0  0  0
   34.5010   27.3800   36.4680 C   0  0  0  0  0  0  0  0  0  0  0  0
   35.0000   28.4560   35.8150 C   0  0  0  0  0  0  0  0  0  0  0  0
   34.0750   29.2740   35.1080 C   0  0  0  0  0  0  0  0  0  0  0  0
   32.7570   28.9670   35.1040 N   0  0  0  0  0  0  0  0  0  0  0  0
   32.3050   27.8690   35.7790 C   0  0  0  0  0  0  0  0  0  0  0  0
   33.1610   27.1060   36.4380 N   0  0  0  0  0  0  0  0  0  0  0  0
   35.1880   26.7460   37.0110 H   0  0  0  0  0  0  0  0  0  0  0  0
   34.3360   30.1480   34.5590 H   0  0  0  0  0  0  0  0  0  0  0  0
   31.2810   27.5460   35.8340 H   0  0  0  0  0  0  0  0  0  0  0  0
   37.0910   29.7940   39.4090 O   0  0  0  0  0  0  0  0  0  0  0  0
   34.5710   29.3190   39.6780 O   0  0  0  0  0  0  0  0  0  0  0  0
   35.7980   29.6540   40.5040 P   0  0  2  0  0  0  0  0  0  0  0  0
   35.5650   31.0090   41.4400 O   0  0  0  0  0  0  0  0  0  0  0  0
   36.3740   31.5550   41.5270 H   0  0  0  0  0  0  0  0  0  0  0  0
   36.0860   28.2550   41.4660 O   0  0  0  0  0  0  0  0  0  0  0  0
   38.0490   28.9170   42.6960 C   0  0  2  0  0  3  0  0  0  0  0  0
   37.4390   28.0170   41.6390 C   0  0  1  0  0  3  0  0  0  0  0  0
   37.5720   26.6620   42.3000 C   0  0  0  0  0  3  0  0  0  0  0  0
   36.6420   26.4400   42.8820 H   0  0  0  0  0  0  0  0  0  0  0  0
   38.6000   26.7110   43.2080 O   0  0  0  0  0  0  0  0  0  0  0  0
   39.0820   27.9840   43.2910 C   0  0  0  0  0  3  0  0  0  0  0  0
   39.9880   28.0390   42.6220 H   0  0  0  0  0  0  0  0  0  0  0  0
   37.1140   29.2010   43.6750 O   0  0  0  0  0  0  0  0  0  0  0  0
   36.4880   29.9120   43.3230 H   0  0  0  0  0  0  0  0  0  0  0  0
  1  4  1  1  0  0  0
  1  2  1  0  0  0  0
  1  3  1  0  0  0  0
  2  5  1  0  0  0  0
  2  3  1  0  0  0  0
  3  7  1  6  0  0  0
  3 19  1  0  0  0  0
  6  2  1  0  0  0  0
  8 11  1  0  0  0  0
  8  1  1  0  0  0  0
  9  8  2  0  0  0  0
 10 16  1  0  0  0  0
 11 10  2  0  0  0  0
 12 11  1  0  0  0  0
 13 12  2  0  0  0  0
 13 14  1  0  0  0  0
 14 18  1  0  0  0  0
 14 15  2  0  0  0  0
 15 10  1  0  0  0  0
 17 12  1  0  0  0  0
 19 21  1  0  0  0  0
 21 20  2  6  0  0  0
 21 22  1  0  0  0  0
 21 24  1  0  0  0  0
 22 23  1  0  0  0  0
 25 30  1  0  0  0  0
 25 32  1  1  0  0  0
 26 24  1  1  0  0  0
 26 27  1  0  0  0  0
 26 25  1  0  0  0  0
 27 28  1  0  0  0  0
 27 29  1  0  0  0  0
 29 30  1  0  0  0  0
 31 30  1  0  0  0  0
 33 32  1  0  0  0  0
M  END
>  <minimizedAffinity>
-5.06875706

$$$$

 OpenBabel03242512103D

 33 35  0  0  1  0  0  0  0  0999 V2000
   38.4830   27.7240   43.6640 C   0  0  1  0  0  0  0  0  0  0  0  0
   39.6620   26.6740   43.6660 C   0  0  0  0  0  0  0  0  0  0  0  0
   39.6660   27.8750   42.8230 C   0  0  2  0  0  0  0  0  0  0  0  0
   38.4380   28.2560   44.6190 H   0  0  0  0  0  0  0  0  0  0  0  0
   40.2690   26.6210   44.5820 H   0  0  0  0  0  0  0  0  0  0  0  0
   39.4230   25.6690   43.2670 H   0  0  0  0  0  0  0  0  0  0  0  0
   39.4430   27.8610   41.7470 H   0  0  0  0  0  0  0  0  0  0  0  0
   37.2300   27.1430   43.1060 C   0  0  0  0  0  0  0  0  0  0  0  0
   36.1790   27.4160   43.6800 O   0  0  0  0  0  0  0  0  0  0  0  0
   37.2510   26.7590   40.6890 C   0  0  0  0  0  0  0  0  0  0  0  0
   37.1680   26.2990   41.9600 C   0  0  0  0  0  0  0  0  0  0  0  0
   37.0150   24.8950   42.1340 C   0  0  0  0  0  0  0  0  0  0  0  0
   36.9570   24.0760   41.0580 N   0  0  0  0  0  0  0  0  0  0  0  0
   37.0460   24.5910   39.7970 C   0  0  0  0  0  0  0  0  0  0  0  0
   37.1890   25.8960   39.6290 N   0  0  0  0  0  0  0  0  0  0  0  0
   37.3680   27.8220   40.5360 H   0  0  0  0  0  0  0  0  0  0  0  0
   36.9420   24.4070   43.0780 H   0  0  0  0  0  0  0  0  0  0  0  0
   37.0100   24.0230   38.8850 H   0  0  0  0  0  0  0  0  0  0  0  0
   40.6530   28.7960   43.1590 O   0  0  0  0  0  0  0  0  0  0  0  0
   40.8840   29.8500   40.8180 O   0  0  0  0  0  0  0  0  0  0  0  0
   40.3730   30.1770   42.2080 P   0  0  2  0  0  0  0  0  0  0  0  0
   41.0700   31.5590   42.8150 O   0  0  0  0  0  0  0  0  0  0  0  0
   41.2280   31.5130   43.7820 H   0  0  0  0  0  0  0  0  0  0  0  0
   38.6690   30.3460   42.0320 O   0  0  0  0  0  0  0  0  0  0  0  0
   36.8690   30.4290   40.4340 C   0  0  2  0  0  3  0  0  0  0  0  0
   38.3190   30.7380   40.7510 C   0  0  1  0  0  3  0  0  0  0  0  0
   38.3010   32.2520   40.7390 C   0  0  0  0  0  3  0  0  0  0  0  0
   38.0980   32.6290   41.7730 H   0  0  0  0  0  0  0  0  0  0  0  0
   37.2560   32.6770   39.9560 O   0  0  0  0  0  0  0  0  0  0  0  0
   36.5240   31.6030   39.5430 C   0  0  0  0  0  3  0  0  0  0  0  0
   36.8800   31.3370   38.5070 H   0  0  0  0  0  0  0  0  0  0  0  0
   36.1010   30.5200   41.5810 O   0  0  0  0  0  0  0  0  0  0  0  0
   36.2390   29.6810   42.1260 H   0  0  0  0  0  0  0  0  0  0  0  0
  1  2  1  0  0  0  0
  1  4  1  1  0  0  0
  2  5  1  0  0  0  0
  3  7  1  6  0  0  0
  3 19  1  0  0  0  0
  3  1  1  0  0  0  0
  3  2  1  0  0  0  0
  6  2  1  0  0  0  0
  8  1  1  0  0  0  0
  8  9  2  0  0  0  0
 10 11  1  0  0  0  0
 11 12  2  0  0  0  0
 11  8  1  0  0  0  0
 12 17  1  0  0  0  0
 13 12  1  0  0  0  0
 14 13  2  0  0  0  0
 15 14  1  0  0  0  0
 15 10  2  0  0  0  0
 16 10  1  0  0  0  0
 18 14  1  0  0  0  0
 21 20  2  6  0  0  0
 21 22  1  0  0  0  0
 21 19  1  0  0  0  0
 22 23  1  0  0  0  0
 24 21  1  0  0  0  0
 25 26  1  0  0  0  0
 25 32  1  1  0  0  0
 26 24  1  1  0  0  0
 27 26  1  0  0  0  0
 27 28  1  0  0  0  0
 29 27  1  0  0  0  0
 30 29  1  0  0  0  0
 30 25  1  0  0  0  0
 31 30  1  0  0  0  0
 32 33  1  0  0  0  0
M  END
>  <minimizedAffinity>
-5.04777145

$$$$

 OpenBabel03242512103D

 33 35  0  0  1  0  0  0  0  0999 V2000
   36.4870   27.9790   41.4800 C   0  0  1  0  0  0  0  0  0  0  0  0
   36.8350   29.5180   41.5390 C   0  0  0  0  0  0  0  0  0  0  0  0
   37.4650   28.5950   40.5880 C   0  0  2  0  0  0  0  0  0  0  0  0
   35.4640   27.8280   41.1230 H   0  0  0  0  0  0  0  0  0  0  0  0
   36.0430   30.2110   41.2170 H   0  0  0  0  0  0  0  0  0  0  0  0
   37.3470   29.8690   42.4550 H   0  0  0  0  0  0  0  0  0  0  0  0
   38.4820   28.1970   40.7130 H   0  0  0  0  0  0  0  0  0  0  0  0
   36.9310   27.2670   42.7110 C   0  0  0  0  0  0  0  0  0  0  0  0
   36.1770   27.2930   43.6790 O   0  0  0  0  0  0  0  0  0  0  0  0
   38.3750   25.3300   42.3200 C   0  0  0  0  0  0  0  0  0  0  0  0
   38.1630   26.5620   42.8390 C   0  0  0  0  0  0  0  0  0  0  0  0
   39.2420   27.1660   43.5420 C   0  0  0  0  0  0  0  0  0  0  0  0
   40.4210   26.5150   43.6740 N   0  0  0  0  0  0  0  0  0  0  0  0
   40.5830   25.2720   43.1310 C   0  0  0  0  0  0  0  0  0  0  0  0
   39.5830   24.7060   42.4760 N   0  0  0  0  0  0  0  0  0  0  0  0
   37.5670   24.8550   41.7830 H   0  0  0  0  0  0  0  0  0  0  0  0
   39.2070   28.1300   43.9930 H   0  0  0  0  0  0  0  0  0  0  0  0
   41.4780   24.6790   43.1820 H   0  0  0  0  0  0  0  0  0  0  0  0
   37.1420   28.8470   39.2590 O   0  0  0  0  0  0  0  0  0  0  0  0
   38.4110   29.0680   37.0260 O   0  0  0  0  0  0  0  0  0  0  0  0
   38.5710   29.3720   38.5030 P   0  0  2  0  0  0  0  0  0  0  0  0
   39.9500   28.6850   39.1310 O   0  0  0  0  0  0  0  0  0  0  0  0
   39.8340   28.3720   40.0520 H   0  0  0  0  0  0  0  0  0  0  0  0
   38.6100   31.0900   38.6060 O   0  0  0  0  0  0  0  0  0  0  0  0
   40.5440   31.9650   37.4690 C   0  0  2  0  0  3  0  0  0  0  0  0
   39.8970   31.5680   38.7810 C   0  0  1  0  0  3  0  0  0  0  0  0
   39.7830   32.9130   39.4680 C   0  0  0  0  0  3  0  0  0  0  0  0
   38.7890   33.3670   39.2300 H   0  0  0  0  0  0  0  0  0  0  0  0
   40.7330   33.7570   38.9480 O   0  0  0  0  0  0  0  0  0  0  0  0
   41.3840   33.1410   37.9200 C   0  0  0  0  0  3  0  0  0  0  0  0
   42.3380   32.7120   38.3410 H   0  0  0  0  0  0  0  0  0  0  0  0
   39.5850   32.4350   36.5890 O   0  0  0  0  0  0  0  0  0  0  0  0
   39.0970   31.6430   36.1960 H   0  0  0  0  0  0  0  0  0  0  0  0
  1  4  1  6  0  0  0
  1  2  1  0  0  0  0
  1  8  1  0  0  0  0
  2  6  1  0  0  0  0
  3  7  1  1  0  0  0
  3  1  1  0  0  0  0
  3  2  1  0  0  0  0
  5  2  1  0  0  0  0
  8 11  1  0  0  0  0
  8  9  2  0  0  0  0
 10 15  2  0  0  0  0
 10 11  1  0  0  0  0
 11 12  2  0  0  0  0
 12 13  1  0  0  0  0
 12 17  1  0  0  0  0
 14 18  1  0  0  0  0
 14 13  2  0  0  0  0
 15 14  1  0  0  0  0
 16 10  1  0  0  0  0
 19  3  1  0  0  0  0
 21 20  2  6  0  0  0
 21 24  1  0  0  0  0
 21 22  1  0  0  0  0
 21 19  1  0  0  0  0
 22 23  1  0  0  0  0
 25 32  1  6  0  0  0
 25 30  1  0  0  0  0
 25 26  1  0  0  0  0
 26 24  1  6  0  0  0
 26 27  1  0  0  0  0
 28 27  1  0  0  0  0
 29 27  1  0  0  0  0
 30 31  1  0  0  0  0
 30 29  1  0  0  0  0
 33 32  1  0  0  0  0
M  END
>  <minimizedAffinity>
-5.03296089

$$$$

 OpenBabel03242512103D

 33 35  0  0  1  0  0  0  0  0999 V2000
   38.5260   27.5240   42.9690 C   0  0  1  0  0  0  0  0  0  0  0  0
   39.9300   27.0260   42.4470 C   0  0  0  0  0  0  0  0  0  0  0  0
   39.4620   28.4050   42.2770 C   0  0  2  0  0  0  0  0  0  0  0  0
   38.5010   27.5310   44.0630 H   0  0  0  0  0  0  0  0  0  0  0  0
   40.6740   26.7690   43.2160 H   0  0  0  0  0  0  0  0  0  0  0  0
   39.9100   26.2860   41.6240 H   0  0  0  0  0  0  0  0  0  0  0  0
   39.0700   28.8010   41.3280 H   0  0  0  0  0  0  0  0  0  0  0  0
   37.4040   26.8840   42.2280 C   0  0  0  0  0  0  0  0  0  0  0  0
   37.0960   25.7390   42.5510 O   0  0  0  0  0  0  0  0  0  0  0  0
   35.8360   28.5560   41.3680 C   0  0  0  0  0  0  0  0  0  0  0  0
   36.6680   27.5040   41.1770 C   0  0  0  0  0  0  0  0  0  0  0  0
   36.7990   27.0130   39.8490 C   0  0  0  0  0  0  0  0  0  0  0  0
   36.1110   27.5890   38.8360 N   0  0  0  0  0  0  0  0  0  0  0  0
   35.2850   28.6480   39.0830 C   0  0  0  0  0  0  0  0  0  0  0  0
   35.1590   29.1100   40.3170 N   0  0  0  0  0  0  0  0  0  0  0  0
   35.7230   28.9430   42.3710 H   0  0  0  0  0  0  0  0  0  0  0  0
   37.4210   26.1970   39.5640 H   0  0  0  0  0  0  0  0  0  0  0  0
   34.7000   29.1710   38.3470 H   0  0  0  0  0  0  0  0  0  0  0  0
   40.2010   29.3430   42.9900 O   0  0  0  0  0  0  0  0  0  0  0  0
   40.8370   30.1850   40.6380 O   0  0  0  0  0  0  0  0  0  0  0  0
   40.3630   30.7030   41.9820 P   0  0  2  0  0  0  0  0  0  0  0  0
   41.3800   31.8690   42.5910 O   0  0  0  0  0  0  0  0  0  0  0  0
   41.4680   31.8260   43.5660 H   0  0  0  0  0  0  0  0  0  0  0  0
   38.7830   31.3220   41.6930 O   0  0  0  0  0  0  0  0  0  0  0  0
   37.3150   31.9260   39.8810 C   0  0  2  0  0  3  0  0  0  0  0  0
   38.7040   31.9930   40.4840 C   0  0  1  0  0  3  0  0  0  0  0  0
   38.8170   33.4720   40.7880 C   0  0  0  0  0  3  0  0  0  0  0  0
   38.4630   33.6640   41.8320 H   0  0  0  0  0  0  0  0  0  0  0  0
   37.9720   34.1610   39.9540 O   0  0  0  0  0  0  0  0  0  0  0  0
   37.2370   33.2820   39.2140 C   0  0  0  0  0  3  0  0  0  0  0  0
   37.7520   33.1800   38.2150 H   0  0  0  0  0  0  0  0  0  0  0  0
   36.3630   31.8850   40.8830 O   0  0  0  0  0  0  0  0  0  0  0  0
   36.3290   30.9470   41.2540 H   0  0  0  0  0  0  0  0  0  0  0  0
  1  4  1  1  0  0  0
  2  1  1  0  0  0  0
  2  5  1  0  0  0  0
  3  7  1  6  0  0  0
  3  2  1  0  0  0  0
  3  1  1  0  0  0  0
  3 19  1  0  0  0  0
  6  2  1  0  0  0  0
  8  9  2  0  0  0  0
  8  1  1  0  0  0  0
 10 16  1  0  0  0  0
 11 10  1  0  0  0  0
 11  8  1  0  0  0  0
 12 11  2  0  0  0  0
 13 14  2  0  0  0  0
 13 12  1  0  0  0  0
 14 15  1  0  0  0  0
 15 10  2  0  0  0  0
 17 12  1  0  0  0  0
 18 14  1  0  0  0  0
 21 20  2  6  0  0  0
 21 22  1  0  0  0  0
 21 19  1  0  0  0  0
 22 23  1  0  0  0  0
 24 21  1  0  0  0  0
 25 26  1  0  0  0  0
 25 32  1  1  0  0  0
 26 27  1  0  0  0  0
 26 24  1  1  0  0  0
 27 28  1  0  0  0  0
 29 27  1  0  0  0  0
 30 25  1  0  0  0  0
 30 29  1  0  0  0  0
 31 30  1  0  0  0  0
 32 33  1  0  0  0  0
M  END
>  <minimizedAffinity>
-4.93437243

$$$$

 OpenBabel03242512103D

 33 35  0  0  1  0  0  0  0  0999 V2000
   38.2330   29.2570   42.7750 C   0  0  1  0  0  0  0  0  0  0  0  0
   39.8070   29.1520   42.7010 C   0  0  0  0  0  0  0  0  0  0  0  0
   38.9900   29.6650   41.5960 C   0  0  2  0  0  0  0  0  0  0  0  0
   37.9320   30.0180   43.5020 H   0  0  0  0  0  0  0  0  0  0  0  0
   40.3740   29.8330   43.3520 H   0  0  0  0  0  0  0  0  0  0  0  0
   40.2280   28.1280   42.7030 H   0  0  0  0  0  0  0  0  0  0  0  0
   38.7480   29.0790   40.6970 H   0  0  0  0  0  0  0  0  0  0  0  0
   37.5940   27.9140   42.8350 C   0  0  0  0  0  0  0  0  0  0  0  0
   36.7180   27.7430   43.6790 O   0  0  0  0  0  0  0  0  0  0  0  0
   37.5350   26.7370   40.6890 C   0  0  0  0  0  0  0  0  0  0  0  0
   37.9250   26.8200   41.9830 C   0  0  0  0  0  0  0  0  0  0  0  0
   38.7090   25.7490   42.4960 C   0  0  0  0  0  0  0  0  0  0  0  0
   39.0360   24.7020   41.7030 N   0  0  0  0  0  0  0  0  0  0  0  0
   38.6180   24.6680   40.4040 C   0  0  0  0  0  0  0  0  0  0  0  0
   37.8890   25.6610   39.9220 N   0  0  0  0  0  0  0  0  0  0  0  0
   36.9390   27.5410   40.2810 H   0  0  0  0  0  0  0  0  0  0  0  0
   39.0810   25.6950   43.4920 H   0  0  0  0  0  0  0  0  0  0  0  0
   38.8270   23.8820   39.7000 H   0  0  0  0  0  0  0  0  0  0  0  0
   39.1940   31.0140   41.3240 O   0  0  0  0  0  0  0  0  0  0  0  0
   36.9250   31.9980   40.5950 O   0  0  0  0  0  0  0  0  0  0  0  0
   38.1890   31.4010   40.0080 P   0  0  2  0  0  0  0  0  0  0  0  0
   37.8610   30.1080   39.0140 O   0  0  0  0  0  0  0  0  0  0  0  0
   38.5410   29.4040   39.0690 H   0  0  0  0  0  0  0  0  0  0  0  0
   38.9380   32.6910   39.1490 O   0  0  0  0  0  0  0  0  0  0  0  0
   40.5650   31.9130   37.5530 C   0  0  2  0  0  3  0  0  0  0  0  0
   40.2870   32.4580   38.9400 C   0  0  1  0  0  3  0  0  0  0  0  0
   40.9660   33.8100   38.8610 C   0  0  0  0  0  3  0  0  0  0  0  0
   40.2260   34.5770   38.5190 H   0  0  0  0  0  0  0  0  0  0  0  0
   41.9460   33.7570   37.9020 O   0  0  0  0  0  0  0  0  0  0  0  0
   41.9090   32.5500   37.2700 C   0  0  0  0  0  3  0  0  0  0  0  0
   42.6850   31.8950   37.7600 H   0  0  0  0  0  0  0  0  0  0  0  0
   39.6500   32.4210   36.6490 O   0  0  0  0  0  0  0  0  0  0  0  0
   38.7820   31.9170   36.7550 H   0  0  0  0  0  0  0  0  0  0  0  0
  1  8  1  0  0  0  0
  1  4  1  1  0  0  0
  2  6  1  0  0  0  0
  2  1  1  0  0  0  0
  2  5  1  0  0  0  0
  3  7  1  6  0  0  0
  3  2  1  0  0  0  0
  3  1  1  0  0  0  0
  8  9  2  0  0  0  0
 10 11  1  0  0  0  0
 11 12  2  0  0  0  0
 11  8  1  0  0  0  0
 12 17  1  0  0  0  0
 13 12  1  0  0  0  0
 14 13  2  0  0  0  0
 15 14  1  0  0  0  0
 15 10  2  0  0  0  0
 16 10  1  0  0  0  0
 18 14  1  0  0  0  0
 19  3  1  0  0  0  0
 21 20  2  1  0  0  0
 21 19  1  0  0  0  0
 22 23  1  0  0  0  0
 22 21  1  0  0  0  0
 24 21  1  0  0  0  0
 25 32  1  6  0  0  0
 25 26  1  0  0  0  0
 26 24  1  6  0  0  0
 27 26  1  0  0  0  0
 28 27  1  0  0  0  0
 29 27  1  0  0  0  0
 30 25  1  0  0  0  0
 30 31  1  0  0  0  0
 30 29  1  0  0  0  0
 32 33  1  0  0  0  0
M  END
>  <minimizedAffinity>
-4.90829563

$$$$
