
 OpenBabel03252506453D

 42 45  0  0  1  0  0  0  0  0999 V2000
   49.7050   33.6370   41.4300 N   0  0  1  0  0  0  0  0  0  0  0  0
   50.7450   33.0860   42.2740 C   0  0  0  0  0  0  0  0  0  0  0  0
   51.2950   31.7920   41.7460 C   0  0  0  0  0  0  0  0  0  0  0  0
   50.2060   30.7440   41.8900 C   0  0  0  0  0  0  0  0  0  0  0  0
   48.8560   31.3330   41.5470 C   0  0  0  0  0  0  0  0  0  0  0  0
   49.0520   32.5780   40.7260 C   0  0  2  0  0  0  0  0  0  0  0  0
   51.5100   33.8450   42.5160 H   0  0  0  0  0  0  0  0  0  0  0  0
   50.2500   32.8240   43.2510 H   0  0  0  0  0  0  0  0  0  0  0  0
   52.1320   31.5080   42.4300 H   0  0  0  0  0  0  0  0  0  0  0  0
   51.7240   31.8360   40.7430 H   0  0  0  0  0  0  0  0  0  0  0  0
   50.2160   30.3370   42.9300 H   0  0  0  0  0  0  0  0  0  0  0  0
   50.4240   29.9180   41.2180 H   0  0  0  0  0  0  0  0  0  0  0  0
   48.4660   31.7150   42.5420 H   0  0  0  0  0  0  0  0  0  0  0  0
   48.1060   30.6430   41.2050 H   0  0  0  0  0  0  0  0  0  0  0  0
   47.9940   32.9720   40.6220 H   0  0  0  0  0  0  0  0  0  0  0  0
   47.4470   34.7660   41.9590 C   0  0  1  0  0  0  0  0  0  0  0  0
   48.5080   35.7860   41.7800 C   0  0  0  0  0  0  0  0  0  0  0  0
   48.8660   34.4350   42.2520 C   0  0  2  0  0  0  0  0  0  0  0  0
   47.0250   34.3430   41.0100 H   0  0  0  0  0  0  0  0  0  0  0  0
   48.8470   36.1200   40.7890 H   0  0  0  0  0  0  0  0  0  0  0  0
   48.5770   36.5960   42.5500 H   0  0  0  0  0  0  0  0  0  0  0  0
   49.0640   34.2890   43.3540 H   0  0  0  0  0  0  0  0  0  0  0  0
   45.5930   36.0140   43.1100 C   0  0  0  0  0  0  0  0  0  0  0  0
   46.4850   34.9270   43.0480 C   0  0  0  0  0  0  0  0  0  0  0  0
   46.4030   33.9770   44.0920 C   0  0  0  0  0  0  0  0  0  0  0  0
   45.4890   34.1550   45.0810 N   0  0  0  0  0  0  0  0  0  0  0  0
   44.6510   35.2140   45.1020 C   0  0  0  0  0  0  0  0  0  0  0  0
   44.6950   36.1550   44.1170 N   0  0  0  0  0  0  0  0  0  0  0  0
   45.6550   36.7410   42.3140 H   0  0  0  0  0  0  0  0  0  0  0  0
   47.0680   33.1280   44.0830 H   0  0  0  0  0  0  0  0  0  0  0  0
   43.9130   35.3800   45.8780 H   0  0  0  0  0  0  0  0  0  0  0  0
   49.6370   32.2790   39.4780 N   0  0  0  0  0  0  0  0  0  0  0  0
   50.2760   33.0280   39.1800 H   0  0  0  0  0  0  0  0  0  0  0  0
   49.7840   30.5220   37.7440 C   0  0  1  0  0  3  0  0  0  0  0  0
   49.0310   31.6100   38.4470 C   0  0  2  0  0  3  0  0  0  0  0  0
   48.4570   32.3560   37.2870 C   0  0  0  0  0  3  0  0  0  0  0  0
   48.2000   33.3940   37.5020 H   0  0  0  0  0  0  0  0  0  0  0  0
   49.2940   32.1560   36.2010 O   0  0  0  0  0  0  0  0  0  0  0  0
   50.2490   31.2280   36.4970 C   0  0  0  0  0  3  0  0  0  0  0  0
   51.2280   31.6930   36.5490 H   0  0  0  0  0  0  0  0  0  0  0  0
   50.7600   29.8900   38.4480 O   0  0  0  0  0  0  0  0  0  0  0  0
   51.6380   30.0280   37.9740 H   0  0  0  0  0  0  0  0  0  0  0  0
  1 18  1  0  0  0  0
  1  2  1  1  0  0  0
  2  7  1  0  0  0  0
  2  8  1  0  0  0  0
  3  4  1  0  0  0  0
  3  2  1  0  0  0  0
  3  9  1  0  0  0  0
  4 11  1  0  0  0  0
  5  4  1  0  0  0  0
  5 13  1  0  0  0  0
  6 15  1  6  0  0  0
  6  1  1  0  0  0  0
  6  5  1  0  0  0  0
 10  3  1  0  0  0  0
 12  4  1  0  0  0  0
 14  5  1  0  0  0  0
 16 19  1  6  0  0  0
 16 18  1  0  0  0  0
 16 24  1  0  0  0  0
 17 16  1  0  0  0  0
 17 18  1  0  0  0  0
 17 21  1  0  0  0  0
 18 22  1  1  0  0  0
 20 17  1  0  0  0  0
 23 28  1  0  0  0  0
 24 23  2  0  0  0  0
 24 25  1  0  0  0  0
 25 26  2  0  0  0  0
 26 27  1  0  0  0  0
 27 31  1  0  0  0  0
 28 27  2  0  0  0  0
 29 23  1  0  0  0  0
 30 25  1  0  0  0  0
 32  6  1  0  0  0  0
 33 32  1  0  0  0  0
 34 35  1  0  0  0  0
 34 41  1  1  0  0  0
 35 32  1  6  0  0  0
 36 37  1  0  0  0  0
 36 35  1  0  0  0  0
 38 39  1  0  0  0  0
 38 36  1  0  0  0  0
 39 40  1  0  0  0  0
 39 34  1  0  0  0  0
 42 41  1  0  0  0  0
M  END
>  <minimizedAffinity>
-4.93927002

>  <minimizedRMSD>
1.49027586

$$$$
