
 OpenBabel03252506453D

 42 45  0  0  1  0  0  0  0  0999 V2000
   49.4500   33.3540   41.3280 N   0  0  1  0  0  0  0  0  0  0  0  0
   50.7000   33.0840   42.0090 C   0  0  0  0  0  0  0  0  0  0  0  0
   51.3010   31.7650   41.6140 C   0  0  0  0  0  0  0  0  0  0  0  0
   50.4110   30.6730   42.1770 C   0  0  0  0  0  0  0  0  0  0  0  0
   48.9540   31.0540   42.0380 C   0  0  0  0  0  0  0  0  0  0  0  0
   48.8180   32.1180   40.9850 C   0  0  2  0  0  0  0  0  0  0  0  0
   51.3900   33.9430   41.9380 H   0  0  0  0  0  0  0  0  0  0  0  0
   50.4460   32.9810   43.1020 H   0  0  0  0  0  0  0  0  0  0  0  0
   52.2870   31.7050   42.1380 H   0  0  0  0  0  0  0  0  0  0  0  0
   51.5150   31.6450   40.5510 H   0  0  0  0  0  0  0  0  0  0  0  0
   50.6800   30.4880   43.2460 H   0  0  0  0  0  0  0  0  0  0  0  0
   50.6010   29.7520   41.6330 H   0  0  0  0  0  0  0  0  0  0  0  0
   48.7200   31.5910   43.0100 H   0  0  0  0  0  0  0  0  0  0  0  0
   48.2500   30.2420   41.9980 H   0  0  0  0  0  0  0  0  0  0  0  0
   47.7180   32.3830   41.0450 H   0  0  0  0  0  0  0  0  0  0  0  0
   47.2840   34.6270   41.9070 C   0  0  1  0  0  0  0  0  0  0  0  0
   48.3940   35.5780   41.6600 C   0  0  0  0  0  0  0  0  0  0  0  0
   48.6910   34.2210   42.1570 C   0  0  2  0  0  0  0  0  0  0  0  0
   46.8010   34.2040   40.9870 H   0  0  0  0  0  0  0  0  0  0  0  0
   48.7140   35.8650   40.6480 H   0  0  0  0  0  0  0  0  0  0  0  0
   48.5400   36.4020   42.4030 H   0  0  0  0  0  0  0  0  0  0  0  0
   48.9220   34.0940   43.2540 H   0  0  0  0  0  0  0  0  0  0  0  0
   45.5520   36.0140   43.0900 C   0  0  0  0  0  0  0  0  0  0  0  0
   46.3740   34.8740   43.0250 C   0  0  0  0  0  0  0  0  0  0  0  0
   46.2760   33.9570   44.0970 C   0  0  0  0  0  0  0  0  0  0  0  0
   45.4120   34.2150   45.1140 N   0  0  0  0  0  0  0  0  0  0  0  0
   44.6410   35.3230   45.1360 C   0  0  0  0  0  0  0  0  0  0  0  0
   44.7030   36.2340   44.1240 N   0  0  0  0  0  0  0  0  0  0  0  0
   45.6270   36.7150   42.2730 H   0  0  0  0  0  0  0  0  0  0  0  0
   46.8890   33.0690   44.0880 H   0  0  0  0  0  0  0  0  0  0  0  0
   43.9440   35.5520   45.9330 H   0  0  0  0  0  0  0  0  0  0  0  0
   49.1810   31.6270   39.7140 N   0  0  0  0  0  0  0  0  0  0  0  0
   50.2030   31.5540   39.6230 H   0  0  0  0  0  0  0  0  0  0  0  0
   49.1650   32.7980   37.5340 C   0  0  1  0  0  3  0  0  0  0  0  0
   48.5270   31.8850   38.5380 C   0  0  2  0  0  3  0  0  0  0  0  0
   47.1250   32.3990   38.5400 C   0  0  0  0  0  3  0  0  0  0  0  0
   46.5630   32.1730   39.4480 H   0  0  0  0  0  0  0  0  0  0  0  0
   47.1640   33.7350   38.1740 O   0  0  0  0  0  0  0  0  0  0  0  0
   48.4210   34.0850   37.7770 C   0  0  0  0  0  3  0  0  0  0  0  0
   48.8690   34.7680   38.4910 H   0  0  0  0  0  0  0  0  0  0  0  0
   50.5210   32.8990   37.5650 O   0  0  0  0  0  0  0  0  0  0  0  0
   50.7670   33.8570   37.7530 H   0  0  0  0  0  0  0  0  0  0  0  0
  1  2  1  1  0  0  0
  1 18  1  0  0  0  0
  2  8  1  0  0  0  0
  3  2  1  0  0  0  0
  3  9  1  0  0  0  0
  3  4  1  0  0  0  0
  4 11  1  0  0  0  0
  5  4  1  0  0  0  0
  5 13  1  0  0  0  0
  6 15  1  6  0  0  0
  6  1  1  0  0  0  0
  6  5  1  0  0  0  0
  7  2  1  0  0  0  0
 10  3  1  0  0  0  0
 12  4  1  0  0  0  0
 14  5  1  0  0  0  0
 16 19  1  6  0  0  0
 16 18  1  0  0  0  0
 16 24  1  0  0  0  0
 17 16  1  0  0  0  0
 17 18  1  0  0  0  0
 17 21  1  0  0  0  0
 18 22  1  1  0  0  0
 20 17  1  0  0  0  0
 23 28  1  0  0  0  0
 24 23  2  0  0  0  0
 24 25  1  0  0  0  0
 25 26  2  0  0  0  0
 26 27  1  0  0  0  0
 27 31  1  0  0  0  0
 28 27  2  0  0  0  0
 29 23  1  0  0  0  0
 30 25  1  0  0  0  0
 32  6  1  0  0  0  0
 33 32  1  0  0  0  0
 34 41  1  1  0  0  0
 34 39  1  0  0  0  0
 34 35  1  0  0  0  0
 35 36  1  0  0  0  0
 35 32  1  1  0  0  0
 36 37  1  0  0  0  0
 38 36  1  0  0  0  0
 39 38  1  0  0  0  0
 39 40  1  0  0  0  0
 41 42  1  0  0  0  0
M  END
>  <minimizedAffinity>
-5.54602671

>  <minimizedRMSD>
1.67953515

$$$$
