
 OpenBabel03252506453D

 42 45  0  0  1  0  0  0  0  0999 V2000
   49.3940   33.2950   41.3610 N   0  0  1  0  0  0  0  0  0  0  0  0
   50.6730   33.0620   41.9980 C   0  0  0  0  0  0  0  0  0  0  0  0
   51.2790   31.7410   41.6130 C   0  0  0  0  0  0  0  0  0  0  0  0
   50.4280   30.6520   42.2400 C   0  0  0  0  0  0  0  0  0  0  0  0
   48.9610   31.0090   42.1500 C   0  0  0  0  0  0  0  0  0  0  0  0
   48.7670   32.0420   41.0750 C   0  0  2  0  0  0  0  0  0  0  0  0
   51.3470   33.9280   41.8760 H   0  0  0  0  0  0  0  0  0  0  0  0
   50.4650   32.9850   43.1020 H   0  0  0  0  0  0  0  0  0  0  0  0
   52.2850   31.7090   42.0990 H   0  0  0  0  0  0  0  0  0  0  0  0
   51.4520   31.5950   40.5460 H   0  0  0  0  0  0  0  0  0  0  0  0
   50.7420   30.5000   43.3020 H   0  0  0  0  0  0  0  0  0  0  0  0
   50.6100   29.7190   41.7140 H   0  0  0  0  0  0  0  0  0  0  0  0
   48.7580   31.5690   43.1160 H   0  0  0  0  0  0  0  0  0  0  0  0
   48.2680   30.1860   42.1590 H   0  0  0  0  0  0  0  0  0  0  0  0
   47.6660   32.2940   41.1730 H   0  0  0  0  0  0  0  0  0  0  0  0
   47.2620   34.6250   41.9420 C   0  0  1  0  0  0  0  0  0  0  0  0
   48.4020   35.5460   41.7160 C   0  0  0  0  0  0  0  0  0  0  0  0
   48.6550   34.1740   42.1960 C   0  0  2  0  0  0  0  0  0  0  0  0
   46.7740   34.2300   41.0130 H   0  0  0  0  0  0  0  0  0  0  0  0
   48.7370   35.8360   40.7090 H   0  0  0  0  0  0  0  0  0  0  0  0
   48.5670   36.3550   42.4710 H   0  0  0  0  0  0  0  0  0  0  0  0
   48.8740   34.0250   43.2930 H   0  0  0  0  0  0  0  0  0  0  0  0
   45.5410   36.0320   43.1170 C   0  0  0  0  0  0  0  0  0  0  0  0
   46.3530   34.8840   43.0580 C   0  0  0  0  0  0  0  0  0  0  0  0
   46.2440   33.9720   44.1330 C   0  0  0  0  0  0  0  0  0  0  0  0
   45.3800   34.2410   45.1460 N   0  0  0  0  0  0  0  0  0  0  0  0
   44.6190   35.3560   45.1640 C   0  0  0  0  0  0  0  0  0  0  0  0
   44.6910   36.2630   44.1490 N   0  0  0  0  0  0  0  0  0  0  0  0
   45.6240   36.7300   42.2970 H   0  0  0  0  0  0  0  0  0  0  0  0
   46.8490   33.0790   44.1280 H   0  0  0  0  0  0  0  0  0  0  0  0
   43.9230   35.5950   45.9580 H   0  0  0  0  0  0  0  0  0  0  0  0
   49.0870   31.5230   39.8040 N   0  0  0  0  0  0  0  0  0  0  0  0
   49.7410   30.7330   39.8810 H   0  0  0  0  0  0  0  0  0  0  0  0
   48.0400   32.3430   37.7170 C   0  0  1  0  0  3  0  0  0  0  0  0
   49.2110   32.2490   38.6490 C   0  0  2  0  0  3  0  0  0  0  0  0
   50.3180   31.9670   37.6860 C   0  0  0  0  0  3  0  0  0  0  0  0
   51.1860   31.4750   38.1290 H   0  0  0  0  0  0  0  0  0  0  0  0
   49.7680   31.3350   36.5830 O   0  0  0  0  0  0  0  0  0  0  0  0
   48.4060   31.3310   36.6630 C   0  0  0  0  0  3  0  0  0  0  0  0
   48.0360   30.3240   36.8180 H   0  0  0  0  0  0  0  0  0  0  0  0
   46.8030   32.1880   38.2620 O   0  0  0  0  0  0  0  0  0  0  0  0
   46.3620   31.3910   37.8320 H   0  0  0  0  0  0  0  0  0  0  0  0
  1  2  1  1  0  0  0
  1 18  1  0  0  0  0
  2  8  1  0  0  0  0
  3  2  1  0  0  0  0
  3  9  1  0  0  0  0
  3  4  1  0  0  0  0
  4 11  1  0  0  0  0
  5 14  1  0  0  0  0
  5  4  1  0  0  0  0
  5 13  1  0  0  0  0
  6 15  1  6  0  0  0
  6  1  1  0  0  0  0
  6  5  1  0  0  0  0
  7  2  1  0  0  0  0
 10  3  1  0  0  0  0
 12  4  1  0  0  0  0
 16 19  1  6  0  0  0
 16 18  1  0  0  0  0
 16 24  1  0  0  0  0
 17 16  1  0  0  0  0
 17 18  1  0  0  0  0
 17 21  1  0  0  0  0
 18 22  1  1  0  0  0
 20 17  1  0  0  0  0
 23 28  1  0  0  0  0
 24 23  2  0  0  0  0
 24 25  1  0  0  0  0
 25 26  2  0  0  0  0
 26 27  1  0  0  0  0
 27 31  1  0  0  0  0
 28 27  2  0  0  0  0
 29 23  1  0  0  0  0
 30 25  1  0  0  0  0
 32 33  1  0  0  0  0
 32  6  1  0  0  0  0
 34 41  1  1  0  0  0
 34 35  1  0  0  0  0
 35 32  1  1  0  0  0
 36 37  1  0  0  0  0
 36 35  1  0  0  0  0
 38 39  1  0  0  0  0
 38 36  1  0  0  0  0
 39 40  1  0  0  0  0
 39 34  1  0  0  0  0
 42 41  1  0  0  0  0
M  END
>  <minimizedAffinity>
-4.97189093

>  <minimizedRMSD>
2.014709

$$$$
