
 OpenBabel03252506453D

 42 45  0  0  1  0  0  0  0  0999 V2000
   49.5850   33.5260   41.4470 N   0  0  1  0  0  0  0  0  0  0  0  0
   50.7160   33.1090   42.2490 C   0  0  0  0  0  0  0  0  0  0  0  0
   51.2890   31.7940   41.8020 C   0  0  0  0  0  0  0  0  0  0  0  0
   50.2710   30.7180   42.1340 C   0  0  0  0  0  0  0  0  0  0  0  0
   48.8690   31.2110   41.8510 C   0  0  0  0  0  0  0  0  0  0  0  0
   48.9350   32.3750   40.9020 C   0  0  2  0  0  0  0  0  0  0  0  0
   51.4570   33.9200   42.3530 H   0  0  0  0  0  0  0  0  0  0  0  0
   50.3140   32.9220   43.2850 H   0  0  0  0  0  0  0  0  0  0  0  0
   52.1910   31.6160   42.4380 H   0  0  0  0  0  0  0  0  0  0  0  0
   51.6350   31.7580   40.7670 H   0  0  0  0  0  0  0  0  0  0  0  0
   50.3840   30.4160   43.2040 H   0  0  0  0  0  0  0  0  0  0  0  0
   50.4790   29.8410   41.5280 H   0  0  0  0  0  0  0  0  0  0  0  0
   48.5390   31.6710   42.8350 H   0  0  0  0  0  0  0  0  0  0  0  0
   48.1320   30.4570   41.6400 H   0  0  0  0  0  0  0  0  0  0  0  0
   47.8530   32.7100   40.8500 H   0  0  0  0  0  0  0  0  0  0  0  0
   47.3560   34.7110   41.9740 C   0  0  1  0  0  0  0  0  0  0  0  0
   48.4320   35.7070   41.7490 C   0  0  0  0  0  0  0  0  0  0  0  0
   48.7730   34.3640   42.2560 C   0  0  2  0  0  0  0  0  0  0  0  0
   46.9110   34.2670   41.0450 H   0  0  0  0  0  0  0  0  0  0  0  0
   48.7610   36.0040   40.7430 H   0  0  0  0  0  0  0  0  0  0  0  0
   48.5270   36.5380   42.4930 H   0  0  0  0  0  0  0  0  0  0  0  0
   48.9850   34.2480   43.3580 H   0  0  0  0  0  0  0  0  0  0  0  0
   45.5660   36.0440   43.1310 C   0  0  0  0  0  0  0  0  0  0  0  0
   46.4130   34.9220   43.0720 C   0  0  0  0  0  0  0  0  0  0  0  0
   46.3060   33.9880   44.1270 C   0  0  0  0  0  0  0  0  0  0  0  0
   45.4110   34.2130   45.1250 N   0  0  0  0  0  0  0  0  0  0  0  0
   44.6160   35.3050   45.1430 C   0  0  0  0  0  0  0  0  0  0  0  0
   44.6860   36.2320   44.1460 N   0  0  0  0  0  0  0  0  0  0  0  0
   45.6470   36.7600   42.3260 H   0  0  0  0  0  0  0  0  0  0  0  0
   46.9370   33.1130   44.1210 H   0  0  0  0  0  0  0  0  0  0  0  0
   43.8950   35.5080   45.9250 H   0  0  0  0  0  0  0  0  0  0  0  0
   49.4350   31.9810   39.6440 N   0  0  0  0  0  0  0  0  0  0  0  0
   50.0650   32.6950   39.2570 H   0  0  0  0  0  0  0  0  0  0  0  0
   49.4300   30.0830   38.0570 C   0  0  1  0  0  3  0  0  0  0  0  0
   48.7540   31.2560   38.7020 C   0  0  2  0  0  3  0  0  0  0  0  0
   48.1510   31.9270   37.5110 C   0  0  0  0  0  3  0  0  0  0  0  0
   47.9450   32.9900   37.6500 H   0  0  0  0  0  0  0  0  0  0  0  0
   48.9250   31.6050   36.4070 O   0  0  0  0  0  0  0  0  0  0  0  0
   49.8590   30.6660   36.7360 C   0  0  0  0  0  3  0  0  0  0  0  0
   50.8550   31.0930   36.7040 H   0  0  0  0  0  0  0  0  0  0  0  0
   50.4160   29.4720   38.7660 O   0  0  0  0  0  0  0  0  0  0  0  0
   51.2730   29.5340   38.2420 H   0  0  0  0  0  0  0  0  0  0  0  0
  1  2  1  1  0  0  0
  1 18  1  0  0  0  0
  2  7  1  0  0  0  0
  2  8  1  0  0  0  0
  3  4  1  0  0  0  0
  3  2  1  0  0  0  0
  3  9  1  0  0  0  0
  4 11  1  0  0  0  0
  5  4  1  0  0  0  0
  5 13  1  0  0  0  0
  6 15  1  6  0  0  0
  6  1  1  0  0  0  0
  6  5  1  0  0  0  0
 10  3  1  0  0  0  0
 12  4  1  0  0  0  0
 14  5  1  0  0  0  0
 16 19  1  6  0  0  0
 16 18  1  0  0  0  0
 16 24  1  0  0  0  0
 17 16  1  0  0  0  0
 17 18  1  0  0  0  0
 17 21  1  0  0  0  0
 18 22  1  1  0  0  0
 20 17  1  0  0  0  0
 23 28  1  0  0  0  0
 24 23  2  0  0  0  0
 24 25  1  0  0  0  0
 25 26  2  0  0  0  0
 26 27  1  0  0  0  0
 27 31  1  0  0  0  0
 28 27  2  0  0  0  0
 29 23  1  0  0  0  0
 30 25  1  0  0  0  0
 32  6  1  0  0  0  0
 33 32  1  0  0  0  0
 34 35  1  0  0  0  0
 34 41  1  1  0  0  0
 35 32  1  6  0  0  0
 36 37  1  0  0  0  0
 36 35  1  0  0  0  0
 38 39  1  0  0  0  0
 38 36  1  0  0  0  0
 39 34  1  0  0  0  0
 40 39  1  0  0  0  0
 42 41  1  0  0  0  0
M  END
>  <minimizedAffinity>
-4.70999193

>  <minimizedRMSD>
0.941859961

$$$$
