
 OpenBabel03252506453D

 42 45  0  0  1  0  0  0  0  0999 V2000
   49.5280   33.4550   41.3750 N   0  0  1  0  0  0  0  0  0  0  0  0
   50.7130   33.0870   42.1210 C   0  0  0  0  0  0  0  0  0  0  0  0
   51.2890   31.7710   41.6790 C   0  0  0  0  0  0  0  0  0  0  0  0
   50.3180   30.6850   42.1030 C   0  0  0  0  0  0  0  0  0  0  0  0
   48.8910   31.1380   41.8900 C   0  0  0  0  0  0  0  0  0  0  0  0
   48.8740   32.2740   40.9040 C   0  0  2  0  0  0  0  0  0  0  0  0
   51.4400   33.9170   42.1570 H   0  0  0  0  0  0  0  0  0  0  0  0
   50.3770   32.9240   43.1840 H   0  0  0  0  0  0  0  0  0  0  0  0
   52.2310   31.6330   42.2660 H   0  0  0  0  0  0  0  0  0  0  0  0
   51.5750   31.7110   40.6280 H   0  0  0  0  0  0  0  0  0  0  0  0
   50.5010   30.4180   43.1730 H   0  0  0  0  0  0  0  0  0  0  0  0
   50.5110   29.7940   41.5120 H   0  0  0  0  0  0  0  0  0  0  0  0
   48.6090   31.6210   42.8770 H   0  0  0  0  0  0  0  0  0  0  0  0
   48.1610   30.3620   41.7440 H   0  0  0  0  0  0  0  0  0  0  0  0
   47.7840   32.5830   40.9060 H   0  0  0  0  0  0  0  0  0  0  0  0
   47.3380   34.6960   41.9390 C   0  0  1  0  0  0  0  0  0  0  0  0
   48.4430   35.6630   41.7300 C   0  0  0  0  0  0  0  0  0  0  0  0
   48.7450   34.2990   42.2060 C   0  0  2  0  0  0  0  0  0  0  0  0
   46.8760   34.2850   41.0030 H   0  0  0  0  0  0  0  0  0  0  0  0
   48.7770   35.9710   40.7280 H   0  0  0  0  0  0  0  0  0  0  0  0
   48.5670   36.4740   42.4900 H   0  0  0  0  0  0  0  0  0  0  0  0
   48.9580   34.1540   43.3050 H   0  0  0  0  0  0  0  0  0  0  0  0
   45.5660   36.0380   43.1120 C   0  0  0  0  0  0  0  0  0  0  0  0
   46.4070   34.9120   43.0450 C   0  0  0  0  0  0  0  0  0  0  0  0
   46.3060   33.9790   44.1030 C   0  0  0  0  0  0  0  0  0  0  0  0
   45.4220   34.2080   45.1080 N   0  0  0  0  0  0  0  0  0  0  0  0
   44.6320   35.3040   45.1340 C   0  0  0  0  0  0  0  0  0  0  0  0
   44.6960   36.2290   44.1360 N   0  0  0  0  0  0  0  0  0  0  0  0
   45.6420   36.7520   42.3060 H   0  0  0  0  0  0  0  0  0  0  0  0
   46.9330   33.1010   44.0910 H   0  0  0  0  0  0  0  0  0  0  0  0
   43.9190   35.5100   45.9220 H   0  0  0  0  0  0  0  0  0  0  0  0
   49.3090   31.8520   39.6310 N   0  0  0  0  0  0  0  0  0  0  0  0
   50.2200   32.2660   39.3960 H   0  0  0  0  0  0  0  0  0  0  0  0
   49.0590   30.8310   37.3920 C   0  0  1  0  0  3  0  0  0  0  0  0
   48.5040   31.6050   38.5500 C   0  0  2  0  0  3  0  0  0  0  0  0
   47.8130   32.7230   37.8400 C   0  0  0  0  0  3  0  0  0  0  0  0
   47.6680   33.6190   38.4460 H   0  0  0  0  0  0  0  0  0  0  0  0
   48.4560   32.9150   36.6270 O   0  0  0  0  0  0  0  0  0  0  0  0
   49.3760   31.9300   36.4130 C   0  0  0  0  0  3  0  0  0  0  0  0
   50.3820   32.3340   36.4580 H   0  0  0  0  0  0  0  0  0  0  0  0
   50.0830   29.9760   37.6530 O   0  0  0  0  0  0  0  0  0  0  0  0
   50.8850   30.2640   37.1170 H   0  0  0  0  0  0  0  0  0  0  0  0
  1  2  1  1  0  0  0
  1 18  1  0  0  0  0
  2  7  1  0  0  0  0
  2  8  1  0  0  0  0
  3  4  1  0  0  0  0
  3  2  1  0  0  0  0
  3  9  1  0  0  0  0
  4 11  1  0  0  0  0
  5  4  1  0  0  0  0
  5 13  1  0  0  0  0
  6 15  1  6  0  0  0
  6  1  1  0  0  0  0
  6  5  1  0  0  0  0
 10  3  1  0  0  0  0
 12  4  1  0  0  0  0
 14  5  1  0  0  0  0
 16 19  1  6  0  0  0
 16 18  1  0  0  0  0
 16 24  1  0  0  0  0
 17 16  1  0  0  0  0
 17 18  1  0  0  0  0
 17 21  1  0  0  0  0
 18 22  1  1  0  0  0
 20 17  1  0  0  0  0
 23 28  1  0  0  0  0
 24 23  2  0  0  0  0
 24 25  1  0  0  0  0
 25 26  2  0  0  0  0
 26 27  1  0  0  0  0
 27 31  1  0  0  0  0
 28 27  2  0  0  0  0
 29 23  1  0  0  0  0
 30 25  1  0  0  0  0
 32  6  1  0  0  0  0
 33 32  1  0  0  0  0
 34 41  1  1  0  0  0
 34 35  1  0  0  0  0
 35 32  1  1  0  0  0
 36 37  1  0  0  0  0
 36 35  1  0  0  0  0
 38 36  1  0  0  0  0
 39 40  1  0  0  0  0
 39 38  1  0  0  0  0
 39 34  1  0  0  0  0
 42 41  1  0  0  0  0
M  END
>  <minimizedAffinity>
-4.88188934

>  <minimizedRMSD>
1.4585048

$$$$
