
 OpenBabel03242521093D

 40 43  0  0  1  0  0  0  0  0999 V2000
   38.5950   31.7080   39.0410 C   0  0  2  0  0  0  0  0  0  0  0  0
   38.0260   31.7250   37.6750 C   0  0  0  0  0  0  0  0  0  0  0  0
   37.1650   31.5060   38.9280 C   0  0  1  0  0  0  0  0  0  0  0  0
   39.1970   30.7750   39.2710 H   0  0  0  0  0  0  0  0  0  0  0  0
   37.9530   32.6880   37.1430 H   0  0  0  0  0  0  0  0  0  0  0  0
   38.1120   30.8390   37.0170 H   0  0  0  0  0  0  0  0  0  0  0  0
   36.4270   32.3190   39.0620 H   0  0  0  0  0  0  0  0  0  0  0  0
   40.9970   34.2020   40.2950 C   0  0  0  0  0  0  0  0  0  0  0  0
   40.0820   35.2230   40.5480 C   0  0  0  0  0  0  0  0  0  0  0  0
   38.7240   35.1420   40.3290 C   0  0  0  0  0  0  0  0  0  0  0  0
   38.2250   33.9560   39.8180 C   0  0  0  0  0  0  0  0  0  0  0  0
   39.1410   32.9700   39.5780 C   0  0  0  0  0  0  0  0  0  0  0  0
   40.4380   33.0970   39.8060 N   0  0  0  0  0  0  0  0  0  0  0  0
   40.4400   36.1680   40.9490 H   0  0  0  0  0  0  0  0  0  0  0  0
   38.0650   35.9600   40.5410 H   0  0  0  0  0  0  0  0  0  0  0  0
   37.1670   33.8610   39.6350 H   0  0  0  0  0  0  0  0  0  0  0  0
   44.7570   34.0870   40.1170 C   0  0  0  0  0  0  0  0  0  0  0  0
   43.4250   33.8560   39.7190 C   0  0  0  0  0  0  0  0  0  0  0  0
   42.4310   34.3450   40.5460 C   0  0  0  0  0  0  0  0  0  0  0  0
   42.7760   35.0070   41.6750 N   0  0  0  0  0  0  0  0  0  0  0  0
   44.0700   35.2050   42.0190 C   0  0  0  0  0  0  0  0  0  0  0  0
   45.0420   34.7430   41.2380 N   0  0  0  0  0  0  0  0  0  0  0  0
   45.4770   33.6640   39.3990 H   0  0  0  0  0  0  0  0  0  0  0  0
   43.0930   33.3450   38.8450 H   0  0  0  0  0  0  0  0  0  0  0  0
   44.2890   35.7430   42.9370 H   0  0  0  0  0  0  0  0  0  0  0  0
   36.6050   30.2270   39.0510 O   0  0  0  0  0  0  0  0  0  0  0  0
   36.1160   31.1940   41.3620 O   0  0  0  0  0  0  0  0  0  0  0  0
   36.1600   29.8440   40.6280 P   0  0  1  0  0  0  0  0  0  0  0  0
   34.6130   29.2130   40.6770 O   0  0  0  0  0  0  0  0  0  0  0  0
   34.6350   28.2110   40.7180 H   0  0  0  0  0  0  0  0  0  0  0  0
   37.2920   28.9250   41.4640 O   0  0  0  0  0  0  0  0  0  0  0  0
   37.0710   27.8740   43.6010 C   0  0  1  0  0  3  0  0  0  0  0  0
   36.6590   27.8860   42.1430 C   0  0  2  0  0  3  0  0  0  0  0  0
   37.2330   26.5180   41.7480 C   0  0  0  0  0  3  0  0  0  0  0  0
   37.2470   26.3480   40.6740 H   0  0  0  0  0  0  0  0  0  0  0  0
   38.4210   26.3730   42.4110 O   0  0  0  0  0  0  0  0  0  0  0  0
   38.4260   27.2080   43.5090 C   0  0  0  0  0  3  0  0  0  0  0  0
   39.1660   28.0300   43.3100 H   0  0  0  0  0  0  0  0  0  0  0  0
   37.1380   29.1610   44.1210 O   0  0  0  0  0  0  0  0  0  0  0  0
   37.2240   29.0890   45.1050 H   0  0  0  0  0  0  0  0  0  0  0  0
  1  4  1  1  0  0  0
  1 12  1  0  0  0  0
  2  3  1  0  0  0  0
  2  1  1  0  0  0  0
  3  1  1  0  0  0  0
  3 26  1  0  0  0  0
  3  7  1  1  0  0  0
  5  2  1  0  0  0  0
  6  2  1  0  0  0  0
  8 19  1  0  0  0  0
  8  9  1  0  0  0  0
  9 14  1  0  0  0  0
 10 15  1  0  0  0  0
 10  9  2  0  0  0  0
 11 10  1  0  0  0  0
 12 13  1  0  0  0  0
 12 11  2  0  0  0  0
 13  8  2  0  0  0  0
 16 11  1  0  0  0  0
 17 22  1  0  0  0  0
 18 17  2  0  0  0  0
 18 19  1  0  0  0  0
 19 20  2  0  0  0  0
 20 21  1  0  0  0  0
 21 25  1  0  0  0  0
 22 21  2  0  0  0  0
 23 17  1  0  0  0  0
 24 18  1  0  0  0  0
 26 28  1  0  0  0  0
 28 29  1  0  0  0  0
 28 27  2  1  0  0  0
 28 31  1  0  0  0  0
 29 30  1  0  0  0  0
 32 39  1  6  0  0  0
 33 31  1  6  0  0  0
 33 32  1  0  0  0  0
 34 33  1  0  0  0  0
 34 36  1  0  0  0  0
 35 34  1  0  0  0  0
 36 37  1  0  0  0  0
 37 32  1  0  0  0  0
 38 37  1  0  0  0  0
 39 40  1  0  0  0  0
M  END
>  <minimizedAffinity>
-6.58642912

$$$$

 OpenBabel03242521093D

 40 43  0  0  1  0  0  0  0  0999 V2000
   37.2600   32.2480   40.4380 C   0  0  2  0  0  0  0  0  0  0  0  0
   37.2630   32.5550   38.9920 C   0  0  0  0  0  0  0  0  0  0  0  0
   38.5190   32.6770   39.8670 C   0  0  1  0  0  0  0  0  0  0  0  0
   36.7250   33.0260   41.0680 H   0  0  0  0  0  0  0  0  0  0  0  0
   37.1960   31.7230   38.2720 H   0  0  0  0  0  0  0  0  0  0  0  0
   36.8690   33.5210   38.6190 H   0  0  0  0  0  0  0  0  0  0  0  0
   39.3090   31.9710   39.5450 H   0  0  0  0  0  0  0  0  0  0  0  0
   37.8750   28.9230   41.8990 C   0  0  0  0  0  0  0  0  0  0  0  0
   36.6570   28.3430   41.5480 C   0  0  0  0  0  0  0  0  0  0  0  0
   35.6450   28.9790   40.8620 C   0  0  0  0  0  0  0  0  0  0  0  0
   35.8490   30.2970   40.4910 C   0  0  0  0  0  0  0  0  0  0  0  0
   37.0520   30.8440   40.8460 C   0  0  0  0  0  0  0  0  0  0  0  0
   37.9920   30.1900   41.5070 N   0  0  0  0  0  0  0  0  0  0  0  0
   36.4640   27.3100   41.8240 H   0  0  0  0  0  0  0  0  0  0  0  0
   34.7270   28.4850   40.6170 H   0  0  0  0  0  0  0  0  0  0  0  0
   35.0770   30.8230   39.9540 H   0  0  0  0  0  0  0  0  0  0  0  0
   39.8180   26.4920   44.0200 C   0  0  0  0  0  0  0  0  0  0  0  0
   38.6960   27.0590   43.3810 C   0  0  0  0  0  0  0  0  0  0  0  0
   38.9140   28.1990   42.6300 C   0  0  0  0  0  0  0  0  0  0  0  0
   40.1660   28.7070   42.5470 N   0  0  0  0  0  0  0  0  0  0  0  0
   41.2150   28.1290   43.1790 C   0  0  0  0  0  0  0  0  0  0  0  0
   41.0280   27.0320   43.9060 N   0  0  0  0  0  0  0  0  0  0  0  0
   39.5490   25.5900   44.5920 H   0  0  0  0  0  0  0  0  0  0  0  0
   37.6920   26.7060   43.4090 H   0  0  0  0  0  0  0  0  0  0  0  0
   42.1970   28.5800   43.0770 H   0  0  0  0  0  0  0  0  0  0  0  0
   38.9910   33.9820   40.0560 O   0  0  0  0  0  0  0  0  0  0  0  0
   40.8970   35.4730   39.2450 O   0  0  0  0  0  0  0  0  0  0  0  0
   40.6640   34.1120   39.9220 P   0  0  1  0  0  0  0  0  0  0  0  0
   41.3810   34.1900   41.4290 O   0  0  0  0  0  0  0  0  0  0  0  0
   41.7350   33.2920   41.7050 H   0  0  0  0  0  0  0  0  0  0  0  0
   41.3660   32.9830   38.8960 O   0  0  0  0  0  0  0  0  0  0  0  0
   43.2590   33.3280   37.4750 C   0  0  1  0  0  3  0  0  0  0  0  0
   42.7510   33.1360   38.8900 C   0  0  2  0  0  3  0  0  0  0  0  0
   43.4700   31.8150   39.1970 C   0  0  0  0  0  3  0  0  0  0  0  0
   43.1210   31.3350   40.1080 H   0  0  0  0  0  0  0  0  0  0  0  0
   43.4390   31.0640   38.0540 O   0  0  0  0  0  0  0  0  0  0  0  0
   43.2510   31.9010   36.9730 C   0  0  0  0  0  3  0  0  0  0  0  0
   42.2180   31.7160   36.5730 H   0  0  0  0  0  0  0  0  0  0  0  0
   42.4230   34.1610   36.7420 O   0  0  0  0  0  0  0  0  0  0  0  0
   42.8900   34.4020   35.9030 H   0  0  0  0  0  0  0  0  0  0  0  0
  1 12  1  0  0  0  0
  1  4  1  1  0  0  0
  2  3  1  0  0  0  0
  2  1  1  0  0  0  0
  3  7  1  6  0  0  0
  3 26  1  0  0  0  0
  3  1  1  0  0  0  0
  5  2  1  0  0  0  0
  6  2  1  0  0  0  0
  8 19  1  0  0  0  0
  9 14  1  0  0  0  0
  9  8  1  0  0  0  0
 10  9  2  0  0  0  0
 11 12  2  0  0  0  0
 11 10  1  0  0  0  0
 12 13  1  0  0  0  0
 13  8  2  0  0  0  0
 15 10  1  0  0  0  0
 16 11  1  0  0  0  0
 17 23  1  0  0  0  0
 18 24  1  0  0  0  0
 18 17  2  0  0  0  0
 19 18  1  0  0  0  0
 20 19  2  0  0  0  0
 20 21  1  0  0  0  0
 21 22  2  0  0  0  0
 22 17  1  0  0  0  0
 25 21  1  0  0  0  0
 28 27  2  6  0  0  0
 28 26  1  0  0  0  0
 28 29  1  0  0  0  0
 29 30  1  0  0  0  0
 31 28  1  0  0  0  0
 32 39  1  6  0  0  0
 32 33  1  0  0  0  0
 33 31  1  6  0  0  0
 33 34  1  0  0  0  0
 34 35  1  0  0  0  0
 36 34  1  0  0  0  0
 37 32  1  0  0  0  0
 37 36  1  0  0  0  0
 38 37  1  0  0  0  0
 40 39  1  0  0  0  0
M  END
>  <minimizedAffinity>
-6.51384068

$$$$

 OpenBabel03242521093D

 40 43  0  0  1  0  0  0  0  0999 V2000
   36.4200   28.8010   39.8390 C   0  0  2  0  0  0  0  0  0  0  0  0
   35.0490   28.9960   40.3600 C   0  0  0  0  0  0  0  0  0  0  0  0
   36.2910   29.0160   41.2660 C   0  0  1  0  0  0  0  0  0  0  0  0
   36.6420   27.7320   39.5300 H   0  0  0  0  0  0  0  0  0  0  0  0
   34.5310   29.9460   40.1490 H   0  0  0  0  0  0  0  0  0  0  0  0
   34.3790   28.1290   40.5220 H   0  0  0  0  0  0  0  0  0  0  0  0
   36.4290   30.0050   41.7430 H   0  0  0  0  0  0  0  0  0  0  0  0
   38.2150   31.8260   38.7440 C   0  0  0  0  0  0  0  0  0  0  0  0
   37.9570   31.7040   37.3790 C   0  0  0  0  0  0  0  0  0  0  0  0
   37.2320   30.6870   36.7970 C   0  0  0  0  0  0  0  0  0  0  0  0
   36.7170   29.7080   37.6290 C   0  0  0  0  0  0  0  0  0  0  0  0
   36.9820   29.8490   38.9630 C   0  0  0  0  0  0  0  0  0  0  0  0
   37.6860   30.8450   39.4730 N   0  0  0  0  0  0  0  0  0  0  0  0
   38.3470   32.4560   36.6980 H   0  0  0  0  0  0  0  0  0  0  0  0
   37.0640   30.6420   35.7400 H   0  0  0  0  0  0  0  0  0  0  0  0
   36.1440   28.8990   37.2040 H   0  0  0  0  0  0  0  0  0  0  0  0
   40.9510   34.1910   39.7920 C   0  0  0  0  0  0  0  0  0  0  0  0
   40.3640   33.0620   39.1840 C   0  0  0  0  0  0  0  0  0  0  0  0
   38.9940   32.9270   39.3070 C   0  0  0  0  0  0  0  0  0  0  0  0
   38.2960   33.8630   39.9910 N   0  0  0  0  0  0  0  0  0  0  0  0
   38.9020   34.9320   40.5600 C   0  0  0  0  0  0  0  0  0  0  0  0
   40.2180   35.0810   40.4540 N   0  0  0  0  0  0  0  0  0  0  0  0
   42.0420   34.2140   39.6420 H   0  0  0  0  0  0  0  0  0  0  0  0
   40.8590   32.2960   38.6350 H   0  0  0  0  0  0  0  0  0  0  0  0
   38.2920   35.6520   41.0970 H   0  0  0  0  0  0  0  0  0  0  0  0
   36.3880   27.9490   42.1680 O   0  0  0  0  0  0  0  0  0  0  0  0
   38.3140   29.4290   42.9530 O   0  0  0  0  0  0  0  0  0  0  0  0
   37.4630   28.2410   43.4300 P   0  0  1  0  0  0  0  0  0  0  0  0
   36.6520   28.7450   44.8020 O   0  0  0  0  0  0  0  0  0  0  0  0
   36.5180   27.9820   45.4410 H   0  0  0  0  0  0  0  0  0  0  0  0
   38.5580   26.9990   43.7100 O   0  0  0  0  0  0  0  0  0  0  0  0
   38.8030   25.2450   42.1020 C   0  0  1  0  0  3  0  0  0  0  0  0
   39.1980   26.6460   42.5230 C   0  0  2  0  0  3  0  0  0  0  0  0
   40.6950   26.3910   42.7390 C   0  0  0  0  0  3  0  0  0  0  0  0
   41.2050   27.2070   43.2450 H   0  0  0  0  0  0  0  0  0  0  0  0
   40.8160   25.1480   43.3000 O   0  0  0  0  0  0  0  0  0  0  0  0
   39.6820   24.4160   43.0130 C   0  0  0  0  0  3  0  0  0  0  0  0
   39.1080   24.2860   43.9690 H   0  0  0  0  0  0  0  0  0  0  0  0
   37.4490   25.0140   42.3060 O   0  0  0  0  0  0  0  0  0  0  0  0
   37.2100   24.1690   41.8480 H   0  0  0  0  0  0  0  0  0  0  0  0
  1  4  1  6  0  0  0
  1  2  1  0  0  0  0
  1  3  1  0  0  0  0
  2  6  1  0  0  0  0
  2  3  1  0  0  0  0
  3  7  1  1  0  0  0
  3 26  1  0  0  0  0
  5  2  1  0  0  0  0
  8 19  1  0  0  0  0
  8 13  1  0  0  0  0
  9  8  2  0  0  0  0
 10  9  1  0  0  0  0
 10 11  2  0  0  0  0
 11 12  1  0  0  0  0
 12 13  2  0  0  0  0
 12  1  1  0  0  0  0
 14  9  1  0  0  0  0
 15 10  1  0  0  0  0
 16 11  1  0  0  0  0
 17 22  1  0  0  0  0
 18 19  1  0  0  0  0
 18 17  2  0  0  0  0
 19 20  2  0  0  0  0
 20 21  1  0  0  0  0
 21 25  1  0  0  0  0
 22 21  2  0  0  0  0
 23 17  1  0  0  0  0
 24 18  1  0  0  0  0
 26 28  1  0  0  0  0
 28 27  2  6  0  0  0
 28 31  1  0  0  0  0
 28 29  1  0  0  0  0
 29 30  1  0  0  0  0
 32 39  1  1  0  0  0
 32 33  1  0  0  0  0
 32 37  1  0  0  0  0
 33 34  1  0  0  0  0
 33 31  1  1  0  0  0
 34 35  1  0  0  0  0
 34 36  1  0  0  0  0
 37 36  1  0  0  0  0
 37 38  1  0  0  0  0
 40 39  1  0  0  0  0
M  END
>  <minimizedAffinity>
-6.4549737

$$$$

 OpenBabel03242521093D

 40 43  0  0  1  0  0  0  0  0999 V2000
   37.9250   31.5210   40.7130 C   0  0  2  0  0  0  0  0  0  0  0  0
   37.1330   32.5740   40.0420 C   0  0  0  0  0  0  0  0  0  0  0  0
   38.3490   31.9060   39.3830 C   0  0  1  0  0  0  0  0  0  0  0  0
   38.5750   31.9100   41.5580 H   0  0  0  0  0  0  0  0  0  0  0  0
   36.1250   32.3250   39.6710 H   0  0  0  0  0  0  0  0  0  0  0  0
   37.2800   33.6410   40.2990 H   0  0  0  0  0  0  0  0  0  0  0  0
   38.0630   31.3480   38.4710 H   0  0  0  0  0  0  0  0  0  0  0  0
   37.4490   28.0030   41.6950 C   0  0  0  0  0  0  0  0  0  0  0  0
   36.1000   27.9030   41.3580 C   0  0  0  0  0  0  0  0  0  0  0  0
   35.3370   28.9210   40.8300 C   0  0  0  0  0  0  0  0  0  0  0  0
   35.9540   30.1420   40.6160 C   0  0  0  0  0  0  0  0  0  0  0  0
   37.2770   30.2160   40.9530 C   0  0  0  0  0  0  0  0  0  0  0  0
   37.9670   29.2070   41.4590 N   0  0  0  0  0  0  0  0  0  0  0  0
   35.5850   26.9580   41.5140 H   0  0  0  0  0  0  0  0  0  0  0  0
   34.3020   28.7890   40.5890 H   0  0  0  0  0  0  0  0  0  0  0  0
   35.3840   30.9590   40.2040 H   0  0  0  0  0  0  0  0  0  0  0  0
   38.9190   24.6280   42.4880 C   0  0  0  0  0  0  0  0  0  0  0  0
   38.1070   25.5760   41.8320 C   0  0  0  0  0  0  0  0  0  0  0  0
   38.2100   26.8880   42.2550 C   0  0  0  0  0  0  0  0  0  0  0  0
   39.0670   27.1940   43.2580 N   0  0  0  0  0  0  0  0  0  0  0  0
   39.8280   26.2490   43.8600 C   0  0  0  0  0  0  0  0  0  0  0  0
   39.7450   24.9820   43.4680 N   0  0  0  0  0  0  0  0  0  0  0  0
   38.7700   23.6140   42.0840 H   0  0  0  0  0  0  0  0  0  0  0  0
   37.4180   25.3960   41.0400 H   0  0  0  0  0  0  0  0  0  0  0  0
   40.4980   26.5520   44.6600 H   0  0  0  0  0  0  0  0  0  0  0  0
   39.4580   32.7410   39.1920 O   0  0  0  0  0  0  0  0  0  0  0  0
   40.4800   30.5830   38.2920 O   0  0  0  0  0  0  0  0  0  0  0  0
   40.5930   32.1060   38.1240 P   0  0  1  0  0  0  0  0  0  0  0  0
   40.1850   32.4520   36.5410 O   0  0  0  0  0  0  0  0  0  0  0  0
   40.6970   33.2470   36.2030 H   0  0  0  0  0  0  0  0  0  0  0  0
   42.1870   32.4750   38.5070 O   0  0  0  0  0  0  0  0  0  0  0  0
   43.0650   34.6110   37.8860 C   0  0  1  0  0  3  0  0  0  0  0  0
   42.2890   33.8050   38.9080 C   0  0  2  0  0  3  0  0  0  0  0  0
   43.2560   33.9700   40.0890 C   0  0  0  0  0  3  0  0  0  0  0  0
   43.0330   33.3130   40.9260 H   0  0  0  0  0  0  0  0  0  0  0  0
   44.5260   33.9130   39.5810 O   0  0  0  0  0  0  0  0  0  0  0  0
   44.4850   34.2260   38.2380 C   0  0  0  0  0  3  0  0  0  0  0  0
   44.7070   33.2880   37.6610 H   0  0  0  0  0  0  0  0  0  0  0  0
   42.7170   34.2570   36.5890 O   0  0  0  0  0  0  0  0  0  0  0  0
   43.1040   34.9300   35.9740 H   0  0  0  0  0  0  0  0  0  0  0  0
  1 12  1  0  0  0  0
  1  4  1  1  0  0  0
  2  6  1  0  0  0  0
  2  1  1  0  0  0  0
  3  7  1  6  0  0  0
  3  2  1  0  0  0  0
  3  1  1  0  0  0  0
  5  2  1  0  0  0  0
  8 19  1  0  0  0  0
  9 14  1  0  0  0  0
  9  8  2  0  0  0  0
 10  9  1  0  0  0  0
 11 10  2  0  0  0  0
 11 12  1  0  0  0  0
 12 13  2  0  0  0  0
 13  8  1  0  0  0  0
 15 10  1  0  0  0  0
 16 11  1  0  0  0  0
 17 22  1  0  0  0  0
 18 19  1  0  0  0  0
 18 17  2  0  0  0  0
 19 20  2  0  0  0  0
 20 21  1  0  0  0  0
 21 25  1  0  0  0  0
 22 21  2  0  0  0  0
 23 17  1  0  0  0  0
 24 18  1  0  0  0  0
 26  3  1  0  0  0  0
 28 27  2  1  0  0  0
 28 31  1  0  0  0  0
 28 26  1  0  0  0  0
 29 28  1  0  0  0  0
 30 29  1  0  0  0  0
 32 39  1  6  0  0  0
 32 37  1  0  0  0  0
 32 33  1  0  0  0  0
 33 31  1  6  0  0  0
 33 34  1  0  0  0  0
 34 35  1  0  0  0  0
 36 34  1  0  0  0  0
 37 36  1  0  0  0  0
 38 37  1  0  0  0  0
 40 39  1  0  0  0  0
M  END
>  <minimizedAffinity>
-6.41243315

$$$$

 OpenBabel03242521093D

 40 43  0  0  1  0  0  0  0  0999 V2000
   37.5170   30.6010   40.8500 C   0  0  2  0  0  0  0  0  0  0  0  0
   36.6480   30.8180   39.6730 C   0  0  0  0  0  0  0  0  0  0  0  0
   38.1800   30.7630   39.5730 C   0  0  1  0  0  0  0  0  0  0  0  0
   37.5780   31.4980   41.5420 H   0  0  0  0  0  0  0  0  0  0  0  0
   36.0600   29.9700   39.2840 H   0  0  0  0  0  0  0  0  0  0  0  0
   36.2120   31.8160   39.4700 H   0  0  0  0  0  0  0  0  0  0  0  0
   38.5170   29.9100   38.9540 H   0  0  0  0  0  0  0  0  0  0  0  0
   37.1430   26.9720   41.3530 C   0  0  0  0  0  0  0  0  0  0  0  0
   37.3650   26.9570   42.7300 C   0  0  0  0  0  0  0  0  0  0  0  0
   37.6320   28.0660   43.5020 C   0  0  0  0  0  0  0  0  0  0  0  0
   37.6860   29.2950   42.8650 C   0  0  0  0  0  0  0  0  0  0  0  0
   37.4640   29.2840   41.5150 C   0  0  0  0  0  0  0  0  0  0  0  0
   37.2120   28.1890   40.8180 N   0  0  0  0  0  0  0  0  0  0  0  0
   37.3300   26.0090   43.2610 H   0  0  0  0  0  0  0  0  0  0  0  0
   37.7950   27.9970   44.5580 H   0  0  0  0  0  0  0  0  0  0  0  0
   37.8920   30.1820   43.4410 H   0  0  0  0  0  0  0  0  0  0  0  0
   36.4890   23.4370   40.2300 C   0  0  0  0  0  0  0  0  0  0  0  0
   36.7620   24.4920   41.1250 C   0  0  0  0  0  0  0  0  0  0  0  0
   36.8660   25.7600   40.5830 C   0  0  0  0  0  0  0  0  0  0  0  0
   36.7040   25.9250   39.2500 N   0  0  0  0  0  0  0  0  0  0  0  0
   36.4440   24.8810   38.4270 C   0  0  0  0  0  0  0  0  0  0  0  0
   36.3400   23.6540   38.9270 N   0  0  0  0  0  0  0  0  0  0  0  0
   36.4240   22.4680   40.7500 H   0  0  0  0  0  0  0  0  0  0  0  0
   36.8980   24.4250   42.1790 H   0  0  0  0  0  0  0  0  0  0  0  0
   36.3240   25.0720   37.3650 H   0  0  0  0  0  0  0  0  0  0  0  0
   38.7990   31.9720   39.2290 O   0  0  0  0  0  0  0  0  0  0  0  0
   40.1540   30.2750   37.8860 O   0  0  0  0  0  0  0  0  0  0  0  0
   40.0080   31.7940   38.0700 P   0  0  1  0  0  0  0  0  0  0  0  0
   39.5220   32.4180   36.5980 O   0  0  0  0  0  0  0  0  0  0  0  0
   39.8890   33.3420   36.4610 H   0  0  0  0  0  0  0  0  0  0  0  0
   41.5240   32.3260   38.5630 O   0  0  0  0  0  0  0  0  0  0  0  0
   42.3910   34.4650   37.9360 C   0  0  1  0  0  3  0  0  0  0  0  0
   41.4800   33.6860   38.8640 C   0  0  2  0  0  3  0  0  0  0  0  0
   42.2010   33.9990   40.1820 C   0  0  0  0  0  3  0  0  0  0  0  0
   41.8600   33.3910   41.0170 H   0  0  0  0  0  0  0  0  0  0  0  0
   43.5440   33.9890   39.9210 O   0  0  0  0  0  0  0  0  0  0  0  0
   43.7380   34.2000   38.5710 C   0  0  0  0  0  3  0  0  0  0  0  0
   44.1120   33.2400   38.1250 H   0  0  0  0  0  0  0  0  0  0  0  0
   42.3100   33.9960   36.6310 O   0  0  0  0  0  0  0  0  0  0  0  0
   42.7700   34.6470   36.0430 H   0  0  0  0  0  0  0  0  0  0  0  0
  1 12  1  0  0  0  0
  1  4  1  1  0  0  0
  2  1  1  0  0  0  0
  3  7  1  6  0  0  0
  3  2  1  0  0  0  0
  3  1  1  0  0  0  0
  5  2  1  0  0  0  0
  6  2  1  0  0  0  0
  8  9  1  0  0  0  0
  9 14  1  0  0  0  0
  9 10  2  0  0  0  0
 10 15  1  0  0  0  0
 11 16  1  0  0  0  0
 11 10  1  0  0  0  0
 12 11  2  0  0  0  0
 13  8  2  0  0  0  0
 13 12  1  0  0  0  0
 17 23  1  0  0  0  0
 17 18  1  0  0  0  0
 18 24  1  0  0  0  0
 19 18  2  0  0  0  0
 19  8  1  0  0  0  0
 20 19  1  0  0  0  0
 21 22  1  0  0  0  0
 21 20  2  0  0  0  0
 22 17  2  0  0  0  0
 25 21  1  0  0  0  0
 26  3  1  0  0  0  0
 28 27  2  6  0  0  0
 28 31  1  0  0  0  0
 28 26  1  0  0  0  0
 29 28  1  0  0  0  0
 30 29  1  0  0  0  0
 32 39  1  6  0  0  0
 32 37  1  0  0  0  0
 32 33  1  0  0  0  0
 33 31  1  6  0  0  0
 33 34  1  0  0  0  0
 34 35  1  0  0  0  0
 36 34  1  0  0  0  0
 37 36  1  0  0  0  0
 38 37  1  0  0  0  0
 40 39  1  0  0  0  0
M  END
>  <minimizedAffinity>
-6.35705185

$$$$

 OpenBabel03242521093D

 40 43  0  0  1  0  0  0  0  0999 V2000
   38.5200   31.7800   39.9570 C   0  0  2  0  0  0  0  0  0  0  0  0
   37.0490   31.7270   39.8150 C   0  0  0  0  0  0  0  0  0  0  0  0
   37.7830   31.1720   41.0460 C   0  0  1  0  0  0  0  0  0  0  0  0
   39.0690   31.0520   39.2810 H   0  0  0  0  0  0  0  0  0  0  0  0
   36.4730   32.6620   39.9180 H   0  0  0  0  0  0  0  0  0  0  0  0
   36.5710   30.9560   39.1810 H   0  0  0  0  0  0  0  0  0  0  0  0
   37.5040   31.7190   41.9670 H   0  0  0  0  0  0  0  0  0  0  0  0
   41.0880   34.3640   40.4980 C   0  0  0  0  0  0  0  0  0  0  0  0
   40.2480   35.4740   40.4110 C   0  0  0  0  0  0  0  0  0  0  0  0
   38.8910   35.4240   40.1830 C   0  0  0  0  0  0  0  0  0  0  0  0
   38.3100   34.1770   40.0280 C   0  0  0  0  0  0  0  0  0  0  0  0
   39.1530   33.1040   40.1170 C   0  0  0  0  0  0  0  0  0  0  0  0
   40.4540   33.2050   40.3370 N   0  0  0  0  0  0  0  0  0  0  0  0
   40.6720   36.4680   40.5280 H   0  0  0  0  0  0  0  0  0  0  0  0
   38.2910   36.3100   40.1260 H   0  0  0  0  0  0  0  0  0  0  0  0
   37.2500   34.1040   39.8490 H   0  0  0  0  0  0  0  0  0  0  0  0
   44.5000   35.0980   41.9150 C   0  0  0  0  0  0  0  0  0  0  0  0
   43.0910   35.0800   41.8470 C   0  0  0  0  0  0  0  0  0  0  0  0
   42.5260   34.4770   40.7390 C   0  0  0  0  0  0  0  0  0  0  0  0
   43.3330   33.9440   39.7920 N   0  0  0  0  0  0  0  0  0  0  0  0
   44.6830   33.9850   39.8980 C   0  0  0  0  0  0  0  0  0  0  0  0
   45.2470   34.5590   40.9560 N   0  0  0  0  0  0  0  0  0  0  0  0
   44.8580   35.5960   42.8300 H   0  0  0  0  0  0  0  0  0  0  0  0
   42.4070   35.4800   42.5580 H   0  0  0  0  0  0  0  0  0  0  0  0
   45.2810   33.5420   39.1080 H   0  0  0  0  0  0  0  0  0  0  0  0
   37.7300   29.7800   41.1930 O   0  0  0  0  0  0  0  0  0  0  0  0
   39.3440   30.3560   43.0850 O   0  0  0  0  0  0  0  0  0  0  0  0
   38.3810   29.2400   42.6490 P   0  0  1  0  0  0  0  0  0  0  0  0
   37.2010   29.1280   43.8270 O   0  0  0  0  0  0  0  0  0  0  0  0
   36.8770   28.1820   43.9230 H   0  0  0  0  0  0  0  0  0  0  0  0
   39.3350   27.8640   42.5130 O   0  0  0  0  0  0  0  0  0  0  0  0
   39.7690   25.9300   43.8530 C   0  0  1  0  0  3  0  0  0  0  0  0
   38.7280   26.7930   43.1680 C   0  0  2  0  0  3  0  0  0  0  0  0
   38.2020   25.7460   42.1770 C   0  0  0  0  0  3  0  0  0  0  0  0
   37.5580   26.1650   41.4070 H   0  0  0  0  0  0  0  0  0  0  0  0
   39.2780   25.0170   41.7510 O   0  0  0  0  0  0  0  0  0  0  0  0
   40.2910   25.1290   42.6810 C   0  0  0  0  0  3  0  0  0  0  0  0
   41.1100   25.7450   42.2210 H   0  0  0  0  0  0  0  0  0  0  0  0
   40.7520   26.7020   44.4580 O   0  0  0  0  0  0  0  0  0  0  0  0
   41.2910   26.1100   45.0400 H   0  0  0  0  0  0  0  0  0  0  0  0
  1  4  1  6  0  0  0
  1 12  1  0  0  0  0
  1  3  1  0  0  0  0
  2  5  1  0  0  0  0
  2  1  1  0  0  0  0
  2  3  1  0  0  0  0
  3 26  1  0  0  0  0
  3  7  1  1  0  0  0
  6  2  1  0  0  0  0
  8 19  1  0  0  0  0
  9  8  1  0  0  0  0
  9 14  1  0  0  0  0
 10  9  2  0  0  0  0
 11 12  2  0  0  0  0
 11 10  1  0  0  0  0
 12 13  1  0  0  0  0
 13  8  2  0  0  0  0
 15 10  1  0  0  0  0
 16 11  1  0  0  0  0
 17 23  1  0  0  0  0
 18 17  1  0  0  0  0
 18 24  1  0  0  0  0
 19 18  2  0  0  0  0
 20 21  2  0  0  0  0
 20 19  1  0  0  0  0
 21 22  1  0  0  0  0
 22 17  2  0  0  0  0
 25 21  1  0  0  0  0
 26 28  1  0  0  0  0
 28 27  2  1  0  0  0
 28 29  1  0  0  0  0
 29 30  1  0  0  0  0
 31 28  1  0  0  0  0
 32 39  1  6  0  0  0
 33 31  1  6  0  0  0
 33 32  1  0  0  0  0
 34 33  1  0  0  0  0
 35 34  1  0  0  0  0
 36 34  1  0  0  0  0
 36 37  1  0  0  0  0
 37 32  1  0  0  0  0
 38 37  1  0  0  0  0
 39 40  1  0  0  0  0
M  END
>  <minimizedAffinity>
-6.35121155

$$$$

 OpenBabel03242521093D

 40 43  0  0  1  0  0  0  0  0999 V2000
   37.5290   30.6170   40.8440 C   0  0  2  0  0  0  0  0  0  0  0  0
   36.5300   30.5420   39.7560 C   0  0  0  0  0  0  0  0  0  0  0  0
   38.0360   30.6880   39.4890 C   0  0  1  0  0  0  0  0  0  0  0  0
   37.5160   31.6030   41.4060 H   0  0  0  0  0  0  0  0  0  0  0  0
   36.0460   29.5730   39.5460 H   0  0  0  0  0  0  0  0  0  0  0  0
   35.9280   31.4290   39.4800 H   0  0  0  0  0  0  0  0  0  0  0  0
   38.4410   29.8110   38.9480 H   0  0  0  0  0  0  0  0  0  0  0  0
   39.2150   28.0420   42.8670 C   0  0  0  0  0  0  0  0  0  0  0  0
   38.0940   27.2570   43.1300 C   0  0  0  0  0  0  0  0  0  0  0  0
   36.8180   27.5230   42.6850 C   0  0  0  0  0  0  0  0  0  0  0  0
   36.6290   28.6580   41.9160 C   0  0  0  0  0  0  0  0  0  0  0  0
   37.7430   29.4130   41.6710 C   0  0  0  0  0  0  0  0  0  0  0  0
   38.9490   29.1140   42.1230 N   0  0  0  0  0  0  0  0  0  0  0  0
   38.2070   26.3580   43.7310 H   0  0  0  0  0  0  0  0  0  0  0  0
   35.9900   26.8830   42.9170 H   0  0  0  0  0  0  0  0  0  0  0  0
   35.6420   28.8950   41.5520 H   0  0  0  0  0  0  0  0  0  0  0  0
   42.1970   26.4180   44.4960 C   0  0  0  0  0  0  0  0  0  0  0  0
   40.8560   26.5750   44.0920 C   0  0  0  0  0  0  0  0  0  0  0  0
   40.5480   27.7120   43.3690 C   0  0  0  0  0  0  0  0  0  0  0  0
   41.5290   28.6020   43.0890 N   0  0  0  0  0  0  0  0  0  0  0  0
   42.8050   28.4110   43.4980 C   0  0  0  0  0  0  0  0  0  0  0  0
   43.1220   27.3250   44.1940 N   0  0  0  0  0  0  0  0  0  0  0  0
   42.3470   25.4860   45.0630 H   0  0  0  0  0  0  0  0  0  0  0  0
   40.0440   25.9110   44.2800 H   0  0  0  0  0  0  0  0  0  0  0  0
   43.5510   29.1600   43.2450 H   0  0  0  0  0  0  0  0  0  0  0  0
   38.4260   31.9100   38.9270 O   0  0  0  0  0  0  0  0  0  0  0  0
   39.9420   30.2660   37.6960 O   0  0  0  0  0  0  0  0  0  0  0  0
   39.7560   31.7780   37.9030 P   0  0  1  0  0  0  0  0  0  0  0  0
   39.4240   32.4370   36.4040 O   0  0  0  0  0  0  0  0  0  0  0  0
   39.7900   33.3680   36.3310 H   0  0  0  0  0  0  0  0  0  0  0  0
   41.2020   32.3130   38.5710 O   0  0  0  0  0  0  0  0  0  0  0  0
   42.1730   34.4210   37.9940 C   0  0  1  0  0  3  0  0  0  0  0  0
   41.1380   33.6830   38.8190 C   0  0  2  0  0  3  0  0  0  0  0  0
   41.6850   34.0340   40.2100 C   0  0  0  0  0  3  0  0  0  0  0  0
   41.2300   33.4580   41.0120 H   0  0  0  0  0  0  0  0  0  0  0  0
   43.0500   34.0020   40.1260 O   0  0  0  0  0  0  0  0  0  0  0  0
   43.4220   34.1660   38.8070 C   0  0  0  0  0  3  0  0  0  0  0  0
   43.8370   33.1870   38.4450 H   0  0  0  0  0  0  0  0  0  0  0  0
   42.2560   33.9080   36.7050 O   0  0  0  0  0  0  0  0  0  0  0  0
   42.7970   34.5340   36.1610 H   0  0  0  0  0  0  0  0  0  0  0  0
  1  4  1  1  0  0  0
  1 12  1  0  0  0  0
  2  1  1  0  0  0  0
  3  7  1  6  0  0  0
  3  2  1  0  0  0  0
  3  1  1  0  0  0  0
  5  2  1  0  0  0  0
  6  2  1  0  0  0  0
  8  9  1  0  0  0  0
  8 19  1  0  0  0  0
  9 14  1  0  0  0  0
 10 15  1  0  0  0  0
 10  9  2  0  0  0  0
 11 10  1  0  0  0  0
 12 11  2  0  0  0  0
 12 13  1  0  0  0  0
 13  8  2  0  0  0  0
 16 11  1  0  0  0  0
 17 23  1  0  0  0  0
 18 24  1  0  0  0  0
 18 17  2  0  0  0  0
 19 18  1  0  0  0  0
 20 19  2  0  0  0  0
 20 21  1  0  0  0  0
 21 22  2  0  0  0  0
 22 17  1  0  0  0  0
 25 21  1  0  0  0  0
 26  3  1  0  0  0  0
 28 27  2  6  0  0  0
 28 31  1  0  0  0  0
 28 26  1  0  0  0  0
 29 28  1  0  0  0  0
 30 29  1  0  0  0  0
 32 39  1  6  0  0  0
 32 37  1  0  0  0  0
 32 33  1  0  0  0  0
 33 31  1  6  0  0  0
 33 34  1  0  0  0  0
 34 35  1  0  0  0  0
 36 34  1  0  0  0  0
 37 36  1  0  0  0  0
 38 37  1  0  0  0  0
 40 39  1  0  0  0  0
M  END
>  <minimizedAffinity>
-6.29983473

$$$$

 OpenBabel03242521093D

 40 43  0  0  1  0  0  0  0  0999 V2000
   36.6080   29.3930   41.8390 C   0  0  2  0  0  0  0  0  0  0  0  0
   35.8540   29.3950   40.5660 C   0  0  0  0  0  0  0  0  0  0  0  0
   37.0650   30.3080   40.8130 C   0  0  1  0  0  0  0  0  0  0  0  0
   36.0480   29.8750   42.7000 H   0  0  0  0  0  0  0  0  0  0  0  0
   35.9650   28.5380   39.8820 H   0  0  0  0  0  0  0  0  0  0  0  0
   34.8870   29.9300   40.4840 H   0  0  0  0  0  0  0  0  0  0  0  0
   37.8970   30.0740   40.1220 H   0  0  0  0  0  0  0  0  0  0  0  0
   37.8300   25.9180   41.8030 C   0  0  0  0  0  0  0  0  0  0  0  0
   38.7790   26.0510   42.8160 C   0  0  0  0  0  0  0  0  0  0  0  0
   39.0430   27.2130   43.5070 C   0  0  0  0  0  0  0  0  0  0  0  0
   38.3110   28.3400   43.1740 C   0  0  0  0  0  0  0  0  0  0  0  0
   37.3860   28.1850   42.1790 C   0  0  0  0  0  0  0  0  0  0  0  0
   37.1710   27.0460   41.5430 N   0  0  0  0  0  0  0  0  0  0  0  0
   39.3710   25.1850   43.1020 H   0  0  0  0  0  0  0  0  0  0  0  0
   39.7850   27.2590   44.2790 H   0  0  0  0  0  0  0  0  0  0  0  0
   38.4940   29.2650   43.6970 H   0  0  0  0  0  0  0  0  0  0  0  0
   38.0720   22.4460   40.3660 C   0  0  0  0  0  0  0  0  0  0  0  0
   38.4630   23.5840   41.1000 C   0  0  0  0  0  0  0  0  0  0  0  0
   37.5930   24.6580   41.1000 C   0  0  0  0  0  0  0  0  0  0  0  0
   36.4320   24.5690   40.4100 N   0  0  0  0  0  0  0  0  0  0  0  0
   36.0970   23.4550   39.7180 C   0  0  0  0  0  0  0  0  0  0  0  0
   36.9190   22.4110   39.7050 N   0  0  0  0  0  0  0  0  0  0  0  0
   38.8240   21.6440   40.4250 H   0  0  0  0  0  0  0  0  0  0  0  0
   39.3600   23.7120   41.6610 H   0  0  0  0  0  0  0  0  0  0  0  0
   35.1520   23.4390   39.1820 H   0  0  0  0  0  0  0  0  0  0  0  0
   36.7760   31.6760   40.8860 O   0  0  0  0  0  0  0  0  0  0  0  0
   37.1790   33.5480   39.1970 O   0  0  0  0  0  0  0  0  0  0  0  0
   37.9530   32.6440   40.1700 P   0  0  1  0  0  0  0  0  0  0  0  0
   38.6700   33.6470   41.2990 O   0  0  0  0  0  0  0  0  0  0  0  0
   39.5450   33.2680   41.6120 H   0  0  0  0  0  0  0  0  0  0  0  0
   39.0520   31.8070   39.2150 O   0  0  0  0  0  0  0  0  0  0  0  0
   40.6630   32.4210   37.5570 C   0  0  1  0  0  3  0  0  0  0  0  0
   40.1820   32.5900   38.9840 C   0  0  2  0  0  3  0  0  0  0  0  0
   41.4190   32.0250   39.6940 C   0  0  0  0  0  3  0  0  0  0  0  0
   41.2640   31.8440   40.7550 H   0  0  0  0  0  0  0  0  0  0  0  0
   41.8660   30.9680   38.9480 O   0  0  0  0  0  0  0  0  0  0  0  0
   41.3970   31.1020   37.6570 C   0  0  0  0  0  3  0  0  0  0  0  0
   40.6270   30.3010   37.4880 H   0  0  0  0  0  0  0  0  0  0  0  0
   39.6000   32.3780   36.6630 O   0  0  0  0  0  0  0  0  0  0  0  0
   39.9680   32.4570   35.7470 H   0  0  0  0  0  0  0  0  0  0  0  0
  1 12  1  0  0  0  0
  1  4  1  1  0  0  0
  2  3  1  0  0  0  0
  2  1  1  0  0  0  0
  3  7  1  6  0  0  0
  3 26  1  0  0  0  0
  3  1  1  0  0  0  0
  5  2  1  0  0  0  0
  6  2  1  0  0  0  0
  8  9  1  0  0  0  0
  9 14  1  0  0  0  0
  9 10  2  0  0  0  0
 10 15  1  0  0  0  0
 11 10  1  0  0  0  0
 11 16  1  0  0  0  0
 12 11  2  0  0  0  0
 13  8  2  0  0  0  0
 13 12  1  0  0  0  0
 17 23  1  0  0  0  0
 17 18  1  0  0  0  0
 18 24  1  0  0  0  0
 19 18  2  0  0  0  0
 19  8  1  0  0  0  0
 20 19  1  0  0  0  0
 21 20  2  0  0  0  0
 22 21  1  0  0  0  0
 22 17  2  0  0  0  0
 25 21  1  0  0  0  0
 28 27  2  6  0  0  0
 28 26  1  0  0  0  0
 28 29  1  0  0  0  0
 29 30  1  0  0  0  0
 31 28  1  0  0  0  0
 32 39  1  6  0  0  0
 32 37  1  0  0  0  0
 32 33  1  0  0  0  0
 33 31  1  6  0  0  0
 33 34  1  0  0  0  0
 34 35  1  0  0  0  0
 36 34  1  0  0  0  0
 37 36  1  0  0  0  0
 38 37  1  0  0  0  0
 40 39  1  0  0  0  0
M  END
>  <minimizedAffinity>
-6.23242664

$$$$

 OpenBabel03242521093D

 40 43  0  0  1  0  0  0  0  0999 V2000
   38.2110   27.9060   43.1820 C   0  0  2  0  0  0  0  0  0  0  0  0
   37.1180   28.1200   44.1550 C   0  0  0  0  0  0  0  0  0  0  0  0
   36.9420   28.3540   42.6470 C   0  0  1  0  0  0  0  0  0  0  0  0
   39.0220   28.6980   43.2280 H   0  0  0  0  0  0  0  0  0  0  0  0
   36.6370   27.2400   44.6150 H   0  0  0  0  0  0  0  0  0  0  0  0
   37.0810   29.0410   44.7690 H   0  0  0  0  0  0  0  0  0  0  0  0
   36.1920   27.6660   42.2130 H   0  0  0  0  0  0  0  0  0  0  0  0
   38.4100   24.4660   41.8790 C   0  0  0  0  0  0  0  0  0  0  0  0
   39.5320   24.0650   42.6020 C   0  0  0  0  0  0  0  0  0  0  0  0
   40.2290   24.8550   43.4890 C   0  0  0  0  0  0  0  0  0  0  0  0
   39.7830   26.1520   43.6810 C   0  0  0  0  0  0  0  0  0  0  0  0
   38.6800   26.5230   42.9620 C   0  0  0  0  0  0  0  0  0  0  0  0
   38.0470   25.7250   42.1200 N   0  0  0  0  0  0  0  0  0  0  0  0
   39.9090   23.0530   42.4750 H   0  0  0  0  0  0  0  0  0  0  0  0
   41.0870   24.4950   44.0190 H   0  0  0  0  0  0  0  0  0  0  0  0
   40.3060   26.7960   44.3690 H   0  0  0  0  0  0  0  0  0  0  0  0
   37.4180   21.6850   39.5420 C   0  0  0  0  0  0  0  0  0  0  0  0
   38.2360   22.4140   40.4290 C   0  0  0  0  0  0  0  0  0  0  0  0
   37.7110   23.5830   40.9480 C   0  0  0  0  0  0  0  0  0  0  0  0
   36.4630   23.9640   40.5870 N   0  0  0  0  0  0  0  0  0  0  0  0
   35.7120   23.2320   39.7300 C   0  0  0  0  0  0  0  0  0  0  0  0
   36.1990   22.1050   39.2200 N   0  0  0  0  0  0  0  0  0  0  0  0
   37.9190   20.7720   39.1820 H   0  0  0  0  0  0  0  0  0  0  0  0
   39.2210   22.1650   40.7500 H   0  0  0  0  0  0  0  0  0  0  0  0
   34.7180   23.5860   39.4750 H   0  0  0  0  0  0  0  0  0  0  0  0
   36.7490   29.6890   42.2690 O   0  0  0  0  0  0  0  0  0  0  0  0
   37.0450   28.6730   39.9460 O   0  0  0  0  0  0  0  0  0  0  0  0
   36.3760   29.8720   40.6380 P   0  0  1  0  0  0  0  0  0  0  0  0
   34.7310   29.7250   40.3800 O   0  0  0  0  0  0  0  0  0  0  0  0
   34.2960   30.6280   40.3120 H   0  0  0  0  0  0  0  0  0  0  0  0
   37.0550   31.2300   39.9200 O   0  0  0  0  0  0  0  0  0  0  0  0
   38.2120   33.2780   40.3510 C   0  0  1  0  0  3  0  0  0  0  0  0
   37.9150   31.8660   40.8130 C   0  0  2  0  0  3  0  0  0  0  0  0
   39.3420   31.3080   40.7220 C   0  0  0  0  0  3  0  0  0  0  0  0
   39.3900   30.2250   40.8170 H   0  0  0  0  0  0  0  0  0  0  0  0
   39.9190   31.8540   39.6090 O   0  0  0  0  0  0  0  0  0  0  0  0
   39.2510   33.0170   39.2830 C   0  0  0  0  0  3  0  0  0  0  0  0
   38.6820   32.8300   38.3330 H   0  0  0  0  0  0  0  0  0  0  0  0
   37.0740   33.9010   39.8540 O   0  0  0  0  0  0  0  0  0  0  0  0
   37.2760   34.8650   39.7450 H   0  0  0  0  0  0  0  0  0  0  0  0
  1  4  1  1  0  0  0
  1  2  1  0  0  0  0
  2  5  1  0  0  0  0
  2  6  1  0  0  0  0
  3  7  1  6  0  0  0
  3  1  1  0  0  0  0
  3  2  1  0  0  0  0
  8 13  2  0  0  0  0
  8  9  1  0  0  0  0
  9 10  2  0  0  0  0
 10 11  1  0  0  0  0
 10 15  1  0  0  0  0
 11 16  1  0  0  0  0
 12  1  1  0  0  0  0
 12 11  2  0  0  0  0
 13 12  1  0  0  0  0
 14  9  1  0  0  0  0
 17 18  1  0  0  0  0
 18 24  1  0  0  0  0
 18 19  2  0  0  0  0
 19  8  1  0  0  0  0
 20 19  1  0  0  0  0
 21 20  2  0  0  0  0
 22 17  2  0  0  0  0
 22 21  1  0  0  0  0
 23 17  1  0  0  0  0
 25 21  1  0  0  0  0
 26  3  1  0  0  0  0
 28 27  2  6  0  0  0
 28 26  1  0  0  0  0
 29 28  1  0  0  0  0
 30 29  1  0  0  0  0
 31 28  1  0  0  0  0
 32 39  1  6  0  0  0
 32 33  1  0  0  0  0
 33 31  1  6  0  0  0
 34 33  1  0  0  0  0
 34 35  1  0  0  0  0
 36 34  1  0  0  0  0
 37 36  1  0  0  0  0
 37 32  1  0  0  0  0
 38 37  1  0  0  0  0
 40 39  1  0  0  0  0
M  END
>  <minimizedAffinity>
-6.20551014

$$$$
