
 OpenBabel03242520293D

 41 43  0  0  1  0  0  0  0  0999 V2000
   45.4310   35.5340   43.4070 C   0  0  0  0  0  0  0  0  0  0  0  0
   46.3160   34.4540   43.7070 C   0  0  0  0  0  0  0  0  0  0  0  0
   46.2180   33.8630   44.9560 C   0  0  0  0  0  0  0  0  0  0  0  0
   45.3040   34.3220   45.8360 N   0  0  0  0  0  0  0  0  0  0  0  0
   44.4730   35.3430   45.5410 C   0  0  0  0  0  0  0  0  0  0  0  0
   44.5400   35.9410   44.3380 N   0  0  0  0  0  0  0  0  0  0  0  0
   45.4770   36.0220   42.4410 H   0  0  0  0  0  0  0  0  0  0  0  0
   43.7650   35.6610   46.2910 H   0  0  0  0  0  0  0  0  0  0  0  0
   47.2180   34.0980   42.6660 N   0  0  0  0  0  0  0  0  0  0  0  0
   48.6500   34.2500   42.7780 C   0  0  0  0  0  0  0  0  0  0  0  0
   49.3180   33.6610   41.5610 C   0  0  0  0  0  0  0  0  0  0  0  0
   48.7770   34.1510   40.3310 N   0  0  0  0  0  0  0  0  0  0  0  0
   47.3580   34.0900   40.2330 C   0  0  0  0  0  0  0  0  0  0  0  0
   46.6420   33.5570   41.4370 C   0  0  0  0  0  0  0  0  0  0  0  0
   48.9810   35.2750   42.9950 H   0  0  0  0  0  0  0  0  0  0  0  0
   48.9470   33.5910   43.6420 H   0  0  0  0  0  0  0  0  0  0  0  0
   50.3990   33.7700   41.5730 H   0  0  0  0  0  0  0  0  0  0  0  0
   49.0910   32.5610   41.5960 H   0  0  0  0  0  0  0  0  0  0  0  0
   49.1760   33.5820   39.5520 H   0  0  0  0  0  0  0  0  0  0  0  0
   46.9860   33.4910   39.3590 H   0  0  0  0  0  0  0  0  0  0  0  0
   46.9690   35.1160   40.0560 H   0  0  0  0  0  0  0  0  0  0  0  0
   46.6460   32.4330   41.4710 H   0  0  0  0  0  0  0  0  0  0  0  0
   45.5720   33.8480   41.3560 H   0  0  0  0  0  0  0  0  0  0  0  0
   47.0910   32.8230   45.2040 O   0  0  0  0  0  0  0  0  0  0  0  0
   45.4750   30.7470   44.8810 O   0  0  0  0  0  0  0  0  0  0  0  0
   46.4790   31.3470   45.8690 P   0  0  1  0  0  0  0  0  0  0  0  0
   47.7740   30.3310   46.1290 O   0  0  0  0  0  0  0  0  0  0  0  0
   48.9370   28.4070   45.4810 C   0  0  1  0  0  0  0  0  0  0  0  0
   47.5530   29.0230   45.7360 C   0  0  1  0  0  0  0  0  0  0  0  0
   47.2330   28.2350   46.9910 C   0  0  0  0  0  0  0  0  0  0  0  0
   47.1510   27.1470   46.7460 H   0  0  0  0  0  0  0  0  0  0  0  0
   48.3890   28.4130   47.7420 O   0  0  0  0  0  0  0  0  0  0  0  0
   49.4640   28.5800   46.8920 C   0  0  0  0  0  0  0  0  0  0  0  0
   49.7840   29.6610   46.9350 H   0  0  0  0  0  0  0  0  0  0  0  0
   48.8280   27.0600   45.2240 O   0  0  0  0  0  0  0  0  0  0  0  0
   49.4090   26.4740   45.7710 H   0  0  0  0  0  0  0  0  0  0  0  0
   45.6660   31.7590   47.2780 O   0  0  0  0  0  0  0  0  0  0  0  0
   46.5140   31.9940   48.3370 C   0  0  0  0  0  0  0  0  0  0  0  0
   47.6310   32.7380   48.0010 F   0  0  0  0  0  0  0  0  0  0  0  0
   46.9080   30.8660   49.0080 F   0  0  0  0  0  0  0  0  0  0  0  0
   45.7640   32.7560   49.2460 F   0  0  0  0  0  0  0  0  0  0  0  0
  1  2  2  0  0  0  0
  1  6  1  0  0  0  0
  2  3  1  0  0  0  0
  3 24  1  0  0  0  0
  3  4  2  0  0  0  0
  5  4  1  0  0  0  0
  5  8  1  0  0  0  0
  6  5  2  0  0  0  0
  7  1  1  0  0  0  0
  9 10  1  0  0  0  0
  9  2  1  0  0  0  0
 10 15  1  0  0  0  0
 10 16  1  0  0  0  0
 11 17  1  0  0  0  0
 11 18  1  0  0  0  0
 11 10  1  0  0  0  0
 12 11  1  0  0  0  0
 13 12  1  0  0  0  0
 13 14  1  0  0  0  0
 14 22  1  0  0  0  0
 14  9  1  0  0  0  0
 19 12  1  0  0  0  0
 20 13  1  0  0  0  0
 21 13  1  0  0  0  0
 23 14  1  0  0  0  0
 24 26  1  0  0  0  0
 26 25  2  6  0  0  0
 26 27  1  0  0  0  0
 26 37  1  0  0  0  0
 28 35  1  1  0  0  0
 28 29  1  0  0  0  0
 28 33  1  0  0  0  0
 29 27  1  1  0  0  0
 29 30  1  0  0  0  0
 30 32  1  0  0  0  0
 31 30  1  0  0  0  0
 33 34  1  0  0  0  0
 33 32  1  0  0  0  0
 35 36  1  0  0  0  0
 37 38  1  0  0  0  0
 38 40  1  0  0  0  0
 38 41  1  0  0  0  0
 39 38  1  0  0  0  0
M  END
>  <minimizedAffinity>
-5.23887539

>  <minimizedRMSD>
1.86756647

$$$$
