
 OpenBabel03252506453D

 42 45  0  0  1  0  0  0  0  0999 V2000
   49.5070   33.4120   41.3170 N   0  0  1  0  0  0  0  0  0  0  0  0
   50.7160   33.0680   42.0370 C   0  0  0  0  0  0  0  0  0  0  0  0
   51.2960   31.7530   41.5990 C   0  0  0  0  0  0  0  0  0  0  0  0
   50.3490   30.6620   42.0650 C   0  0  0  0  0  0  0  0  0  0  0  0
   48.9110   31.0960   41.8820 C   0  0  0  0  0  0  0  0  0  0  0  0
   48.8560   32.2170   40.8810 C   0  0  2  0  0  0  0  0  0  0  0  0
   51.4340   33.9070   42.0410 H   0  0  0  0  0  0  0  0  0  0  0  0
   50.4100   32.9170   43.1100 H   0  0  0  0  0  0  0  0  0  0  0  0
   52.2540   31.6340   42.1630 H   0  0  0  0  0  0  0  0  0  0  0  0
   51.5550   31.6800   40.5420 H   0  0  0  0  0  0  0  0  0  0  0  0
   50.5630   30.4140   43.1330 H   0  0  0  0  0  0  0  0  0  0  0  0
   50.5360   29.7640   41.4810 H   0  0  0  0  0  0  0  0  0  0  0  0
   48.6490   31.5900   42.8690 H   0  0  0  0  0  0  0  0  0  0  0  0
   48.1870   30.3100   41.7670 H   0  0  0  0  0  0  0  0  0  0  0  0
   47.7620   32.5140   40.9070 H   0  0  0  0  0  0  0  0  0  0  0  0
   47.3310   34.6670   41.9000 C   0  0  1  0  0  0  0  0  0  0  0  0
   48.4410   35.6260   41.6850 C   0  0  0  0  0  0  0  0  0  0  0  0
   48.7370   34.2600   42.1560 C   0  0  2  0  0  0  0  0  0  0  0  0
   46.8590   34.2620   40.9660 H   0  0  0  0  0  0  0  0  0  0  0  0
   48.7700   35.9350   40.6820 H   0  0  0  0  0  0  0  0  0  0  0  0
   48.5760   36.4350   42.4470 H   0  0  0  0  0  0  0  0  0  0  0  0
   48.9580   34.1100   43.2530 H   0  0  0  0  0  0  0  0  0  0  0  0
   45.5660   36.0110   43.0830 C   0  0  0  0  0  0  0  0  0  0  0  0
   46.4100   34.8870   43.0140 C   0  0  0  0  0  0  0  0  0  0  0  0
   46.3210   33.9590   44.0780 C   0  0  0  0  0  0  0  0  0  0  0  0
   45.4460   34.1930   45.0900 N   0  0  0  0  0  0  0  0  0  0  0  0
   44.6540   35.2860   45.1170 C   0  0  0  0  0  0  0  0  0  0  0  0
   44.7060   36.2060   44.1130 N   0  0  0  0  0  0  0  0  0  0  0  0
   45.6330   36.7200   42.2720 H   0  0  0  0  0  0  0  0  0  0  0  0
   46.9510   33.0830   44.0650 H   0  0  0  0  0  0  0  0  0  0  0  0
   43.9470   35.4950   45.9110 H   0  0  0  0  0  0  0  0  0  0  0  0
   49.2610   31.7810   39.6030 N   0  0  0  0  0  0  0  0  0  0  0  0
   50.2870   31.7800   39.5210 H   0  0  0  0  0  0  0  0  0  0  0  0
   49.2710   32.8420   37.3690 C   0  0  1  0  0  0  0  0  0  0  0  0
   48.6010   32.0190   38.4270 C   0  0  2  0  0  0  0  0  0  0  0  0
   47.2300   32.6140   38.4270 C   0  0  0  0  0  0  0  0  0  0  0  0
   46.6760   32.4660   39.3550 H   0  0  0  0  0  0  0  0  0  0  0  0
   47.3400   33.9270   37.9940 O   0  0  0  0  0  0  0  0  0  0  0  0
   48.6070   34.1810   37.5580 C   0  0  0  0  0  0  0  0  0  0  0  0
   49.1090   34.8720   38.2290 H   0  0  0  0  0  0  0  0  0  0  0  0
   50.6300   32.8650   37.3700 O   0  0  0  0  0  0  0  0  0  0  0  0
   50.9340   33.8150   37.5060 H   0  0  0  0  0  0  0  0  0  0  0  0
  1  2  1  1  0  0  0
  1 18  1  0  0  0  0
  2  7  1  0  0  0  0
  2  8  1  0  0  0  0
  3  2  1  0  0  0  0
  3  4  1  0  0  0  0
  3  9  1  0  0  0  0
  4 11  1  0  0  0  0
  5  4  1  0  0  0  0
  5 13  1  0  0  0  0
  6 15  1  6  0  0  0
  6  1  1  0  0  0  0
  6  5  1  0  0  0  0
 10  3  1  0  0  0  0
 12  4  1  0  0  0  0
 14  5  1  0  0  0  0
 16 19  1  6  0  0  0
 16 18  1  0  0  0  0
 16 24  1  0  0  0  0
 17 16  1  0  0  0  0
 17 18  1  0  0  0  0
 17 21  1  0  0  0  0
 18 22  1  1  0  0  0
 20 17  1  0  0  0  0
 23 28  1  0  0  0  0
 24 23  2  0  0  0  0
 24 25  1  0  0  0  0
 25 26  2  0  0  0  0
 26 27  1  0  0  0  0
 27 31  1  0  0  0  0
 28 27  2  0  0  0  0
 29 23  1  0  0  0  0
 30 25  1  0  0  0  0
 32  6  1  0  0  0  0
 33 32  1  0  0  0  0
 34 41  1  1  0  0  0
 34 39  1  0  0  0  0
 34 35  1  0  0  0  0
 35 36  1  0  0  0  0
 35 32  1  1  0  0  0
 36 37  1  0  0  0  0
 38 36  1  0  0  0  0
 39 38  1  0  0  0  0
 39 40  1  0  0  0  0
 41 42  1  0  0  0  0
M  END
>  <minimizedAffinity>
-5.62268591

>  <minimizedRMSD>
1.86958337

$$$$
