
 OpenBabel03252500243D

 37 39  0  0  1  0  0  0  0  0999 V2000
   47.6150   30.3260   47.5940 C   0  0  2  0  0  0  0  0  0  0  0  0
   46.4740   30.8560   48.3640 C   0  0  2  0  0  0  0  0  0  0  0  0
   45.3440   29.9670   47.9970 C   0  0  0  0  0  0  0  0  0  0  0  0
   45.8720   28.7260   47.6860 O   0  0  0  0  0  0  0  0  0  0  0  0
   47.2230   28.8270   47.6370 C   0  0  0  0  0  0  0  0  0  0  0  0
   47.7620   30.4670   46.5560 H   0  0  0  0  0  0  0  0  0  0  0  0
   46.7080   30.7230   49.4330 H   0  0  0  0  0  0  0  0  0  0  0  0
   44.5690   30.3480   47.3350 H   0  0  0  0  0  0  0  0  0  0  0  0
   44.7420   29.7430   48.9340 H   0  0  0  0  0  0  0  0  0  0  0  0
   47.6630   28.2470   46.8300 H   0  0  0  0  0  0  0  0  0  0  0  0
   47.6490   28.4040   48.5920 H   0  0  0  0  0  0  0  0  0  0  0  0
   46.2340   32.1880   48.1260 O   0  0  0  0  0  0  0  0  0  0  0  0
   47.4100   32.5270   45.8700 O   0  0  0  0  0  0  0  0  0  0  0  0
   46.0430   32.4520   46.4950 P   0  0  1  0  0  0  0  0  0  0  0  0
   45.2040   31.1550   45.8010 O   0  0  0  0  0  0  0  0  0  0  0  0
   44.2810   31.4120   45.5870 H   0  0  0  0  0  0  0  0  0  0  0  0
   45.2500   33.9290   46.1500 O   0  0  0  0  0  0  0  0  0  0  0  0
   44.9280   36.2710   43.4850 C   0  0  0  0  0  0  0  0  0  0  0  0
   44.7730   35.4670   42.3240 C   0  0  0  0  0  0  0  0  0  0  0  0
   44.7870   34.0780   42.5270 C   0  0  0  0  0  0  0  0  0  0  0  0
   44.9420   33.5990   43.7740 N   0  0  0  0  0  0  0  0  0  0  0  0
   45.0880   34.4080   44.8490 C   0  0  0  0  0  0  0  0  0  0  0  0
   45.0790   35.7400   44.6950 N   0  0  0  0  0  0  0  0  0  0  0  0
   44.6510   35.9000   41.3380 H   0  0  0  0  0  0  0  0  0  0  0  0
   44.6740   33.4080   41.6860 H   0  0  0  0  0  0  0  0  0  0  0  0
   44.9160   37.6390   43.2970 O   0  0  0  0  0  0  0  0  0  0  0  0
   45.6200   37.9950   42.6370 H   0  0  0  0  0  0  0  0  0  0  0  0
   48.8550   30.5160   48.0970 O   0  0  0  0  0  0  0  0  0  0  0  0
   49.5710   30.3080   50.3720 C   0  0  2  0  0  3  0  0  0  0  0  0
   49.5240   29.8040   48.9410 C   0  0  2  0  0  3  0  0  0  0  0  0
   51.0160   30.0190   48.6220 C   0  0  0  0  0  3  0  0  0  0  0  0
   51.1560   30.2640   47.5500 H   0  0  0  0  0  0  0  0  0  0  0  0
   51.4320   31.1010   49.3630 O   0  0  0  0  0  0  0  0  0  0  0  0
   50.3870   31.5600   50.1460 C   0  0  0  0  0  3  0  0  0  0  0  0
   49.7690   32.3230   49.6160 H   0  0  0  0  0  0  0  0  0  0  0  0
   50.2530   29.4260   51.1710 O   0  0  0  0  0  0  0  0  0  0  0  0
   50.6680   28.7330   50.6020 H   0  0  0  0  0  0  0  0  0  0  0  0
  1  6  1  6  0  0  0
  1  5  1  0  0  0  0
  1 28  1  0  0  0  0
  1  2  1  0  0  0  0
  2  7  1  1  0  0  0
  3  2  1  0  0  0  0
  3  9  1  0  0  0  0
  4  3  1  0  0  0  0
  5  4  1  0  0  0  0
  5 11  1  0  0  0  0
  8  3  1  0  0  0  0
 10  5  1  0  0  0  0
 12  2  1  0  0  0  0
 14 13  2  6  0  0  0
 14 12  1  0  0  0  0
 15 14  1  0  0  0  0
 16 15  1  0  0  0  0
 17 14  1  0  0  0  0
 18 23  1  0  0  0  0
 19 20  1  0  0  0  0
 19 18  2  0  0  0  0
 20 21  2  0  0  0  0
 21 22  1  0  0  0  0
 22 17  1  0  0  0  0
 23 22  2  0  0  0  0
 24 19  1  0  0  0  0
 25 20  1  0  0  0  0
 26 18  1  0  0  0  0
 27 26  1  0  0  0  0
 29 36  1  1  0  0  0
 30 28  1  6  0  0  0
 30 29  1  0  0  0  0
 31 30  1  0  0  0  0
 31 33  1  0  0  0  0
 32 31  1  0  0  0  0
 33 34  1  0  0  0  0
 34 29  1  0  0  0  0
 35 34  1  0  0  0  0
 37 36  1  0  0  0  0
M  END
>  <minimizedAffinity>
-5.30293846

>  <minimizedRMSD>
1.59944654

$$$$
