
 OpenBabel03252504323D

 40 42  0  0  1  0  0  0  0  0999 V2000
   42.2120   35.1710   40.4630 O   0  0  0  0  0  0  0  0  0  0  0  0
   41.0500   35.3600   41.1440 C   0  0  0  0  0  0  0  0  0  0  0  0
   41.1480   35.4950   42.2570 H   0  0  0  0  0  0  0  0  0  0  0  0
   40.5080   36.2620   40.7810 H   0  0  0  0  0  0  0  0  0  0  0  0
   40.4000   33.1120   41.8370 C   0  0  0  0  0  0  0  0  0  0  0  0
   40.0920   34.2170   41.0130 C   0  0  0  0  0  0  0  0  0  0  0  0
   38.9940   34.1300   40.2240 C   0  0  0  0  0  0  0  0  0  0  0  0
   38.2870   33.0030   40.2860 N   0  0  0  0  0  0  0  0  0  0  0  0
   38.5640   31.9660   41.0500 C   0  0  0  0  0  0  0  0  0  0  0  0
   39.6760   31.9810   41.8880 N   0  0  0  0  0  0  0  0  0  0  0  0
   41.2540   33.0840   42.5010 H   0  0  0  0  0  0  0  0  0  0  0  0
   38.7970   34.9820   39.6190 H   0  0  0  0  0  0  0  0  0  0  0  0
   38.2880   29.6720   41.8800 C   0  0  2  0  0  0  0  0  0  0  0  0
   37.6970   30.7570   41.0350 C   0  0  2  0  0  0  0  0  0  0  0  0
   37.8430   30.1520   39.6350 C   0  0  0  0  0  0  0  0  0  0  0  0
   37.0010   30.4690   38.9950 H   0  0  0  0  0  0  0  0  0  0  0  0
   37.8460   28.7600   39.8340 O   0  0  0  0  0  0  0  0  0  0  0  0
   38.8070   28.6670   40.8540 C   0  0  0  0  0  0  0  0  0  0  0  0
   38.8050   27.6430   41.2680 H   0  0  0  0  0  0  0  0  0  0  0  0
   37.2690   29.0230   42.5780 O   0  0  0  0  0  0  0  0  0  0  0  0
   36.6590   28.5950   41.9170 H   0  0  0  0  0  0  0  0  0  0  0  0
   43.5100   35.2940   40.9340 C   0  0  0  0  0  0  0  0  0  0  0  0
   43.6480   35.3710   42.2530 C   0  0  0  0  0  0  0  0  0  0  0  0
   44.9600   35.5070   43.0000 C   0  0  0  0  0  0  0  0  0  0  0  0
   45.7260   35.1100   42.2840 H   0  0  0  0  0  0  0  0  0  0  0  0
   45.2030   36.5580   43.1740 H   0  0  0  0  0  0  0  0  0  0  0  0
   44.8810   34.7200   44.1280 O   0  0  0  0  0  0  0  0  0  0  0  0
   45.7210   32.5990   42.7480 O   0  0  0  0  0  0  0  0  0  0  0  0
   45.9260   33.4020   44.0120 P   0  0  1  0  0  0  0  0  0  0  0  0
   47.5440   33.9440   43.9960 O   0  0  0  0  0  0  0  0  0  0  0  0
   47.5660   34.6990   44.6620 H   0  0  0  0  0  0  0  0  0  0  0  0
   45.7580   32.4060   45.3630 O   0  0  0  0  0  0  0  0  0  0  0  0
   46.0620   33.0610   46.5400 C   0  0  0  0  0  0  0  0  0  0  0  0
   47.0150   32.4180   47.5020 C   0  0  0  0  0  0  0  0  0  0  0  0
   45.5320   32.4130   47.7950 C   0  0  0  0  0  0  0  0  0  0  0  0
   46.0940   34.1660   46.5370 H   0  0  0  0  0  0  0  0  0  0  0  0
   47.5970   33.0800   48.1730 H   0  0  0  0  0  0  0  0  0  0  0  0
   47.4770   31.4770   47.1640 H   0  0  0  0  0  0  0  0  0  0  0  0
   45.0570   31.4120   47.7420 H   0  0  0  0  0  0  0  0  0  0  0  0
   45.1430   33.0290   48.6180 H   0  0  0  0  0  0  0  0  0  0  0  0
  1 22  1  0  0  0  0
  1  2  1  0  0  0  0
  2  3  1  0  0  0  0
  4  2  1  0  0  0  0
  5 10  1  0  0  0  0
  5 11  1  0  0  0  0
  6  2  1  0  0  0  0
  6  5  2  0  0  0  0
  7  8  2  0  0  0  0
  7  6  1  0  0  0  0
  8  9  1  0  0  0  0
  9 10  2  0  0  0  0
 12  7  1  0  0  0  0
 13 20  1  1  0  0  0
 14  9  1  6  0  0  0
 14 13  1  0  0  0  0
 15 17  1  0  0  0  0
 15 14  1  0  0  0  0
 16 15  1  0  0  0  0
 17 18  1  0  0  0  0
 18 19  1  0  0  0  0
 18 13  1  0  0  0  0
 21 20  1  0  0  0  0
 22 23  2  0  0  0  0
 23 24  1  0  0  0  0
 24 26  1  0  0  0  0
 24 27  1  0  0  0  0
 25 24  1  0  0  0  0
 29 28  2  6  0  0  0
 29 27  1  0  0  0  0
 29 32  1  0  0  0  0
 30 29  1  0  0  0  0
 30 31  1  0  0  0  0
 32 33  1  0  0  0  0
 33 34  1  0  0  0  0
 33 35  1  0  0  0  0
 34 35  1  0  0  0  0
 34 37  1  0  0  0  0
 35 40  1  0  0  0  0
 36 33  1  0  0  0  0
 38 34  1  0  0  0  0
 39 35  1  0  0  0  0
M  END
>  <minimizedAffinity>
-5.48149204

>  <minimizedRMSD>
1.31978405

$$$$
