
 OpenBabel03252504323D

 40 42  0  0  1  0  0  0  0  0999 V2000
   42.6150   35.4200   40.6040 O   0  0  0  0  0  0  0  0  0  0  0  0
   41.4140   35.6400   41.2030 C   0  0  0  0  0  0  0  0  0  0  0  0
   41.4200   35.6480   42.3290 H   0  0  0  0  0  0  0  0  0  0  0  0
   40.9820   36.6200   40.9000 H   0  0  0  0  0  0  0  0  0  0  0  0
   40.5330   33.3940   41.5750 C   0  0  0  0  0  0  0  0  0  0  0  0
   40.3850   34.6060   40.8660 C   0  0  0  0  0  0  0  0  0  0  0  0
   39.3550   34.7050   39.9900 C   0  0  0  0  0  0  0  0  0  0  0  0
   38.5590   33.6440   39.8650 N   0  0  0  0  0  0  0  0  0  0  0  0
   38.6870   32.5080   40.5210 C   0  0  0  0  0  0  0  0  0  0  0  0
   39.7200   32.3320   41.4380 N   0  0  0  0  0  0  0  0  0  0  0  0
   41.3210   33.2180   42.2950 H   0  0  0  0  0  0  0  0  0  0  0  0
   39.2790   35.6320   39.4760 H   0  0  0  0  0  0  0  0  0  0  0  0
   37.6750   30.4950   41.4970 C   0  0  2  0  0  3  0  0  0  0  0  0
   37.7320   31.3890   40.2970 C   0  0  2  0  0  3  0  0  0  0  0  0
   38.4010   30.4650   39.2730 C   0  0  0  0  0  3  0  0  0  0  0  0
   38.0140   30.6790   38.2620 H   0  0  0  0  0  0  0  0  0  0  0  0
   38.0750   29.1610   39.6870 O   0  0  0  0  0  0  0  0  0  0  0  0
   38.4280   29.2460   41.0430 C   0  0  0  0  0  3  0  0  0  0  0  0
   38.0620   28.3510   41.5750 H   0  0  0  0  0  0  0  0  0  0  0  0
   36.3560   30.0960   41.7120 O   0  0  0  0  0  0  0  0  0  0  0  0
   36.0540   29.5660   40.9250 H   0  0  0  0  0  0  0  0  0  0  0  0
   43.8550   35.2690   41.2040 C   0  0  0  0  0  3  0  0  0  0  0  0
   43.9470   35.6680   42.4670 C   0  0  0  0  0  3  0  0  0  0  0  0
   45.1910   35.6010   43.3300 C   0  0  0  0  0  0  0  0  0  0  0  0
   45.9950   35.2580   42.6270 H   0  0  0  0  0  0  0  0  0  0  0  0
   45.4780   36.5950   43.6790 H   0  0  0  0  0  0  0  0  0  0  0  0
   44.9640   34.6660   44.3160 O   0  0  0  0  0  0  0  0  0  0  0  0
   45.6860   32.5460   42.8700 O   0  0  0  0  0  0  0  0  0  0  0  0
   45.9820   33.3360   44.1240 P   0  0  1  0  0  0  0  0  0  0  0  0
   47.6030   33.8560   44.0090 O   0  0  0  0  0  0  0  0  0  0  0  0
   47.6780   34.6050   44.6780 H   0  0  0  0  0  0  0  0  0  0  0  0
   45.8870   32.3310   45.4750 O   0  0  0  0  0  0  0  0  0  0  0  0
   46.1660   33.0020   46.6500 C   0  0  0  0  0  0  0  0  0  0  0  0
   47.0510   32.3460   47.6660 C   0  0  0  0  0  0  0  0  0  0  0  0
   45.5580   32.4040   47.8950 C   0  0  0  0  0  0  0  0  0  0  0  0
   46.2420   34.1040   46.6240 H   0  0  0  0  0  0  0  0  0  0  0  0
   47.6290   33.0010   48.3480 H   0  0  0  0  0  0  0  0  0  0  0  0
   47.4900   31.3800   47.3700 H   0  0  0  0  0  0  0  0  0  0  0  0
   45.0470   31.4220   47.8440 H   0  0  0  0  0  0  0  0  0  0  0  0
   45.1580   33.0550   48.6870 H   0  0  0  0  0  0  0  0  0  0  0  0
  1  2  1  0  0  0  0
  1 22  1  0  0  0  0
  2  3  1  0  0  0  0
  4  2  1  0  0  0  0
  5 11  1  0  0  0  0
  6  2  1  0  0  0  0
  6  5  2  0  0  0  0
  7  6  1  0  0  0  0
  8  7  2  0  0  0  0
  8  9  1  0  0  0  0
  9 10  2  0  0  0  0
 10  5  1  0  0  0  0
 12  7  1  0  0  0  0
 13 20  1  6  0  0  0
 14  9  1  1  0  0  0
 14 13  1  0  0  0  0
 15 17  1  0  0  0  0
 15 14  1  0  0  0  0
 16 15  1  0  0  0  0
 17 18  1  0  0  0  0
 18 13  1  0  0  0  0
 18 19  1  0  0  0  0
 21 20  1  0  0  0  0
 22 23  2  0  0  0  0
 23 24  1  0  0  0  0
 24 26  1  0  0  0  0
 24 27  1  0  0  0  0
 25 24  1  0  0  0  0
 29 28  2  6  0  0  0
 29 27  1  0  0  0  0
 29 32  1  0  0  0  0
 30 29  1  0  0  0  0
 30 31  1  0  0  0  0
 32 33  1  0  0  0  0
 33 34  1  0  0  0  0
 33 35  1  0  0  0  0
 34 35  1  0  0  0  0
 34 37  1  0  0  0  0
 35 40  1  0  0  0  0
 36 33  1  0  0  0  0
 38 34  1  0  0  0  0
 39 35  1  0  0  0  0
M  END
>  <minimizedAffinity>
-5.42207289

>  <minimizedRMSD>
0.431805164

$$$$
