
 OpenBabel03252500253D

 37 39  0  0  1  0  0  0  0  0999 V2000
   47.1210   30.3390   48.0990 C   0  0  2  0  0  0  0  0  0  0  0  0
   45.7650   30.7260   48.5300 C   0  0  2  0  0  0  0  0  0  0  0  0
   44.8680   29.8560   47.7300 C   0  0  0  0  0  0  0  0  0  0  0  0
   45.5530   28.6840   47.4590 O   0  0  0  0  0  0  0  0  0  0  0  0
   46.8440   28.8360   47.8450 C   0  0  0  0  0  0  0  0  0  0  0  0
   47.5670   30.6200   47.1820 H   0  0  0  0  0  0  0  0  0  0  0  0
   45.6700   30.4620   49.5970 H   0  0  0  0  0  0  0  0  0  0  0  0
   44.3060   30.2950   46.9080 H   0  0  0  0  0  0  0  0  0  0  0  0
   44.0260   29.4920   48.4010 H   0  0  0  0  0  0  0  0  0  0  0  0
   47.5490   28.3820   47.1550 H   0  0  0  0  0  0  0  0  0  0  0  0
   46.9870   28.3050   48.8300 H   0  0  0  0  0  0  0  0  0  0  0  0
   45.5140   32.0690   48.3830 O   0  0  0  0  0  0  0  0  0  0  0  0
   47.3270   32.8050   46.7220 O   0  0  0  0  0  0  0  0  0  0  0  0
   45.8470   32.5460   46.8260 P   0  0  1  0  0  0  0  0  0  0  0  0
   45.4420   31.3040   45.7490 O   0  0  0  0  0  0  0  0  0  0  0  0
   44.6190   31.5240   45.2590 H   0  0  0  0  0  0  0  0  0  0  0  0
   45.0510   33.9970   46.3910 O   0  0  0  0  0  0  0  0  0  0  0  0
   44.9600   36.3460   43.7140 C   0  0  0  0  0  0  0  0  0  0  0  0
   44.9890   35.5460   42.5400 C   0  0  0  0  0  0  0  0  0  0  0  0
   45.0410   34.1570   42.7390 C   0  0  0  0  0  0  0  0  0  0  0  0
   45.0600   33.6750   43.9940 N   0  0  0  0  0  0  0  0  0  0  0  0
   45.0320   34.4810   45.0820 C   0  0  0  0  0  0  0  0  0  0  0  0
   44.9820   35.8110   44.9320 N   0  0  0  0  0  0  0  0  0  0  0  0
   44.9720   35.9820   41.5480 H   0  0  0  0  0  0  0  0  0  0  0  0
   45.0650   33.4910   41.8880 H   0  0  0  0  0  0  0  0  0  0  0  0
   44.9090   37.7130   43.5300 O   0  0  0  0  0  0  0  0  0  0  0  0
   45.6740   38.1070   42.9650 H   0  0  0  0  0  0  0  0  0  0  0  0
   48.1320   30.5030   48.9820 O   0  0  0  0  0  0  0  0  0  0  0  0
   50.2670   29.5160   49.4270 C   0  0  2  0  0  3  0  0  0  0  0  0
   49.4040   30.5820   48.7770 C   0  0  2  0  0  3  0  0  0  0  0  0
   49.9160   31.7690   49.6130 C   0  0  0  0  0  3  0  0  0  0  0  0
   49.1170   32.5240   49.7530 H   0  0  0  0  0  0  0  0  0  0  0  0
   50.2520   31.2720   50.8510 O   0  0  0  0  0  0  0  0  0  0  0  0
   50.0550   29.9010   50.8730 C   0  0  0  0  0  3  0  0  0  0  0  0
   49.0180   29.6320   51.1870 H   0  0  0  0  0  0  0  0  0  0  0  0
   51.5830   29.6800   49.0740 O   0  0  0  0  0  0  0  0  0  0  0  0
   51.6790   30.5340   48.5840 H   0  0  0  0  0  0  0  0  0  0  0  0
  1  6  1  6  0  0  0
  1  2  1  0  0  0  0
  1 28  1  0  0  0  0
  2  7  1  1  0  0  0
  3  9  1  0  0  0  0
  3  2  1  0  0  0  0
  4  3  1  0  0  0  0
  4  5  1  0  0  0  0
  5  1  1  0  0  0  0
  5 11  1  0  0  0  0
  8  3  1  0  0  0  0
 10  5  1  0  0  0  0
 12  2  1  0  0  0  0
 14 13  2  6  0  0  0
 14 12  1  0  0  0  0
 15 14  1  0  0  0  0
 16 15  1  0  0  0  0
 17 14  1  0  0  0  0
 18 23  1  0  0  0  0
 19 20  1  0  0  0  0
 19 18  2  0  0  0  0
 20 21  2  0  0  0  0
 21 22  1  0  0  0  0
 22 17  1  0  0  0  0
 23 22  2  0  0  0  0
 24 19  1  0  0  0  0
 25 20  1  0  0  0  0
 26 18  1  0  0  0  0
 27 26  1  0  0  0  0
 29 36  1  6  0  0  0
 29 34  1  0  0  0  0
 30 28  1  1  0  0  0
 30 29  1  0  0  0  0
 30 31  1  0  0  0  0
 31 32  1  0  0  0  0
 31 33  1  0  0  0  0
 33 34  1  0  0  0  0
 34 35  1  0  0  0  0
 37 36  1  0  0  0  0
M  END
>  <minimizedAffinity>
-5.36106491

>  <minimizedRMSD>
1.04334354

$$$$
