
 OpenBabel03252500253D

 37 39  0  0  1  0  0  0  0  0999 V2000
   47.0980   30.3390   48.0720 C   0  0  2  0  0  0  0  0  0  0  0  0
   45.7450   30.7440   48.4960 C   0  0  2  0  0  0  0  0  0  0  0  0
   44.8410   29.8780   47.6990 C   0  0  0  0  0  0  0  0  0  0  0  0
   45.5140   28.6970   47.4380 O   0  0  0  0  0  0  0  0  0  0  0  0
   46.8050   28.8360   47.8280 C   0  0  0  0  0  0  0  0  0  0  0  0
   47.5500   30.6080   47.1540 H   0  0  0  0  0  0  0  0  0  0  0  0
   45.6450   30.4880   49.5640 H   0  0  0  0  0  0  0  0  0  0  0  0
   44.2860   30.3180   46.8720 H   0  0  0  0  0  0  0  0  0  0  0  0
   43.9930   29.5280   48.3700 H   0  0  0  0  0  0  0  0  0  0  0  0
   47.5070   28.3700   47.1430 H   0  0  0  0  0  0  0  0  0  0  0  0
   46.9390   28.3110   48.8170 H   0  0  0  0  0  0  0  0  0  0  0  0
   45.5100   32.0890   48.3390 O   0  0  0  0  0  0  0  0  0  0  0  0
   47.3390   32.7890   46.6810 O   0  0  0  0  0  0  0  0  0  0  0  0
   45.8560   32.5520   46.7790 P   0  0  1  0  0  0  0  0  0  0  0  0
   45.4380   31.3080   45.7090 O   0  0  0  0  0  0  0  0  0  0  0  0
   44.6200   31.5360   45.2140 H   0  0  0  0  0  0  0  0  0  0  0  0
   45.0820   34.0110   46.3320 O   0  0  0  0  0  0  0  0  0  0  0  0
   44.9660   36.3130   43.6160 C   0  0  0  0  0  0  0  0  0  0  0  0
   44.9820   35.4930   42.4560 C   0  0  0  0  0  0  0  0  0  0  0  0
   45.0350   34.1080   42.6790 C   0  0  0  0  0  0  0  0  0  0  0  0
   45.0660   33.6470   43.9420 N   0  0  0  0  0  0  0  0  0  0  0  0
   45.0500   34.4710   45.0150 C   0  0  0  0  0  0  0  0  0  0  0  0
   44.9990   35.7990   44.8430 N   0  0  0  0  0  0  0  0  0  0  0  0
   44.9550   35.9110   41.4570 H   0  0  0  0  0  0  0  0  0  0  0  0
   45.0500   33.4270   41.8400 H   0  0  0  0  0  0  0  0  0  0  0  0
   44.9130   37.6770   43.4100 O   0  0  0  0  0  0  0  0  0  0  0  0
   45.6730   38.0600   42.8300 H   0  0  0  0  0  0  0  0  0  0  0  0
   48.1080   30.4970   48.9560 O   0  0  0  0  0  0  0  0  0  0  0  0
   50.2430   29.5090   49.4000 C   0  0  2  0  0  3  0  0  0  0  0  0
   49.3800   30.5780   48.7530 C   0  0  2  0  0  3  0  0  0  0  0  0
   49.8900   31.7620   49.5940 C   0  0  0  0  0  3  0  0  0  0  0  0
   49.0910   32.5170   49.7350 H   0  0  0  0  0  0  0  0  0  0  0  0
   50.2250   31.2610   50.8310 O   0  0  0  0  0  0  0  0  0  0  0  0
   50.0290   29.8900   50.8480 C   0  0  0  0  0  3  0  0  0  0  0  0
   48.9920   29.6200   51.1590 H   0  0  0  0  0  0  0  0  0  0  0  0
   51.5590   29.6770   49.0490 O   0  0  0  0  0  0  0  0  0  0  0  0
   51.6560   30.5310   48.5630 H   0  0  0  0  0  0  0  0  0  0  0  0
  1  6  1  6  0  0  0
  1  2  1  0  0  0  0
  1 28  1  0  0  0  0
  2  7  1  1  0  0  0
  3  9  1  0  0  0  0
  3  2  1  0  0  0  0
  4  3  1  0  0  0  0
  4  5  1  0  0  0  0
  5  1  1  0  0  0  0
  5 11  1  0  0  0  0
  8  3  1  0  0  0  0
 10  5  1  0  0  0  0
 12  2  1  0  0  0  0
 14 13  2  6  0  0  0
 14 12  1  0  0  0  0
 15 14  1  0  0  0  0
 16 15  1  0  0  0  0
 17 14  1  0  0  0  0
 18 23  1  0  0  0  0
 19 20  1  0  0  0  0
 19 18  2  0  0  0  0
 20 21  2  0  0  0  0
 21 22  1  0  0  0  0
 22 17  1  0  0  0  0
 23 22  2  0  0  0  0
 24 19  1  0  0  0  0
 25 20  1  0  0  0  0
 26 18  1  0  0  0  0
 27 26  1  0  0  0  0
 29 36  1  6  0  0  0
 29 34  1  0  0  0  0
 30 28  1  1  0  0  0
 30 29  1  0  0  0  0
 30 31  1  0  0  0  0
 31 32  1  0  0  0  0
 31 33  1  0  0  0  0
 33 34  1  0  0  0  0
 34 35  1  0  0  0  0
 37 36  1  0  0  0  0
M  END
>  <minimizedAffinity>
-5.36498785

>  <minimizedRMSD>
1.12580347

$$$$
