
 OpenBabel03252500243D

 37 39  0  0  1  0  0  0  0  0999 V2000
   47.0080   29.8850   47.8700 C   0  0  2  0  0  0  0  0  0  0  0  0
   45.6070   30.2180   48.1850 C   0  0  2  0  0  0  0  0  0  0  0  0
   44.8200   29.4630   47.1770 C   0  0  0  0  0  0  0  0  0  0  0  0
   45.5470   28.3340   46.8400 O   0  0  0  0  0  0  0  0  0  0  0  0
   46.7810   28.4280   47.3920 C   0  0  0  0  0  0  0  0  0  0  0  0
   47.5570   30.2810   47.0570 H   0  0  0  0  0  0  0  0  0  0  0  0
   45.3900   29.8170   49.1890 H   0  0  0  0  0  0  0  0  0  0  0  0
   44.3540   30.0080   46.3590 H   0  0  0  0  0  0  0  0  0  0  0  0
   43.9100   29.0180   47.6910 H   0  0  0  0  0  0  0  0  0  0  0  0
   47.5680   28.0660   46.7370 H   0  0  0  0  0  0  0  0  0  0  0  0
   46.8130   27.7730   48.3100 H   0  0  0  0  0  0  0  0  0  0  0  0
   45.3590   31.5690   48.1850 O   0  0  0  0  0  0  0  0  0  0  0  0
   47.4650   32.8800   47.5250 O   0  0  0  0  0  0  0  0  0  0  0  0
   46.1970   32.3050   46.9510 P   0  0  1  0  0  0  0  0  0  0  0  0
   46.6110   31.1560   45.7780 O   0  0  0  0  0  0  0  0  0  0  0  0
   46.0510   31.2600   44.9780 H   0  0  0  0  0  0  0  0  0  0  0  0
   45.3330   33.6000   46.2400 O   0  0  0  0  0  0  0  0  0  0  0  0
   45.1990   35.7360   43.3930 C   0  0  0  0  0  0  0  0  0  0  0  0
   46.2790   35.3040   42.5750 C   0  0  0  0  0  0  0  0  0  0  0  0
   47.0430   34.2370   43.0740 C   0  0  0  0  0  0  0  0  0  0  0  0
   46.7210   33.6980   44.2630 N   0  0  0  0  0  0  0  0  0  0  0  0
   45.6820   34.1470   45.0050 C   0  0  0  0  0  0  0  0  0  0  0  0
   44.9290   35.1630   44.5620 N   0  0  0  0  0  0  0  0  0  0  0  0
   46.4990   35.7700   41.6230 H   0  0  0  0  0  0  0  0  0  0  0  0
   47.8790   33.8590   42.5020 H   0  0  0  0  0  0  0  0  0  0  0  0
   44.4400   36.7840   42.9130 O   0  0  0  0  0  0  0  0  0  0  0  0
   44.9660   37.6430   42.7010 H   0  0  0  0  0  0  0  0  0  0  0  0
   47.9060   29.9280   48.8800 O   0  0  0  0  0  0  0  0  0  0  0  0
   50.1730   29.4220   48.2980 C   0  0  2  0  0  3  0  0  0  0  0  0
   49.1260   30.3510   48.8850 C   0  0  2  0  0  3  0  0  0  0  0  0
   49.6150   30.2810   50.3440 C   0  0  0  0  0  3  0  0  0  0  0  0
   48.7670   30.3910   51.0480 H   0  0  0  0  0  0  0  0  0  0  0  0
   50.1580   29.0300   50.5240 O   0  0  0  0  0  0  0  0  0  0  0  0
   50.1100   28.3240   49.3350 C   0  0  0  0  0  3  0  0  0  0  0  0
   49.1560   27.7540   49.2240 H   0  0  0  0  0  0  0  0  0  0  0  0
   51.4070   30.0210   48.3060 O   0  0  0  0  0  0  0  0  0  0  0  0
   51.3500   30.8670   48.8130 H   0  0  0  0  0  0  0  0  0  0  0  0
  1  6  1  6  0  0  0
  1  2  1  0  0  0  0
  1 28  1  0  0  0  0
  2 12  1  0  0  0  0
  2  7  1  1  0  0  0
  3  9  1  0  0  0  0
  3  2  1  0  0  0  0
  4  3  1  0  0  0  0
  4  5  1  0  0  0  0
  5  1  1  0  0  0  0
  5 11  1  0  0  0  0
  8  3  1  0  0  0  0
 10  5  1  0  0  0  0
 14 13  2  1  0  0  0
 14 12  1  0  0  0  0
 15 14  1  0  0  0  0
 16 15  1  0  0  0  0
 17 14  1  0  0  0  0
 18 23  1  0  0  0  0
 19 20  1  0  0  0  0
 19 18  2  0  0  0  0
 20 21  2  0  0  0  0
 21 22  1  0  0  0  0
 22 17  1  0  0  0  0
 23 22  2  0  0  0  0
 24 19  1  0  0  0  0
 25 20  1  0  0  0  0
 26 18  1  0  0  0  0
 27 26  1  0  0  0  0
 29 36  1  1  0  0  0
 29 30  1  0  0  0  0
 29 34  1  0  0  0  0
 30 28  1  1  0  0  0
 30 31  1  0  0  0  0
 31 33  1  0  0  0  0
 31 32  1  0  0  0  0
 34 33  1  0  0  0  0
 35 34  1  0  0  0  0
 36 37  1  0  0  0  0
M  END
>  <minimizedAffinity>
-5.10126162

>  <minimizedRMSD>
0.624347925

$$$$
