
 OpenBabel03242517263D

 31 33  0  0  1  0  0  0  0  0999 V2000
   38.5250   27.5500   36.5710 C   0  0  0  0  0  0  0  0  0  0  0  0
   39.9340   27.7700   36.5510 C   0  0  0  0  0  0  0  0  0  0  0  0
   40.4540   28.6870   37.4830 C   0  0  0  0  0  0  0  0  0  0  0  0
   39.5950   29.3000   38.3330 N   0  0  0  0  0  0  0  0  0  0  0  0
   38.2700   29.0710   38.3270 C   0  0  0  0  0  0  0  0  0  0  0  0
   37.7510   28.1960   37.4430 N   0  0  0  0  0  0  0  0  0  0  0  0
   37.4660   29.7550   39.2470 N   0  0  0  0  0  0  0  0  0  0  0  0
   37.4430   31.1850   39.2550 C   0  0  0  0  0  0  0  0  0  0  0  0
   36.8460   31.7750   40.4880 C   0  0  0  0  0  0  0  0  0  0  0  0
   35.8310   31.0150   41.1360 N   0  0  0  0  0  0  0  0  0  0  0  0
   35.4390   29.8440   40.4080 C   0  0  0  0  0  0  0  0  0  0  0  0
   36.6490   28.9910   40.1990 C   0  0  2  0  0  0  0  0  0  0  0  0
   38.0380   26.8660   35.8940 H   0  0  0  0  0  0  0  0  0  0  0  0
   40.5290   27.2410   35.8450 H   0  0  0  0  0  0  0  0  0  0  0  0
   41.5060   28.8750   37.4970 H   0  0  0  0  0  0  0  0  0  0  0  0
   38.5160   31.5260   39.1690 H   0  0  0  0  0  0  0  0  0  0  0  0
   36.9550   31.5780   38.3350 H   0  0  0  0  0  0  0  0  0  0  0  0
   37.6720   31.9440   41.2210 H   0  0  0  0  0  0  0  0  0  0  0  0
   36.4880   32.8020   40.2290 H   0  0  0  0  0  0  0  0  0  0  0  0
   34.9720   31.6060   41.2220 H   0  0  0  0  0  0  0  0  0  0  0  0
   34.7170   29.2770   41.0320 H   0  0  0  0  0  0  0  0  0  0  0  0
   34.9640   30.0540   39.4420 H   0  0  0  0  0  0  0  0  0  0  0  0
   36.3640   28.0480   39.6940 H   0  0  0  0  0  0  0  0  0  0  0  0
   37.3990   28.6880   41.4510 C   0  0  0  0  0  0  0  0  0  0  0  0
   38.4340   28.4550   41.1930 H   0  0  0  0  0  0  0  0  0  0  0  0
   37.4180   29.6120   42.1000 H   0  0  0  0  0  0  0  0  0  0  0  0
   36.7010   27.6010   42.2080 C   0  0  0  0  0  3  0  0  0  0  0  0
   37.1140   27.6350   43.6790 C   0  0  0  0  0  2  0  0  0  0  0  0
   38.4990   27.0090   43.6710 C   0  0  0  0  0  2  0  0  0  0  0  0
   38.6370   26.2690   42.3590 C   0  0  0  0  0  2  0  0  0  0  0  0
   37.2180   26.2480   41.8040 C   0  0  0  0  0  2  0  0  0  0  0  0
  1  6  1  0  0  0  0
  2  1  2  0  0  0  0
  2  3  1  0  0  0  0
  3 15  1  0  0  0  0
  3  4  2  0  0  0  0
  5  4  1  0  0  0  0
  5  7  1  0  0  0  0
  6  5  2  0  0  0  0
  7  8  1  0  0  0  0
  7 12  1  0  0  0  0
  8  9  1  0  0  0  0
  9 10  1  0  0  0  0
  9 18  1  0  0  0  0
 10 20  1  0  0  0  0
 11 21  1  0  0  0  0
 11 10  1  0  0  0  0
 12 23  1  6  0  0  0
 12 11  1  0  0  0  0
 12 24  1  0  0  0  0
 13  1  1  0  0  0  0
 14  2  1  0  0  0  0
 16  8  1  0  0  0  0
 17  8  1  0  0  0  0
 19  9  1  0  0  0  0
 22 11  1  0  0  0  0
 24 26  1  0  0  0  0
 24 27  1  0  0  0  0
 25 24  1  0  0  0  0
 27 28  1  0  0  0  0
 29 28  1  0  0  0  0
 30 29  1  0  0  0  0
 31 27  1  0  0  0  0
 31 30  1  0  0  0  0
M  END
>  <minimizedAffinity>
-5.13015699

$$$$

 OpenBabel03242517263D

 31 33  0  0  1  0  0  0  0  0999 V2000
   39.7530   27.7740   42.0890 C   0  0  0  0  0  0  0  0  0  0  0  0
   38.9140   27.7170   43.2420 C   0  0  0  0  0  0  0  0  0  0  0  0
   37.9940   28.7660   43.4200 C   0  0  0  0  0  0  0  0  0  0  0  0
   37.9590   29.7570   42.4980 N   0  0  0  0  0  0  0  0  0  0  0  0
   38.7640   29.7840   41.4200 C   0  0  0  0  0  0  0  0  0  0  0  0
   39.6530   28.7890   41.2300 N   0  0  0  0  0  0  0  0  0  0  0  0
   38.6510   30.8540   40.5240 N   0  0  0  0  0  0  0  0  0  0  0  0
   38.8470   32.1950   40.9790 C   0  0  0  0  0  0  0  0  0  0  0  0
   38.3520   33.2360   40.0340 C   0  0  0  0  0  0  0  0  0  0  0  0
   38.3900   32.9130   38.6460 N   0  0  0  0  0  0  0  0  0  0  0  0
   39.0400   31.6660   38.3670 C   0  0  0  0  0  0  0  0  0  0  0  0
   38.3310   30.5840   39.1160 C   0  0  2  0  0  0  0  0  0  0  0  0
   40.4880   27.0160   41.8710 H   0  0  0  0  0  0  0  0  0  0  0  0
   39.0140   26.8950   43.9120 H   0  0  0  0  0  0  0  0  0  0  0  0
   37.3490   28.7530   44.2730 H   0  0  0  0  0  0  0  0  0  0  0  0
   38.2870   32.2910   41.9540 H   0  0  0  0  0  0  0  0  0  0  0  0
   39.9120   32.3670   41.2570 H   0  0  0  0  0  0  0  0  0  0  0  0
   37.2940   33.4690   40.3050 H   0  0  0  0  0  0  0  0  0  0  0  0
   38.9110   34.1800   40.2500 H   0  0  0  0  0  0  0  0  0  0  0  0
   38.9400   33.6480   38.1450 H   0  0  0  0  0  0  0  0  0  0  0  0
   38.9390   31.4620   37.2800 H   0  0  0  0  0  0  0  0  0  0  0  0
   40.1080   31.6500   38.6180 H   0  0  0  0  0  0  0  0  0  0  0  0
   38.7730   29.6000   38.8680 H   0  0  0  0  0  0  0  0  0  0  0  0
   36.8590   30.5510   38.8810 C   0  0  0  0  0  0  0  0  0  0  0  0
   36.3510   30.8980   39.7830 H   0  0  0  0  0  0  0  0  0  0  0  0
   36.6020   31.2790   38.0550 H   0  0  0  0  0  0  0  0  0  0  0  0
   36.4470   29.1820   38.4390 C   0  0  0  0  0  3  0  0  0  0  0  0
   34.9990   29.1980   37.9540 C   0  0  0  0  0  2  0  0  0  0  0  0
   34.1950   29.2370   39.2440 C   0  0  0  0  0  2  0  0  0  0  0  0
   35.1280   28.8070   40.3540 C   0  0  0  0  0  2  0  0  0  0  0  0
   36.3380   28.2490   39.6140 C   0  0  0  0  0  2  0  0  0  0  0  0
  1  2  1  0  0  0  0
  2  3  2  0  0  0  0
  2 14  1  0  0  0  0
  3 15  1  0  0  0  0
  4  3  1  0  0  0  0
  5  4  2  0  0  0  0
  6  5  1  0  0  0  0
  6  1  2  0  0  0  0
  7  8  1  0  0  0  0
  7  5  1  0  0  0  0
  8 17  1  0  0  0  0
  8 16  1  0  0  0  0
  9 19  1  0  0  0  0
  9 18  1  0  0  0  0
  9  8  1  0  0  0  0
 10  9  1  0  0  0  0
 11 22  1  0  0  0  0
 11 10  1  0  0  0  0
 11 12  1  0  0  0  0
 12 23  1  6  0  0  0
 12  7  1  0  0  0  0
 13  1  1  0  0  0  0
 20 10  1  0  0  0  0
 21 11  1  0  0  0  0
 24 12  1  0  0  0  0
 24 25  1  0  0  0  0
 26 24  1  0  0  0  0
 27 24  1  0  0  0  0
 27 31  1  0  0  0  0
 28 27  1  0  0  0  0
 28 29  1  0  0  0  0
 29 30  1  0  0  0  0
 31 30  1  0  0  0  0
M  END
>  <minimizedAffinity>
-4.89849186

$$$$

 OpenBabel03242517263D

 31 33  0  0  1  0  0  0  0  0999 V2000
   40.3790   28.5030   37.0290 C   0  0  0  0  0  0  0  0  0  0  0  0
   41.7500   28.8070   37.2830 C   0  0  0  0  0  0  0  0  0  0  0  0
   42.0210   29.8290   38.2100 C   0  0  0  0  0  0  0  0  0  0  0  0
   40.9760   30.4580   38.8000 N   0  0  0  0  0  0  0  0  0  0  0  0
   39.6930   30.1500   38.5400 C   0  0  0  0  0  0  0  0  0  0  0  0
   39.4110   29.1730   37.6550 N   0  0  0  0  0  0  0  0  0  0  0  0
   38.6840   30.8590   39.2020 N   0  0  0  0  0  0  0  0  0  0  0  0
   38.6000   32.2800   39.0690 C   0  0  0  0  0  0  0  0  0  0  0  0
   37.7300   32.9350   40.0880 C   0  0  0  0  0  0  0  0  0  0  0  0
   36.6320   32.1720   40.5800 N   0  0  0  0  0  0  0  0  0  0  0  0
   36.4540   30.9210   39.9020 C   0  0  0  0  0  0  0  0  0  0  0  0
   37.7150   30.1290   40.0320 C   0  0  2  0  0  0  0  0  0  0  0  0
   40.0770   27.7360   36.3350 H   0  0  0  0  0  0  0  0  0  0  0  0
   42.5030   28.2560   36.7700 H   0  0  0  0  0  0  0  0  0  0  0  0
   43.0370   30.0820   38.4250 H   0  0  0  0  0  0  0  0  0  0  0  0
   39.6510   32.6780   39.1760 H   0  0  0  0  0  0  0  0  0  0  0  0
   38.3030   32.5630   38.0330 H   0  0  0  0  0  0  0  0  0  0  0  0
   38.3730   33.2160   40.9570 H   0  0  0  0  0  0  0  0  0  0  0  0
   37.3920   33.9130   39.6620 H   0  0  0  0  0  0  0  0  0  0  0  0
   35.7520   32.7150   40.4280 H   0  0  0  0  0  0  0  0  0  0  0  0
   35.6400   30.3670   40.4130 H   0  0  0  0  0  0  0  0  0  0  0  0
   36.1870   31.0200   38.8430 H   0  0  0  0  0  0  0  0  0  0  0  0
   37.5840   29.1310   39.5720 H   0  0  0  0  0  0  0  0  0  0  0  0
   38.1940   29.9800   41.4360 C   0  0  0  0  0  0  0  0  0  0  0  0
   38.9570   30.7370   41.6300 H   0  0  0  0  0  0  0  0  0  0  0  0
   37.3350   30.1870   42.1410 H   0  0  0  0  0  0  0  0  0  0  0  0
   38.6560   28.5750   41.6660 C   0  0  0  0  0  3  0  0  0  0  0  0
   37.5250   27.5920   41.3700 C   0  0  0  0  0  2  0  0  0  0  0  0
   36.6290   27.7060   42.5930 C   0  0  0  0  0  2  0  0  0  0  0  0
   37.4540   28.3600   43.6800 C   0  0  0  0  0  2  0  0  0  0  0  0
   38.8750   28.3160   43.1310 C   0  0  0  0  0  2  0  0  0  0  0  0
  1  2  2  0  0  0  0
  1  6  1  0  0  0  0
  2  3  1  0  0  0  0
  3 15  1  0  0  0  0
  3  4  2  0  0  0  0
  5  4  1  0  0  0  0
  5  7  1  0  0  0  0
  6  5  2  0  0  0  0
  7 12  1  0  0  0  0
  8 16  1  0  0  0  0
  8  7  1  0  0  0  0
  8  9  1  0  0  0  0
  9 10  1  0  0  0  0
  9 18  1  0  0  0  0
 11 12  1  0  0  0  0
 11 21  1  0  0  0  0
 11 10  1  0  0  0  0
 12 23  1  6  0  0  0
 12 24  1  0  0  0  0
 13  1  1  0  0  0  0
 14  2  1  0  0  0  0
 17  8  1  0  0  0  0
 19  9  1  0  0  0  0
 20 10  1  0  0  0  0
 22 11  1  0  0  0  0
 24 25  1  0  0  0  0
 24 27  1  0  0  0  0
 24 26  1  0  0  0  0
 27 31  1  0  0  0  0
 28 27  1  0  0  0  0
 28 29  1  0  0  0  0
 29 30  1  0  0  0  0
 31 30  1  0  0  0  0
M  END
>  <minimizedAffinity>
-4.79628992

$$$$

 OpenBabel03242517263D

 31 33  0  0  1  0  0  0  0  0999 V2000
   35.2160   29.2170   38.0360 C   0  0  0  0  0  0  0  0  0  0  0  0
   36.2290   29.5330   37.0830 C   0  0  0  0  0  0  0  0  0  0  0  0
   37.5600   29.5450   37.5390 C   0  0  0  0  0  0  0  0  0  0  0  0
   37.7980   29.2580   38.8410 N   0  0  0  0  0  0  0  0  0  0  0  0
   36.8200   28.9640   39.7170 C   0  0  0  0  0  0  0  0  0  0  0  0
   35.5380   28.9470   39.3010 N   0  0  0  0  0  0  0  0  0  0  0  0
   37.1690   28.6820   41.0430 N   0  0  0  0  0  0  0  0  0  0  0  0
   37.8770   29.6510   41.8200 C   0  0  0  0  0  0  0  0  0  0  0  0
   38.4920   29.1020   43.0630 C   0  0  0  0  0  0  0  0  0  0  0  0
   37.8230   28.0050   43.6790 N   0  0  0  0  0  0  0  0  0  0  0  0
   36.5650   27.6870   43.0710 C   0  0  0  0  0  0  0  0  0  0  0  0
   36.8010   27.3840   41.6260 C   0  0  2  0  0  0  0  0  0  0  0  0
   34.1700   29.1850   37.7780 H   0  0  0  0  0  0  0  0  0  0  0  0
   35.9450   29.7450   36.0790 H   0  0  0  0  0  0  0  0  0  0  0  0
   38.3450   29.7770   36.8500 H   0  0  0  0  0  0  0  0  0  0  0  0
   38.6940   30.0620   41.1590 H   0  0  0  0  0  0  0  0  0  0  0  0
   37.2310   30.5320   42.0380 H   0  0  0  0  0  0  0  0  0  0  0  0
   39.5320   28.7770   42.8150 H   0  0  0  0  0  0  0  0  0  0  0  0
   38.6270   29.9530   43.7760 H   0  0  0  0  0  0  0  0  0  0  0  0
   37.6130   28.2550   44.6720 H   0  0  0  0  0  0  0  0  0  0  0  0
   36.1690   26.7710   43.5580 H   0  0  0  0  0  0  0  0  0  0  0  0
   35.8090   28.4760   43.1640 H   0  0  0  0  0  0  0  0  0  0  0  0
   35.8530   27.0730   41.1450 H   0  0  0  0  0  0  0  0  0  0  0  0
   37.8520   26.3540   41.3880 C   0  0  0  0  0  0  0  0  0  0  0  0
   38.0200   26.2650   40.3120 H   0  0  0  0  0  0  0  0  0  0  0  0
   38.8220   26.7070   41.8460 H   0  0  0  0  0  0  0  0  0  0  0  0
   37.4620   25.0710   42.0520 C   0  0  0  0  0  3  0  0  0  0  0  0
   38.6590   24.1240   42.1120 C   0  0  0  0  0  2  0  0  0  0  0  0
   38.7560   23.5870   40.6930 C   0  0  0  0  0  2  0  0  0  0  0  0
   37.4280   23.8690   40.0270 C   0  0  0  0  0  2  0  0  0  0  0  0
   36.5230   24.2800   41.1830 C   0  0  0  0  0  2  0  0  0  0  0  0
  1  6  1  0  0  0  0
  2  3  1  0  0  0  0
  2  1  2  0  0  0  0
  3  4  2  0  0  0  0
  4  5  1  0  0  0  0
  5  7  1  0  0  0  0
  6  5  2  0  0  0  0
  7 12  1  0  0  0  0
  7  8  1  0  0  0  0
  8 17  1  0  0  0  0
  8  9  1  0  0  0  0
  9 10  1  0  0  0  0
  9 19  1  0  0  0  0
 10 20  1  0  0  0  0
 11 22  1  0  0  0  0
 11 21  1  0  0  0  0
 11 10  1  0  0  0  0
 12 23  1  6  0  0  0
 12 11  1  0  0  0  0
 13  1  1  0  0  0  0
 14  2  1  0  0  0  0
 15  3  1  0  0  0  0
 16  8  1  0  0  0  0
 18  9  1  0  0  0  0
 24 12  1  0  0  0  0
 24 26  1  0  0  0  0
 24 27  1  0  0  0  0
 25 24  1  0  0  0  0
 27 28  1  0  0  0  0
 29 28  1  0  0  0  0
 30 29  1  0  0  0  0
 30 31  1  0  0  0  0
 31 27  1  0  0  0  0
M  END
>  <minimizedAffinity>
-4.7608695

$$$$

 OpenBabel03242517263D

 31 33  0  0  1  0  0  0  0  0999 V2000
   37.5580   23.2380   40.9210 C   0  0  0  0  0  0  0  0  0  0  0  0
   38.1390   23.2060   39.6180 C   0  0  0  0  0  0  0  0  0  0  0  0
   38.4580   24.4410   39.0250 C   0  0  0  0  0  0  0  0  0  0  0  0
   38.1960   25.5750   39.7190 N   0  0  0  0  0  0  0  0  0  0  0  0
   37.6460   25.5730   40.9460 C   0  0  0  0  0  0  0  0  0  0  0  0
   37.3340   24.4010   41.5330 N   0  0  0  0  0  0  0  0  0  0  0  0
   37.4150   26.8000   41.5810 N   0  0  0  0  0  0  0  0  0  0  0  0
   36.5750   27.7790   40.9640 C   0  0  0  0  0  0  0  0  0  0  0  0
   36.7010   29.1440   41.5510 C   0  0  0  0  0  0  0  0  0  0  0  0
   37.0320   29.2190   42.9350 N   0  0  0  0  0  0  0  0  0  0  0  0
   37.0570   27.9430   43.5880 C   0  0  0  0  0  0  0  0  0  0  0  0
   38.0430   27.0690   42.8820 C   0  0  2  0  0  0  0  0  0  0  0  0
   37.2810   22.3410   41.4520 H   0  0  0  0  0  0  0  0  0  0  0  0
   38.3080   22.2630   39.1520 H   0  0  0  0  0  0  0  0  0  0  0  0
   38.8960   24.4540   38.0500 H   0  0  0  0  0  0  0  0  0  0  0  0
   36.8710   27.8210   39.8760 H   0  0  0  0  0  0  0  0  0  0  0  0
   35.5150   27.4370   40.9480 H   0  0  0  0  0  0  0  0  0  0  0  0
   37.4870   29.6920   40.9780 H   0  0  0  0  0  0  0  0  0  0  0  0
   35.7550   29.6950   41.3260 H   0  0  0  0  0  0  0  0  0  0  0  0
   36.3020   29.7850   43.4240 H   0  0  0  0  0  0  0  0  0  0  0  0
   37.4110   28.0970   44.6290 H   0  0  0  0  0  0  0  0  0  0  0  0
   36.0820   27.4420   43.6300 H   0  0  0  0  0  0  0  0  0  0  0  0
   38.1290   26.0970   43.4050 H   0  0  0  0  0  0  0  0  0  0  0  0
   39.3920   27.6820   42.7270 C   0  0  0  0  0  0  0  0  0  0  0  0
   39.6930   27.6130   41.6790 H   0  0  0  0  0  0  0  0  0  0  0  0
   39.3280   28.7810   42.9820 H   0  0  0  0  0  0  0  0  0  0  0  0
   40.3520   27.0380   43.6790 C   0  0  0  0  0  3  0  0  0  0  0  0
   41.7800   27.4860   43.3710 C   0  0  0  0  0  2  0  0  0  0  0  0
   42.1480   26.6710   42.1410 C   0  0  0  0  0  2  0  0  0  0  0  0
   41.1600   25.5270   42.0630 C   0  0  0  0  0  2  0  0  0  0  0  0
   40.4590   25.5620   43.4170 C   0  0  0  0  0  2  0  0  0  0  0  0
  1 13  1  0  0  0  0
  1  6  1  0  0  0  0
  2  1  2  0  0  0  0
  3  2  1  0  0  0  0
  3  4  2  0  0  0  0
  4  5  1  0  0  0  0
  5  6  2  0  0  0  0
  5  7  1  0  0  0  0
  7 12  1  0  0  0  0
  8  9  1  0  0  0  0
  8  7  1  0  0  0  0
  9 10  1  0  0  0  0
 10 20  1  0  0  0  0
 10 11  1  0  0  0  0
 11 22  1  0  0  0  0
 11 21  1  0  0  0  0
 12 23  1  1  0  0  0
 12 11  1  0  0  0  0
 14  2  1  0  0  0  0
 15  3  1  0  0  0  0
 16  8  1  0  0  0  0
 17  8  1  0  0  0  0
 18  9  1  0  0  0  0
 19  9  1  0  0  0  0
 24 12  1  0  0  0  0
 24 26  1  0  0  0  0
 24 27  1  0  0  0  0
 25 24  1  0  0  0  0
 28 27  1  0  0  0  0
 29 28  1  0  0  0  0
 30 29  1  0  0  0  0
 30 31  1  0  0  0  0
 31 27  1  0  0  0  0
M  END
>  <minimizedAffinity>
-4.75056219

$$$$

 OpenBabel03242517263D

 31 33  0  0  1  0  0  0  0  0999 V2000
   40.8510   26.4230   39.0890 C   0  0  0  0  0  0  0  0  0  0  0  0
   40.5420   25.0350   38.9780 C   0  0  0  0  0  0  0  0  0  0  0  0
   39.4890   24.5450   39.7720 C   0  0  0  0  0  0  0  0  0  0  0  0
   38.8390   25.4100   40.5860 N   0  0  0  0  0  0  0  0  0  0  0  0
   39.1530   26.7150   40.6690 C   0  0  0  0  0  0  0  0  0  0  0  0
   40.1590   27.2060   39.9170 N   0  0  0  0  0  0  0  0  0  0  0  0
   38.4200   27.5290   41.5420 N   0  0  0  0  0  0  0  0  0  0  0  0
   38.3740   27.2240   42.9380 C   0  0  0  0  0  0  0  0  0  0  0  0
   37.2920   27.9340   43.6790 C   0  0  0  0  0  0  0  0  0  0  0  0
   36.9150   29.2180   43.1890 N   0  0  0  0  0  0  0  0  0  0  0  0
   37.7490   29.6910   42.1230 C   0  0  0  0  0  0  0  0  0  0  0  0
   37.7030   28.6950   41.0090 C   0  0  2  0  0  0  0  0  0  0  0  0
   41.6410   26.8860   38.5200 H   0  0  0  0  0  0  0  0  0  0  0  0
   41.1100   24.4320   38.3090 H   0  0  0  0  0  0  0  0  0  0  0  0
   39.2310   23.5090   39.7130 H   0  0  0  0  0  0  0  0  0  0  0  0
   38.2030   26.1110   43.0200 H   0  0  0  0  0  0  0  0  0  0  0  0
   39.3690   27.3850   43.4120 H   0  0  0  0  0  0  0  0  0  0  0  0
   36.3860   27.2820   43.6700 H   0  0  0  0  0  0  0  0  0  0  0  0
   37.5950   27.9780   44.7550 H   0  0  0  0  0  0  0  0  0  0  0  0
   37.0090   29.9140   43.9640 H   0  0  0  0  0  0  0  0  0  0  0  0
   37.3230   30.6470   41.7530 H   0  0  0  0  0  0  0  0  0  0  0  0
   38.7910   29.8720   42.4140 H   0  0  0  0  0  0  0  0  0  0  0  0
   38.2880   29.0660   40.1450 H   0  0  0  0  0  0  0  0  0  0  0  0
   36.3230   28.3410   40.5710 C   0  0  0  0  0  0  0  0  0  0  0  0
   36.3800   27.5100   39.8650 H   0  0  0  0  0  0  0  0  0  0  0  0
   35.7350   27.9770   41.4650 H   0  0  0  0  0  0  0  0  0  0  0  0
   35.6380   29.5550   40.0260 C   0  0  0  0  0  3  0  0  0  0  0  0
   34.2300   29.1980   39.5510 C   0  0  0  0  0  2  0  0  0  0  0  0
   34.4730   28.4990   38.2230 C   0  0  0  0  0  2  0  0  0  0  0  0
   35.8770   28.8610   37.7890 C   0  0  0  0  0  2  0  0  0  0  0  0
   36.2670   29.9920   38.7330 C   0  0  0  0  0  2  0  0  0  0  0  0
  1  6  1  0  0  0  0
  2  1  2  0  0  0  0
  2  3  1  0  0  0  0
  3  4  2  0  0  0  0
  4  5  1  0  0  0  0
  5  7  1  0  0  0  0
  6  5  2  0  0  0  0
  7  8  1  0  0  0  0
  8 16  1  0  0  0  0
  8 17  1  0  0  0  0
  8  9  1  0  0  0  0
  9 19  1  0  0  0  0
 10  9  1  0  0  0  0
 10 20  1  0  0  0  0
 11 22  1  0  0  0  0
 11 10  1  0  0  0  0
 12 23  1  6  0  0  0
 12  7  1  0  0  0  0
 12 11  1  0  0  0  0
 13  1  1  0  0  0  0
 14  2  1  0  0  0  0
 15  3  1  0  0  0  0
 18  9  1  0  0  0  0
 21 11  1  0  0  0  0
 24 12  1  0  0  0  0
 24 26  1  0  0  0  0
 25 24  1  0  0  0  0
 27 24  1  0  0  0  0
 28 27  1  0  0  0  0
 29 28  1  0  0  0  0
 30 29  1  0  0  0  0
 30 31  1  0  0  0  0
 31 27  1  0  0  0  0
M  END
>  <minimizedAffinity>
-4.72590494

$$$$

 OpenBabel03242517263D

 31 33  0  0  1  0  0  0  0  0999 V2000
   39.8350   33.1040   40.6540 C   0  0  0  0  0  0  0  0  0  0  0  0
   40.3730   32.9150   39.3460 C   0  0  0  0  0  0  0  0  0  0  0  0
   40.4670   31.5930   38.8740 C   0  0  0  0  0  0  0  0  0  0  0  0
   40.0460   30.5890   39.6800 N   0  0  0  0  0  0  0  0  0  0  0  0
   39.5440   30.7980   40.9100 C   0  0  0  0  0  0  0  0  0  0  0  0
   39.4450   32.0570   41.3820 N   0  0  0  0  0  0  0  0  0  0  0  0
   39.1360   29.6930   41.6660 N   0  0  0  0  0  0  0  0  0  0  0  0
   40.0690   28.6570   41.9820 C   0  0  0  0  0  0  0  0  0  0  0  0
   39.4370   27.3960   42.4660 C   0  0  0  0  0  0  0  0  0  0  0  0
   38.2070   27.5260   43.1740 N   0  0  0  0  0  0  0  0  0  0  0  0
   37.8370   28.8860   43.4350 C   0  0  0  0  0  0  0  0  0  0  0  0
   37.7440   29.6100   42.1290 C   0  0  2  0  0  0  0  0  0  0  0  0
   39.7260   34.0800   41.0990 H   0  0  0  0  0  0  0  0  0  0  0  0
   40.6770   33.7680   38.7860 H   0  0  0  0  0  0  0  0  0  0  0  0
   40.8640   31.4160   37.8970 H   0  0  0  0  0  0  0  0  0  0  0  0
   40.6430   28.4380   41.0350 H   0  0  0  0  0  0  0  0  0  0  0  0
   40.8430   29.0250   42.6940 H   0  0  0  0  0  0  0  0  0  0  0  0
   39.2560   26.7420   41.5790 H   0  0  0  0  0  0  0  0  0  0  0  0
   40.2010   26.8460   43.0690 H   0  0  0  0  0  0  0  0  0  0  0  0
   38.3080   27.0660   44.1080 H   0  0  0  0  0  0  0  0  0  0  0  0
   36.8320   28.8850   43.9050 H   0  0  0  0  0  0  0  0  0  0  0  0
   38.5250   29.4180   44.1040 H   0  0  0  0  0  0  0  0  0  0  0  0
   37.3980   30.6480   42.2960 H   0  0  0  0  0  0  0  0  0  0  0  0
   36.8680   28.9380   41.1280 C   0  0  0  0  0  0  0  0  0  0  0  0
   37.4850   28.5960   40.2940 H   0  0  0  0  0  0  0  0  0  0  0  0
   36.4080   28.0200   41.5990 H   0  0  0  0  0  0  0  0  0  0  0  0
   35.7600   29.8600   40.7260 C   0  0  0  0  0  3  0  0  0  0  0  0
   34.7730   29.1330   39.8140 C   0  0  0  0  0  2  0  0  0  0  0  0
   35.4910   29.0970   38.4750 C   0  0  0  0  0  2  0  0  0  0  0  0
   36.5900   30.1350   38.5400 C   0  0  0  0  0  2  0  0  0  0  0  0
   36.2620   30.9310   39.7970 C   0  0  0  0  0  2  0  0  0  0  0  0
  1 13  1  0  0  0  0
  1  6  1  0  0  0  0
  2  1  2  0  0  0  0
  3  2  1  0  0  0  0
  3  4  2  0  0  0  0
  4  5  1  0  0  0  0
  5  6  2  0  0  0  0
  5  7  1  0  0  0  0
  7  8  1  0  0  0  0
  7 12  1  0  0  0  0
  8  9  1  0  0  0  0
  8 17  1  0  0  0  0
  9 19  1  0  0  0  0
  9 10  1  0  0  0  0
 10 11  1  0  0  0  0
 10 20  1  0  0  0  0
 11 21  1  0  0  0  0
 11 22  1  0  0  0  0
 12 23  1  1  0  0  0
 12 11  1  0  0  0  0
 14  2  1  0  0  0  0
 15  3  1  0  0  0  0
 16  8  1  0  0  0  0
 18  9  1  0  0  0  0
 24 26  1  0  0  0  0
 24 12  1  0  0  0  0
 25 24  1  0  0  0  0
 27 24  1  0  0  0  0
 28 27  1  0  0  0  0
 29 30  1  0  0  0  0
 29 28  1  0  0  0  0
 30 31  1  0  0  0  0
 31 27  1  0  0  0  0
M  END
>  <minimizedAffinity>
-4.72275972

$$$$

 OpenBabel03242517263D

 31 33  0  0  1  0  0  0  0  0999 V2000
   39.5930   32.0930   39.1160 C   0  0  0  0  0  0  0  0  0  0  0  0
   38.9020   33.2090   39.6760 C   0  0  0  0  0  0  0  0  0  0  0  0
   37.5250   33.0550   39.9200 C   0  0  0  0  0  0  0  0  0  0  0  0
   36.9430   31.8710   39.6130 N   0  0  0  0  0  0  0  0  0  0  0  0
   37.6220   30.8370   39.0850 C   0  0  0  0  0  0  0  0  0  0  0  0
   38.9420   30.9620   38.8430 N   0  0  0  0  0  0  0  0  0  0  0  0
   36.9290   29.6530   38.8020 N   0  0  0  0  0  0  0  0  0  0  0  0
   35.8180   29.6700   37.9030 C   0  0  0  0  0  0  0  0  0  0  0  0
   34.9640   28.4490   37.9690 C   0  0  0  0  0  0  0  0  0  0  0  0
   35.6140   27.2300   38.3200 N   0  0  0  0  0  0  0  0  0  0  0  0
   37.0390   27.3490   38.4210 C   0  0  0  0  0  0  0  0  0  0  0  0
   37.3550   28.3990   39.4370 C   0  0  2  0  0  0  0  0  0  0  0  0
   40.6480   32.1190   38.8950 H   0  0  0  0  0  0  0  0  0  0  0  0
   39.4450   34.1000   39.8850 H   0  0  0  0  0  0  0  0  0  0  0  0
   36.9760   33.8710   40.3400 H   0  0  0  0  0  0  0  0  0  0  0  0
   35.1930   30.5680   38.1780 H   0  0  0  0  0  0  0  0  0  0  0  0
   36.1550   29.8780   36.8610 H   0  0  0  0  0  0  0  0  0  0  0  0
   34.1560   28.6370   38.7170 H   0  0  0  0  0  0  0  0  0  0  0  0
   34.4270   28.3610   36.9920 H   0  0  0  0  0  0  0  0  0  0  0  0
   35.4310   26.5250   37.5700 H   0  0  0  0  0  0  0  0  0  0  0  0
   37.4400   26.3800   38.7840 H   0  0  0  0  0  0  0  0  0  0  0  0
   37.5370   27.5910   37.4730 H   0  0  0  0  0  0  0  0  0  0  0  0
   38.4510   28.4670   39.5820 H   0  0  0  0  0  0  0  0  0  0  0  0
   36.6840   28.1890   40.7520 C   0  0  0  0  0  0  0  0  0  0  0  0
   36.5590   29.1570   41.2410 H   0  0  0  0  0  0  0  0  0  0  0  0
   35.6490   27.7720   40.5730 H   0  0  0  0  0  0  0  0  0  0  0  0
   37.4540   27.1930   41.5600 C   0  0  0  0  0  3  0  0  0  0  0  0
   36.8290   27.0430   42.9460 C   0  0  0  0  0  2  0  0  0  0  0  0
   37.2940   28.2910   43.6800 C   0  0  0  0  0  2  0  0  0  0  0  0
   38.4630   28.8470   42.8980 C   0  0  0  0  0  2  0  0  0  0  0  0
   38.8110   27.7290   41.9220 C   0  0  0  0  0  2  0  0  0  0  0  0
  1  2  1  0  0  0  0
  2 14  1  0  0  0  0
  2  3  2  0  0  0  0
  3 15  1  0  0  0  0
  4  3  1  0  0  0  0
  5  4  2  0  0  0  0
  6  5  1  0  0  0  0
  6  1  2  0  0  0  0
  7  5  1  0  0  0  0
  7 12  1  0  0  0  0
  8  9  1  0  0  0  0
  8 16  1  0  0  0  0
  8  7  1  0  0  0  0
  9 10  1  0  0  0  0
  9 18  1  0  0  0  0
 10 11  1  0  0  0  0
 11 21  1  0  0  0  0
 11 12  1  0  0  0  0
 12 23  1  1  0  0  0
 12 24  1  0  0  0  0
 13  1  1  0  0  0  0
 17  8  1  0  0  0  0
 19  9  1  0  0  0  0
 20 10  1  0  0  0  0
 22 11  1  0  0  0  0
 24 25  1  0  0  0  0
 24 27  1  0  0  0  0
 26 24  1  0  0  0  0
 27 31  1  0  0  0  0
 27 28  1  0  0  0  0
 28 29  1  0  0  0  0
 30 29  1  0  0  0  0
 31 30  1  0  0  0  0
M  END
>  <minimizedAffinity>
-4.70049191

$$$$

 OpenBabel03242517263D

 31 33  0  0  1  0  0  0  0  0999 V2000
   42.2190   31.1290   36.9250 C   0  0  0  0  0  0  0  0  0  0  0  0
   43.4580   31.2860   37.6150 C   0  0  0  0  0  0  0  0  0  0  0  0
   43.4130   31.8840   38.8880 C   0  0  0  0  0  0  0  0  0  0  0  0
   42.2100   32.2710   39.3770 N   0  0  0  0  0  0  0  0  0  0  0  0
   41.0580   32.1090   38.7010 C   0  0  0  0  0  0  0  0  0  0  0  0
   41.0790   31.5390   37.4800 N   0  0  0  0  0  0  0  0  0  0  0  0
   39.8660   32.5430   39.2930 N   0  0  0  0  0  0  0  0  0  0  0  0
   39.7100   33.9130   39.6710 C   0  0  0  0  0  0  0  0  0  0  0  0
   38.5680   34.1610   40.5980 C   0  0  0  0  0  0  0  0  0  0  0  0
   37.4440   33.2940   40.4780 N   0  0  0  0  0  0  0  0  0  0  0  0
   37.5350   32.3890   39.3680 C   0  0  0  0  0  0  0  0  0  0  0  0
   38.7810   31.5780   39.5200 C   0  0  2  0  0  0  0  0  0  0  0  0
   42.1570   30.6830   35.9450 H   0  0  0  0  0  0  0  0  0  0  0  0
   44.3540   30.9500   37.1490 H   0  0  0  0  0  0  0  0  0  0  0  0
   44.3230   32.0160   39.4340 H   0  0  0  0  0  0  0  0  0  0  0  0
   40.6690   34.2190   40.1830 H   0  0  0  0  0  0  0  0  0  0  0  0
   39.6570   34.5680   38.7720 H   0  0  0  0  0  0  0  0  0  0  0  0
   38.9530   34.0830   41.6440 H   0  0  0  0  0  0  0  0  0  0  0  0
   38.2720   35.2330   40.4880 H   0  0  0  0  0  0  0  0  0  0  0  0
   36.5890   33.8730   40.3140 H   0  0  0  0  0  0  0  0  0  0  0  0
   36.6640   31.7020   39.4130 H   0  0  0  0  0  0  0  0  0  0  0  0
   37.5300   32.8810   38.3880 H   0  0  0  0  0  0  0  0  0  0  0  0
   38.8440   30.8270   38.7090 H   0  0  0  0  0  0  0  0  0  0  0  0
   38.9080   30.9060   40.8440 C   0  0  0  0  0  0  0  0  0  0  0  0
   39.9680   30.7950   41.0830 H   0  0  0  0  0  0  0  0  0  0  0  0
   38.4580   31.5720   41.6390 H   0  0  0  0  0  0  0  0  0  0  0  0
   38.1490   29.6170   40.8320 C   0  0  0  0  0  3  0  0  0  0  0  0
   37.2580   29.5170   42.0700 C   0  0  0  0  0  2  0  0  0  0  0  0
   38.2350   29.1590   43.1790 C   0  0  0  0  0  2  0  0  0  0  0  0
   39.4900   28.6480   42.5070 C   0  0  0  0  0  2  0  0  0  0  0  0
   39.0690   28.4490   41.0560 C   0  0  0  0  0  2  0  0  0  0  0  0
  1  6  2  0  0  0  0
  1  2  1  0  0  0  0
  2  3  2  0  0  0  0
  3  4  1  0  0  0  0
  3 15  1  0  0  0  0
  5  7  1  0  0  0  0
  5  4  2  0  0  0  0
  6  5  1  0  0  0  0
  7 12  1  0  0  0  0
  7  8  1  0  0  0  0
  8 16  1  0  0  0  0
  8  9  1  0  0  0  0
  9 18  1  0  0  0  0
 10  9  1  0  0  0  0
 11 21  1  0  0  0  0
 11 12  1  0  0  0  0
 11 10  1  0  0  0  0
 12 23  1  6  0  0  0
 12 24  1  0  0  0  0
 13  1  1  0  0  0  0
 14  2  1  0  0  0  0
 17  8  1  0  0  0  0
 19  9  1  0  0  0  0
 20 10  1  0  0  0  0
 22 11  1  0  0  0  0
 24 25  1  0  0  0  0
 24 26  1  0  0  0  0
 27 24  1  0  0  0  0
 27 31  1  0  0  0  0
 27 28  1  0  0  0  0
 28 29  1  0  0  0  0
 30 29  1  0  0  0  0
 31 30  1  0  0  0  0
M  END
>  <minimizedAffinity>
-4.5852356

$$$$
