
 OpenBabel03252509323D

 23 24  0  0  0  0  0  0  0  0999 V2000
   37.3010   30.6300   38.9210 C   0  0  0  0  0  0  0  0  0  0  0  0
   37.6200   30.2930   37.8990 H   0  0  0  0  0  0  0  0  0  0  0  0
   36.2350   30.9760   38.7840 H   0  0  0  0  0  0  0  0  0  0  0  0
   40.2410   32.8830   39.2870 C   0  0  0  0  0  0  0  0  0  0  0  0
   39.4700   31.7660   38.9420 C   0  0  0  0  0  0  0  0  0  0  0  0
   38.1170   31.7920   39.2780 C   0  0  0  0  0  0  0  0  0  0  0  0
   37.6130   32.8950   39.9190 N   0  0  0  0  0  0  0  0  0  0  0  0
   38.3970   33.9530   40.2330 C   0  0  0  0  0  0  0  0  0  0  0  0
   39.6940   33.9360   39.9160 N   0  0  0  0  0  0  0  0  0  0  0  0
   41.3020   32.9490   39.0650 H   0  0  0  0  0  0  0  0  0  0  0  0
   39.9540   30.9420   38.4360 H   0  0  0  0  0  0  0  0  0  0  0  0
   37.8130   34.7160   40.7340 H   0  0  0  0  0  0  0  0  0  0  0  0
   37.3660   29.6300   39.8760 O   0  0  0  0  0  0  0  0  0  0  0  0
   34.7850   29.3550   39.5400 O   0  0  0  0  0  0  0  0  0  0  0  0
   35.8300   29.5440   40.5940 P   0  0  2  0  0  0  0  0  0  0  0  0
   35.6250   30.9890   41.4500 O   0  0  0  0  0  0  0  0  0  0  0  0
   35.4600   31.7200   40.8010 H   0  0  0  0  0  0  0  0  0  0  0  0
   35.8070   28.2280   41.6410 O   0  0  0  0  0  0  0  0  0  0  0  0
   37.1080   27.9160   42.0140 C   0  0  0  0  0  3  0  0  0  0  0  0
   37.3880   28.2510   43.4640 C   0  0  0  0  0  2  0  0  0  0  0  0
   38.7050   27.5360   43.6790 C   0  0  0  0  0  2  0  0  0  0  0  0
   38.7000   26.3580   42.7280 C   0  0  0  0  0  2  0  0  0  0  0  0
   37.3290   26.4070   42.0400 C   0  0  0  0  0  2  0  0  0  0  0  0
  1  6  1  0  0  0  0
  1 13  1  0  0  0  0
  2  1  1  0  0  0  0
  3  1  1  0  0  0  0
  4  9  1  0  0  0  0
  5  6  1  0  0  0  0
  5  4  2  0  0  0  0
  6  7  2  0  0  0  0
  7  8  1  0  0  0  0
  8 12  1  0  0  0  0
  9  8  2  0  0  0  0
 10  4  1  0  0  0  0
 11  5  1  0  0  0  0
 13 15  1  0  0  0  0
 15 14  2  6  0  0  0
 15 16  1  0  0  0  0
 15 18  1  0  0  0  0
 17 16  1  0  0  0  0
 18 19  1  0  0  0  0
 19 23  1  0  0  0  0
 19 20  1  0  0  0  0
 20 21  1  0  0  0  0
 22 21  1  0  0  0  0
 23 22  1  0  0  0  0
M  END
>  <minimizedAffinity>
-4.8288908

$$$$

 OpenBabel03252509323D

 23 24  0  0  0  0  0  0  0  0999 V2000
   38.8130   31.1240   38.6400 C   0  0  0  0  0  0  0  0  0  0  0  0
   39.1070   30.2980   37.9400 H   0  0  0  0  0  0  0  0  0  0  0  0
   37.8530   31.5310   38.2090 H   0  0  0  0  0  0  0  0  0  0  0  0
   41.7250   33.0930   37.4160 C   0  0  0  0  0  0  0  0  0  0  0  0
   40.7510   32.0890   37.4970 C   0  0  0  0  0  0  0  0  0  0  0  0
   39.8360   32.1680   38.5460 C   0  0  0  0  0  0  0  0  0  0  0  0
   39.9300   33.2100   39.4320 N   0  0  0  0  0  0  0  0  0  0  0  0
   40.8880   34.1580   39.3140 C   0  0  0  0  0  0  0  0  0  0  0  0
   41.7700   34.0900   38.3140 N   0  0  0  0  0  0  0  0  0  0  0  0
   42.4770   33.1110   36.6330 H   0  0  0  0  0  0  0  0  0  0  0  0
   40.7540   31.3060   36.7510 H   0  0  0  0  0  0  0  0  0  0  0  0
   40.7920   34.8880   40.1090 H   0  0  0  0  0  0  0  0  0  0  0  0
   38.6160   30.6980   39.9430 O   0  0  0  0  0  0  0  0  0  0  0  0
   36.0990   30.4300   39.2810 O   0  0  0  0  0  0  0  0  0  0  0  0
   36.9940   31.0260   40.3210 P   0  0  2  0  0  0  0  0  0  0  0  0
   36.8560   32.7110   40.3980 O   0  0  0  0  0  0  0  0  0  0  0  0
   36.8840   33.0730   39.4770 H   0  0  0  0  0  0  0  0  0  0  0  0
   36.6470   30.3350   41.8150 O   0  0  0  0  0  0  0  0  0  0  0  0
   37.3820   29.1660   41.9600 C   0  0  0  0  0  3  0  0  0  0  0  0
   38.0580   29.0750   43.3130 C   0  0  0  0  0  2  0  0  0  0  0  0
   38.4930   27.6250   43.3250 C   0  0  0  0  0  2  0  0  0  0  0  0
   37.4940   26.8830   42.4610 C   0  0  0  0  0  2  0  0  0  0  0  0
   36.4710   27.9440   42.0340 C   0  0  0  0  0  2  0  0  0  0  0  0
  1 13  1  0  0  0  0
  2  1  1  0  0  0  0
  3  1  1  0  0  0  0
  4  5  2  0  0  0  0
  4  9  1  0  0  0  0
  5  6  1  0  0  0  0
  6  1  1  0  0  0  0
  6  7  2  0  0  0  0
  8  7  1  0  0  0  0
  8 12  1  0  0  0  0
  9  8  2  0  0  0  0
 10  4  1  0  0  0  0
 11  5  1  0  0  0  0
 13 15  1  0  0  0  0
 15 14  2  6  0  0  0
 15 16  1  0  0  0  0
 15 18  1  0  0  0  0
 17 16  1  0  0  0  0
 18 19  1  0  0  0  0
 19 23  1  0  0  0  0
 19 20  1  0  0  0  0
 20 21  1  0  0  0  0
 22 21  1  0  0  0  0
 23 22  1  0  0  0  0
M  END
>  <minimizedAffinity>
-4.68867731

$$$$

 OpenBabel03252509323D

 23 24  0  0  0  0  0  0  0  0999 V2000
   37.2880   30.9790   39.2090 C   0  0  0  0  0  0  0  0  0  0  0  0
   37.2360   31.0540   38.0910 H   0  0  0  0  0  0  0  0  0  0  0  0
   36.2980   31.3870   39.5660 H   0  0  0  0  0  0  0  0  0  0  0  0
   39.0000   34.0350   40.4670 C   0  0  0  0  0  0  0  0  0  0  0  0
   37.9810   33.1780   40.0330 C   0  0  0  0  0  0  0  0  0  0  0  0
   38.3460   31.8850   39.6630 C   0  0  0  0  0  0  0  0  0  0  0  0
   39.6660   31.5190   39.7420 N   0  0  0  0  0  0  0  0  0  0  0  0
   40.6170   32.3810   40.1670 C   0  0  0  0  0  0  0  0  0  0  0  0
   40.2770   33.6230   40.5230 N   0  0  0  0  0  0  0  0  0  0  0  0
   38.8080   35.0600   40.7740 H   0  0  0  0  0  0  0  0  0  0  0  0
   36.9680   33.5550   40.0050 H   0  0  0  0  0  0  0  0  0  0  0  0
   41.5890   31.9020   40.1550 H   0  0  0  0  0  0  0  0  0  0  0  0
   37.4720   29.6850   39.6670 O   0  0  0  0  0  0  0  0  0  0  0  0
   35.9680   28.2240   41.2330 O   0  0  0  0  0  0  0  0  0  0  0  0
   36.6250   29.5650   41.1330 P   0  0  2  0  0  0  0  0  0  0  0  0
   35.5040   30.8320   41.1400 O   0  0  0  0  0  0  0  0  0  0  0  0
   34.7720   30.6090   40.5110 H   0  0  0  0  0  0  0  0  0  0  0  0
   37.7230   29.7400   42.3960 O   0  0  0  0  0  0  0  0  0  0  0  0
   38.5750   28.6440   42.4170 C   0  0  0  0  0  3  0  0  0  0  0  0
   40.0260   29.0440   42.5970 C   0  0  0  0  0  2  0  0  0  0  0  0
   40.6620   27.7060   42.9050 C   0  0  0  0  0  2  0  0  0  0  0  0
   39.5840   26.8750   43.5690 C   0  0  0  0  0  2  0  0  0  0  0  0
   38.3710   27.8080   43.6770 C   0  0  0  0  0  2  0  0  0  0  0  0
  1  3  1  0  0  0  0
  1  6  1  0  0  0  0
  1 13  1  0  0  0  0
  2  1  1  0  0  0  0
  4  9  1  0  0  0  0
  4 10  1  0  0  0  0
  5  4  2  0  0  0  0
  6  7  2  0  0  0  0
  6  5  1  0  0  0  0
  7  8  1  0  0  0  0
  8  9  2  0  0  0  0
 11  5  1  0  0  0  0
 12  8  1  0  0  0  0
 13 15  1  0  0  0  0
 15 16  1  0  0  0  0
 15 14  2  1  0  0  0
 15 18  1  0  0  0  0
 17 16  1  0  0  0  0
 18 19  1  0  0  0  0
 19 20  1  0  0  0  0
 19 23  1  0  0  0  0
 20 21  1  0  0  0  0
 21 22  1  0  0  0  0
 22 23  1  0  0  0  0
M  END
>  <minimizedAffinity>
-4.64283037

$$$$

 OpenBabel03252509323D

 23 24  0  0  0  0  0  0  0  0999 V2000
   37.6230   28.2260   43.2090 C   0  0  0  0  0  0  0  0  0  0  0  0
   38.4520   28.9780   43.1320 H   0  0  0  0  0  0  0  0  0  0  0  0
   37.2580   28.3160   44.2730 H   0  0  0  0  0  0  0  0  0  0  0  0
   39.9880   25.3670   43.5130 C   0  0  0  0  0  0  0  0  0  0  0  0
   39.4290   26.6410   43.6800 C   0  0  0  0  0  0  0  0  0  0  0  0
   38.2170   26.8970   43.0410 C   0  0  0  0  0  0  0  0  0  0  0  0
   37.6370   25.9040   42.2930 N   0  0  0  0  0  0  0  0  0  0  0  0
   38.2140   24.6870   42.1600 C   0  0  0  0  0  0  0  0  0  0  0  0
   39.3750   24.4330   42.7680 N   0  0  0  0  0  0  0  0  0  0  0  0
   40.9290   25.0790   43.9730 H   0  0  0  0  0  0  0  0  0  0  0  0
   39.9580   27.3600   44.2900 H   0  0  0  0  0  0  0  0  0  0  0  0
   37.6020   24.0500   41.5330 H   0  0  0  0  0  0  0  0  0  0  0  0
   36.5860   28.4530   42.3200 O   0  0  0  0  0  0  0  0  0  0  0  0
   38.2840   30.4080   41.9390 O   0  0  0  0  0  0  0  0  0  0  0  0
   37.0350   29.7970   41.3850 P   0  0  2  0  0  0  0  0  0  0  0  0
   35.7240   30.8650   41.4290 O   0  0  0  0  0  0  0  0  0  0  0  0
   35.6930   31.2920   42.3220 H   0  0  0  0  0  0  0  0  0  0  0  0
   37.3230   29.2760   39.8120 O   0  0  0  0  0  0  0  0  0  0  0  0
   36.1110   29.0020   39.1920 C   0  0  0  0  0  3  0  0  0  0  0  0
   35.9520   29.7450   37.8810 C   0  0  0  0  0  2  0  0  0  0  0  0
   34.7520   29.0390   37.2880 C   0  0  0  0  0  2  0  0  0  0  0  0
   34.7830   27.6300   37.8400 C   0  0  0  0  0  2  0  0  0  0  0  0
   36.0580   27.5620   38.6900 C   0  0  0  0  0  2  0  0  0  0  0  0
  1  3  1  0  0  0  0
  2  1  1  0  0  0  0
  4  5  1  0  0  0  0
  4 10  1  0  0  0  0
  5 11  1  0  0  0  0
  6  1  1  0  0  0  0
  6  5  2  0  0  0  0
  7  6  1  0  0  0  0
  8  7  2  0  0  0  0
  8  9  1  0  0  0  0
  9  4  2  0  0  0  0
 12  8  1  0  0  0  0
 13  1  1  0  0  0  0
 15 16  1  0  0  0  0
 15 14  2  1  0  0  0
 15 13  1  0  0  0  0
 16 17  1  0  0  0  0
 18 15  1  0  0  0  0
 19 18  1  0  0  0  0
 20 19  1  0  0  0  0
 21 22  1  0  0  0  0
 21 20  1  0  0  0  0
 22 23  1  0  0  0  0
 23 19  1  0  0  0  0
M  END
>  <minimizedAffinity>
-4.62967968

$$$$

 OpenBabel03252509323D

 23 24  0  0  0  0  0  0  0  0999 V2000
   37.8120   29.5030   39.9110 C   0  0  0  0  0  0  0  0  0  0  0  0
   38.2840   29.1940   38.9410 H   0  0  0  0  0  0  0  0  0  0  0  0
   36.7110   29.3030   39.7670 H   0  0  0  0  0  0  0  0  0  0  0  0
   37.3090   33.1690   39.5060 C   0  0  0  0  0  0  0  0  0  0  0  0
   37.1230   31.7880   39.3650 C   0  0  0  0  0  0  0  0  0  0  0  0
   37.9990   30.9490   40.0510 C   0  0  0  0  0  0  0  0  0  0  0  0
   38.9870   31.5080   40.8220 N   0  0  0  0  0  0  0  0  0  0  0  0
   39.1300   32.8490   40.9290 C   0  0  0  0  0  0  0  0  0  0  0  0
   38.2950   33.6610   40.2750 N   0  0  0  0  0  0  0  0  0  0  0  0
   36.6740   33.8960   39.0090 H   0  0  0  0  0  0  0  0  0  0  0  0
   36.3150   31.4390   38.7360 H   0  0  0  0  0  0  0  0  0  0  0  0
   39.9640   33.0860   41.5790 H   0  0  0  0  0  0  0  0  0  0  0  0
   38.2930   28.8040   41.0060 O   0  0  0  0  0  0  0  0  0  0  0  0
   35.6910   28.5630   41.1460 O   0  0  0  0  0  0  0  0  0  0  0  0
   36.9420   28.3900   41.9480 P   0  0  2  0  0  0  0  0  0  0  0  0
   36.9820   29.4020   43.3030 O   0  0  0  0  0  0  0  0  0  0  0  0
   36.7130   30.3140   43.0260 H   0  0  0  0  0  0  0  0  0  0  0  0
   37.0890   26.7790   42.4080 O   0  0  0  0  0  0  0  0  0  0  0  0
   38.4300   26.4180   42.3880 C   0  0  0  0  0  3  0  0  0  0  0  0
   39.1410   26.7700   43.6800 C   0  0  0  0  0  2  0  0  0  0  0  0
   40.4350   26.0020   43.5190 C   0  0  0  0  0  2  0  0  0  0  0  0
   40.1060   24.8060   42.6500 C   0  0  0  0  0  2  0  0  0  0  0  0
   38.5960   24.9010   42.3970 C   0  0  0  0  0  2  0  0  0  0  0  0
  1  6  1  0  0  0  0
  1 13  1  0  0  0  0
  2  1  1  0  0  0  0
  3  1  1  0  0  0  0
  4  9  1  0  0  0  0
  5  4  2  0  0  0  0
  5  6  1  0  0  0  0
  6  7  2  0  0  0  0
  7  8  1  0  0  0  0
  8 12  1  0  0  0  0
  9  8  2  0  0  0  0
 10  4  1  0  0  0  0
 11  5  1  0  0  0  0
 13 15  1  0  0  0  0
 15 14  2  6  0  0  0
 15 18  1  0  0  0  0
 15 16  1  0  0  0  0
 17 16  1  0  0  0  0
 19 23  1  0  0  0  0
 19 18  1  0  0  0  0
 19 20  1  0  0  0  0
 21 20  1  0  0  0  0
 22 21  1  0  0  0  0
 23 22  1  0  0  0  0
M  END
>  <minimizedAffinity>
-4.61872101

$$$$

 OpenBabel03252509323D

 23 24  0  0  0  0  0  0  0  0999 V2000
   38.4400   30.2380   41.6600 C   0  0  0  0  0  0  0  0  0  0  0  0
   39.1530   30.1270   42.5200 H   0  0  0  0  0  0  0  0  0  0  0  0
   38.7670   29.4520   40.9190 H   0  0  0  0  0  0  0  0  0  0  0  0
   40.1900   33.2990   40.4680 C   0  0  0  0  0  0  0  0  0  0  0  0
   39.9790   32.0400   41.0440 C   0  0  0  0  0  0  0  0  0  0  0  0
   38.6720   31.5540   41.0610 C   0  0  0  0  0  0  0  0  0  0  0  0
   37.6710   32.3210   40.5210 N   0  0  0  0  0  0  0  0  0  0  0  0
   37.9220   33.5330   39.9750 C   0  0  0  0  0  0  0  0  0  0  0  0
   39.1700   34.0070   39.9540 N   0  0  0  0  0  0  0  0  0  0  0  0
   41.1740   33.7560   40.4110 H   0  0  0  0  0  0  0  0  0  0  0  0
   40.8300   31.5070   41.4440 H   0  0  0  0  0  0  0  0  0  0  0  0
   37.0040   33.9750   39.6070 H   0  0  0  0  0  0  0  0  0  0  0  0
   37.1150   30.0480   42.0140 O   0  0  0  0  0  0  0  0  0  0  0  0
   35.8550   28.2270   40.6200 O   0  0  0  0  0  0  0  0  0  0  0  0
   36.7810   28.4000   41.7820 P   0  0  2  0  0  0  0  0  0  0  0  0
   36.1070   27.8440   43.2300 O   0  0  0  0  0  0  0  0  0  0  0  0
   35.1810   28.1880   43.3000 H   0  0  0  0  0  0  0  0  0  0  0  0
   38.2290   27.6060   41.4600 O   0  0  0  0  0  0  0  0  0  0  0  0
   38.2520   26.4000   42.1480 C   0  0  0  0  0  3  0  0  0  0  0  0
   37.6690   25.2620   41.3360 C   0  0  0  0  0  2  0  0  0  0  0  0
   38.1040   24.0660   42.1540 C   0  0  0  0  0  2  0  0  0  0  0  0
   39.3890   24.4760   42.8420 C   0  0  0  0  0  2  0  0  0  0  0  0
   39.6800   25.8930   42.3300 C   0  0  0  0  0  2  0  0  0  0  0  0
  1 13  1  0  0  0  0
  1  2  1  0  0  0  0
  3  1  1  0  0  0  0
  4  5  1  0  0  0  0
  5  6  2  0  0  0  0
  5 11  1  0  0  0  0
  6  1  1  0  0  0  0
  7  6  1  0  0  0  0
  8  7  2  0  0  0  0
  9  8  1  0  0  0  0
  9  4  2  0  0  0  0
 10  4  1  0  0  0  0
 12  8  1  0  0  0  0
 15 14  2  6  0  0  0
 15 13  1  0  0  0  0
 15 16  1  0  0  0  0
 16 17  1  0  0  0  0
 18 15  1  0  0  0  0
 18 19  1  0  0  0  0
 19 23  1  0  0  0  0
 20 19  1  0  0  0  0
 20 21  1  0  0  0  0
 21 22  1  0  0  0  0
 23 22  1  0  0  0  0
M  END
>  <minimizedAffinity>
-4.29083586

$$$$

 OpenBabel03252509323D

 23 24  0  0  0  0  0  0  0  0999 V2000
   39.2730   30.9910   38.1810 C   0  0  0  0  0  0  0  0  0  0  0  0
   39.5040   30.1780   38.9190 H   0  0  0  0  0  0  0  0  0  0  0  0
   38.9270   30.4440   37.2570 H   0  0  0  0  0  0  0  0  0  0  0  0
   41.9260   33.5990   38.0520 C   0  0  0  0  0  0  0  0  0  0  0  0
   40.7190   32.9600   38.3590 C   0  0  0  0  0  0  0  0  0  0  0  0
   40.5320   31.6700   37.8650 C   0  0  0  0  0  0  0  0  0  0  0  0
   41.5260   31.0970   37.1130 N   0  0  0  0  0  0  0  0  0  0  0  0
   42.6780   31.7530   36.8400 C   0  0  0  0  0  0  0  0  0  0  0  0
   42.8650   32.9890   37.3090 N   0  0  0  0  0  0  0  0  0  0  0  0
   42.1570   34.6040   38.3950 H   0  0  0  0  0  0  0  0  0  0  0  0
   39.9930   33.4900   38.9610 H   0  0  0  0  0  0  0  0  0  0  0  0
   43.3280   31.1330   36.2350 H   0  0  0  0  0  0  0  0  0  0  0  0
   38.2980   31.8720   38.6170 O   0  0  0  0  0  0  0  0  0  0  0  0
   36.2850   30.2170   38.8570 O   0  0  0  0  0  0  0  0  0  0  0  0
   37.2820   30.9940   39.6560 P   0  0  2  0  0  0  0  0  0  0  0  0
   36.5460   32.1300   40.6720 O   0  0  0  0  0  0  0  0  0  0  0  0
   35.8600   32.6210   40.1520 H   0  0  0  0  0  0  0  0  0  0  0  0
   38.2290   29.9290   40.5500 O   0  0  0  0  0  0  0  0  0  0  0  0
   37.4590   29.3670   41.5590 C   0  0  0  0  0  3  0  0  0  0  0  0
   37.1660   27.9010   41.3130 C   0  0  0  0  0  2  0  0  0  0  0  0
   36.6230   27.4810   42.6620 C   0  0  0  0  0  2  0  0  0  0  0  0
   37.2820   28.3900   43.6780 C   0  0  0  0  0  2  0  0  0  0  0  0
   38.2430   29.2670   42.8640 C   0  0  0  0  0  2  0  0  0  0  0  0
  1 13  1  0  0  0  0
  1  2  1  0  0  0  0
  3  1  1  0  0  0  0
  4  5  1  0  0  0  0
  4 10  1  0  0  0  0
  5 11  1  0  0  0  0
  6  1  1  0  0  0  0
  6  5  2  0  0  0  0
  7  6  1  0  0  0  0
  8  7  2  0  0  0  0
  8  9  1  0  0  0  0
  9  4  2  0  0  0  0
 12  8  1  0  0  0  0
 13 15  1  0  0  0  0
 15 14  2  6  0  0  0
 15 18  1  0  0  0  0
 15 16  1  0  0  0  0
 17 16  1  0  0  0  0
 18 19  1  0  0  0  0
 19 23  1  0  0  0  0
 20 19  1  0  0  0  0
 20 21  1  0  0  0  0
 21 22  1  0  0  0  0
 23 22  1  0  0  0  0
M  END
>  <minimizedAffinity>
-4.28281212

$$$$

 OpenBabel03252509323D

 23 24  0  0  0  0  0  0  0  0999 V2000
   37.0280   31.2550   38.8350 C   0  0  0  0  0  0  0  0  0  0  0  0
   37.5340   30.3660   38.3730 H   0  0  0  0  0  0  0  0  0  0  0  0
   36.4180   31.7000   37.9960 H   0  0  0  0  0  0  0  0  0  0  0  0
   38.7380   34.1600   40.4130 C   0  0  0  0  0  0  0  0  0  0  0  0
   37.7320   33.2480   40.0710 C   0  0  0  0  0  0  0  0  0  0  0  0
   38.0730   32.2160   39.1990 C   0  0  0  0  0  0  0  0  0  0  0  0
   39.3580   32.1440   38.7250 N   0  0  0  0  0  0  0  0  0  0  0  0
   40.2980   33.0480   39.0830 C   0  0  0  0  0  0  0  0  0  0  0  0
   39.9810   34.0410   39.9180 N   0  0  0  0  0  0  0  0  0  0  0  0
   38.5630   34.9950   41.0860 H   0  0  0  0  0  0  0  0  0  0  0  0
   36.7460   33.3840   40.4950 H   0  0  0  0  0  0  0  0  0  0  0  0
   41.2420   32.8170   38.6030 H   0  0  0  0  0  0  0  0  0  0  0  0
   36.2150   30.9320   39.9080 O   0  0  0  0  0  0  0  0  0  0  0  0
   37.2410   28.6240   39.2240 O   0  0  0  0  0  0  0  0  0  0  0  0
   36.0630   29.2410   39.9090 P   0  0  2  0  0  0  0  0  0  0  0  0
   34.6070   28.8950   39.1200 O   0  0  0  0  0  0  0  0  0  0  0  0
   34.7300   29.0460   38.1490 H   0  0  0  0  0  0  0  0  0  0  0  0
   36.0100   28.7150   41.5060 O   0  0  0  0  0  0  0  0  0  0  0  0
   37.2260   28.1310   41.8360 C   0  0  0  0  0  3  0  0  0  0  0  0
   37.7930   28.6740   43.1320 C   0  0  0  0  0  2  0  0  0  0  0  0
   38.8970   27.6750   43.4080 C   0  0  0  0  0  2  0  0  0  0  0  0
   38.4480   26.3730   42.7800 C   0  0  0  0  0  2  0  0  0  0  0  0
   37.0510   26.6630   42.2150 C   0  0  0  0  0  2  0  0  0  0  0  0
  1  6  1  0  0  0  0
  1 13  1  0  0  0  0
  2  1  1  0  0  0  0
  3  1  1  0  0  0  0
  4 10  1  0  0  0  0
  5  4  1  0  0  0  0
  5 11  1  0  0  0  0
  6  5  2  0  0  0  0
  7  8  2  0  0  0  0
  7  6  1  0  0  0  0
  8  9  1  0  0  0  0
  9  4  2  0  0  0  0
 12  8  1  0  0  0  0
 13 15  1  0  0  0  0
 15 14  2  6  0  0  0
 15 18  1  0  0  0  0
 16 15  1  0  0  0  0
 17 16  1  0  0  0  0
 18 19  1  0  0  0  0
 19 23  1  0  0  0  0
 19 20  1  0  0  0  0
 20 21  1  0  0  0  0
 22 21  1  0  0  0  0
 23 22  1  0  0  0  0
M  END
>  <minimizedAffinity>
-4.26200676

$$$$

 OpenBabel03252509323D

 23 24  0  0  0  0  0  0  0  0999 V2000
   39.0600   27.3290   41.2980 C   0  0  0  0  0  0  0  0  0  0  0  0
   38.7240   28.0920   40.5470 H   0  0  0  0  0  0  0  0  0  0  0  0
   40.0940   27.0330   40.9580 H   0  0  0  0  0  0  0  0  0  0  0  0
   36.5170   24.9810   39.9280 C   0  0  0  0  0  0  0  0  0  0  0  0
   37.3490   26.1000   40.0480 C   0  0  0  0  0  0  0  0  0  0  0  0
   38.1840   26.1620   41.1630 C   0  0  0  0  0  0  0  0  0  0  0  0
   38.1520   25.1370   42.0740 N   0  0  0  0  0  0  0  0  0  0  0  0
   37.3310   24.0730   41.9160 C   0  0  0  0  0  0  0  0  0  0  0  0
   36.5270   24.0060   40.8520 N   0  0  0  0  0  0  0  0  0  0  0  0
   35.8350   24.8490   39.0930 H   0  0  0  0  0  0  0  0  0  0  0  0
   37.3070   26.8590   39.2780 H   0  0  0  0  0  0  0  0  0  0  0  0
   37.4550   23.3800   42.7390 H   0  0  0  0  0  0  0  0  0  0  0  0
   39.0950   27.8100   42.5960 O   0  0  0  0  0  0  0  0  0  0  0  0
   39.2960   30.3970   42.9320 O   0  0  0  0  0  0  0  0  0  0  0  0
   38.3210   29.3210   42.5740 P   0  0  2  0  0  0  0  0  0  0  0  0
   37.0450   29.2160   43.6790 O   0  0  0  0  0  0  0  0  0  0  0  0
   37.4180   29.2390   44.5960 H   0  0  0  0  0  0  0  0  0  0  0  0
   37.7360   29.5950   41.0200 O   0  0  0  0  0  0  0  0  0  0  0  0
   38.0300   30.8990   40.6440 C   0  0  0  0  0  3  0  0  0  0  0  0
   38.7870   30.9640   39.3330 C   0  0  0  0  0  2  0  0  0  0  0  0
   38.6870   32.4400   39.0110 C   0  0  0  0  0  2  0  0  0  0  0  0
   37.3980   32.9180   39.6460 C   0  0  0  0  0  2  0  0  0  0  0  0
   36.7660   31.6630   40.2610 C   0  0  0  0  0  2  0  0  0  0  0  0
  1 13  1  0  0  0  0
  2  1  1  0  0  0  0
  3  1  1  0  0  0  0
  4  5  2  0  0  0  0
  4  9  1  0  0  0  0
  5  6  1  0  0  0  0
  6  1  1  0  0  0  0
  6  7  2  0  0  0  0
  8  7  1  0  0  0  0
  8 12  1  0  0  0  0
  9  8  2  0  0  0  0
 10  4  1  0  0  0  0
 11  5  1  0  0  0  0
 15 13  1  0  0  0  0
 15 14  2  1  0  0  0
 15 16  1  0  0  0  0
 16 17  1  0  0  0  0
 18 15  1  0  0  0  0
 19 18  1  0  0  0  0
 20 19  1  0  0  0  0
 21 20  1  0  0  0  0
 21 22  1  0  0  0  0
 22 23  1  0  0  0  0
 23 19  1  0  0  0  0
M  END
>  <minimizedAffinity>
-4.16172075

$$$$
