
 OpenBabel03242516343D

 40 43  0  0  1  0  0  0  0  0999 V2000
   48.0260   34.6620   41.9650 C   0  0  2  0  0  0  0  0  0  0  0  0
   46.7140   33.8840   42.2470 C   0  0  1  0  0  0  0  0  0  0  0  0
   47.2460   32.6670   42.5610 O   0  0  0  0  0  0  0  0  0  0  0  0
   48.1210   32.3950   41.4900 C   0  0  0  0  0  0  0  0  0  0  0  0
   48.5070   33.7490   40.8580 C   0  0  1  0  0  0  0  0  0  0  0  0
   47.8060   35.6850   41.6410 H   0  0  0  0  0  0  0  0  0  0  0  0
   46.1790   33.9610   41.2790 H   0  0  0  0  0  0  0  0  0  0  0  0
   49.0090   31.8420   41.8160 H   0  0  0  0  0  0  0  0  0  0  0  0
   47.5600   31.8280   40.7330 H   0  0  0  0  0  0  0  0  0  0  0  0
   49.5940   33.8540   40.6980 H   0  0  0  0  0  0  0  0  0  0  0  0
   44.5170   36.0630   44.4570 C   0  0  0  0  0  0  0  0  0  0  0  0
   45.1820   35.6770   43.2900 C   0  0  0  0  0  0  0  0  0  0  0  0
   45.9420   34.5270   43.3180 C   0  0  0  0  0  0  0  0  0  0  0  0
   45.9950   33.8310   44.5050 N   0  0  0  0  0  0  0  0  0  0  0  0
   45.3420   34.2280   45.6120 C   0  0  0  0  0  0  0  0  0  0  0  0
   44.6030   35.3480   45.5830 N   0  0  0  0  0  0  0  0  0  0  0  0
   43.9500   36.9930   44.3010 H   0  0  0  0  0  0  0  0  0  0  0  0
   45.1880   36.1650   42.3340 H   0  0  0  0  0  0  0  0  0  0  0  0
   45.4100   33.6500   46.5290 H   0  0  0  0  0  0  0  0  0  0  0  0
   48.9060   34.5230   43.0010 O   0  0  0  0  0  0  0  0  0  0  0  0
   48.5310   33.8500   43.6380 H   0  0  0  0  0  0  0  0  0  0  0  0
   47.7520   33.9110   39.7350 O   0  0  0  0  0  0  0  0  0  0  0  0
   49.1600   32.9430   38.1120 C   0  0  1  0  0  0  0  0  0  0  0  0
   48.4500   34.3090   38.5960 C   0  0  1  0  0  0  0  0  0  0  0  0
   47.5930   34.4410   37.5670 O   0  0  0  0  0  0  0  0  0  0  0  0
   46.8810   33.2150   37.6840 C   0  0  0  0  0  0  0  0  0  0  0  0
   47.9970   32.2050   37.5300 C   0  0  1  0  0  0  0  0  0  0  0  0
   49.6440   32.5310   38.9750 H   0  0  0  0  0  0  0  0  0  0  0  0
   49.3350   34.9150   38.7720 H   0  0  0  0  0  0  0  0  0  0  0  0
   46.3410   33.1390   38.6300 H   0  0  0  0  0  0  0  0  0  0  0  0
   46.1490   33.1550   36.8390 H   0  0  0  0  0  0  0  0  0  0  0  0
   47.7110   31.3060   38.1120 H   0  0  0  0  0  0  0  0  0  0  0  0
   49.9850   33.3370   37.0550 O   0  0  0  0  0  0  0  0  0  0  0  0
   50.9280   33.3950   37.3300 H   0  0  0  0  0  0  0  0  0  0  0  0
   48.1600   31.9410   36.1850 O   0  0  0  0  0  0  0  0  0  0  0  0
   47.0130   31.5740   35.5260 C   0  0  0  0  0  0  0  0  0  0  0  0
   46.7210   30.0920   35.5500 C   0  0  0  0  0  0  0  0  0  0  0  0
   47.2250   29.5370   34.2450 C   0  0  0  0  0  0  0  0  0  0  0  0
   47.0920   30.6700   33.2760 C   0  0  0  0  0  0  0  0  0  0  0  0
   46.9740   31.9380   34.0630 C   0  0  0  0  0  0  0  0  0  0  0  0
  1  6  1  6  0  0  0
  1  2  1  0  0  0  0
  1 20  1  0  0  0  0
  2  7  1  6  0  0  0
  2  3  1  0  0  0  0
  2 13  1  0  0  0  0
  4  8  1  0  0  0  0
  4  3  1  0  0  0  0
  5 10  1  6  0  0  0
  5  4  1  0  0  0  0
  5  1  1  0  0  0  0
  9  4  1  0  0  0  0
 11 16  1  0  0  0  0
 12 13  1  0  0  0  0
 12 11  2  0  0  0  0
 13 14  2  0  0  0  0
 14 15  1  0  0  0  0
 15 19  1  0  0  0  0
 16 15  2  0  0  0  0
 17 11  1  0  0  0  0
 18 12  1  0  0  0  0
 20 21  1  0  0  0  0
 22  5  1  0  0  0  0
 23 24  1  0  0  0  0
 23 28  1  1  0  0  0
 24 29  1  1  0  0  0
 24 22  1  0  0  0  0
 25 26  1  0  0  0  0
 25 24  1  0  0  0  0
 26 30  1  0  0  0  0
 27 26  1  0  0  0  0
 27 23  1  0  0  0  0
 27 32  1  1  0  0  0
 31 26  1  0  0  0  0
 33 34  1  0  0  0  0
 33 23  1  0  0  0  0
 35 27  1  0  0  0  0
 36 37  1  0  0  0  0
 36 35  1  0  0  0  0
 38 37  1  0  0  0  0
 39 40  1  0  0  0  0
 39 38  1  0  0  0  0
 40 36  1  0  0  0  0
M  END
>  <minimizedAffinity>
-5.38784218

>  <minimizedRMSD>
1.45515203

$$$$
