
 OpenBabel03252509313D

 23 24  0  0  0  0  0  0  0  0999 V2000
   46.1690   32.0860   45.4330 C   0  0  0  0  0  0  0  0  0  0  0  0
   45.2650   31.8830   44.7990 H   0  0  0  0  0  0  0  0  0  0  0  0
   46.9750   31.4300   44.9950 H   0  0  0  0  0  0  0  0  0  0  0  0
   45.7690   32.0290   49.1330 C   0  0  0  0  0  0  0  0  0  0  0  0
   46.0530   32.4970   47.8450 C   0  0  0  0  0  0  0  0  0  0  0  0
   45.8750   31.6070   46.7860 C   0  0  0  0  0  0  0  0  0  0  0  0
   45.4350   30.3360   47.0540 N   0  0  0  0  0  0  0  0  0  0  0  0
   45.1730   29.9270   48.3170 C   0  0  0  0  0  0  0  0  0  0  0  0
   45.3410   30.7720   49.3370 N   0  0  0  0  0  0  0  0  0  0  0  0
   45.8790   32.6520   50.0170 H   0  0  0  0  0  0  0  0  0  0  0  0
   46.3940   33.5170   47.7300 H   0  0  0  0  0  0  0  0  0  0  0  0
   44.8400   28.8960   48.3150 H   0  0  0  0  0  0  0  0  0  0  0  0
   46.5640   33.4130   45.4200 O   0  0  0  0  0  0  0  0  0  0  0  0
   44.6390   35.1770   45.2550 O   0  0  0  0  0  0  0  0  0  0  0  0
   45.4610   34.2390   44.4290 P   0  0  2  0  0  0  0  0  0  0  0  0
   44.5190   33.0520   43.6760 O   0  0  0  0  0  0  0  0  0  0  0  0
   43.8890   32.6780   44.3430 H   0  0  0  0  0  0  0  0  0  0  0  0
   46.3290   35.1180   43.2870 O   0  0  0  0  0  0  0  0  0  0  0  0
   47.1070   34.2480   42.5350 C   0  0  0  0  0  3  0  0  0  0  0  0
   46.9630   34.4860   41.0450 C   0  0  0  0  0  2  0  0  0  0  0  0
   48.1150   33.6660   40.5060 C   0  0  0  0  0  2  0  0  0  0  0  0
   49.1670   33.6580   41.5950 C   0  0  0  0  0  2  0  0  0  0  0  0
   48.5940   34.5430   42.7100 C   0  0  0  0  0  2  0  0  0  0  0  0
  1  6  1  0  0  0  0
  2  1  1  0  0  0  0
  3  1  1  0  0  0  0
  4  9  1  0  0  0  0
  4 10  1  0  0  0  0
  5  4  2  0  0  0  0
  6  7  2  0  0  0  0
  6  5  1  0  0  0  0
  7  8  1  0  0  0  0
  8  9  2  0  0  0  0
 11  5  1  0  0  0  0
 12  8  1  0  0  0  0
 13  1  1  0  0  0  0
 15 14  2  1  0  0  0
 15 13  1  0  0  0  0
 16 17  1  0  0  0  0
 16 15  1  0  0  0  0
 18 15  1  0  0  0  0
 19 23  1  0  0  0  0
 19 18  1  0  0  0  0
 20 19  1  0  0  0  0
 21 20  1  0  0  0  0
 21 22  1  0  0  0  0
 22 23  1  0  0  0  0
M  END
>  <minimizedAffinity>
-4.72201681

>  <minimizedRMSD>
4.91398382

$$$$
