
 OpenBabel03242517003D

 28 30  0  0  0  0  0  0  0  0999 V2000
   46.6470   34.7740   41.9690 C   0  0  0  0  0  0  0  0  0  0  0  0
   47.9400   35.2640   41.9150 C   0  0  0  0  0  0  0  0  0  0  0  0
   48.6660   35.0860   40.7530 C   0  0  0  0  0  0  0  0  0  0  0  0
   48.1070   34.4380   39.6890 C   0  0  0  0  0  0  0  0  0  0  0  0
   46.8340   33.9410   39.7060 C   0  0  0  0  0  0  0  0  0  0  0  0
   46.1140   34.1330   40.8950 C   0  0  0  0  0  0  0  0  0  0  0  0
   48.3870   35.7790   42.7600 H   0  0  0  0  0  0  0  0  0  0  0  0
   49.6780   35.4410   40.6380 H   0  0  0  0  0  0  0  0  0  0  0  0
   48.6760   34.2990   38.7790 H   0  0  0  0  0  0  0  0  0  0  0  0
   46.3550   33.4230   38.8850 H   0  0  0  0  0  0  0  0  0  0  0  0
   44.5130   36.1980   44.7470 C   0  0  0  0  0  0  0  0  0  0  0  0
   45.1660   36.0990   43.5000 C   0  0  0  0  0  0  0  0  0  0  0  0
   45.9260   34.9890   43.2200 C   0  0  0  0  0  0  0  0  0  0  0  0
   46.0040   34.0290   44.1840 N   0  0  0  0  0  0  0  0  0  0  0  0
   45.3840   34.1120   45.3800 C   0  0  0  0  0  0  0  0  0  0  0  0
   44.6290   35.2170   45.6580 N   0  0  0  0  0  0  0  0  0  0  0  0
   43.9130   37.0630   44.9810 H   0  0  0  0  0  0  0  0  0  0  0  0
   45.0880   36.8630   42.7660 H   0  0  0  0  0  0  0  0  0  0  0  0
   45.5120   33.2890   46.0790 H   0  0  0  0  0  0  0  0  0  0  0  0
   43.4920   34.1950   40.8100 C   0  0  0  0  0  0  0  0  0  0  0  0
   43.2430   35.3350   40.3860 O   0  0  0  0  0  0  0  0  0  0  0  0
   44.7860   33.6680   41.0520 N   0  0  0  0  0  0  0  0  0  0  0  0
   44.9610   32.6940   41.4480 H   0  0  0  0  0  0  0  0  0  0  0  0
   42.3930   33.2050   41.1270 C   0  0  0  0  0  3  0  0  0  0  0  0
   42.9050   31.8840   40.5850 C   0  0  0  0  0  2  0  0  0  0  0  0
   42.3160   31.7010   39.2150 C   0  0  0  0  0  2  0  0  0  0  0  0
   41.2990   32.7920   39.0200 C   0  0  0  0  0  2  0  0  0  0  0  0
   41.2140   33.5850   40.2930 C   0  0  0  0  0  2  0  0  0  0  0  0
  1 13  1  0  0  0  0
  2  1  1  0  0  0  0
  2  7  1  0  0  0  0
  3  2  2  0  0  0  0
  4  5  2  0  0  0  0
  4  3  1  0  0  0  0
  5  6  1  0  0  0  0
  6 22  1  0  0  0  0
  6  1  2  0  0  0  0
  8  3  1  0  0  0  0
  9  4  1  0  0  0  0
 10  5  1  0  0  0  0
 11 17  1  0  0  0  0
 11 16  1  0  0  0  0
 12 11  2  0  0  0  0
 13 12  1  0  0  0  0
 13 14  2  0  0  0  0
 14 15  1  0  0  0  0
 15 16  2  0  0  0  0
 15 19  1  0  0  0  0
 18 12  1  0  0  0  0
 20 22  1  0  0  0  0
 20 24  1  0  0  0  0
 21 20  2  0  0  0  0
 22 23  1  0  0  0  0
 25 24  1  0  0  0  0
 26 25  1  0  0  0  0
 27 26  1  0  0  0  0
 27 28  1  0  0  0  0
 28 24  1  0  0  0  0
M  END
>  <minimizedAffinity>
-5.75169611

>  <minimizedRMSD>
1.40564346

$$$$
