
 OpenBabel03252503363D

 18 19  0  0  0  0  0  0  0  0999 V2000
   37.2540   33.1700   39.6620 C   0  0  0  0  0  0  0  0  0  0  0  0
   37.1890   31.7710   39.6790 C   0  0  0  0  0  0  0  0  0  0  0  0
   38.2070   31.0520   40.3030 C   0  0  0  0  0  0  0  0  0  0  0  0
   39.2380   31.7310   40.8800 N   0  0  0  0  0  0  0  0  0  0  0  0
   39.2630   33.0950   40.8420 C   0  0  0  0  0  0  0  0  0  0  0  0
   38.2800   33.8000   40.2380 N   0  0  0  0  0  0  0  0  0  0  0  0
   36.4050   33.5880   39.1490 H   0  0  0  0  0  0  0  0  0  0  0  0
   36.4220   31.1400   39.2540 H   0  0  0  0  0  0  0  0  0  0  0  0
   40.0600   33.6740   41.2860 H   0  0  0  0  0  0  0  0  0  0  0  0
   37.6740   28.9230   41.4690 C   0  0  0  0  0  0  0  0  0  0  0  0
   37.2550   29.6780   42.4140 O   0  0  0  0  0  0  0  0  0  0  0  0
   38.2100   29.6300   40.3600 N   0  0  0  0  0  0  0  0  0  0  0  0
   38.6440   29.1660   39.5080 H   0  0  0  0  0  0  0  0  0  0  0  0
   37.6550   27.4670   41.4160 C   0  0  0  0  0  3  0  0  0  0  0  0
   36.7990   26.8740   40.3210 C   0  0  0  0  0  2  0  0  0  0  0  0
   36.9560   25.3850   40.6630 C   0  0  0  0  0  2  0  0  0  0  0  0
   37.0640   25.3340   42.1860 C   0  0  0  0  0  2  0  0  0  0  0  0
   37.0460   26.8040   42.6240 C   0  0  0  0  0  2  0  0  0  0  0  0
  1  2  2  0  0  0  0
  1  6  1  0  0  0  0
  2  3  1  0  0  0  0
  3 12  1  0  0  0  0
  3  4  2  0  0  0  0
  5  4  1  0  0  0  0
  5  9  1  0  0  0  0
  6  5  2  0  0  0  0
  7  1  1  0  0  0  0
  8  2  1  0  0  0  0
 10 11  2  0  0  0  0
 12 10  1  0  0  0  0
 13 12  1  0  0  0  0
 14 10  1  0  0  0  0
 14 18  1  0  0  0  0
 15 16  1  0  0  0  0
 15 14  1  0  0  0  0
 16 17  1  0  0  0  0
 17 18  1  0  0  0  0
M  END
>  <minimizedAffinity>
-4.16949034

$$$$

 OpenBabel03252503363D

 18 19  0  0  0  0  0  0  0  0999 V2000
   41.2100   32.8770   39.5410 C   0  0  0  0  0  0  0  0  0  0  0  0
   40.4950   31.7070   39.8210 C   0  0  0  0  0  0  0  0  0  0  0  0
   39.2200   31.8060   40.3750 C   0  0  0  0  0  0  0  0  0  0  0  0
   38.7040   33.0420   40.6290 N   0  0  0  0  0  0  0  0  0  0  0  0
   39.4340   34.1590   40.3400 C   0  0  0  0  0  0  0  0  0  0  0  0
   40.6720   34.0700   39.8040 N   0  0  0  0  0  0  0  0  0  0  0  0
   42.1730   32.6470   39.1190 H   0  0  0  0  0  0  0  0  0  0  0  0
   40.8090   30.6860   39.6610 H   0  0  0  0  0  0  0  0  0  0  0  0
   39.0660   35.1570   40.5240 H   0  0  0  0  0  0  0  0  0  0  0  0
   38.4530   30.0690   41.9770 C   0  0  0  0  0  0  0  0  0  0  0  0
   39.2760   30.6170   42.7910 O   0  0  0  0  0  0  0  0  0  0  0  0
   38.4330   30.6620   40.6870 N   0  0  0  0  0  0  0  0  0  0  0  0
   37.8460   30.3080   39.8750 H   0  0  0  0  0  0  0  0  0  0  0  0
   37.5670   28.9400   42.2330 C   0  0  0  0  0  3  0  0  0  0  0  0
   37.4700   28.5150   43.6800 C   0  0  0  0  0  2  0  0  0  0  0  0
   36.5650   27.2840   43.5140 C   0  0  0  0  0  2  0  0  0  0  0  0
   36.9550   26.6790   42.1660 C   0  0  0  0  0  2  0  0  0  0  0  0
   38.0020   27.6450   41.5980 C   0  0  0  0  0  2  0  0  0  0  0  0
  1  6  2  0  0  0  0
  1  2  1  0  0  0  0
  2  3  2  0  0  0  0
  3  4  1  0  0  0  0
  3 12  1  0  0  0  0
  5  9  1  0  0  0  0
  5  4  2  0  0  0  0
  6  5  1  0  0  0  0
  7  1  1  0  0  0  0
  8  2  1  0  0  0  0
 10 14  1  0  0  0  0
 10 11  2  0  0  0  0
 12 10  1  0  0  0  0
 13 12  1  0  0  0  0
 14 15  1  0  0  0  0
 16 15  1  0  0  0  0
 17 16  1  0  0  0  0
 18 17  1  0  0  0  0
 18 14  1  0  0  0  0
M  END
>  <minimizedAffinity>
-4.15629959

$$$$

 OpenBabel03252503363D

 18 19  0  0  0  0  0  0  0  0999 V2000
   40.8650   33.4830   39.3610 C   0  0  0  0  0  0  0  0  0  0  0  0
   40.4010   32.6370   40.3760 C   0  0  0  0  0  0  0  0  0  0  0  0
   39.9540   31.3600   40.0440 C   0  0  0  0  0  0  0  0  0  0  0  0
   39.9820   30.9670   38.7390 N   0  0  0  0  0  0  0  0  0  0  0  0
   40.4430   31.8220   37.7800 C   0  0  0  0  0  0  0  0  0  0  0  0
   40.8780   33.0630   38.0940 N   0  0  0  0  0  0  0  0  0  0  0  0
   41.1760   34.4310   39.7630 H   0  0  0  0  0  0  0  0  0  0  0  0
   40.3360   32.8480   41.4340 H   0  0  0  0  0  0  0  0  0  0  0  0
   40.4840   31.5540   36.7350 H   0  0  0  0  0  0  0  0  0  0  0  0
   38.0960   30.3990   41.3850 C   0  0  0  0  0  0  0  0  0  0  0  0
   37.3720   31.2820   40.8060 O   0  0  0  0  0  0  0  0  0  0  0  0
   39.4670   30.4450   41.0210 N   0  0  0  0  0  0  0  0  0  0  0  0
   40.2180   29.8190   41.4370 H   0  0  0  0  0  0  0  0  0  0  0  0
   37.6690   29.3870   42.3430 C   0  0  0  0  0  3  0  0  0  0  0  0
   38.7540   28.4400   42.8030 C   0  0  0  0  0  2  0  0  0  0  0  0
   37.9090   27.5040   43.6800 C   0  0  0  0  0  2  0  0  0  0  0  0
   36.5450   27.4360   42.9940 C   0  0  0  0  0  2  0  0  0  0  0  0
   36.6610   28.4030   41.8090 C   0  0  0  0  0  2  0  0  0  0  0  0
  1  7  1  0  0  0  0
  1  2  1  0  0  0  0
  2  8  1  0  0  0  0
  3  2  2  0  0  0  0
  3 12  1  0  0  0  0
  4  3  1  0  0  0  0
  5  6  1  0  0  0  0
  5  4  2  0  0  0  0
  6  1  2  0  0  0  0
  9  5  1  0  0  0  0
 10 14  1  0  0  0  0
 11 10  2  0  0  0  0
 12 10  1  0  0  0  0
 12 13  1  0  0  0  0
 14 15  1  0  0  0  0
 15 16  1  0  0  0  0
 17 16  1  0  0  0  0
 18 14  1  0  0  0  0
 18 17  1  0  0  0  0
M  END
>  <minimizedAffinity>
-3.98062968

$$$$

 OpenBabel03252503363D

 18 19  0  0  0  0  0  0  0  0999 V2000
   39.3800   26.4040   42.5340 C   0  0  0  0  0  0  0  0  0  0  0  0
   39.3530   27.7880   42.3200 C   0  0  0  0  0  0  0  0  0  0  0  0
   38.1240   28.4330   42.2080 C   0  0  0  0  0  0  0  0  0  0  0  0
   36.9790   27.7000   42.3100 N   0  0  0  0  0  0  0  0  0  0  0  0
   37.0490   26.3530   42.5210 C   0  0  0  0  0  0  0  0  0  0  0  0
   38.2380   25.7190   42.6300 N   0  0  0  0  0  0  0  0  0  0  0  0
   40.3930   26.0450   42.6000 H   0  0  0  0  0  0  0  0  0  0  0  0
   40.1950   28.4580   42.2230 H   0  0  0  0  0  0  0  0  0  0  0  0
   36.1700   25.7320   42.6080 H   0  0  0  0  0  0  0  0  0  0  0  0
   37.7900   30.3760   40.6950 C   0  0  0  0  0  0  0  0  0  0  0  0
   37.7550   29.5000   39.7620 O   0  0  0  0  0  0  0  0  0  0  0  0
   38.0170   29.8360   41.9880 N   0  0  0  0  0  0  0  0  0  0  0  0
   38.1220   30.4190   42.8710 H   0  0  0  0  0  0  0  0  0  0  0  0
   37.6260   31.8190   40.5680 C   0  0  0  0  0  3  0  0  0  0  0  0
   37.2030   32.3000   39.1990 C   0  0  0  0  0  2  0  0  0  0  0  0
   37.2470   33.8150   39.4450 C   0  0  0  0  0  2  0  0  0  0  0  0
   38.3980   34.0270   40.4280 C   0  0  0  0  0  2  0  0  0  0  0  0
   38.8930   32.6130   40.7540 C   0  0  0  0  0  2  0  0  0  0  0  0
  1  7  1  0  0  0  0
  1  6  1  0  0  0  0
  2  1  2  0  0  0  0
  3  4  2  0  0  0  0
  3  2  1  0  0  0  0
  4  5  1  0  0  0  0
  5  9  1  0  0  0  0
  5  6  2  0  0  0  0
  8  2  1  0  0  0  0
 10 12  1  0  0  0  0
 11 10  2  0  0  0  0
 12  3  1  0  0  0  0
 12 13  1  0  0  0  0
 14 10  1  0  0  0  0
 14 18  1  0  0  0  0
 15 16  1  0  0  0  0
 15 14  1  0  0  0  0
 16 17  1  0  0  0  0
 17 18  1  0  0  0  0
M  END
>  <minimizedAffinity>
-3.94259262

$$$$

 OpenBabel03252503363D

 18 19  0  0  0  0  0  0  0  0999 V2000
   37.2740   32.4380   39.1850 C   0  0  0  0  0  0  0  0  0  0  0  0
   36.7570   31.1730   39.4890 C   0  0  0  0  0  0  0  0  0  0  0  0
   37.3140   30.4470   40.5390 C   0  0  0  0  0  0  0  0  0  0  0  0
   38.3480   30.9880   41.2440 N   0  0  0  0  0  0  0  0  0  0  0  0
   38.8220   32.2260   40.9160 C   0  0  0  0  0  0  0  0  0  0  0  0
   38.2880   32.9360   39.8970 N   0  0  0  0  0  0  0  0  0  0  0  0
   36.7490   32.8790   38.3550 H   0  0  0  0  0  0  0  0  0  0  0  0
   35.9470   30.6540   38.9970 H   0  0  0  0  0  0  0  0  0  0  0  0
   39.6380   32.6940   41.4450 H   0  0  0  0  0  0  0  0  0  0  0  0
   37.4390   27.9690   40.4010 C   0  0  0  0  0  0  0  0  0  0  0  0
   38.3790   28.1760   39.5570 O   0  0  0  0  0  0  0  0  0  0  0  0
   36.8430   29.1540   40.9060 N   0  0  0  0  0  0  0  0  0  0  0  0
   36.0200   29.1710   41.5780 H   0  0  0  0  0  0  0  0  0  0  0  0
   36.9390   26.6860   40.8800 C   0  0  0  0  0  3  0  0  0  0  0  0
   37.6830   26.1070   42.0620 C   0  0  0  0  0  2  0  0  0  0  0  0
   36.9490   24.7640   42.1820 C   0  0  0  0  0  2  0  0  0  0  0  0
   36.5950   24.3720   40.7480 C   0  0  0  0  0  2  0  0  0  0  0  0
   37.0740   25.5530   39.8960 C   0  0  0  0  0  2  0  0  0  0  0  0
  1  2  2  0  0  0  0
  1  6  1  0  0  0  0
  2  3  1  0  0  0  0
  3 12  1  0  0  0  0
  3  4  2  0  0  0  0
  5  4  1  0  0  0  0
  5  9  1  0  0  0  0
  6  5  2  0  0  0  0
  7  1  1  0  0  0  0
  8  2  1  0  0  0  0
 10 14  1  0  0  0  0
 10 12  1  0  0  0  0
 11 10  2  0  0  0  0
 12 13  1  0  0  0  0
 14 15  1  0  0  0  0
 15 16  1  0  0  0  0
 17 16  1  0  0  0  0
 18 17  1  0  0  0  0
 18 14  1  0  0  0  0
M  END
>  <minimizedAffinity>
-3.87481093

$$$$

 OpenBabel03252503363D

 18 19  0  0  0  0  0  0  0  0999 V2000
   33.7590   28.8720   36.3200 C   0  0  0  0  0  0  0  0  0  0  0  0
   34.0910   28.4520   37.6140 C   0  0  0  0  0  0  0  0  0  0  0  0
   35.4250   28.4710   38.0130 C   0  0  0  0  0  0  0  0  0  0  0  0
   36.3730   28.9000   37.1320 N   0  0  0  0  0  0  0  0  0  0  0  0
   36.0080   29.3030   35.8800 C   0  0  0  0  0  0  0  0  0  0  0  0
   34.7150   29.2860   35.4850 N   0  0  0  0  0  0  0  0  0  0  0  0
   32.6980   28.8040   36.1530 H   0  0  0  0  0  0  0  0  0  0  0  0
   33.4220   28.0960   38.3840 H   0  0  0  0  0  0  0  0  0  0  0  0
   36.7240   29.6500   35.1500 H   0  0  0  0  0  0  0  0  0  0  0  0
   35.9210   28.9700   40.3970 C   0  0  0  0  0  0  0  0  0  0  0  0
   35.6520   30.1810   40.0820 O   0  0  0  0  0  0  0  0  0  0  0  0
   35.8380   28.0580   39.3110 N   0  0  0  0  0  0  0  0  0  0  0  0
   36.0730   27.0240   39.3790 H   0  0  0  0  0  0  0  0  0  0  0  0
   36.2870   28.4510   41.7080 C   0  0  0  0  0  3  0  0  0  0  0  0
   37.3330   29.2540   42.4480 C   0  0  0  0  0  2  0  0  0  0  0  0
   37.5090   28.3530   43.6790 C   0  0  0  0  0  2  0  0  0  0  0  0
   37.3120   26.9280   43.1650 C   0  0  0  0  0  2  0  0  0  0  0  0
   36.9510   27.0980   41.6840 C   0  0  0  0  0  2  0  0  0  0  0  0
  1  2  1  0  0  0  0
  2  3  2  0  0  0  0
  2  8  1  0  0  0  0
  3 12  1  0  0  0  0
  4  3  1  0  0  0  0
  5  4  2  0  0  0  0
  6  5  1  0  0  0  0
  6  1  2  0  0  0  0
  7  1  1  0  0  0  0
  9  5  1  0  0  0  0
 10 14  1  0  0  0  0
 11 10  2  0  0  0  0
 12 13  1  0  0  0  0
 12 10  1  0  0  0  0
 14 15  1  0  0  0  0
 15 16  1  0  0  0  0
 17 16  1  0  0  0  0
 18 14  1  0  0  0  0
 18 17  1  0  0  0  0
M  END
>  <minimizedAffinity>
-3.7887311

$$$$

 OpenBabel03252503363D

 18 19  0  0  0  0  0  0  0  0999 V2000
   41.0220   32.2980   38.5450 C   0  0  0  0  0  0  0  0  0  0  0  0
   40.3780   31.2730   39.2500 C   0  0  0  0  0  0  0  0  0  0  0  0
   39.8200   31.5530   40.4950 C   0  0  0  0  0  0  0  0  0  0  0  0
   39.9150   32.8180   40.9940 N   0  0  0  0  0  0  0  0  0  0  0  0
   40.5490   33.7890   40.2740 C   0  0  0  0  0  0  0  0  0  0  0  0
   41.0950   33.5250   39.0650 N   0  0  0  0  0  0  0  0  0  0  0  0
   41.4020   31.9370   37.6050 H   0  0  0  0  0  0  0  0  0  0  0  0
   40.2490   30.2440   38.9480 H   0  0  0  0  0  0  0  0  0  0  0  0
   40.6480   34.8040   40.6290 H   0  0  0  0  0  0  0  0  0  0  0  0
   37.7630   30.3060   41.1190 C   0  0  0  0  0  0  0  0  0  0  0  0
   37.1770   31.0760   40.2820 O   0  0  0  0  0  0  0  0  0  0  0  0
   39.1510   30.5640   41.2700 N   0  0  0  0  0  0  0  0  0  0  0  0
   39.7840   30.0530   41.9550 H   0  0  0  0  0  0  0  0  0  0  0  0
   37.1720   29.2290   41.9040 C   0  0  0  0  0  3  0  0  0  0  0  0
   37.8420   28.9570   43.2310 C   0  0  0  0  0  2  0  0  0  0  0  0
   37.0240   27.7360   43.6750 C   0  0  0  0  0  2  0  0  0  0  0  0
   36.6910   26.9870   42.3860 C   0  0  0  0  0  2  0  0  0  0  0  0
   37.2660   27.8660   41.2690 C   0  0  0  0  0  2  0  0  0  0  0  0
  1  6  2  0  0  0  0
  1  2  1  0  0  0  0
  2  3  2  0  0  0  0
  3  4  1  0  0  0  0
  3 12  1  0  0  0  0
  5  9  1  0  0  0  0
  5  4  2  0  0  0  0
  6  5  1  0  0  0  0
  7  1  1  0  0  0  0
  8  2  1  0  0  0  0
 10 12  1  0  0  0  0
 10 14  1  0  0  0  0
 11 10  2  0  0  0  0
 12 13  1  0  0  0  0
 14 15  1  0  0  0  0
 15 16  1  0  0  0  0
 17 16  1  0  0  0  0
 18 14  1  0  0  0  0
 18 17  1  0  0  0  0
M  END
>  <minimizedAffinity>
-3.78798985

$$$$

 OpenBabel03252503363D

 18 19  0  0  0  0  0  0  0  0999 V2000
   38.1090   24.5540   42.0970 C   0  0  0  0  0  0  0  0  0  0  0  0
   38.3480   25.8650   41.6680 C   0  0  0  0  0  0  0  0  0  0  0  0
   37.6270   26.3680   40.5870 C   0  0  0  0  0  0  0  0  0  0  0  0
   36.7080   25.5690   39.9750 N   0  0  0  0  0  0  0  0  0  0  0  0
   36.5040   24.2960   40.4250 C   0  0  0  0  0  0  0  0  0  0  0  0
   37.2000   23.8010   41.4730 N   0  0  0  0  0  0  0  0  0  0  0  0
   38.7340   24.3040   42.9360 H   0  0  0  0  0  0  0  0  0  0  0  0
   39.0490   26.5770   42.0790 H   0  0  0  0  0  0  0  0  0  0  0  0
   35.7870   23.6280   39.9720 H   0  0  0  0  0  0  0  0  0  0  0  0
   37.0530   28.7860   40.5770 C   0  0  0  0  0  0  0  0  0  0  0  0
   36.1580   28.4610   41.4340 O   0  0  0  0  0  0  0  0  0  0  0  0
   37.8160   27.6900   40.0940 N   0  0  0  0  0  0  0  0  0  0  0  0
   38.5680   27.7680   39.3470 H   0  0  0  0  0  0  0  0  0  0  0  0
   37.3560   30.1170   40.0680 C   0  0  0  0  0  3  0  0  0  0  0  0
   36.6120   31.2480   40.7410 C   0  0  0  0  0  2  0  0  0  0  0  0
   37.1090   32.4180   39.8790 C   0  0  0  0  0  2  0  0  0  0  0  0
   37.2830   31.8360   38.4770 C   0  0  0  0  0  2  0  0  0  0  0  0
   36.9560   30.3460   38.6330 C   0  0  0  0  0  2  0  0  0  0  0  0
  1  7  1  0  0  0  0
  2  8  1  0  0  0  0
  2  1  1  0  0  0  0
  3  2  2  0  0  0  0
  4  5  2  0  0  0  0
  4  3  1  0  0  0  0
  5  6  1  0  0  0  0
  6  1  2  0  0  0  0
  9  5  1  0  0  0  0
 10 11  2  0  0  0  0
 12 10  1  0  0  0  0
 12  3  1  0  0  0  0
 13 12  1  0  0  0  0
 14 10  1  0  0  0  0
 14 15  1  0  0  0  0
 16 15  1  0  0  0  0
 17 18  1  0  0  0  0
 17 16  1  0  0  0  0
 18 14  1  0  0  0  0
M  END
>  <minimizedAffinity>
-3.74139309

$$$$

 OpenBabel03252503363D

 18 19  0  0  0  0  0  0  0  0999 V2000
   38.0540   34.0560   39.9920 C   0  0  0  0  0  0  0  0  0  0  0  0
   37.1920   33.1220   39.4030 C   0  0  0  0  0  0  0  0  0  0  0  0
   37.3300   31.7730   39.7250 C   0  0  0  0  0  0  0  0  0  0  0  0
   38.3000   31.3990   40.6070 N   0  0  0  0  0  0  0  0  0  0  0  0
   39.1190   32.3410   41.1600 C   0  0  0  0  0  0  0  0  0  0  0  0
   38.9920   33.6510   40.8510 N   0  0  0  0  0  0  0  0  0  0  0  0
   37.8320   35.0520   39.6510 H   0  0  0  0  0  0  0  0  0  0  0  0
   36.3970   33.3110   38.6970 H   0  0  0  0  0  0  0  0  0  0  0  0
   39.9000   32.0910   41.8620 H   0  0  0  0  0  0  0  0  0  0  0  0
   36.8090   30.1260   37.9400 C   0  0  0  0  0  0  0  0  0  0  0  0
   37.8640   30.5770   37.3720 O   0  0  0  0  0  0  0  0  0  0  0  0
   36.4920   30.7670   39.1660 N   0  0  0  0  0  0  0  0  0  0  0  0
   35.6290   30.5540   39.7480 H   0  0  0  0  0  0  0  0  0  0  0  0
   35.9330   29.0590   37.4720 C   0  0  0  0  0  3  0  0  0  0  0  0
   35.4200   29.2210   36.0600 C   0  0  0  0  0  2  0  0  0  0  0  0
   34.4880   28.0020   35.9940 C   0  0  0  0  0  2  0  0  0  0  0  0
   33.9250   27.8520   37.4060 C   0  0  0  0  0  2  0  0  0  0  0  0
   34.6310   28.9430   38.2210 C   0  0  0  0  0  2  0  0  0  0  0  0
  1  6  1  0  0  0  0
  2  3  1  0  0  0  0
  2  1  2  0  0  0  0
  3  4  2  0  0  0  0
  4  5  1  0  0  0  0
  5  9  1  0  0  0  0
  6  5  2  0  0  0  0
  7  1  1  0  0  0  0
  8  2  1  0  0  0  0
 10 12  1  0  0  0  0
 11 10  2  0  0  0  0
 12  3  1  0  0  0  0
 12 13  1  0  0  0  0
 14 10  1  0  0  0  0
 14 18  1  0  0  0  0
 15 14  1  0  0  0  0
 16 15  1  0  0  0  0
 16 17  1  0  0  0  0
 17 18  1  0  0  0  0
M  END
>  <minimizedAffinity>
-3.73466539

$$$$
