
 OpenBabel03242519433D

 30 32  0  0  1  0  0  0  0  0999 V2000
   45.5460   33.4220   39.9370 N   0  0  0  0  0  0  0  0  0  0  0  0
   44.1880   33.8820   40.0040 C   0  0  0  0  0  0  0  0  0  0  0  0
   43.2920   33.1540   39.0320 C   0  0  0  0  0  0  0  0  0  0  0  0
   43.7830   33.1120   37.6960 N   0  0  0  0  0  0  0  0  0  0  0  0
   45.1710   33.0830   37.5410 C   0  0  0  0  0  0  0  0  0  0  0  0
   45.9980   32.7830   38.7460 C   0  0  1  0  0  0  0  0  0  0  0  0
   43.8000   33.6140   41.0220 H   0  0  0  0  0  0  0  0  0  0  0  0
   44.0570   34.9600   39.9130 H   0  0  0  0  0  0  0  0  0  0  0  0
   43.1040   32.0970   39.3490 H   0  0  0  0  0  0  0  0  0  0  0  0
   42.2990   33.6450   39.0770 H   0  0  0  0  0  0  0  0  0  0  0  0
   43.2830   32.3810   37.1670 H   0  0  0  0  0  0  0  0  0  0  0  0
   45.4790   32.3870   36.7320 H   0  0  0  0  0  0  0  0  0  0  0  0
   45.4990   34.0980   37.1880 H   0  0  0  0  0  0  0  0  0  0  0  0
   45.8510   31.6850   38.9290 H   0  0  0  0  0  0  0  0  0  0  0  0
   47.9140   34.8040   42.4630 C   0  0  0  0  0  0  0  0  0  0  0  0
   47.0770   34.8010   41.3260 C   0  0  0  0  0  0  0  0  0  0  0  0
   46.4140   33.5990   41.0360 C   0  0  0  0  0  0  0  0  0  0  0  0
   46.6280   32.5210   41.8800 N   0  0  0  0  0  0  0  0  0  0  0  0
   47.4440   32.6000   42.9490 C   0  0  0  0  0  0  0  0  0  0  0  0
   48.0880   33.7410   43.2420 N   0  0  0  0  0  0  0  0  0  0  0  0
   48.3910   35.7820   42.6120 H   0  0  0  0  0  0  0  0  0  0  0  0
   46.9140   35.6380   40.6780 H   0  0  0  0  0  0  0  0  0  0  0  0
   47.5220   31.6960   43.5160 H   0  0  0  0  0  0  0  0  0  0  0  0
   47.3950   33.1330   38.4680 C   0  0  0  0  0  0  0  0  0  0  0  0
   47.6750   34.1570   37.8030 O   0  0  0  0  0  0  0  0  0  0  0  0
   48.8200   32.7660   38.6450 C   0  0  0  0  0  3  0  0  0  0  0  0
   49.5160   32.4580   37.3240 C   0  0  0  0  0  2  0  0  0  0  0  0
   49.2730   30.9860   37.1030 C   0  0  0  0  0  2  0  0  0  0  0  0
   49.6720   30.4720   38.4700 C   0  0  0  0  0  2  0  0  0  0  0  0
   49.0000   31.4650   39.3860 C   0  0  0  0  0  2  0  0  0  0  0  0
  1  2  1  0  0  0  0
  1 17  1  0  0  0  0
  2  7  1  0  0  0  0
  3 10  1  0  0  0  0
  3  9  1  0  0  0  0
  3  2  1  0  0  0  0
  4  3  1  0  0  0  0
  5  4  1  0  0  0  0
  5  6  1  0  0  0  0
  6 14  1  1  0  0  0
  6  1  1  0  0  0  0
  8  2  1  0  0  0  0
 11  4  1  0  0  0  0
 12  5  1  0  0  0  0
 13  5  1  0  0  0  0
 15 21  1  0  0  0  0
 15 20  1  0  0  0  0
 16 15  2  0  0  0  0
 17 16  1  0  0  0  0
 17 18  2  0  0  0  0
 18 19  1  0  0  0  0
 19 20  2  0  0  0  0
 19 23  1  0  0  0  0
 22 16  1  0  0  0  0
 24 26  1  0  0  0  0
 24  6  1  0  0  0  0
 25 24  2  0  0  0  0
 26 30  1  0  0  0  0
 27 26  1  0  0  0  0
 28 27  1  0  0  0  0
 28 29  1  0  0  0  0
 29 30  1  0  0  0  0
M  END
>  <minimizedAffinity>
-3.43808532

>  <minimizedRMSD>
4.54899883

$$$$
