
 OpenBabel03242518553D

 38 40  0  0  1  0  0  0  0  0999 V2000
   45.7570   31.2550   46.6250 C   0  0  2  0  0  0  0  0  0  0  0  0
   45.8160   30.4980   47.9140 C   0  0  0  0  0  0  0  0  0  0  0  0
   45.0340   29.2470   47.7230 C   0  0  0  0  0  0  0  0  0  0  0  0
   44.3450   29.1100   46.4080 C   0  0  0  0  0  0  0  0  0  0  0  0
   45.3310   29.2630   45.2830 C   0  0  0  0  0  0  0  0  0  0  0  0
   46.2620   30.3590   45.5100 C   0  0  2  0  0  0  0  0  0  0  0  0
   44.6940   31.4340   46.3630 H   0  0  0  0  0  0  0  0  0  0  0  0
   45.3480   31.1730   48.6850 H   0  0  0  0  0  0  0  0  0  0  0  0
   46.8470   30.3320   48.2880 H   0  0  0  0  0  0  0  0  0  0  0  0
   44.2020   29.2590   48.4890 H   0  0  0  0  0  0  0  0  0  0  0  0
   45.5820   28.3060   47.9850 H   0  0  0  0  0  0  0  0  0  0  0  0
   43.9160   28.0820   46.3800 H   0  0  0  0  0  0  0  0  0  0  0  0
   43.4690   29.7850   46.3170 H   0  0  0  0  0  0  0  0  0  0  0  0
   44.6990   29.5140   44.3790 H   0  0  0  0  0  0  0  0  0  0  0  0
   45.7380   28.2600   45.0600 H   0  0  0  0  0  0  0  0  0  0  0  0
   46.4230   31.0110   44.6400 H   0  0  0  0  0  0  0  0  0  0  0  0
   47.5560   29.7310   45.8970 C   0  0  0  0  0  0  0  0  0  0  0  0
   47.4860   28.6420   46.1220 H   0  0  0  0  0  0  0  0  0  0  0  0
   47.8950   30.1980   46.8450 H   0  0  0  0  0  0  0  0  0  0  0  0
   48.6670   29.8600   44.8970 C   0  0  0  0  0  3  0  0  0  0  0  0
   48.8710   28.6180   44.0640 C   0  0  0  0  0  2  0  0  0  0  0  0
   49.9400   29.1660   43.1130 C   0  0  0  0  0  2  0  0  0  0  0  0
   49.2700   30.4600   42.6830 C   0  0  0  0  0  2  0  0  0  0  0  0
   48.2820   30.8190   43.7630 C   0  0  0  0  0  2  0  0  0  0  0  0
   46.4500   32.5670   46.6590 C   0  0  0  0  0  0  0  0  0  0  0  0
   47.3800   32.8320   47.4540 O   0  0  0  0  0  0  0  0  0  0  0  0
   44.6000   35.3440   45.1660 C   0  0  0  0  0  0  0  0  0  0  0  0
   45.1340   35.4570   43.8560 C   0  0  0  0  0  0  0  0  0  0  0  0
   46.1360   34.5630   43.5220 C   0  0  0  0  0  0  0  0  0  0  0  0
   46.4740   33.7020   44.4820 N   0  0  0  0  0  0  0  0  0  0  0  0
   45.9890   33.5840   45.6970 C   0  0  0  0  0  0  0  0  0  0  0  0
   45.0160   34.4400   46.0460 N   0  0  0  0  0  0  0  0  0  0  0  0
   43.8000   36.0470   45.4520 H   0  0  0  0  0  0  0  0  0  0  0  0
   44.7610   36.2110   43.1740 H   0  0  0  0  0  0  0  0  0  0  0  0
   46.6800   34.6700   42.1810 C   0  0  0  0  0  0  0  0  0  0  0  0
   47.3880   33.5130   41.8700 F   0  0  0  0  0  0  0  0  0  0  0  0
   47.5380   35.7220   42.1810 F   0  0  0  0  0  0  0  0  0  0  0  0
   45.6890   34.7720   41.2110 F   0  0  0  0  0  0  0  0  0  0  0  0
  1  7  1  6  0  0  0
  1 25  1  0  0  0  0
  1  2  1  0  0  0  0
  2  9  1  0  0  0  0
  2  8  1  0  0  0  0
  3  2  1  0  0  0  0
  3 11  1  0  0  0  0
  3 10  1  0  0  0  0
  4  3  1  0  0  0  0
  5  6  1  0  0  0  0
  5  4  1  0  0  0  0
  6 16  1  6  0  0  0
  6 17  1  0  0  0  0
  6  1  1  0  0  0  0
 12  4  1  0  0  0  0
 13  4  1  0  0  0  0
 14  5  1  0  0  0  0
 15  5  1  0  0  0  0
 17 18  1  0  0  0  0
 17 19  1  0  0  0  0
 20 17  1  0  0  0  0
 21 20  1  0  0  0  0
 22 21  1  0  0  0  0
 23 22  1  0  0  0  0
 23 24  1  0  0  0  0
 24 20  1  0  0  0  0
 25 26  2  0  0  0  0
 27 33  1  0  0  0  0
 27 32  1  0  0  0  0
 28 27  2  0  0  0  0
 29 28  1  0  0  0  0
 29 30  2  0  0  0  0
 30 31  1  0  0  0  0
 31 32  2  0  0  0  0
 31 25  1  0  0  0  0
 34 28  1  0  0  0  0
 35 29  1  0  0  0  0
 36 35  1  0  0  0  0
 37 35  1  0  0  0  0
 38 35  1  0  0  0  0
M  END
>  <minimizedAffinity>
-5.21914816

>  <minimizedRMSD>
0.982625008

$$$$
