
 OpenBabel03252505113D

 40 43  0  0  1  0  0  0  0  0999 V2000
   44.5810   35.6000   44.6160 C   0  0  0  0  0  0  0  0  0  0  0  0
   45.2310   35.6000   43.3630 C   0  0  0  0  0  0  0  0  0  0  0  0
   46.3130   34.6770   43.1750 C   0  0  0  0  0  0  0  0  0  0  0  0
   46.6550   33.8540   44.2060 N   0  0  0  0  0  0  0  0  0  0  0  0
   46.0080   33.8930   45.3720 C   0  0  0  0  0  0  0  0  0  0  0  0
   44.9730   34.7580   45.5910 N   0  0  0  0  0  0  0  0  0  0  0  0
   43.7750   36.3180   44.6960 H   0  0  0  0  0  0  0  0  0  0  0  0
   44.9840   36.2320   42.5420 H   0  0  0  0  0  0  0  0  0  0  0  0
   46.4200   32.9820   46.4670 C   0  0  2  0  0  0  0  0  0  0  0  0
   46.9660   31.7540   45.7760 C   0  0  0  0  0  0  0  0  0  0  0  0
   46.0950   30.5630   45.7800 C   0  0  0  0  0  0  0  0  0  0  0  0
   45.8110   30.3010   47.2670 C   0  0  0  0  0  0  0  0  0  0  0  0
   45.0180   31.3600   47.8780 C   0  0  0  0  0  0  0  0  0  0  0  0
   45.3800   32.7320   47.4200 C   0  0  0  0  0  0  0  0  0  0  0  0
   47.2720   33.5170   46.9740 H   0  0  0  0  0  0  0  0  0  0  0  0
   47.2970   31.9660   44.7330 H   0  0  0  0  0  0  0  0  0  0  0  0
   47.8990   31.4680   46.3070 H   0  0  0  0  0  0  0  0  0  0  0  0
   46.7100   29.7000   45.4670 H   0  0  0  0  0  0  0  0  0  0  0  0
   45.1850   30.6030   45.1790 H   0  0  0  0  0  0  0  0  0  0  0  0
   45.1630   29.3980   47.2550 H   0  0  0  0  0  0  0  0  0  0  0  0
   46.7620   30.1280   47.7720 H   0  0  0  0  0  0  0  0  0  0  0  0
   44.2310   31.3970   48.5760 H   0  0  0  0  0  0  0  0  0  0  0  0
   44.6810   33.8740   47.9300 N   0  0  0  0  0  0  0  0  0  0  0  0
   45.0080   34.4300   48.7570 H   0  0  0  0  0  0  0  0  0  0  0  0
   43.8240   34.4070   47.7020 H   0  0  0  0  0  0  0  0  0  0  0  0
   46.9940   34.6510   41.8980 C   0  0  0  0  0  0  0  0  0  0  0  0
   48.1410   35.3850   41.7610 C   0  0  0  0  0  0  0  0  0  0  0  0
   48.7540   35.3190   40.4930 C   0  0  0  0  0  0  0  0  0  0  0  0
   48.1430   34.5330   39.5390 C   0  0  0  0  0  0  0  0  0  0  0  0
   47.0080   33.8080   39.6800 C   0  0  0  0  0  0  0  0  0  0  0  0
   46.4380   33.8920   40.9170 N   0  0  0  0  0  0  0  0  0  0  0  0
   48.5550   35.9740   42.5520 H   0  0  0  0  0  0  0  0  0  0  0  0
   49.6520   35.8880   40.3710 H   0  0  0  0  0  0  0  0  0  0  0  0
   48.7030   34.5620   38.6150 H   0  0  0  0  0  0  0  0  0  0  0  0
   46.4570   33.0470   38.6790 O   0  0  0  0  0  0  0  0  0  0  0  0
   46.7250   33.1620   37.3100 C   0  0  0  0  0  3  0  0  0  0  0  0
   47.5680   31.9900   36.8280 C   0  0  0  0  0  2  0  0  0  0  0  0
   47.3360   32.0800   35.3230 C   0  0  0  0  0  2  0  0  0  0  0  0
   45.8360   32.2750   35.2390 C   0  0  0  0  0  2  0  0  0  0  0  0
   45.4350   32.9070   36.5490 C   0  0  0  0  0  2  0  0  0  0  0  0
  1  7  1  0  0  0  0
  1  6  1  0  0  0  0
  2  1  2  0  0  0  0
  3  2  1  0  0  0  0
  3  4  2  0  0  0  0
  4  5  1  0  0  0  0
  5  6  2  0  0  0  0
  5  9  1  0  0  0  0
  8  2  1  0  0  0  0
  9 15  1  1  0  0  0
  9 14  1  0  0  0  0
 10 11  1  0  0  0  0
 10 17  1  0  0  0  0
 10  9  1  0  0  0  0
 11 12  1  0  0  0  0
 12 21  1  0  0  0  0
 12 13  1  0  0  0  0
 13 22  1  0  0  0  0
 14 13  2  0  0  0  0
 14 23  1  0  0  0  0
 16 10  1  0  0  0  0
 18 11  1  0  0  0  0
 19 11  1  0  0  0  0
 20 12  1  0  0  0  0
 23 24  1  0  0  0  0
 25 23  1  0  0  0  0
 26  3  1  0  0  0  0
 27 26  1  0  0  0  0
 27 32  1  0  0  0  0
 28 27  2  0  0  0  0
 29 30  2  0  0  0  0
 29 28  1  0  0  0  0
 30 31  1  0  0  0  0
 31 26  2  0  0  0  0
 33 28  1  0  0  0  0
 34 29  1  0  0  0  0
 35 30  1  0  0  0  0
 36 35  1  0  0  0  0
 37 36  1  0  0  0  0
 38 37  1  0  0  0  0
 39 38  1  0  0  0  0
 39 40  1  0  0  0  0
 40 36  1  0  0  0  0
M  END
>  <minimizedAffinity>
-7.19478178

>  <minimizedRMSD>
0.751339018

$$$$
