
 OpenBabel03242521443D

 34 36  0  0  1  0  0  0  0  0999 V2000
   45.1570   35.3780   44.3940 C   0  0  0  0  0  0  0  0  0  0  0  0
   46.1300   34.6920   43.6510 C   0  0  0  0  0  0  0  0  0  0  0  0
   46.7620   33.5750   44.2340 C   0  0  0  0  0  0  0  0  0  0  0  0
   46.3970   33.2320   45.4660 N   0  0  0  0  0  0  0  0  0  0  0  0
   45.4540   33.9070   46.1670 C   0  0  0  0  0  0  0  0  0  0  0  0
   44.8310   34.9830   45.6340 N   0  0  0  0  0  0  0  0  0  0  0  0
   46.3410   35.0690   42.6530 H   0  0  0  0  0  0  0  0  0  0  0  0
   45.2040   33.5710   47.1690 H   0  0  0  0  0  0  0  0  0  0  0  0
   48.6560   33.7960   42.6350 C   0  0  2  0  0  0  0  0  0  0  0  0
   47.7620   32.8990   43.4170 C   0  0  2  0  0  0  0  0  0  0  0  0
   47.2100   32.0930   42.3790 O   0  0  0  0  0  0  0  0  0  0  0  0
   48.3300   31.6810   41.6920 C   0  0  0  0  0  0  0  0  0  0  0  0
   49.4210   32.7080   41.8520 C   0  0  1  0  0  0  0  0  0  0  0  0
   48.1360   34.3700   41.8440 H   0  0  0  0  0  0  0  0  0  0  0  0
   48.3670   32.2250   44.0530 H   0  0  0  0  0  0  0  0  0  0  0  0
   48.0760   31.6340   40.6120 H   0  0  0  0  0  0  0  0  0  0  0  0
   48.6590   30.6630   41.9840 H   0  0  0  0  0  0  0  0  0  0  0  0
   50.2770   32.3700   42.4580 H   0  0  0  0  0  0  0  0  0  0  0  0
   49.4530   34.6080   43.3810 O   0  0  0  0  0  0  0  0  0  0  0  0
   49.4020   34.3580   44.3400 H   0  0  0  0  0  0  0  0  0  0  0  0
   49.8590   33.2520   40.6520 O   0  0  0  0  0  0  0  0  0  0  0  0
   49.1340   33.7270   40.1970 H   0  0  0  0  0  0  0  0  0  0  0  0
   44.4960   36.5710   43.7690 C   0  0  0  0  0  0  0  0  0  0  0  0
   44.6060   36.5340   42.6850 H   0  0  0  0  0  0  0  0  0  0  0  0
   43.4380   36.5330   44.1170 H   0  0  0  0  0  0  0  0  0  0  0  0
   45.2710   39.0430   43.7930 C   0  0  0  0  0  0  0  0  0  0  0  0
   44.7830   39.1830   42.6380 O   0  0  0  0  0  0  0  0  0  0  0  0
   45.1110   37.7450   44.3630 N   0  0  0  0  0  0  0  0  0  0  0  0
   45.4890   37.6170   45.3450 H   0  0  0  0  0  0  0  0  0  0  0  0
   45.9660   40.1070   44.5520 C   0  0  0  0  0  3  0  0  0  0  0  0
   45.8690   39.7670   46.0240 C   0  0  0  0  0  2  0  0  0  0  0  0
   44.4850   40.2230   46.4520 C   0  0  0  0  0  2  0  0  0  0  0  0
   44.3040   41.4870   45.6520 C   0  0  0  0  0  2  0  0  0  0  0  0
   45.1510   41.3730   44.4100 C   0  0  0  0  0  2  0  0  0  0  0  0
  1  6  1  0  0  0  0
  2  3  1  0  0  0  0
  2  1  2  0  0  0  0
  3  4  2  0  0  0  0
  4  5  1  0  0  0  0
  5  8  1  0  0  0  0
  6  5  2  0  0  0  0
  7  2  1  0  0  0  0
  9 14  1  6  0  0  0
  9 19  1  0  0  0  0
  9 10  1  0  0  0  0
 10 15  1  1  0  0  0
 10  3  1  0  0  0  0
 11 10  1  0  0  0  0
 12 13  1  0  0  0  0
 12 17  1  0  0  0  0
 12 11  1  0  0  0  0
 13 18  1  1  0  0  0
 13  9  1  0  0  0  0
 16 12  1  0  0  0  0
 19 20  1  0  0  0  0
 21 13  1  0  0  0  0
 22 21  1  0  0  0  0
 23 25  1  0  0  0  0
 23 28  1  0  0  0  0
 23  1  1  0  0  0  0
 24 23  1  0  0  0  0
 26 28  1  0  0  0  0
 26 30  1  0  0  0  0
 27 26  2  0  0  0  0
 28 29  1  0  0  0  0
 30 31  1  0  0  0  0
 31 32  1  0  0  0  0
 33 32  1  0  0  0  0
 34 30  1  0  0  0  0
 34 33  1  0  0  0  0
M  END
>  <minimizedAffinity>
-3.04947352

>  <minimizedRMSD>
0.714715302

$$$$
