
 OpenBabel03252501333D

 20 21  0  0  0  0  0  0  0  0999 V2000
   36.6830   30.5820   40.4980 C   0  0  0  0  0  0  0  0  0  0  0  0
   36.6040   30.0030   39.2450 C   0  0  0  0  0  0  0  0  0  0  0  0
   36.9110   30.8380   38.1690 C   0  0  0  0  0  0  0  0  0  0  0  0
   37.2530   32.1140   38.4270 N   0  0  0  0  0  0  0  0  0  0  0  0
   37.3170   32.6390   39.6710 C   0  0  0  0  0  0  0  0  0  0  0  0
   37.0270   31.8570   40.7310 N   0  0  0  0  0  0  0  0  0  0  0  0
   36.8500   30.3940   37.2000 H   0  0  0  0  0  0  0  0  0  0  0  0
   37.6000   33.6700   39.7980 H   0  0  0  0  0  0  0  0  0  0  0  0
   37.6100   29.2290   42.1810 C   0  0  0  0  0  0  0  0  0  0  0  0
   38.5740   29.4060   41.3650 O   0  0  0  0  0  0  0  0  0  0  0  0
   36.4050   29.8900   41.7450 N   0  0  0  0  0  0  0  0  0  0  0  0
   35.5450   29.8260   42.2880 H   0  0  0  0  0  0  0  0  0  0  0  0
   37.6660   28.4520   43.4340 C   0  0  0  0  0  3  0  0  0  0  0  0
   36.5140   27.4770   43.4210 C   0  0  0  0  0  2  0  0  0  0  0  0
   37.0340   26.3400   42.5730 C   0  0  0  0  0  2  0  0  0  0  0  0
   38.5320   26.3000   42.7800 C   0  0  0  0  0  2  0  0  0  0  0  0
   38.8980   27.6010   43.4730 C   0  0  0  0  0  2  0  0  0  0  0  0
   36.2270   28.6470   39.1720 N   0  0  0  0  0  0  0  0  0  0  0  0
   37.1690   28.2830   38.8880 H   0  0  0  0  0  0  0  0  0  0  0  0
   35.2800   28.2050   39.3570 H   0  0  0  0  0  0  0  0  0  0  0  0
  1  6  1  0  0  0  0
  1 11  1  0  0  0  0
  2  1  2  0  0  0  0
  3  4  2  0  0  0  0
  3  2  1  0  0  0  0
  4  5  1  0  0  0  0
  5  8  1  0  0  0  0
  5  6  2  0  0  0  0
  7  3  1  0  0  0  0
  9 13  1  0  0  0  0
 10  9  2  0  0  0  0
 11  9  1  0  0  0  0
 11 12  1  0  0  0  0
 13 17  1  0  0  0  0
 14 13  1  0  0  0  0
 15 16  1  0  0  0  0
 15 14  1  0  0  0  0
 16 17  1  0  0  0  0
 18  2  1  0  0  0  0
 18 20  1  0  0  0  0
 19 18  1  0  0  0  0
M  END
>  <minimizedAffinity>
-5.00814104

$$$$

 OpenBabel03252501333D

 20 21  0  0  0  0  0  0  0  0999 V2000
   38.1970   31.1620   41.2250 C   0  0  0  0  0  0  0  0  0  0  0  0
   36.9810   31.5290   40.6790 C   0  0  0  0  0  0  0  0  0  0  0  0
   37.0360   32.4680   39.6470 C   0  0  0  0  0  0  0  0  0  0  0  0
   38.2410   32.9350   39.2710 N   0  0  0  0  0  0  0  0  0  0  0  0
   39.4080   32.5490   39.8340 C   0  0  0  0  0  0  0  0  0  0  0  0
   39.3870   31.6420   40.8330 N   0  0  0  0  0  0  0  0  0  0  0  0
   36.0980   32.7530   39.2230 H   0  0  0  0  0  0  0  0  0  0  0  0
   40.3330   32.9670   39.4790 H   0  0  0  0  0  0  0  0  0  0  0  0
   38.6820   28.9200   41.7310 C   0  0  0  0  0  0  0  0  0  0  0  0
   38.7170   28.9610   40.4570 O   0  0  0  0  0  0  0  0  0  0  0  0
   38.3610   30.2030   42.3040 N   0  0  0  0  0  0  0  0  0  0  0  0
   38.2820   30.3230   43.3130 H   0  0  0  0  0  0  0  0  0  0  0  0
   38.9330   27.7300   42.5680 C   0  0  0  0  0  3  0  0  0  0  0  0
   37.9020   27.7200   43.6710 C   0  0  0  0  0  2  0  0  0  0  0  0
   36.6880   27.1200   43.0020 C   0  0  0  0  0  2  0  0  0  0  0  0
   37.2060   26.1700   41.9440 C   0  0  0  0  0  2  0  0  0  0  0  0
   38.6850   26.4750   41.7890 C   0  0  0  0  0  2  0  0  0  0  0  0
   35.8190   30.9300   41.2050 N   0  0  0  0  0  0  0  0  0  0  0  0
   35.6110   30.3330   40.3680 H   0  0  0  0  0  0  0  0  0  0  0  0
   35.3580   31.0800   42.1500 H   0  0  0  0  0  0  0  0  0  0  0  0
  1 11  1  0  0  0  0
  2 18  1  0  0  0  0
  2  1  2  0  0  0  0
  3  2  1  0  0  0  0
  4  3  2  0  0  0  0
  4  5  1  0  0  0  0
  5  6  2  0  0  0  0
  6  1  1  0  0  0  0
  7  3  1  0  0  0  0
  8  5  1  0  0  0  0
  9 11  1  0  0  0  0
  9 13  1  0  0  0  0
 10  9  2  0  0  0  0
 11 12  1  0  0  0  0
 13 14  1  0  0  0  0
 15 14  1  0  0  0  0
 16 15  1  0  0  0  0
 17 16  1  0  0  0  0
 17 13  1  0  0  0  0
 18 20  1  0  0  0  0
 19 18  1  0  0  0  0
M  END
>  <minimizedAffinity>
-4.90536547

$$$$

 OpenBabel03252501333D

 20 21  0  0  0  0  0  0  0  0999 V2000
   36.7380   30.1520   39.7320 C   0  0  0  0  0  0  0  0  0  0  0  0
   36.9700   31.4970   39.5090 C   0  0  0  0  0  0  0  0  0  0  0  0
   37.3110   31.8460   38.2010 C   0  0  0  0  0  0  0  0  0  0  0  0
   37.3860   30.8690   37.2770 N   0  0  0  0  0  0  0  0  0  0  0  0
   37.1510   29.5650   37.5400 C   0  0  0  0  0  0  0  0  0  0  0  0
   36.8190   29.1960   38.7940 N   0  0  0  0  0  0  0  0  0  0  0  0
   37.4910   32.8840   38.0250 H   0  0  0  0  0  0  0  0  0  0  0  0
   37.2300   28.8410   36.7480 H   0  0  0  0  0  0  0  0  0  0  0  0
   37.5790   29.2730   41.7420 C   0  0  0  0  0  0  0  0  0  0  0  0
   38.6250   29.5590   41.0710 O   0  0  0  0  0  0  0  0  0  0  0  0
   36.3720   29.5810   41.0170 N   0  0  0  0  0  0  0  0  0  0  0  0
   35.4550   29.3930   41.4200 H   0  0  0  0  0  0  0  0  0  0  0  0
   37.5510   28.6970   43.1010 C   0  0  0  0  0  3  0  0  0  0  0  0
   36.4880   27.6250   43.1210 C   0  0  0  0  0  2  0  0  0  0  0  0
   37.1920   26.4310   42.5190 C   0  0  0  0  0  2  0  0  0  0  0  0
   38.6540   26.5650   42.8830 C   0  0  0  0  0  2  0  0  0  0  0  0
   38.8330   27.9830   43.3980 C   0  0  0  0  0  2  0  0  0  0  0  0
   36.8430   32.3750   40.6040 N   0  0  0  0  0  0  0  0  0  0  0  0
   35.9600   32.8380   40.2750 H   0  0  0  0  0  0  0  0  0  0  0  0
   37.4720   32.4810   41.4530 H   0  0  0  0  0  0  0  0  0  0  0  0
  1 11  1  0  0  0  0
  2  1  1  0  0  0  0
  2 18  1  0  0  0  0
  3  2  2  0  0  0  0
  4  5  2  0  0  0  0
  4  3  1  0  0  0  0
  5  6  1  0  0  0  0
  6  1  2  0  0  0  0
  7  3  1  0  0  0  0
  8  5  1  0  0  0  0
  9 13  1  0  0  0  0
 10  9  2  0  0  0  0
 11 12  1  0  0  0  0
 11  9  1  0  0  0  0
 13 14  1  0  0  0  0
 13 17  1  0  0  0  0
 15 16  1  0  0  0  0
 15 14  1  0  0  0  0
 16 17  1  0  0  0  0
 18 20  1  0  0  0  0
 19 18  1  0  0  0  0
M  END
>  <minimizedAffinity>
-4.77435684

$$$$

 OpenBabel03252501333D

 20 21  0  0  0  0  0  0  0  0999 V2000
   38.1420   30.7390   41.3150 C   0  0  0  0  0  0  0  0  0  0  0  0
   37.0550   31.4190   40.7970 C   0  0  0  0  0  0  0  0  0  0  0  0
   37.3480   32.4040   39.8520 C   0  0  0  0  0  0  0  0  0  0  0  0
   38.6370   32.6130   39.5250 N   0  0  0  0  0  0  0  0  0  0  0  0
   39.6700   31.9240   40.0580 C   0  0  0  0  0  0  0  0  0  0  0  0
   39.4190   30.9650   40.9730 N   0  0  0  0  0  0  0  0  0  0  0  0
   36.5110   32.9320   39.4500 H   0  0  0  0  0  0  0  0  0  0  0  0
   40.6750   32.1480   39.7450 H   0  0  0  0  0  0  0  0  0  0  0  0
   37.8190   28.4330   41.6240 C   0  0  0  0  0  0  0  0  0  0  0  0
   37.7290   28.5880   40.3610 O   0  0  0  0  0  0  0  0  0  0  0  0
   38.0560   29.6800   42.3060 N   0  0  0  0  0  0  0  0  0  0  0  0
   38.1360   29.7170   43.3210 H   0  0  0  0  0  0  0  0  0  0  0  0
   37.7020   27.1530   42.3510 C   0  0  0  0  0  3  0  0  0  0  0  0
   38.4350   26.1040   41.5500 C   0  0  0  0  0  2  0  0  0  0  0  0
   39.8780   26.3140   41.9450 C   0  0  0  0  0  2  0  0  0  0  0  0
   39.8630   26.8300   43.3680 C   0  0  0  0  0  2  0  0  0  0  0  0
   38.4250   27.2220   43.6600 C   0  0  0  0  0  2  0  0  0  0  0  0
   35.7740   31.0590   41.2620 N   0  0  0  0  0  0  0  0  0  0  0  0
   35.4570   30.5990   40.3750 H   0  0  0  0  0  0  0  0  0  0  0  0
   35.3360   31.2300   42.2140 H   0  0  0  0  0  0  0  0  0  0  0  0
  1 11  1  0  0  0  0
  2 18  1  0  0  0  0
  2  1  2  0  0  0  0
  3  2  1  0  0  0  0
  4  3  2  0  0  0  0
  4  5  1  0  0  0  0
  5  6  2  0  0  0  0
  6  1  1  0  0  0  0
  7  3  1  0  0  0  0
  8  5  1  0  0  0  0
  9 11  1  0  0  0  0
  9 13  1  0  0  0  0
 10  9  2  0  0  0  0
 11 12  1  0  0  0  0
 13 17  1  0  0  0  0
 14 15  1  0  0  0  0
 14 13  1  0  0  0  0
 15 16  1  0  0  0  0
 16 17  1  0  0  0  0
 18 20  1  0  0  0  0
 19 18  1  0  0  0  0
M  END
>  <minimizedAffinity>
-4.65341234

$$$$

 OpenBabel03252501333D

 20 21  0  0  0  0  0  0  0  0999 V2000
   41.5270   32.4600   37.1010 C   0  0  0  0  0  0  0  0  0  0  0  0
   42.3800   31.3860   36.9260 C   0  0  0  0  0  0  0  0  0  0  0  0
   43.7340   31.6420   37.1550 C   0  0  0  0  0  0  0  0  0  0  0  0
   44.0960   32.8850   37.5210 N   0  0  0  0  0  0  0  0  0  0  0  0
   43.2260   33.9070   37.6800 C   0  0  0  0  0  0  0  0  0  0  0  0
   41.9120   33.6910   37.4670 N   0  0  0  0  0  0  0  0  0  0  0  0
   44.3960   30.8150   37.0200 H   0  0  0  0  0  0  0  0  0  0  0  0
   43.5920   34.8750   37.9750 H   0  0  0  0  0  0  0  0  0  0  0  0
   39.4810   31.9700   38.1470 C   0  0  0  0  0  0  0  0  0  0  0  0
   40.3500   31.7320   39.0490 O   0  0  0  0  0  0  0  0  0  0  0  0
   40.0870   32.4070   36.9150 N   0  0  0  0  0  0  0  0  0  0  0  0
   39.5180   32.6210   36.0960 H   0  0  0  0  0  0  0  0  0  0  0  0
   38.0180   31.8330   38.2940 C   0  0  0  0  0  3  0  0  0  0  0  0
   37.4990   31.1250   37.0660 C   0  0  0  0  0  2  0  0  0  0  0  0
   37.7680   29.6690   37.3680 C   0  0  0  0  0  2  0  0  0  0  0  0
   37.6780   29.5170   38.8710 C   0  0  0  0  0  2  0  0  0  0  0  0
   37.6860   30.9260   39.4390 C   0  0  0  0  0  2  0  0  0  0  0  0
   41.8140   30.1540   36.5390 N   0  0  0  0  0  0  0  0  0  0  0  0
   41.9660   29.6680   37.4570 H   0  0  0  0  0  0  0  0  0  0  0  0
   41.3900   29.8770   35.6070 H   0  0  0  0  0  0  0  0  0  0  0  0
  1  6  1  0  0  0  0
  2  1  2  0  0  0  0
  2  3  1  0  0  0  0
  3  4  2  0  0  0  0
  4  5  1  0  0  0  0
  5  8  1  0  0  0  0
  6  5  2  0  0  0  0
  7  3  1  0  0  0  0
  9 13  1  0  0  0  0
  9 10  2  0  0  0  0
 11  1  1  0  0  0  0
 11  9  1  0  0  0  0
 12 11  1  0  0  0  0
 13 17  1  0  0  0  0
 14 15  1  0  0  0  0
 14 13  1  0  0  0  0
 15 16  1  0  0  0  0
 16 17  1  0  0  0  0
 18  2  1  0  0  0  0
 18 19  1  0  0  0  0
 20 18  1  0  0  0  0
M  END
>  <minimizedAffinity>
-4.35647011

$$$$

 OpenBabel03252501333D

 20 21  0  0  0  0  0  0  0  0999 V2000
   37.6420   29.1840   41.2850 C   0  0  0  0  0  0  0  0  0  0  0  0
   36.6500   28.2220   41.2680 C   0  0  0  0  0  0  0  0  0  0  0  0
   36.3850   27.6000   42.4900 C   0  0  0  0  0  0  0  0  0  0  0  0
   37.1000   27.9750   43.5660 N   0  0  0  0  0  0  0  0  0  0  0  0
   38.0640   28.9220   43.5380 C   0  0  0  0  0  0  0  0  0  0  0  0
   38.3420   29.5420   42.3720 N   0  0  0  0  0  0  0  0  0  0  0  0
   35.6190   26.8550   42.4800 H   0  0  0  0  0  0  0  0  0  0  0  0
   38.5930   29.1690   44.4410 H   0  0  0  0  0  0  0  0  0  0  0  0
   37.2320   31.1150   40.0110 C   0  0  0  0  0  0  0  0  0  0  0  0
   36.3450   31.1580   40.9250 O   0  0  0  0  0  0  0  0  0  0  0  0
   38.0700   29.9480   40.1250 N   0  0  0  0  0  0  0  0  0  0  0  0
   38.8170   29.7690   39.4550 H   0  0  0  0  0  0  0  0  0  0  0  0
   37.4240   32.1140   38.9410 C   0  0  0  0  0  3  0  0  0  0  0  0
   37.2320   33.4810   39.5510 C   0  0  0  0  0  2  0  0  0  0  0  0
   38.5710   33.7620   40.1940 C   0  0  0  0  0  2  0  0  0  0  0  0
   39.6080   33.0440   39.3580 C   0  0  0  0  0  2  0  0  0  0  0  0
   38.8390   32.0990   38.4510 C   0  0  0  0  0  2  0  0  0  0  0  0
   36.0080   27.9630   40.0400 N   0  0  0  0  0  0  0  0  0  0  0  0
   35.0880   28.3970   40.3010 H   0  0  0  0  0  0  0  0  0  0  0  0
   36.3900   27.4820   39.1740 H   0  0  0  0  0  0  0  0  0  0  0  0
  1  6  1  0  0  0  0
  2  1  2  0  0  0  0
  2  3  1  0  0  0  0
  3  4  2  0  0  0  0
  5  4  1  0  0  0  0
  5  8  1  0  0  0  0
  6  5  2  0  0  0  0
  7  3  1  0  0  0  0
  9 11  1  0  0  0  0
  9 10  2  0  0  0  0
 11  1  1  0  0  0  0
 12 11  1  0  0  0  0
 13 14  1  0  0  0  0
 13  9  1  0  0  0  0
 14 15  1  0  0  0  0
 16 15  1  0  0  0  0
 17 13  1  0  0  0  0
 17 16  1  0  0  0  0
 18 19  1  0  0  0  0
 18  2  1  0  0  0  0
 20 18  1  0  0  0  0
M  END
>  <minimizedAffinity>
-4.33606291

$$$$

 OpenBabel03252501333D

 20 21  0  0  0  0  0  0  0  0999 V2000
   38.5110   29.0470   42.5320 C   0  0  0  0  0  0  0  0  0  0  0  0
   37.9870   27.9840   43.2450 C   0  0  0  0  0  0  0  0  0  0  0  0
   38.9090   27.0300   43.6800 C   0  0  0  0  0  0  0  0  0  0  0  0
   40.2080   27.2130   43.3790 N   0  0  0  0  0  0  0  0  0  0  0  0
   40.6770   28.2690   42.6780 C   0  0  0  0  0  0  0  0  0  0  0  0
   39.8110   29.2080   42.2450 N   0  0  0  0  0  0  0  0  0  0  0  0
   38.5080   26.2070   44.2300 H   0  0  0  0  0  0  0  0  0  0  0  0
   41.7320   28.3470   42.4780 H   0  0  0  0  0  0  0  0  0  0  0  0
   37.1700   29.7300   40.7280 C   0  0  0  0  0  0  0  0  0  0  0  0
   37.5220   28.5450   40.4160 O   0  0  0  0  0  0  0  0  0  0  0  0
   37.7260   30.1430   41.9920 N   0  0  0  0  0  0  0  0  0  0  0  0
   37.5450   31.0740   42.3670 H   0  0  0  0  0  0  0  0  0  0  0  0
   36.2990   30.6150   39.9300 C   0  0  0  0  0  3  0  0  0  0  0  0
   36.9630   31.9690   39.8600 C   0  0  0  0  0  2  0  0  0  0  0  0
   37.9770   31.7980   38.7530 C   0  0  0  0  0  2  0  0  0  0  0  0
   37.3980   30.7840   37.7910 C   0  0  0  0  0  2  0  0  0  0  0  0
   36.2250   30.1410   38.5100 C   0  0  0  0  0  2  0  0  0  0  0  0
   36.5940   27.9620   43.4620 N   0  0  0  0  0  0  0  0  0  0  0  0
   36.6380   28.1680   44.4900 H   0  0  0  0  0  0  0  0  0  0  0  0
   35.8120   27.7890   42.7670 H   0  0  0  0  0  0  0  0  0  0  0  0
  1  2  1  0  0  0  0
  2 18  1  0  0  0  0
  2  3  2  0  0  0  0
  3  7  1  0  0  0  0
  4  3  1  0  0  0  0
  5  4  2  0  0  0  0
  6  1  2  0  0  0  0
  6  5  1  0  0  0  0
  8  5  1  0  0  0  0
  9 11  1  0  0  0  0
 10  9  2  0  0  0  0
 11 12  1  0  0  0  0
 11  1  1  0  0  0  0
 13  9  1  0  0  0  0
 14 13  1  0  0  0  0
 15 14  1  0  0  0  0
 16 17  1  0  0  0  0
 16 15  1  0  0  0  0
 17 13  1  0  0  0  0
 18 19  1  0  0  0  0
 20 18  1  0  0  0  0
M  END
>  <minimizedAffinity>
-4.31595421

$$$$

 OpenBabel03252501333D

 20 21  0  0  0  0  0  0  0  0999 V2000
   39.2090   29.4100   42.4580 C   0  0  0  0  0  0  0  0  0  0  0  0
   37.9780   28.9080   42.8390 C   0  0  0  0  0  0  0  0  0  0  0  0
   38.0000   27.6690   43.4830 C   0  0  0  0  0  0  0  0  0  0  0  0
   39.1900   27.0720   43.6790 N   0  0  0  0  0  0  0  0  0  0  0  0
   40.3710   27.6000   43.2900 C   0  0  0  0  0  0  0  0  0  0  0  0
   40.3830   28.7950   42.6650 N   0  0  0  0  0  0  0  0  0  0  0  0
   37.0510   27.2780   43.7780 H   0  0  0  0  0  0  0  0  0  0  0  0
   41.2830   27.0620   43.4830 H   0  0  0  0  0  0  0  0  0  0  0  0
   39.2480   30.4680   40.3610 C   0  0  0  0  0  0  0  0  0  0  0  0
   39.0000   29.2480   40.0840 O   0  0  0  0  0  0  0  0  0  0  0  0
   39.4070   30.6790   41.7780 N   0  0  0  0  0  0  0  0  0  0  0  0
   39.6230   31.6020   42.1510 H   0  0  0  0  0  0  0  0  0  0  0  0
   39.3660   31.5720   39.3880 C   0  0  0  0  0  3  0  0  0  0  0  0
   38.3010   31.3720   38.3370 C   0  0  0  0  0  2  0  0  0  0  0  0
   37.0630   31.9440   38.9890 C   0  0  0  0  0  2  0  0  0  0  0  0
   37.5330   33.0470   39.9110 C   0  0  0  0  0  2  0  0  0  0  0  0
   39.0380   32.8830   40.0340 C   0  0  0  0  0  2  0  0  0  0  0  0
   36.8360   29.6800   42.5460 N   0  0  0  0  0  0  0  0  0  0  0  0
   36.6300   29.9560   43.5380 H   0  0  0  0  0  0  0  0  0  0  0  0
   36.3840   29.8770   41.6060 H   0  0  0  0  0  0  0  0  0  0  0  0
  1  6  2  0  0  0  0
  1  2  1  0  0  0  0
  2  3  2  0  0  0  0
  3  4  1  0  0  0  0
  3  7  1  0  0  0  0
  5  8  1  0  0  0  0
  5  4  2  0  0  0  0
  6  5  1  0  0  0  0
  9 11  1  0  0  0  0
 10  9  2  0  0  0  0
 11 12  1  0  0  0  0
 11  1  1  0  0  0  0
 13 17  1  0  0  0  0
 13  9  1  0  0  0  0
 14 15  1  0  0  0  0
 14 13  1  0  0  0  0
 15 16  1  0  0  0  0
 16 17  1  0  0  0  0
 18  2  1  0  0  0  0
 18 19  1  0  0  0  0
 20 18  1  0  0  0  0
M  END
>  <minimizedAffinity>
-4.31484032

$$$$

 OpenBabel03252501333D

 20 21  0  0  0  0  0  0  0  0999 V2000
   37.0960   29.0330   41.4710 C   0  0  0  0  0  0  0  0  0  0  0  0
   36.1760   29.9090   40.9260 C   0  0  0  0  0  0  0  0  0  0  0  0
   36.6460   31.1970   40.6610 C   0  0  0  0  0  0  0  0  0  0  0  0
   37.9290   31.4810   40.9510 N   0  0  0  0  0  0  0  0  0  0  0  0
   38.7960   30.5920   41.4850 C   0  0  0  0  0  0  0  0  0  0  0  0
   38.3710   29.3390   41.7510 N   0  0  0  0  0  0  0  0  0  0  0  0
   35.9380   31.8770   40.2400 H   0  0  0  0  0  0  0  0  0  0  0  0
   39.8080   30.8930   41.6880 H   0  0  0  0  0  0  0  0  0  0  0  0
   37.0380   26.8290   40.6580 C   0  0  0  0  0  0  0  0  0  0  0  0
   37.4010   27.5190   39.6480 O   0  0  0  0  0  0  0  0  0  0  0  0
   36.8120   27.6510   41.8200 N   0  0  0  0  0  0  0  0  0  0  0  0
   36.5020   27.2420   42.7010 H   0  0  0  0  0  0  0  0  0  0  0  0
   36.8580   25.3650   40.6870 C   0  0  0  0  0  3  0  0  0  0  0  0
   38.0160   24.7460   39.9410 C   0  0  0  0  0  2  0  0  0  0  0  0
   39.1220   24.7330   40.9710 C   0  0  0  0  0  2  0  0  0  0  0  0
   38.4510   24.5870   42.3200 C   0  0  0  0  0  2  0  0  0  0  0  0
   36.9730   24.8470   42.0880 C   0  0  0  0  0  2  0  0  0  0  0  0
   34.8710   29.4290   40.6910 N   0  0  0  0  0  0  0  0  0  0  0  0
   34.9440   29.4140   39.6450 H   0  0  0  0  0  0  0  0  0  0  0  0
   34.1130   29.1830   41.3920 H   0  0  0  0  0  0  0  0  0  0  0  0
  1  6  1  0  0  0  0
  1 11  1  0  0  0  0
  2  1  2  0  0  0  0
  3  2  1  0  0  0  0
  3  4  2  0  0  0  0
  4  5  1  0  0  0  0
  5  8  1  0  0  0  0
  5  6  2  0  0  0  0
  7  3  1  0  0  0  0
  9 13  1  0  0  0  0
  9 11  1  0  0  0  0
 10  9  2  0  0  0  0
 11 12  1  0  0  0  0
 13 17  1  0  0  0  0
 14 13  1  0  0  0  0
 14 15  1  0  0  0  0
 15 16  1  0  0  0  0
 17 16  1  0  0  0  0
 18  2  1  0  0  0  0
 18 20  1  0  0  0  0
 19 18  1  0  0  0  0
M  END
>  <minimizedAffinity>
-4.30566835

$$$$
