
 OpenBabel03242517003D

 28 30  0  0  0  0  0  0  0  0999 V2000
   46.3450   34.6100   41.8070 C   0  0  0  0  0  0  0  0  0  0  0  0
   47.7180   34.7530   41.7300 C   0  0  0  0  0  0  0  0  0  0  0  0
   48.3510   34.4240   40.5460 C   0  0  0  0  0  0  0  0  0  0  0  0
   47.6230   33.9700   39.4840 C   0  0  0  0  0  0  0  0  0  0  0  0
   46.2650   33.8160   39.5240 C   0  0  0  0  0  0  0  0  0  0  0  0
   45.6430   34.1550   40.7350 C   0  0  0  0  0  0  0  0  0  0  0  0
   48.2990   35.1140   42.5730 H   0  0  0  0  0  0  0  0  0  0  0  0
   49.4170   34.5100   40.4120 H   0  0  0  0  0  0  0  0  0  0  0  0
   48.1190   33.7130   38.5570 H   0  0  0  0  0  0  0  0  0  0  0  0
   45.6530   33.4600   38.7070 H   0  0  0  0  0  0  0  0  0  0  0  0
   44.5740   36.4200   44.6180 C   0  0  0  0  0  0  0  0  0  0  0  0
   45.1400   36.1840   43.3460 C   0  0  0  0  0  0  0  0  0  0  0  0
   45.7280   34.9710   43.0810 C   0  0  0  0  0  0  0  0  0  0  0  0
   45.7300   34.0480   44.0840 N   0  0  0  0  0  0  0  0  0  0  0  0
   45.1930   34.2610   45.3040 C   0  0  0  0  0  0  0  0  0  0  0  0
   44.6080   35.4690   45.5670 N   0  0  0  0  0  0  0  0  0  0  0  0
   44.1100   37.3670   44.8390 H   0  0  0  0  0  0  0  0  0  0  0  0
   45.1230   36.9220   42.5820 H   0  0  0  0  0  0  0  0  0  0  0  0
   45.2490   33.4580   46.0330 H   0  0  0  0  0  0  0  0  0  0  0  0
   43.1040   34.0800   40.0740 C   0  0  0  0  0  0  0  0  0  0  0  0
   43.1190   34.2780   38.8480 O   0  0  0  0  0  0  0  0  0  0  0  0
   44.2430   34.0430   40.9180 N   0  0  0  0  0  0  0  0  0  0  0  0
   44.1900   33.9030   41.9730 H   0  0  0  0  0  0  0  0  0  0  0  0
   41.8140   33.8470   40.8290 C   0  0  0  0  0  0  0  0  0  0  0  0
   40.7360   33.9000   39.7620 C   0  0  0  0  0  0  0  0  0  0  0  0
   40.1780   35.2930   39.7560 C   0  0  0  0  0  0  0  0  0  0  0  0
   40.7600   36.0120   40.9420 C   0  0  0  0  0  0  0  0  0  0  0  0
   41.6080   35.0360   41.7080 C   0  0  0  0  0  0  0  0  0  0  0  0
  1 13  1  0  0  0  0
  2  1  1  0  0  0  0
  2  7  1  0  0  0  0
  3  2  2  0  0  0  0
  4  5  2  0  0  0  0
  4  3  1  0  0  0  0
  5  6  1  0  0  0  0
  6 22  1  0  0  0  0
  6  1  2  0  0  0  0
  8  3  1  0  0  0  0
  9  4  1  0  0  0  0
 10  5  1  0  0  0  0
 11 17  1  0  0  0  0
 11 16  1  0  0  0  0
 12 11  2  0  0  0  0
 13 12  1  0  0  0  0
 13 14  2  0  0  0  0
 14 15  1  0  0  0  0
 15 16  2  0  0  0  0
 15 19  1  0  0  0  0
 18 12  1  0  0  0  0
 20 24  1  0  0  0  0
 20 22  1  0  0  0  0
 21 20  2  0  0  0  0
 22 23  1  0  0  0  0
 24 28  1  0  0  0  0
 25 24  1  0  0  0  0
 26 25  1  0  0  0  0
 26 27  1  0  0  0  0
 27 28  1  0  0  0  0
M  END
>  <minimizedAffinity>
-5.99127102

>  <minimizedRMSD>
1.18513536

$$$$
