
 OpenBabel03242513443D

 42 45  0  0  0  0  0  0  0  0999 V2000
   47.6760   30.9960   46.0120 C   0  0  0  0  0  0  0  0  0  0  0  0
   46.9600   32.0680   45.5350 C   0  0  0  0  0  0  0  0  0  0  0  0
   45.9790   32.5810   46.3330 C   0  0  0  0  0  0  0  0  0  0  0  0
   45.6720   32.0850   47.5780 C   0  0  0  0  0  0  0  0  0  0  0  0
   44.7980   32.3510   48.5790 N   0  0  0  0  0  0  0  0  0  0  0  0
   44.9840   31.4780   49.6050 C   0  0  0  0  0  0  0  0  0  0  0  0
   45.9860   30.6570   49.2380 N   0  0  0  0  0  0  0  0  0  0  0  0
   46.4130   31.0150   48.0100 C   0  0  0  0  0  0  0  0  0  0  0  0
   47.4150   30.4420   47.2690 C   0  0  0  0  0  0  0  0  0  0  0  0
   48.4640   30.5710   45.3900 H   0  0  0  0  0  0  0  0  0  0  0  0
   45.3980   33.4280   45.9830 H   0  0  0  0  0  0  0  0  0  0  0  0
   44.1200   33.1520   48.4560 H   0  0  0  0  0  0  0  0  0  0  0  0
   44.3910   31.5090   50.5090 H   0  0  0  0  0  0  0  0  0  0  0  0
   47.1920   34.4080   42.7350 C   0  0  0  0  0  0  0  0  0  0  0  0
   47.8160   33.6480   41.7350 C   0  0  0  0  0  0  0  0  0  0  0  0
   48.1400   32.3180   42.0800 C   0  0  0  0  0  0  0  0  0  0  0  0
   47.8520   31.8460   43.3050 N   0  0  0  0  0  0  0  0  0  0  0  0
   47.2520   32.6270   44.2190 C   0  0  0  0  0  0  0  0  0  0  0  0
   46.9180   33.8970   43.9590 N   0  0  0  0  0  0  0  0  0  0  0  0
   46.9150   35.4360   42.5400 H   0  0  0  0  0  0  0  0  0  0  0  0
   48.6210   31.7320   41.3080 H   0  0  0  0  0  0  0  0  0  0  0  0
   48.0820   34.2760   40.4260 C   0  0  0  0  0  0  0  0  0  0  0  0
   48.5840   35.5350   40.7410 F   0  0  0  0  0  0  0  0  0  0  0  0
   46.9030   34.4210   39.7710 F   0  0  0  0  0  0  0  0  0  0  0  0
   48.9910   33.4970   39.7400 F   0  0  0  0  0  0  0  0  0  0  0  0
   48.1280   29.3650   47.7560 O   0  0  0  0  0  0  0  0  0  0  0  0
   49.7830   28.0570   49.2570 O   0  0  0  0  0  0  0  0  0  0  0  0
   49.4480   29.4600   48.8000 P   0  0  2  0  0  0  0  0  0  0  0  0
   48.9250   30.3180   50.1770 O   0  0  0  0  0  0  0  0  0  0  0  0
   48.7410   31.2550   49.8590 H   0  0  0  0  0  0  0  0  0  0  0  0
   50.8020   30.2050   48.1330 O   0  0  0  0  0  0  0  0  0  0  0  0
   51.9210   30.1400   48.9120 C   0  0  0  0  0  0  0  0  0  0  0  0
   51.5890   29.8500   49.9420 H   0  0  0  0  0  0  0  0  0  0  0  0
   52.7200   29.4740   48.5820 H   0  0  0  0  0  0  0  0  0  0  0  0
   52.4390   31.5810   49.0750 C   0  0  0  0  0  0  0  0  0  0  0  0
   52.8100   31.7310   50.1030 H   0  0  0  0  0  0  0  0  0  0  0  0
   51.6680   32.3040   48.7690 H   0  0  0  0  0  0  0  0  0  0  0  0
   53.6230   31.7170   48.1480 C   0  0  0  0  0  0  0  0  0  0  0  0
   54.2100   30.3940   47.7600 C   0  0  0  0  0  0  0  0  0  0  0  0
   55.7130   30.5410   47.7250 C   0  0  0  0  0  0  0  0  0  0  0  0
   56.0150   31.9750   48.1140 C   0  0  0  0  0  0  0  0  0  0  0  0
   54.7490   32.4900   48.7550 C   0  0  0  0  0  0  0  0  0  0  0  0
  1  9  1  0  0  0  0
  2  1  2  0  0  0  0
  2  3  1  0  0  0  0
  3  4  2  0  0  0  0
  4  8  1  0  0  0  0
  4  5  1  0  0  0  0
  5  6  1  0  0  0  0
  6 13  1  0  0  0  0
  7  6  2  0  0  0  0
  8  7  1  0  0  0  0
  9 26  1  0  0  0  0
  9  8  2  0  0  0  0
 10  1  1  0  0  0  0
 11  3  1  0  0  0  0
 12  5  1  0  0  0  0
 14 19  1  0  0  0  0
 15 16  1  0  0  0  0
 15 14  2  0  0  0  0
 16 17  2  0  0  0  0
 17 18  1  0  0  0  0
 18  2  1  0  0  0  0
 19 18  2  0  0  0  0
 20 14  1  0  0  0  0
 21 16  1  0  0  0  0
 22 23  1  0  0  0  0
 22 15  1  0  0  0  0
 24 22  1  0  0  0  0
 25 22  1  0  0  0  0
 26 28  1  0  0  0  0
 28 27  2  1  0  0  0
 28 29  1  0  0  0  0
 30 29  1  0  0  0  0
 31 28  1  0  0  0  0
 31 32  1  0  0  0  0
 32 35  1  0  0  0  0
 32 33  1  0  0  0  0
 34 32  1  0  0  0  0
 35 36  1  0  0  0  0
 37 35  1  0  0  0  0
 38 42  1  0  0  0  0
 38 35  1  0  0  0  0
 39 38  1  0  0  0  0
 40 39  1  0  0  0  0
 40 41  1  0  0  0  0
 41 42  1  0  0  0  0
M  END
>  <minimizedAffinity>
-5.47750473

>  <minimizedRMSD>
1.00923598

$$$$
