
 OpenBabel03242517353D

 19 20  0  0  0  0  0  0  0  0999 V2000
   43.8880   34.8710   41.2370 C   0  0  0  0  0  0  0  0  0  0  0  0
   42.7110   34.5150   40.7710 C   0  0  0  0  0  0  0  0  0  0  0  0
   44.2280   35.8710   43.5220 C   0  0  0  0  0  0  0  0  0  0  0  0
   44.3250   34.8070   42.6190 C   0  0  0  0  0  0  0  0  0  0  0  0
   44.8720   33.6210   43.0740 C   0  0  0  0  0  0  0  0  0  0  0  0
   45.2970   33.5250   44.3780 N   0  0  0  0  0  0  0  0  0  0  0  0
   45.1820   34.5880   45.2190 C   0  0  0  0  0  0  0  0  0  0  0  0
   44.6510   35.7410   44.7850 N   0  0  0  0  0  0  0  0  0  0  0  0
   43.8000   36.7910   43.1600 H   0  0  0  0  0  0  0  0  0  0  0  0
   44.9820   32.7460   42.4290 H   0  0  0  0  0  0  0  0  0  0  0  0
   45.5190   34.4940   46.2370 H   0  0  0  0  0  0  0  0  0  0  0  0
   42.3260   34.6060   39.3320 C   0  0  0  0  0  0  0  0  0  0  0  0
   43.2390   34.9840   38.7970 H   0  0  0  0  0  0  0  0  0  0  0  0
   42.0750   33.6240   38.9330 H   0  0  0  0  0  0  0  0  0  0  0  0
   41.2700   35.6630   39.1120 C   0  0  0  0  0  0  0  0  0  0  0  0
   40.7420   35.5100   37.7180 C   0  0  0  0  0  0  0  0  0  0  0  0
   39.6100   34.5400   37.7990 C   0  0  0  0  0  0  0  0  0  0  0  0
   39.3750   34.2730   39.2760 C   0  0  0  0  0  0  0  0  0  0  0  0
   40.0550   35.4310   39.9740 C   0  0  0  0  0  0  0  0  0  0  0  0
  1  4  1  0  0  0  0
  2  1  2  0  0  0  0
  3  8  1  0  0  0  0
  4  5  1  0  0  0  0
  4  3  2  0  0  0  0
  5  6  2  0  0  0  0
  6  7  1  0  0  0  0
  7 11  1  0  0  0  0
  8  7  2  0  0  0  0
  9  3  1  0  0  0  0
 10  5  1  0  0  0  0
 12  2  1  0  0  0  0
 13 12  1  0  0  0  0
 14 12  1  0  0  0  0
 15 12  1  0  0  0  0
 15 19  1  0  0  0  0
 16 17  1  0  0  0  0
 16 15  1  0  0  0  0
 17 18  1  0  0  0  0
 18 19  1  0  0  0  0
M  END
>  <minimizedAffinity>
-4.84337282

>  <minimizedRMSD>
1.4085958

$$$$
