
 OpenBabel03242517263D

 31 33  0  0  1  0  0  0  0  0999 V2000
   45.0350   34.6670   44.8710 C   0  0  0  0  0  0  0  0  0  0  0  0
   45.9560   34.6090   43.7830 C   0  0  0  0  0  0  0  0  0  0  0  0
   47.0590   33.7480   43.9190 C   0  0  0  0  0  0  0  0  0  0  0  0
   47.1820   33.0320   45.0620 N   0  0  0  0  0  0  0  0  0  0  0  0
   46.2970   33.1080   46.0730 C   0  0  0  0  0  0  0  0  0  0  0  0
   45.2320   33.9270   45.9630 N   0  0  0  0  0  0  0  0  0  0  0  0
   46.5130   32.3270   47.2150 N   0  0  0  0  0  0  0  0  0  0  0  0
   47.7200   32.4750   47.9670 C   0  0  0  0  0  0  0  0  0  0  0  0
   47.9810   31.3590   48.9220 C   0  0  0  0  0  0  0  0  0  0  0  0
   46.8400   30.7070   49.4730 N   0  0  0  0  0  0  0  0  0  0  0  0
   45.5980   31.3300   49.1210 C   0  0  0  0  0  0  0  0  0  0  0  0
   45.4890   31.3590   47.6300 C   0  0  2  0  0  0  0  0  0  0  0  0
   44.1620   35.2980   44.8570 H   0  0  0  0  0  0  0  0  0  0  0  0
   45.7750   35.2100   42.9220 H   0  0  0  0  0  0  0  0  0  0  0  0
   47.7680   33.6790   43.1210 H   0  0  0  0  0  0  0  0  0  0  0  0
   48.5640   32.5210   47.2190 H   0  0  0  0  0  0  0  0  0  0  0  0
   47.7500   33.4650   48.4760 H   0  0  0  0  0  0  0  0  0  0  0  0
   48.5950   30.5920   48.3910 H   0  0  0  0  0  0  0  0  0  0  0  0
   48.6550   31.7530   49.7220 H   0  0  0  0  0  0  0  0  0  0  0  0
   46.9030   30.7460   50.5160 H   0  0  0  0  0  0  0  0  0  0  0  0
   44.7740   30.7020   49.5180 H   0  0  0  0  0  0  0  0  0  0  0  0
   45.4760   32.3440   49.5200 H   0  0  0  0  0  0  0  0  0  0  0  0
   44.5090   31.7780   47.3310 H   0  0  0  0  0  0  0  0  0  0  0  0
   45.6900   30.0310   46.9830 C   0  0  0  0  0  0  0  0  0  0  0  0
   45.9090   30.1850   45.9240 H   0  0  0  0  0  0  0  0  0  0  0  0
   46.5960   29.5330   47.4400 H   0  0  0  0  0  0  0  0  0  0  0  0
   44.5020   29.1580   47.2380 C   0  0  0  0  0  0  0  0  0  0  0  0
   44.9370   27.8590   47.9140 C   0  0  0  0  0  0  0  0  0  0  0  0
   45.5320   27.0500   46.7720 C   0  0  0  0  0  0  0  0  0  0  0  0
   45.0360   27.6770   45.4870 C   0  0  0  0  0  0  0  0  0  0  0  0
   43.9380   28.6280   45.9490 C   0  0  0  0  0  0  0  0  0  0  0  0
  1  6  1  0  0  0  0
  2  3  1  0  0  0  0
  2  1  2  0  0  0  0
  3  4  2  0  0  0  0
  4  5  1  0  0  0  0
  5  7  1  0  0  0  0
  6  5  2  0  0  0  0
  7 12  1  0  0  0  0
  7  8  1  0  0  0  0
  8 17  1  0  0  0  0
  8  9  1  0  0  0  0
  9 10  1  0  0  0  0
  9 19  1  0  0  0  0
 10 20  1  0  0  0  0
 11 10  1  0  0  0  0
 11 21  1  0  0  0  0
 11 22  1  0  0  0  0
 12 23  1  6  0  0  0
 12 11  1  0  0  0  0
 13  1  1  0  0  0  0
 14  2  1  0  0  0  0
 15  3  1  0  0  0  0
 16  8  1  0  0  0  0
 18  9  1  0  0  0  0
 24 27  1  0  0  0  0
 24 26  1  0  0  0  0
 24 12  1  0  0  0  0
 25 24  1  0  0  0  0
 27 28  1  0  0  0  0
 29 28  1  0  0  0  0
 30 31  1  0  0  0  0
 30 29  1  0  0  0  0
 31 27  1  0  0  0  0
M  END
>  <minimizedAffinity>
-5.16287184

>  <minimizedRMSD>
1.03055143

$$$$
