
 OpenBabel03252508343D

 31 33  0  0  1  0  0  0  0  0999 V2000
   44.7750   34.2990   42.1870 N   0  0  0  0  0  0  0  0  0  0  0  0
   45.9250   34.0130   41.3720 C   0  0  1  0  0  0  0  0  0  0  0  0
   45.6390   34.0760   39.9070 C   0  0  0  0  0  0  0  0  0  0  0  0
   44.4080   33.5770   39.4830 N   0  0  0  0  0  0  0  0  0  0  0  0
   43.3240   33.6420   40.3680 C   0  0  0  0  0  0  0  0  0  0  0  0
   43.5870   34.6480   41.4850 C   0  0  0  0  0  0  0  0  0  0  0  0
   46.3350   33.0130   41.6690 H   0  0  0  0  0  0  0  0  0  0  0  0
   46.4660   33.6000   39.3480 H   0  0  0  0  0  0  0  0  0  0  0  0
   45.6960   35.1650   39.6100 H   0  0  0  0  0  0  0  0  0  0  0  0
   44.1300   34.0600   38.5760 H   0  0  0  0  0  0  0  0  0  0  0  0
   43.2330   32.6530   40.9030 H   0  0  0  0  0  0  0  0  0  0  0  0
   42.3360   33.8090   39.9210 H   0  0  0  0  0  0  0  0  0  0  0  0
   43.6470   35.6790   41.0790 H   0  0  0  0  0  0  0  0  0  0  0  0
   42.7400   34.6040   42.2220 H   0  0  0  0  0  0  0  0  0  0  0  0
   44.4990   35.2740   44.3460 C   0  0  0  0  0  0  0  0  0  0  0  0
   44.9390   34.2050   43.5800 C   0  0  0  0  0  0  0  0  0  0  0  0
   45.5140   33.1150   44.2670 C   0  0  0  0  0  0  0  0  0  0  0  0
   45.6120   33.1500   45.6160 N   0  0  0  0  0  0  0  0  0  0  0  0
   45.1720   34.2060   46.3170 C   0  0  0  0  0  0  0  0  0  0  0  0
   44.6260   35.2480   45.6940 N   0  0  0  0  0  0  0  0  0  0  0  0
   44.0450   36.1620   43.9520 H   0  0  0  0  0  0  0  0  0  0  0  0
   45.8380   32.3150   43.6310 H   0  0  0  0  0  0  0  0  0  0  0  0
   45.2960   34.1400   47.3940 H   0  0  0  0  0  0  0  0  0  0  0  0
   46.9760   35.0570   41.6630 C   0  0  0  0  0  0  0  0  0  0  0  0
   47.1710   35.0030   42.7610 H   0  0  0  0  0  0  0  0  0  0  0  0
   46.6190   36.0580   41.4190 H   0  0  0  0  0  0  0  0  0  0  0  0
   48.2960   34.7580   41.0020 C   0  0  0  0  0  3  0  0  0  0  0  0
   49.2700   35.8200   41.5290 C   0  0  0  0  0  2  0  0  0  0  0  0
   49.9370   35.1240   42.6740 C   0  0  0  0  0  2  0  0  0  0  0  0
   50.1780   33.7410   42.1500 C   0  0  0  0  0  2  0  0  0  0  0  0
   48.8790   33.4510   41.4200 C   0  0  0  0  0  2  0  0  0  0  0  0
  1 16  1  0  0  0  0
  2 24  1  0  0  0  0
  2  7  1  1  0  0  0
  2  1  1  0  0  0  0
  3  2  1  0  0  0  0
  4  3  1  0  0  0  0
  4  5  1  0  0  0  0
  5 11  1  0  0  0  0
  5  6  1  0  0  0  0
  6  1  1  0  0  0  0
  6 14  1  0  0  0  0
  8  3  1  0  0  0  0
  9  3  1  0  0  0  0
 10  4  1  0  0  0  0
 12  5  1  0  0  0  0
 13  6  1  0  0  0  0
 15 20  1  0  0  0  0
 16 17  1  0  0  0  0
 16 15  2  0  0  0  0
 17 18  2  0  0  0  0
 18 19  1  0  0  0  0
 19 23  1  0  0  0  0
 20 19  2  0  0  0  0
 21 15  1  0  0  0  0
 22 17  1  0  0  0  0
 24 25  1  0  0  0  0
 26 24  1  0  0  0  0
 27 31  1  0  0  0  0
 27 28  1  0  0  0  0
 27 24  1  0  0  0  0
 28 29  1  0  0  0  0
 30 29  1  0  0  0  0
 31 30  1  0  0  0  0
M  END
>  <minimizedAffinity>
-4.94554472

>  <minimizedRMSD>
1.10849226

$$$$
