
 OpenBabel03242510473D

 18 19  0  0  0  0  0  0  0  0999 V2000
   47.6480   34.9520   42.2120 C   0  0  0  0  0  0  0  0  0  0  0  0
   47.9240   34.0960   43.2900 C   0  0  0  0  0  0  0  0  0  0  0  0
   46.8470   33.6420   44.0550 C   0  0  0  0  0  0  0  0  0  0  0  0
   45.6050   34.0520   43.7160 N   0  0  0  0  0  0  0  0  0  0  0  0
   45.3580   34.8710   42.6820 C   0  0  0  0  0  0  0  0  0  0  0  0
   46.3900   35.3190   41.9320 N   0  0  0  0  0  0  0  0  0  0  0  0
   48.9460   33.7970   43.5180 H   0  0  0  0  0  0  0  0  0  0  0  0
   47.0400   32.9880   44.8810 H   0  0  0  0  0  0  0  0  0  0  0  0
   48.8320   35.4290   41.4000 C   0  0  0  0  0  0  0  0  0  0  0  0
   48.5780   35.3970   40.0740 F   0  0  0  0  0  0  0  0  0  0  0  0
   49.1250   36.7160   41.8540 F   0  0  0  0  0  0  0  0  0  0  0  0
   49.9480   34.6410   41.7250 F   0  0  0  0  0  0  0  0  0  0  0  0
   44.0830   35.2990   42.3240 O   0  0  0  0  0  0  0  0  0  0  0  0
   43.5890   35.2990   41.0150 C   0  0  0  0  0  0  0  0  0  0  0  0
   42.1150   35.6500   41.0700 C   0  0  0  0  0  0  0  0  0  0  0  0
   41.3720   34.3600   41.3520 C   0  0  0  0  0  0  0  0  0  0  0  0
   42.3800   33.2460   41.1680 C   0  0  0  0  0  0  0  0  0  0  0  0
   43.5940   33.8540   40.5170 C   0  0  0  0  0  0  0  0  0  0  0  0
  1  2  1  0  0  0  0
  2  7  1  0  0  0  0
  2  3  2  0  0  0  0
  3  8  1  0  0  0  0
  4  3  1  0  0  0  0
  5  4  2  0  0  0  0
  6  1  2  0  0  0  0
  6  5  1  0  0  0  0
  9 12  1  0  0  0  0
  9 11  1  0  0  0  0
  9  1  1  0  0  0  0
 10  9  1  0  0  0  0
 13  5  1  0  0  0  0
 14 15  1  0  0  0  0
 14 13  1  0  0  0  0
 15 16  1  0  0  0  0
 17 16  1  0  0  0  0
 18 14  1  0  0  0  0
 18 17  1  0  0  0  0
M  END
>  <minimizedAffinity>
-4.80310106

>  <minimizedRMSD>
1.60483181

$$$$
