
 OpenBabel03242518553D

 38 40  0  0  1  0  0  0  0  0999 V2000
   46.1170   31.2810   46.4750 C   0  0  2  0  0  0  0  0  0  0  0  0
   45.0540   30.8250   47.4220 C   0  0  0  0  0  0  0  0  0  0  0  0
   44.7300   29.4170   47.0720 C   0  0  0  0  0  0  0  0  0  0  0  0
   45.4300   28.8710   45.8730 C   0  0  0  0  0  0  0  0  0  0  0  0
   46.9180   29.0210   46.0250 C   0  0  0  0  0  0  0  0  0  0  0  0
   47.2910   30.3240   46.5600 C   0  0  2  0  0  0  0  0  0  0  0  0
   45.7470   31.1590   45.4360 H   0  0  0  0  0  0  0  0  0  0  0  0
   44.1790   31.5130   47.2520 H   0  0  0  0  0  0  0  0  0  0  0  0
   45.3130   30.9740   48.4910 H   0  0  0  0  0  0  0  0  0  0  0  0
   43.6300   29.3880   46.8060 H   0  0  0  0  0  0  0  0  0  0  0  0
   44.7840   28.6940   47.9270 H   0  0  0  0  0  0  0  0  0  0  0  0
   45.1760   27.7870   45.8230 H   0  0  0  0  0  0  0  0  0  0  0  0
   45.0410   29.2970   44.9260 H   0  0  0  0  0  0  0  0  0  0  0  0
   47.3230   28.9400   44.9720 H   0  0  0  0  0  0  0  0  0  0  0  0
   47.2930   28.1140   46.5310 H   0  0  0  0  0  0  0  0  0  0  0  0
   48.1240   30.8120   46.0370 H   0  0  0  0  0  0  0  0  0  0  0  0
   47.6690   30.0950   47.9820 C   0  0  0  0  0  0  0  0  0  0  0  0
   47.4250   29.0770   48.3610 H   0  0  0  0  0  0  0  0  0  0  0  0
   47.0730   30.7860   48.6120 H   0  0  0  0  0  0  0  0  0  0  0  0
   49.1180   30.3050   48.3110 C   0  0  0  0  0  3  0  0  0  0  0  0
   49.3370   31.1440   49.5450 C   0  0  0  0  0  2  0  0  0  0  0  0
   50.8620   31.0190   49.6270 C   0  0  0  0  0  2  0  0  0  0  0  0
   51.0090   29.5110   49.5040 C   0  0  0  0  0  2  0  0  0  0  0  0
   49.7660   29.0090   48.8130 C   0  0  0  0  0  2  0  0  0  0  0  0
   46.5240   32.6980   46.6540 C   0  0  0  0  0  0  0  0  0  0  0  0
   47.2120   33.0970   47.6190 O   0  0  0  0  0  0  0  0  0  0  0  0
   44.6490   35.3320   44.9490 C   0  0  0  0  0  0  0  0  0  0  0  0
   45.2390   35.4040   43.6590 C   0  0  0  0  0  0  0  0  0  0  0  0
   46.2860   34.5330   43.4140 C   0  0  0  0  0  0  0  0  0  0  0  0
   46.6090   33.7300   44.4280 N   0  0  0  0  0  0  0  0  0  0  0  0
   46.0730   33.6510   45.6240 C   0  0  0  0  0  0  0  0  0  0  0  0
   45.0550   34.4860   45.8880 N   0  0  0  0  0  0  0  0  0  0  0  0
   43.8130   36.0170   45.1650 H   0  0  0  0  0  0  0  0  0  0  0  0
   44.8710   36.1120   42.9270 H   0  0  0  0  0  0  0  0  0  0  0  0
   46.8870   34.5990   42.0940 C   0  0  0  0  0  0  0  0  0  0  0  0
   47.6010   33.4300   41.8480 F   0  0  0  0  0  0  0  0  0  0  0  0
   47.7510   35.6460   42.1010 F   0  0  0  0  0  0  0  0  0  0  0  0
   45.9390   34.6770   41.0810 F   0  0  0  0  0  0  0  0  0  0  0  0
  1  7  1  6  0  0  0
  1  6  1  0  0  0  0
  1 25  1  0  0  0  0
  1  2  1  0  0  0  0
  2  9  1  0  0  0  0
  3  2  1  0  0  0  0
  3 11  1  0  0  0  0
  4  5  1  0  0  0  0
  4  3  1  0  0  0  0
  5 15  1  0  0  0  0
  5  6  1  0  0  0  0
  6 16  1  6  0  0  0
  6 17  1  0  0  0  0
  8  2  1  0  0  0  0
 10  3  1  0  0  0  0
 12  4  1  0  0  0  0
 13  4  1  0  0  0  0
 14  5  1  0  0  0  0
 17 20  1  0  0  0  0
 17 18  1  0  0  0  0
 17 19  1  0  0  0  0
 20 24  1  0  0  0  0
 20 21  1  0  0  0  0
 21 22  1  0  0  0  0
 23 22  1  0  0  0  0
 24 23  1  0  0  0  0
 25 26  2  0  0  0  0
 27 33  1  0  0  0  0
 27 32  1  0  0  0  0
 28 27  2  0  0  0  0
 29 28  1  0  0  0  0
 29 30  2  0  0  0  0
 30 31  1  0  0  0  0
 31 32  2  0  0  0  0
 31 25  1  0  0  0  0
 34 28  1  0  0  0  0
 35 37  1  0  0  0  0
 35 29  1  0  0  0  0
 36 35  1  0  0  0  0
 38 35  1  0  0  0  0
M  END
>  <minimizedAffinity>
-5.58642149

>  <minimizedRMSD>
2.224226

$$$$
