
 OpenBabel03252505433D

 38 41  0  0  1  0  0  0  0  0999 V2000
   43.9670   34.6640   42.3730 C   0  0  1  0  0  0  0  0  0  0  0  0
   44.1650   36.1480   41.9200 C   0  0  0  0  0  0  0  0  0  0  0  0
   44.0050   34.9630   40.9720 C   0  0  2  0  0  0  0  0  0  0  0  0
   42.9810   34.5550   42.9070 H   0  0  0  0  0  0  0  0  0  0  0  0
   45.1500   36.5780   42.0970 H   0  0  0  0  0  0  0  0  0  0  0  0
   43.3180   36.8270   41.9960 H   0  0  0  0  0  0  0  0  0  0  0  0
   44.9010   34.8590   40.3350 H   0  0  0  0  0  0  0  0  0  0  0  0
   45.1050   34.1130   43.1320 C   0  0  0  0  0  0  0  0  0  0  0  0
   46.3460   34.0180   42.4790 C   0  0  0  0  0  0  0  0  0  0  0  0
   47.4320   33.5040   43.1800 C   0  0  0  0  0  0  0  0  0  0  0  0
   47.2370   33.1190   44.4660 N   0  0  0  0  0  0  0  0  0  0  0  0
   46.0470   33.2220   45.0580 C   0  0  0  0  0  0  0  0  0  0  0  0
   45.0160   33.7170   44.3700 N   0  0  0  0  0  0  0  0  0  0  0  0
   46.5260   34.3200   41.4540 H   0  0  0  0  0  0  0  0  0  0  0  0
   48.4180   33.4140   42.7070 H   0  0  0  0  0  0  0  0  0  0  0  0
   46.0350   32.7470   46.4840 C   0  0  0  0  0  0  0  0  0  0  0  0
   45.0650   33.4030   47.2280 F   0  0  0  0  0  0  0  0  0  0  0  0
   47.2730   33.0800   47.0810 F   0  0  0  0  0  0  0  0  0  0  0  0
   45.9450   31.3820   46.5230 F   0  0  0  0  0  0  0  0  0  0  0  0
   42.6720   34.8390   40.2670 C   0  0  0  0  0  0  0  0  0  0  0  0
   42.5290   35.1990   38.9500 C   0  0  0  0  0  0  0  0  0  0  0  0
   41.3330   35.0720   38.2730 C   0  0  0  0  0  0  0  0  0  0  0  0
   40.2810   34.5750   38.9440 N   0  0  0  0  0  0  0  0  0  0  0  0
   40.4080   34.2120   40.2510 C   0  0  0  0  0  0  0  0  0  0  0  0
   41.5810   34.3380   40.9190 N   0  0  0  0  0  0  0  0  0  0  0  0
   43.3990   35.5950   38.4460 H   0  0  0  0  0  0  0  0  0  0  0  0
   41.2290   35.3580   37.2330 H   0  0  0  0  0  0  0  0  0  0  0  0
   39.2800   33.6400   41.0470 C   0  0  0  0  0  0  0  0  0  0  0  0
   38.7280   34.4520   41.5150 H   0  0  0  0  0  0  0  0  0  0  0  0
   39.6940   32.9810   41.8360 H   0  0  0  0  0  0  0  0  0  0  0  0
   38.4390   32.7480   40.1670 C   0  0  0  0  0  0  0  0  0  0  0  0
   37.4550   33.2460   40.0360 H   0  0  0  0  0  0  0  0  0  0  0  0
   38.9110   32.6660   39.1890 H   0  0  0  0  0  0  0  0  0  0  0  0
   38.1690   31.3980   40.7660 C   0  0  0  0  0  3  0  0  0  0  0  0
   39.3080   30.9090   41.6000 C   0  0  0  0  0  2  0  0  0  0  0  0
   40.0600   29.8730   40.8260 C   0  0  0  0  0  2  0  0  0  0  0  0
   39.1860   29.4890   39.6650 C   0  0  0  0  0  2  0  0  0  0  0  0
   37.9310   30.3220   39.7500 C   0  0  0  0  0  2  0  0  0  0  0  0
  1  4  1  1  0  0  0
  1  8  1  0  0  0  0
  2  6  1  0  0  0  0
  2  5  1  0  0  0  0
  2  1  1  0  0  0  0
  3  7  1  6  0  0  0
  3  2  1  0  0  0  0
  3  1  1  0  0  0  0
  8 13  1  0  0  0  0
  9  8  2  0  0  0  0
  9 10  1  0  0  0  0
 10 11  2  0  0  0  0
 11 12  1  0  0  0  0
 12 16  1  0  0  0  0
 13 12  2  0  0  0  0
 14  9  1  0  0  0  0
 15 10  1  0  0  0  0
 16 19  1  0  0  0  0
 16 18  1  0  0  0  0
 16 17  1  0  0  0  0
 20 25  1  0  0  0  0
 20  3  1  0  0  0  0
 21 20  2  0  0  0  0
 22 23  2  0  0  0  0
 22 21  1  0  0  0  0
 23 24  1  0  0  0  0
 24 25  2  0  0  0  0
 24 28  1  0  0  0  0
 26 21  1  0  0  0  0
 27 22  1  0  0  0  0
 28 29  1  0  0  0  0
 28 30  1  0  0  0  0
 31 34  1  0  0  0  0
 31 28  1  0  0  0  0
 32 31  1  0  0  0  0
 33 31  1  0  0  0  0
 34 35  1  0  0  0  0
 36 35  1  0  0  0  0
 37 38  1  0  0  0  0
 37 36  1  0  0  0  0
 38 34  1  0  0  0  0
M  END
>  <minimizedAffinity>
-5.72269106

>  <minimizedRMSD>
0.891242921

$$$$
