
 OpenBabel03242519283D

 39 42  0  0  0  0  0  0  0  0999 V2000
   47.8900   33.8160   42.8880 C   0  0  0  0  0  0  0  0  0  0  0  0
   48.5790   35.0410   42.6400 C   0  0  0  0  0  0  0  0  0  0  0  0
   49.9440   35.0170   42.3220 C   0  0  0  0  0  0  0  0  0  0  0  0
   50.5440   33.7820   42.2680 N   0  0  0  0  0  0  0  0  0  0  0  0
   49.8390   32.6200   42.5150 C   0  0  0  0  0  0  0  0  0  0  0  0
   48.5620   32.6700   42.8110 N   0  0  0  0  0  0  0  0  0  0  0  0
   48.1700   36.0430   42.6650 H   0  0  0  0  0  0  0  0  0  0  0  0
   50.5050   35.9030   42.1280 H   0  0  0  0  0  0  0  0  0  0  0  0
   46.4660   33.9610   43.2180 C   0  0  0  0  0  0  0  0  0  0  0  0
   45.7730   34.9790   42.4530 C   0  0  0  0  0  0  0  0  0  0  0  0
   45.3250   36.1480   43.2280 C   0  0  0  0  0  0  0  0  0  0  0  0
   44.4860   35.7490   44.4400 C   0  0  0  0  0  0  0  0  0  0  0  0
   44.9630   34.5010   45.1280 C   0  0  0  0  0  0  0  0  0  0  0  0
   46.4150   34.1960   44.7520 C   0  0  0  0  0  0  0  0  0  0  0  0
   45.9660   32.9650   43.1070 H   0  0  0  0  0  0  0  0  0  0  0  0
   44.8940   34.5640   41.8940 H   0  0  0  0  0  0  0  0  0  0  0  0
   46.4460   35.3570   41.6410 H   0  0  0  0  0  0  0  0  0  0  0  0
   46.0690   36.8650   43.5600 H   0  0  0  0  0  0  0  0  0  0  0  0
   44.6180   36.7330   42.5710 H   0  0  0  0  0  0  0  0  0  0  0  0
   44.5320   36.5670   45.1870 H   0  0  0  0  0  0  0  0  0  0  0  0
   43.4010   35.6720   44.1450 H   0  0  0  0  0  0  0  0  0  0  0  0
   44.9050   34.5420   46.2200 H   0  0  0  0  0  0  0  0  0  0  0  0
   44.3480   33.6610   44.7030 H   0  0  0  0  0  0  0  0  0  0  0  0
   47.0870   35.0190   45.0390 H   0  0  0  0  0  0  0  0  0  0  0  0
   46.7090   33.2590   45.2410 H   0  0  0  0  0  0  0  0  0  0  0  0
   50.6450   31.4120   42.4170 C   0  0  0  0  0  0  0  0  0  0  0  0
   51.5030   31.2990   41.3810 N   0  0  0  0  0  0  0  0  0  0  0  0
   52.1500   30.1050   41.4800 C   0  0  0  0  0  0  0  0  0  0  0  0
   51.6690   29.4920   42.5990 N   0  0  0  0  0  0  0  0  0  0  0  0
   50.7530   30.2820   43.1730 N   0  0  0  0  0  0  0  0  0  0  0  0
   52.9090   29.7060   40.8030 H   0  0  0  0  0  0  0  0  0  0  0  0
   52.0710   28.1820   43.1160 C   0  0  0  0  0  0  0  0  0  0  0  0
   53.1160   27.9980   42.8670 H   0  0  0  0  0  0  0  0  0  0  0  0
   51.4310   27.3840   42.6400 H   0  0  0  0  0  0  0  0  0  0  0  0
   51.9160   28.1910   44.6050 C   0  0  0  0  0  0  0  0  0  0  0  0
   53.1840   28.6110   45.3230 C   0  0  0  0  0  0  0  0  0  0  0  0
   52.9060   28.2090   46.7460 C   0  0  0  0  0  0  0  0  0  0  0  0
   52.1330   26.9140   46.6430 C   0  0  0  0  0  0  0  0  0  0  0  0
   51.6520   26.8310   45.1920 C   0  0  0  0  0  0  0  0  0  0  0  0
  1  9  1  0  0  0  0
  2  7  1  0  0  0  0
  2  1  2  0  0  0  0
  3  2  1  0  0  0  0
  4  3  2  0  0  0  0
  4  5  1  0  0  0  0
  5  6  2  0  0  0  0
  6  1  1  0  0  0  0
  8  3  1  0  0  0  0
  9 14  1  0  0  0  0
 10  9  1  0  0  0  0
 10 11  1  0  0  0  0
 11 18  1  0  0  0  0
 11 12  1  0  0  0  0
 12 13  1  0  0  0  0
 12 20  1  0  0  0  0
 13 22  1  0  0  0  0
 14 24  1  0  0  0  0
 14 13  1  0  0  0  0
 14 25  1  0  0  0  0
 15  9  1  0  0  0  0
 16 10  1  0  0  0  0
 17 10  1  0  0  0  0
 19 11  1  0  0  0  0
 21 12  1  0  0  0  0
 23 13  1  0  0  0  0
 26  5  1  0  0  0  0
 26 30  2  0  0  0  0
 27 28  2  0  0  0  0
 27 26  1  0  0  0  0
 28 29  1  0  0  0  0
 29 32  1  0  0  0  0
 29 30  1  0  0  0  0
 31 28  1  0  0  0  0
 32 35  1  0  0  0  0
 33 32  1  0  0  0  0
 34 32  1  0  0  0  0
 35 39  1  0  0  0  0
 35 36  1  0  0  0  0
 36 37  1  0  0  0  0
 38 37  1  0  0  0  0
 39 38  1  0  0  0  0
M  END
>  <minimizedAffinity>
-4.07437992

>  <minimizedRMSD>
2.7241447

$$$$
