
 OpenBabel03242519413D

 25 27  0  0  1  0  0  0  0  0999 V2000
   47.9650   32.8830   41.7100 O   0  0  0  0  0  0  0  0  0  0  0  0
   47.1120   34.0870   41.2860 P   0  0  2  0  0  0  0  0  0  0  0  0
   45.5290   33.8920   41.9070 O   0  0  0  0  0  0  0  0  0  0  0  0
   44.4020   35.9310   44.7090 C   0  0  0  0  0  0  0  0  0  0  0  0
   44.6640   35.5070   43.3860 C   0  0  0  0  0  0  0  0  0  0  0  0
   45.2900   34.2700   43.2090 C   0  0  0  0  0  0  0  0  0  0  0  0
   45.6130   33.5420   44.3020 N   0  0  0  0  0  0  0  0  0  0  0  0
   45.3510   33.9730   45.5570 C   0  0  0  0  0  0  0  0  0  0  0  0
   44.7540   35.1480   45.7730 N   0  0  0  0  0  0  0  0  0  0  0  0
   43.9190   36.8840   44.8640 H   0  0  0  0  0  0  0  0  0  0  0  0
   44.3480   36.1970   42.6030 H   0  0  0  0  0  0  0  0  0  0  0  0
   45.6780   33.2640   46.2970 H   0  0  0  0  0  0  0  0  0  0  0  0
   47.0430   34.1510   39.6240 O   0  0  0  0  0  0  0  0  0  0  0  0
   46.9170   33.1280   38.7250 C   0  0  1  0  0  3  0  0  0  0  0  0
   45.7050   32.8430   38.2700 O   0  0  0  0  0  0  0  0  0  0  0  0
   47.3000   32.0230   37.8430 C   0  0  0  0  0  0  0  0  0  0  0  0
   48.1730   32.4600   36.6890 C   0  0  0  0  0  2  0  0  0  0  0  0
   49.5550   32.4920   37.2780 C   0  0  0  0  0  2  0  0  0  0  0  0
   49.4980   31.8420   38.6080 C   0  0  0  0  0  2  0  0  0  0  0  0
   48.2210   31.0790   38.6360 C   0  0  0  0  0  2  0  0  0  0  0  0
   47.7880   35.4290   41.9660 O   0  0  0  0  0  0  0  0  0  0  0  0
   49.0300   35.7420   41.4370 C   0  0  0  0  0  0  0  0  0  0  0  0
   49.4470   37.0280   41.7620 F   0  0  0  0  0  0  0  0  0  0  0  0
   49.9420   34.7980   41.7870 F   0  0  0  0  0  0  0  0  0  0  0  0
   48.8800   35.7330   40.0590 F   0  0  0  0  0  0  0  0  0  0  0  0
  2  1  2  1  0  0  0
  2  3  1  0  0  0  0
  2 21  1  0  0  0  0
  3  6  1  0  0  0  0
  4 10  1  0  0  0  0
  4  9  1  0  0  0  0
  5  4  2  0  0  0  0
  6  5  1  0  0  0  0
  6  7  2  0  0  0  0
  7  8  1  0  0  0  0
  8  9  2  0  0  0  0
  8 12  1  0  0  0  0
 11  5  1  0  0  0  0
 13  2  1  0  0  0  0
 14 13  1  6  0  0  0
 15 14  1  0  0  0  0
 16 15  1  0  0  0  0
 16 20  1  0  0  0  0
 16 14  1  0  0  0  0
 17 18  1  0  0  0  0
 17 16  1  0  0  0  0
 18 19  1  0  0  0  0
 19 20  1  0  0  0  0
 22 23  1  0  0  0  0
 22 24  1  0  0  0  0
 22 21  1  0  0  0  0
 25 22  1  0  0  0  0
M  END
>  <minimizedAffinity>
-5.04304838

>  <minimizedRMSD>
1.2217015

$$$$
