
 OpenBabel03242522443D

 43 46  0  0  0  0  0  0  0  0999 V2000
   38.2890   28.0520   43.3610 C   0  0  0  0  0  0  0  0  0  0  0  0
   38.8360   27.0720   43.5050 H   0  0  0  0  0  0  0  0  0  0  0  0
   38.1500   28.3560   44.4320 H   0  0  0  0  0  0  0  0  0  0  0  0
   39.2250   30.2830   42.8400 C   0  0  0  0  0  0  0  0  0  0  0  0
   39.2260   28.8870   42.6200 C   0  0  0  0  0  0  0  0  0  0  0  0
   40.1460   28.3790   41.7240 C   0  0  0  0  0  0  0  0  0  0  0  0
   40.9950   29.2340   41.1080 N   0  0  0  0  0  0  0  0  0  0  0  0
   40.9700   30.5410   41.3380 C   0  0  0  0  0  0  0  0  0  0  0  0
   40.0890   31.0940   42.2050 N   0  0  0  0  0  0  0  0  0  0  0  0
   38.5950   30.8690   43.4820 H   0  0  0  0  0  0  0  0  0  0  0  0
   40.1730   27.3270   41.5310 H   0  0  0  0  0  0  0  0  0  0  0  0
   41.9520   31.4270   40.6200 C   0  0  0  0  0  0  0  0  0  0  0  0
   42.9080   30.9030   40.5090 H   0  0  0  0  0  0  0  0  0  0  0  0
   42.1100   32.2980   41.3160 H   0  0  0  0  0  0  0  0  0  0  0  0
   41.4810   31.8870   39.3200 C   0  0  0  0  0  0  0  0  0  0  0  0
   41.3990   31.1180   38.1730 C   0  0  0  0  0  0  0  0  0  0  0  0
   40.9110   31.8920   37.1560 C   0  0  0  0  0  0  0  0  0  0  0  0
   40.7080   33.1190   37.7190 N   0  0  0  0  0  0  0  0  0  0  0  0
   41.0470   33.1210   39.0080 N   0  0  0  0  0  0  0  0  0  0  0  0
   41.6630   30.0740   38.0380 H   0  0  0  0  0  0  0  0  0  0  0  0
   40.6890   31.7050   36.1140 H   0  0  0  0  0  0  0  0  0  0  0  0
   40.3350   33.9810   37.2400 H   0  0  0  0  0  0  0  0  0  0  0  0
   37.0250   27.9390   42.5750 C   0  0  0  0  0  0  0  0  0  0  0  0
   37.1370   28.7910   41.8610 H   0  0  0  0  0  0  0  0  0  0  0  0
   36.1380   27.9480   43.1970 H   0  0  0  0  0  0  0  0  0  0  0  0
   36.5450   27.0540   40.3570 C   0  0  0  0  0  0  0  0  0  0  0  0
   36.9360   26.7850   41.6590 C   0  0  0  0  0  0  0  0  0  0  0  0
   37.2580   25.5780   42.1440 C   0  0  0  0  0  0  0  0  0  0  0  0
   37.2020   24.5070   41.2910 C   0  0  0  0  0  0  0  0  0  0  0  0
   36.8340   24.6580   39.9890 C   0  0  0  0  0  0  0  0  0  0  0  0
   36.5150   25.9190   39.5500 C   0  0  0  0  0  0  0  0  0  0  0  0
   37.5770   25.2660   43.0970 H   0  0  0  0  0  0  0  0  0  0  0  0
   37.4340   23.4700   41.5440 H   0  0  0  0  0  0  0  0  0  0  0  0
   36.7720   23.8370   39.2560 H   0  0  0  0  0  0  0  0  0  0  0  0
   36.2190   26.0440   38.4990 H   0  0  0  0  0  0  0  0  0  0  0  0
   36.1270   28.5640   39.6780 S   0  0  0  0  0  0  0  0  0  0  0  0
   34.7960   29.0570   40.3460 O   0  0  0  0  0  0  0  0  0  0  0  0
   35.7250   28.3700   38.2440 O   0  0  0  0  0  0  0  0  0  0  0  0
   36.9970   29.9910   39.7910 C   0  0  0  0  0  3  0  0  0  0  0  0
   36.4100   31.1080   40.6430 C   0  0  0  0  0  2  0  0  0  0  0  0
   37.3740   32.2320   40.2420 C   0  0  0  0  0  2  0  0  0  0  0  0
   37.5100   32.0080   38.7310 C   0  0  0  0  0  2  0  0  0  0  0  0
   36.7500   30.7370   38.4650 C   0  0  0  0  0  2  0  0  0  0  0  0
  1  2  1  0  0  0  0
  1  3  1  0  0  0  0
  4 10  1  0  0  0  0
  5  4  1  0  0  0  0
  5  1  1  0  0  0  0
  6  5  2  0  0  0  0
  7  8  2  0  0  0  0
  7  6  1  0  0  0  0
  8  9  1  0  0  0  0
  9  4  2  0  0  0  0
 11  6  1  0  0  0  0
 12 14  1  0  0  0  0
 12  8  1  0  0  0  0
 13 12  1  0  0  0  0
 15 12  1  0  0  0  0
 16 15  1  0  0  0  0
 17 18  1  0  0  0  0
 17 16  2  0  0  0  0
 18 19  1  0  0  0  0
 19 15  2  0  0  0  0
 20 16  1  0  0  0  0
 21 17  1  0  0  0  0
 22 18  1  0  0  0  0
 23 25  1  0  0  0  0
 23  1  1  0  0  0  0
 24 23  1  0  0  0  0
 26 27  1  0  0  0  0
 27 28  2  0  0  0  0
 27 23  1  0  0  0  0
 28 32  1  0  0  0  0
 29 33  1  0  0  0  0
 29 28  1  0  0  0  0
 30 29  2  0  0  0  0
 31 30  1  0  0  0  0
 31 26  2  0  0  0  0
 34 30  1  0  0  0  0
 35 31  1  0  0  0  0
 36 39  1  0  0  0  0
 36 37  2  0  0  0  0
 36 26  1  0  0  0  0
 38 36  2  0  0  0  0
 39 40  1  0  0  0  0
 41 40  1  0  0  0  0
 42 41  1  0  0  0  0
 43 42  1  0  0  0  0
 43 39  1  0  0  0  0
M  END
>  <minimizedAffinity>
-5.98256302

$$$$

 OpenBabel03242522443D

 43 46  0  0  0  0  0  0  0  0999 V2000
   40.2570   30.6120   42.0100 C   0  0  0  0  0  0  0  0  0  0  0  0
   40.4470   30.9790   43.0620 H   0  0  0  0  0  0  0  0  0  0  0  0
   41.2950   30.3010   41.7210 H   0  0  0  0  0  0  0  0  0  0  0  0
   39.3760   28.4230   41.2640 C   0  0  0  0  0  0  0  0  0  0  0  0
   39.3250   29.5030   42.1730 C   0  0  0  0  0  0  0  0  0  0  0  0
   38.4010   29.4360   43.1980 C   0  0  0  0  0  0  0  0  0  0  0  0
   37.6010   28.3490   43.2820 N   0  0  0  0  0  0  0  0  0  0  0  0
   37.6750   27.3480   42.4120 C   0  0  0  0  0  0  0  0  0  0  0  0
   38.5600   27.3610   41.3880 N   0  0  0  0  0  0  0  0  0  0  0  0
   40.0090   28.2850   40.4070 H   0  0  0  0  0  0  0  0  0  0  0  0
   38.3330   30.2380   43.9030 H   0  0  0  0  0  0  0  0  0  0  0  0
   36.7560   26.1680   42.5770 C   0  0  0  0  0  0  0  0  0  0  0  0
   35.7680   26.4110   42.1690 H   0  0  0  0  0  0  0  0  0  0  0  0
   36.6520   26.0420   43.6910 H   0  0  0  0  0  0  0  0  0  0  0  0
   37.2610   24.9450   41.9660 C   0  0  0  0  0  0  0  0  0  0  0  0
   36.7140   24.3070   40.8670 C   0  0  0  0  0  0  0  0  0  0  0  0
   37.4610   23.1960   40.5850 C   0  0  0  0  0  0  0  0  0  0  0  0
   38.4480   23.1910   41.5280 N   0  0  0  0  0  0  0  0  0  0  0  0
   38.3320   24.2310   42.3530 N   0  0  0  0  0  0  0  0  0  0  0  0
   35.8430   24.5890   40.2850 H   0  0  0  0  0  0  0  0  0  0  0  0
   37.3970   22.4240   39.8290 H   0  0  0  0  0  0  0  0  0  0  0  0
   39.2210   22.4820   41.6310 H   0  0  0  0  0  0  0  0  0  0  0  0
   39.6360   31.6280   41.1090 C   0  0  0  0  0  0  0  0  0  0  0  0
   39.8580   32.5730   41.6620 H   0  0  0  0  0  0  0  0  0  0  0  0
   38.5920   31.4280   40.9010 H   0  0  0  0  0  0  0  0  0  0  0  0
   39.5410   31.8280   38.6840 C   0  0  0  0  0  0  0  0  0  0  0  0
   40.3270   31.8590   39.8250 C   0  0  0  0  0  0  0  0  0  0  0  0
   41.6440   32.1020   39.8600 C   0  0  0  0  0  0  0  0  0  0  0  0
   42.2850   32.3430   38.6740 C   0  0  0  0  0  0  0  0  0  0  0  0
   41.6100   32.3390   37.4910 C   0  0  0  0  0  0  0  0  0  0  0  0
   40.2620   32.0850   37.5180 C   0  0  0  0  0  0  0  0  0  0  0  0
   42.3260   32.1620   40.6590 H   0  0  0  0  0  0  0  0  0  0  0  0
   43.3500   32.5520   38.5480 H   0  0  0  0  0  0  0  0  0  0  0  0
   42.0690   32.5270   36.5070 H   0  0  0  0  0  0  0  0  0  0  0  0
   39.7130   32.0830   36.5660 H   0  0  0  0  0  0  0  0  0  0  0  0
   37.8640   31.5300   38.5710 S   0  0  0  0  0  0  0  0  0  0  0  0
   37.4730   31.4660   37.0530 O   0  0  0  0  0  0  0  0  0  0  0  0
   37.1110   32.7360   39.0560 O   0  0  0  0  0  0  0  0  0  0  0  0
   37.0520   30.1600   39.0890 C   0  0  0  0  0  3  0  0  0  0  0  0
   35.8960   29.6610   38.2320 C   0  0  0  0  0  2  0  0  0  0  0  0
   35.3330   28.6110   39.1980 C   0  0  0  0  0  2  0  0  0  0  0  0
   35.4190   29.3400   40.5450 C   0  0  0  0  0  2  0  0  0  0  0  0
   36.1310   30.6290   40.2340 C   0  0  0  0  0  2  0  0  0  0  0  0
  1  5  1  0  0  0  0
  1  2  1  0  0  0  0
  3  1  1  0  0  0  0
  4  9  2  0  0  0  0
  4  5  1  0  0  0  0
  5  6  2  0  0  0  0
  6  7  1  0  0  0  0
  6 11  1  0  0  0  0
  8 12  1  0  0  0  0
  8  7  2  0  0  0  0
  9  8  1  0  0  0  0
 10  4  1  0  0  0  0
 12 14  1  0  0  0  0
 13 12  1  0  0  0  0
 15 19  2  0  0  0  0
 15 12  1  0  0  0  0
 16 15  1  0  0  0  0
 17 16  2  0  0  0  0
 17 18  1  0  0  0  0
 18 22  1  0  0  0  0
 18 19  1  0  0  0  0
 20 16  1  0  0  0  0
 21 17  1  0  0  0  0
 23 24  1  0  0  0  0
 23  1  1  0  0  0  0
 25 23  1  0  0  0  0
 26 27  1  0  0  0  0
 27 28  2  0  0  0  0
 27 23  1  0  0  0  0
 28 32  1  0  0  0  0
 29 28  1  0  0  0  0
 30 31  1  0  0  0  0
 30 29  2  0  0  0  0
 31 26  2  0  0  0  0
 33 29  1  0  0  0  0
 34 30  1  0  0  0  0
 35 31  1  0  0  0  0
 36 26  1  0  0  0  0
 36 38  2  0  0  0  0
 36 39  1  0  0  0  0
 37 36  2  0  0  0  0
 39 43  1  0  0  0  0
 40 39  1  0  0  0  0
 40 41  1  0  0  0  0
 41 42  1  0  0  0  0
 43 42  1  0  0  0  0
M  END
>  <minimizedAffinity>
-5.91369867

$$$$

 OpenBabel03242522443D

 43 46  0  0  0  0  0  0  0  0999 V2000
   35.8100   27.8360   39.2040 C   0  0  0  0  0  0  0  0  0  0  0  0
   35.1730   27.5810   40.1030 H   0  0  0  0  0  0  0  0  0  0  0  0
   35.0380   27.7730   38.3940 H   0  0  0  0  0  0  0  0  0  0  0  0
   37.2410   29.7630   38.5990 C   0  0  0  0  0  0  0  0  0  0  0  0
   36.2890   29.1880   39.4700 C   0  0  0  0  0  0  0  0  0  0  0  0
   35.8340   29.9570   40.5230 C   0  0  0  0  0  0  0  0  0  0  0  0
   36.3170   31.2130   40.6670 N   0  0  0  0  0  0  0  0  0  0  0  0
   37.2110   31.7260   39.8300 C   0  0  0  0  0  0  0  0  0  0  0  0
   37.6920   31.0170   38.7810 N   0  0  0  0  0  0  0  0  0  0  0  0
   37.7180   29.3370   37.7370 H   0  0  0  0  0  0  0  0  0  0  0  0
   35.1150   29.5530   41.2040 H   0  0  0  0  0  0  0  0  0  0  0  0
   37.6950   33.1340   40.0510 C   0  0  0  0  0  0  0  0  0  0  0  0
   37.0880   33.6140   40.8270 H   0  0  0  0  0  0  0  0  0  0  0  0
   37.4950   33.6590   39.0760 H   0  0  0  0  0  0  0  0  0  0  0  0
   39.1070   33.2180   40.4000 C   0  0  0  0  0  0  0  0  0  0  0  0
   40.0050   34.1480   39.9100 C   0  0  0  0  0  0  0  0  0  0  0  0
   41.2330   33.9140   40.4670 C   0  0  0  0  0  0  0  0  0  0  0  0
   41.0430   32.8400   41.2870 N   0  0  0  0  0  0  0  0  0  0  0  0
   39.7780   32.4210   41.2510 N   0  0  0  0  0  0  0  0  0  0  0  0
   39.8290   34.9510   39.2010 H   0  0  0  0  0  0  0  0  0  0  0  0
   42.2010   34.3870   40.3700 H   0  0  0  0  0  0  0  0  0  0  0  0
   41.7680   32.3680   41.8900 H   0  0  0  0  0  0  0  0  0  0  0  0
   36.9900   26.9420   39.0130 C   0  0  0  0  0  0  0  0  0  0  0  0
   37.6420   27.2590   39.8630 H   0  0  0  0  0  0  0  0  0  0  0  0
   37.4220   27.0170   38.0230 H   0  0  0  0  0  0  0  0  0  0  0  0
   37.5500   24.9660   40.3230 C   0  0  0  0  0  0  0  0  0  0  0  0
   36.7720   25.5130   39.3150 C   0  0  0  0  0  0  0  0  0  0  0  0
   35.8310   24.8650   38.6150 C   0  0  0  0  0  0  0  0  0  0  0  0
   35.6060   23.5460   38.9090 C   0  0  0  0  0  0  0  0  0  0  0  0
   36.3120   22.9070   39.8830 C   0  0  0  0  0  0  0  0  0  0  0  0
   37.2620   23.6240   40.5670 C   0  0  0  0  0  0  0  0  0  0  0  0
   35.1820   25.1810   37.8490 H   0  0  0  0  0  0  0  0  0  0  0  0
   34.8780   22.8930   38.4230 H   0  0  0  0  0  0  0  0  0  0  0  0
   36.1760   21.8520   40.1660 H   0  0  0  0  0  0  0  0  0  0  0  0
   37.8320   23.1130   41.3550 H   0  0  0  0  0  0  0  0  0  0  0  0
   38.7570   25.7360   41.2520 S   0  0  0  0  0  0  0  0  0  0  0  0
   39.6470   26.6000   40.2920 O   0  0  0  0  0  0  0  0  0  0  0  0
   39.7240   24.7060   41.7630 O   0  0  0  0  0  0  0  0  0  0  0  0
   38.5210   26.8770   42.4560 C   0  0  0  0  0  3  0  0  0  0  0  0
   37.0900   27.3050   42.7500 C   0  0  0  0  0  2  0  0  0  0  0  0
   37.3910   28.4870   43.6800 C   0  0  0  0  0  2  0  0  0  0  0  0
   38.5750   29.1560   42.9680 C   0  0  0  0  0  2  0  0  0  0  0  0
   38.9020   28.2320   41.8260 C   0  0  0  0  0  2  0  0  0  0  0  0
  1  5  1  0  0  0  0
  1  2  1  0  0  0  0
  3  1  1  0  0  0  0
  4  9  2  0  0  0  0
  4  5  1  0  0  0  0
  5  6  2  0  0  0  0
  6  7  1  0  0  0  0
  6 11  1  0  0  0  0
  8 12  1  0  0  0  0
  8  7  2  0  0  0  0
  9  8  1  0  0  0  0
 10  4  1  0  0  0  0
 12 15  1  0  0  0  0
 12 13  1  0  0  0  0
 14 12  1  0  0  0  0
 15 19  2  0  0  0  0
 16 15  1  0  0  0  0
 16 17  2  0  0  0  0
 17 18  1  0  0  0  0
 18 22  1  0  0  0  0
 19 18  1  0  0  0  0
 20 16  1  0  0  0  0
 21 17  1  0  0  0  0
 23  1  1  0  0  0  0
 23 27  1  0  0  0  0
 23 24  1  0  0  0  0
 25 23  1  0  0  0  0
 26 31  1  0  0  0  0
 26 36  1  0  0  0  0
 27 26  2  0  0  0  0
 28 29  2  0  0  0  0
 28 27  1  0  0  0  0
 29 30  1  0  0  0  0
 30 34  1  0  0  0  0
 30 31  2  0  0  0  0
 31 35  1  0  0  0  0
 32 28  1  0  0  0  0
 33 29  1  0  0  0  0
 36 38  2  0  0  0  0
 36 39  1  0  0  0  0
 37 36  2  0  0  0  0
 39 40  1  0  0  0  0
 40 41  1  0  0  0  0
 42 41  1  0  0  0  0
 43 39  1  0  0  0  0
 43 42  1  0  0  0  0
M  END
>  <minimizedAffinity>
-5.89987183

$$$$

 OpenBabel03242522443D

 43 46  0  0  0  0  0  0  0  0999 V2000
   36.5290   27.3100   38.7150 C   0  0  0  0  0  0  0  0  0  0  0  0
   35.6380   27.1840   38.0300 H   0  0  0  0  0  0  0  0  0  0  0  0
   37.3110   26.7680   38.1200 H   0  0  0  0  0  0  0  0  0  0  0  0
   36.2940   29.4470   39.9400 C   0  0  0  0  0  0  0  0  0  0  0  0
   36.7290   28.7520   38.7900 C   0  0  0  0  0  0  0  0  0  0  0  0
   37.3540   29.4810   37.7970 C   0  0  0  0  0  0  0  0  0  0  0  0
   37.5200   30.8120   37.9740 N   0  0  0  0  0  0  0  0  0  0  0  0
   37.1010   31.4360   39.0690 C   0  0  0  0  0  0  0  0  0  0  0  0
   36.4820   30.7720   40.0730 N   0  0  0  0  0  0  0  0  0  0  0  0
   35.7890   29.0720   40.8100 H   0  0  0  0  0  0  0  0  0  0  0  0
   37.6940   28.9870   36.9110 H   0  0  0  0  0  0  0  0  0  0  0  0
   37.3300   32.9180   39.1970 C   0  0  0  0  0  0  0  0  0  0  0  0
   36.5070   33.3710   39.7610 H   0  0  0  0  0  0  0  0  0  0  0  0
   37.2840   33.3050   38.1410 H   0  0  0  0  0  0  0  0  0  0  0  0
   38.6050   33.2610   39.8140 C   0  0  0  0  0  0  0  0  0  0  0  0
   39.8350   32.7310   39.4720 C   0  0  0  0  0  0  0  0  0  0  0  0
   40.7960   33.2950   40.2660 C   0  0  0  0  0  0  0  0  0  0  0  0
   40.1160   34.1600   41.0730 N   0  0  0  0  0  0  0  0  0  0  0  0
   38.8110   34.1440   40.8080 N   0  0  0  0  0  0  0  0  0  0  0  0
   40.0660   31.9890   38.7140 H   0  0  0  0  0  0  0  0  0  0  0  0
   41.8690   33.1770   40.3400 H   0  0  0  0  0  0  0  0  0  0  0  0
   40.5240   34.7810   41.8210 H   0  0  0  0  0  0  0  0  0  0  0  0
   36.3200   26.7840   40.0970 C   0  0  0  0  0  0  0  0  0  0  0  0
   35.2410   26.4990   40.0590 H   0  0  0  0  0  0  0  0  0  0  0  0
   36.6020   27.4930   40.8650 H   0  0  0  0  0  0  0  0  0  0  0  0
   37.8170   25.4650   41.4920 C   0  0  0  0  0  0  0  0  0  0  0  0
   36.9660   25.4920   40.4000 C   0  0  0  0  0  0  0  0  0  0  0  0
   36.6650   24.4460   39.6170 C   0  0  0  0  0  0  0  0  0  0  0  0
   37.2420   23.2380   39.9090 C   0  0  0  0  0  0  0  0  0  0  0  0
   38.0930   23.0960   40.9630 C   0  0  0  0  0  0  0  0  0  0  0  0
   38.3610   24.2030   41.7290 C   0  0  0  0  0  0  0  0  0  0  0  0
   36.0310   24.3530   38.7820 H   0  0  0  0  0  0  0  0  0  0  0  0
   37.0930   22.3050   39.3610 H   0  0  0  0  0  0  0  0  0  0  0  0
   38.5840   22.1530   41.2490 H   0  0  0  0  0  0  0  0  0  0  0  0
   39.0460   24.0920   42.5810 H   0  0  0  0  0  0  0  0  0  0  0  0
   38.2370   26.7540   42.5290 S   0  0  0  0  0  0  0  0  0  0  0  0
   39.2370   26.2170   43.6100 O   0  0  0  0  0  0  0  0  0  0  0  0
   37.0400   27.1430   43.3490 O   0  0  0  0  0  0  0  0  0  0  0  0
   39.0610   28.1510   42.1090 C   0  0  0  0  0  3  0  0  0  0  0  0
   40.4210   28.3860   42.7530 C   0  0  0  0  0  2  0  0  0  0  0  0
   40.6450   29.8320   42.2930 C   0  0  0  0  0  2  0  0  0  0  0  0
   39.2540   30.4470   42.4930 C   0  0  0  0  0  2  0  0  0  0  0  0
   38.3810   29.2900   42.8950 C   0  0  0  0  0  2  0  0  0  0  0  0
  1  5  1  0  0  0  0
  1 23  1  0  0  0  0
  2  1  1  0  0  0  0
  3  1  1  0  0  0  0
  4  9  1  0  0  0  0
  4 10  1  0  0  0  0
  5  4  2  0  0  0  0
  6  7  2  0  0  0  0
  6  5  1  0  0  0  0
  7  8  1  0  0  0  0
  8 12  1  0  0  0  0
  8  9  2  0  0  0  0
 11  6  1  0  0  0  0
 12 13  1  0  0  0  0
 12 15  1  0  0  0  0
 14 12  1  0  0  0  0
 15 19  2  0  0  0  0
 16 15  1  0  0  0  0
 16 17  2  0  0  0  0
 17 21  1  0  0  0  0
 17 18  1  0  0  0  0
 18 22  1  0  0  0  0
 19 18  1  0  0  0  0
 20 16  1  0  0  0  0
 23 27  1  0  0  0  0
 23 25  1  0  0  0  0
 24 23  1  0  0  0  0
 26 31  1  0  0  0  0
 26 36  1  0  0  0  0
 27 26  2  0  0  0  0
 28 29  2  0  0  0  0
 28 27  1  0  0  0  0
 29 30  1  0  0  0  0
 30 34  1  0  0  0  0
 30 31  2  0  0  0  0
 31 35  1  0  0  0  0
 32 28  1  0  0  0  0
 33 29  1  0  0  0  0
 36 38  2  0  0  0  0
 36 37  2  0  0  0  0
 39 36  1  0  0  0  0
 39 40  1  0  0  0  0
 39 43  1  0  0  0  0
 41 42  1  0  0  0  0
 41 40  1  0  0  0  0
 42 43  1  0  0  0  0
M  END
>  <minimizedAffinity>
-5.83198309

$$$$

 OpenBabel03242522443D

 43 46  0  0  0  0  0  0  0  0999 V2000
   36.7860   30.3280   37.9930 C   0  0  0  0  0  0  0  0  0  0  0  0
   37.7630   30.7020   37.5640 H   0  0  0  0  0  0  0  0  0  0  0  0
   36.0770   30.6750   37.1960 H   0  0  0  0  0  0  0  0  0  0  0  0
   36.0240   28.1190   38.8080 C   0  0  0  0  0  0  0  0  0  0  0  0
   36.9480   28.8800   38.0590 C   0  0  0  0  0  0  0  0  0  0  0  0
   37.9530   28.2020   37.3970 C   0  0  0  0  0  0  0  0  0  0  0  0
   38.0000   26.8530   37.4960 N   0  0  0  0  0  0  0  0  0  0  0  0
   37.1140   26.1650   38.2070 C   0  0  0  0  0  0  0  0  0  0  0  0
   36.1100   26.7780   38.8760 N   0  0  0  0  0  0  0  0  0  0  0  0
   35.1850   28.4500   39.3920 H   0  0  0  0  0  0  0  0  0  0  0  0
   38.6710   28.7470   36.8220 H   0  0  0  0  0  0  0  0  0  0  0  0
   37.2280   24.6660   38.2610 C   0  0  0  0  0  0  0  0  0  0  0  0
   37.8770   24.3160   37.4500 H   0  0  0  0  0  0  0  0  0  0  0  0
   36.1860   24.2940   38.0590 H   0  0  0  0  0  0  0  0  0  0  0  0
   37.7140   24.1640   39.5400 C   0  0  0  0  0  0  0  0  0  0  0  0
   38.9870   24.3480   40.0480 C   0  0  0  0  0  0  0  0  0  0  0  0
   39.0680   23.7360   41.2690 C   0  0  0  0  0  0  0  0  0  0  0  0
   37.8320   23.1930   41.4690 N   0  0  0  0  0  0  0  0  0  0  0  0
   37.0220   23.4450   40.4420 N   0  0  0  0  0  0  0  0  0  0  0  0
   39.8240   24.8770   39.6030 H   0  0  0  0  0  0  0  0  0  0  0  0
   39.8580   23.6310   42.0020 H   0  0  0  0  0  0  0  0  0  0  0  0
   37.5120   22.6410   42.3080 H   0  0  0  0  0  0  0  0  0  0  0  0
   36.4820   30.8370   39.3640 C   0  0  0  0  0  0  0  0  0  0  0  0
   36.8070   29.9730   39.9920 H   0  0  0  0  0  0  0  0  0  0  0  0
   35.4520   31.1530   39.4780 H   0  0  0  0  0  0  0  0  0  0  0  0
   38.3500   31.5540   40.7510 C   0  0  0  0  0  0  0  0  0  0  0  0
   37.3560   31.9190   39.8580 C   0  0  0  0  0  0  0  0  0  0  0  0
   37.1390   33.1570   39.3940 C   0  0  0  0  0  0  0  0  0  0  0  0
   37.9640   34.1600   39.8300 C   0  0  0  0  0  0  0  0  0  0  0  0
   38.9770   33.9140   40.7060 C   0  0  0  0  0  0  0  0  0  0  0  0
   39.1500   32.6250   41.1460 C   0  0  0  0  0  0  0  0  0  0  0  0
   36.4320   33.5390   38.7130 H   0  0  0  0  0  0  0  0  0  0  0  0
   37.9060   35.2120   39.5410 H   0  0  0  0  0  0  0  0  0  0  0  0
   39.6720   34.6760   41.0900 H   0  0  0  0  0  0  0  0  0  0  0  0
   39.9670   32.4220   41.8510 H   0  0  0  0  0  0  0  0  0  0  0  0
   38.6810   30.0000   41.3760 S   0  0  0  0  0  0  0  0  0  0  0  0
   39.6260   30.1560   42.6180 O   0  0  0  0  0  0  0  0  0  0  0  0
   39.5390   29.2440   40.4010 O   0  0  0  0  0  0  0  0  0  0  0  0
   37.5780   28.9310   42.0430 C   0  0  0  0  0  3  0  0  0  0  0  0
   37.5840   28.7670   43.5570 C   0  0  0  0  0  2  0  0  0  0  0  0
   36.6430   27.5590   43.6600 C   0  0  0  0  0  2  0  0  0  0  0  0
   37.1220   26.6840   42.4940 C   0  0  0  0  0  2  0  0  0  0  0  0
   38.1530   27.5230   41.7880 C   0  0  0  0  0  2  0  0  0  0  0  0
  1  5  1  0  0  0  0
  1 23  1  0  0  0  0
  2  1  1  0  0  0  0
  3  1  1  0  0  0  0
  4  9  1  0  0  0  0
  4 10  1  0  0  0  0
  5  4  2  0  0  0  0
  6  7  2  0  0  0  0
  6  5  1  0  0  0  0
  7  8  1  0  0  0  0
  8 12  1  0  0  0  0
  8  9  2  0  0  0  0
 11  6  1  0  0  0  0
 12 15  1  0  0  0  0
 13 12  1  0  0  0  0
 14 12  1  0  0  0  0
 15 16  1  0  0  0  0
 15 19  2  0  0  0  0
 16 17  2  0  0  0  0
 17 18  1  0  0  0  0
 17 21  1  0  0  0  0
 18 22  1  0  0  0  0
 19 18  1  0  0  0  0
 20 16  1  0  0  0  0
 23 25  1  0  0  0  0
 23 27  1  0  0  0  0
 23 24  1  0  0  0  0
 26 31  1  0  0  0  0
 26 36  1  0  0  0  0
 27 26  2  0  0  0  0
 28 29  2  0  0  0  0
 28 27  1  0  0  0  0
 29 30  1  0  0  0  0
 30 34  1  0  0  0  0
 30 31  2  0  0  0  0
 31 35  1  0  0  0  0
 32 28  1  0  0  0  0
 33 29  1  0  0  0  0
 36 39  1  0  0  0  0
 36 37  2  0  0  0  0
 38 36  2  0  0  0  0
 39 40  1  0  0  0  0
 40 41  1  0  0  0  0
 42 41  1  0  0  0  0
 43 39  1  0  0  0  0
 43 42  1  0  0  0  0
M  END
>  <minimizedAffinity>
-5.80126381

$$$$

 OpenBabel03242522443D

 43 46  0  0  0  0  0  0  0  0999 V2000
   37.4790   27.5560   43.4640 C   0  0  0  0  0  0  0  0  0  0  0  0
   38.2540   27.7780   44.2580 H   0  0  0  0  0  0  0  0  0  0  0  0
   36.5640   27.4640   44.1070 H   0  0  0  0  0  0  0  0  0  0  0  0
   36.4070   28.9510   41.7240 C   0  0  0  0  0  0  0  0  0  0  0  0
   37.4900   28.7340   42.6050 C   0  0  0  0  0  0  0  0  0  0  0  0
   38.5000   29.6760   42.6270 C   0  0  0  0  0  0  0  0  0  0  0  0
   38.4030   30.7510   41.8120 N   0  0  0  0  0  0  0  0  0  0  0  0
   37.3700   30.9280   40.9950 C   0  0  0  0  0  0  0  0  0  0  0  0
   36.3530   30.0370   40.9320 N   0  0  0  0  0  0  0  0  0  0  0  0
   35.5370   28.3450   41.5540 H   0  0  0  0  0  0  0  0  0  0  0  0
   39.3360   29.5420   43.2800 H   0  0  0  0  0  0  0  0  0  0  0  0
   37.3300   32.1550   40.1250 C   0  0  0  0  0  0  0  0  0  0  0  0
   37.6210   33.0330   40.7120 H   0  0  0  0  0  0  0  0  0  0  0  0
   36.2460   32.2680   39.8430 H   0  0  0  0  0  0  0  0  0  0  0  0
   38.1640   32.0540   38.9340 C   0  0  0  0  0  0  0  0  0  0  0  0
   39.5440   32.1290   38.9060 C   0  0  0  0  0  0  0  0  0  0  0  0
   39.9680   31.9890   37.6130 C   0  0  0  0  0  0  0  0  0  0  0  0
   38.8240   31.8290   36.8870 N   0  0  0  0  0  0  0  0  0  0  0  0
   37.7470   31.8680   37.6690 N   0  0  0  0  0  0  0  0  0  0  0  0
   40.2300   32.2760   39.7340 H   0  0  0  0  0  0  0  0  0  0  0  0
   40.9430   31.9840   37.1420 H   0  0  0  0  0  0  0  0  0  0  0  0
   38.7510   31.6910   35.8440 H   0  0  0  0  0  0  0  0  0  0  0  0
   37.7800   26.3540   42.6310 C   0  0  0  0  0  0  0  0  0  0  0  0
   37.5870   26.7500   41.6040 H   0  0  0  0  0  0  0  0  0  0  0  0
   37.2090   25.4830   42.9240 H   0  0  0  0  0  0  0  0  0  0  0  0
   39.6870   25.6610   41.2850 C   0  0  0  0  0  0  0  0  0  0  0  0
   39.2020   25.9680   42.5460 C   0  0  0  0  0  0  0  0  0  0  0  0
   39.9170   25.9660   43.6790 C   0  0  0  0  0  0  0  0  0  0  0  0
   41.2440   25.6330   43.6020 C   0  0  0  0  0  0  0  0  0  0  0  0
   41.8260   25.3170   42.4130 C   0  0  0  0  0  0  0  0  0  0  0  0
   41.0430   25.3370   41.2850 C   0  0  0  0  0  0  0  0  0  0  0  0
   39.6570   26.1920   44.6740 H   0  0  0  0  0  0  0  0  0  0  0  0
   41.9450   25.5870   44.4390 H   0  0  0  0  0  0  0  0  0  0  0  0
   42.8860   25.0440   42.2870 H   0  0  0  0  0  0  0  0  0  0  0  0
   41.5100   25.0840   40.3240 H   0  0  0  0  0  0  0  0  0  0  0  0
   38.8350   25.6500   39.8060 S   0  0  0  0  0  0  0  0  0  0  0  0
   39.8520   25.3570   38.6490 O   0  0  0  0  0  0  0  0  0  0  0  0
   38.3670   27.0420   39.4900 O   0  0  0  0  0  0  0  0  0  0  0  0
   37.6330   24.5760   39.3490 C   0  0  0  0  0  3  0  0  0  0  0  0
   36.4470   24.4040   40.2890 C   0  0  0  0  0  2  0  0  0  0  0  0
   35.7910   23.1950   39.6110 C   0  0  0  0  0  2  0  0  0  0  0  0
   37.0080   22.3270   39.2650 C   0  0  0  0  0  2  0  0  0  0  0  0
   38.1960   23.1710   39.6410 C   0  0  0  0  0  2  0  0  0  0  0  0
  1  3  1  0  0  0  0
  1  2  1  0  0  0  0
  4  5  1  0  0  0  0
  5  6  2  0  0  0  0
  5  1  1  0  0  0  0
  6 11  1  0  0  0  0
  7  6  1  0  0  0  0
  8  7  2  0  0  0  0
  9  8  1  0  0  0  0
  9  4  2  0  0  0  0
 10  4  1  0  0  0  0
 12 13  1  0  0  0  0
 12  8  1  0  0  0  0
 14 12  1  0  0  0  0
 15 12  1  0  0  0  0
 16 15  1  0  0  0  0
 16 20  1  0  0  0  0
 17 16  2  0  0  0  0
 18 17  1  0  0  0  0
 18 19  1  0  0  0  0
 19 15  2  0  0  0  0
 21 17  1  0  0  0  0
 22 18  1  0  0  0  0
 23 25  1  0  0  0  0
 23  1  1  0  0  0  0
 24 23  1  0  0  0  0
 26 31  2  0  0  0  0
 26 27  1  0  0  0  0
 27 23  1  0  0  0  0
 27 28  2  0  0  0  0
 28 32  1  0  0  0  0
 29 28  1  0  0  0  0
 29 33  1  0  0  0  0
 30 29  2  0  0  0  0
 31 30  1  0  0  0  0
 34 30  1  0  0  0  0
 35 31  1  0  0  0  0
 36 26  1  0  0  0  0
 37 36  2  0  0  0  0
 38 36  2  0  0  0  0
 39 43  1  0  0  0  0
 39 36  1  0  0  0  0
 39 40  1  0  0  0  0
 41 40  1  0  0  0  0
 42 41  1  0  0  0  0
 42 43  1  0  0  0  0
M  END
>  <minimizedAffinity>
-5.76102829

$$$$

 OpenBabel03242522443D

 43 46  0  0  0  0  0  0  0  0999 V2000
   36.5740   27.3330   42.9310 C   0  0  0  0  0  0  0  0  0  0  0  0
   36.2430   27.6810   43.9550 H   0  0  0  0  0  0  0  0  0  0  0  0
   35.7210   26.6510   42.6720 H   0  0  0  0  0  0  0  0  0  0  0  0
   37.5760   29.5460   42.4570 C   0  0  0  0  0  0  0  0  0  0  0  0
   36.6270   28.5520   42.1320 C   0  0  0  0  0  0  0  0  0  0  0  0
   35.8070   28.7780   41.0440 C   0  0  0  0  0  0  0  0  0  0  0  0
   35.9540   29.9280   40.3470 N   0  0  0  0  0  0  0  0  0  0  0  0
   36.8590   30.8430   40.6770 C   0  0  0  0  0  0  0  0  0  0  0  0
   37.6870   30.6740   41.7340 N   0  0  0  0  0  0  0  0  0  0  0  0
   38.2930   29.5650   43.2560 H   0  0  0  0  0  0  0  0  0  0  0  0
   35.0740   28.0480   40.7710 H   0  0  0  0  0  0  0  0  0  0  0  0
   36.9670   32.0940   39.8470 C   0  0  0  0  0  0  0  0  0  0  0  0
   37.2100   32.9450   40.4940 H   0  0  0  0  0  0  0  0  0  0  0  0
   35.9320   32.2520   39.4350 H   0  0  0  0  0  0  0  0  0  0  0  0
   37.9410   31.9950   38.7670 C   0  0  0  0  0  0  0  0  0  0  0  0
   39.3120   32.1160   38.9030 C   0  0  0  0  0  0  0  0  0  0  0  0
   39.8920   31.9630   37.6740 C   0  0  0  0  0  0  0  0  0  0  0  0
   38.8490   31.7510   36.8200 N   0  0  0  0  0  0  0  0  0  0  0  0
   37.6850   31.7700   37.4660 N   0  0  0  0  0  0  0  0  0  0  0  0
   39.8890   32.3020   39.8030 H   0  0  0  0  0  0  0  0  0  0  0  0
   40.9160   31.9800   37.3230 H   0  0  0  0  0  0  0  0  0  0  0  0
   38.9060   31.5890   35.7800 H   0  0  0  0  0  0  0  0  0  0  0  0
   37.9200   26.6880   42.9060 C   0  0  0  0  0  0  0  0  0  0  0  0
   37.9500   26.2120   43.9160 H   0  0  0  0  0  0  0  0  0  0  0  0
   38.7180   27.3840   42.6800 H   0  0  0  0  0  0  0  0  0  0  0  0
   39.3500   25.1410   41.6840 C   0  0  0  0  0  0  0  0  0  0  0  0
   38.0590   25.5190   42.0150 C   0  0  0  0  0  0  0  0  0  0  0  0
   36.9380   24.9030   41.6150 C   0  0  0  0  0  0  0  0  0  0  0  0
   37.0620   23.8030   40.8090 C   0  0  0  0  0  0  0  0  0  0  0  0
   38.2840   23.3410   40.4240 C   0  0  0  0  0  0  0  0  0  0  0  0
   39.3960   24.0130   40.8660 C   0  0  0  0  0  0  0  0  0  0  0  0
   35.9220   25.0940   41.8140 H   0  0  0  0  0  0  0  0  0  0  0  0
   36.2410   23.2040   40.4060 H   0  0  0  0  0  0  0  0  0  0  0  0
   38.4470   22.4620   39.7810 H   0  0  0  0  0  0  0  0  0  0  0  0
   40.3840   23.6430   40.5590 H   0  0  0  0  0  0  0  0  0  0  0  0
   40.8140   25.8770   42.1620 S   0  0  0  0  0  0  0  0  0  0  0  0
   42.0030   25.0740   41.5270 O   0  0  0  0  0  0  0  0  0  0  0  0
   41.0210   25.6640   43.6350 O   0  0  0  0  0  0  0  0  0  0  0  0
   41.3330   27.4230   41.7770 C   0  0  0  0  0  3  0  0  0  0  0  0
   40.9620   28.5480   42.7330 C   0  0  0  0  0  2  0  0  0  0  0  0
   41.3990   29.7370   41.8680 C   0  0  0  0  0  2  0  0  0  0  0  0
   40.9040   29.3160   40.4780 C   0  0  0  0  0  2  0  0  0  0  0  0
   40.3830   27.9170   40.6680 C   0  0  0  0  0  2  0  0  0  0  0  0
  1  2  1  0  0  0  0
  3  1  1  0  0  0  0
  4 10  1  0  0  0  0
  5  4  1  0  0  0  0
  5  1  1  0  0  0  0
  6  5  2  0  0  0  0
  7  8  2  0  0  0  0
  7  6  1  0  0  0  0
  8  9  1  0  0  0  0
  9  4  2  0  0  0  0
 11  6  1  0  0  0  0
 12 13  1  0  0  0  0
 12  8  1  0  0  0  0
 14 12  1  0  0  0  0
 15 16  1  0  0  0  0
 15 12  1  0  0  0  0
 16 20  1  0  0  0  0
 17 16  2  0  0  0  0
 18 19  1  0  0  0  0
 18 17  1  0  0  0  0
 19 15  2  0  0  0  0
 21 17  1  0  0  0  0
 22 18  1  0  0  0  0
 23  1  1  0  0  0  0
 23 24  1  0  0  0  0
 25 23  1  0  0  0  0
 26 27  1  0  0  0  0
 26 36  1  0  0  0  0
 27 23  1  0  0  0  0
 28 32  1  0  0  0  0
 28 27  2  0  0  0  0
 29 28  1  0  0  0  0
 30 29  2  0  0  0  0
 30 31  1  0  0  0  0
 31 26  2  0  0  0  0
 33 29  1  0  0  0  0
 34 30  1  0  0  0  0
 35 31  1  0  0  0  0
 36 38  2  0  0  0  0
 37 36  2  0  0  0  0
 39 36  1  0  0  0  0
 39 40  1  0  0  0  0
 41 40  1  0  0  0  0
 42 43  1  0  0  0  0
 42 41  1  0  0  0  0
 43 39  1  0  0  0  0
M  END
>  <minimizedAffinity>
-5.72499132

$$$$

 OpenBabel03242522443D

 43 46  0  0  0  0  0  0  0  0999 V2000
   35.8460   26.2080   38.2880 C   0  0  0  0  0  0  0  0  0  0  0  0
   35.2410   25.2690   38.4620 H   0  0  0  0  0  0  0  0  0  0  0  0
   36.6390   25.8050   37.6040 H   0  0  0  0  0  0  0  0  0  0  0  0
   33.8120   26.6040   36.9360 C   0  0  0  0  0  0  0  0  0  0  0  0
   34.9150   27.1280   37.6460 C   0  0  0  0  0  0  0  0  0  0  0  0
   35.0380   28.5020   37.7190 C   0  0  0  0  0  0  0  0  0  0  0  0
   34.1040   29.2710   37.1140 N   0  0  0  0  0  0  0  0  0  0  0  0
   33.0760   28.7480   36.4560 C   0  0  0  0  0  0  0  0  0  0  0  0
   32.9060   27.4090   36.3510 N   0  0  0  0  0  0  0  0  0  0  0  0
   33.5410   25.5800   36.7590 H   0  0  0  0  0  0  0  0  0  0  0  0
   35.8630   28.9330   38.2460 H   0  0  0  0  0  0  0  0  0  0  0  0
   32.0730   29.6700   35.8160 C   0  0  0  0  0  0  0  0  0  0  0  0
   31.4660   29.1110   35.0950 H   0  0  0  0  0  0  0  0  0  0  0  0
   32.6950   30.4150   35.2470 H   0  0  0  0  0  0  0  0  0  0  0  0
   31.2100   30.3480   36.7750 C   0  0  0  0  0  0  0  0  0  0  0  0
   30.5500   31.5450   36.5620 C   0  0  0  0  0  0  0  0  0  0  0  0
   29.8360   31.8620   37.6840 C   0  0  0  0  0  0  0  0  0  0  0  0
   30.0830   30.8410   38.5540 N   0  0  0  0  0  0  0  0  0  0  0  0
   30.9010   29.9360   38.0170 N   0  0  0  0  0  0  0  0  0  0  0  0
   30.5590   32.1740   35.6770 H   0  0  0  0  0  0  0  0  0  0  0  0
   29.1910   32.6890   37.9510 H   0  0  0  0  0  0  0  0  0  0  0  0
   29.7020   30.7350   39.5310 H   0  0  0  0  0  0  0  0  0  0  0  0
   36.3630   26.8460   39.5360 C   0  0  0  0  0  0  0  0  0  0  0  0
   35.4090   27.0980   40.0600 H   0  0  0  0  0  0  0  0  0  0  0  0
   37.0360   27.6710   39.3410 H   0  0  0  0  0  0  0  0  0  0  0  0
   37.6710   26.5330   41.5650 C   0  0  0  0  0  0  0  0  0  0  0  0
   37.0110   25.9380   40.5030 C   0  0  0  0  0  0  0  0  0  0  0  0
   36.8930   24.6200   40.2970 C   0  0  0  0  0  0  0  0  0  0  0  0
   37.4700   23.7720   41.2050 C   0  0  0  0  0  0  0  0  0  0  0  0
   38.1430   24.2490   42.2890 C   0  0  0  0  0  0  0  0  0  0  0  0
   38.2290   25.6100   42.4480 C   0  0  0  0  0  0  0  0  0  0  0  0
   36.4090   24.0670   39.5420 H   0  0  0  0  0  0  0  0  0  0  0  0
   37.4580   22.6810   41.1660 H   0  0  0  0  0  0  0  0  0  0  0  0
   38.6250   23.6200   43.0540 H   0  0  0  0  0  0  0  0  0  0  0  0
   38.7690   25.9980   43.3220 H   0  0  0  0  0  0  0  0  0  0  0  0
   37.8540   28.2000   41.8880 S   0  0  0  0  0  0  0  0  0  0  0  0
   39.2950   28.4400   42.4590 O   0  0  0  0  0  0  0  0  0  0  0  0
   36.9720   28.5830   43.0420 O   0  0  0  0  0  0  0  0  0  0  0  0
   37.8260   29.4470   40.7700 C   0  0  0  0  0  3  0  0  0  0  0  0
   38.6740   30.6770   41.0650 C   0  0  0  0  0  2  0  0  0  0  0  0
   38.1400   31.5940   39.9570 C   0  0  0  0  0  2  0  0  0  0  0  0
   36.6340   31.3060   40.0060 C   0  0  0  0  0  2  0  0  0  0  0  0
   36.4930   30.1870   41.0030 C   0  0  0  0  0  2  0  0  0  0  0  0
  1  2  1  0  0  0  0
  1 23  1  0  0  0  0
  3  1  1  0  0  0  0
  4  5  1  0  0  0  0
  5  6  2  0  0  0  0
  5  1  1  0  0  0  0
  6 11  1  0  0  0  0
  7  6  1  0  0  0  0
  8  7  2  0  0  0  0
  9  8  1  0  0  0  0
  9  4  2  0  0  0  0
 10  4  1  0  0  0  0
 12  8  1  0  0  0  0
 12 15  1  0  0  0  0
 13 12  1  0  0  0  0
 14 12  1  0  0  0  0
 15 19  2  0  0  0  0
 16 15  1  0  0  0  0
 16 17  2  0  0  0  0
 17 21  1  0  0  0  0
 17 18  1  0  0  0  0
 18 22  1  0  0  0  0
 19 18  1  0  0  0  0
 20 16  1  0  0  0  0
 23 24  1  0  0  0  0
 23 27  1  0  0  0  0
 25 23  1  0  0  0  0
 26 36  1  0  0  0  0
 26 31  1  0  0  0  0
 27 26  2  0  0  0  0
 28 27  1  0  0  0  0
 28 29  2  0  0  0  0
 29 30  1  0  0  0  0
 30 31  2  0  0  0  0
 30 34  1  0  0  0  0
 31 35  1  0  0  0  0
 32 28  1  0  0  0  0
 33 29  1  0  0  0  0
 36 37  2  0  0  0  0
 36 38  2  0  0  0  0
 39 43  1  0  0  0  0
 39 40  1  0  0  0  0
 39 36  1  0  0  0  0
 41 42  1  0  0  0  0
 41 40  1  0  0  0  0
 42 43  1  0  0  0  0
M  END
>  <minimizedAffinity>
-5.71371412

$$$$

 OpenBabel03242522443D

 43 46  0  0  0  0  0  0  0  0999 V2000
   34.9250   29.1800   39.9530 C   0  0  0  0  0  0  0  0  0  0  0  0
   33.9490   29.7480   40.0030 H   0  0  0  0  0  0  0  0  0  0  0  0
   34.6470   28.2640   40.5380 H   0  0  0  0  0  0  0  0  0  0  0  0
   36.4470   29.0010   38.0100 C   0  0  0  0  0  0  0  0  0  0  0  0
   35.1350   28.9390   38.5310 C   0  0  0  0  0  0  0  0  0  0  0  0
   34.1120   28.6220   37.6590 C   0  0  0  0  0  0  0  0  0  0  0  0
   34.4130   28.3850   36.3610 N   0  0  0  0  0  0  0  0  0  0  0  0
   35.6580   28.4490   35.9020 C   0  0  0  0  0  0  0  0  0  0  0  0
   36.6990   28.7570   36.7110 N   0  0  0  0  0  0  0  0  0  0  0  0
   37.3670   29.2330   38.5120 H   0  0  0  0  0  0  0  0  0  0  0  0
   33.1060   28.5690   38.0190 H   0  0  0  0  0  0  0  0  0  0  0  0
   35.9140   28.1650   34.4470 C   0  0  0  0  0  0  0  0  0  0  0  0
   35.0590   27.6280   34.0200 H   0  0  0  0  0  0  0  0  0  0  0  0
   36.7990   27.4690   34.4450 H   0  0  0  0  0  0  0  0  0  0  0  0
   36.1970   29.3580   33.6600 C   0  0  0  0  0  0  0  0  0  0  0  0
   35.9120   30.6580   34.0350 C   0  0  0  0  0  0  0  0  0  0  0  0
   36.3250   31.5050   33.0430 C   0  0  0  0  0  0  0  0  0  0  0  0
   36.8530   30.6890   32.0860 N   0  0  0  0  0  0  0  0  0  0  0  0
   36.7790   29.4090   32.4490 N   0  0  0  0  0  0  0  0  0  0  0  0
   35.4420   31.0120   34.9470 H   0  0  0  0  0  0  0  0  0  0  0  0
   36.3000   32.5800   32.9190 H   0  0  0  0  0  0  0  0  0  0  0  0
   37.2750   30.9830   31.1660 H   0  0  0  0  0  0  0  0  0  0  0  0
   36.1000   29.9300   40.4890 C   0  0  0  0  0  0  0  0  0  0  0  0
   35.5940   30.7220   41.0920 H   0  0  0  0  0  0  0  0  0  0  0  0
   36.7720   30.2740   39.7120 H   0  0  0  0  0  0  0  0  0  0  0  0
   38.1930   29.6860   41.7100 C   0  0  0  0  0  0  0  0  0  0  0  0
   36.8990   29.2310   41.5140 C   0  0  0  0  0  0  0  0  0  0  0  0
   36.3120   28.2330   42.1890 C   0  0  0  0  0  0  0  0  0  0  0  0
   37.0400   27.5970   43.1600 C   0  0  0  0  0  0  0  0  0  0  0  0
   38.3210   27.9650   43.4380 C   0  0  0  0  0  0  0  0  0  0  0  0
   38.8690   28.9950   42.7150 C   0  0  0  0  0  0  0  0  0  0  0  0
   35.3450   27.8200   42.1320 H   0  0  0  0  0  0  0  0  0  0  0  0
   36.6950   26.7700   43.7850 H   0  0  0  0  0  0  0  0  0  0  0  0
   38.9550   27.4950   44.2060 H   0  0  0  0  0  0  0  0  0  0  0  0
   39.9010   29.2950   42.9370 H   0  0  0  0  0  0  0  0  0  0  0  0
   38.9960   30.9500   40.8910 S   0  0  0  0  0  0  0  0  0  0  0  0
   40.3790   31.1940   41.5900 O   0  0  0  0  0  0  0  0  0  0  0  0
   38.2700   32.2420   41.1360 O   0  0  0  0  0  0  0  0  0  0  0  0
   39.5260   30.9390   39.3030 C   0  0  0  0  0  3  0  0  0  0  0  0
   40.8840   30.3100   39.0180 C   0  0  0  0  0  2  0  0  0  0  0  0
   41.0400   30.7550   37.5580 C   0  0  0  0  0  2  0  0  0  0  0  0
   40.5280   32.2010   37.6110 C   0  0  0  0  0  2  0  0  0  0  0  0
   40.0180   32.3720   39.0160 C   0  0  0  0  0  2  0  0  0  0  0  0
  1  2  1  0  0  0  0
  1 23  1  0  0  0  0
  1  3  1  0  0  0  0
  4 10  1  0  0  0  0
  4  5  1  0  0  0  0
  5  1  1  0  0  0  0
  6 11  1  0  0  0  0
  6  5  2  0  0  0  0
  7  6  1  0  0  0  0
  8  7  2  0  0  0  0
  8  9  1  0  0  0  0
  9  4  2  0  0  0  0
 12  8  1  0  0  0  0
 13 12  1  0  0  0  0
 14 12  1  0  0  0  0
 15 16  1  0  0  0  0
 15 12  1  0  0  0  0
 16 20  1  0  0  0  0
 17 16  2  0  0  0  0
 18 19  1  0  0  0  0
 18 17  1  0  0  0  0
 19 15  2  0  0  0  0
 21 17  1  0  0  0  0
 22 18  1  0  0  0  0
 23 24  1  0  0  0  0
 23 27  1  0  0  0  0
 25 23  1  0  0  0  0
 26 31  1  0  0  0  0
 27 26  2  0  0  0  0
 27 28  1  0  0  0  0
 28 29  2  0  0  0  0
 29 30  1  0  0  0  0
 29 33  1  0  0  0  0
 30 34  1  0  0  0  0
 31 35  1  0  0  0  0
 31 30  2  0  0  0  0
 32 28  1  0  0  0  0
 36 38  2  0  0  0  0
 36 37  2  0  0  0  0
 36 26  1  0  0  0  0
 39 36  1  0  0  0  0
 40 39  1  0  0  0  0
 41 42  1  0  0  0  0
 41 40  1  0  0  0  0
 42 43  1  0  0  0  0
 43 39  1  0  0  0  0
M  END
>  <minimizedAffinity>
-5.70665693

$$$$
