
 OpenBabel03252503433D

 30 32  0  0  1  0  0  0  0  0999 V2000
   45.0300   34.7590   44.8860 C   0  0  0  0  0  0  0  0  0  0  0  0
   45.0490   34.1840   43.6070 C   0  0  0  0  0  0  0  0  0  0  0  0
   45.3670   32.8220   43.5300 C   0  0  0  0  0  0  0  0  0  0  0  0
   45.6360   32.1350   44.6570 N   0  0  0  0  0  0  0  0  0  0  0  0
   45.6090   32.7160   45.8670 C   0  0  0  0  0  0  0  0  0  0  0  0
   45.3040   34.0440   46.0030 N   0  0  0  0  0  0  0  0  0  0  0  0
   44.8040   35.7830   45.0980 H   0  0  0  0  0  0  0  0  0  0  0  0
   45.3770   32.4050   42.5470 H   0  0  0  0  0  0  0  0  0  0  0  0
   47.3700   31.9950   47.4790 C   0  0  2  0  0  0  0  0  0  0  0  0
   45.9030   31.8600   47.0150 C   0  0  1  0  0  0  0  0  0  0  0  0
   45.2540   32.1980   48.1700 O   0  0  0  0  0  0  0  0  0  0  0  0
   45.8710   31.5460   49.1970 C   0  0  0  0  0  0  0  0  0  0  0  0
   47.2450   31.1120   48.7320 C   0  0  2  0  0  0  0  0  0  0  0  0
   48.0720   31.6030   46.7450 H   0  0  0  0  0  0  0  0  0  0  0  0
   45.7710   30.7950   46.7210 H   0  0  0  0  0  0  0  0  0  0  0  0
   46.0410   32.2990   50.0080 H   0  0  0  0  0  0  0  0  0  0  0  0
   45.2920   30.7440   49.6570 H   0  0  0  0  0  0  0  0  0  0  0  0
   47.1730   30.0600   48.3890 H   0  0  0  0  0  0  0  0  0  0  0  0
   47.5900   33.2600   47.9150 O   0  0  0  0  0  0  0  0  0  0  0  0
   46.7790   33.6780   48.2670 H   0  0  0  0  0  0  0  0  0  0  0  0
   48.2490   31.3300   49.6300 O   0  0  0  0  0  0  0  0  0  0  0  0
   49.1000   31.2520   49.1540 H   0  0  0  0  0  0  0  0  0  0  0  0
   44.7330   35.0680   42.4770 C   0  0  0  0  0  0  0  0  0  0  0  0
   44.6680   36.1110   42.7600 H   0  0  0  0  0  0  0  0  0  0  0  0
   45.5750   34.9820   41.7510 H   0  0  0  0  0  0  0  0  0  0  0  0
   43.5180   34.5560   41.7380 C   0  0  0  0  0  3  0  0  0  0  0  0
   43.8250   34.3710   40.2530 C   0  0  0  0  0  2  0  0  0  0  0  0
   42.6840   35.0010   39.4990 C   0  0  0  0  0  2  0  0  0  0  0  0
   41.5770   35.0010   40.5340 C   0  0  0  0  0  2  0  0  0  0  0  0
   42.3490   35.4990   41.7640 C   0  0  0  0  0  2  0  0  0  0  0  0
  1  7  1  0  0  0  0
  1  6  1  0  0  0  0
  2  1  2  0  0  0  0
  3  2  1  0  0  0  0
  3  4  2  0  0  0  0
  4  5  1  0  0  0  0
  5  6  2  0  0  0  0
  5 10  1  0  0  0  0
  8  3  1  0  0  0  0
  9 14  1  6  0  0  0
  9 19  1  0  0  0  0
  9 13  1  0  0  0  0
 10 15  1  6  0  0  0
 10  9  1  0  0  0  0
 10 11  1  0  0  0  0
 11 12  1  0  0  0  0
 12 17  1  0  0  0  0
 12 16  1  0  0  0  0
 13 18  1  6  0  0  0
 13 12  1  0  0  0  0
 13 21  1  0  0  0  0
 19 20  1  0  0  0  0
 22 21  1  0  0  0  0
 23 24  1  0  0  0  0
 23  2  1  0  0  0  0
 25 23  1  0  0  0  0
 26 30  1  0  0  0  0
 26 23  1  0  0  0  0
 27 26  1  0  0  0  0
 28 27  1  0  0  0  0
 28 29  1  0  0  0  0
 29 30  1  0  0  0  0
M  END
>  <minimizedAffinity>
-5.65442467

>  <minimizedRMSD>
1.17898953

$$$$
