
 OpenBabel03242518543D

 38 40  0  0  1  0  0  0  0  0999 V2000
   45.7580   31.2540   46.6250 C   0  0  2  0  0  0  0  0  0  0  0  0
   45.8190   30.4970   47.9130 C   0  0  0  0  0  0  0  0  0  0  0  0
   45.0380   29.2460   47.7230 C   0  0  0  0  0  0  0  0  0  0  0  0
   44.3460   29.1090   46.4080 C   0  0  0  0  0  0  0  0  0  0  0  0
   45.3310   29.2630   45.2820 C   0  0  0  0  0  0  0  0  0  0  0  0
   46.2620   30.3590   45.5080 C   0  0  2  0  0  0  0  0  0  0  0  0
   44.6950   31.4330   46.3650 H   0  0  0  0  0  0  0  0  0  0  0  0
   45.3520   31.1710   48.6850 H   0  0  0  0  0  0  0  0  0  0  0  0
   46.8510   30.3300   48.2860 H   0  0  0  0  0  0  0  0  0  0  0  0
   44.2060   29.2570   48.4900 H   0  0  0  0  0  0  0  0  0  0  0  0
   45.5860   28.3040   47.9830 H   0  0  0  0  0  0  0  0  0  0  0  0
   43.9180   28.0810   46.3800 H   0  0  0  0  0  0  0  0  0  0  0  0
   43.4700   29.7840   46.3190 H   0  0  0  0  0  0  0  0  0  0  0  0
   44.6980   29.5150   44.3790 H   0  0  0  0  0  0  0  0  0  0  0  0
   45.7370   28.2600   45.0580 H   0  0  0  0  0  0  0  0  0  0  0  0
   46.4210   31.0120   44.6390 H   0  0  0  0  0  0  0  0  0  0  0  0
   47.5570   29.7310   45.8930 C   0  0  0  0  0  0  0  0  0  0  0  0
   47.4840   28.6450   46.1310 H   0  0  0  0  0  0  0  0  0  0  0  0
   47.9050   30.2070   46.8330 H   0  0  0  0  0  0  0  0  0  0  0  0
   48.6600   29.8430   44.8830 C   0  0  0  0  0  3  0  0  0  0  0  0
   48.8330   28.6040   44.0420 C   0  0  0  0  0  2  0  0  0  0  0  0
   49.9040   29.1360   43.0830 C   0  0  0  0  0  2  0  0  0  0  0  0
   49.2550   30.4450   42.6670 C   0  0  0  0  0  2  0  0  0  0  0  0
   48.2840   30.8160   43.7590 C   0  0  0  0  0  2  0  0  0  0  0  0
   46.4510   32.5670   46.6590 C   0  0  0  0  0  0  0  0  0  0  0  0
   47.3810   32.8320   47.4530 O   0  0  0  0  0  0  0  0  0  0  0  0
   44.6000   35.3420   45.1660 C   0  0  0  0  0  0  0  0  0  0  0  0
   45.1350   35.4560   43.8550 C   0  0  0  0  0  0  0  0  0  0  0  0
   46.1370   34.5620   43.5220 C   0  0  0  0  0  0  0  0  0  0  0  0
   46.4750   33.7010   44.4820 N   0  0  0  0  0  0  0  0  0  0  0  0
   45.9900   33.5830   45.6970 C   0  0  0  0  0  0  0  0  0  0  0  0
   45.0170   34.4390   46.0450 N   0  0  0  0  0  0  0  0  0  0  0  0
   43.8010   36.0460   45.4510 H   0  0  0  0  0  0  0  0  0  0  0  0
   44.7620   36.2100   43.1740 H   0  0  0  0  0  0  0  0  0  0  0  0
   46.6820   34.6700   42.1810 C   0  0  0  0  0  0  0  0  0  0  0  0
   47.3910   33.5130   41.8710 F   0  0  0  0  0  0  0  0  0  0  0  0
   47.5390   35.7220   42.1810 F   0  0  0  0  0  0  0  0  0  0  0  0
   45.6910   34.7710   41.2110 F   0  0  0  0  0  0  0  0  0  0  0  0
  1  7  1  6  0  0  0
  1 25  1  0  0  0  0
  1  2  1  0  0  0  0
  2  9  1  0  0  0  0
  2  8  1  0  0  0  0
  3  2  1  0  0  0  0
  3 11  1  0  0  0  0
  3 10  1  0  0  0  0
  4  3  1  0  0  0  0
  5  6  1  0  0  0  0
  5  4  1  0  0  0  0
  6 16  1  6  0  0  0
  6 17  1  0  0  0  0
  6  1  1  0  0  0  0
 12  4  1  0  0  0  0
 13  4  1  0  0  0  0
 14  5  1  0  0  0  0
 15  5  1  0  0  0  0
 17 18  1  0  0  0  0
 17 19  1  0  0  0  0
 20 17  1  0  0  0  0
 21 20  1  0  0  0  0
 22 21  1  0  0  0  0
 23 22  1  0  0  0  0
 23 24  1  0  0  0  0
 24 20  1  0  0  0  0
 25 26  2  0  0  0  0
 27 33  1  0  0  0  0
 27 32  1  0  0  0  0
 28 27  2  0  0  0  0
 29 28  1  0  0  0  0
 29 30  2  0  0  0  0
 30 31  1  0  0  0  0
 31 32  2  0  0  0  0
 31 25  1  0  0  0  0
 34 28  1  0  0  0  0
 35 29  1  0  0  0  0
 36 35  1  0  0  0  0
 37 35  1  0  0  0  0
 38 35  1  0  0  0  0
M  END
>  <minimizedAffinity>
-5.21601057

>  <minimizedRMSD>
1.13642001

$$$$
