
 OpenBabel03242517003D

 28 30  0  0  0  0  0  0  0  0999 V2000
   46.3450   34.6100   41.8060 C   0  0  0  0  0  0  0  0  0  0  0  0
   47.7190   34.7530   41.7290 C   0  0  0  0  0  0  0  0  0  0  0  0
   48.3510   34.4250   40.5450 C   0  0  0  0  0  0  0  0  0  0  0  0
   47.6230   33.9700   39.4830 C   0  0  0  0  0  0  0  0  0  0  0  0
   46.2660   33.8160   39.5230 C   0  0  0  0  0  0  0  0  0  0  0  0
   45.6430   34.1550   40.7340 C   0  0  0  0  0  0  0  0  0  0  0  0
   48.3000   35.1140   42.5720 H   0  0  0  0  0  0  0  0  0  0  0  0
   49.4180   34.5120   40.4110 H   0  0  0  0  0  0  0  0  0  0  0  0
   48.1190   33.7130   38.5560 H   0  0  0  0  0  0  0  0  0  0  0  0
   45.6540   33.4600   38.7060 H   0  0  0  0  0  0  0  0  0  0  0  0
   44.5740   36.4190   44.6170 C   0  0  0  0  0  0  0  0  0  0  0  0
   45.1400   36.1830   43.3450 C   0  0  0  0  0  0  0  0  0  0  0  0
   45.7280   34.9710   43.0800 C   0  0  0  0  0  0  0  0  0  0  0  0
   45.7310   34.0470   44.0830 N   0  0  0  0  0  0  0  0  0  0  0  0
   45.1940   34.2610   45.3020 C   0  0  0  0  0  0  0  0  0  0  0  0
   44.6090   35.4680   45.5660 N   0  0  0  0  0  0  0  0  0  0  0  0
   44.1100   37.3660   44.8380 H   0  0  0  0  0  0  0  0  0  0  0  0
   45.1230   36.9210   42.5810 H   0  0  0  0  0  0  0  0  0  0  0  0
   45.2490   33.4570   46.0320 H   0  0  0  0  0  0  0  0  0  0  0  0
   43.1050   34.0780   40.0730 C   0  0  0  0  0  0  0  0  0  0  0  0
   43.1200   34.2750   38.8470 O   0  0  0  0  0  0  0  0  0  0  0  0
   44.2440   34.0420   40.9170 N   0  0  0  0  0  0  0  0  0  0  0  0
   44.1910   33.9030   41.9720 H   0  0  0  0  0  0  0  0  0  0  0  0
   41.8150   33.8450   40.8280 C   0  0  0  0  0  3  0  0  0  0  0  0
   40.7380   33.8980   39.7600 C   0  0  0  0  0  2  0  0  0  0  0  0
   40.1780   35.2920   39.7560 C   0  0  0  0  0  2  0  0  0  0  0  0
   40.7610   36.0090   40.9420 C   0  0  0  0  0  2  0  0  0  0  0  0
   41.6090   35.0330   41.7080 C   0  0  0  0  0  2  0  0  0  0  0  0
  1 13  1  0  0  0  0
  2  1  1  0  0  0  0
  2  7  1  0  0  0  0
  3  2  2  0  0  0  0
  4  5  2  0  0  0  0
  4  3  1  0  0  0  0
  5  6  1  0  0  0  0
  6 22  1  0  0  0  0
  6  1  2  0  0  0  0
  8  3  1  0  0  0  0
  9  4  1  0  0  0  0
 10  5  1  0  0  0  0
 11 17  1  0  0  0  0
 11 16  1  0  0  0  0
 12 11  2  0  0  0  0
 13 12  1  0  0  0  0
 13 14  2  0  0  0  0
 14 15  1  0  0  0  0
 15 16  2  0  0  0  0
 15 19  1  0  0  0  0
 18 12  1  0  0  0  0
 20 24  1  0  0  0  0
 20 22  1  0  0  0  0
 21 20  2  0  0  0  0
 22 23  1  0  0  0  0
 24 28  1  0  0  0  0
 25 24  1  0  0  0  0
 26 25  1  0  0  0  0
 26 27  1  0  0  0  0
 27 28  1  0  0  0  0
M  END
>  <minimizedAffinity>
-5.9910388

>  <minimizedRMSD>
1.3248539

$$$$
