
 OpenBabel03242519433D

 30 32  0  0  1  0  0  0  0  0999 V2000
   45.4190   33.6260   40.5460 N   0  0  0  0  0  0  0  0  0  0  0  0
   44.5580   34.7070   40.9370 C   0  0  0  0  0  0  0  0  0  0  0  0
   43.0990   34.3520   40.7950 C   0  0  0  0  0  0  0  0  0  0  0  0
   42.7440   33.8100   39.5260 N   0  0  0  0  0  0  0  0  0  0  0  0
   43.7240   33.0610   38.8710 C   0  0  0  0  0  0  0  0  0  0  0  0
   44.9130   32.6280   39.6630 C   0  0  1  0  0  0  0  0  0  0  0  0
   44.7170   34.8730   42.0350 H   0  0  0  0  0  0  0  0  0  0  0  0
   44.7690   35.6640   40.4600 H   0  0  0  0  0  0  0  0  0  0  0  0
   42.7710   33.6160   41.5720 H   0  0  0  0  0  0  0  0  0  0  0  0
   42.5200   35.2720   41.0120 H   0  0  0  0  0  0  0  0  0  0  0  0
   41.8280   33.3410   39.5950 H   0  0  0  0  0  0  0  0  0  0  0  0
   43.2940   32.1620   38.3810 H   0  0  0  0  0  0  0  0  0  0  0  0
   44.1270   33.6840   38.0280 H   0  0  0  0  0  0  0  0  0  0  0  0
   44.5310   31.8120   40.3310 H   0  0  0  0  0  0  0  0  0  0  0  0
   48.9670   34.3470   41.4380 C   0  0  0  0  0  0  0  0  0  0  0  0
   47.6850   34.5840   40.8940 C   0  0  0  0  0  0  0  0  0  0  0  0
   46.7410   33.5560   41.0340 C   0  0  0  0  0  0  0  0  0  0  0  0
   47.1350   32.3990   41.6900 N   0  0  0  0  0  0  0  0  0  0  0  0
   48.3790   32.2450   42.1840 C   0  0  0  0  0  0  0  0  0  0  0  0
   49.2960   33.2180   42.0580 N   0  0  0  0  0  0  0  0  0  0  0  0
   49.6370   35.2020   41.2810 H   0  0  0  0  0  0  0  0  0  0  0  0
   47.3860   35.4800   40.3890 H   0  0  0  0  0  0  0  0  0  0  0  0
   48.5520   31.3060   42.6650 H   0  0  0  0  0  0  0  0  0  0  0  0
   45.9610   32.1710   38.7440 C   0  0  0  0  0  0  0  0  0  0  0  0
   46.5870   31.1100   38.9700 O   0  0  0  0  0  0  0  0  0  0  0  0
   46.7150   32.4400   37.4970 C   0  0  0  0  0  3  0  0  0  0  0  0
   48.0770   31.7530   37.4730 C   0  0  0  0  0  2  0  0  0  0  0  0
   49.0090   32.7390   38.1280 C   0  0  0  0  0  2  0  0  0  0  0  0
   48.6180   33.9830   37.3580 C   0  0  0  0  0  2  0  0  0  0  0  0
   47.1110   33.8880   37.3570 C   0  0  0  0  0  2  0  0  0  0  0  0
  1  2  1  0  0  0  0
  1 17  1  0  0  0  0
  2  7  1  0  0  0  0
  3  2  1  0  0  0  0
  3 10  1  0  0  0  0
  3  9  1  0  0  0  0
  4 11  1  0  0  0  0
  4  3  1  0  0  0  0
  5  4  1  0  0  0  0
  5  6  1  0  0  0  0
  6 14  1  1  0  0  0
  6  1  1  0  0  0  0
  8  2  1  0  0  0  0
 12  5  1  0  0  0  0
 13  5  1  0  0  0  0
 15 20  1  0  0  0  0
 16 17  1  0  0  0  0
 16 15  2  0  0  0  0
 17 18  2  0  0  0  0
 18 19  1  0  0  0  0
 19 23  1  0  0  0  0
 20 19  2  0  0  0  0
 21 15  1  0  0  0  0
 22 16  1  0  0  0  0
 24 25  2  0  0  0  0
 24  6  1  0  0  0  0
 26 24  1  0  0  0  0
 27 26  1  0  0  0  0
 27 28  1  0  0  0  0
 29 28  1  0  0  0  0
 30 29  1  0  0  0  0
 30 26  1  0  0  0  0
M  END
>  <minimizedAffinity>
-3.3489759

>  <minimizedRMSD>
5.16286325

$$$$
