
 OpenBabel03252504013D

 30 33  0  0  0  0  0  0  0  0999 V2000
   36.2690   27.0090   39.4870 C   0  0  0  0  0  0  0  0  0  0  0  0
   35.7080   28.2820   39.3760 C   0  0  0  0  0  0  0  0  0  0  0  0
   35.8220   29.1680   40.4150 C   0  0  0  0  0  0  0  0  0  0  0  0
   36.4900   28.7880   41.5610 C   0  0  0  0  0  0  0  0  0  0  0  0
   36.7650   29.4040   42.7180 N   0  0  0  0  0  0  0  0  0  0  0  0
   37.4540   28.6190   43.5480 C   0  0  0  0  0  0  0  0  0  0  0  0
   37.6540   27.4030   42.9100 C   0  0  0  0  0  0  0  0  0  0  0  0
   37.0500   27.5200   41.6770 C   0  0  0  0  0  0  0  0  0  0  0  0
   36.9320   26.6310   40.6240 C   0  0  0  0  0  0  0  0  0  0  0  0
   36.2040   26.2660   38.6850 H   0  0  0  0  0  0  0  0  0  0  0  0
   35.3920   30.1550   40.3390 H   0  0  0  0  0  0  0  0  0  0  0  0
   36.4830   30.3810   42.9610 H   0  0  0  0  0  0  0  0  0  0  0  0
   37.8140   28.8540   44.5580 H   0  0  0  0  0  0  0  0  0  0  0  0
   38.1650   26.5370   43.2770 H   0  0  0  0  0  0  0  0  0  0  0  0
   37.3710   25.6440   40.7190 H   0  0  0  0  0  0  0  0  0  0  0  0
   33.0480   29.0580   37.0040 C   0  0  0  0  0  0  0  0  0  0  0  0
   33.7100   29.2030   35.7870 C   0  0  0  0  0  0  0  0  0  0  0  0
   35.0950   29.0290   35.7860 C   0  0  0  0  0  0  0  0  0  0  0  0
   35.7080   28.7340   36.9570 N   0  0  0  0  0  0  0  0  0  0  0  0
   35.0160   28.6020   38.1270 C   0  0  0  0  0  0  0  0  0  0  0  0
   33.6890   28.7660   38.1430 N   0  0  0  0  0  0  0  0  0  0  0  0
   33.2650   29.4340   34.8400 H   0  0  0  0  0  0  0  0  0  0  0  0
   35.6920   29.1220   34.8840 H   0  0  0  0  0  0  0  0  0  0  0  0
   31.6250   29.2500   36.9310 C   0  0  0  0  0  0  0  0  0  0  0  0
   30.7920   28.5100   36.3340 O   0  0  0  0  0  0  0  0  0  0  0  0
   31.0040   30.4300   37.6080 C   0  0  0  0  0  3  0  0  0  0  0  0
   30.4280   31.4020   36.6130 C   0  0  0  0  0  2  0  0  0  0  0  0
   29.1500   31.8570   37.2460 C   0  0  0  0  0  2  0  0  0  0  0  0
   28.9620   31.1290   38.5380 C   0  0  0  0  0  2  0  0  0  0  0  0
   29.8350   29.9210   38.4260 C   0  0  0  0  0  2  0  0  0  0  0  0
  1  9  1  0  0  0  0
  2  1  2  0  0  0  0
  2  3  1  0  0  0  0
  3  4  2  0  0  0  0
  4  8  1  0  0  0  0
  4  5  1  0  0  0  0
  5 12  1  0  0  0  0
  5  6  1  0  0  0  0
  6 13  1  0  0  0  0
  7 14  1  0  0  0  0
  7  6  2  0  0  0  0
  8  7  1  0  0  0  0
  9 15  1  0  0  0  0
  9  8  2  0  0  0  0
 10  1  1  0  0  0  0
 11  3  1  0  0  0  0
 16 21  1  0  0  0  0
 17 16  2  0  0  0  0
 18 17  1  0  0  0  0
 18 19  2  0  0  0  0
 19 20  1  0  0  0  0
 20 21  2  0  0  0  0
 20  2  1  0  0  0  0
 22 17  1  0  0  0  0
 23 18  1  0  0  0  0
 24 16  1  0  0  0  0
 24 26  1  0  0  0  0
 25 24  2  0  0  0  0
 26 30  1  0  0  0  0
 27 28  1  0  0  0  0
 27 26  1  0  0  0  0
 28 29  1  0  0  0  0
 30 29  1  0  0  0  0
M  END
>  <minimizedAffinity>
-5.98715401

$$$$

 OpenBabel03252504013D

 30 33  0  0  0  0  0  0  0  0999 V2000
   35.8690   29.5860   38.8320 C   0  0  0  0  0  0  0  0  0  0  0  0
   37.1790   30.0110   38.6050 C   0  0  0  0  0  0  0  0  0  0  0  0
   37.6610   30.0710   37.3240 C   0  0  0  0  0  0  0  0  0  0  0  0
   36.8440   29.7090   36.2730 C   0  0  0  0  0  0  0  0  0  0  0  0
   37.0130   29.6600   34.9460 N   0  0  0  0  0  0  0  0  0  0  0  0
   35.9120   29.2370   34.3200 C   0  0  0  0  0  0  0  0  0  0  0  0
   34.9470   28.9890   35.2850 C   0  0  0  0  0  0  0  0  0  0  0  0
   35.5380   29.2850   36.4950 C   0  0  0  0  0  0  0  0  0  0  0  0
   35.0570   29.2270   37.7900 C   0  0  0  0  0  0  0  0  0  0  0  0
   35.4380   29.5210   39.8380 H   0  0  0  0  0  0  0  0  0  0  0  0
   38.6730   30.3980   37.1380 H   0  0  0  0  0  0  0  0  0  0  0  0
   37.8910   29.9160   34.4410 H   0  0  0  0  0  0  0  0  0  0  0  0
   35.7600   29.0980   33.2420 H   0  0  0  0  0  0  0  0  0  0  0  0
   33.9450   28.6380   35.1470 H   0  0  0  0  0  0  0  0  0  0  0  0
   34.0380   28.8960   37.9580 H   0  0  0  0  0  0  0  0  0  0  0  0
   39.1750   29.7290   41.6450 C   0  0  0  0  0  0  0  0  0  0  0  0
   39.4770   31.0480   41.9760 C   0  0  0  0  0  0  0  0  0  0  0  0
   38.9840   32.0480   41.1380 C   0  0  0  0  0  0  0  0  0  0  0  0
   38.2480   31.6820   40.0610 N   0  0  0  0  0  0  0  0  0  0  0  0
   37.9780   30.3740   39.7770 C   0  0  0  0  0  0  0  0  0  0  0  0
   38.4440   29.4040   40.5710 N   0  0  0  0  0  0  0  0  0  0  0  0
   40.0530   31.3810   42.8160 H   0  0  0  0  0  0  0  0  0  0  0  0
   39.1700   33.1030   41.3190 H   0  0  0  0  0  0  0  0  0  0  0  0
   39.7140   28.7520   42.5520 C   0  0  0  0  0  0  0  0  0  0  0  0
   40.9270   28.6080   42.8750 O   0  0  0  0  0  0  0  0  0  0  0  0
   38.7960   27.7740   43.2140 C   0  0  0  0  0  3  0  0  0  0  0  0
   37.5250   28.4340   43.6800 C   0  0  0  0  0  2  0  0  0  0  0  0
   36.4590   27.4280   43.3750 C   0  0  0  0  0  2  0  0  0  0  0  0
   37.0840   26.2490   42.7010 C   0  0  0  0  0  2  0  0  0  0  0  0
   38.3850   26.7580   42.1700 C   0  0  0  0  0  2  0  0  0  0  0  0
  1 10  1  0  0  0  0
  2  1  1  0  0  0  0
  2 20  1  0  0  0  0
  3  2  2  0  0  0  0
  4  8  2  0  0  0  0
  4  3  1  0  0  0  0
  5  4  1  0  0  0  0
  6  5  1  0  0  0  0
  6  7  2  0  0  0  0
  7  8  1  0  0  0  0
  8  9  1  0  0  0  0
  9 15  1  0  0  0  0
  9  1  2  0  0  0  0
 11  3  1  0  0  0  0
 12  5  1  0  0  0  0
 13  6  1  0  0  0  0
 14  7  1  0  0  0  0
 16 17  1  0  0  0  0
 16 24  1  0  0  0  0
 17 22  1  0  0  0  0
 18 23  1  0  0  0  0
 18 17  2  0  0  0  0
 19 18  1  0  0  0  0
 20 19  2  0  0  0  0
 20 21  1  0  0  0  0
 21 16  2  0  0  0  0
 24 25  2  0  0  0  0
 24 26  1  0  0  0  0
 26 27  1  0  0  0  0
 28 27  1  0  0  0  0
 29 28  1  0  0  0  0
 30 29  1  0  0  0  0
 30 26  1  0  0  0  0
M  END
>  <minimizedAffinity>
-5.91672659

$$$$

 OpenBabel03252504013D

 30 33  0  0  0  0  0  0  0  0999 V2000
   40.8030   29.8080   37.5890 C   0  0  0  0  0  0  0  0  0  0  0  0
   41.0030   31.1170   38.0320 C   0  0  0  0  0  0  0  0  0  0  0  0
   42.1180   31.8060   37.6310 C   0  0  0  0  0  0  0  0  0  0  0  0
   43.0290   31.1970   36.7930 C   0  0  0  0  0  0  0  0  0  0  0  0
   44.1820   31.5900   36.2390 N   0  0  0  0  0  0  0  0  0  0  0  0
   44.7230   30.6330   35.4830 C   0  0  0  0  0  0  0  0  0  0  0  0
   43.8820   29.5300   35.5320 C   0  0  0  0  0  0  0  0  0  0  0  0
   42.8330   29.8930   36.3500 C   0  0  0  0  0  0  0  0  0  0  0  0
   41.7060   29.2020   36.7580 C   0  0  0  0  0  0  0  0  0  0  0  0
   39.9290   29.2170   37.8810 H   0  0  0  0  0  0  0  0  0  0  0  0
   42.2820   32.8180   37.9670 H   0  0  0  0  0  0  0  0  0  0  0  0
   44.6230   32.5290   36.3700 H   0  0  0  0  0  0  0  0  0  0  0  0
   45.6600   30.6720   34.9120 H   0  0  0  0  0  0  0  0  0  0  0  0
   44.0000   28.5830   35.0480 H   0  0  0  0  0  0  0  0  0  0  0  0
   41.5580   28.1860   36.4090 H   0  0  0  0  0  0  0  0  0  0  0  0
   38.1930   31.3810   40.3410 C   0  0  0  0  0  0  0  0  0  0  0  0
   38.0810   32.7480   40.5850 C   0  0  0  0  0  0  0  0  0  0  0  0
   38.9890   33.5900   39.9410 C   0  0  0  0  0  0  0  0  0  0  0  0
   39.9180   33.0340   39.1270 N   0  0  0  0  0  0  0  0  0  0  0  0
   39.9880   31.6860   38.9190 C   0  0  0  0  0  0  0  0  0  0  0  0
   39.1240   30.8670   39.5280 N   0  0  0  0  0  0  0  0  0  0  0  0
   37.3630   33.2290   41.2190 H   0  0  0  0  0  0  0  0  0  0  0  0
   38.9760   34.6680   40.0730 H   0  0  0  0  0  0  0  0  0  0  0  0
   37.2250   30.5750   41.0350 C   0  0  0  0  0  0  0  0  0  0  0  0
   36.0150   30.8670   41.2540 O   0  0  0  0  0  0  0  0  0  0  0  0
   37.6300   29.2420   41.5800 C   0  0  0  0  0  3  0  0  0  0  0  0
   38.1550   29.3550   42.9870 C   0  0  0  0  0  2  0  0  0  0  0  0
   37.6020   28.1480   43.6800 C   0  0  0  0  0  2  0  0  0  0  0  0
   36.7360   27.3930   42.7220 C   0  0  0  0  0  2  0  0  0  0  0  0
   36.3840   28.3860   41.6620 C   0  0  0  0  0  2  0  0  0  0  0  0
  1 10  1  0  0  0  0
  1  2  1  0  0  0  0
  2 20  1  0  0  0  0
  3 11  1  0  0  0  0
  3  2  2  0  0  0  0
  4  3  1  0  0  0  0
  5 12  1  0  0  0  0
  5  4  1  0  0  0  0
  6  7  2  0  0  0  0
  6  5  1  0  0  0  0
  7  8  1  0  0  0  0
  8  9  1  0  0  0  0
  8  4  2  0  0  0  0
  9  1  2  0  0  0  0
 13  6  1  0  0  0  0
 14  7  1  0  0  0  0
 15  9  1  0  0  0  0
 16 17  1  0  0  0  0
 16 24  1  0  0  0  0
 17 22  1  0  0  0  0
 18 23  1  0  0  0  0
 18 17  2  0  0  0  0
 19 18  1  0  0  0  0
 20 19  2  0  0  0  0
 20 21  1  0  0  0  0
 21 16  2  0  0  0  0
 24 25  2  0  0  0  0
 24 26  1  0  0  0  0
 26 30  1  0  0  0  0
 26 27  1  0  0  0  0
 27 28  1  0  0  0  0
 29 28  1  0  0  0  0
 30 29  1  0  0  0  0
M  END
>  <minimizedAffinity>
-5.86610079

$$$$

 OpenBabel03252504013D

 30 33  0  0  0  0  0  0  0  0999 V2000
   35.8930   29.3380   37.2130 C   0  0  0  0  0  0  0  0  0  0  0  0
   35.1850   29.2200   38.4110 C   0  0  0  0  0  0  0  0  0  0  0  0
   33.8540   28.8980   38.3840 C   0  0  0  0  0  0  0  0  0  0  0  0
   33.2280   28.6950   37.1720 C   0  0  0  0  0  0  0  0  0  0  0  0
   31.9760   28.3780   36.8190 N   0  0  0  0  0  0  0  0  0  0  0  0
   31.8390   28.2870   35.4950 C   0  0  0  0  0  0  0  0  0  0  0  0
   33.0740   28.5600   34.9240 C   0  0  0  0  0  0  0  0  0  0  0  0
   33.9290   28.8120   35.9750 C   0  0  0  0  0  0  0  0  0  0  0  0
   35.2730   29.1370   36.0090 C   0  0  0  0  0  0  0  0  0  0  0  0
   36.9570   29.5940   37.1830 H   0  0  0  0  0  0  0  0  0  0  0  0
   33.2980   28.8040   39.3050 H   0  0  0  0  0  0  0  0  0  0  0  0
   31.1860   28.2160   37.4850 H   0  0  0  0  0  0  0  0  0  0  0  0
   30.9340   28.0450   34.9240 H   0  0  0  0  0  0  0  0  0  0  0  0
   33.3360   28.5790   33.8860 H   0  0  0  0  0  0  0  0  0  0  0  0
   35.8150   29.2270   35.0740 H   0  0  0  0  0  0  0  0  0  0  0  0
   36.8390   28.6290   41.6070 C   0  0  0  0  0  0  0  0  0  0  0  0
   37.3140   29.8840   41.9810 C   0  0  0  0  0  0  0  0  0  0  0  0
   37.0590   30.9490   41.1160 C   0  0  0  0  0  0  0  0  0  0  0  0
   36.3720   30.7030   39.9750 N   0  0  0  0  0  0  0  0  0  0  0  0
   35.9260   29.4530   39.6520 C   0  0  0  0  0  0  0  0  0  0  0  0
   36.1630   28.4230   40.4700 N   0  0  0  0  0  0  0  0  0  0  0  0
   37.8600   30.1230   42.8720 H   0  0  0  0  0  0  0  0  0  0  0  0
   37.3920   31.9610   41.3270 H   0  0  0  0  0  0  0  0  0  0  0  0
   37.1370   27.5800   42.5440 C   0  0  0  0  0  0  0  0  0  0  0  0
   36.4640   27.2650   43.5660 O   0  0  0  0  0  0  0  0  0  0  0  0
   38.3580   26.7390   42.3460 C   0  0  0  0  0  3  0  0  0  0  0  0
   39.2480   26.7580   43.5610 C   0  0  0  0  0  2  0  0  0  0  0  0
   39.7370   25.3470   43.6760 C   0  0  0  0  0  2  0  0  0  0  0  0
   39.1060   24.5250   42.5990 C   0  0  0  0  0  2  0  0  0  0  0  0
   37.9010   25.3050   42.1810 C   0  0  0  0  0  2  0  0  0  0  0  0
  1  2  1  0  0  0  0
  2 20  1  0  0  0  0
  3  2  2  0  0  0  0
  3 11  1  0  0  0  0
  4  3  1  0  0  0  0
  5  4  1  0  0  0  0
  5 12  1  0  0  0  0
  6  5  1  0  0  0  0
  7  6  2  0  0  0  0
  7  8  1  0  0  0  0
  8  9  1  0  0  0  0
  8  4  2  0  0  0  0
  9  1  2  0  0  0  0
 10  1  1  0  0  0  0
 13  6  1  0  0  0  0
 14  7  1  0  0  0  0
 15  9  1  0  0  0  0
 16 17  1  0  0  0  0
 16 24  1  0  0  0  0
 17 22  1  0  0  0  0
 18 23  1  0  0  0  0
 18 17  2  0  0  0  0
 19 18  1  0  0  0  0
 20 19  2  0  0  0  0
 20 21  1  0  0  0  0
 21 16  2  0  0  0  0
 24 25  2  0  0  0  0
 26 24  1  0  0  0  0
 26 27  1  0  0  0  0
 27 28  1  0  0  0  0
 29 28  1  0  0  0  0
 30 26  1  0  0  0  0
 30 29  1  0  0  0  0
M  END
>  <minimizedAffinity>
-5.77933693

$$$$

 OpenBabel03252504013D

 30 33  0  0  0  0  0  0  0  0999 V2000
   40.9370   31.9850   40.9680 C   0  0  0  0  0  0  0  0  0  0  0  0
   39.8440   31.8520   40.1100 C   0  0  0  0  0  0  0  0  0  0  0  0
   39.9140   32.3580   38.8380 C   0  0  0  0  0  0  0  0  0  0  0  0
   41.0650   32.9930   38.4220 C   0  0  0  0  0  0  0  0  0  0  0  0
   41.4350   33.5770   37.2750 N   0  0  0  0  0  0  0  0  0  0  0  0
   42.6760   34.0660   37.3440 C   0  0  0  0  0  0  0  0  0  0  0  0
   43.1660   33.7940   38.6130 C   0  0  0  0  0  0  0  0  0  0  0  0
   42.1570   33.1280   39.2730 C   0  0  0  0  0  0  0  0  0  0  0  0
   42.0800   32.6150   40.5560 C   0  0  0  0  0  0  0  0  0  0  0  0
   40.9300   31.5980   41.9920 H   0  0  0  0  0  0  0  0  0  0  0  0
   39.0740   32.2600   38.1670 H   0  0  0  0  0  0  0  0  0  0  0  0
   40.8410   33.6510   36.4180 H   0  0  0  0  0  0  0  0  0  0  0  0
   43.2380   34.5930   36.5620 H   0  0  0  0  0  0  0  0  0  0  0  0
   44.1250   34.0410   39.0200 H   0  0  0  0  0  0  0  0  0  0  0  0
   42.9340   32.7220   41.2150 H   0  0  0  0  0  0  0  0  0  0  0  0
   37.7490   29.4480   41.8790 C   0  0  0  0  0  0  0  0  0  0  0  0
   36.4480   29.8740   41.6180 C   0  0  0  0  0  0  0  0  0  0  0  0
   36.2940   31.0070   40.8190 C   0  0  0  0  0  0  0  0  0  0  0  0
   37.4060   31.6220   40.3490 N   0  0  0  0  0  0  0  0  0  0  0  0
   38.6620   31.1660   40.6330 C   0  0  0  0  0  0  0  0  0  0  0  0
   38.8250   30.0810   41.3970 N   0  0  0  0  0  0  0  0  0  0  0  0
   35.5430   29.4190   41.9680 H   0  0  0  0  0  0  0  0  0  0  0  0
   35.3180   31.4100   40.5640 H   0  0  0  0  0  0  0  0  0  0  0  0
   37.8320   28.2750   42.7070 C   0  0  0  0  0  0  0  0  0  0  0  0
   37.0780   27.9790   43.6770 O   0  0  0  0  0  0  0  0  0  0  0  0
   38.9020   27.2630   42.4460 C   0  0  0  0  0  3  0  0  0  0  0  0
   39.7910   27.0730   43.6470 C   0  0  0  0  0  2  0  0  0  0  0  0
   40.0490   25.5980   43.6790 C   0  0  0  0  0  2  0  0  0  0  0  0
   39.2880   24.9480   42.5680 C   0  0  0  0  0  2  0  0  0  0  0  0
   38.2210   25.9310   42.2110 C   0  0  0  0  0  2  0  0  0  0  0  0
  1 10  1  0  0  0  0
  2 20  1  0  0  0  0
  2  1  2  0  0  0  0
  3  2  1  0  0  0  0
  4  3  2  0  0  0  0
  4  8  1  0  0  0  0
  5  6  1  0  0  0  0
  5  4  1  0  0  0  0
  6  7  2  0  0  0  0
  7 14  1  0  0  0  0
  7  8  1  0  0  0  0
  8  9  2  0  0  0  0
  9  1  1  0  0  0  0
  9 15  1  0  0  0  0
 11  3  1  0  0  0  0
 12  5  1  0  0  0  0
 13  6  1  0  0  0  0
 16 24  1  0  0  0  0
 17 16  1  0  0  0  0
 17 22  1  0  0  0  0
 18 17  2  0  0  0  0
 19 20  2  0  0  0  0
 19 18  1  0  0  0  0
 20 21  1  0  0  0  0
 21 16  2  0  0  0  0
 23 18  1  0  0  0  0
 24 25  2  0  0  0  0
 26 24  1  0  0  0  0
 26 27  1  0  0  0  0
 27 28  1  0  0  0  0
 29 28  1  0  0  0  0
 30 26  1  0  0  0  0
 30 29  1  0  0  0  0
M  END
>  <minimizedAffinity>
-5.76864672

$$$$

 OpenBabel03252504013D

 30 33  0  0  0  0  0  0  0  0999 V2000
   41.0350   33.4080   39.4160 C   0  0  0  0  0  0  0  0  0  0  0  0
   40.7610   32.4210   38.4670 C   0  0  0  0  0  0  0  0  0  0  0  0
   41.7340   32.0460   37.5770 C   0  0  0  0  0  0  0  0  0  0  0  0
   42.9730   32.6500   37.6310 C   0  0  0  0  0  0  0  0  0  0  0  0
   44.1000   32.5090   36.9230 N   0  0  0  0  0  0  0  0  0  0  0  0
   45.0620   33.3300   37.3510 C   0  0  0  0  0  0  0  0  0  0  0  0
   44.5490   34.0650   38.4100 C   0  0  0  0  0  0  0  0  0  0  0  0
   43.2500   33.6340   38.5740 C   0  0  0  0  0  0  0  0  0  0  0  0
   42.2640   34.0080   39.4690 C   0  0  0  0  0  0  0  0  0  0  0  0
   40.2910   33.7420   40.1470 H   0  0  0  0  0  0  0  0  0  0  0  0
   41.5320   31.2840   36.8400 H   0  0  0  0  0  0  0  0  0  0  0  0
   44.2330   31.8440   36.1270 H   0  0  0  0  0  0  0  0  0  0  0  0
   46.0830   33.4340   36.9620 H   0  0  0  0  0  0  0  0  0  0  0  0
   45.0370   34.8170   38.9940 H   0  0  0  0  0  0  0  0  0  0  0  0
   42.4850   34.7750   40.2030 H   0  0  0  0  0  0  0  0  0  0  0  0
   37.6840   30.8680   39.6580 C   0  0  0  0  0  0  0  0  0  0  0  0
   36.9060   30.7320   38.5110 C   0  0  0  0  0  0  0  0  0  0  0  0
   37.4530   31.1820   37.3080 C   0  0  0  0  0  0  0  0  0  0  0  0
   38.6960   31.7220   37.3280 N   0  0  0  0  0  0  0  0  0  0  0  0
   39.4210   31.8340   38.4790 C   0  0  0  0  0  0  0  0  0  0  0  0
   38.9100   31.4060   39.6390 N   0  0  0  0  0  0  0  0  0  0  0  0
   35.9220   30.3120   38.4500 H   0  0  0  0  0  0  0  0  0  0  0  0
   36.9180   31.1160   36.3650 H   0  0  0  0  0  0  0  0  0  0  0  0
   37.0590   30.3820   40.8590 C   0  0  0  0  0  0  0  0  0  0  0  0
   36.0700   30.8950   41.4570 O   0  0  0  0  0  0  0  0  0  0  0  0
   37.5870   29.1480   41.5180 C   0  0  0  0  0  3  0  0  0  0  0  0
   37.9870   29.4090   42.9450 C   0  0  0  0  0  2  0  0  0  0  0  0
   37.5390   28.1830   43.6800 C   0  0  0  0  0  2  0  0  0  0  0  0
   36.8500   27.2680   42.7200 C   0  0  0  0  0  2  0  0  0  0  0  0
   36.4550   28.1430   41.5750 C   0  0  0  0  0  2  0  0  0  0  0  0
  1  9  1  0  0  0  0
  1 10  1  0  0  0  0
  2 20  1  0  0  0  0
  2  1  2  0  0  0  0
  3  4  2  0  0  0  0
  3  2  1  0  0  0  0
  4  8  1  0  0  0  0
  5  6  1  0  0  0  0
  5  4  1  0  0  0  0
  6  7  2  0  0  0  0
  7  8  1  0  0  0  0
  7 14  1  0  0  0  0
  8  9  2  0  0  0  0
  9 15  1  0  0  0  0
 11  3  1  0  0  0  0
 12  5  1  0  0  0  0
 13  6  1  0  0  0  0
 16 24  1  0  0  0  0
 17 16  2  0  0  0  0
 18 19  2  0  0  0  0
 18 17  1  0  0  0  0
 19 20  1  0  0  0  0
 20 21  2  0  0  0  0
 21 16  1  0  0  0  0
 22 17  1  0  0  0  0
 23 18  1  0  0  0  0
 24 25  2  0  0  0  0
 24 26  1  0  0  0  0
 26 30  1  0  0  0  0
 26 27  1  0  0  0  0
 27 28  1  0  0  0  0
 29 28  1  0  0  0  0
 30 29  1  0  0  0  0
M  END
>  <minimizedAffinity>
-5.72410822

$$$$

 OpenBabel03252504013D

 30 33  0  0  0  0  0  0  0  0999 V2000
   37.1560   28.9380   38.5600 C   0  0  0  0  0  0  0  0  0  0  0  0
   36.4220   28.6790   39.7190 C   0  0  0  0  0  0  0  0  0  0  0  0
   35.0540   28.6270   39.6590 C   0  0  0  0  0  0  0  0  0  0  0  0
   34.4190   28.8310   38.4510 C   0  0  0  0  0  0  0  0  0  0  0  0
   33.1350   28.8450   38.0730 N   0  0  0  0  0  0  0  0  0  0  0  0
   33.0030   29.0920   36.7680 C   0  0  0  0  0  0  0  0  0  0  0  0
   34.2750   29.2540   36.2390 C   0  0  0  0  0  0  0  0  0  0  0  0
   35.1470   29.0900   37.2940 C   0  0  0  0  0  0  0  0  0  0  0  0
   36.5270   29.1420   37.3620 C   0  0  0  0  0  0  0  0  0  0  0  0
   38.2500   28.9900   38.5580 H   0  0  0  0  0  0  0  0  0  0  0  0
   34.4780   28.4270   40.5490 H   0  0  0  0  0  0  0  0  0  0  0  0
   32.3190   28.6830   38.7070 H   0  0  0  0  0  0  0  0  0  0  0  0
   32.0760   29.1620   36.1850 H   0  0  0  0  0  0  0  0  0  0  0  0
   34.5510   29.4640   35.2260 H   0  0  0  0  0  0  0  0  0  0  0  0
   37.0900   29.3430   36.4570 H   0  0  0  0  0  0  0  0  0  0  0  0
   38.4420   27.0940   42.3100 C   0  0  0  0  0  0  0  0  0  0  0  0
   38.5900   28.0850   43.2780 C   0  0  0  0  0  0  0  0  0  0  0  0
   37.9830   29.3170   43.0320 C   0  0  0  0  0  0  0  0  0  0  0  0
   37.2930   29.4770   41.8770 N   0  0  0  0  0  0  0  0  0  0  0  0
   37.1750   28.4750   40.9570 C   0  0  0  0  0  0  0  0  0  0  0  0
   37.7520   27.2890   41.1790 N   0  0  0  0  0  0  0  0  0  0  0  0
   39.1250   28.0010   44.2030 H   0  0  0  0  0  0  0  0  0  0  0  0
   38.0460   30.1460   43.7310 H   0  0  0  0  0  0  0  0  0  0  0  0
   39.0920   25.8520   42.6290 C   0  0  0  0  0  0  0  0  0  0  0  0
   40.2330   25.7090   43.1530 O   0  0  0  0  0  0  0  0  0  0  0  0
   38.3990   24.5600   42.3340 C   0  0  0  0  0  3  0  0  0  0  0  0
   36.9180   24.7550   42.1450 C   0  0  0  0  0  2  0  0  0  0  0  0
   36.5710   23.8370   41.0140 C   0  0  0  0  0  2  0  0  0  0  0  0
   37.8190   23.1770   40.5250 C   0  0  0  0  0  2  0  0  0  0  0  0
   38.9300   24.0520   41.0090 C   0  0  0  0  0  2  0  0  0  0  0  0
  1  2  1  0  0  0  0
  2 20  1  0  0  0  0
  3  2  2  0  0  0  0
  3 11  1  0  0  0  0
  4  3  1  0  0  0  0
  5  4  1  0  0  0  0
  5 12  1  0  0  0  0
  6  5  1  0  0  0  0
  7  6  2  0  0  0  0
  7  8  1  0  0  0  0
  8  9  1  0  0  0  0
  8  4  2  0  0  0  0
  9  1  2  0  0  0  0
 10  1  1  0  0  0  0
 13  6  1  0  0  0  0
 14  7  1  0  0  0  0
 15  9  1  0  0  0  0
 16 24  1  0  0  0  0
 16 17  1  0  0  0  0
 17 22  1  0  0  0  0
 18 17  2  0  0  0  0
 18 23  1  0  0  0  0
 19 18  1  0  0  0  0
 20 21  1  0  0  0  0
 20 19  2  0  0  0  0
 21 16  2  0  0  0  0
 24 25  2  0  0  0  0
 26 24  1  0  0  0  0
 27 26  1  0  0  0  0
 28 27  1  0  0  0  0
 29 30  1  0  0  0  0
 29 28  1  0  0  0  0
 30 26  1  0  0  0  0
M  END
>  <minimizedAffinity>
-5.66034651

$$$$

 OpenBabel03252504013D

 30 33  0  0  0  0  0  0  0  0999 V2000
   37.3150   30.2770   39.4530 C   0  0  0  0  0  0  0  0  0  0  0  0
   37.5100   28.9100   39.6600 C   0  0  0  0  0  0  0  0  0  0  0  0
   37.4340   28.0460   38.6000 C   0  0  0  0  0  0  0  0  0  0  0  0
   37.1650   28.5380   37.3390 C   0  0  0  0  0  0  0  0  0  0  0  0
   37.0300   27.9700   36.1350 N   0  0  0  0  0  0  0  0  0  0  0  0
   36.7660   28.8720   35.1860 C   0  0  0  0  0  0  0  0  0  0  0  0
   36.7200   30.1190   35.7910 C   0  0  0  0  0  0  0  0  0  0  0  0
   36.9700   29.8990   37.1290 C   0  0  0  0  0  0  0  0  0  0  0  0
   37.0470   30.7670   38.2040 C   0  0  0  0  0  0  0  0  0  0  0  0
   37.3650   31.0070   40.2680 H   0  0  0  0  0  0  0  0  0  0  0  0
   37.5840   26.9880   38.7490 H   0  0  0  0  0  0  0  0  0  0  0  0
   37.1180   26.9470   35.9380 H   0  0  0  0  0  0  0  0  0  0  0  0
   36.6060   28.6970   34.1140 H   0  0  0  0  0  0  0  0  0  0  0  0
   36.5310   31.0710   35.3380 H   0  0  0  0  0  0  0  0  0  0  0  0
   36.8950   31.8270   38.0340 H   0  0  0  0  0  0  0  0  0  0  0  0
   38.5300   26.8350   42.4810 C   0  0  0  0  0  0  0  0  0  0  0  0
   38.3170   27.6460   43.5930 C   0  0  0  0  0  0  0  0  0  0  0  0
   37.8120   28.9270   43.3650 C   0  0  0  0  0  0  0  0  0  0  0  0
   37.5640   29.3040   42.0880 N   0  0  0  0  0  0  0  0  0  0  0  0
   37.7890   28.4730   41.0280 C   0  0  0  0  0  0  0  0  0  0  0  0
   38.2720   27.2430   41.2310 N   0  0  0  0  0  0  0  0  0  0  0  0
   38.4980   27.3880   44.6180 H   0  0  0  0  0  0  0  0  0  0  0  0
   37.6150   29.6270   44.1720 H   0  0  0  0  0  0  0  0  0  0  0  0
   39.0490   25.5310   42.7900 C   0  0  0  0  0  0  0  0  0  0  0  0
   40.1090   25.2700   43.4270 O   0  0  0  0  0  0  0  0  0  0  0  0
   38.3050   24.3150   42.3360 C   0  0  0  0  0  3  0  0  0  0  0  0
   36.8470   24.6110   42.1030 C   0  0  0  0  0  2  0  0  0  0  0  0
   36.5090   23.8290   40.8720 C   0  0  0  0  0  2  0  0  0  0  0  0
   37.7440   23.1500   40.3740 C   0  0  0  0  0  2  0  0  0  0  0  0
   38.8730   23.9090   40.9920 C   0  0  0  0  0  2  0  0  0  0  0  0
  1  2  1  0  0  0  0
  1 10  1  0  0  0  0
  2 20  1  0  0  0  0
  3 11  1  0  0  0  0
  3  2  2  0  0  0  0
  4  3  1  0  0  0  0
  5  4  1  0  0  0  0
  6  7  2  0  0  0  0
  6  5  1  0  0  0  0
  7  8  1  0  0  0  0
  8  4  2  0  0  0  0
  8  9  1  0  0  0  0
  9  1  2  0  0  0  0
 12  5  1  0  0  0  0
 13  6  1  0  0  0  0
 14  7  1  0  0  0  0
 15  9  1  0  0  0  0
 16 24  1  0  0  0  0
 16 17  1  0  0  0  0
 17 22  1  0  0  0  0
 18 17  2  0  0  0  0
 18 23  1  0  0  0  0
 19 18  1  0  0  0  0
 20 21  1  0  0  0  0
 20 19  2  0  0  0  0
 21 16  2  0  0  0  0
 24 25  2  0  0  0  0
 26 24  1  0  0  0  0
 27 26  1  0  0  0  0
 28 27  1  0  0  0  0
 29 28  1  0  0  0  0
 29 30  1  0  0  0  0
 30 26  1  0  0  0  0
M  END
>  <minimizedAffinity>
-5.50033092

$$$$

 OpenBabel03252504013D

 30 33  0  0  0  0  0  0  0  0999 V2000
   36.9770   30.6570   38.1780 C   0  0  0  0  0  0  0  0  0  0  0  0
   37.4530   29.7930   39.1650 C   0  0  0  0  0  0  0  0  0  0  0  0
   38.1260   30.3010   40.2450 C   0  0  0  0  0  0  0  0  0  0  0  0
   38.3250   31.6620   40.3430 C   0  0  0  0  0  0  0  0  0  0  0  0
   38.9260   32.4460   41.2470 N   0  0  0  0  0  0  0  0  0  0  0  0
   38.8650   33.7360   40.9070 C   0  0  0  0  0  0  0  0  0  0  0  0
   38.1820   33.8220   39.7020 C   0  0  0  0  0  0  0  0  0  0  0  0
   37.8520   32.5280   39.3620 C   0  0  0  0  0  0  0  0  0  0  0  0
   37.1730   32.0080   38.2740 C   0  0  0  0  0  0  0  0  0  0  0  0
   36.4340   30.2990   37.2970 H   0  0  0  0  0  0  0  0  0  0  0  0
   38.4990   29.6410   41.0140 H   0  0  0  0  0  0  0  0  0  0  0  0
   39.3920   32.1100   42.1210 H   0  0  0  0  0  0  0  0  0  0  0  0
   39.2690   34.5980   41.4520 H   0  0  0  0  0  0  0  0  0  0  0  0
   37.9480   34.6980   39.1330 H   0  0  0  0  0  0  0  0  0  0  0  0
   36.8060   32.6870   37.5120 H   0  0  0  0  0  0  0  0  0  0  0  0
   36.9530   26.2540   39.8950 C   0  0  0  0  0  0  0  0  0  0  0  0
   36.7260   25.6790   38.6470 C   0  0  0  0  0  0  0  0  0  0  0  0
   36.7470   26.5260   37.5380 C   0  0  0  0  0  0  0  0  0  0  0  0
   36.9830   27.8450   37.7380 N   0  0  0  0  0  0  0  0  0  0  0  0
   37.2010   28.3630   38.9820 C   0  0  0  0  0  0  0  0  0  0  0  0
   37.1840   27.5640   40.0550 N   0  0  0  0  0  0  0  0  0  0  0  0
   36.5370   24.6440   38.4440 H   0  0  0  0  0  0  0  0  0  0  0  0
   36.5800   26.1640   36.5270 H   0  0  0  0  0  0  0  0  0  0  0  0
   36.9190   25.3240   40.9910 C   0  0  0  0  0  0  0  0  0  0  0  0
   36.4190   24.1630   40.9820 O   0  0  0  0  0  0  0  0  0  0  0  0
   37.5180   25.7110   42.3060 C   0  0  0  0  0  3  0  0  0  0  0  0
   38.9790   26.0500   42.1720 C   0  0  0  0  0  2  0  0  0  0  0  0
   39.1650   27.2250   43.0800 C   0  0  0  0  0  2  0  0  0  0  0  0
   37.8440   27.5930   43.6760 C   0  0  0  0  0  2  0  0  0  0  0  0
   36.8310   26.9810   42.7630 C   0  0  0  0  0  2  0  0  0  0  0  0
  1  9  2  0  0  0  0
  1  2  1  0  0  0  0
  2  3  2  0  0  0  0
  3  4  1  0  0  0  0
  3 11  1  0  0  0  0
  4  5  1  0  0  0  0
  5 12  1  0  0  0  0
  6  5  1  0  0  0  0
  6 13  1  0  0  0  0
  7  6  2  0  0  0  0
  8  7  1  0  0  0  0
  8  4  2  0  0  0  0
  9  8  1  0  0  0  0
 10  1  1  0  0  0  0
 14  7  1  0  0  0  0
 15  9  1  0  0  0  0
 16 21  1  0  0  0  0
 16 24  1  0  0  0  0
 17 16  2  0  0  0  0
 18 19  2  0  0  0  0
 18 17  1  0  0  0  0
 19 20  1  0  0  0  0
 20  2  1  0  0  0  0
 20 21  2  0  0  0  0
 22 17  1  0  0  0  0
 23 18  1  0  0  0  0
 24 26  1  0  0  0  0
 25 24  2  0  0  0  0
 26 30  1  0  0  0  0
 27 26  1  0  0  0  0
 27 28  1  0  0  0  0
 28 29  1  0  0  0  0
 30 29  1  0  0  0  0
M  END
>  <minimizedAffinity>
-5.43294621

$$$$
