
 OpenBabel03242519413D

 25 27  0  0  1  0  0  0  0  0999 V2000
   48.2120   32.9700   42.2500 O   0  0  0  0  0  0  0  0  0  0  0  0
   47.3090   33.9780   41.5270 P   0  0  2  0  0  0  0  0  0  0  0  0
   45.6980   33.7680   42.0660 O   0  0  0  0  0  0  0  0  0  0  0  0
   44.3760   35.9440   44.6730 C   0  0  0  0  0  0  0  0  0  0  0  0
   44.7270   35.4520   43.3950 C   0  0  0  0  0  0  0  0  0  0  0  0
   45.3710   34.2130   43.3280 C   0  0  0  0  0  0  0  0  0  0  0  0
   45.6260   33.5490   44.4780 N   0  0  0  0  0  0  0  0  0  0  0  0
   45.2790   34.0440   45.6870 C   0  0  0  0  0  0  0  0  0  0  0  0
   44.6620   35.2230   45.7990 N   0  0  0  0  0  0  0  0  0  0  0  0
   43.8770   36.8990   44.7440 H   0  0  0  0  0  0  0  0  0  0  0  0
   44.4590   36.0950   42.5570 H   0  0  0  0  0  0  0  0  0  0  0  0
   45.5610   33.3800   46.4850 H   0  0  0  0  0  0  0  0  0  0  0  0
   47.3770   33.6970   39.8880 O   0  0  0  0  0  0  0  0  0  0  0  0
   46.6380   32.8310   39.1290 C   0  0  1  0  0  3  0  0  0  0  0  0
   46.0340   33.3070   38.0490 O   0  0  0  0  0  0  0  0  0  0  0  0
   46.0160   31.5790   38.6910 C   0  0  0  0  0  0  0  0  0  0  0  0
   47.0070   30.5940   38.1140 C   0  0  0  0  0  2  0  0  0  0  0  0
   47.5750   29.9090   39.3240 C   0  0  0  0  0  2  0  0  0  0  0  0
   46.7500   30.2900   40.4940 C   0  0  0  0  0  2  0  0  0  0  0  0
   45.4870   30.8500   39.9380 C   0  0  0  0  0  2  0  0  0  0  0  0
   47.8200   35.4870   41.9540 O   0  0  0  0  0  0  0  0  0  0  0  0
   49.0590   35.8130   41.4270 C   0  0  0  0  0  0  0  0  0  0  0  0
   49.4840   37.0850   41.7940 F   0  0  0  0  0  0  0  0  0  0  0  0
   49.9690   34.8530   41.7370 F   0  0  0  0  0  0  0  0  0  0  0  0
   48.8990   35.8530   40.0510 F   0  0  0  0  0  0  0  0  0  0  0  0
  2 21  1  0  0  0  0
  2  3  1  0  0  0  0
  2  1  2  1  0  0  0
  3  6  1  0  0  0  0
  4 10  1  0  0  0  0
  4  9  1  0  0  0  0
  5  4  2  0  0  0  0
  6  5  1  0  0  0  0
  6  7  2  0  0  0  0
  7  8  1  0  0  0  0
  8  9  2  0  0  0  0
  8 12  1  0  0  0  0
 11  5  1  0  0  0  0
 13  2  1  0  0  0  0
 14 13  1  6  0  0  0
 15 16  1  0  0  0  0
 15 14  1  0  0  0  0
 16 14  1  0  0  0  0
 16 20  1  0  0  0  0
 17 16  1  0  0  0  0
 17 18  1  0  0  0  0
 18 19  1  0  0  0  0
 20 19  1  0  0  0  0
 22 24  1  0  0  0  0
 22 23  1  0  0  0  0
 22 21  1  0  0  0  0
 25 22  1  0  0  0  0
M  END
>  <minimizedAffinity>
-4.60859203

>  <minimizedRMSD>
0.248794749

$$$$
