
 OpenBabel03242519433D

 25 27  0  0  1  0  0  0  0  0999 V2000
   38.9310   28.4550   39.6420 O   0  0  0  0  0  0  0  0  0  0  0  0
   37.7710   29.4450   39.8180 P   0  0  2  0  0  0  0  0  0  0  0  0
   38.0570   30.8160   38.8340 O   0  0  0  0  0  0  0  0  0  0  0  0
   38.4790   34.1610   40.2180 C   0  0  0  0  0  0  0  0  0  0  0  0
   37.8750   33.0220   39.6380 C   0  0  0  0  0  0  0  0  0  0  0  0
   38.6810   31.9050   39.4020 C   0  0  0  0  0  0  0  0  0  0  0  0
   39.9900   31.9650   39.7360 N   0  0  0  0  0  0  0  0  0  0  0  0
   40.5420   33.0690   40.2890 C   0  0  0  0  0  0  0  0  0  0  0  0
   39.8090   34.1590   40.5330 N   0  0  0  0  0  0  0  0  0  0  0  0
   37.8700   35.0320   40.4080 H   0  0  0  0  0  0  0  0  0  0  0  0
   36.8100   33.1170   39.4210 H   0  0  0  0  0  0  0  0  0  0  0  0
   41.5900   32.9330   40.4870 H   0  0  0  0  0  0  0  0  0  0  0  0
   37.6960   29.9220   41.4110 O   0  0  0  0  0  0  0  0  0  0  0  0
   37.9910   29.2080   42.5400 C   0  0  1  0  0  3  0  0  0  0  0  0
   39.1190   29.4890   43.1790 O   0  0  0  0  0  0  0  0  0  0  0  0
   37.8480   28.2280   43.6190 C   0  0  0  0  0  0  0  0  0  0  0  0
   36.5700   27.4270   43.5300 C   0  0  0  0  0  2  0  0  0  0  0  0
   36.9020   26.3330   42.5570 C   0  0  0  0  0  2  0  0  0  0  0  0
   38.3660   26.3550   42.3260 C   0  0  0  0  0  2  0  0  0  0  0  0
   38.9420   27.1600   43.4380 C   0  0  0  0  0  2  0  0  0  0  0  0
   36.4010   28.6920   39.2940 O   0  0  0  0  0  0  0  0  0  0  0  0
   35.2440   29.2170   39.8470 C   0  0  0  0  0  0  0  0  0  0  0  0
   34.8910   28.6040   41.0440 F   0  0  0  0  0  0  0  0  0  0  0  0
   35.3510   30.5660   39.9680 F   0  0  0  0  0  0  0  0  0  0  0  0
   34.2200   28.9260   38.9590 F   0  0  0  0  0  0  0  0  0  0  0  0
  2  1  2  6  0  0  0
  2 13  1  0  0  0  0
  3  6  1  0  0  0  0
  3  2  1  0  0  0  0
  4 10  1  0  0  0  0
  4  9  1  0  0  0  0
  5  4  2  0  0  0  0
  6  5  1  0  0  0  0
  6  7  2  0  0  0  0
  7  8  1  0  0  0  0
  8 12  1  0  0  0  0
  8  9  2  0  0  0  0
 11  5  1  0  0  0  0
 14 13  1  1  0  0  0
 14 15  1  0  0  0  0
 14 16  1  0  0  0  0
 15 16  1  0  0  0  0
 17 16  1  0  0  0  0
 18 17  1  0  0  0  0
 19 18  1  0  0  0  0
 19 20  1  0  0  0  0
 20 16  1  0  0  0  0
 21  2  1  0  0  0  0
 21 22  1  0  0  0  0
 22 24  1  0  0  0  0
 22 23  1  0  0  0  0
 25 22  1  0  0  0  0
M  END
>  <minimizedAffinity>
-5.0579586

$$$$

 OpenBabel03242519433D

 25 27  0  0  1  0  0  0  0  0999 V2000
   35.3930   29.1510   40.7880 O   0  0  0  0  0  0  0  0  0  0  0  0
   36.6280   29.8230   40.1700 P   0  0  2  0  0  0  0  0  0  0  0  0
   36.8850   29.1780   38.6060 O   0  0  0  0  0  0  0  0  0  0  0  0
   33.7990   28.4790   36.7980 C   0  0  0  0  0  0  0  0  0  0  0  0
   34.8600   29.1900   37.4040 C   0  0  0  0  0  0  0  0  0  0  0  0
   35.8690   28.4500   38.0270 C   0  0  0  0  0  0  0  0  0  0  0  0
   35.7850   27.1010   38.0220 N   0  0  0  0  0  0  0  0  0  0  0  0
   34.7570   26.4460   37.4350 C   0  0  0  0  0  0  0  0  0  0  0  0
   33.7710   27.1120   36.8280 N   0  0  0  0  0  0  0  0  0  0  0  0
   33.0110   29.0340   36.3130 H   0  0  0  0  0  0  0  0  0  0  0  0
   34.7970   30.2760   37.3300 H   0  0  0  0  0  0  0  0  0  0  0  0
   34.8580   25.3800   37.5300 H   0  0  0  0  0  0  0  0  0  0  0  0
   37.9580   29.5020   41.1180 O   0  0  0  0  0  0  0  0  0  0  0  0
   38.0090   29.0490   42.4090 C   0  0  1  0  0  3  0  0  0  0  0  0
   38.6920   29.7630   43.2930 O   0  0  0  0  0  0  0  0  0  0  0  0
   37.7670   28.1920   43.5720 C   0  0  0  0  0  0  0  0  0  0  0  0
   36.5280   27.3390   43.4350 C   0  0  0  0  0  2  0  0  0  0  0  0
   36.9960   26.1550   42.6370 C   0  0  0  0  0  2  0  0  0  0  0  0
   38.4760   26.2060   42.5700 C   0  0  0  0  0  2  0  0  0  0  0  0
   38.9000   27.1520   43.6380 C   0  0  0  0  0  2  0  0  0  0  0  0
   36.2940   31.4320   40.0340 O   0  0  0  0  0  0  0  0  0  0  0  0
   37.2380   32.1250   39.2940 C   0  0  0  0  0  0  0  0  0  0  0  0
   37.1290   33.5040   39.4350 F   0  0  0  0  0  0  0  0  0  0  0  0
   38.4860   31.6710   39.5820 F   0  0  0  0  0  0  0  0  0  0  0  0
   36.9600   31.8590   37.9620 F   0  0  0  0  0  0  0  0  0  0  0  0
  2  1  2  1  0  0  0
  2 13  1  0  0  0  0
  3  2  1  0  0  0  0
  4  9  2  0  0  0  0
  4  5  1  0  0  0  0
  5  6  2  0  0  0  0
  6  3  1  0  0  0  0
  7  6  1  0  0  0  0
  8 12  1  0  0  0  0
  8  7  2  0  0  0  0
  9  8  1  0  0  0  0
 10  4  1  0  0  0  0
 11  5  1  0  0  0  0
 14 13  1  1  0  0  0
 14 15  1  0  0  0  0
 14 16  1  0  0  0  0
 15 16  1  0  0  0  0
 16 20  1  0  0  0  0
 17 16  1  0  0  0  0
 18 17  1  0  0  0  0
 19 18  1  0  0  0  0
 19 20  1  0  0  0  0
 21  2  1  0  0  0  0
 22 23  1  0  0  0  0
 22 24  1  0  0  0  0
 22 21  1  0  0  0  0
 25 22  1  0  0  0  0
M  END
>  <minimizedAffinity>
-4.88785553

$$$$

 OpenBabel03242519433D

 25 27  0  0  1  0  0  0  0  0999 V2000
   39.6710   28.9070   39.9390 O   0  0  0  0  0  0  0  0  0  0  0  0
   38.4430   29.8260   39.9950 P   0  0  2  0  0  0  0  0  0  0  0  0
   38.6520   30.9530   41.2660 O   0  0  0  0  0  0  0  0  0  0  0  0
   41.7010   32.9260   40.9700 C   0  0  0  0  0  0  0  0  0  0  0  0
   40.3970   32.4390   40.7260 C   0  0  0  0  0  0  0  0  0  0  0  0
   39.9260   31.4020   41.5360 C   0  0  0  0  0  0  0  0  0  0  0  0
   40.7320   30.9170   42.5080 N   0  0  0  0  0  0  0  0  0  0  0  0
   41.9760   31.4020   42.7190 C   0  0  0  0  0  0  0  0  0  0  0  0
   42.4680   32.3930   41.9690 N   0  0  0  0  0  0  0  0  0  0  0  0
   42.0810   33.7270   40.3540 H   0  0  0  0  0  0  0  0  0  0  0  0
   39.8620   32.9240   39.9100 H   0  0  0  0  0  0  0  0  0  0  0  0
   42.4680   30.8970   43.5310 H   0  0  0  0  0  0  0  0  0  0  0  0
   37.0870   28.9100   40.2950 O   0  0  0  0  0  0  0  0  0  0  0  0
   36.9810   27.7110   40.9450 C   0  0  1  0  0  3  0  0  0  0  0  0
   36.5780   26.6570   40.2490 O   0  0  0  0  0  0  0  0  0  0  0  0
   37.0350   26.7320   42.0340 C   0  0  0  0  0  0  0  0  0  0  0  0
   38.4430   26.3110   42.3870 C   0  0  0  0  0  2  0  0  0  0  0  0
   38.9170   27.3940   43.3130 C   0  0  0  0  0  2  0  0  0  0  0  0
   37.7470   28.2270   43.6790 C   0  0  0  0  0  2  0  0  0  0  0  0
   36.5460   27.4250   43.3190 C   0  0  0  0  0  2  0  0  0  0  0  0
   38.3780   30.6450   38.5650 O   0  0  0  0  0  0  0  0  0  0  0  0
   37.1470   31.2360   38.3300 C   0  0  0  0  0  0  0  0  0  0  0  0
   36.2140   30.3500   37.8030 F   0  0  0  0  0  0  0  0  0  0  0  0
   36.6990   31.8510   39.4560 F   0  0  0  0  0  0  0  0  0  0  0  0
   37.3550   32.1920   37.3480 F   0  0  0  0  0  0  0  0  0  0  0  0
  2  1  2  6  0  0  0
  2 13  1  0  0  0  0
  2  3  1  0  0  0  0
  3  6  1  0  0  0  0
  4  9  1  0  0  0  0
  5  4  2  0  0  0  0
  5  6  1  0  0  0  0
  6  7  2  0  0  0  0
  7  8  1  0  0  0  0
  8 12  1  0  0  0  0
  9  8  2  0  0  0  0
 10  4  1  0  0  0  0
 11  5  1  0  0  0  0
 14 13  1  6  0  0  0
 14 16  1  0  0  0  0
 15 14  1  0  0  0  0
 15 16  1  0  0  0  0
 16 17  1  0  0  0  0
 16 20  1  0  0  0  0
 17 18  1  0  0  0  0
 18 19  1  0  0  0  0
 20 19  1  0  0  0  0
 21  2  1  0  0  0  0
 22 21  1  0  0  0  0
 22 24  1  0  0  0  0
 23 22  1  0  0  0  0
 25 22  1  0  0  0  0
M  END
>  <minimizedAffinity>
-4.77278662

$$$$

 OpenBabel03242519433D

 25 27  0  0  1  0  0  0  0  0999 V2000
   37.5580   28.5970   43.5560 O   0  0  0  0  0  0  0  0  0  0  0  0
   37.5060   28.9170   42.0550 P   0  0  2  0  0  0  0  0  0  0  0  0
   38.5750   27.8680   41.2270 O   0  0  0  0  0  0  0  0  0  0  0  0
   38.4110   24.3880   42.2960 C   0  0  0  0  0  0  0  0  0  0  0  0
   38.0700   25.6120   41.6770 C   0  0  0  0  0  0  0  0  0  0  0  0
   38.9410   26.6920   41.8440 C   0  0  0  0  0  0  0  0  0  0  0  0
   40.0600   26.5180   42.5830 N   0  0  0  0  0  0  0  0  0  0  0  0
   40.3610   25.3350   43.1650 C   0  0  0  0  0  0  0  0  0  0  0  0
   39.5580   24.2760   43.0320 N   0  0  0  0  0  0  0  0  0  0  0  0
   37.7490   23.5440   42.1770 H   0  0  0  0  0  0  0  0  0  0  0  0
   37.1380   25.6070   41.1120 H   0  0  0  0  0  0  0  0  0  0  0  0
   41.2860   25.3830   43.7110 H   0  0  0  0  0  0  0  0  0  0  0  0
   37.9890   30.4910   41.8130 O   0  0  0  0  0  0  0  0  0  0  0  0
   38.8520   30.9960   40.8790 C   0  0  1  0  0  3  0  0  0  0  0  0
   40.1170   30.6040   40.9220 O   0  0  0  0  0  0  0  0  0  0  0  0
   39.3300   31.7730   39.7330 C   0  0  0  0  0  0  0  0  0  0  0  0
   38.6340   31.4180   38.4400 C   0  0  0  0  0  2  0  0  0  0  0  0
   37.3690   32.2260   38.4830 C   0  0  0  0  0  2  0  0  0  0  0  0
   37.4800   33.1910   39.6020 C   0  0  0  0  0  2  0  0  0  0  0  0
   38.9260   33.2420   39.9540 C   0  0  0  0  0  2  0  0  0  0  0  0
   35.9660   28.6190   41.5440 O   0  0  0  0  0  0  0  0  0  0  0  0
   35.5820   29.4140   40.4770 C   0  0  0  0  0  0  0  0  0  0  0  0
   35.5130   30.7630   40.8060 F   0  0  0  0  0  0  0  0  0  0  0  0
   36.3840   29.1820   39.4050 F   0  0  0  0  0  0  0  0  0  0  0  0
   34.2860   29.0380   40.1580 F   0  0  0  0  0  0  0  0  0  0  0  0
  2  1  2  1  0  0  0
  3  6  1  0  0  0  0
  3  2  1  0  0  0  0
  4  9  1  0  0  0  0
  5  6  1  0  0  0  0
  5  4  2  0  0  0  0
  6  7  2  0  0  0  0
  7  8  1  0  0  0  0
  8 12  1  0  0  0  0
  9  8  2  0  0  0  0
 10  4  1  0  0  0  0
 11  5  1  0  0  0  0
 13  2  1  0  0  0  0
 14 15  1  0  0  0  0
 14 13  1  6  0  0  0
 16 20  1  0  0  0  0
 16 14  1  0  0  0  0
 16 15  1  0  0  0  0
 17 18  1  0  0  0  0
 17 16  1  0  0  0  0
 18 19  1  0  0  0  0
 19 20  1  0  0  0  0
 21  2  1  0  0  0  0
 22 23  1  0  0  0  0
 22 21  1  0  0  0  0
 24 22  1  0  0  0  0
 25 22  1  0  0  0  0
M  END
>  <minimizedAffinity>
-4.75896215

$$$$

 OpenBabel03242519433D

 25 27  0  0  1  0  0  0  0  0999 V2000
   37.9650   29.7430   39.8910 O   0  0  0  0  0  0  0  0  0  0  0  0
   37.2790   28.9630   41.0210 P   0  0  2  0  0  0  0  0  0  0  0  0
   37.8890   29.5110   42.5230 O   0  0  0  0  0  0  0  0  0  0  0  0
   41.4270   28.7390   42.9290 C   0  0  0  0  0  0  0  0  0  0  0  0
   40.0290   28.5700   42.8050 C   0  0  0  0  0  0  0  0  0  0  0  0
   39.2460   29.7160   42.6400 C   0  0  0  0  0  0  0  0  0  0  0  0
   39.8560   30.9220   42.6060 N   0  0  0  0  0  0  0  0  0  0  0  0
   41.1970   31.0550   42.7280 C   0  0  0  0  0  0  0  0  0  0  0  0
   41.9840   29.9870   42.8880 N   0  0  0  0  0  0  0  0  0  0  0  0
   42.0470   27.8650   43.0580 H   0  0  0  0  0  0  0  0  0  0  0  0
   39.6770   27.5400   42.8500 H   0  0  0  0  0  0  0  0  0  0  0  0
   41.5010   32.0840   42.6780 H   0  0  0  0  0  0  0  0  0  0  0  0
   37.6210   27.3430   40.8520 O   0  0  0  0  0  0  0  0  0  0  0  0
   37.2500   26.2950   41.6500 C   0  0  1  0  0  3  0  0  0  0  0  0
   36.7750   26.5670   42.8580 O   0  0  0  0  0  0  0  0  0  0  0  0
   37.0120   24.9140   42.0770 C   0  0  0  0  0  0  0  0  0  0  0  0
   36.4730   24.0340   40.9730 C   0  0  0  0  0  2  0  0  0  0  0  0
   37.7030   23.6090   40.2230 C   0  0  0  0  0  2  0  0  0  0  0  0
   38.8860   24.0000   41.0260 C   0  0  0  0  0  2  0  0  0  0  0  0
   38.3750   24.2740   42.3970 C   0  0  0  0  0  2  0  0  0  0  0  0
   35.6680   29.3040   40.9450 O   0  0  0  0  0  0  0  0  0  0  0  0
   35.1200   29.0750   39.6930 C   0  0  0  0  0  0  0  0  0  0  0  0
   35.4750   30.0450   38.7630 F   0  0  0  0  0  0  0  0  0  0  0  0
   35.4210   27.8180   39.2720 F   0  0  0  0  0  0  0  0  0  0  0  0
   33.7460   29.1820   39.8430 F   0  0  0  0  0  0  0  0  0  0  0  0
  2  1  2  6  0  0  0
  2  3  1  0  0  0  0
  3  6  1  0  0  0  0
  4 10  1  0  0  0  0
  5 11  1  0  0  0  0
  5  4  2  0  0  0  0
  6  5  1  0  0  0  0
  7  6  2  0  0  0  0
  7  8  1  0  0  0  0
  8  9  2  0  0  0  0
  9  4  1  0  0  0  0
 12  8  1  0  0  0  0
 13  2  1  0  0  0  0
 14 13  1  6  0  0  0
 14 16  1  0  0  0  0
 14 15  1  0  0  0  0
 16 20  1  0  0  0  0
 16 15  1  0  0  0  0
 17 16  1  0  0  0  0
 18 17  1  0  0  0  0
 18 19  1  0  0  0  0
 19 20  1  0  0  0  0
 21  2  1  0  0  0  0
 22 25  1  0  0  0  0
 22 21  1  0  0  0  0
 23 22  1  0  0  0  0
 24 22  1  0  0  0  0
M  END
>  <minimizedAffinity>
-4.74166059

$$$$

 OpenBabel03242519433D

 25 27  0  0  1  0  0  0  0  0999 V2000
   37.9560   28.8990   38.6780 O   0  0  0  0  0  0  0  0  0  0  0  0
   37.0440   28.3620   39.7900 P   0  0  2  0  0  0  0  0  0  0  0  0
   36.6100   29.6540   40.8250 O   0  0  0  0  0  0  0  0  0  0  0  0
   39.2820   32.0820   41.3210 C   0  0  0  0  0  0  0  0  0  0  0  0
   38.5320   30.8860   41.4020 C   0  0  0  0  0  0  0  0  0  0  0  0
   37.3120   30.8340   40.7210 C   0  0  0  0  0  0  0  0  0  0  0  0
   36.9090   31.9210   40.0240 N   0  0  0  0  0  0  0  0  0  0  0  0
   37.6470   33.0520   39.9640 C   0  0  0  0  0  0  0  0  0  0  0  0
   38.8190   33.1460   40.5980 N   0  0  0  0  0  0  0  0  0  0  0  0
   40.2270   32.1390   41.8400 H   0  0  0  0  0  0  0  0  0  0  0  0
   38.9800   30.0930   42.0000 H   0  0  0  0  0  0  0  0  0  0  0  0
   37.1710   33.8080   39.3660 H   0  0  0  0  0  0  0  0  0  0  0  0
   37.8690   27.2130   40.6670 O   0  0  0  0  0  0  0  0  0  0  0  0
   37.3780   26.2510   41.5070 C   0  0  1  0  0  3  0  0  0  0  0  0
   36.9440   26.6290   42.7020 O   0  0  0  0  0  0  0  0  0  0  0  0
   36.9770   24.9280   41.9910 C   0  0  0  0  0  0  0  0  0  0  0  0
   36.4000   24.0480   40.9060 C   0  0  0  0  0  2  0  0  0  0  0  0
   37.6120   23.4580   40.2440 C   0  0  0  0  0  2  0  0  0  0  0  0
   38.7910   23.7700   41.0860 C   0  0  0  0  0  2  0  0  0  0  0  0
   38.2490   24.1710   42.4140 C   0  0  0  0  0  2  0  0  0  0  0  0
   35.6810   27.7790   39.0660 O   0  0  0  0  0  0  0  0  0  0  0  0
   34.7360   28.7600   38.8150 C   0  0  0  0  0  0  0  0  0  0  0  0
   34.0760   29.1820   39.9640 F   0  0  0  0  0  0  0  0  0  0  0  0
   35.2980   29.7920   38.1330 F   0  0  0  0  0  0  0  0  0  0  0  0
   33.7650   28.1720   38.0190 F   0  0  0  0  0  0  0  0  0  0  0  0
  2  1  2  6  0  0  0
  2 13  1  0  0  0  0
  2  3  1  0  0  0  0
  4  5  1  0  0  0  0
  4 10  1  0  0  0  0
  5 11  1  0  0  0  0
  6  3  1  0  0  0  0
  6  5  2  0  0  0  0
  7  6  1  0  0  0  0
  8  7  2  0  0  0  0
  8  9  1  0  0  0  0
  9  4  2  0  0  0  0
 12  8  1  0  0  0  0
 14 13  1  6  0  0  0
 14 16  1  0  0  0  0
 14 15  1  0  0  0  0
 16 20  1  0  0  0  0
 16 15  1  0  0  0  0
 17 16  1  0  0  0  0
 18 17  1  0  0  0  0
 18 19  1  0  0  0  0
 19 20  1  0  0  0  0
 21  2  1  0  0  0  0
 22 21  1  0  0  0  0
 22 23  1  0  0  0  0
 24 22  1  0  0  0  0
 25 22  1  0  0  0  0
M  END
>  <minimizedAffinity>
-4.71678448

$$$$

 OpenBabel03242519433D

 25 27  0  0  1  0  0  0  0  0999 V2000
   38.2940   29.9350   37.8930 O   0  0  0  0  0  0  0  0  0  0  0  0
   38.7580   30.1600   39.3390 P   0  0  2  0  0  0  0  0  0  0  0  0
   40.4270   29.7980   39.4490 O   0  0  0  0  0  0  0  0  0  0  0  0
   42.4630   31.4010   36.8870 C   0  0  0  0  0  0  0  0  0  0  0  0
   41.6690   31.2210   38.0420 C   0  0  0  0  0  0  0  0  0  0  0  0
   41.1980   29.9340   38.3160 C   0  0  0  0  0  0  0  0  0  0  0  0
   41.5220   28.9290   37.4710 N   0  0  0  0  0  0  0  0  0  0  0  0
   42.2840   29.1300   36.3710 C   0  0  0  0  0  0  0  0  0  0  0  0
   42.7550   30.3430   36.0710 N   0  0  0  0  0  0  0  0  0  0  0  0
   42.8350   32.3890   36.6600 H   0  0  0  0  0  0  0  0  0  0  0  0
   41.4890   32.1210   38.6300 H   0  0  0  0  0  0  0  0  0  0  0  0
   42.4370   28.2190   35.8210 H   0  0  0  0  0  0  0  0  0  0  0  0
   37.9110   29.1440   40.3490 O   0  0  0  0  0  0  0  0  0  0  0  0
   37.9560   29.0490   41.7140 C   0  0  1  0  0  3  0  0  0  0  0  0
   38.4790   30.0610   42.3930 O   0  0  0  0  0  0  0  0  0  0  0  0
   37.7770   28.4900   43.0560 C   0  0  0  0  0  0  0  0  0  0  0  0
   36.5840   27.5700   43.1630 C   0  0  0  0  0  2  0  0  0  0  0  0
   37.1040   26.2520   42.6640 C   0  0  0  0  0  2  0  0  0  0  0  0
   38.5770   26.3570   42.5470 C   0  0  0  0  0  2  0  0  0  0  0  0
   38.9650   27.5540   43.3420 C   0  0  0  0  0  2  0  0  0  0  0  0
   38.5370   31.7580   39.6810 O   0  0  0  0  0  0  0  0  0  0  0  0
   37.2870   32.2280   39.3110 C   0  0  0  0  0  0  0  0  0  0  0  0
   37.1910   32.4920   37.9490 F   0  0  0  0  0  0  0  0  0  0  0  0
   36.3190   31.3780   39.7420 F   0  0  0  0  0  0  0  0  0  0  0  0
   37.1260   33.4500   39.9440 F   0  0  0  0  0  0  0  0  0  0  0  0
  2  1  2  6  0  0  0
  2  3  1  0  0  0  0
  2 21  1  0  0  0  0
  2 13  1  0  0  0  0
  4  5  1  0  0  0  0
  5  6  2  0  0  0  0
  5 11  1  0  0  0  0
  6  3  1  0  0  0  0
  7  6  1  0  0  0  0
  8  7  2  0  0  0  0
  9  8  1  0  0  0  0
  9  4  2  0  0  0  0
 10  4  1  0  0  0  0
 12  8  1  0  0  0  0
 14 13  1  1  0  0  0
 14 15  1  0  0  0  0
 14 16  1  0  0  0  0
 15 16  1  0  0  0  0
 16 17  1  0  0  0  0
 16 20  1  0  0  0  0
 18 17  1  0  0  0  0
 19 18  1  0  0  0  0
 19 20  1  0  0  0  0
 22 21  1  0  0  0  0
 22 24  1  0  0  0  0
 22 25  1  0  0  0  0
 23 22  1  0  0  0  0
M  END
>  <minimizedAffinity>
-4.68783283

$$$$

 OpenBabel03242519433D

 25 27  0  0  1  0  0  0  0  0999 V2000
   39.7410   29.2550   39.7540 O   0  0  0  0  0  0  0  0  0  0  0  0
   39.4910   30.5890   40.4710 P   0  0  2  0  0  0  0  0  0  0  0  0
   40.9570   31.4680   40.5350 O   0  0  0  0  0  0  0  0  0  0  0  0
   41.8630   34.1610   38.2510 C   0  0  0  0  0  0  0  0  0  0  0  0
   41.4210   33.4860   39.4130 C   0  0  0  0  0  0  0  0  0  0  0  0
   41.3940   32.0890   39.3850 C   0  0  0  0  0  0  0  0  0  0  0  0
   41.7880   31.4530   38.2590 N   0  0  0  0  0  0  0  0  0  0  0  0
   42.2050   32.1230   37.1610 C   0  0  0  0  0  0  0  0  0  0  0  0
   42.2480   33.4590   37.1430 N   0  0  0  0  0  0  0  0  0  0  0  0
   41.8910   35.2400   38.2550 H   0  0  0  0  0  0  0  0  0  0  0  0
   41.1350   34.1280   40.2460 H   0  0  0  0  0  0  0  0  0  0  0  0
   42.4780   31.4540   36.3650 H   0  0  0  0  0  0  0  0  0  0  0  0
   38.9680   30.2860   42.0220 O   0  0  0  0  0  0  0  0  0  0  0  0
   39.0010   29.1170   42.7320 C   0  0  1  0  0  3  0  0  0  0  0  0
   40.1840   28.6340   43.0840 O   0  0  0  0  0  0  0  0  0  0  0  0
   38.5180   27.9250   43.4320 C   0  0  0  0  0  0  0  0  0  0  0  0
   37.0270   27.9390   43.6740 C   0  0  0  0  0  2  0  0  0  0  0  0
   36.4510   27.4340   42.3830 C   0  0  0  0  0  2  0  0  0  0  0  0
   37.5650   26.9030   41.5620 C   0  0  0  0  0  2  0  0  0  0  0  0
   38.7070   26.7160   42.4980 C   0  0  0  0  0  2  0  0  0  0  0  0
   38.4020   31.4350   39.5660 O   0  0  0  0  0  0  0  0  0  0  0  0
   37.7070   32.3860   40.2960 C   0  0  0  0  0  0  0  0  0  0  0  0
   38.5030   33.0330   41.2350 F   0  0  0  0  0  0  0  0  0  0  0  0
   37.0810   33.2550   39.4610 F   0  0  0  0  0  0  0  0  0  0  0  0
   36.7520   31.6950   41.0250 F   0  0  0  0  0  0  0  0  0  0  0  0
  2  1  2  6  0  0  0
  2  3  1  0  0  0  0
  2 13  1  0  0  0  0
  4 10  1  0  0  0  0
  4  5  1  0  0  0  0
  5 11  1  0  0  0  0
  6  5  2  0  0  0  0
  6  3  1  0  0  0  0
  7  6  1  0  0  0  0
  8  7  2  0  0  0  0
  9  8  1  0  0  0  0
  9  4  2  0  0  0  0
 12  8  1  0  0  0  0
 14 13  1  1  0  0  0
 14 15  1  0  0  0  0
 14 16  1  0  0  0  0
 15 16  1  0  0  0  0
 16 17  1  0  0  0  0
 18 17  1  0  0  0  0
 19 18  1  0  0  0  0
 19 20  1  0  0  0  0
 20 16  1  0  0  0  0
 21 22  1  0  0  0  0
 21  2  1  0  0  0  0
 22 25  1  0  0  0  0
 22 23  1  0  0  0  0
 24 22  1  0  0  0  0
M  END
>  <minimizedAffinity>
-4.68582249

$$$$

 OpenBabel03242519433D

 25 27  0  0  1  0  0  0  0  0999 V2000
   37.4390   29.1130   39.2050 O   0  0  0  0  0  0  0  0  0  0  0  0
   36.5060   29.1600   40.4230 P   0  0  2  0  0  0  0  0  0  0  0  0
   37.0540   30.3780   41.4940 O   0  0  0  0  0  0  0  0  0  0  0  0
   38.0420   33.4060   39.7250 C   0  0  0  0  0  0  0  0  0  0  0  0
   37.2380   32.3730   40.2570 C   0  0  0  0  0  0  0  0  0  0  0  0
   37.8700   31.3670   40.9930 C   0  0  0  0  0  0  0  0  0  0  0  0
   39.2110   31.4270   41.1590 N   0  0  0  0  0  0  0  0  0  0  0  0
   39.9570   32.4270   40.6370 C   0  0  0  0  0  0  0  0  0  0  0  0
   39.3940   33.4100   39.9280 N   0  0  0  0  0  0  0  0  0  0  0  0
   37.5700   34.1920   39.1550 H   0  0  0  0  0  0  0  0  0  0  0  0
   36.1720   32.4540   40.0440 H   0  0  0  0  0  0  0  0  0  0  0  0
   41.0000   32.3100   40.8710 H   0  0  0  0  0  0  0  0  0  0  0  0
   36.5480   27.6900   41.2010 O   0  0  0  0  0  0  0  0  0  0  0  0
   37.1920   27.3420   42.3570 C   0  0  1  0  0  3  0  0  0  0  0  0
   36.4590   27.1310   43.4410 O   0  0  0  0  0  0  0  0  0  0  0  0
   38.2910   27.0150   43.2690 C   0  0  0  0  0  0  0  0  0  0  0  0
   39.0710   25.7920   42.8460 C   0  0  0  0  0  2  0  0  0  0  0  0
   40.0450   26.3220   41.8340 C   0  0  0  0  0  2  0  0  0  0  0  0
   40.0030   27.8020   41.8910 C   0  0  0  0  0  2  0  0  0  0  0  0
   39.3360   28.1420   43.1770 C   0  0  0  0  0  2  0  0  0  0  0  0
   35.0050   29.5700   39.8760 O   0  0  0  0  0  0  0  0  0  0  0  0
   34.6660   28.9370   38.6910 C   0  0  0  0  0  0  0  0  0  0  0  0
   35.1110   29.6230   37.5660 F   0  0  0  0  0  0  0  0  0  0  0  0
   35.0860   27.6460   38.7100 F   0  0  0  0  0  0  0  0  0  0  0  0
   33.2810   28.9580   38.6200 F   0  0  0  0  0  0  0  0  0  0  0  0
  2  1  2  6  0  0  0
  2 13  1  0  0  0  0
  2  3  1  0  0  0  0
  4  9  2  0  0  0  0
  4  5  1  0  0  0  0
  5  6  2  0  0  0  0
  6  7  1  0  0  0  0
  6  3  1  0  0  0  0
  8 12  1  0  0  0  0
  8  7  2  0  0  0  0
  9  8  1  0  0  0  0
 10  4  1  0  0  0  0
 11  5  1  0  0  0  0
 14 13  1  6  0  0  0
 14 16  1  0  0  0  0
 14 15  1  0  0  0  0
 16 15  1  0  0  0  0
 17 16  1  0  0  0  0
 18 19  1  0  0  0  0
 18 17  1  0  0  0  0
 19 20  1  0  0  0  0
 20 16  1  0  0  0  0
 21  2  1  0  0  0  0
 22 24  1  0  0  0  0
 22 21  1  0  0  0  0
 23 22  1  0  0  0  0
 25 22  1  0  0  0  0
M  END
>  <minimizedAffinity>
-4.67586374

$$$$
