
 OpenBabel03242517003D

 28 30  0  0  0  0  0  0  0  0999 V2000
   46.6580   34.7770   41.9610 C   0  0  0  0  0  0  0  0  0  0  0  0
   47.9400   35.2930   41.9010 C   0  0  0  0  0  0  0  0  0  0  0  0
   48.6670   35.1220   40.7390 C   0  0  0  0  0  0  0  0  0  0  0  0
   48.1190   34.4560   39.6800 C   0  0  0  0  0  0  0  0  0  0  0  0
   46.8570   33.9330   39.7040 C   0  0  0  0  0  0  0  0  0  0  0  0
   46.1360   34.1180   40.8930 C   0  0  0  0  0  0  0  0  0  0  0  0
   48.3780   35.8230   42.7410 H   0  0  0  0  0  0  0  0  0  0  0  0
   49.6710   35.4960   40.6190 H   0  0  0  0  0  0  0  0  0  0  0  0
   48.6890   34.3220   38.7700 H   0  0  0  0  0  0  0  0  0  0  0  0
   46.3870   33.3990   38.8880 H   0  0  0  0  0  0  0  0  0  0  0  0
   44.5200   36.1870   44.7440 C   0  0  0  0  0  0  0  0  0  0  0  0
   45.1750   36.0940   43.4980 C   0  0  0  0  0  0  0  0  0  0  0  0
   45.9350   34.9860   43.2130 C   0  0  0  0  0  0  0  0  0  0  0  0
   46.0130   34.0210   44.1720 N   0  0  0  0  0  0  0  0  0  0  0  0
   45.3910   34.0980   45.3680 C   0  0  0  0  0  0  0  0  0  0  0  0
   44.6350   35.2010   45.6510 N   0  0  0  0  0  0  0  0  0  0  0  0
   43.9200   37.0510   44.9810 H   0  0  0  0  0  0  0  0  0  0  0  0
   45.0970   36.8620   42.7670 H   0  0  0  0  0  0  0  0  0  0  0  0
   45.5190   33.2720   46.0630 H   0  0  0  0  0  0  0  0  0  0  0  0
   43.5120   34.1470   40.8710 C   0  0  0  0  0  0  0  0  0  0  0  0
   43.2380   35.3030   40.5110 O   0  0  0  0  0  0  0  0  0  0  0  0
   44.8180   33.6270   41.0570 N   0  0  0  0  0  0  0  0  0  0  0  0
   45.0150   32.6370   41.4000 H   0  0  0  0  0  0  0  0  0  0  0  0
   42.4340   33.1260   41.1630 C   0  0  0  0  0  3  0  0  0  0  0  0
   42.7080   31.9970   40.1870 C   0  0  0  0  0  2  0  0  0  0  0  0
   41.8210   32.2080   38.9940 C   0  0  0  0  0  2  0  0  0  0  0  0
   40.8770   33.3270   39.3340 C   0  0  0  0  0  2  0  0  0  0  0  0
   41.1350   33.7420   40.7540 C   0  0  0  0  0  2  0  0  0  0  0  0
  1 13  1  0  0  0  0
  2  1  1  0  0  0  0
  2  7  1  0  0  0  0
  3  2  2  0  0  0  0
  4  5  2  0  0  0  0
  4  3  1  0  0  0  0
  5  6  1  0  0  0  0
  6 22  1  0  0  0  0
  6  1  2  0  0  0  0
  8  3  1  0  0  0  0
  9  4  1  0  0  0  0
 10  5  1  0  0  0  0
 11 17  1  0  0  0  0
 11 16  1  0  0  0  0
 12 11  2  0  0  0  0
 13 12  1  0  0  0  0
 13 14  2  0  0  0  0
 14 15  1  0  0  0  0
 15 16  2  0  0  0  0
 15 19  1  0  0  0  0
 18 12  1  0  0  0  0
 20 22  1  0  0  0  0
 20 24  1  0  0  0  0
 21 20  2  0  0  0  0
 22 23  1  0  0  0  0
 25 24  1  0  0  0  0
 26 27  1  0  0  0  0
 26 25  1  0  0  0  0
 27 28  1  0  0  0  0
 28 24  1  0  0  0  0
M  END
>  <minimizedAffinity>
-5.85724592

>  <minimizedRMSD>
0.354406685

$$$$
