
 OpenBabel03242518543D

 38 40  0  0  1  0  0  0  0  0999 V2000
   45.8070   31.2120   46.5050 C   0  0  2  0  0  0  0  0  0  0  0  0
   45.5030   30.6330   47.8500 C   0  0  0  0  0  0  0  0  0  0  0  0
   44.7530   29.3690   47.6220 C   0  0  0  0  0  0  0  0  0  0  0  0
   44.4220   29.0600   46.2010 C   0  0  0  0  0  0  0  0  0  0  0  0
   45.6710   29.0610   45.3620 C   0  0  0  0  0  0  0  0  0  0  0  0
   46.5510   30.1760   45.6840 C   0  0  2  0  0  0  0  0  0  0  0  0
   44.8550   31.3570   45.9540 H   0  0  0  0  0  0  0  0  0  0  0  0
   44.8760   31.4050   48.3790 H   0  0  0  0  0  0  0  0  0  0  0  0
   46.3950   30.5160   48.4980 H   0  0  0  0  0  0  0  0  0  0  0  0
   43.7510   29.4840   48.1360 H   0  0  0  0  0  0  0  0  0  0  0  0
   45.1800   28.4690   48.1350 H   0  0  0  0  0  0  0  0  0  0  0  0
   43.9790   28.0380   46.1920 H   0  0  0  0  0  0  0  0  0  0  0  0
   43.6250   29.7180   45.7990 H   0  0  0  0  0  0  0  0  0  0  0  0
   45.3040   29.1920   44.3010 H   0  0  0  0  0  0  0  0  0  0  0  0
   46.0850   28.0370   45.3830 H   0  0  0  0  0  0  0  0  0  0  0  0
   46.9540   30.7070   44.8110 H   0  0  0  0  0  0  0  0  0  0  0  0
   47.6770   29.6030   46.4720 C   0  0  0  0  0  0  0  0  0  0  0  0
   47.4620   28.6030   46.9150 H   0  0  0  0  0  0  0  0  0  0  0  0
   47.8620   30.2670   47.3410 H   0  0  0  0  0  0  0  0  0  0  0  0
   48.9720   29.4400   45.7330 C   0  0  0  0  0  3  0  0  0  0  0  0
   50.1430   29.1330   46.6330 C   0  0  0  0  0  2  0  0  0  0  0  0
   51.2000   28.9080   45.5470 C   0  0  0  0  0  2  0  0  0  0  0  0
   50.4540   27.9360   44.6500 C   0  0  0  0  0  2  0  0  0  0  0  0
   48.9830   28.1420   44.9140 C   0  0  0  0  0  2  0  0  0  0  0  0
   46.5140   32.5170   46.5520 C   0  0  0  0  0  0  0  0  0  0  0  0
   47.4180   32.7790   47.3770 O   0  0  0  0  0  0  0  0  0  0  0  0
   44.7420   35.2850   44.9540 C   0  0  0  0  0  0  0  0  0  0  0  0
   45.3420   35.3930   43.6710 C   0  0  0  0  0  0  0  0  0  0  0  0
   46.3590   34.4970   43.3930 C   0  0  0  0  0  0  0  0  0  0  0  0
   46.6480   33.6410   44.3730 N   0  0  0  0  0  0  0  0  0  0  0  0
   46.1030   33.5290   45.5620 C   0  0  0  0  0  0  0  0  0  0  0  0
   45.1130   34.3860   45.8570 N   0  0  0  0  0  0  0  0  0  0  0  0
   43.9290   35.9900   45.1960 H   0  0  0  0  0  0  0  0  0  0  0  0
   45.0030   36.1430   42.9690 H   0  0  0  0  0  0  0  0  0  0  0  0
   46.9700   34.5990   42.0800 C   0  0  0  0  0  0  0  0  0  0  0  0
   47.7770   33.4870   41.8550 F   0  0  0  0  0  0  0  0  0  0  0  0
   47.7470   35.7110   42.0870 F   0  0  0  0  0  0  0  0  0  0  0  0
   46.0310   34.5910   41.0550 F   0  0  0  0  0  0  0  0  0  0  0  0
  1  7  1  6  0  0  0
  1 25  1  0  0  0  0
  1  2  1  0  0  0  0
  2  8  1  0  0  0  0
  2  9  1  0  0  0  0
  3  2  1  0  0  0  0
  3 11  1  0  0  0  0
  3 10  1  0  0  0  0
  4  3  1  0  0  0  0
  5 15  1  0  0  0  0
  5  6  1  0  0  0  0
  5  4  1  0  0  0  0
  6 16  1  6  0  0  0
  6 17  1  0  0  0  0
  6  1  1  0  0  0  0
 12  4  1  0  0  0  0
 13  4  1  0  0  0  0
 14  5  1  0  0  0  0
 17 18  1  0  0  0  0
 17 19  1  0  0  0  0
 20 17  1  0  0  0  0
 20 21  1  0  0  0  0
 22 21  1  0  0  0  0
 23 24  1  0  0  0  0
 23 22  1  0  0  0  0
 24 20  1  0  0  0  0
 25 26  2  0  0  0  0
 27 33  1  0  0  0  0
 27 32  1  0  0  0  0
 28 27  2  0  0  0  0
 29 28  1  0  0  0  0
 29 30  2  0  0  0  0
 30 31  1  0  0  0  0
 31 32  2  0  0  0  0
 31 25  1  0  0  0  0
 34 28  1  0  0  0  0
 35 37  1  0  0  0  0
 35 29  1  0  0  0  0
 36 35  1  0  0  0  0
 38 35  1  0  0  0  0
M  END
>  <minimizedAffinity>
-5.10710335

>  <minimizedRMSD>
0.679946363

$$$$
