
 OpenBabel03242517003D

 28 30  0  0  0  0  0  0  0  0999 V2000
   46.5910   34.7460   41.8910 C   0  0  0  0  0  0  0  0  0  0  0  0
   47.9490   35.0070   41.8920 C   0  0  0  0  0  0  0  0  0  0  0  0
   48.6720   34.7500   40.7430 C   0  0  0  0  0  0  0  0  0  0  0  0
   48.0470   34.2480   39.6380 C   0  0  0  0  0  0  0  0  0  0  0  0
   46.7080   33.9780   39.6000 C   0  0  0  0  0  0  0  0  0  0  0  0
   45.9920   34.2470   40.7770 C   0  0  0  0  0  0  0  0  0  0  0  0
   48.4490   35.4060   42.7690 H   0  0  0  0  0  0  0  0  0  0  0  0
   49.7330   34.9290   40.6700 H   0  0  0  0  0  0  0  0  0  0  0  0
   48.6140   34.0460   38.7390 H   0  0  0  0  0  0  0  0  0  0  0  0
   46.1740   33.5800   38.7470 H   0  0  0  0  0  0  0  0  0  0  0  0
   44.5340   36.3700   44.6180 C   0  0  0  0  0  0  0  0  0  0  0  0
   45.1900   36.2000   43.3800 C   0  0  0  0  0  0  0  0  0  0  0  0
   45.8750   35.0360   43.1300 C   0  0  0  0  0  0  0  0  0  0  0  0
   45.8820   34.0940   44.1150 N   0  0  0  0  0  0  0  0  0  0  0  0
   45.2590   34.2440   45.3030 C   0  0  0  0  0  0  0  0  0  0  0  0
   44.5770   35.4030   45.5510 N   0  0  0  0  0  0  0  0  0  0  0  0
   43.9930   37.2780   44.8280 H   0  0  0  0  0  0  0  0  0  0  0  0
   45.1680   36.9520   42.6290 H   0  0  0  0  0  0  0  0  0  0  0  0
   45.3260   33.4300   46.0210 H   0  0  0  0  0  0  0  0  0  0  0  0
   43.5350   33.8110   39.9640 C   0  0  0  0  0  0  0  0  0  0  0  0
   43.6300   33.8370   38.7270 O   0  0  0  0  0  0  0  0  0  0  0  0
   44.5990   34.0120   40.8790 N   0  0  0  0  0  0  0  0  0  0  0  0
   44.4730   34.0150   41.9380 H   0  0  0  0  0  0  0  0  0  0  0  0
   42.2150   33.5480   40.6570 C   0  0  0  0  0  3  0  0  0  0  0  0
   41.1810   33.6580   39.5520 C   0  0  0  0  0  2  0  0  0  0  0  0
   40.6260   35.0530   39.5930 C   0  0  0  0  0  2  0  0  0  0  0  0
   41.1640   35.7100   40.8360 C   0  0  0  0  0  2  0  0  0  0  0  0
   41.9790   34.6940   41.5840 C   0  0  0  0  0  2  0  0  0  0  0  0
  1  2  1  0  0  0  0
  1 13  1  0  0  0  0
  2  7  1  0  0  0  0
  3  2  2  0  0  0  0
  4  3  1  0  0  0  0
  5  4  2  0  0  0  0
  5  6  1  0  0  0  0
  6 22  1  0  0  0  0
  6  1  2  0  0  0  0
  8  3  1  0  0  0  0
  9  4  1  0  0  0  0
 10  5  1  0  0  0  0
 11 17  1  0  0  0  0
 11 16  1  0  0  0  0
 12 11  2  0  0  0  0
 13 12  1  0  0  0  0
 13 14  2  0  0  0  0
 14 15  1  0  0  0  0
 15 16  2  0  0  0  0
 15 19  1  0  0  0  0
 18 12  1  0  0  0  0
 20 24  1  0  0  0  0
 20 22  1  0  0  0  0
 21 20  2  0  0  0  0
 22 23  1  0  0  0  0
 24 28  1  0  0  0  0
 25 26  1  0  0  0  0
 25 24  1  0  0  0  0
 26 27  1  0  0  0  0
 27 28  1  0  0  0  0
M  END
>  <minimizedAffinity>
-5.90611553

>  <minimizedRMSD>
1.55151761

$$$$
