
 OpenBabel03252503343D

 18 19  0  0  0  0  0  0  0  0999 V2000
   44.5040   36.0410   44.5840 C   0  0  0  0  0  0  0  0  0  0  0  0
   45.1630   35.9500   43.3510 C   0  0  0  0  0  0  0  0  0  0  0  0
   46.0480   34.8970   43.1310 C   0  0  0  0  0  0  0  0  0  0  0  0
   46.2500   33.9830   44.1220 N   0  0  0  0  0  0  0  0  0  0  0  0
   45.5870   34.1080   45.3100 C   0  0  0  0  0  0  0  0  0  0  0  0
   44.7270   35.1270   45.5310 N   0  0  0  0  0  0  0  0  0  0  0  0
   43.8550   36.8990   44.6100 H   0  0  0  0  0  0  0  0  0  0  0  0
   45.0760   36.6160   42.5050 H   0  0  0  0  0  0  0  0  0  0  0  0
   45.7150   33.4080   46.1220 H   0  0  0  0  0  0  0  0  0  0  0  0
   46.2610   33.9200   40.8560 C   0  0  0  0  0  0  0  0  0  0  0  0
   45.1750   33.3050   41.1420 O   0  0  0  0  0  0  0  0  0  0  0  0
   46.7550   34.7400   41.9050 N   0  0  0  0  0  0  0  0  0  0  0  0
   47.6660   35.2850   41.8600 H   0  0  0  0  0  0  0  0  0  0  0  0
   47.0120   33.8670   39.6080 C   0  0  0  0  0  3  0  0  0  0  0  0
   46.3140   33.1660   38.4670 C   0  0  0  0  0  2  0  0  0  0  0  0
   47.4350   33.2270   37.4170 C   0  0  0  0  0  2  0  0  0  0  0  0
   48.7330   33.1050   38.2120 C   0  0  0  0  0  2  0  0  0  0  0  0
   48.2870   33.0650   39.6790 C   0  0  0  0  0  2  0  0  0  0  0  0
  1  7  1  0  0  0  0
  1  6  1  0  0  0  0
  2  1  2  0  0  0  0
  3  2  1  0  0  0  0
  3  4  2  0  0  0  0
  4  5  1  0  0  0  0
  5  6  2  0  0  0  0
  5  9  1  0  0  0  0
  8  2  1  0  0  0  0
 10 11  2  0  0  0  0
 10 12  1  0  0  0  0
 12  3  1  0  0  0  0
 13 12  1  0  0  0  0
 14 18  1  0  0  0  0
 14 10  1  0  0  0  0
 15 14  1  0  0  0  0
 16 17  1  0  0  0  0
 16 15  1  0  0  0  0
 17 18  1  0  0  0  0
M  END
>  <minimizedAffinity>
-3.9820168

>  <minimizedRMSD>
0.56987679

$$$$
