
 OpenBabel03242521443D

 34 36  0  0  1  0  0  0  0  0999 V2000
   45.6310   35.0830   43.7300 C   0  0  0  0  0  0  0  0  0  0  0  0
   46.7300   34.3710   43.2240 C   0  0  0  0  0  0  0  0  0  0  0  0
   47.2970   33.3520   44.0170 C   0  0  0  0  0  0  0  0  0  0  0  0
   46.7530   33.1220   45.2080 N   0  0  0  0  0  0  0  0  0  0  0  0
   45.6910   33.8210   45.6790 C   0  0  0  0  0  0  0  0  0  0  0  0
   45.1270   34.8040   44.9410 N   0  0  0  0  0  0  0  0  0  0  0  0
   47.0830   34.6520   42.2350 H   0  0  0  0  0  0  0  0  0  0  0  0
   45.2970   33.5790   46.6610 H   0  0  0  0  0  0  0  0  0  0  0  0
   49.3130   33.4610   42.5630 C   0  0  2  0  0  0  0  0  0  0  0  0
   48.4330   32.6440   43.4420 C   0  0  2  0  0  0  0  0  0  0  0  0
   48.0660   31.5890   42.5550 O   0  0  0  0  0  0  0  0  0  0  0  0
   49.2840   31.1770   42.0620 C   0  0  0  0  0  0  0  0  0  0  0  0
   50.2520   32.3310   42.0890 C   0  0  1  0  0  0  0  0  0  0  0  0
   48.8250   33.8020   41.6310 H   0  0  0  0  0  0  0  0  0  0  0  0
   49.0300   32.1830   44.2510 H   0  0  0  0  0  0  0  0  0  0  0  0
   49.1460   30.8860   40.9990 H   0  0  0  0  0  0  0  0  0  0  0  0
   49.6760   30.2810   42.5860 H   0  0  0  0  0  0  0  0  0  0  0  0
   51.0700   32.2190   42.8180 H   0  0  0  0  0  0  0  0  0  0  0  0
   49.9520   34.4890   43.1840 O   0  0  0  0  0  0  0  0  0  0  0  0
   49.8270   34.4320   44.1670 H   0  0  0  0  0  0  0  0  0  0  0  0
   50.7570   32.6690   40.8410 O   0  0  0  0  0  0  0  0  0  0  0  0
   50.0400   32.9590   40.2410 H   0  0  0  0  0  0  0  0  0  0  0  0
   45.0400   36.1720   42.8830 C   0  0  0  0  0  0  0  0  0  0  0  0
   45.7060   36.4010   42.0510 H   0  0  0  0  0  0  0  0  0  0  0  0
   44.0420   35.7870   42.5700 H   0  0  0  0  0  0  0  0  0  0  0  0
   44.8630   38.6950   43.4410 C   0  0  0  0  0  0  0  0  0  0  0  0
   45.0990   38.9560   42.2300 O   0  0  0  0  0  0  0  0  0  0  0  0
   44.8170   37.3070   43.7620 N   0  0  0  0  0  0  0  0  0  0  0  0
   44.5910   37.0670   44.7700 H   0  0  0  0  0  0  0  0  0  0  0  0
   44.6420   39.7090   44.4970 C   0  0  0  0  0  3  0  0  0  0  0  0
   45.6050   40.8510   44.2540 C   0  0  0  0  0  2  0  0  0  0  0  0
   46.9310   40.3890   44.8300 C   0  0  0  0  0  2  0  0  0  0  0  0
   46.4980   39.6240   46.0550 C   0  0  0  0  0  2  0  0  0  0  0  0
   45.1020   39.1090   45.8070 C   0  0  0  0  0  2  0  0  0  0  0  0
  1  6  1  0  0  0  0
  2  1  2  0  0  0  0
  2  3  1  0  0  0  0
  3  4  2  0  0  0  0
  4  5  1  0  0  0  0
  5  8  1  0  0  0  0
  6  5  2  0  0  0  0
  7  2  1  0  0  0  0
  9 14  1  6  0  0  0
  9 19  1  0  0  0  0
  9 10  1  0  0  0  0
 10  3  1  0  0  0  0
 10 15  1  1  0  0  0
 11 10  1  0  0  0  0
 12 13  1  0  0  0  0
 12 11  1  0  0  0  0
 12 17  1  0  0  0  0
 13  9  1  0  0  0  0
 13 18  1  1  0  0  0
 16 12  1  0  0  0  0
 19 20  1  0  0  0  0
 21 13  1  0  0  0  0
 22 21  1  0  0  0  0
 23  1  1  0  0  0  0
 23 28  1  0  0  0  0
 24 23  1  0  0  0  0
 25 23  1  0  0  0  0
 26 28  1  0  0  0  0
 26 30  1  0  0  0  0
 27 26  2  0  0  0  0
 28 29  1  0  0  0  0
 30 34  1  0  0  0  0
 31 30  1  0  0  0  0
 31 32  1  0  0  0  0
 32 33  1  0  0  0  0
 34 33  1  0  0  0  0
M  END
>  <minimizedAffinity>
2.48409534

>  <minimizedRMSD>
1.03087258

$$$$
