
 OpenBabel03242518543D

 38 40  0  0  1  0  0  0  0  0999 V2000
   45.7560   31.2450   46.6140 C   0  0  2  0  0  0  0  0  0  0  0  0
   45.8180   30.4840   47.9000 C   0  0  0  0  0  0  0  0  0  0  0  0
   45.0330   29.2350   47.7070 C   0  0  0  0  0  0  0  0  0  0  0  0
   44.3380   29.1040   46.3940 C   0  0  0  0  0  0  0  0  0  0  0  0
   45.3200   29.2590   45.2650 C   0  0  0  0  0  0  0  0  0  0  0  0
   46.2540   30.3530   45.4930 C   0  0  2  0  0  0  0  0  0  0  0  0
   44.6920   31.4280   46.3570 H   0  0  0  0  0  0  0  0  0  0  0  0
   45.3550   31.1560   48.6750 H   0  0  0  0  0  0  0  0  0  0  0  0
   46.8500   30.3130   48.2690 H   0  0  0  0  0  0  0  0  0  0  0  0
   44.2030   29.2460   48.4760 H   0  0  0  0  0  0  0  0  0  0  0  0
   45.5800   28.2910   47.9630 H   0  0  0  0  0  0  0  0  0  0  0  0
   43.9070   28.0780   46.3630 H   0  0  0  0  0  0  0  0  0  0  0  0
   43.4640   29.7820   46.3090 H   0  0  0  0  0  0  0  0  0  0  0  0
   44.6850   29.5160   44.3660 H   0  0  0  0  0  0  0  0  0  0  0  0
   45.7230   28.2570   45.0370 H   0  0  0  0  0  0  0  0  0  0  0  0
   46.4130   31.0080   44.6260 H   0  0  0  0  0  0  0  0  0  0  0  0
   47.5480   29.7200   45.8720 C   0  0  0  0  0  0  0  0  0  0  0  0
   47.4980   28.6140   45.9930 H   0  0  0  0  0  0  0  0  0  0  0  0
   47.8390   30.1040   46.8720 H   0  0  0  0  0  0  0  0  0  0  0  0
   48.6920   29.9650   44.9340 C   0  0  0  0  0  3  0  0  0  0  0  0
   49.1280   28.7330   44.1820 C   0  0  0  0  0  2  0  0  0  0  0  0
   50.1680   29.3880   43.2690 C   0  0  0  0  0  2  0  0  0  0  0  0
   49.3490   30.5500   42.7300 C   0  0  0  0  0  2  0  0  0  0  0  0
   48.2510   30.8070   43.7290 C   0  0  0  0  0  2  0  0  0  0  0  0
   46.4520   32.5560   46.6500 C   0  0  0  0  0  0  0  0  0  0  0  0
   47.3840   32.8170   47.4440 O   0  0  0  0  0  0  0  0  0  0  0  0
   44.6050   35.3390   45.1670 C   0  0  0  0  0  0  0  0  0  0  0  0
   45.1390   35.4560   43.8560 C   0  0  0  0  0  0  0  0  0  0  0  0
   46.1400   34.5620   43.5190 C   0  0  0  0  0  0  0  0  0  0  0  0
   46.4770   33.6970   44.4770 N   0  0  0  0  0  0  0  0  0  0  0  0
   45.9920   33.5760   45.6910 C   0  0  0  0  0  0  0  0  0  0  0  0
   45.0200   34.4330   46.0430 N   0  0  0  0  0  0  0  0  0  0  0  0
   43.8060   36.0430   45.4550 H   0  0  0  0  0  0  0  0  0  0  0  0
   44.7660   36.2130   43.1770 H   0  0  0  0  0  0  0  0  0  0  0  0
   46.6840   34.6730   42.1780 C   0  0  0  0  0  0  0  0  0  0  0  0
   47.3930   33.5170   41.8660 F   0  0  0  0  0  0  0  0  0  0  0  0
   47.5400   35.7250   42.1810 F   0  0  0  0  0  0  0  0  0  0  0  0
   45.6920   34.7750   41.2090 F   0  0  0  0  0  0  0  0  0  0  0  0
  1  7  1  6  0  0  0
  1 25  1  0  0  0  0
  1  2  1  0  0  0  0
  2  9  1  0  0  0  0
  2  8  1  0  0  0  0
  3  2  1  0  0  0  0
  3 11  1  0  0  0  0
  3 10  1  0  0  0  0
  4  3  1  0  0  0  0
  5  6  1  0  0  0  0
  5  4  1  0  0  0  0
  6 16  1  6  0  0  0
  6 17  1  0  0  0  0
  6  1  1  0  0  0  0
 12  4  1  0  0  0  0
 13  4  1  0  0  0  0
 14  5  1  0  0  0  0
 15  5  1  0  0  0  0
 17 18  1  0  0  0  0
 17 19  1  0  0  0  0
 20 17  1  0  0  0  0
 21 20  1  0  0  0  0
 22 21  1  0  0  0  0
 23 22  1  0  0  0  0
 23 24  1  0  0  0  0
 24 20  1  0  0  0  0
 25 26  2  0  0  0  0
 27 33  1  0  0  0  0
 27 32  1  0  0  0  0
 28 27  2  0  0  0  0
 29 28  1  0  0  0  0
 29 30  2  0  0  0  0
 30 31  1  0  0  0  0
 31 32  2  0  0  0  0
 31 25  1  0  0  0  0
 34 28  1  0  0  0  0
 35 37  1  0  0  0  0
 35 29  1  0  0  0  0
 36 35  1  0  0  0  0
 38 35  1  0  0  0  0
M  END
>  <minimizedAffinity>
-5.22191429

>  <minimizedRMSD>
1.30877268

$$$$
