
 OpenBabel03242519423D

 25 27  0  0  1  0  0  0  0  0999 V2000
   47.9910   32.8920   41.6830 O   0  0  0  0  0  0  0  0  0  0  0  0
   47.1460   34.1060   41.2700 P   0  0  2  0  0  0  0  0  0  0  0  0
   45.5570   33.9080   41.8750 O   0  0  0  0  0  0  0  0  0  0  0  0
   44.3980   35.9190   44.6850 C   0  0  0  0  0  0  0  0  0  0  0  0
   44.6710   35.5070   43.3610 C   0  0  0  0  0  0  0  0  0  0  0  0
   45.3070   34.2750   43.1790 C   0  0  0  0  0  0  0  0  0  0  0  0
   45.6290   33.5420   44.2690 N   0  0  0  0  0  0  0  0  0  0  0  0
   45.3560   33.9620   45.5260 C   0  0  0  0  0  0  0  0  0  0  0  0
   44.7500   35.1320   45.7460 N   0  0  0  0  0  0  0  0  0  0  0  0
   43.9080   36.8670   44.8430 H   0  0  0  0  0  0  0  0  0  0  0  0
   44.3550   36.1990   42.5800 H   0  0  0  0  0  0  0  0  0  0  0  0
   45.6830   33.2510   46.2630 H   0  0  0  0  0  0  0  0  0  0  0  0
   47.0900   34.1950   39.6090 O   0  0  0  0  0  0  0  0  0  0  0  0
   46.7700   33.2210   38.7030 C   0  0  1  0  0  3  0  0  0  0  0  0
   46.9290   33.4910   37.4150 O   0  0  0  0  0  0  0  0  0  0  0  0
   46.3160   31.9300   38.1810 C   0  0  0  0  0  0  0  0  0  0  0  0
   46.3500   30.8270   39.2120 C   0  0  0  0  0  2  0  0  0  0  0  0
   45.0580   30.9960   39.9580 C   0  0  0  0  0  2  0  0  0  0  0  0
   44.2210   31.9640   39.2080 C   0  0  0  0  0  2  0  0  0  0  0  0
   44.8190   32.0500   37.8480 C   0  0  0  0  0  2  0  0  0  0  0  0
   47.8210   35.4350   41.9750 O   0  0  0  0  0  0  0  0  0  0  0  0
   49.0570   35.7660   41.4430 C   0  0  0  0  0  0  0  0  0  0  0  0
   49.4660   37.0500   41.7860 F   0  0  0  0  0  0  0  0  0  0  0  0
   49.9780   34.8240   41.7710 F   0  0  0  0  0  0  0  0  0  0  0  0
   48.8980   35.7780   40.0660 F   0  0  0  0  0  0  0  0  0  0  0  0
  2  1  2  1  0  0  0
  2  3  1  0  0  0  0
  2 21  1  0  0  0  0
  3  6  1  0  0  0  0
  4 10  1  0  0  0  0
  4  9  1  0  0  0  0
  5  4  2  0  0  0  0
  6  5  1  0  0  0  0
  6  7  2  0  0  0  0
  7  8  1  0  0  0  0
  8  9  2  0  0  0  0
  8 12  1  0  0  0  0
 11  5  1  0  0  0  0
 13  2  1  0  0  0  0
 14 13  1  1  0  0  0
 15 16  1  0  0  0  0
 15 14  1  0  0  0  0
 16 14  1  0  0  0  0
 16 17  1  0  0  0  0
 17 18  1  0  0  0  0
 19 18  1  0  0  0  0
 20 16  1  0  0  0  0
 20 19  1  0  0  0  0
 22 24  1  0  0  0  0
 22 23  1  0  0  0  0
 22 21  1  0  0  0  0
 25 22  1  0  0  0  0
M  END
>  <minimizedAffinity>
-4.85411501

>  <minimizedRMSD>
0.725538433

$$$$
