
 OpenBabel03252503433D

 30 32  0  0  1  0  0  0  0  0999 V2000
   45.0080   34.9110   44.8730 C   0  0  0  0  0  0  0  0  0  0  0  0
   45.9120   34.7030   43.8210 C   0  0  0  0  0  0  0  0  0  0  0  0
   46.7910   33.6190   43.9480 C   0  0  0  0  0  0  0  0  0  0  0  0
   46.7340   32.8390   45.0450 N   0  0  0  0  0  0  0  0  0  0  0  0
   45.8550   33.0660   46.0340 C   0  0  0  0  0  0  0  0  0  0  0  0
   44.9730   34.1100   45.9640 N   0  0  0  0  0  0  0  0  0  0  0  0
   44.2800   35.6940   44.9130 H   0  0  0  0  0  0  0  0  0  0  0  0
   47.4720   33.4790   43.1370 H   0  0  0  0  0  0  0  0  0  0  0  0
   47.3240   31.8410   47.6340 C   0  0  2  0  0  0  0  0  0  0  0  0
   45.8830   32.1390   47.1640 C   0  0  1  0  0  0  0  0  0  0  0  0
   45.3480   32.6260   48.3240 O   0  0  0  0  0  0  0  0  0  0  0  0
   45.7440   31.8050   49.3390 C   0  0  0  0  0  0  0  0  0  0  0  0
   46.9410   31.0060   48.8690 C   0  0  2  0  0  0  0  0  0  0  0  0
   47.8910   31.2790   46.8950 H   0  0  0  0  0  0  0  0  0  0  0  0
   45.4540   31.1630   46.8480 H   0  0  0  0  0  0  0  0  0  0  0  0
   46.1160   32.4630   50.1660 H   0  0  0  0  0  0  0  0  0  0  0  0
   44.9560   31.1940   49.7810 H   0  0  0  0  0  0  0  0  0  0  0  0
   46.5750   30.0250   48.5030 H   0  0  0  0  0  0  0  0  0  0  0  0
   47.8920   32.9810   48.0980 O   0  0  0  0  0  0  0  0  0  0  0  0
   47.2310   33.6070   48.4570 H   0  0  0  0  0  0  0  0  0  0  0  0
   47.9580   30.9110   49.7740 O   0  0  0  0  0  0  0  0  0  0  0  0
   48.7550   30.6020   49.2980 H   0  0  0  0  0  0  0  0  0  0  0  0
   45.8480   35.6410   42.6940 C   0  0  0  0  0  0  0  0  0  0  0  0
   45.5760   36.6460   42.9930 H   0  0  0  0  0  0  0  0  0  0  0  0
   46.8730   35.7010   42.2600 H   0  0  0  0  0  0  0  0  0  0  0  0
   44.9830   35.0750   41.5910 C   0  0  0  0  0  3  0  0  0  0  0  0
   43.6340   35.7890   41.5420 C   0  0  0  0  0  2  0  0  0  0  0  0
   42.5850   34.7130   41.4470 C   0  0  0  0  0  2  0  0  0  0  0  0
   43.3750   33.5410   40.9010 C   0  0  0  0  0  2  0  0  0  0  0  0
   44.6330   33.6260   41.7760 C   0  0  0  0  0  2  0  0  0  0  0  0
  1  7  1  0  0  0  0
  1  6  1  0  0  0  0
  2  3  1  0  0  0  0
  2  1  2  0  0  0  0
  3  4  2  0  0  0  0
  4  5  1  0  0  0  0
  5 10  1  0  0  0  0
  6  5  2  0  0  0  0
  8  3  1  0  0  0  0
  9 14  1  6  0  0  0
  9 19  1  0  0  0  0
  9 13  1  0  0  0  0
 10 15  1  6  0  0  0
 10  9  1  0  0  0  0
 10 11  1  0  0  0  0
 11 12  1  0  0  0  0
 12 17  1  0  0  0  0
 12 16  1  0  0  0  0
 13 18  1  6  0  0  0
 13 12  1  0  0  0  0
 13 21  1  0  0  0  0
 19 20  1  0  0  0  0
 22 21  1  0  0  0  0
 23 24  1  0  0  0  0
 23  2  1  0  0  0  0
 25 23  1  0  0  0  0
 26 30  1  0  0  0  0
 26 23  1  0  0  0  0
 27 26  1  0  0  0  0
 28 27  1  0  0  0  0
 29 28  1  0  0  0  0
 29 30  1  0  0  0  0
M  END
>  <minimizedAffinity>
-5.90963888

>  <minimizedRMSD>
1.23639011

$$$$
