
 OpenBabel03252504003D

 30 33  0  0  0  0  0  0  0  0999 V2000
   46.0370   31.7090   45.1710 C   0  0  0  0  0  0  0  0  0  0  0  0
   45.7680   33.0170   45.5760 C   0  0  0  0  0  0  0  0  0  0  0  0
   45.4850   33.2760   46.8920 C   0  0  0  0  0  0  0  0  0  0  0  0
   45.4690   32.2380   47.8000 C   0  0  0  0  0  0  0  0  0  0  0  0
   45.2340   32.1650   49.1160 N   0  0  0  0  0  0  0  0  0  0  0  0
   45.3350   30.9140   49.5710 C   0  0  0  0  0  0  0  0  0  0  0  0
   45.6550   30.0990   48.4950 C   0  0  0  0  0  0  0  0  0  0  0  0
   45.7360   30.9320   47.4010 C   0  0  0  0  0  0  0  0  0  0  0  0
   46.0210   30.6780   46.0710 C   0  0  0  0  0  0  0  0  0  0  0  0
   46.2680   31.4520   44.1320 H   0  0  0  0  0  0  0  0  0  0  0  0
   45.2760   34.2840   47.2150 H   0  0  0  0  0  0  0  0  0  0  0  0
   45.0000   32.9770   49.7320 H   0  0  0  0  0  0  0  0  0  0  0  0
   45.1950   30.5560   50.5990 H   0  0  0  0  0  0  0  0  0  0  0  0
   45.8120   29.0400   48.4890 H   0  0  0  0  0  0  0  0  0  0  0  0
   46.2290   29.6590   45.7650 H   0  0  0  0  0  0  0  0  0  0  0  0
   46.7790   34.9440   42.6490 C   0  0  0  0  0  0  0  0  0  0  0  0
   45.8790   36.0060   42.6150 C   0  0  0  0  0  0  0  0  0  0  0  0
   44.9100   36.0580   43.6180 C   0  0  0  0  0  0  0  0  0  0  0  0
   44.9000   35.0810   44.5550 N   0  0  0  0  0  0  0  0  0  0  0  0
   45.8050   34.0580   44.5480 C   0  0  0  0  0  0  0  0  0  0  0  0
   46.7390   33.9950   43.5940 N   0  0  0  0  0  0  0  0  0  0  0  0
   45.8520   36.7990   41.8940 H   0  0  0  0  0  0  0  0  0  0  0  0
   44.1680   36.8500   43.6690 H   0  0  0  0  0  0  0  0  0  0  0  0
   47.7490   34.9550   41.5880 C   0  0  0  0  0  0  0  0  0  0  0  0
   48.6770   35.7960   41.4210 O   0  0  0  0  0  0  0  0  0  0  0  0
   47.7090   33.8880   40.5410 C   0  0  0  0  0  3  0  0  0  0  0  0
   46.2960   33.4770   40.2210 C   0  0  0  0  0  2  0  0  0  0  0  0
   46.2990   33.2850   38.7350 C   0  0  0  0  0  2  0  0  0  0  0  0
   47.6540   33.6290   38.2060 C   0  0  0  0  0  2  0  0  0  0  0  0
   48.2740   34.4810   39.2660 C   0  0  0  0  0  2  0  0  0  0  0  0
  1  2  2  0  0  0  0
  1  9  1  0  0  0  0
  2  3  1  0  0  0  0
  3 11  1  0  0  0  0
  3  4  2  0  0  0  0
  4  5  1  0  0  0  0
  5  6  1  0  0  0  0
  5 12  1  0  0  0  0
  6 13  1  0  0  0  0
  7  6  2  0  0  0  0
  8  4  1  0  0  0  0
  8  7  1  0  0  0  0
  9  8  2  0  0  0  0
 10  1  1  0  0  0  0
 14  7  1  0  0  0  0
 15  9  1  0  0  0  0
 16 21  1  0  0  0  0
 17 16  2  0  0  0  0
 17 18  1  0  0  0  0
 18 23  1  0  0  0  0
 18 19  2  0  0  0  0
 20 19  1  0  0  0  0
 20  2  1  0  0  0  0
 21 20  2  0  0  0  0
 22 17  1  0  0  0  0
 24 16  1  0  0  0  0
 25 24  2  0  0  0  0
 26 24  1  0  0  0  0
 27 26  1  0  0  0  0
 28 27  1  0  0  0  0
 29 28  1  0  0  0  0
 29 30  1  0  0  0  0
 30 26  1  0  0  0  0
M  END
>  <minimizedAffinity>
-6.16265821

>  <minimizedRMSD>
0.230522305

$$$$
