
 OpenBabel03242519413D

 25 27  0  0  1  0  0  0  0  0999 V2000
   48.0130   32.9130   41.7430 O   0  0  0  0  0  0  0  0  0  0  0  0
   47.1500   34.0980   41.2870 P   0  0  2  0  0  0  0  0  0  0  0  0
   45.5630   33.8940   41.8940 O   0  0  0  0  0  0  0  0  0  0  0  0
   44.3980   35.9230   44.6880 C   0  0  0  0  0  0  0  0  0  0  0  0
   44.6740   35.5020   43.3670 C   0  0  0  0  0  0  0  0  0  0  0  0
   45.3100   34.2690   43.1950 C   0  0  0  0  0  0  0  0  0  0  0  0
   45.6300   33.5430   44.2900 N   0  0  0  0  0  0  0  0  0  0  0  0
   45.3550   33.9710   45.5430 C   0  0  0  0  0  0  0  0  0  0  0  0
   44.7480   35.1420   45.7550 N   0  0  0  0  0  0  0  0  0  0  0  0
   43.9070   36.8720   44.8390 H   0  0  0  0  0  0  0  0  0  0  0  0
   44.3590   36.1890   42.5820 H   0  0  0  0  0  0  0  0  0  0  0  0
   45.6810   33.2650   46.2860 H   0  0  0  0  0  0  0  0  0  0  0  0
   47.0980   34.1300   39.6240 O   0  0  0  0  0  0  0  0  0  0  0  0
   46.8110   33.1170   38.7490 C   0  0  1  0  0  3  0  0  0  0  0  0
   46.7320   33.4110   37.4590 O   0  0  0  0  0  0  0  0  0  0  0  0
   46.5010   31.7700   38.2660 C   0  0  0  0  0  0  0  0  0  0  0  0
   46.8310   30.6880   39.2690 C   0  0  0  0  0  2  0  0  0  0  0  0
   45.6290   30.6590   40.1690 C   0  0  0  0  0  2  0  0  0  0  0  0
   44.5680   31.4820   39.5420 C   0  0  0  0  0  2  0  0  0  0  0  0
   44.9740   31.6550   38.1200 C   0  0  0  0  0  2  0  0  0  0  0  0
   47.8010   35.4610   41.9490 O   0  0  0  0  0  0  0  0  0  0  0  0
   49.0460   35.7780   41.4310 C   0  0  0  0  0  0  0  0  0  0  0  0
   49.4680   37.0560   41.7810 F   0  0  0  0  0  0  0  0  0  0  0  0
   49.9520   34.8230   41.7680 F   0  0  0  0  0  0  0  0  0  0  0  0
   48.9020   35.7940   40.0520 F   0  0  0  0  0  0  0  0  0  0  0  0
  2  1  2  1  0  0  0
  2  3  1  0  0  0  0
  2 21  1  0  0  0  0
  3  6  1  0  0  0  0
  4 10  1  0  0  0  0
  4  9  1  0  0  0  0
  5  4  2  0  0  0  0
  6  5  1  0  0  0  0
  6  7  2  0  0  0  0
  7  8  1  0  0  0  0
  8  9  2  0  0  0  0
  8 12  1  0  0  0  0
 11  5  1  0  0  0  0
 13  2  1  0  0  0  0
 14 13  1  6  0  0  0
 15 16  1  0  0  0  0
 15 14  1  0  0  0  0
 16 14  1  0  0  0  0
 16 17  1  0  0  0  0
 17 18  1  0  0  0  0
 19 18  1  0  0  0  0
 20 16  1  0  0  0  0
 20 19  1  0  0  0  0
 22 24  1  0  0  0  0
 22 23  1  0  0  0  0
 22 21  1  0  0  0  0
 25 22  1  0  0  0  0
M  END
>  <minimizedAffinity>
-4.81945276

>  <minimizedRMSD>
0.446654916

$$$$
