
 OpenBabel03242517003D

 28 30  0  0  0  0  0  0  0  0999 V2000
   46.6550   34.7770   41.9610 C   0  0  0  0  0  0  0  0  0  0  0  0
   47.9400   35.2850   41.9020 C   0  0  0  0  0  0  0  0  0  0  0  0
   48.6670   35.1120   40.7390 C   0  0  0  0  0  0  0  0  0  0  0  0
   48.1150   34.4510   39.6790 C   0  0  0  0  0  0  0  0  0  0  0  0
   46.8490   33.9360   39.7010 C   0  0  0  0  0  0  0  0  0  0  0  0
   46.1290   34.1230   40.8910 C   0  0  0  0  0  0  0  0  0  0  0  0
   48.3810   35.8100   42.7430 H   0  0  0  0  0  0  0  0  0  0  0  0
   49.6730   35.4810   40.6210 H   0  0  0  0  0  0  0  0  0  0  0  0
   48.6840   34.3170   38.7690 H   0  0  0  0  0  0  0  0  0  0  0  0
   46.3760   33.4070   38.8840 H   0  0  0  0  0  0  0  0  0  0  0  0
   44.5190   36.1900   44.7440 C   0  0  0  0  0  0  0  0  0  0  0  0
   45.1740   36.0960   43.4970 C   0  0  0  0  0  0  0  0  0  0  0  0
   45.9330   34.9870   43.2120 C   0  0  0  0  0  0  0  0  0  0  0  0
   46.0120   34.0230   44.1730 N   0  0  0  0  0  0  0  0  0  0  0  0
   45.3910   34.1010   45.3690 C   0  0  0  0  0  0  0  0  0  0  0  0
   44.6350   35.2050   45.6520 N   0  0  0  0  0  0  0  0  0  0  0  0
   43.9200   37.0540   44.9800 H   0  0  0  0  0  0  0  0  0  0  0  0
   45.0950   36.8620   42.7650 H   0  0  0  0  0  0  0  0  0  0  0  0
   45.5190   33.2760   46.0650 H   0  0  0  0  0  0  0  0  0  0  0  0
   43.5050   34.1680   40.8690 C   0  0  0  0  0  0  0  0  0  0  0  0
   43.2390   35.3260   40.5110 O   0  0  0  0  0  0  0  0  0  0  0  0
   44.8080   33.6390   41.0530 N   0  0  0  0  0  0  0  0  0  0  0  0
   44.9990   32.6470   41.3940 H   0  0  0  0  0  0  0  0  0  0  0  0
   42.4210   33.1530   41.1580 C   0  0  0  0  0  3  0  0  0  0  0  0
   42.4410   32.2260   39.9570 C   0  0  0  0  0  2  0  0  0  0  0  0
   41.3800   32.7010   39.0040 C   0  0  0  0  0  2  0  0  0  0  0  0
   40.5920   33.7680   39.7120 C   0  0  0  0  0  2  0  0  0  0  0  0
   41.1210   33.8860   41.1140 C   0  0  0  0  0  2  0  0  0  0  0  0
  1 13  1  0  0  0  0
  2  1  1  0  0  0  0
  2  7  1  0  0  0  0
  3  2  2  0  0  0  0
  4  5  2  0  0  0  0
  4  3  1  0  0  0  0
  5  6  1  0  0  0  0
  6 22  1  0  0  0  0
  6  1  2  0  0  0  0
  8  3  1  0  0  0  0
  9  4  1  0  0  0  0
 10  5  1  0  0  0  0
 11 17  1  0  0  0  0
 11 16  1  0  0  0  0
 12 11  2  0  0  0  0
 13 12  1  0  0  0  0
 13 14  2  0  0  0  0
 14 15  1  0  0  0  0
 15 16  2  0  0  0  0
 15 19  1  0  0  0  0
 18 12  1  0  0  0  0
 20 22  1  0  0  0  0
 20 24  1  0  0  0  0
 21 20  2  0  0  0  0
 22 23  1  0  0  0  0
 25 24  1  0  0  0  0
 26 27  1  0  0  0  0
 26 25  1  0  0  0  0
 27 28  1  0  0  0  0
 28 24  1  0  0  0  0
M  END
>  <minimizedAffinity>
-5.95854378

>  <minimizedRMSD>
0.265639901

$$$$
