
 OpenBabel03252507553D

 40 43  0  0  1  0  0  0  0  0999 V2000
   47.1190   34.8170   42.0720 C   0  0  2  0  0  0  0  0  0  0  0  0
   46.3490   34.2920   40.8610 C   0  0  0  0  0  0  0  0  0  0  0  0
   47.5560   34.1580   39.9040 C   0  0  0  0  0  0  0  0  0  0  0  0
   48.6770   33.6780   40.7720 C   0  0  1  0  0  0  0  0  0  0  0  0
   48.1660   33.7420   42.1800 C   0  0  0  0  0  0  0  0  0  0  0  0
   47.5270   35.7850   41.7930 H   0  0  0  0  0  0  0  0  0  0  0  0
   45.6270   35.0100   40.4850 H   0  0  0  0  0  0  0  0  0  0  0  0
   45.9950   33.2930   41.1090 H   0  0  0  0  0  0  0  0  0  0  0  0
   47.2890   33.4630   39.0910 H   0  0  0  0  0  0  0  0  0  0  0  0
   47.7270   35.1890   39.5480 H   0  0  0  0  0  0  0  0  0  0  0  0
   49.5340   34.3710   40.6320 H   0  0  0  0  0  0  0  0  0  0  0  0
   47.7690   32.8120   42.5800 H   0  0  0  0  0  0  0  0  0  0  0  0
   48.9980   34.1640   42.8150 H   0  0  0  0  0  0  0  0  0  0  0  0
   44.5390   35.8160   44.6290 C   0  0  0  0  0  0  0  0  0  0  0  0
   45.2730   35.8490   43.4490 C   0  0  0  0  0  0  0  0  0  0  0  0
   46.2500   34.8730   43.2830 C   0  0  0  0  0  0  0  0  0  0  0  0
   46.4650   33.9090   44.2790 N   0  0  0  0  0  0  0  0  0  0  0  0
   45.7160   33.9290   45.4110 C   0  0  0  0  0  0  0  0  0  0  0  0
   44.7580   34.8800   45.5810 N   0  0  0  0  0  0  0  0  0  0  0  0
   43.7700   36.5630   44.7850 H   0  0  0  0  0  0  0  0  0  0  0  0
   45.1310   36.5770   42.6650 H   0  0  0  0  0  0  0  0  0  0  0  0
   45.9620   33.1450   46.1130 H   0  0  0  0  0  0  0  0  0  0  0  0
   49.1090   32.2540   40.5130 C   0  0  2  0  0  0  0  0  0  0  0  0
   49.9680   31.6540   41.5290 C   0  0  0  0  0  0  0  0  0  0  0  0
   50.4890   31.9170   40.1580 C   0  0  1  0  0  0  0  0  0  0  0  0
   48.3120   31.6270   40.0770 H   0  0  0  0  0  0  0  0  0  0  0  0
   50.3390   32.2910   42.3660 H   0  0  0  0  0  0  0  0  0  0  0  0
   49.7760   30.6110   41.8600 H   0  0  0  0  0  0  0  0  0  0  0  0
   51.2010   32.7360   39.9380 H   0  0  0  0  0  0  0  0  0  0  0  0
   50.6850   30.8070   39.2990 O   0  0  0  0  0  0  0  0  0  0  0  0
   50.7400   30.4650   36.7140 O   0  0  0  0  0  0  0  0  0  0  0  0
   51.2120   31.3860   37.8110 P   0  0  1  0  0  0  0  0  0  0  0  0
   50.5410   32.9350   37.5110 O   0  0  0  0  0  0  0  0  0  0  0  0
   51.0780   33.5610   38.0830 H   0  0  0  0  0  0  0  0  0  0  0  0
   52.8610   31.5440   37.6920 O   0  0  0  0  0  0  0  0  0  0  0  0
   53.3960   30.2430   37.6540 C   0  0  0  0  0  3  0  0  0  0  0  0
   54.3700   30.0220   38.7830 C   0  0  0  0  0  2  0  0  0  0  0  0
   55.7370   29.9360   38.1310 C   0  0  0  0  0  2  0  0  0  0  0  0
   55.5540   30.5510   36.7620 C   0  0  0  0  0  2  0  0  0  0  0  0
   54.1880   30.0220   36.3820 C   0  0  0  0  0  2  0  0  0  0  0  0
  1  6  1  6  0  0  0
  1  5  1  0  0  0  0
  1 16  1  0  0  0  0
  2  8  1  0  0  0  0
  2  1  1  0  0  0  0
  3  4  1  0  0  0  0
  3  2  1  0  0  0  0
  4 11  1  6  0  0  0
  4  5  1  0  0  0  0
  5 12  1  0  0  0  0
  5 13  1  0  0  0  0
  7  2  1  0  0  0  0
  9  3  1  0  0  0  0
 10  3  1  0  0  0  0
 14 20  1  0  0  0  0
 14 19  1  0  0  0  0
 15 14  2  0  0  0  0
 16 15  1  0  0  0  0
 16 17  2  0  0  0  0
 17 18  1  0  0  0  0
 18 19  2  0  0  0  0
 18 22  1  0  0  0  0
 21 15  1  0  0  0  0
 23 26  1  6  0  0  0
 23  4  1  0  0  0  0
 23 24  1  0  0  0  0
 24 28  1  0  0  0  0
 24 27  1  0  0  0  0
 25 29  1  6  0  0  0
 25 23  1  0  0  0  0
 25 24  1  0  0  0  0
 30 25  1  0  0  0  0
 32 31  2  6  0  0  0
 32 30  1  0  0  0  0
 33 32  1  0  0  0  0
 33 34  1  0  0  0  0
 35 32  1  0  0  0  0
 36 35  1  0  0  0  0
 36 37  1  0  0  0  0
 38 37  1  0  0  0  0
 39 38  1  0  0  0  0
 40 39  1  0  0  0  0
 40 36  1  0  0  0  0
M  END
>  <minimizedAffinity>
-5.37615871

>  <minimizedRMSD>
1.39768279

$$$$
