
 OpenBabel03252504003D

 30 33  0  0  0  0  0  0  0  0999 V2000
   46.0350   31.7090   45.1790 C   0  0  0  0  0  0  0  0  0  0  0  0
   45.7580   33.0170   45.5800 C   0  0  0  0  0  0  0  0  0  0  0  0
   45.4740   33.2780   46.8950 C   0  0  0  0  0  0  0  0  0  0  0  0
   45.4650   32.2430   47.8070 C   0  0  0  0  0  0  0  0  0  0  0  0
   45.2330   32.1730   49.1240 N   0  0  0  0  0  0  0  0  0  0  0  0
   45.3420   30.9240   49.5820 C   0  0  0  0  0  0  0  0  0  0  0  0
   45.6670   30.1070   48.5090 C   0  0  0  0  0  0  0  0  0  0  0  0
   45.7410   30.9380   47.4120 C   0  0  0  0  0  0  0  0  0  0  0  0
   46.0270   30.6810   46.0830 C   0  0  0  0  0  0  0  0  0  0  0  0
   46.2670   31.4510   44.1400 H   0  0  0  0  0  0  0  0  0  0  0  0
   45.2580   34.2860   47.2160 H   0  0  0  0  0  0  0  0  0  0  0  0
   44.9930   32.9850   49.7370 H   0  0  0  0  0  0  0  0  0  0  0  0
   45.2060   30.5680   50.6120 H   0  0  0  0  0  0  0  0  0  0  0  0
   45.8320   29.0490   48.5050 H   0  0  0  0  0  0  0  0  0  0  0  0
   46.2420   29.6620   45.7790 H   0  0  0  0  0  0  0  0  0  0  0  0
   46.7230   34.9150   42.6190 C   0  0  0  0  0  0  0  0  0  0  0  0
   45.8450   35.9970   42.6090 C   0  0  0  0  0  0  0  0  0  0  0  0
   44.9090   36.0720   43.6400 C   0  0  0  0  0  0  0  0  0  0  0  0
   44.9050   35.0980   44.5810 N   0  0  0  0  0  0  0  0  0  0  0  0
   45.7860   34.0550   44.5490 C   0  0  0  0  0  0  0  0  0  0  0  0
   46.6900   33.9690   43.5670 N   0  0  0  0  0  0  0  0  0  0  0  0
   45.8140   36.7890   41.8870 H   0  0  0  0  0  0  0  0  0  0  0  0
   44.1860   36.8810   43.7120 H   0  0  0  0  0  0  0  0  0  0  0  0
   47.6600   34.9020   41.5290 C   0  0  0  0  0  0  0  0  0  0  0  0
   48.7790   35.4880   41.4880 O   0  0  0  0  0  0  0  0  0  0  0  0
   47.3360   34.1360   40.2860 C   0  0  0  0  0  3  0  0  0  0  0  0
   48.2140   34.5510   39.1340 C   0  0  0  0  0  2  0  0  0  0  0  0
   48.5220   33.2640   38.4300 C   0  0  0  0  0  2  0  0  0  0  0  0
   47.8910   32.1370   39.1820 C   0  0  0  0  0  2  0  0  0  0  0  0
   47.6520   32.6800   40.5550 C   0  0  0  0  0  2  0  0  0  0  0  0
  1  2  2  0  0  0  0
  1  9  1  0  0  0  0
  2  3  1  0  0  0  0
  3 11  1  0  0  0  0
  3  4  2  0  0  0  0
  4  5  1  0  0  0  0
  5  6  1  0  0  0  0
  5 12  1  0  0  0  0
  6 13  1  0  0  0  0
  7  6  2  0  0  0  0
  8  4  1  0  0  0  0
  8  7  1  0  0  0  0
  9  8  2  0  0  0  0
 10  1  1  0  0  0  0
 14  7  1  0  0  0  0
 15  9  1  0  0  0  0
 16 21  1  0  0  0  0
 17 16  2  0  0  0  0
 17 18  1  0  0  0  0
 18 23  1  0  0  0  0
 18 19  2  0  0  0  0
 20 19  1  0  0  0  0
 20  2  1  0  0  0  0
 21 20  2  0  0  0  0
 22 17  1  0  0  0  0
 24 16  1  0  0  0  0
 25 24  2  0  0  0  0
 26 30  1  0  0  0  0
 26 24  1  0  0  0  0
 27 26  1  0  0  0  0
 28 27  1  0  0  0  0
 28 29  1  0  0  0  0
 29 30  1  0  0  0  0
M  END
>  <minimizedAffinity>
-5.97317266

>  <minimizedRMSD>
0.579186618

$$$$
