
 OpenBabel03242519413D

 25 27  0  0  1  0  0  0  0  0999 V2000
   47.9910   32.8930   41.6860 O   0  0  0  0  0  0  0  0  0  0  0  0
   47.1470   34.1070   41.2720 P   0  0  2  0  0  0  0  0  0  0  0  0
   45.5580   33.9100   41.8760 O   0  0  0  0  0  0  0  0  0  0  0  0
   44.3980   35.9200   44.6860 C   0  0  0  0  0  0  0  0  0  0  0  0
   44.6720   35.5080   43.3620 C   0  0  0  0  0  0  0  0  0  0  0  0
   45.3070   34.2760   43.1800 C   0  0  0  0  0  0  0  0  0  0  0  0
   45.6280   33.5420   44.2690 N   0  0  0  0  0  0  0  0  0  0  0  0
   45.3550   33.9620   45.5260 C   0  0  0  0  0  0  0  0  0  0  0  0
   44.7480   35.1320   45.7470 N   0  0  0  0  0  0  0  0  0  0  0  0
   43.9080   36.8680   44.8440 H   0  0  0  0  0  0  0  0  0  0  0  0
   44.3560   36.2010   42.5820 H   0  0  0  0  0  0  0  0  0  0  0  0
   45.6810   33.2500   46.2630 H   0  0  0  0  0  0  0  0  0  0  0  0
   47.0930   34.1950   39.6110 O   0  0  0  0  0  0  0  0  0  0  0  0
   46.7710   33.2210   38.7050 C   0  0  1  0  0  3  0  0  0  0  0  0
   46.9290   33.4910   37.4170 O   0  0  0  0  0  0  0  0  0  0  0  0
   46.3160   31.9300   38.1830 C   0  0  0  0  0  0  0  0  0  0  0  0
   46.3420   30.8290   39.2170 C   0  0  0  0  0  2  0  0  0  0  0  0
   45.0460   31.0040   39.9570 C   0  0  0  0  0  2  0  0  0  0  0  0
   44.2160   31.9720   39.2000 C   0  0  0  0  0  2  0  0  0  0  0  0
   44.8210   32.0540   37.8430 C   0  0  0  0  0  2  0  0  0  0  0  0
   47.8230   35.4360   41.9770 O   0  0  0  0  0  0  0  0  0  0  0  0
   49.0580   35.7670   41.4440 C   0  0  0  0  0  0  0  0  0  0  0  0
   49.4670   37.0510   41.7860 F   0  0  0  0  0  0  0  0  0  0  0  0
   49.9800   34.8250   41.7720 F   0  0  0  0  0  0  0  0  0  0  0  0
   48.8980   35.7790   40.0670 F   0  0  0  0  0  0  0  0  0  0  0  0
  2  1  2  1  0  0  0
  2  3  1  0  0  0  0
  2 21  1  0  0  0  0
  3  6  1  0  0  0  0
  4 10  1  0  0  0  0
  4  9  1  0  0  0  0
  5  4  2  0  0  0  0
  6  5  1  0  0  0  0
  6  7  2  0  0  0  0
  7  8  1  0  0  0  0
  8  9  2  0  0  0  0
  8 12  1  0  0  0  0
 11  5  1  0  0  0  0
 13  2  1  0  0  0  0
 14 13  1  1  0  0  0
 15 16  1  0  0  0  0
 15 14  1  0  0  0  0
 16 14  1  0  0  0  0
 16 17  1  0  0  0  0
 17 18  1  0  0  0  0
 19 18  1  0  0  0  0
 20 16  1  0  0  0  0
 20 19  1  0  0  0  0
 22 24  1  0  0  0  0
 22 23  1  0  0  0  0
 22 21  1  0  0  0  0
 25 22  1  0  0  0  0
M  END
>  <minimizedAffinity>
-4.84980011

>  <minimizedRMSD>
0.45618853

$$$$
