
 OpenBabel03242519413D

 25 27  0  0  1  0  0  0  0  0999 V2000
   47.9750   32.8790   41.6830 O   0  0  0  0  0  0  0  0  0  0  0  0
   47.1170   34.0850   41.2750 P   0  0  2  0  0  0  0  0  0  0  0  0
   45.5370   33.8790   41.9000 O   0  0  0  0  0  0  0  0  0  0  0  0
   44.4040   35.9200   44.6990 C   0  0  0  0  0  0  0  0  0  0  0  0
   44.6660   35.4940   43.3760 C   0  0  0  0  0  0  0  0  0  0  0  0
   45.2970   34.2590   43.2020 C   0  0  0  0  0  0  0  0  0  0  0  0
   45.6250   33.5350   44.2960 N   0  0  0  0  0  0  0  0  0  0  0  0
   45.3630   33.9680   45.5500 C   0  0  0  0  0  0  0  0  0  0  0  0
   44.7610   35.1410   45.7640 N   0  0  0  0  0  0  0  0  0  0  0  0
   43.9170   36.8710   44.8520 H   0  0  0  0  0  0  0  0  0  0  0  0
   44.3470   36.1800   42.5920 H   0  0  0  0  0  0  0  0  0  0  0  0
   45.6930   33.2630   46.2920 H   0  0  0  0  0  0  0  0  0  0  0  0
   47.0410   34.1660   39.6140 O   0  0  0  0  0  0  0  0  0  0  0  0
   46.8560   33.1580   38.7080 C   0  0  1  0  0  3  0  0  0  0  0  0
   45.6160   32.8830   38.3250 O   0  0  0  0  0  0  0  0  0  0  0  0
   47.1790   32.0680   37.7850 C   0  0  0  0  0  0  0  0  0  0  0  0
   47.1620   32.4910   36.3350 C   0  0  0  0  0  2  0  0  0  0  0  0
   48.5200   33.0960   36.1240 C   0  0  0  0  0  2  0  0  0  0  0  0
   49.3510   32.7790   37.3090 C   0  0  0  0  0  2  0  0  0  0  0  0
   48.6500   31.6720   38.0150 C   0  0  0  0  0  2  0  0  0  0  0  0
   47.7910   35.4220   41.9660 O   0  0  0  0  0  0  0  0  0  0  0  0
   49.0320   35.7410   41.4390 C   0  0  0  0  0  0  0  0  0  0  0  0
   49.4410   37.0310   41.7610 F   0  0  0  0  0  0  0  0  0  0  0  0
   49.9490   34.8040   41.7940 F   0  0  0  0  0  0  0  0  0  0  0  0
   48.8860   35.7270   40.0600 F   0  0  0  0  0  0  0  0  0  0  0  0
  2  1  2  1  0  0  0
  2  3  1  0  0  0  0
  2 21  1  0  0  0  0
  3  6  1  0  0  0  0
  4 10  1  0  0  0  0
  4  9  1  0  0  0  0
  5  4  2  0  0  0  0
  6  5  1  0  0  0  0
  6  7  2  0  0  0  0
  7  8  1  0  0  0  0
  8  9  2  0  0  0  0
  8 12  1  0  0  0  0
 11  5  1  0  0  0  0
 13  2  1  0  0  0  0
 14 13  1  6  0  0  0
 15 14  1  0  0  0  0
 16 20  1  0  0  0  0
 16 15  1  0  0  0  0
 16 14  1  0  0  0  0
 17 16  1  0  0  0  0
 18 17  1  0  0  0  0
 18 19  1  0  0  0  0
 19 20  1  0  0  0  0
 22 23  1  0  0  0  0
 22 24  1  0  0  0  0
 22 21  1  0  0  0  0
 25 22  1  0  0  0  0
M  END
>  <minimizedAffinity>
-5.17148161

>  <minimizedRMSD>
1.16472304

$$$$
