
 OpenBabel03252505433D

 38 41  0  0  1  0  0  0  0  0999 V2000
   43.9630   34.6610   42.3700 C   0  0  1  0  0  0  0  0  0  0  0  0
   44.1600   36.1470   41.9210 C   0  0  0  0  0  0  0  0  0  0  0  0
   44.0020   34.9650   40.9690 C   0  0  2  0  0  0  0  0  0  0  0  0
   42.9770   34.5500   42.9030 H   0  0  0  0  0  0  0  0  0  0  0  0
   45.1440   36.5770   42.0990 H   0  0  0  0  0  0  0  0  0  0  0  0
   43.3130   36.8240   41.9980 H   0  0  0  0  0  0  0  0  0  0  0  0
   44.8980   34.8630   40.3330 H   0  0  0  0  0  0  0  0  0  0  0  0
   45.1020   34.1100   43.1280 C   0  0  0  0  0  0  0  0  0  0  0  0
   46.3410   34.0110   42.4720 C   0  0  0  0  0  0  0  0  0  0  0  0
   47.4280   33.4960   43.1720 C   0  0  0  0  0  0  0  0  0  0  0  0
   47.2340   33.1140   44.4590 N   0  0  0  0  0  0  0  0  0  0  0  0
   46.0460   33.2210   45.0540 C   0  0  0  0  0  0  0  0  0  0  0  0
   45.0140   33.7160   44.3670 N   0  0  0  0  0  0  0  0  0  0  0  0
   46.5200   34.3100   41.4460 H   0  0  0  0  0  0  0  0  0  0  0  0
   48.4130   33.4030   42.6980 H   0  0  0  0  0  0  0  0  0  0  0  0
   46.0350   32.7490   46.4800 C   0  0  0  0  0  0  0  0  0  0  0  0
   45.0640   33.4030   47.2240 F   0  0  0  0  0  0  0  0  0  0  0  0
   47.2720   33.0870   47.0760 F   0  0  0  0  0  0  0  0  0  0  0  0
   45.9500   31.3840   46.5230 F   0  0  0  0  0  0  0  0  0  0  0  0
   42.6690   34.8410   40.2640 C   0  0  0  0  0  0  0  0  0  0  0  0
   42.5270   35.2010   38.9460 C   0  0  0  0  0  0  0  0  0  0  0  0
   41.3310   35.0740   38.2690 C   0  0  0  0  0  0  0  0  0  0  0  0
   40.2790   34.5770   38.9390 N   0  0  0  0  0  0  0  0  0  0  0  0
   40.4050   34.2150   40.2460 C   0  0  0  0  0  0  0  0  0  0  0  0
   41.5780   34.3400   40.9140 N   0  0  0  0  0  0  0  0  0  0  0  0
   43.3970   35.5970   38.4430 H   0  0  0  0  0  0  0  0  0  0  0  0
   41.2280   35.3610   37.2290 H   0  0  0  0  0  0  0  0  0  0  0  0
   39.2770   33.6420   41.0410 C   0  0  0  0  0  0  0  0  0  0  0  0
   38.7220   34.4540   41.5060 H   0  0  0  0  0  0  0  0  0  0  0  0
   39.6890   32.9850   41.8330 H   0  0  0  0  0  0  0  0  0  0  0  0
   38.4380   32.7470   40.1610 C   0  0  0  0  0  0  0  0  0  0  0  0
   37.4550   33.2430   40.0260 H   0  0  0  0  0  0  0  0  0  0  0  0
   38.9140   32.6620   39.1850 H   0  0  0  0  0  0  0  0  0  0  0  0
   38.1680   31.3980   40.7640 C   0  0  0  0  0  3  0  0  0  0  0  0
   39.3060   30.9110   41.5980 C   0  0  0  0  0  2  0  0  0  0  0  0
   40.0580   29.8730   40.8270 C   0  0  0  0  0  2  0  0  0  0  0  0
   39.1830   29.4860   39.6670 C   0  0  0  0  0  2  0  0  0  0  0  0
   37.9280   30.3200   39.7510 C   0  0  0  0  0  2  0  0  0  0  0  0
  1  4  1  1  0  0  0
  1  8  1  0  0  0  0
  2  6  1  0  0  0  0
  2  5  1  0  0  0  0
  2  1  1  0  0  0  0
  3  7  1  6  0  0  0
  3  2  1  0  0  0  0
  3  1  1  0  0  0  0
  8 13  1  0  0  0  0
  9  8  2  0  0  0  0
  9 10  1  0  0  0  0
 10 11  2  0  0  0  0
 11 12  1  0  0  0  0
 12 16  1  0  0  0  0
 13 12  2  0  0  0  0
 14  9  1  0  0  0  0
 15 10  1  0  0  0  0
 16 19  1  0  0  0  0
 16 18  1  0  0  0  0
 16 17  1  0  0  0  0
 20 25  1  0  0  0  0
 20  3  1  0  0  0  0
 21 20  2  0  0  0  0
 22 23  2  0  0  0  0
 22 21  1  0  0  0  0
 23 24  1  0  0  0  0
 24 25  2  0  0  0  0
 24 28  1  0  0  0  0
 26 21  1  0  0  0  0
 27 22  1  0  0  0  0
 28 29  1  0  0  0  0
 28 30  1  0  0  0  0
 31 34  1  0  0  0  0
 31 28  1  0  0  0  0
 32 31  1  0  0  0  0
 33 31  1  0  0  0  0
 34 35  1  0  0  0  0
 36 35  1  0  0  0  0
 37 38  1  0  0  0  0
 37 36  1  0  0  0  0
 38 34  1  0  0  0  0
M  END
>  <minimizedAffinity>
-5.71840191

>  <minimizedRMSD>
0.840716541

$$$$
