
 OpenBabel03252505113D

 40 43  0  0  1  0  0  0  0  0999 V2000
   44.5470   35.5450   44.6040 C   0  0  0  0  0  0  0  0  0  0  0  0
   45.2490   35.6110   43.3810 C   0  0  0  0  0  0  0  0  0  0  0  0
   46.3790   34.7420   43.2140 C   0  0  0  0  0  0  0  0  0  0  0  0
   46.7140   33.9040   44.2360 N   0  0  0  0  0  0  0  0  0  0  0  0
   46.0170   33.8800   45.3740 C   0  0  0  0  0  0  0  0  0  0  0  0
   44.9350   34.6910   45.5710 N   0  0  0  0  0  0  0  0  0  0  0  0
   43.7070   36.2230   44.6690 H   0  0  0  0  0  0  0  0  0  0  0  0
   45.0080   36.2560   42.5680 H   0  0  0  0  0  0  0  0  0  0  0  0
   46.4230   32.9560   46.4590 C   0  0  2  0  0  0  0  0  0  0  0  0
   46.9510   31.7270   45.7560 C   0  0  0  0  0  0  0  0  0  0  0  0
   46.0660   30.5460   45.7550 C   0  0  0  0  0  0  0  0  0  0  0  0
   45.7860   30.2760   47.2410 C   0  0  0  0  0  0  0  0  0  0  0  0
   45.0080   31.3400   47.8640 C   0  0  0  0  0  0  0  0  0  0  0  0
   45.3850   32.7100   47.4150 C   0  0  0  0  0  0  0  0  0  0  0  0
   47.2840   33.4760   46.9660 H   0  0  0  0  0  0  0  0  0  0  0  0
   47.2800   31.9430   44.7130 H   0  0  0  0  0  0  0  0  0  0  0  0
   47.8840   31.4250   46.2800 H   0  0  0  0  0  0  0  0  0  0  0  0
   46.6690   29.6780   45.4320 H   0  0  0  0  0  0  0  0  0  0  0  0
   45.1540   30.6020   45.1580 H   0  0  0  0  0  0  0  0  0  0  0  0
   45.1270   29.3810   47.2250 H   0  0  0  0  0  0  0  0  0  0  0  0
   46.7370   30.0880   47.7400 H   0  0  0  0  0  0  0  0  0  0  0  0
   44.2260   31.3800   48.5670 H   0  0  0  0  0  0  0  0  0  0  0  0
   44.7030   33.8570   47.9370 N   0  0  0  0  0  0  0  0  0  0  0  0
   45.0390   34.4020   48.7680 H   0  0  0  0  0  0  0  0  0  0  0  0
   43.8500   34.4020   47.7170 H   0  0  0  0  0  0  0  0  0  0  0  0
   47.1130   34.7840   41.9680 C   0  0  0  0  0  0  0  0  0  0  0  0
   48.2520   35.5410   41.9130 C   0  0  0  0  0  0  0  0  0  0  0  0
   48.9190   35.5420   40.6710 C   0  0  0  0  0  0  0  0  0  0  0  0
   48.3630   34.7910   39.6580 C   0  0  0  0  0  0  0  0  0  0  0  0
   47.2350   34.0430   39.7170 C   0  0  0  0  0  0  0  0  0  0  0  0
   46.6120   34.0620   40.9310 N   0  0  0  0  0  0  0  0  0  0  0  0
   48.6220   36.1000   42.7470 H   0  0  0  0  0  0  0  0  0  0  0  0
   49.8120   36.1300   40.6130 H   0  0  0  0  0  0  0  0  0  0  0  0
   48.9610   34.8700   38.7600 H   0  0  0  0  0  0  0  0  0  0  0  0
   46.7400   33.3190   38.6600 O   0  0  0  0  0  0  0  0  0  0  0  0
   47.4400   32.3650   37.9130 C   0  0  0  0  0  3  0  0  0  0  0  0
   48.2070   33.0310   36.7780 C   0  0  0  0  0  2  0  0  0  0  0  0
   49.2020   31.9280   36.4300 C   0  0  0  0  0  2  0  0  0  0  0  0
   49.6990   31.5010   37.7960 C   0  0  0  0  0  2  0  0  0  0  0  0
   48.5920   31.8490   38.7590 C   0  0  0  0  0  2  0  0  0  0  0  0
  1  7  1  0  0  0  0
  1  6  1  0  0  0  0
  2  1  2  0  0  0  0
  3  2  1  0  0  0  0
  3  4  2  0  0  0  0
  4  5  1  0  0  0  0
  5  6  2  0  0  0  0
  5  9  1  0  0  0  0
  8  2  1  0  0  0  0
  9 15  1  1  0  0  0
  9 14  1  0  0  0  0
 10 17  1  0  0  0  0
 10  9  1  0  0  0  0
 11 10  1  0  0  0  0
 11 12  1  0  0  0  0
 12 21  1  0  0  0  0
 12 13  1  0  0  0  0
 13 22  1  0  0  0  0
 14 13  2  0  0  0  0
 14 23  1  0  0  0  0
 16 10  1  0  0  0  0
 18 11  1  0  0  0  0
 19 11  1  0  0  0  0
 20 12  1  0  0  0  0
 23 24  1  0  0  0  0
 25 23  1  0  0  0  0
 26  3  1  0  0  0  0
 27 26  1  0  0  0  0
 27 32  1  0  0  0  0
 28 27  2  0  0  0  0
 29 30  2  0  0  0  0
 29 28  1  0  0  0  0
 30 31  1  0  0  0  0
 31 26  2  0  0  0  0
 33 28  1  0  0  0  0
 34 29  1  0  0  0  0
 35 30  1  0  0  0  0
 36 35  1  0  0  0  0
 36 40  1  0  0  0  0
 37 36  1  0  0  0  0
 38 37  1  0  0  0  0
 38 39  1  0  0  0  0
 39 40  1  0  0  0  0
M  END
>  <minimizedAffinity>
-6.92587662

>  <minimizedRMSD>
0.683093071

$$$$
