
 OpenBabel03252504003D

 30 33  0  0  0  0  0  0  0  0999 V2000
   46.0490   31.6790   45.1290 C   0  0  0  0  0  0  0  0  0  0  0  0
   45.8040   33.0000   45.5100 C   0  0  0  0  0  0  0  0  0  0  0  0
   45.5300   33.2880   46.8220 C   0  0  0  0  0  0  0  0  0  0  0  0
   45.4990   32.2670   47.7490 C   0  0  0  0  0  0  0  0  0  0  0  0
   45.2690   32.2230   49.0670 N   0  0  0  0  0  0  0  0  0  0  0  0
   45.3490   30.9790   49.5450 C   0  0  0  0  0  0  0  0  0  0  0  0
   45.6520   30.1380   48.4840 C   0  0  0  0  0  0  0  0  0  0  0  0
   45.7430   30.9500   47.3740 C   0  0  0  0  0  0  0  0  0  0  0  0
   46.0190   30.6660   46.0480 C   0  0  0  0  0  0  0  0  0  0  0  0
   46.2720   31.3990   44.0930 H   0  0  0  0  0  0  0  0  0  0  0  0
   45.3390   34.3050   47.1270 H   0  0  0  0  0  0  0  0  0  0  0  0
   45.0500   33.0500   49.6680 H   0  0  0  0  0  0  0  0  0  0  0  0
   45.2080   30.6430   50.5800 H   0  0  0  0  0  0  0  0  0  0  0  0
   45.7910   29.0770   48.4960 H   0  0  0  0  0  0  0  0  0  0  0  0
   46.2090   29.6380   45.7600 H   0  0  0  0  0  0  0  0  0  0  0  0
   46.8140   34.8350   42.5250 C   0  0  0  0  0  0  0  0  0  0  0  0
   45.9540   35.9300   42.4930 C   0  0  0  0  0  0  0  0  0  0  0  0
   45.0130   36.0370   43.5180 C   0  0  0  0  0  0  0  0  0  0  0  0
   44.9900   35.0770   44.4730 N   0  0  0  0  0  0  0  0  0  0  0  0
   45.8540   34.0200   44.4620 C   0  0  0  0  0  0  0  0  0  0  0  0
   46.7620   33.9050   43.4870 N   0  0  0  0  0  0  0  0  0  0  0  0
   45.9390   36.7110   41.7580 H   0  0  0  0  0  0  0  0  0  0  0  0
   44.3040   36.8570   43.5720 H   0  0  0  0  0  0  0  0  0  0  0  0
   47.7570   34.7900   41.4400 C   0  0  0  0  0  0  0  0  0  0  0  0
   48.7510   35.5520   41.2710 O   0  0  0  0  0  0  0  0  0  0  0  0
   47.5990   33.7590   40.3680 C   0  0  0  0  0  3  0  0  0  0  0  0
   47.9860   34.3020   39.0170 C   0  0  0  0  0  2  0  0  0  0  0  0
   48.7090   33.1640   38.3610 C   0  0  0  0  0  2  0  0  0  0  0  0
   48.7890   32.0230   39.3240 C   0  0  0  0  0  2  0  0  0  0  0  0
   48.5750   32.6400   40.6670 C   0  0  0  0  0  2  0  0  0  0  0  0
  1  2  2  0  0  0  0
  1  9  1  0  0  0  0
  2  3  1  0  0  0  0
  3 11  1  0  0  0  0
  3  4  2  0  0  0  0
  4  5  1  0  0  0  0
  5  6  1  0  0  0  0
  5 12  1  0  0  0  0
  6 13  1  0  0  0  0
  7 14  1  0  0  0  0
  7  6  2  0  0  0  0
  8  4  1  0  0  0  0
  8  7  1  0  0  0  0
  9  8  2  0  0  0  0
 10  1  1  0  0  0  0
 15  9  1  0  0  0  0
 16 21  1  0  0  0  0
 17 16  2  0  0  0  0
 17 18  1  0  0  0  0
 18 23  1  0  0  0  0
 18 19  2  0  0  0  0
 20 19  1  0  0  0  0
 20  2  1  0  0  0  0
 21 20  2  0  0  0  0
 22 17  1  0  0  0  0
 24 16  1  0  0  0  0
 25 24  2  0  0  0  0
 26 30  1  0  0  0  0
 26 24  1  0  0  0  0
 27 26  1  0  0  0  0
 28 27  1  0  0  0  0
 28 29  1  0  0  0  0
 29 30  1  0  0  0  0
M  END
>  <minimizedAffinity>
-5.95073271

>  <minimizedRMSD>
0.311358482

$$$$
