
 OpenBabel03252508263D

 37 41  0  0  1  0  0  0  0  0999 V2000
   46.3650   32.5520   45.9170 C   0  0  1  0  0  0  0  0  0  0  0  0
   46.9870   32.6740   47.2450 C   0  0  0  0  0  0  0  0  0  0  0  0
   45.5490   32.0650   47.0100 C   0  0  2  0  0  0  0  0  0  0  0  0
   47.1050   31.9250   45.3020 H   0  0  0  0  0  0  0  0  0  0  0  0
   47.0100   33.6210   47.8000 H   0  0  0  0  0  0  0  0  0  0  0  0
   47.6290   31.8980   47.6980 H   0  0  0  0  0  0  0  0  0  0  0  0
   44.8910   32.7320   47.6540 H   0  0  0  0  0  0  0  0  0  0  0  0
   45.2970   30.6560   47.3220 C   0  0  0  0  0  0  0  0  0  0  0  0
   45.1380   30.0940   48.5500 C   0  0  0  0  0  0  0  0  0  0  0  0
   45.0320   28.7340   48.8150 C   0  0  0  0  0  0  0  0  0  0  0  0
   45.0970   27.8770   47.7060 C   0  0  0  0  0  0  0  0  0  0  0  0
   45.2570   28.4300   46.4350 C   0  0  0  0  0  0  0  0  0  0  0  0
   45.2530   27.5470   45.3740 C   0  0  0  0  0  0  0  0  0  0  0  0
   45.3400   28.0530   44.0770 C   0  0  0  0  0  0  0  0  0  0  0  0
   45.4240   29.4130   43.8580 C   0  0  0  0  0  0  0  0  0  0  0  0
   45.4250   30.2420   44.9540 C   0  0  0  0  0  0  0  0  0  0  0  0
   45.3500   29.7870   46.2610 C   0  0  0  0  0  0  0  0  0  0  0  0
   45.0940   30.8020   49.3800 H   0  0  0  0  0  0  0  0  0  0  0  0
   44.9060   28.3700   49.8290 H   0  0  0  0  0  0  0  0  0  0  0  0
   45.0180   26.8220   47.9140 H   0  0  0  0  0  0  0  0  0  0  0  0
   45.1830   26.4780   45.5710 H   0  0  0  0  0  0  0  0  0  0  0  0
   45.3300   27.2630   43.3130 H   0  0  0  0  0  0  0  0  0  0  0  0
   45.4780   29.6010   42.8150 H   0  0  0  0  0  0  0  0  0  0  0  0
   45.4110   31.2090   44.5380 H   0  0  0  0  0  0  0  0  0  0  0  0
   44.5650   35.6450   45.0070 C   0  0  0  0  0  0  0  0  0  0  0  0
   45.1070   35.9350   43.7050 C   0  0  0  0  0  0  0  0  0  0  0  0
   46.0980   35.0460   43.1840 C   0  0  0  0  0  0  0  0  0  0  0  0
   46.4810   33.9930   43.9170 N   0  0  0  0  0  0  0  0  0  0  0  0
   45.9280   33.7610   45.1590 C   0  0  0  0  0  0  0  0  0  0  0  0
   45.0050   34.5620   45.6820 N   0  0  0  0  0  0  0  0  0  0  0  0
   43.8190   36.3380   45.3690 H   0  0  0  0  0  0  0  0  0  0  0  0
   44.7980   36.7740   43.1270 H   0  0  0  0  0  0  0  0  0  0  0  0
   46.7050   35.2690   41.8590 C   0  0  0  0  0  3  0  0  0  0  0  0
   48.2180   35.2850   41.9180 C   0  0  0  0  0  2  0  0  0  0  0  0
   48.6950   34.2380   40.9510 C   0  0  0  0  0  2  0  0  0  0  0  0
   47.5570   34.0870   39.9780 C   0  0  0  0  0  2  0  0  0  0  0  0
   46.3490   34.1680   40.8650 C   0  0  0  0  0  2  0  0  0  0  0  0
  1  4  1  6  0  0  0
  1  3  1  0  0  0  0
  1  2  1  0  0  0  0
  2  6  1  0  0  0  0
  2  5  1  0  0  0  0
  3  2  1  0  0  0  0
  3  8  1  0  0  0  0
  3  7  1  1  0  0  0
  8  9  1  0  0  0  0
  9 10  2  0  0  0  0
  9 18  1  0  0  0  0
 10 19  1  0  0  0  0
 11 20  1  0  0  0  0
 11 10  1  0  0  0  0
 12 11  2  0  0  0  0
 13 21  1  0  0  0  0
 13 12  1  0  0  0  0
 14 13  2  0  0  0  0
 15 14  1  0  0  0  0
 15 16  2  0  0  0  0
 16 17  1  0  0  0  0
 17 12  1  0  0  0  0
 17  8  2  0  0  0  0
 22 14  1  0  0  0  0
 23 15  1  0  0  0  0
 24 16  1  0  0  0  0
 25 31  1  0  0  0  0
 25 30  1  0  0  0  0
 26 25  2  0  0  0  0
 27 26  1  0  0  0  0
 27 28  2  0  0  0  0
 28 29  1  0  0  0  0
 29 30  2  0  0  0  0
 29  1  1  0  0  0  0
 32 26  1  0  0  0  0
 33 34  1  0  0  0  0
 33 27  1  0  0  0  0
 35 34  1  0  0  0  0
 36 37  1  0  0  0  0
 36 35  1  0  0  0  0
 37 33  1  0  0  0  0
M  END
>  <minimizedAffinity>
-5.98908472

>  <minimizedRMSD>
0.156419158

$$$$
