
 OpenBabel03252509303D

 17 18  0  0  0  0  0  0  0  0999 V2000
   44.5130   35.9170   44.6470 C   0  0  0  0  0  0  0  0  0  0  0  0
   45.3080   35.7150   43.4920 C   0  0  0  0  0  0  0  0  0  0  0  0
   46.1910   34.6340   43.5160 C   0  0  0  0  0  0  0  0  0  0  0  0
   46.2460   33.8360   44.6300 N   0  0  0  0  0  0  0  0  0  0  0  0
   45.4540   34.0860   45.7050 C   0  0  0  0  0  0  0  0  0  0  0  0
   44.6000   35.1120   45.7150 N   0  0  0  0  0  0  0  0  0  0  0  0
   43.8230   36.7410   44.6630 H   0  0  0  0  0  0  0  0  0  0  0  0
   45.2170   36.3820   42.6450 H   0  0  0  0  0  0  0  0  0  0  0  0
   45.5850   33.3910   46.5230 H   0  0  0  0  0  0  0  0  0  0  0  0
   47.0170   34.4140   42.3310 C   0  0  0  0  0  0  0  0  0  0  0  0
   47.1140   35.3370   41.7390 H   0  0  0  0  0  0  0  0  0  0  0  0
   46.6250   33.5510   41.7350 H   0  0  0  0  0  0  0  0  0  0  0  0
   48.3880   33.9950   42.8190 C   0  0  0  0  0  3  0  0  0  0  0  0
   48.7780   32.6500   42.2630 C   0  0  0  0  0  2  0  0  0  0  0  0
   50.1860   32.7930   41.7160 C   0  0  0  0  0  2  0  0  0  0  0  0
   50.6930   34.0000   42.5170 C   0  0  0  0  0  2  0  0  0  0  0  0
   49.4790   34.8980   42.3370 C   0  0  0  0  0  2  0  0  0  0  0  0
  1  7  1  0  0  0  0
  1  6  1  0  0  0  0
  2  3  1  0  0  0  0
  2  1  2  0  0  0  0
  3  4  2  0  0  0  0
  4  5  1  0  0  0  0
  5  6  2  0  0  0  0
  5  9  1  0  0  0  0
  8  2  1  0  0  0  0
 10 13  1  0  0  0  0
 10  3  1  0  0  0  0
 11 10  1  0  0  0  0
 12 10  1  0  0  0  0
 14 13  1  0  0  0  0
 15 14  1  0  0  0  0
 15 16  1  0  0  0  0
 17 16  1  0  0  0  0
 17 13  1  0  0  0  0
M  END
>  <minimizedAffinity>
-4.39410591

>  <minimizedRMSD>
1.21609187

$$$$
