
 OpenBabel03252509163D

 21 23  0  0  0  0  0  0  0  0999 V2000
   45.8530   33.1150   46.1430 C   0  0  0  0  0  0  0  0  0  0  0  0
   45.2880   32.9440   47.4380 C   0  0  0  0  0  0  0  0  0  0  0  0
   45.6870   31.8780   48.1770 C   0  0  0  0  0  0  0  0  0  0  0  0
   46.6460   30.9880   47.6230 C   0  0  0  0  0  0  0  0  0  0  0  0
   46.9980   31.7040   45.9670 S   0  0  0  0  0  0  0  0  0  0  0  0
   44.5650   33.6570   47.7970 H   0  0  0  0  0  0  0  0  0  0  0  0
   45.3260   31.6590   49.1470 H   0  0  0  0  0  0  0  0  0  0  0  0
   44.4760   36.1700   44.5500 C   0  0  0  0  0  0  0  0  0  0  0  0
   45.1310   36.0930   43.2940 C   0  0  0  0  0  0  0  0  0  0  0  0
   45.9990   35.0200   43.0500 C   0  0  0  0  0  0  0  0  0  0  0  0
   46.1620   34.1010   44.0540 N   0  0  0  0  0  0  0  0  0  0  0  0
   45.5160   34.2190   45.2350 C   0  0  0  0  0  0  0  0  0  0  0  0
   44.6730   35.2480   45.4910 N   0  0  0  0  0  0  0  0  0  0  0  0
   43.8090   37.0010   44.7300 H   0  0  0  0  0  0  0  0  0  0  0  0
   44.9970   36.8160   42.5150 H   0  0  0  0  0  0  0  0  0  0  0  0
   46.5330   34.8920   42.1190 H   0  0  0  0  0  0  0  0  0  0  0  0
   47.2750   29.8150   48.0910 C   0  0  0  0  0  3  0  0  0  0  0  0
   46.9350   28.5240   47.4050 C   0  0  0  0  0  2  0  0  0  0  0  0
   47.9110   28.4130   46.2910 C   0  0  0  0  0  2  0  0  0  0  0  0
   49.1830   29.0060   46.8470 C   0  0  0  0  0  2  0  0  0  0  0  0
   48.7730   29.9010   47.9760 C   0  0  0  0  0  2  0  0  0  0  0  0
  1  2  2  0  0  0  0
  2  6  1  0  0  0  0
  2  3  1  0  0  0  0
  3  7  1  0  0  0  0
  4 17  1  0  0  0  0
  4  3  2  0  0  0  0
  5  1  1  0  0  0  0
  5  4  1  0  0  0  0
  8 14  1  0  0  0  0
  8 13  1  0  0  0  0
  9  8  2  0  0  0  0
 10  9  1  0  0  0  0
 10 11  2  0  0  0  0
 11 12  1  0  0  0  0
 12 13  2  0  0  0  0
 12  1  1  0  0  0  0
 15  9  1  0  0  0  0
 16 10  1  0  0  0  0
 18 17  1  0  0  0  0
 19 20  1  0  0  0  0
 19 18  1  0  0  0  0
 20 21  1  0  0  0  0
 21 17  1  0  0  0  0
M  END
>  <minimizedAffinity>
-4.51462317

>  <minimizedRMSD>
0.885352552

$$$$
