
 OpenBabel03252503483D

 40 43  0  0  1  0  0  0  0  0999 V2000
   37.4770   30.3250   39.0320 C   0  0  0  0  0  0  0  0  0  0  0  0
   37.8280   29.0020   39.2630 C   0  0  0  0  0  0  0  0  0  0  0  0
   39.1880   28.7330   39.3770 C   0  0  0  0  0  0  0  0  0  0  0  0
   40.1240   29.7020   39.2740 N   0  0  0  0  0  0  0  0  0  0  0  0
   39.7320   30.9820   39.0480 C   0  0  0  0  0  0  0  0  0  0  0  0
   38.4310   31.2940   38.9290 N   0  0  0  0  0  0  0  0  0  0  0  0
   36.4270   30.5390   38.9420 H   0  0  0  0  0  0  0  0  0  0  0  0
   39.6710   27.8140   39.5340 H   0  0  0  0  0  0  0  0  0  0  0  0
   41.2260   32.2000   37.4670 C   0  0  2  0  0  0  0  0  0  0  0  0
   40.7740   32.0040   38.9460 C   0  0  1  0  0  0  0  0  0  0  0  0
   40.3820   33.2740   39.2100 O   0  0  0  0  0  0  0  0  0  0  0  0
   41.3640   34.1100   38.7520 C   0  0  0  0  0  0  0  0  0  0  0  0
   42.1730   33.3750   37.6970 C   0  0  2  0  0  0  0  0  0  0  0  0
   41.7520   31.3110   37.0960 H   0  0  0  0  0  0  0  0  0  0  0  0
   41.6840   31.7510   39.5360 H   0  0  0  0  0  0  0  0  0  0  0  0
   40.8580   34.9720   38.2370 H   0  0  0  0  0  0  0  0  0  0  0  0
   41.9970   34.5440   39.5430 H   0  0  0  0  0  0  0  0  0  0  0  0
   43.1490   33.0310   38.1190 H   0  0  0  0  0  0  0  0  0  0  0  0
   40.2010   32.6520   36.7240 O   0  0  0  0  0  0  0  0  0  0  0  0
   39.6820   31.9170   36.3040 H   0  0  0  0  0  0  0  0  0  0  0  0
   42.4240   34.1110   36.5790 O   0  0  0  0  0  0  0  0  0  0  0  0
   43.3180   34.5110   36.5720 H   0  0  0  0  0  0  0  0  0  0  0  0
   36.8330   27.9550   39.3770 C   0  0  0  0  0  0  0  0  0  0  0  0
   35.8260   28.3680   39.1550 H   0  0  0  0  0  0  0  0  0  0  0  0
   36.9310   27.1500   38.6070 H   0  0  0  0  0  0  0  0  0  0  0  0
   36.7770   27.4370   40.7470 C   0  0  0  0  0  0  0  0  0  0  0  0
   36.5240   28.1950   41.8830 C   0  0  0  0  0  0  0  0  0  0  0  0
   36.5210   27.6470   43.1560 C   0  0  0  0  0  0  0  0  0  0  0  0
   36.7840   26.2900   43.2820 C   0  0  0  0  0  0  0  0  0  0  0  0
   37.0400   25.5180   42.1430 C   0  0  0  0  0  0  0  0  0  0  0  0
   37.0360   26.0890   40.8560 C   0  0  0  0  0  0  0  0  0  0  0  0
   36.3340   29.2390   41.6620 H   0  0  0  0  0  0  0  0  0  0  0  0
   36.3080   28.3430   43.9440 H   0  0  0  0  0  0  0  0  0  0  0  0
   36.7540   25.9880   44.3170 H   0  0  0  0  0  0  0  0  0  0  0  0
   37.2150   24.5140   42.5000 H   0  0  0  0  0  0  0  0  0  0  0  0
   37.2170   24.9800   39.9290 C   0  0  0  0  0  3  0  0  0  0  0  0
   36.2880   23.7890   40.3030 C   0  0  0  0  0  2  0  0  0  0  0  0
   36.7970   22.7380   39.3400 C   0  0  0  0  0  2  0  0  0  0  0  0
   38.2530   23.0660   39.0950 C   0  0  0  0  0  2  0  0  0  0  0  0
   38.5570   24.3090   39.9450 C   0  0  0  0  0  2  0  0  0  0  0  0
  1  2  1  0  0  0  0
  2 23  1  0  0  0  0
  2  3  2  0  0  0  0
  3  8  1  0  0  0  0
  4  3  1  0  0  0  0
  5  4  2  0  0  0  0
  6  1  2  0  0  0  0
  6  5  1  0  0  0  0
  7  1  1  0  0  0  0
  9 14  1  6  0  0  0
  9 13  1  0  0  0  0
  9 10  1  0  0  0  0
 10  5  1  0  0  0  0
 10 11  1  0  0  0  0
 10 15  1  1  0  0  0
 12 11  1  0  0  0  0
 12 17  1  0  0  0  0
 13 18  1  1  0  0  0
 13 12  1  0  0  0  0
 16 12  1  0  0  0  0
 19  9  1  0  0  0  0
 20 19  1  0  0  0  0
 21 13  1  0  0  0  0
 22 21  1  0  0  0  0
 23 26  1  0  0  0  0
 24 23  1  0  0  0  0
 25 23  1  0  0  0  0
 26 31  2  0  0  0  0
 26 27  1  0  0  0  0
 27 28  2  0  0  0  0
 28 29  1  0  0  0  0
 28 33  1  0  0  0  0
 29 34  1  0  0  0  0
 30 35  1  0  0  0  0
 30 29  2  0  0  0  0
 31 30  1  0  0  0  0
 32 27  1  0  0  0  0
 36 40  1  0  0  0  0
 36 37  1  0  0  0  0
 36 31  1  0  0  0  0
 38 37  1  0  0  0  0
 39 38  1  0  0  0  0
 39 40  1  0  0  0  0
M  END
>  <minimizedAffinity>
-6.59986877

$$$$

 OpenBabel03252503483D

 40 43  0  0  1  0  0  0  0  0999 V2000
   38.0850   28.9730   37.9610 C   0  0  0  0  0  0  0  0  0  0  0  0
   36.9650   29.2590   38.7300 C   0  0  0  0  0  0  0  0  0  0  0  0
   37.0250   30.4110   39.5080 C   0  0  0  0  0  0  0  0  0  0  0  0
   38.1100   31.2150   39.5190 N   0  0  0  0  0  0  0  0  0  0  0  0
   39.1820   30.8940   38.7500 C   0  0  0  0  0  0  0  0  0  0  0  0
   39.1750   29.7920   37.9820 N   0  0  0  0  0  0  0  0  0  0  0  0
   38.0450   28.0840   37.3580 H   0  0  0  0  0  0  0  0  0  0  0  0
   36.3080   30.8030   40.1680 H   0  0  0  0  0  0  0  0  0  0  0  0
   40.8920   32.0500   37.3520 C   0  0  2  0  0  0  0  0  0  0  0  0
   40.3370   31.7920   38.7860 C   0  0  1  0  0  0  0  0  0  0  0  0
   40.0770   33.0730   39.1380 O   0  0  0  0  0  0  0  0  0  0  0  0
   41.1710   33.8230   38.8010 C   0  0  0  0  0  0  0  0  0  0  0  0
   41.9510   33.0840   37.7250 C   0  0  2  0  0  0  0  0  0  0  0  0
   41.3350   31.1380   36.9310 H   0  0  0  0  0  0  0  0  0  0  0  0
   41.1780   31.3880   39.3940 H   0  0  0  0  0  0  0  0  0  0  0  0
   40.7970   34.7760   38.3370 H   0  0  0  0  0  0  0  0  0  0  0  0
   41.8030   34.1150   39.6550 H   0  0  0  0  0  0  0  0  0  0  0  0
   42.8560   32.5950   38.1630 H   0  0  0  0  0  0  0  0  0  0  0  0
   39.9680   32.6770   36.6020 O   0  0  0  0  0  0  0  0  0  0  0  0
   39.3950   32.0440   36.0970 H   0  0  0  0  0  0  0  0  0  0  0  0
   42.3470   33.8720   36.6880 O   0  0  0  0  0  0  0  0  0  0  0  0
   43.2800   34.1640   36.7570 H   0  0  0  0  0  0  0  0  0  0  0  0
   35.7950   28.4050   38.7250 C   0  0  0  0  0  0  0  0  0  0  0  0
   35.1130   28.6980   39.5520 H   0  0  0  0  0  0  0  0  0  0  0  0
   35.1410   28.5350   37.8270 H   0  0  0  0  0  0  0  0  0  0  0  0
   36.1670   27.0080   38.9680 C   0  0  0  0  0  0  0  0  0  0  0  0
   36.0730   25.9780   38.0420 C   0  0  0  0  0  0  0  0  0  0  0  0
   36.4100   24.6700   38.3500 C   0  0  0  0  0  0  0  0  0  0  0  0
   36.8540   24.3960   39.6360 C   0  0  0  0  0  0  0  0  0  0  0  0
   36.9520   25.4280   40.5760 C   0  0  0  0  0  0  0  0  0  0  0  0
   36.6100   26.7540   40.2470 C   0  0  0  0  0  0  0  0  0  0  0  0
   35.7150   26.3100   37.0740 H   0  0  0  0  0  0  0  0  0  0  0  0
   36.2940   23.9740   37.5420 H   0  0  0  0  0  0  0  0  0  0  0  0
   37.0810   23.3480   39.7490 H   0  0  0  0  0  0  0  0  0  0  0  0
   37.3120   24.9670   41.4850 H   0  0  0  0  0  0  0  0  0  0  0  0
   36.9490   27.5540   41.4150 C   0  0  0  0  0  3  0  0  0  0  0  0
   38.4930   27.7050   41.5530 C   0  0  0  0  0  2  0  0  0  0  0  0
   38.5770   28.3850   42.9030 C   0  0  0  0  0  2  0  0  0  0  0  0
   37.3640   27.9260   43.6800 C   0  0  0  0  0  2  0  0  0  0  0  0
   36.6030   26.9670   42.7500 C   0  0  0  0  0  2  0  0  0  0  0  0
  1  6  2  0  0  0  0
  1  2  1  0  0  0  0
  2  3  2  0  0  0  0
  3  4  1  0  0  0  0
  3  8  1  0  0  0  0
  5 10  1  0  0  0  0
  5  4  2  0  0  0  0
  6  5  1  0  0  0  0
  7  1  1  0  0  0  0
  9 14  1  6  0  0  0
  9 13  1  0  0  0  0
  9 10  1  0  0  0  0
 10 11  1  0  0  0  0
 10 15  1  1  0  0  0
 12 11  1  0  0  0  0
 12 17  1  0  0  0  0
 13 18  1  1  0  0  0
 13 12  1  0  0  0  0
 16 12  1  0  0  0  0
 19  9  1  0  0  0  0
 20 19  1  0  0  0  0
 21 22  1  0  0  0  0
 21 13  1  0  0  0  0
 23  2  1  0  0  0  0
 23 26  1  0  0  0  0
 23 24  1  0  0  0  0
 25 23  1  0  0  0  0
 26 31  1  0  0  0  0
 27 28  1  0  0  0  0
 27 26  2  0  0  0  0
 28 29  2  0  0  0  0
 29 34  1  0  0  0  0
 29 30  1  0  0  0  0
 30 35  1  0  0  0  0
 31 30  2  0  0  0  0
 31 36  1  0  0  0  0
 32 27  1  0  0  0  0
 33 28  1  0  0  0  0
 36 37  1  0  0  0  0
 36 40  1  0  0  0  0
 37 38  1  0  0  0  0
 38 39  1  0  0  0  0
 40 39  1  0  0  0  0
M  END
>  <minimizedAffinity>
-6.59919453

$$$$

 OpenBabel03252503483D

 40 43  0  0  1  0  0  0  0  0999 V2000
   37.9880   28.1020   42.7630 C   0  0  0  0  0  0  0  0  0  0  0  0
   37.2710   27.2050   41.9830 C   0  0  0  0  0  0  0  0  0  0  0  0
   36.9510   27.6220   40.6950 C   0  0  0  0  0  0  0  0  0  0  0  0
   37.3160   28.8320   40.2200 N   0  0  0  0  0  0  0  0  0  0  0  0
   38.0170   29.6770   41.0200 C   0  0  0  0  0  0  0  0  0  0  0  0
   38.3500   29.3220   42.2720 N   0  0  0  0  0  0  0  0  0  0  0  0
   38.2380   27.7860   43.7600 H   0  0  0  0  0  0  0  0  0  0  0  0
   36.4080   27.1170   39.9510 H   0  0  0  0  0  0  0  0  0  0  0  0
   37.1700   31.7010   39.8360 C   0  0  2  0  0  0  0  0  0  0  0  0
   38.3980   30.9770   40.4690 C   0  0  1  0  0  0  0  0  0  0  0  0
   38.7470   31.9220   41.3740 O   0  0  0  0  0  0  0  0  0  0  0  0
   38.7440   33.1290   40.7300 C   0  0  0  0  0  0  0  0  0  0  0  0
   37.8610   33.0180   39.4980 C   0  0  2  0  0  0  0  0  0  0  0  0
   36.8230   31.1730   38.9380 H   0  0  0  0  0  0  0  0  0  0  0  0
   39.1750   30.8970   39.6750 H   0  0  0  0  0  0  0  0  0  0  0  0
   38.2580   33.8750   41.4160 H   0  0  0  0  0  0  0  0  0  0  0  0
   39.7470   33.5220   40.4970 H   0  0  0  0  0  0  0  0  0  0  0  0
   38.4850   32.9230   38.5760 H   0  0  0  0  0  0  0  0  0  0  0  0
   36.2490   31.9620   40.7790 O   0  0  0  0  0  0  0  0  0  0  0  0
   35.5780   31.2360   40.8680 H   0  0  0  0  0  0  0  0  0  0  0  0
   37.0070   34.0660   39.3330 O   0  0  0  0  0  0  0  0  0  0  0  0
   37.3290   34.7300   38.6880 H   0  0  0  0  0  0  0  0  0  0  0  0
   36.8760   25.9030   42.4810 C   0  0  0  0  0  0  0  0  0  0  0  0
   37.4570   25.6590   43.3960 H   0  0  0  0  0  0  0  0  0  0  0  0
   35.8230   25.8610   42.8550 H   0  0  0  0  0  0  0  0  0  0  0  0
   37.1820   24.8560   41.5030 C   0  0  0  0  0  0  0  0  0  0  0  0
   36.2430   24.1270   40.7850 C   0  0  0  0  0  0  0  0  0  0  0  0
   36.6010   23.1240   39.8990 C   0  0  0  0  0  0  0  0  0  0  0  0
   37.9510   22.8480   39.7380 C   0  0  0  0  0  0  0  0  0  0  0  0
   38.9050   23.5770   40.4570 C   0  0  0  0  0  0  0  0  0  0  0  0
   38.5260   24.5970   41.3500 C   0  0  0  0  0  0  0  0  0  0  0  0
   35.2220   24.4300   40.9930 H   0  0  0  0  0  0  0  0  0  0  0  0
   35.7770   22.6430   39.4080 H   0  0  0  0  0  0  0  0  0  0  0  0
   38.0980   22.0500   39.0270 H   0  0  0  0  0  0  0  0  0  0  0  0
   39.8650   23.1780   40.1630 H   0  0  0  0  0  0  0  0  0  0  0  0
   39.7670   25.2020   41.8130 C   0  0  0  0  0  3  0  0  0  0  0  0
   40.8970   25.0230   40.7580 C   0  0  0  0  0  2  0  0  0  0  0  0
   42.0820   25.5460   41.5410 C   0  0  0  0  0  2  0  0  0  0  0  0
   41.7740   25.2740   42.9970 C   0  0  0  0  0  2  0  0  0  0  0  0
   40.4040   24.5790   43.0180 C   0  0  0  0  0  2  0  0  0  0  0  0
  1  7  1  0  0  0  0
  2 23  1  0  0  0  0
  2  1  2  0  0  0  0
  3  2  1  0  0  0  0
  4  3  2  0  0  0  0
  4  5  1  0  0  0  0
  5  6  2  0  0  0  0
  6  1  1  0  0  0  0
  8  3  1  0  0  0  0
  9 14  1  6  0  0  0
  9 10  1  0  0  0  0
  9 19  1  0  0  0  0
 10 15  1  6  0  0  0
 10  5  1  0  0  0  0
 10 11  1  0  0  0  0
 12 11  1  0  0  0  0
 12 16  1  0  0  0  0
 13 18  1  6  0  0  0
 13  9  1  0  0  0  0
 13 12  1  0  0  0  0
 17 12  1  0  0  0  0
 19 20  1  0  0  0  0
 21 13  1  0  0  0  0
 22 21  1  0  0  0  0
 23 25  1  0  0  0  0
 23 24  1  0  0  0  0
 26 23  1  0  0  0  0
 27 32  1  0  0  0  0
 27 26  2  0  0  0  0
 28 27  1  0  0  0  0
 29 28  2  0  0  0  0
 29 30  1  0  0  0  0
 30 31  2  0  0  0  0
 31 26  1  0  0  0  0
 31 36  1  0  0  0  0
 33 28  1  0  0  0  0
 34 29  1  0  0  0  0
 35 30  1  0  0  0  0
 36 40  1  0  0  0  0
 37 38  1  0  0  0  0
 37 36  1  0  0  0  0
 38 39  1  0  0  0  0
 39 40  1  0  0  0  0
M  END
>  <minimizedAffinity>
-6.50934839

$$$$

 OpenBabel03252503483D

 40 43  0  0  1  0  0  0  0  0999 V2000
   37.8870   29.7670   38.6290 C   0  0  0  0  0  0  0  0  0  0  0  0
   37.2400   29.8020   39.8570 C   0  0  0  0  0  0  0  0  0  0  0  0
   37.7740   30.6590   40.8140 C   0  0  0  0  0  0  0  0  0  0  0  0
   38.8610   31.4220   40.5690 N   0  0  0  0  0  0  0  0  0  0  0  0
   39.4600   31.3540   39.3530 C   0  0  0  0  0  0  0  0  0  0  0  0
   38.9850   30.5410   38.3940 N   0  0  0  0  0  0  0  0  0  0  0  0
   37.4790   29.1050   37.8860 H   0  0  0  0  0  0  0  0  0  0  0  0
   37.4580   30.8300   41.8010 H   0  0  0  0  0  0  0  0  0  0  0  0
   41.0720   32.1570   37.6280 C   0  0  2  0  0  0  0  0  0  0  0  0
   40.6330   32.1980   39.1240 C   0  0  1  0  0  0  0  0  0  0  0  0
   40.4320   33.5320   39.2410 O   0  0  0  0  0  0  0  0  0  0  0  0
   41.5100   34.1610   38.6810 C   0  0  0  0  0  0  0  0  0  0  0  0
   42.1810   33.2020   37.7120 C   0  0  2  0  0  0  0  0  0  0  0  0
   41.4580   31.1640   37.3590 H   0  0  0  0  0  0  0  0  0  0  0  0
   41.5130   31.8860   39.7320 H   0  0  0  0  0  0  0  0  0  0  0  0
   41.1190   35.0210   38.0730 H   0  0  0  0  0  0  0  0  0  0  0  0
   42.2170   34.5870   39.4110 H   0  0  0  0  0  0  0  0  0  0  0  0
   43.1080   32.7720   38.1640 H   0  0  0  0  0  0  0  0  0  0  0  0
   40.1030   32.6620   36.8460 O   0  0  0  0  0  0  0  0  0  0  0  0
   39.4760   31.9660   36.5190 H   0  0  0  0  0  0  0  0  0  0  0  0
   42.5060   33.7620   36.5140 O   0  0  0  0  0  0  0  0  0  0  0  0
   43.4470   34.0260   36.4530 H   0  0  0  0  0  0  0  0  0  0  0  0
   36.0720   28.9900   40.1300 C   0  0  0  0  0  0  0  0  0  0  0  0
   35.3540   29.5650   40.7540 H   0  0  0  0  0  0  0  0  0  0  0  0
   35.4590   28.7560   39.2240 H   0  0  0  0  0  0  0  0  0  0  0  0
   36.4340   27.7990   40.9040 C   0  0  0  0  0  0  0  0  0  0  0  0
   36.5960   27.7550   42.2820 C   0  0  0  0  0  0  0  0  0  0  0  0
   36.9750   26.6010   42.9490 C   0  0  0  0  0  0  0  0  0  0  0  0
   37.2000   25.4570   42.1950 C   0  0  0  0  0  0  0  0  0  0  0  0
   37.0400   25.4920   40.8060 C   0  0  0  0  0  0  0  0  0  0  0  0
   36.6490   26.6720   40.1430 C   0  0  0  0  0  0  0  0  0  0  0  0
   36.3940   28.7060   42.7640 H   0  0  0  0  0  0  0  0  0  0  0  0
   37.0610   26.7040   44.0130 H   0  0  0  0  0  0  0  0  0  0  0  0
   37.4900   24.6330   42.8270 H   0  0  0  0  0  0  0  0  0  0  0  0
   37.2720   24.4970   40.4560 H   0  0  0  0  0  0  0  0  0  0  0  0
   36.4700   26.3030   38.7460 C   0  0  0  0  0  3  0  0  0  0  0  0
   35.8040   24.9000   38.6250 C   0  0  0  0  0  2  0  0  0  0  0  0
   35.9090   24.6810   37.1310 C   0  0  0  0  0  2  0  0  0  0  0  0
   37.1320   25.4480   36.6800 C   0  0  0  0  0  2  0  0  0  0  0  0
   37.7190   26.0920   37.9460 C   0  0  0  0  0  2  0  0  0  0  0  0
  1  2  1  0  0  0  0
  2 23  1  0  0  0  0
  2  3  2  0  0  0  0
  3  8  1  0  0  0  0
  4  3  1  0  0  0  0
  5  4  2  0  0  0  0
  6  1  2  0  0  0  0
  6  5  1  0  0  0  0
  7  1  1  0  0  0  0
  9 14  1  6  0  0  0
  9 13  1  0  0  0  0
  9 10  1  0  0  0  0
 10 11  1  0  0  0  0
 10  5  1  0  0  0  0
 10 15  1  1  0  0  0
 12 11  1  0  0  0  0
 12 17  1  0  0  0  0
 13 18  1  1  0  0  0
 13 12  1  0  0  0  0
 16 12  1  0  0  0  0
 19  9  1  0  0  0  0
 20 19  1  0  0  0  0
 21 13  1  0  0  0  0
 22 21  1  0  0  0  0
 23 24  1  0  0  0  0
 23 26  1  0  0  0  0
 25 23  1  0  0  0  0
 26 27  1  0  0  0  0
 27 32  1  0  0  0  0
 27 28  2  0  0  0  0
 28 33  1  0  0  0  0
 29 34  1  0  0  0  0
 29 28  1  0  0  0  0
 30 29  2  0  0  0  0
 31 30  1  0  0  0  0
 31 26  2  0  0  0  0
 35 30  1  0  0  0  0
 36 31  1  0  0  0  0
 37 36  1  0  0  0  0
 38 37  1  0  0  0  0
 39 38  1  0  0  0  0
 39 40  1  0  0  0  0
 40 36  1  0  0  0  0
M  END
>  <minimizedAffinity>
-6.32833242

$$$$

 OpenBabel03252503483D

 40 43  0  0  1  0  0  0  0  0999 V2000
   39.2880   31.2920   38.8760 C   0  0  0  0  0  0  0  0  0  0  0  0
   38.5960   32.0270   39.8290 C   0  0  0  0  0  0  0  0  0  0  0  0
   39.3250   32.9930   40.5150 C   0  0  0  0  0  0  0  0  0  0  0  0
   40.6350   33.2130   40.2720 N   0  0  0  0  0  0  0  0  0  0  0  0
   41.2700   32.4690   39.3290 C   0  0  0  0  0  0  0  0  0  0  0  0
   40.6110   31.5230   38.6390 N   0  0  0  0  0  0  0  0  0  0  0  0
   38.7300   30.5440   38.3420 H   0  0  0  0  0  0  0  0  0  0  0  0
   39.0110   33.6430   41.2790 H   0  0  0  0  0  0  0  0  0  0  0  0
   43.0260   32.6600   37.5710 C   0  0  2  0  0  0  0  0  0  0  0  0
   42.6880   32.7390   39.0910 C   0  0  1  0  0  0  0  0  0  0  0  0
   43.0930   34.0090   39.3250 O   0  0  0  0  0  0  0  0  0  0  0  0
   44.3240   34.1610   38.7460 C   0  0  0  0  0  0  0  0  0  0  0  0
   44.4830   33.1070   37.6630 C   0  0  2  0  0  0  0  0  0  0  0  0
   42.9320   31.6310   37.2000 H   0  0  0  0  0  0  0  0  0  0  0  0
   43.3570   32.0180   39.6130 H   0  0  0  0  0  0  0  0  0  0  0  0
   44.3340   35.1620   38.2350 H   0  0  0  0  0  0  0  0  0  0  0  0
   45.1650   34.1630   39.4590 H   0  0  0  0  0  0  0  0  0  0  0  0
   45.1390   32.2760   38.0180 H   0  0  0  0  0  0  0  0  0  0  0  0
   42.3580   33.6110   36.8960 O   0  0  0  0  0  0  0  0  0  0  0  0
   41.4810   33.2920   36.5580 H   0  0  0  0  0  0  0  0  0  0  0  0
   44.9900   33.5870   36.4940 O   0  0  0  0  0  0  0  0  0  0  0  0
   45.9500   33.4220   36.3920 H   0  0  0  0  0  0  0  0  0  0  0  0
   37.1900   31.8010   40.0980 C   0  0  0  0  0  0  0  0  0  0  0  0
   36.8250   32.5490   40.8340 H   0  0  0  0  0  0  0  0  0  0  0  0
   36.5240   31.9920   39.2210 H   0  0  0  0  0  0  0  0  0  0  0  0
   36.9810   30.4840   40.7050 C   0  0  0  0  0  0  0  0  0  0  0  0
   37.4540   30.0870   41.9490 C   0  0  0  0  0  0  0  0  0  0  0  0
   37.2490   28.8110   42.4490 C   0  0  0  0  0  0  0  0  0  0  0  0
   36.5460   27.9090   41.6630 C   0  0  0  0  0  0  0  0  0  0  0  0
   36.0640   28.2990   40.4090 C   0  0  0  0  0  0  0  0  0  0  0  0
   36.2770   29.6010   39.9160 C   0  0  0  0  0  0  0  0  0  0  0  0
   37.9880   30.8740   42.4700 H   0  0  0  0  0  0  0  0  0  0  0  0
   37.6650   28.6380   43.4220 H   0  0  0  0  0  0  0  0  0  0  0  0
   36.4560   26.9560   42.1610 H   0  0  0  0  0  0  0  0  0  0  0  0
   35.5630   27.4330   40.0020 H   0  0  0  0  0  0  0  0  0  0  0  0
   35.5420   29.6770   38.6610 C   0  0  0  0  0  3  0  0  0  0  0  0
   34.2180   28.8640   38.7450 C   0  0  0  0  0  2  0  0  0  0  0  0
   33.7620   28.9410   37.3040 C   0  0  0  0  0  2  0  0  0  0  0  0
   35.0200   29.0610   36.4730 C   0  0  0  0  0  2  0  0  0  0  0  0
   36.1900   29.0370   37.4700 C   0  0  0  0  0  2  0  0  0  0  0  0
  1  2  1  0  0  0  0
  2 23  1  0  0  0  0
  2  3  2  0  0  0  0
  3  8  1  0  0  0  0
  4  3  1  0  0  0  0
  5  4  2  0  0  0  0
  6  1  2  0  0  0  0
  6  5  1  0  0  0  0
  7  1  1  0  0  0  0
  9 14  1  6  0  0  0
  9 13  1  0  0  0  0
  9 10  1  0  0  0  0
 10 11  1  0  0  0  0
 10  5  1  0  0  0  0
 10 15  1  1  0  0  0
 12 11  1  0  0  0  0
 12 17  1  0  0  0  0
 13 18  1  1  0  0  0
 13 12  1  0  0  0  0
 16 12  1  0  0  0  0
 19  9  1  0  0  0  0
 20 19  1  0  0  0  0
 21 13  1  0  0  0  0
 22 21  1  0  0  0  0
 23 26  1  0  0  0  0
 23 24  1  0  0  0  0
 25 23  1  0  0  0  0
 26 27  1  0  0  0  0
 27 28  2  0  0  0  0
 27 32  1  0  0  0  0
 28 33  1  0  0  0  0
 29 34  1  0  0  0  0
 29 28  1  0  0  0  0
 30 29  2  0  0  0  0
 31 30  1  0  0  0  0
 31 26  2  0  0  0  0
 35 30  1  0  0  0  0
 36 37  1  0  0  0  0
 36 31  1  0  0  0  0
 38 37  1  0  0  0  0
 39 38  1  0  0  0  0
 39 40  1  0  0  0  0
 40 36  1  0  0  0  0
M  END
>  <minimizedAffinity>
-6.24938631

$$$$

 OpenBabel03252503483D

 40 43  0  0  1  0  0  0  0  0999 V2000
   39.1000   29.1330   40.4200 C   0  0  0  0  0  0  0  0  0  0  0  0
   37.7960   29.6060   40.4790 C   0  0  0  0  0  0  0  0  0  0  0  0
   37.6090   30.9480   40.1610 C   0  0  0  0  0  0  0  0  0  0  0  0
   38.6340   31.7530   39.8100 N   0  0  0  0  0  0  0  0  0  0  0  0
   39.8930   31.2450   39.7660 C   0  0  0  0  0  0  0  0  0  0  0  0
   40.1270   29.9570   40.0650 N   0  0  0  0  0  0  0  0  0  0  0  0
   39.2510   28.0970   40.6660 H   0  0  0  0  0  0  0  0  0  0  0  0
   36.7210   31.5100   40.1560 H   0  0  0  0  0  0  0  0  0  0  0  0
   41.1580   32.1740   37.8300 C   0  0  2  0  0  0  0  0  0  0  0  0
   40.9770   32.1470   39.3780 C   0  0  1  0  0  0  0  0  0  0  0  0
   40.7470   33.4670   39.5790 O   0  0  0  0  0  0  0  0  0  0  0  0
   41.6900   34.1610   38.8720 C   0  0  0  0  0  0  0  0  0  0  0  0
   42.2250   33.2640   37.7670 C   0  0  2  0  0  0  0  0  0  0  0  0
   41.5310   31.2090   37.4610 H   0  0  0  0  0  0  0  0  0  0  0  0
   41.9580   31.8560   39.8170 H   0  0  0  0  0  0  0  0  0  0  0  0
   41.1700   35.0220   38.3720 H   0  0  0  0  0  0  0  0  0  0  0  0
   42.4940   34.5940   39.4890 H   0  0  0  0  0  0  0  0  0  0  0  0
   43.2310   32.8620   38.0410 H   0  0  0  0  0  0  0  0  0  0  0  0
   40.0530   32.6610   37.2400 O   0  0  0  0  0  0  0  0  0  0  0  0
   39.4060   31.9490   36.9960 H   0  0  0  0  0  0  0  0  0  0  0  0
   42.3210   33.8770   36.5550 O   0  0  0  0  0  0  0  0  0  0  0  0
   43.2270   34.1850   36.3470 H   0  0  0  0  0  0  0  0  0  0  0  0
   36.6870   28.7510   40.8530 C   0  0  0  0  0  0  0  0  0  0  0  0
   37.0290   27.9970   41.5940 H   0  0  0  0  0  0  0  0  0  0  0  0
   35.8760   29.2790   41.4130 H   0  0  0  0  0  0  0  0  0  0  0  0
   36.1940   28.0020   39.6940 C   0  0  0  0  0  0  0  0  0  0  0  0
   35.4880   28.5430   38.6280 C   0  0  0  0  0  0  0  0  0  0  0  0
   35.0190   27.7690   37.5780 C   0  0  0  0  0  0  0  0  0  0  0  0
   35.2700   26.4040   37.6120 C   0  0  0  0  0  0  0  0  0  0  0  0
   35.9800   25.8500   38.6820 C   0  0  0  0  0  0  0  0  0  0  0  0
   36.4550   26.6500   39.7390 C   0  0  0  0  0  0  0  0  0  0  0  0
   35.3520   29.6160   38.7100 H   0  0  0  0  0  0  0  0  0  0  0  0
   34.4920   28.3140   36.8180 H   0  0  0  0  0  0  0  0  0  0  0  0
   34.8540   25.9170   36.7450 H   0  0  0  0  0  0  0  0  0  0  0  0
   36.0400   24.7910   38.4790 H   0  0  0  0  0  0  0  0  0  0  0  0
   37.2370   25.7640   40.5900 C   0  0  0  0  0  3  0  0  0  0  0  0
   38.5820   25.3840   39.9040 C   0  0  0  0  0  2  0  0  0  0  0  0
   39.0930   24.3400   40.8740 C   0  0  0  0  0  2  0  0  0  0  0  0
   37.8660   23.7090   41.4940 C   0  0  0  0  0  2  0  0  0  0  0  0
   36.6580   24.4050   40.8480 C   0  0  0  0  0  2  0  0  0  0  0  0
  1  2  1  0  0  0  0
  1  7  1  0  0  0  0
  2 23  1  0  0  0  0
  3  2  2  0  0  0  0
  4  3  1  0  0  0  0
  5  4  2  0  0  0  0
  5  6  1  0  0  0  0
  6  1  2  0  0  0  0
  8  3  1  0  0  0  0
  9 14  1  6  0  0  0
  9 10  1  0  0  0  0
 10 11  1  0  0  0  0
 10  5  1  0  0  0  0
 10 15  1  1  0  0  0
 12 17  1  0  0  0  0
 12 11  1  0  0  0  0
 13  9  1  0  0  0  0
 13 18  1  1  0  0  0
 13 12  1  0  0  0  0
 16 12  1  0  0  0  0
 19  9  1  0  0  0  0
 20 19  1  0  0  0  0
 21 13  1  0  0  0  0
 22 21  1  0  0  0  0
 23 25  1  0  0  0  0
 23 24  1  0  0  0  0
 26 31  1  0  0  0  0
 26 23  1  0  0  0  0
 27 32  1  0  0  0  0
 27 26  2  0  0  0  0
 28 29  2  0  0  0  0
 28 27  1  0  0  0  0
 29 30  1  0  0  0  0
 30 31  2  0  0  0  0
 31 36  1  0  0  0  0
 33 28  1  0  0  0  0
 34 29  1  0  0  0  0
 35 30  1  0  0  0  0
 36 40  1  0  0  0  0
 37 36  1  0  0  0  0
 37 38  1  0  0  0  0
 38 39  1  0  0  0  0
 40 39  1  0  0  0  0
M  END
>  <minimizedAffinity>
-5.99239492

$$$$

 OpenBabel03252503483D

 40 43  0  0  1  0  0  0  0  0999 V2000
   38.4600   29.2710   39.7990 C   0  0  0  0  0  0  0  0  0  0  0  0
   37.3010   29.8560   40.2910 C   0  0  0  0  0  0  0  0  0  0  0  0
   37.3270   31.2370   40.4560 C   0  0  0  0  0  0  0  0  0  0  0  0
   38.4160   31.9770   40.1530 N   0  0  0  0  0  0  0  0  0  0  0  0
   39.5260   31.3600   39.6750 C   0  0  0  0  0  0  0  0  0  0  0  0
   39.5530   30.0280   39.4980 N   0  0  0  0  0  0  0  0  0  0  0  0
   38.4460   28.2030   39.6710 H   0  0  0  0  0  0  0  0  0  0  0  0
   36.5780   31.8750   40.8240 H   0  0  0  0  0  0  0  0  0  0  0  0
   40.9830   32.1780   37.8240 C   0  0  2  0  0  0  0  0  0  0  0  0
   40.6840   32.1950   39.3540 C   0  0  1  0  0  0  0  0  0  0  0  0
   40.5110   33.5280   39.5140 O   0  0  0  0  0  0  0  0  0  0  0  0
   41.5420   34.1560   38.8680 C   0  0  0  0  0  0  0  0  0  0  0  0
   42.1090   33.2080   37.8240 C   0  0  2  0  0  0  0  0  0  0  0  0
   41.3300   31.1870   37.5030 H   0  0  0  0  0  0  0  0  0  0  0  0
   41.6120   31.8610   39.8730 H   0  0  0  0  0  0  0  0  0  0  0  0
   41.1080   35.0330   38.3150 H   0  0  0  0  0  0  0  0  0  0  0  0
   42.3190   34.5600   39.5380 H   0  0  0  0  0  0  0  0  0  0  0  0
   43.0680   32.7600   38.1810 H   0  0  0  0  0  0  0  0  0  0  0  0
   39.9530   32.7090   37.1440 O   0  0  0  0  0  0  0  0  0  0  0  0
   39.2890   32.0270   36.8630 H   0  0  0  0  0  0  0  0  0  0  0  0
   42.3290   33.7880   36.6120 O   0  0  0  0  0  0  0  0  0  0  0  0
   43.2640   34.0430   36.4690 H   0  0  0  0  0  0  0  0  0  0  0  0
   36.1270   29.0730   40.6180 C   0  0  0  0  0  0  0  0  0  0  0  0
   35.9820   29.0560   41.7200 H   0  0  0  0  0  0  0  0  0  0  0  0
   35.1670   29.5250   40.2630 H   0  0  0  0  0  0  0  0  0  0  0  0
   36.2960   27.6790   40.1990 C   0  0  0  0  0  0  0  0  0  0  0  0
   36.8990   26.6810   40.9530 C   0  0  0  0  0  0  0  0  0  0  0  0
   37.0580   25.3880   40.4810 C   0  0  0  0  0  0  0  0  0  0  0  0
   36.5970   25.0990   39.2040 C   0  0  0  0  0  0  0  0  0  0  0  0
   35.9880   26.0980   38.4370 C   0  0  0  0  0  0  0  0  0  0  0  0
   35.8290   27.4060   38.9320 C   0  0  0  0  0  0  0  0  0  0  0  0
   37.2190   27.0230   41.9300 H   0  0  0  0  0  0  0  0  0  0  0  0
   37.5370   24.7150   41.1660 H   0  0  0  0  0  0  0  0  0  0  0  0
   36.7810   24.0660   38.9550 H   0  0  0  0  0  0  0  0  0  0  0  0
   35.7240   25.6310   37.4990 H   0  0  0  0  0  0  0  0  0  0  0  0
   35.0610   28.1230   37.9240 C   0  0  0  0  0  3  0  0  0  0  0  0
   34.1540   27.1460   37.1210 C   0  0  0  0  0  2  0  0  0  0  0  0
   33.6330   28.0800   36.0500 C   0  0  0  0  0  2  0  0  0  0  0  0
   34.7080   29.1250   35.8480 C   0  0  0  0  0  2  0  0  0  0  0  0
   35.8440   28.7560   36.8140 C   0  0  0  0  0  2  0  0  0  0  0  0
  1  2  1  0  0  0  0
  2  3  2  0  0  0  0
  2 23  1  0  0  0  0
  3  8  1  0  0  0  0
  4  3  1  0  0  0  0
  5  4  2  0  0  0  0
  6  5  1  0  0  0  0
  6  1  2  0  0  0  0
  7  1  1  0  0  0  0
  9 14  1  6  0  0  0
  9 13  1  0  0  0  0
  9 10  1  0  0  0  0
 10 11  1  0  0  0  0
 10  5  1  0  0  0  0
 10 15  1  1  0  0  0
 12 11  1  0  0  0  0
 12 17  1  0  0  0  0
 13 18  1  1  0  0  0
 13 12  1  0  0  0  0
 16 12  1  0  0  0  0
 19  9  1  0  0  0  0
 20 19  1  0  0  0  0
 21 13  1  0  0  0  0
 22 21  1  0  0  0  0
 23 24  1  0  0  0  0
 25 23  1  0  0  0  0
 26 23  1  0  0  0  0
 26 27  1  0  0  0  0
 27 32  1  0  0  0  0
 28 27  2  0  0  0  0
 28 33  1  0  0  0  0
 29 28  1  0  0  0  0
 30 31  1  0  0  0  0
 30 29  2  0  0  0  0
 31 26  2  0  0  0  0
 34 29  1  0  0  0  0
 35 30  1  0  0  0  0
 36 31  1  0  0  0  0
 37 36  1  0  0  0  0
 38 37  1  0  0  0  0
 39 38  1  0  0  0  0
 39 40  1  0  0  0  0
 40 36  1  0  0  0  0
M  END
>  <minimizedAffinity>
-5.95880365

$$$$

 OpenBabel03252503483D

 40 43  0  0  1  0  0  0  0  0999 V2000
   37.9080   31.0970   38.2470 C   0  0  0  0  0  0  0  0  0  0  0  0
   37.4950   30.9380   39.5630 C   0  0  0  0  0  0  0  0  0  0  0  0
   38.3950   31.3380   40.5470 C   0  0  0  0  0  0  0  0  0  0  0  0
   39.6040   31.8580   40.2470 N   0  0  0  0  0  0  0  0  0  0  0  0
   39.9640   31.9940   38.9440 C   0  0  0  0  0  0  0  0  0  0  0  0
   39.1320   31.6220   37.9570 N   0  0  0  0  0  0  0  0  0  0  0  0
   37.2170   30.7890   37.4830 H   0  0  0  0  0  0  0  0  0  0  0  0
   38.2970   31.2930   41.5920 H   0  0  0  0  0  0  0  0  0  0  0  0
   42.1490   31.5790   37.8180 C   0  0  2  0  0  0  0  0  0  0  0  0
   41.2800   32.5650   38.6580 C   0  0  1  0  0  0  0  0  0  0  0  0
   41.2940   33.6210   37.8110 O   0  0  0  0  0  0  0  0  0  0  0  0
   42.5870   33.8050   37.4040 C   0  0  0  0  0  0  0  0  0  0  0  0
   43.3440   32.5010   37.5940 C   0  0  2  0  0  0  0  0  0  0  0  0
   42.4160   30.6920   38.4070 H   0  0  0  0  0  0  0  0  0  0  0  0
   41.8560   32.8030   39.5810 H   0  0  0  0  0  0  0  0  0  0  0  0
   42.5650   34.0140   36.3000 H   0  0  0  0  0  0  0  0  0  0  0  0
   43.0950   34.6610   37.8770 H   0  0  0  0  0  0  0  0  0  0  0  0
   43.9920   32.5530   38.5030 H   0  0  0  0  0  0  0  0  0  0  0  0
   41.5790   31.3630   36.6200 O   0  0  0  0  0  0  0  0  0  0  0  0
   40.9710   30.5780   36.6240 H   0  0  0  0  0  0  0  0  0  0  0  0
   44.1210   32.1520   36.5310 O   0  0  0  0  0  0  0  0  0  0  0  0
   45.0660   32.3830   36.6500 H   0  0  0  0  0  0  0  0  0  0  0  0
   36.1990   30.3840   39.8980 C   0  0  0  0  0  0  0  0  0  0  0  0
   36.1240   30.2460   40.9980 H   0  0  0  0  0  0  0  0  0  0  0  0
   35.3440   31.0720   39.6890 H   0  0  0  0  0  0  0  0  0  0  0  0
   36.0300   29.0560   39.3000 C   0  0  0  0  0  0  0  0  0  0  0  0
   35.3970   28.7940   38.0920 C   0  0  0  0  0  0  0  0  0  0  0  0
   35.2400   27.5080   37.6000 C   0  0  0  0  0  0  0  0  0  0  0  0
   35.7360   26.4550   38.3580 C   0  0  0  0  0  0  0  0  0  0  0  0
   36.3750   26.7100   39.5760 C   0  0  0  0  0  0  0  0  0  0  0  0
   36.5310   28.0230   40.0600 C   0  0  0  0  0  0  0  0  0  0  0  0
   35.0520   29.6910   37.5910 H   0  0  0  0  0  0  0  0  0  0  0  0
   34.7370   27.4470   36.6550 H   0  0  0  0  0  0  0  0  0  0  0  0
   35.5500   25.5120   37.8700 H   0  0  0  0  0  0  0  0  0  0  0  0
   36.6620   25.7450   39.9670 H   0  0  0  0  0  0  0  0  0  0  0  0
   37.3330   27.9080   41.2700 C   0  0  0  0  0  3  0  0  0  0  0  0
   38.0220   26.5140   41.3470 C   0  0  0  0  0  2  0  0  0  0  0  0
   38.6110   26.5810   42.7400 C   0  0  0  0  0  2  0  0  0  0  0  0
   37.7020   27.4920   43.5350 C   0  0  0  0  0  2  0  0  0  0  0  0
   36.5870   27.9260   42.5700 C   0  0  0  0  0  2  0  0  0  0  0  0
  1  2  1  0  0  0  0
  2 23  1  0  0  0  0
  2  3  2  0  0  0  0
  3  8  1  0  0  0  0
  4  3  1  0  0  0  0
  5  4  2  0  0  0  0
  6  1  2  0  0  0  0
  6  5  1  0  0  0  0
  7  1  1  0  0  0  0
  9 14  1  1  0  0  0
  9 10  1  0  0  0  0
 10  5  1  0  0  0  0
 10 15  1  1  0  0  0
 11 10  1  0  0  0  0
 12 13  1  0  0  0  0
 12 11  1  0  0  0  0
 12 17  1  0  0  0  0
 13  9  1  0  0  0  0
 13 18  1  1  0  0  0
 16 12  1  0  0  0  0
 19 20  1  0  0  0  0
 19  9  1  0  0  0  0
 21 22  1  0  0  0  0
 21 13  1  0  0  0  0
 23 24  1  0  0  0  0
 25 23  1  0  0  0  0
 26 23  1  0  0  0  0
 26 31  1  0  0  0  0
 27 26  2  0  0  0  0
 28 27  1  0  0  0  0
 28 29  2  0  0  0  0
 29 30  1  0  0  0  0
 30 35  1  0  0  0  0
 30 31  2  0  0  0  0
 31 36  1  0  0  0  0
 32 27  1  0  0  0  0
 33 28  1  0  0  0  0
 34 29  1  0  0  0  0
 36 37  1  0  0  0  0
 36 40  1  0  0  0  0
 37 38  1  0  0  0  0
 38 39  1  0  0  0  0
 40 39  1  0  0  0  0
M  END
>  <minimizedAffinity>
-5.95205641

$$$$

 OpenBabel03252503483D

 40 43  0  0  1  0  0  0  0  0999 V2000
   36.4860   27.1350   39.6010 C   0  0  0  0  0  0  0  0  0  0  0  0
   36.2090   28.0650   40.5920 C   0  0  0  0  0  0  0  0  0  0  0  0
   35.6530   29.2700   40.1730 C   0  0  0  0  0  0  0  0  0  0  0  0
   35.3920   29.5280   38.8730 N   0  0  0  0  0  0  0  0  0  0  0  0
   35.6810   28.5860   37.9390 C   0  0  0  0  0  0  0  0  0  0  0  0
   36.2190   27.4060   38.2910 N   0  0  0  0  0  0  0  0  0  0  0  0
   36.9160   26.2020   39.9190 H   0  0  0  0  0  0  0  0  0  0  0  0
   35.3830   30.1100   40.7440 H   0  0  0  0  0  0  0  0  0  0  0  0
   36.5470   29.6930   35.8800 C   0  0  2  0  0  0  0  0  0  0  0  0
   35.3800   28.8990   36.5420 C   0  0  1  0  0  0  0  0  0  0  0  0
   35.3450   27.8430   35.6950 O   0  0  0  0  0  0  0  0  0  0  0  0
   35.3870   28.3380   34.4190 C   0  0  0  0  0  0  0  0  0  0  0  0
   35.9890   29.7330   34.4600 C   0  0  2  0  0  0  0  0  0  0  0  0
   36.6370   30.6970   36.3170 H   0  0  0  0  0  0  0  0  0  0  0  0
   34.4590   29.5160   36.4270 H   0  0  0  0  0  0  0  0  0  0  0  0
   36.0940   27.6920   33.8310 H   0  0  0  0  0  0  0  0  0  0  0  0
   34.4210   28.3100   33.8890 H   0  0  0  0  0  0  0  0  0  0  0  0
   35.1900   30.5070   34.3610 H   0  0  0  0  0  0  0  0  0  0  0  0
   37.6620   28.9430   35.8510 O   0  0  0  0  0  0  0  0  0  0  0  0
   38.2320   29.0770   36.6530 H   0  0  0  0  0  0  0  0  0  0  0  0
   36.9290   29.9580   33.5010 O   0  0  0  0  0  0  0  0  0  0  0  0
   36.5810   30.4450   32.7250 H   0  0  0  0  0  0  0  0  0  0  0  0
   36.4830   27.8000   41.9900 C   0  0  0  0  0  0  0  0  0  0  0  0
   36.9900   28.6780   42.4460 H   0  0  0  0  0  0  0  0  0  0  0  0
   35.5660   27.7060   42.6220 H   0  0  0  0  0  0  0  0  0  0  0  0
   37.4020   26.6680   42.1350 C   0  0  0  0  0  0  0  0  0  0  0  0
   37.0370   25.3290   42.1200 C   0  0  0  0  0  0  0  0  0  0  0  0
   37.9550   24.3060   42.2990 C   0  0  0  0  0  0  0  0  0  0  0  0
   39.2840   24.6520   42.5020 C   0  0  0  0  0  0  0  0  0  0  0  0
   39.6610   25.9990   42.5190 C   0  0  0  0  0  0  0  0  0  0  0  0
   38.7170   27.0270   42.3320 C   0  0  0  0  0  0  0  0  0  0  0  0
   35.9750   25.1810   41.9540 H   0  0  0  0  0  0  0  0  0  0  0  0
   37.5390   23.3180   42.2610 H   0  0  0  0  0  0  0  0  0  0  0  0
   39.8930   23.7720   42.6300 H   0  0  0  0  0  0  0  0  0  0  0  0
   40.7270   26.0040   42.6940 H   0  0  0  0  0  0  0  0  0  0  0  0
   39.4810   28.2660   42.2910 C   0  0  0  0  0  3  0  0  0  0  0  0
   38.7160   29.4110   43.0170 C   0  0  0  0  0  2  0  0  0  0  0  0
   39.6020   30.5880   42.6710 C   0  0  0  0  0  2  0  0  0  0  0  0
   40.2390   30.2550   41.3410 C   0  0  0  0  0  2  0  0  0  0  0  0
   39.6880   28.8780   40.9390 C   0  0  0  0  0  2  0  0  0  0  0  0
  1  7  1  0  0  0  0
  1  2  1  0  0  0  0
  2 23  1  0  0  0  0
  3  2  2  0  0  0  0
  3  8  1  0  0  0  0
  4  3  1  0  0  0  0
  5  6  1  0  0  0  0
  5  4  2  0  0  0  0
  6  1  2  0  0  0  0
  9 14  1  1  0  0  0
  9 10  1  0  0  0  0
 10 15  1  6  0  0  0
 10  5  1  0  0  0  0
 11 10  1  0  0  0  0
 12 13  1  0  0  0  0
 12 11  1  0  0  0  0
 13 18  1  6  0  0  0
 13  9  1  0  0  0  0
 16 12  1  0  0  0  0
 17 12  1  0  0  0  0
 19  9  1  0  0  0  0
 19 20  1  0  0  0  0
 21 13  1  0  0  0  0
 22 21  1  0  0  0  0
 23 26  1  0  0  0  0
 23 24  1  0  0  0  0
 23 25  1  0  0  0  0
 26 31  1  0  0  0  0
 27 26  2  0  0  0  0
 27 28  1  0  0  0  0
 28 29  2  0  0  0  0
 29 30  1  0  0  0  0
 29 34  1  0  0  0  0
 30 35  1  0  0  0  0
 31 30  2  0  0  0  0
 32 27  1  0  0  0  0
 33 28  1  0  0  0  0
 36 31  1  0  0  0  0
 36 37  1  0  0  0  0
 38 37  1  0  0  0  0
 39 38  1  0  0  0  0
 40 39  1  0  0  0  0
 40 36  1  0  0  0  0
M  END
>  <minimizedAffinity>
-5.93794775

$$$$
