
 OpenBabel03252508263D

 37 41  0  0  1  0  0  0  0  0999 V2000
   46.0920   32.1970   46.8330 C   0  0  1  0  0  0  0  0  0  0  0  0
   45.6480   32.4200   48.2170 C   0  0  0  0  0  0  0  0  0  0  0  0
   44.9270   31.4290   47.2220 C   0  0  2  0  0  0  0  0  0  0  0  0
   47.1830   31.8510   46.9250 H   0  0  0  0  0  0  0  0  0  0  0  0
   45.0600   33.2990   48.5130 H   0  0  0  0  0  0  0  0  0  0  0  0
   46.0180   31.8420   49.0830 H   0  0  0  0  0  0  0  0  0  0  0  0
   43.8650   31.8350   47.1970 H   0  0  0  0  0  0  0  0  0  0  0  0
   44.9110   29.9940   47.5100 C   0  0  0  0  0  0  0  0  0  0  0  0
   44.9010   29.3930   48.7290 C   0  0  0  0  0  0  0  0  0  0  0  0
   45.0190   28.0280   48.9660 C   0  0  0  0  0  0  0  0  0  0  0  0
   45.1610   27.2110   47.8340 C   0  0  0  0  0  0  0  0  0  0  0  0
   45.1710   27.8040   46.5710 C   0  0  0  0  0  0  0  0  0  0  0  0
   45.2510   26.9490   45.4900 C   0  0  0  0  0  0  0  0  0  0  0  0
   45.1950   27.4850   44.2030 C   0  0  0  0  0  0  0  0  0  0  0  0
   45.0580   28.8450   44.0140 C   0  0  0  0  0  0  0  0  0  0  0  0
   44.9850   29.6450   45.1290 C   0  0  0  0  0  0  0  0  0  0  0  0
   45.0450   29.1610   46.4270 C   0  0  0  0  0  0  0  0  0  0  0  0
   44.7880   30.0700   49.5780 H   0  0  0  0  0  0  0  0  0  0  0  0
   45.0000   27.6320   49.9750 H   0  0  0  0  0  0  0  0  0  0  0  0
   45.2560   26.1530   48.0190 H   0  0  0  0  0  0  0  0  0  0  0  0
   45.3560   25.8790   45.6640 H   0  0  0  0  0  0  0  0  0  0  0  0
   45.2700   26.7160   43.4210 H   0  0  0  0  0  0  0  0  0  0  0  0
   45.0310   29.0570   42.9740 H   0  0  0  0  0  0  0  0  0  0  0  0
   44.8010   30.6050   44.7380 H   0  0  0  0  0  0  0  0  0  0  0  0
   44.8690   35.1780   45.0290 C   0  0  0  0  0  0  0  0  0  0  0  0
   45.6890   35.1710   43.8460 C   0  0  0  0  0  0  0  0  0  0  0  0
   46.6590   34.1290   43.7170 C   0  0  0  0  0  0  0  0  0  0  0  0
   46.7670   33.2120   44.6870 N   0  0  0  0  0  0  0  0  0  0  0  0
   45.9540   33.2650   45.8000 C   0  0  0  0  0  0  0  0  0  0  0  0
   45.0400   34.2170   45.9620 N   0  0  0  0  0  0  0  0  0  0  0  0
   44.1470   35.9800   45.0940 H   0  0  0  0  0  0  0  0  0  0  0  0
   45.5980   35.9020   43.0790 H   0  0  0  0  0  0  0  0  0  0  0  0
   47.5410   34.0470   42.5380 C   0  0  0  0  0  3  0  0  0  0  0  0
   47.6570   35.3750   41.8180 C   0  0  0  0  0  2  0  0  0  0  0  0
   49.1220   35.7030   41.7550 C   0  0  0  0  0  2  0  0  0  0  0  0
   49.8050   34.3670   41.8790 C   0  0  0  0  0  2  0  0  0  0  0  0
   48.9700   33.6610   42.9060 C   0  0  0  0  0  2  0  0  0  0  0  0
  1  4  1  6  0  0  0
  1  3  1  0  0  0  0
  1  2  1  0  0  0  0
  2  5  1  0  0  0  0
  2  6  1  0  0  0  0
  3  7  1  6  0  0  0
  3  8  1  0  0  0  0
  3  2  1  0  0  0  0
  8  9  1  0  0  0  0
  9 10  2  0  0  0  0
  9 18  1  0  0  0  0
 10 19  1  0  0  0  0
 11 20  1  0  0  0  0
 11 10  1  0  0  0  0
 12 11  2  0  0  0  0
 13 21  1  0  0  0  0
 13 12  1  0  0  0  0
 14 13  2  0  0  0  0
 15 14  1  0  0  0  0
 15 16  2  0  0  0  0
 16 17  1  0  0  0  0
 17 12  1  0  0  0  0
 17  8  2  0  0  0  0
 22 14  1  0  0  0  0
 23 15  1  0  0  0  0
 24 16  1  0  0  0  0
 25 31  1  0  0  0  0
 25 30  1  0  0  0  0
 26 25  2  0  0  0  0
 27 26  1  0  0  0  0
 27 28  2  0  0  0  0
 28 29  1  0  0  0  0
 29 30  2  0  0  0  0
 29  1  1  0  0  0  0
 32 26  1  0  0  0  0
 33 37  1  0  0  0  0
 33 27  1  0  0  0  0
 34 33  1  0  0  0  0
 35 34  1  0  0  0  0
 35 36  1  0  0  0  0
 36 37  1  0  0  0  0
M  END
>  <minimizedAffinity>
-5.14918947

>  <minimizedRMSD>
1.24799204

$$$$
