
 OpenBabel03252502173D

 20 21  0  0  0  0  0  0  0  0999 V2000
   46.4070   35.2010   42.6220 C   0  0  0  0  0  0  0  0  0  0  0  0
   46.8800   34.0980   43.3520 C   0  0  0  0  0  0  0  0  0  0  0  0
   46.2830   33.7900   44.5750 C   0  0  0  0  0  0  0  0  0  0  0  0
   45.2570   34.5950   44.9980 N   0  0  0  0  0  0  0  0  0  0  0  0
   44.8270   35.6430   44.2780 C   0  0  0  0  0  0  0  0  0  0  0  0
   45.4010   35.9530   43.0830 N   0  0  0  0  0  0  0  0  0  0  0  0
   46.8340   35.4820   41.6690 H   0  0  0  0  0  0  0  0  0  0  0  0
   44.0110   36.2730   44.6280 H   0  0  0  0  0  0  0  0  0  0  0  0
   46.7310   32.6580   45.3680 C   0  0  0  0  0  3  0  0  0  0  0  0
   46.0670   31.3470   45.0180 C   0  0  0  0  0  2  0  0  0  0  0  0
   46.2680   30.5680   46.3030 C   0  0  0  0  0  2  0  0  0  0  0  0
   45.8490   31.6230   47.3360 C   0  0  0  0  0  2  0  0  0  0  0  0
   46.6960   32.8060   46.8480 C   0  0  0  0  0  2  0  0  0  0  0  0
   47.9210   33.3710   42.8110 O   0  0  0  0  0  0  0  0  0  0  0  0
   50.3820   33.1350   41.8710 O   0  0  0  0  0  0  0  0  0  0  0  0
   49.3260   34.1460   42.1870 P   0  0  0  0  0  0  0  0  0  0  0  0
   48.9760   34.9760   40.7530 O   0  0  0  0  0  0  0  0  0  0  0  0
   48.6290   34.4000   40.0520 H   0  0  0  0  0  0  0  0  0  0  0  0
   49.9230   35.2490   43.3200 O   0  0  0  0  0  0  0  0  0  0  0  0
   49.4050   36.0990   43.1800 H   0  0  0  0  0  0  0  0  0  0  0  0
  1  6  2  0  0  0  0
  1  2  1  0  0  0  0
  2  3  2  0  0  0  0
  3  4  1  0  0  0  0
  3  9  1  0  0  0  0
  5  8  1  0  0  0  0
  5  4  2  0  0  0  0
  6  5  1  0  0  0  0
  7  1  1  0  0  0  0
  9 13  1  0  0  0  0
 10  9  1  0  0  0  0
 10 11  1  0  0  0  0
 11 12  1  0  0  0  0
 13 12  1  0  0  0  0
 14  2  1  0  0  0  0
 15 16  2  0  0  0  0
 16 14  1  0  0  0  0
 16 19  1  0  0  0  0
 17 16  1  0  0  0  0
 18 17  1  0  0  0  0
 20 19  1  0  0  0  0
M  END
>  <minimizedAffinity>
-5.26476622

>  <minimizedRMSD>
0.529275835

$$$$
