
 OpenBabel03252509303D

 17 18  0  0  0  0  0  0  0  0999 V2000
   35.6460   29.6860   40.2360 C   0  0  0  0  0  0  0  0  0  0  0  0
   35.7160   28.5170   41.0350 C   0  0  0  0  0  0  0  0  0  0  0  0
   36.7100   28.4830   42.0140 C   0  0  0  0  0  0  0  0  0  0  0  0
   37.5520   29.5580   42.1550 N   0  0  0  0  0  0  0  0  0  0  0  0
   37.4290   30.6470   41.3550 C   0  0  0  0  0  0  0  0  0  0  0  0
   36.4900   30.7120   40.4080 N   0  0  0  0  0  0  0  0  0  0  0  0
   34.8930   29.7450   39.4710 H   0  0  0  0  0  0  0  0  0  0  0  0
   35.0220   27.7040   40.8720 H   0  0  0  0  0  0  0  0  0  0  0  0
   38.1470   31.4300   41.5590 H   0  0  0  0  0  0  0  0  0  0  0  0
   36.7940   27.2840   42.8460 C   0  0  0  0  0  0  0  0  0  0  0  0
   35.7930   26.9400   43.1460 H   0  0  0  0  0  0  0  0  0  0  0  0
   37.4760   27.4590   43.7170 H   0  0  0  0  0  0  0  0  0  0  0  0
   37.4550   26.2110   42.0080 C   0  0  0  0  0  3  0  0  0  0  0  0
   38.8810   25.9840   42.4400 C   0  0  0  0  0  2  0  0  0  0  0  0
   39.0600   24.4830   42.5890 C   0  0  0  0  0  2  0  0  0  0  0  0
   37.9380   23.9600   41.6820 C   0  0  0  0  0  2  0  0  0  0  0  0
   36.8230   24.8660   42.1800 C   0  0  0  0  0  2  0  0  0  0  0  0
  1  6  2  0  0  0  0
  1  2  1  0  0  0  0
  2  3  2  0  0  0  0
  3  4  1  0  0  0  0
  3 10  1  0  0  0  0
  5  9  1  0  0  0  0
  5  4  2  0  0  0  0
  6  5  1  0  0  0  0
  7  1  1  0  0  0  0
  8  2  1  0  0  0  0
 10 11  1  0  0  0  0
 10 12  1  0  0  0  0
 13 17  1  0  0  0  0
 13 14  1  0  0  0  0
 13 10  1  0  0  0  0
 14 15  1  0  0  0  0
 16 17  1  0  0  0  0
 16 15  1  0  0  0  0
M  END
>  <minimizedAffinity>
-4.0486021

$$$$

 OpenBabel03252509303D

 17 18  0  0  0  0  0  0  0  0999 V2000
   38.5780   24.4280   42.2410 C   0  0  0  0  0  0  0  0  0  0  0  0
   37.5590   25.4090   42.1600 C   0  0  0  0  0  0  0  0  0  0  0  0
   37.7670   26.5920   42.8710 C   0  0  0  0  0  0  0  0  0  0  0  0
   38.9210   26.7470   43.5960 N   0  0  0  0  0  0  0  0  0  0  0  0
   39.8580   25.7650   43.6300 C   0  0  0  0  0  0  0  0  0  0  0  0
   39.6900   24.6210   42.9620 N   0  0  0  0  0  0  0  0  0  0  0  0
   38.4500   23.5040   41.7060 H   0  0  0  0  0  0  0  0  0  0  0  0
   36.6710   25.2250   41.5700 H   0  0  0  0  0  0  0  0  0  0  0  0
   40.7240   26.0000   44.2340 H   0  0  0  0  0  0  0  0  0  0  0  0
   36.7240   27.6140   42.7970 C   0  0  0  0  0  0  0  0  0  0  0  0
   36.7300   28.2510   43.6940 H   0  0  0  0  0  0  0  0  0  0  0  0
   35.7280   27.1430   42.6000 H   0  0  0  0  0  0  0  0  0  0  0  0
   37.0280   28.4680   41.5840 C   0  0  0  0  0  3  0  0  0  0  0  0
   35.7630   28.8640   40.8660 C   0  0  0  0  0  2  0  0  0  0  0  0
   35.8500   30.3600   40.6190 C   0  0  0  0  0  2  0  0  0  0  0  0
   37.3670   30.5820   40.6770 C   0  0  0  0  0  2  0  0  0  0  0  0
   37.6500   29.7820   41.9380 C   0  0  0  0  0  2  0  0  0  0  0  0
  1  6  1  0  0  0  0
  2  1  2  0  0  0  0
  2  3  1  0  0  0  0
  3  4  2  0  0  0  0
  4  5  1  0  0  0  0
  5  9  1  0  0  0  0
  6  5  2  0  0  0  0
  7  1  1  0  0  0  0
  8  2  1  0  0  0  0
 10  3  1  0  0  0  0
 10 11  1  0  0  0  0
 12 10  1  0  0  0  0
 13 17  1  0  0  0  0
 13 10  1  0  0  0  0
 14 13  1  0  0  0  0
 15 16  1  0  0  0  0
 15 14  1  0  0  0  0
 16 17  1  0  0  0  0
M  END
>  <minimizedAffinity>
-3.91734576

$$$$

 OpenBabel03252509303D

 17 18  0  0  0  0  0  0  0  0999 V2000
   37.0200   32.0760   39.4590 C   0  0  0  0  0  0  0  0  0  0  0  0
   37.3710   30.7960   39.9530 C   0  0  0  0  0  0  0  0  0  0  0  0
   38.4060   30.7450   40.8890 C   0  0  0  0  0  0  0  0  0  0  0  0
   39.0190   31.9100   41.2770 N   0  0  0  0  0  0  0  0  0  0  0  0
   38.6320   33.1050   40.7620 C   0  0  0  0  0  0  0  0  0  0  0  0
   37.6460   33.1890   39.8650 N   0  0  0  0  0  0  0  0  0  0  0  0
   36.2280   32.1520   38.7360 H   0  0  0  0  0  0  0  0  0  0  0  0
   36.8480   29.9160   39.6060 H   0  0  0  0  0  0  0  0  0  0  0  0
   39.1870   33.9510   41.1420 H   0  0  0  0  0  0  0  0  0  0  0  0
   38.7790   29.4310   41.4090 C   0  0  0  0  0  0  0  0  0  0  0  0
   39.5470   29.5190   42.1920 H   0  0  0  0  0  0  0  0  0  0  0  0
   39.0820   28.7510   40.5730 H   0  0  0  0  0  0  0  0  0  0  0  0
   37.5290   28.8230   42.0090 C   0  0  0  0  0  3  0  0  0  0  0  0
   37.2540   27.4600   41.4270 C   0  0  0  0  0  2  0  0  0  0  0  0
   36.9860   26.5300   42.5980 C   0  0  0  0  0  2  0  0  0  0  0  0
   36.5520   27.5310   43.6770 C   0  0  0  0  0  2  0  0  0  0  0  0
   37.6590   28.5530   43.4750 C   0  0  0  0  0  2  0  0  0  0  0  0
  1  6  2  0  0  0  0
  1  2  1  0  0  0  0
  2  3  2  0  0  0  0
  3  4  1  0  0  0  0
  3 10  1  0  0  0  0
  5  9  1  0  0  0  0
  5  4  2  0  0  0  0
  6  5  1  0  0  0  0
  7  1  1  0  0  0  0
  8  2  1  0  0  0  0
 10 13  1  0  0  0  0
 10 11  1  0  0  0  0
 12 10  1  0  0  0  0
 13 17  1  0  0  0  0
 14 13  1  0  0  0  0
 14 15  1  0  0  0  0
 15 16  1  0  0  0  0
 17 16  1  0  0  0  0
M  END
>  <minimizedAffinity>
-3.89646935

$$$$

 OpenBabel03252509303D

 17 18  0  0  0  0  0  0  0  0999 V2000
   39.1830   31.5230   41.4130 C   0  0  0  0  0  0  0  0  0  0  0  0
   39.2060   30.4310   42.3150 C   0  0  0  0  0  0  0  0  0  0  0  0
   38.0280   29.6920   42.4380 C   0  0  0  0  0  0  0  0  0  0  0  0
   36.9300   30.0490   41.6970 N   0  0  0  0  0  0  0  0  0  0  0  0
   36.9780   31.1090   40.8500 C   0  0  0  0  0  0  0  0  0  0  0  0
   38.0880   31.8370   40.7090 N   0  0  0  0  0  0  0  0  0  0  0  0
   40.0740   32.1140   41.2940 H   0  0  0  0  0  0  0  0  0  0  0  0
   40.1050   30.2020   42.8710 H   0  0  0  0  0  0  0  0  0  0  0  0
   36.0530   31.2940   40.3200 H   0  0  0  0  0  0  0  0  0  0  0  0
   38.0360   28.5620   43.3660 C   0  0  0  0  0  0  0  0  0  0  0  0
   37.0180   28.1760   43.5270 H   0  0  0  0  0  0  0  0  0  0  0  0
   38.5560   28.8400   44.3170 H   0  0  0  0  0  0  0  0  0  0  0  0
   38.8800   27.4770   42.7310 C   0  0  0  0  0  3  0  0  0  0  0  0
   39.9470   26.9930   43.6790 C   0  0  0  0  0  2  0  0  0  0  0  0
   39.8880   25.4760   43.6680 C   0  0  0  0  0  2  0  0  0  0  0  0
   39.2220   25.2160   42.3110 C   0  0  0  0  0  2  0  0  0  0  0  0
   38.1010   26.2360   42.4260 C   0  0  0  0  0  2  0  0  0  0  0  0
  1  2  1  0  0  0  0
  2  3  2  0  0  0  0
  2  8  1  0  0  0  0
  3 10  1  0  0  0  0
  4  3  1  0  0  0  0
  5  4  2  0  0  0  0
  6  5  1  0  0  0  0
  6  1  2  0  0  0  0
  7  1  1  0  0  0  0
  9  5  1  0  0  0  0
 10 11  1  0  0  0  0
 10 12  1  0  0  0  0
 13 10  1  0  0  0  0
 13 14  1  0  0  0  0
 15 14  1  0  0  0  0
 16 17  1  0  0  0  0
 16 15  1  0  0  0  0
 17 13  1  0  0  0  0
M  END
>  <minimizedAffinity>
-3.87292433

$$$$

 OpenBabel03252509303D

 17 18  0  0  0  0  0  0  0  0999 V2000
   37.1050   30.9950   38.1040 C   0  0  0  0  0  0  0  0  0  0  0  0
   36.8010   29.9300   38.9880 C   0  0  0  0  0  0  0  0  0  0  0  0
   36.7180   30.2430   40.3450 C   0  0  0  0  0  0  0  0  0  0  0  0
   36.9290   31.5370   40.7510 N   0  0  0  0  0  0  0  0  0  0  0  0
   37.2170   32.5100   39.8490 C   0  0  0  0  0  0  0  0  0  0  0  0
   37.3040   32.2440   38.5440 N   0  0  0  0  0  0  0  0  0  0  0  0
   37.1780   30.7880   37.0510 H   0  0  0  0  0  0  0  0  0  0  0  0
   36.6460   28.9300   38.6030 H   0  0  0  0  0  0  0  0  0  0  0  0
   37.3630   33.4890   40.2860 H   0  0  0  0  0  0  0  0  0  0  0  0
   36.4050   29.1540   41.2690 C   0  0  0  0  0  0  0  0  0  0  0  0
   36.3860   28.1860   40.7470 H   0  0  0  0  0  0  0  0  0  0  0  0
   35.4570   29.3720   41.8230 H   0  0  0  0  0  0  0  0  0  0  0  0
   37.5020   29.1310   42.3120 C   0  0  0  0  0  3  0  0  0  0  0  0
   37.1710   28.1730   43.4280 C   0  0  0  0  0  2  0  0  0  0  0  0
   38.4040   27.3150   43.6490 C   0  0  0  0  0  2  0  0  0  0  0  0
   39.5010   28.2200   43.0730 C   0  0  0  0  0  2  0  0  0  0  0  0
   38.7990   28.6070   41.7810 C   0  0  0  0  0  2  0  0  0  0  0  0
  1  6  2  0  0  0  0
  1  2  1  0  0  0  0
  2  3  2  0  0  0  0
  3  4  1  0  0  0  0
  3 10  1  0  0  0  0
  5  9  1  0  0  0  0
  5  4  2  0  0  0  0
  6  5  1  0  0  0  0
  7  1  1  0  0  0  0
  8  2  1  0  0  0  0
 10 12  1  0  0  0  0
 10 13  1  0  0  0  0
 11 10  1  0  0  0  0
 13 14  1  0  0  0  0
 14 15  1  0  0  0  0
 16 15  1  0  0  0  0
 17 13  1  0  0  0  0
 17 16  1  0  0  0  0
M  END
>  <minimizedAffinity>
-3.83951092

$$$$

 OpenBabel03252509303D

 17 18  0  0  0  0  0  0  0  0999 V2000
   39.0040   31.5090   38.4090 C   0  0  0  0  0  0  0  0  0  0  0  0
   38.0040   30.8200   39.1400 C   0  0  0  0  0  0  0  0  0  0  0  0
   37.7120   31.3040   40.4160 C   0  0  0  0  0  0  0  0  0  0  0  0
   38.3900   32.3980   40.8920 N   0  0  0  0  0  0  0  0  0  0  0  0
   39.3380   33.0110   40.1360 C   0  0  0  0  0  0  0  0  0  0  0  0
   39.6410   32.5740   38.9120 N   0  0  0  0  0  0  0  0  0  0  0  0
   39.2540   31.1620   37.4220 H   0  0  0  0  0  0  0  0  0  0  0  0
   37.5070   29.9620   38.7080 H   0  0  0  0  0  0  0  0  0  0  0  0
   39.8040   33.8620   40.6150 H   0  0  0  0  0  0  0  0  0  0  0  0
   36.6830   30.6040   41.1820 C   0  0  0  0  0  0  0  0  0  0  0  0
   35.7740   30.4560   40.5800 H   0  0  0  0  0  0  0  0  0  0  0  0
   36.4870   31.1330   42.1490 H   0  0  0  0  0  0  0  0  0  0  0  0
   37.2530   29.2520   41.5550 C   0  0  0  0  0  3  0  0  0  0  0  0
   37.8740   29.2840   42.9280 C   0  0  0  0  0  2  0  0  0  0  0  0
   37.3380   28.0780   43.6800 C   0  0  0  0  0  2  0  0  0  0  0  0
   36.9380   27.1590   42.5170 C   0  0  0  0  0  2  0  0  0  0  0  0
   36.2060   28.1900   41.6740 C   0  0  0  0  0  2  0  0  0  0  0  0
  1  6  2  0  0  0  0
  1  2  1  0  0  0  0
  2  3  2  0  0  0  0
  3  4  1  0  0  0  0
  3 10  1  0  0  0  0
  5  9  1  0  0  0  0
  5  4  2  0  0  0  0
  6  5  1  0  0  0  0
  7  1  1  0  0  0  0
  8  2  1  0  0  0  0
 10 13  1  0  0  0  0
 10 12  1  0  0  0  0
 11 10  1  0  0  0  0
 13 17  1  0  0  0  0
 13 14  1  0  0  0  0
 14 15  1  0  0  0  0
 16 15  1  0  0  0  0
 17 16  1  0  0  0  0
M  END
>  <minimizedAffinity>
-3.77397156

$$$$

 OpenBabel03252509303D

 17 18  0  0  0  0  0  0  0  0999 V2000
   37.1350   26.7380   41.7040 C   0  0  0  0  0  0  0  0  0  0  0  0
   36.6420   27.9160   41.0910 C   0  0  0  0  0  0  0  0  0  0  0  0
   36.8380   29.1130   41.7810 C   0  0  0  0  0  0  0  0  0  0  0  0
   37.4840   29.0940   42.9910 N   0  0  0  0  0  0  0  0  0  0  0  0
   37.9320   27.9270   43.5210 C   0  0  0  0  0  0  0  0  0  0  0  0
   37.7610   26.7640   42.8880 N   0  0  0  0  0  0  0  0  0  0  0  0
   37.0000   25.7970   41.2000 H   0  0  0  0  0  0  0  0  0  0  0  0
   36.1400   27.8630   40.1340 H   0  0  0  0  0  0  0  0  0  0  0  0
   38.4250   28.0360   44.4780 H   0  0  0  0  0  0  0  0  0  0  0  0
   36.3350   30.3380   41.1610 C   0  0  0  0  0  0  0  0  0  0  0  0
   36.1090   31.1020   41.9200 H   0  0  0  0  0  0  0  0  0  0  0  0
   35.4640   30.1100   40.4960 H   0  0  0  0  0  0  0  0  0  0  0  0
   37.4300   30.8540   40.2520 C   0  0  0  0  0  3  0  0  0  0  0  0
   36.9510   30.9550   38.8260 C   0  0  0  0  0  2  0  0  0  0  0  0
   37.3510   32.3330   38.3260 C   0  0  0  0  0  2  0  0  0  0  0  0
   38.5120   32.6650   39.2740 C   0  0  0  0  0  2  0  0  0  0  0  0
   37.8450   32.2540   40.5770 C   0  0  0  0  0  2  0  0  0  0  0  0
  1  6  1  0  0  0  0
  2  1  2  0  0  0  0
  2  3  1  0  0  0  0
  3  4  2  0  0  0  0
  4  5  1  0  0  0  0
  5  9  1  0  0  0  0
  6  5  2  0  0  0  0
  7  1  1  0  0  0  0
  8  2  1  0  0  0  0
 10  3  1  0  0  0  0
 10 11  1  0  0  0  0
 12 10  1  0  0  0  0
 13 17  1  0  0  0  0
 13 10  1  0  0  0  0
 14 13  1  0  0  0  0
 15 14  1  0  0  0  0
 15 16  1  0  0  0  0
 16 17  1  0  0  0  0
M  END
>  <minimizedAffinity>
-3.69738746

$$$$

 OpenBabel03252509303D

 17 18  0  0  0  0  0  0  0  0999 V2000
   36.3330   30.3970   40.1730 C   0  0  0  0  0  0  0  0  0  0  0  0
   36.6580   30.1460   41.5290 C   0  0  0  0  0  0  0  0  0  0  0  0
   37.9230   29.6140   41.7850 C   0  0  0  0  0  0  0  0  0  0  0  0
   38.7720   29.3650   40.7360 N   0  0  0  0  0  0  0  0  0  0  0  0
   38.3960   29.6300   39.4590 C   0  0  0  0  0  0  0  0  0  0  0  0
   37.1930   30.1380   39.1800 N   0  0  0  0  0  0  0  0  0  0  0  0
   35.3660   30.8050   39.9400 H   0  0  0  0  0  0  0  0  0  0  0  0
   35.9420   30.3640   42.3100 H   0  0  0  0  0  0  0  0  0  0  0  0
   39.1480   29.3930   38.7180 H   0  0  0  0  0  0  0  0  0  0  0  0
   38.2720   29.3500   43.1790 C   0  0  0  0  0  0  0  0  0  0  0  0
   37.5840   29.8680   43.8640 H   0  0  0  0  0  0  0  0  0  0  0  0
   39.3470   29.6000   43.3670 H   0  0  0  0  0  0  0  0  0  0  0  0
   38.1470   27.8560   43.3910 C   0  0  0  0  0  3  0  0  0  0  0  0
   36.8280   27.3430   42.8730 C   0  0  0  0  0  2  0  0  0  0  0  0
   37.1370   26.1220   42.0230 C   0  0  0  0  0  2  0  0  0  0  0  0
   38.4970   25.7000   42.5950 C   0  0  0  0  0  2  0  0  0  0  0  0
   39.1540   27.0710   42.6120 C   0  0  0  0  0  2  0  0  0  0  0  0
  1  2  1  0  0  0  0
  2  3  2  0  0  0  0
  2  8  1  0  0  0  0
  3 10  1  0  0  0  0
  4  3  1  0  0  0  0
  5  4  2  0  0  0  0
  6  5  1  0  0  0  0
  6  1  2  0  0  0  0
  7  1  1  0  0  0  0
  9  5  1  0  0  0  0
 10 12  1  0  0  0  0
 10 13  1  0  0  0  0
 10 11  1  0  0  0  0
 14 13  1  0  0  0  0
 15 16  1  0  0  0  0
 15 14  1  0  0  0  0
 16 17  1  0  0  0  0
 17 13  1  0  0  0  0
M  END
>  <minimizedAffinity>
-3.68959308

$$$$

 OpenBabel03252509303D

 17 18  0  0  0  0  0  0  0  0999 V2000
   36.9980   24.5410   38.5030 C   0  0  0  0  0  0  0  0  0  0  0  0
   36.8300   25.1360   39.7780 C   0  0  0  0  0  0  0  0  0  0  0  0
   37.1350   24.3450   40.8870 C   0  0  0  0  0  0  0  0  0  0  0  0
   37.5720   23.0590   40.6960 N   0  0  0  0  0  0  0  0  0  0  0  0
   37.7110   22.5500   39.4440 C   0  0  0  0  0  0  0  0  0  0  0  0
   37.4280   23.2800   38.3620 N   0  0  0  0  0  0  0  0  0  0  0  0
   36.7720   25.1220   37.6270 H   0  0  0  0  0  0  0  0  0  0  0  0
   36.4810   26.1560   39.8610 H   0  0  0  0  0  0  0  0  0  0  0  0
   38.0620   21.5280   39.4180 H   0  0  0  0  0  0  0  0  0  0  0  0
   36.9670   24.9460   42.2090 C   0  0  0  0  0  0  0  0  0  0  0  0
   37.5180   24.3790   42.9740 H   0  0  0  0  0  0  0  0  0  0  0  0
   35.8810   25.0650   42.4500 H   0  0  0  0  0  0  0  0  0  0  0  0
   37.5340   26.3480   42.1320 C   0  0  0  0  0  3  0  0  0  0  0  0
   36.5880   27.3510   42.7390 C   0  0  0  0  0  2  0  0  0  0  0  0
   37.4100   28.2150   43.6800 C   0  0  0  0  0  2  0  0  0  0  0  0
   38.8170   28.0290   43.0970 C   0  0  0  0  0  2  0  0  0  0  0  0
   38.7820   26.5170   42.9380 C   0  0  0  0  0  2  0  0  0  0  0  0
  1  2  1  0  0  0  0
  2  8  1  0  0  0  0
  2  3  2  0  0  0  0
  3 10  1  0  0  0  0
  4  3  1  0  0  0  0
  5  4  2  0  0  0  0
  6  1  2  0  0  0  0
  6  5  1  0  0  0  0
  7  1  1  0  0  0  0
  9  5  1  0  0  0  0
 10 12  1  0  0  0  0
 10 11  1  0  0  0  0
 13 10  1  0  0  0  0
 13 14  1  0  0  0  0
 13 17  1  0  0  0  0
 14 15  1  0  0  0  0
 16 15  1  0  0  0  0
 17 16  1  0  0  0  0
M  END
>  <minimizedAffinity>
-3.63132

$$$$
