
 OpenBabel03242518433D

 15 16  0  0  0  0  0  0  0  0999 V2000
   44.8770   34.9550   44.6430 C   0  0  0  0  0  0  0  0  0  0  0  0
   45.6830   34.8400   43.4910 C   0  0  0  0  0  0  0  0  0  0  0  0
   46.7990   33.9740   43.5720 C   0  0  0  0  0  0  0  0  0  0  0  0
   47.0280   33.3110   44.7410 N   0  0  0  0  0  0  0  0  0  0  0  0
   46.2270   33.4560   45.8170 C   0  0  0  0  0  0  0  0  0  0  0  0
   45.1550   34.2740   45.7690 N   0  0  0  0  0  0  0  0  0  0  0  0
   45.4490   35.3910   42.5950 H   0  0  0  0  0  0  0  0  0  0  0  0
   47.4420   33.8590   42.7100 H   0  0  0  0  0  0  0  0  0  0  0  0
   46.4820   32.7310   47.0880 C   0  0  0  0  0  0  0  0  0  0  0  0
   46.8140   31.2670   46.8790 C   0  0  0  0  0  0  0  0  0  0  0  0
   46.6780   30.7260   48.2840 C   0  0  0  0  0  0  0  0  0  0  0  0
   45.6890   31.6340   48.9900 C   0  0  0  0  0  0  0  0  0  0  0  0
   45.2160   32.6230   47.9260 C   0  0  0  0  0  0  0  0  0  0  0  0
   43.7920   35.7920   44.5760 O   0  0  0  0  0  0  0  0  0  0  0  0
   42.8450   35.5080   44.3640 H   0  0  0  0  0  0  0  0  0  0  0  0
  1  6  1  0  0  0  0
  2  3  1  0  0  0  0
  2  1  2  0  0  0  0
  3  4  2  0  0  0  0
  4  5  1  0  0  0  0
  5  9  1  0  0  0  0
  6  5  2  0  0  0  0
  7  2  1  0  0  0  0
  8  3  1  0  0  0  0
  9 13  1  0  0  0  0
 10  9  1  0  0  0  0
 10 11  1  0  0  0  0
 11 12  1  0  0  0  0
 13 12  1  0  0  0  0
 14  1  1  0  0  0  0
 15 14  1  0  0  0  0
M  END
>  <minimizedAffinity>
-4.73014593

>  <minimizedRMSD>
1.88294399

$$$$
