
 OpenBabel03252507523D

 27 29  0  0  1  0  0  0  0  0999 V2000
   46.8750   34.9420   42.0940 C   0  0  2  0  0  0  0  0  0  0  0  0
   46.2570   34.2080   40.9560 C   0  0  0  0  0  0  0  0  0  0  0  0
   47.4530   34.0700   40.0260 C   0  0  0  0  0  0  0  0  0  0  0  0
   48.6630   34.0860   40.9130 C   0  0  1  0  0  0  0  0  0  0  0  0
   48.1230   34.0820   42.3410 C   0  0  0  0  0  0  0  0  0  0  0  0
   47.2470   35.9210   41.7700 H   0  0  0  0  0  0  0  0  0  0  0  0
   45.8120   33.2530   41.2310 H   0  0  0  0  0  0  0  0  0  0  0  0
   45.5330   34.8930   40.4400 H   0  0  0  0  0  0  0  0  0  0  0  0
   47.4580   34.8650   39.2520 H   0  0  0  0  0  0  0  0  0  0  0  0
   47.3580   33.0690   39.5580 H   0  0  0  0  0  0  0  0  0  0  0  0
   49.2420   35.0110   40.7290 H   0  0  0  0  0  0  0  0  0  0  0  0
   47.8670   33.0670   42.6410 H   0  0  0  0  0  0  0  0  0  0  0  0
   48.7380   34.6420   43.0450 H   0  0  0  0  0  0  0  0  0  0  0  0
   44.4270   36.0580   44.7370 C   0  0  0  0  0  0  0  0  0  0  0  0
   45.1390   36.0780   43.5430 C   0  0  0  0  0  0  0  0  0  0  0  0
   46.0560   35.0620   43.3100 C   0  0  0  0  0  0  0  0  0  0  0  0
   46.2060   34.0910   44.2790 N   0  0  0  0  0  0  0  0  0  0  0  0
   45.5000   34.1040   45.4220 C   0  0  0  0  0  0  0  0  0  0  0  0
   44.6130   35.0750   45.6630 N   0  0  0  0  0  0  0  0  0  0  0  0
   43.7320   36.9010   44.8220 H   0  0  0  0  0  0  0  0  0  0  0  0
   45.0160   36.8420   42.7870 H   0  0  0  0  0  0  0  0  0  0  0  0
   45.6360   33.3320   46.1660 H   0  0  0  0  0  0  0  0  0  0  0  0
   49.5110   32.8440   40.7560 C   0  0  0  0  0  3  0  0  0  0  0  0
   49.2470   31.8240   41.8110 C   0  0  0  0  0  2  0  0  0  0  0  0
   48.4410   30.7140   41.1590 C   0  0  0  0  0  2  0  0  0  0  0  0
   49.1310   30.6420   39.7920 C   0  0  0  0  0  2  0  0  0  0  0  0
   49.2340   32.1310   39.4610 C   0  0  0  0  0  2  0  0  0  0  0  0
  1  6  1  6  0  0  0
  1  5  1  0  0  0  0
  1 16  1  0  0  0  0
  2  7  1  0  0  0  0
  2  1  1  0  0  0  0
  3  4  1  0  0  0  0
  3  2  1  0  0  0  0
  4 11  1  6  0  0  0
  4  5  1  0  0  0  0
  5 12  1  0  0  0  0
  5 13  1  0  0  0  0
  8  2  1  0  0  0  0
  9  3  1  0  0  0  0
 10  3  1  0  0  0  0
 14 20  1  0  0  0  0
 14 19  1  0  0  0  0
 15 14  2  0  0  0  0
 16 15  1  0  0  0  0
 16 17  2  0  0  0  0
 17 18  1  0  0  0  0
 18 19  2  0  0  0  0
 18 22  1  0  0  0  0
 21 15  1  0  0  0  0
 23  4  1  0  0  0  0
 23 24  1  0  0  0  0
 25 24  1  0  0  0  0
 26 25  1  0  0  0  0
 27 26  1  0  0  0  0
 27 23  1  0  0  0  0
M  END
>  <minimizedAffinity>
-4.56487608

>  <minimizedRMSD>
1.71808624

$$$$
