
 OpenBabel03242510283D

 14 15  0  0  0  0  0  0  0  0999 V2000
   37.0700   30.7380   38.1820 C   0  0  0  0  0  0  0  0  0  0  0  0
   36.9300   29.8820   39.2820 C   0  0  0  0  0  0  0  0  0  0  0  0
   36.9720   30.4560   40.5570 C   0  0  0  0  0  0  0  0  0  0  0  0
   37.1460   31.8130   40.6600 N   0  0  0  0  0  0  0  0  0  0  0  0
   37.2750   32.5970   39.5740 C   0  0  0  0  0  0  0  0  0  0  0  0
   37.2380   32.0690   38.3420 N   0  0  0  0  0  0  0  0  0  0  0  0
   37.0220   30.1890   37.2320 H   0  0  0  0  0  0  0  0  0  0  0  0
   36.7930   28.8100   39.1890 H   0  0  0  0  0  0  0  0  0  0  0  0
   37.4130   33.6710   39.6940 H   0  0  0  0  0  0  0  0  0  0  0  0
   36.8380   29.6670   41.7920 C   0  0  0  0  0  3  0  0  0  0  0  0
   38.1200   29.5010   42.5730 C   0  0  0  0  0  2  0  0  0  0  0  0
   37.6410   28.5140   43.6370 C   0  0  0  0  0  2  0  0  0  0  0  0
   36.6250   27.6440   42.9270 C   0  0  0  0  0  2  0  0  0  0  0  0
   36.5190   28.2030   41.5160 C   0  0  0  0  0  2  0  0  0  0  0  0
  1  6  2  0  0  0  0
  1  2  1  0  0  0  0
  2  3  2  0  0  0  0
  3  4  1  0  0  0  0
  3 10  1  0  0  0  0
  5  9  1  0  0  0  0
  5  4  2  0  0  0  0
  6  5  1  0  0  0  0
  7  1  1  0  0  0  0
  8  2  1  0  0  0  0
 10 11  1  0  0  0  0
 11 12  1  0  0  0  0
 13 12  1  0  0  0  0
 14 10  1  0  0  0  0
 14 13  1  0  0  0  0
M  END
>  <minimizedAffinity>
-3.86161232

$$$$

 OpenBabel03242510283D

 14 15  0  0  0  0  0  0  0  0999 V2000
   36.9550   31.9180   39.8550 C   0  0  0  0  0  0  0  0  0  0  0  0
   36.6090   30.8480   40.6900 C   0  0  0  0  0  0  0  0  0  0  0  0
   37.5890   30.3660   41.5640 C   0  0  0  0  0  0  0  0  0  0  0  0
   38.8240   30.9640   41.5570 N   0  0  0  0  0  0  0  0  0  0  0  0
   39.1120   31.9910   40.7370 C   0  0  0  0  0  0  0  0  0  0  0  0
   38.1880   32.4690   39.8900 N   0  0  0  0  0  0  0  0  0  0  0  0
   36.1170   32.2180   39.2110 H   0  0  0  0  0  0  0  0  0  0  0  0
   35.6290   30.3830   40.6870 H   0  0  0  0  0  0  0  0  0  0  0  0
   40.1040   32.4390   40.7580 H   0  0  0  0  0  0  0  0  0  0  0  0
   37.3520   29.2490   42.4910 C   0  0  0  0  0  3  0  0  0  0  0  0
   38.5970   28.5000   42.9020 C   0  0  0  0  0  2  0  0  0  0  0  0
   37.9560   27.3510   43.6790 C   0  0  0  0  0  2  0  0  0  0  0  0
   36.6540   27.0750   42.9570 C   0  0  0  0  0  2  0  0  0  0  0  0
   36.5750   28.1090   41.8430 C   0  0  0  0  0  2  0  0  0  0  0  0
  1  6  2  0  0  0  0
  1  2  1  0  0  0  0
  2  3  2  0  0  0  0
  3 10  1  0  0  0  0
  4  3  1  0  0  0  0
  5  9  1  0  0  0  0
  5  4  2  0  0  0  0
  6  5  1  0  0  0  0
  7  1  1  0  0  0  0
  8  2  1  0  0  0  0
 10 11  1  0  0  0  0
 11 12  1  0  0  0  0
 13 12  1  0  0  0  0
 14 10  1  0  0  0  0
 14 13  1  0  0  0  0
M  END
>  <minimizedAffinity>
-3.85568476

$$$$

 OpenBabel03242510283D

 14 15  0  0  0  0  0  0  0  0999 V2000
   39.7560   26.7580   43.6790 C   0  0  0  0  0  0  0  0  0  0  0  0
   38.8670   27.7650   43.2820 C   0  0  0  0  0  0  0  0  0  0  0  0
   37.7850   27.3940   42.4770 C   0  0  0  0  0  0  0  0  0  0  0  0
   37.6530   26.0740   42.1250 N   0  0  0  0  0  0  0  0  0  0  0  0
   38.5320   25.1390   42.5300 C   0  0  0  0  0  0  0  0  0  0  0  0
   39.5770   25.4720   43.3020 N   0  0  0  0  0  0  0  0  0  0  0  0
   40.5660   27.1540   44.3050 H   0  0  0  0  0  0  0  0  0  0  0  0
   38.9810   28.8060   43.5670 H   0  0  0  0  0  0  0  0  0  0  0  0
   38.3950   24.1020   42.2300 H   0  0  0  0  0  0  0  0  0  0  0  0
   36.7820   28.3560   41.9950 C   0  0  0  0  0  3  0  0  0  0  0  0
   36.2390   28.0580   40.6170 C   0  0  0  0  0  2  0  0  0  0  0  0
   35.4050   29.3190   40.3960 C   0  0  0  0  0  2  0  0  0  0  0  0
   36.1750   30.4180   41.0970 C   0  0  0  0  0  2  0  0  0  0  0  0
   37.3750   29.7360   41.7380 C   0  0  0  0  0  2  0  0  0  0  0  0
  1  7  1  0  0  0  0
  2  8  1  0  0  0  0
  2  1  2  0  0  0  0
  3  2  1  0  0  0  0
  4  3  2  0  0  0  0
  4  5  1  0  0  0  0
  5  6  2  0  0  0  0
  6  1  1  0  0  0  0
  9  5  1  0  0  0  0
 10  3  1  0  0  0  0
 11 10  1  0  0  0  0
 12 11  1  0  0  0  0
 12 13  1  0  0  0  0
 13 14  1  0  0  0  0
 14 10  1  0  0  0  0
M  END
>  <minimizedAffinity>
-3.72141409

$$$$

 OpenBabel03242510283D

 14 15  0  0  0  0  0  0  0  0999 V2000
   38.4490   28.8230   43.1440 C   0  0  0  0  0  0  0  0  0  0  0  0
   38.3430   29.9510   42.3200 C   0  0  0  0  0  0  0  0  0  0  0  0
   37.2600   30.0070   41.4360 C   0  0  0  0  0  0  0  0  0  0  0  0
   36.3680   28.9650   41.4260 N   0  0  0  0  0  0  0  0  0  0  0  0
   36.5100   27.9000   42.2360 C   0  0  0  0  0  0  0  0  0  0  0  0
   37.5400   27.8240   43.0910 N   0  0  0  0  0  0  0  0  0  0  0  0
   39.3300   28.8780   43.7970 H   0  0  0  0  0  0  0  0  0  0  0  0
   39.0540   30.7700   42.3370 H   0  0  0  0  0  0  0  0  0  0  0  0
   35.7820   27.0910   42.2000 H   0  0  0  0  0  0  0  0  0  0  0  0
   37.0360   31.1350   40.5200 C   0  0  0  0  0  3  0  0  0  0  0  0
   37.3890   30.8530   39.0780 C   0  0  0  0  0  2  0  0  0  0  0  0
   37.2080   32.2530   38.4950 C   0  0  0  0  0  2  0  0  0  0  0  0
   37.6360   33.1920   39.6030 C   0  0  0  0  0  2  0  0  0  0  0  0
   37.9830   32.3000   40.7860 C   0  0  0  0  0  2  0  0  0  0  0  0
  1  7  1  0  0  0  0
  2  8  1  0  0  0  0
  2  1  2  0  0  0  0
  3  2  1  0  0  0  0
  4  3  2  0  0  0  0
  4  5  1  0  0  0  0
  5  6  2  0  0  0  0
  6  1  1  0  0  0  0
  9  5  1  0  0  0  0
 10 14  1  0  0  0  0
 10  3  1  0  0  0  0
 11 10  1  0  0  0  0
 12 11  1  0  0  0  0
 12 13  1  0  0  0  0
 13 14  1  0  0  0  0
M  END
>  <minimizedAffinity>
-3.65960121

$$$$

 OpenBabel03242510283D

 14 15  0  0  0  0  0  0  0  0999 V2000
   39.6360   32.1260   40.1540 C   0  0  0  0  0  0  0  0  0  0  0  0
   39.5270   30.8900   40.8050 C   0  0  0  0  0  0  0  0  0  0  0  0
   38.2410   30.4170   41.0850 C   0  0  0  0  0  0  0  0  0  0  0  0
   37.1650   31.1810   40.7080 N   0  0  0  0  0  0  0  0  0  0  0  0
   37.3170   32.3630   40.0840 C   0  0  0  0  0  0  0  0  0  0  0  0
   38.5400   32.8370   39.8060 N   0  0  0  0  0  0  0  0  0  0  0  0
   40.6840   32.4050   39.9820 H   0  0  0  0  0  0  0  0  0  0  0  0
   40.3850   30.2940   41.0980 H   0  0  0  0  0  0  0  0  0  0  0  0
   36.4400   32.9430   39.8010 H   0  0  0  0  0  0  0  0  0  0  0  0
   37.9920   29.1360   41.7630 C   0  0  0  0  0  3  0  0  0  0  0  0
   36.5640   28.6510   41.6830 C   0  0  0  0  0  2  0  0  0  0  0  0
   36.6540   27.4450   42.6180 C   0  0  0  0  0  2  0  0  0  0  0  0
   37.6550   27.8530   43.6780 C   0  0  0  0  0  2  0  0  0  0  0  0
   38.1390   29.2390   43.2760 C   0  0  0  0  0  2  0  0  0  0  0  0
  1  2  1  0  0  0  0
  2  3  2  0  0  0  0
  2  8  1  0  0  0  0
  3 10  1  0  0  0  0
  4  3  1  0  0  0  0
  5  4  2  0  0  0  0
  6  5  1  0  0  0  0
  6  1  2  0  0  0  0
  7  1  1  0  0  0  0
  9  5  1  0  0  0  0
 10 14  1  0  0  0  0
 11 10  1  0  0  0  0
 11 12  1  0  0  0  0
 12 13  1  0  0  0  0
 14 13  1  0  0  0  0
M  END
>  <minimizedAffinity>
-3.58957481

$$$$

 OpenBabel03242510283D

 14 15  0  0  0  0  0  0  0  0999 V2000
   36.0590   29.6630   37.8850 C   0  0  0  0  0  0  0  0  0  0  0  0
   35.8240   29.0580   39.1270 C   0  0  0  0  0  0  0  0  0  0  0  0
   36.7310   29.3240   40.1580 C   0  0  0  0  0  0  0  0  0  0  0  0
   37.7910   30.1560   39.9000 N   0  0  0  0  0  0  0  0  0  0  0  0
   37.9770   30.7160   38.6900 C   0  0  0  0  0  0  0  0  0  0  0  0
   37.1210   30.4750   37.6870 N   0  0  0  0  0  0  0  0  0  0  0  0
   35.2910   29.3900   37.1480 H   0  0  0  0  0  0  0  0  0  0  0  0
   34.9820   28.4020   39.3190 H   0  0  0  0  0  0  0  0  0  0  0  0
   38.8310   31.3710   38.5220 H   0  0  0  0  0  0  0  0  0  0  0  0
   36.5970   28.7510   41.5060 C   0  0  0  0  0  3  0  0  0  0  0  0
   37.6190   29.2450   42.5020 C   0  0  0  0  0  2  0  0  0  0  0  0
   37.2890   28.3280   43.6790 C   0  0  0  0  0  2  0  0  0  0  0  0
   36.8670   27.0200   43.0420 C   0  0  0  0  0  2  0  0  0  0  0  0
   36.9130   27.2610   41.5400 C   0  0  0  0  0  2  0  0  0  0  0  0
  1  2  1  0  0  0  0
  2  8  1  0  0  0  0
  2  3  2  0  0  0  0
  3 10  1  0  0  0  0
  4  3  1  0  0  0  0
  5  4  2  0  0  0  0
  6  1  2  0  0  0  0
  6  5  1  0  0  0  0
  7  1  1  0  0  0  0
  9  5  1  0  0  0  0
 10 14  1  0  0  0  0
 10 11  1  0  0  0  0
 11 12  1  0  0  0  0
 13 12  1  0  0  0  0
 14 13  1  0  0  0  0
M  END
>  <minimizedAffinity>
-3.54159665

$$$$

 OpenBabel03242510283D

 14 15  0  0  0  0  0  0  0  0999 V2000
   37.0670   26.9610   41.7920 C   0  0  0  0  0  0  0  0  0  0  0  0
   37.3200   28.0450   40.9430 C   0  0  0  0  0  0  0  0  0  0  0  0
   37.6800   29.2610   41.5340 C   0  0  0  0  0  0  0  0  0  0  0  0
   37.7650   29.3240   42.9020 N   0  0  0  0  0  0  0  0  0  0  0  0
   37.5130   28.2560   43.6800 C   0  0  0  0  0  0  0  0  0  0  0  0
   37.1660   27.0800   43.1350 N   0  0  0  0  0  0  0  0  0  0  0  0
   36.7940   26.0580   41.2300 H   0  0  0  0  0  0  0  0  0  0  0  0
   37.2510   27.9830   39.8620 H   0  0  0  0  0  0  0  0  0  0  0  0
   37.5890   28.3440   44.7620 H   0  0  0  0  0  0  0  0  0  0  0  0
   37.9720   30.4720   40.7530 C   0  0  0  0  0  3  0  0  0  0  0  0
   38.9760   31.4030   41.3910 C   0  0  0  0  0  2  0  0  0  0  0  0
   38.8820   32.5800   40.4210 C   0  0  0  0  0  2  0  0  0  0  0  0
   37.4320   32.6040   39.9830 C   0  0  0  0  0  2  0  0  0  0  0  0
   36.7770   31.4130   40.6670 C   0  0  0  0  0  2  0  0  0  0  0  0
  1  6  1  0  0  0  0
  2  3  1  0  0  0  0
  2  1  2  0  0  0  0
  3  4  2  0  0  0  0
  4  5  1  0  0  0  0
  5  9  1  0  0  0  0
  6  5  2  0  0  0  0
  7  1  1  0  0  0  0
  8  2  1  0  0  0  0
 10 11  1  0  0  0  0
 10  3  1  0  0  0  0
 12 11  1  0  0  0  0
 13 12  1  0  0  0  0
 13 14  1  0  0  0  0
 14 10  1  0  0  0  0
M  END
>  <minimizedAffinity>
-3.46192169

$$$$

 OpenBabel03242510283D

 14 15  0  0  0  0  0  0  0  0999 V2000
   37.3760   26.7270   42.6930 C   0  0  0  0  0  0  0  0  0  0  0  0
   36.8420   27.2310   41.5000 C   0  0  0  0  0  0  0  0  0  0  0  0
   36.8150   28.6200   41.3380 C   0  0  0  0  0  0  0  0  0  0  0  0
   37.3110   29.4060   42.3470 N   0  0  0  0  0  0  0  0  0  0  0  0
   37.8150   28.8780   43.4780 C   0  0  0  0  0  0  0  0  0  0  0  0
   37.8510   27.5500   43.6550 N   0  0  0  0  0  0  0  0  0  0  0  0
   37.3510   25.6300   42.7180 H   0  0  0  0  0  0  0  0  0  0  0  0
   36.4540   26.5990   40.7080 H   0  0  0  0  0  0  0  0  0  0  0  0
   38.1980   29.5340   44.2580 H   0  0  0  0  0  0  0  0  0  0  0  0
   36.2810   29.2730   40.1330 C   0  0  0  0  0  3  0  0  0  0  0  0
   35.5400   28.3500   39.1960 C   0  0  0  0  0  2  0  0  0  0  0  0
   35.3100   29.3070   38.0270 C   0  0  0  0  0  2  0  0  0  0  0  0
   36.5360   30.1950   38.0090 C   0  0  0  0  0  2  0  0  0  0  0  0
   37.3810   29.7530   39.1950 C   0  0  0  0  0  2  0  0  0  0  0  0
  1  7  1  0  0  0  0
  1  6  1  0  0  0  0
  2  1  2  0  0  0  0
  3  2  1  0  0  0  0
  3  4  2  0  0  0  0
  4  5  1  0  0  0  0
  5  6  2  0  0  0  0
  5  9  1  0  0  0  0
  8  2  1  0  0  0  0
 10  3  1  0  0  0  0
 11 10  1  0  0  0  0
 12 11  1  0  0  0  0
 13 12  1  0  0  0  0
 13 14  1  0  0  0  0
 14 10  1  0  0  0  0
M  END
>  <minimizedAffinity>
-3.45518851

$$$$

 OpenBabel03242510283D

 14 15  0  0  0  0  0  0  0  0999 V2000
   38.8760   33.8900   40.2080 C   0  0  0  0  0  0  0  0  0  0  0  0
   37.6710   33.1830   40.1070 C   0  0  0  0  0  0  0  0  0  0  0  0
   37.7200   31.8930   39.5680 C   0  0  0  0  0  0  0  0  0  0  0  0
   38.9350   31.3950   39.1710 N   0  0  0  0  0  0  0  0  0  0  0  0
   40.0690   32.1110   39.2870 C   0  0  0  0  0  0  0  0  0  0  0  0
   40.0460   33.3490   39.8010 N   0  0  0  0  0  0  0  0  0  0  0  0
   38.7270   34.8880   40.6430 H   0  0  0  0  0  0  0  0  0  0  0  0
   36.7150   33.5870   40.4240 H   0  0  0  0  0  0  0  0  0  0  0  0
   41.0160   31.6830   38.9610 H   0  0  0  0  0  0  0  0  0  0  0  0
   36.5270   31.0490   39.4090 C   0  0  0  0  0  3  0  0  0  0  0  0
   36.1660   30.2360   40.6300 C   0  0  0  0  0  2  0  0  0  0  0  0
   35.0390   29.3860   40.0440 C   0  0  0  0  0  2  0  0  0  0  0  0
   35.4420   29.1500   38.6040 C   0  0  0  0  0  2  0  0  0  0  0  0
   36.7410   29.9190   38.4090 C   0  0  0  0  0  2  0  0  0  0  0  0
  1  7  1  0  0  0  0
  2  1  1  0  0  0  0
  2  8  1  0  0  0  0
  3  2  2  0  0  0  0
  4  5  2  0  0  0  0
  4  3  1  0  0  0  0
  5  6  1  0  0  0  0
  6  1  2  0  0  0  0
  9  5  1  0  0  0  0
 10  3  1  0  0  0  0
 10 11  1  0  0  0  0
 12 11  1  0  0  0  0
 13 12  1  0  0  0  0
 14 13  1  0  0  0  0
 14 10  1  0  0  0  0
M  END
>  <minimizedAffinity>
-3.4298141

$$$$
