
 OpenBabel03252501303D

 34 36  0  0  0  0  0  0  0  0999 V2000
   46.3750   30.9020   46.9080 C   0  0  0  0  0  0  0  0  0  0  0  0
   45.0860   30.4470   46.8890 C   0  0  0  0  0  0  0  0  0  0  0  0
   44.7350   29.1610   47.1580 C   0  0  0  0  0  0  0  0  0  0  0  0
   45.7220   28.2720   47.4640 C   0  0  0  0  0  0  0  0  0  0  0  0
   47.0340   28.7110   47.4900 C   0  0  0  0  0  0  0  0  0  0  0  0
   47.3640   30.0240   47.2130 C   0  0  0  0  0  0  0  0  0  0  0  0
   44.3420   31.2190   46.6340 H   0  0  0  0  0  0  0  0  0  0  0  0
   43.6730   28.9620   47.1010 H   0  0  0  0  0  0  0  0  0  0  0  0
   47.6820   27.8650   47.7540 H   0  0  0  0  0  0  0  0  0  0  0  0
   49.2680   30.3450   48.6710 C   0  0  0  0  0  0  0  0  0  0  0  0
   48.8340   30.6060   49.8530 O   0  0  0  0  0  0  0  0  0  0  0  0
   48.7880   30.1110   47.3410 N   0  0  0  0  0  0  0  0  0  0  0  0
   50.2670   30.3700   49.1000 H   0  0  0  0  0  0  0  0  0  0  0  0
   49.5900   30.0410   46.6750 H   0  0  0  0  0  0  0  0  0  0  0  0
   45.2540   26.8700   47.7490 C   0  0  0  0  0  0  0  0  0  0  0  0
   44.4660   26.7860   49.0370 C   0  0  0  0  0  0  0  0  0  0  0  0
   44.7380   25.3770   49.5680 C   0  0  0  0  0  0  0  0  0  0  0  0
   45.6840   24.7420   48.5710 C   0  0  0  0  0  0  0  0  0  0  0  0
   46.4180   25.9850   48.0490 C   0  0  0  0  0  0  0  0  0  0  0  0
   46.8900   32.2530   46.6320 C   0  0  0  0  0  0  0  0  0  0  0  0
   46.2800   33.0140   47.1800 H   0  0  0  0  0  0  0  0  0  0  0  0
   47.9210   32.3990   47.0410 H   0  0  0  0  0  0  0  0  0  0  0  0
   46.9720   32.5270   45.1540 C   0  0  0  0  0  0  0  0  0  0  0  0
   46.4790   31.6840   44.6260 H   0  0  0  0  0  0  0  0  0  0  0  0
   48.0210   32.6110   44.7800 H   0  0  0  0  0  0  0  0  0  0  0  0
   44.6120   35.3140   45.4560 C   0  0  0  0  0  0  0  0  0  0  0  0
   44.7240   35.9570   44.1990 C   0  0  0  0  0  0  0  0  0  0  0  0
   45.6250   35.3890   43.2910 C   0  0  0  0  0  0  0  0  0  0  0  0
   46.3230   34.2960   43.6340 N   0  0  0  0  0  0  0  0  0  0  0  0
   46.1670   33.7310   44.8540 C   0  0  0  0  0  0  0  0  0  0  0  0
   45.3390   34.2170   45.7490 N   0  0  0  0  0  0  0  0  0  0  0  0
   43.9150   35.7490   46.1660 H   0  0  0  0  0  0  0  0  0  0  0  0
   44.1530   36.8360   43.9410 H   0  0  0  0  0  0  0  0  0  0  0  0
   45.7690   35.8240   42.3010 H   0  0  0  0  0  0  0  0  0  0  0  0
  1  6  1  0  0  0  0
  2  1  2  0  0  0  0
  2  3  1  0  0  0  0
  3  4  2  0  0  0  0
  4  5  1  0  0  0  0
  4 15  1  0  0  0  0
  5  9  1  0  0  0  0
  6 12  1  0  0  0  0
  6  5  2  0  0  0  0
  7  2  1  0  0  0  0
  8  3  1  0  0  0  0
 10 13  1  0  0  0  0
 10 11  2  0  0  0  0
 12 10  1  0  0  0  0
 14 12  1  0  0  0  0
 15 19  1  0  0  0  0
 15 16  1  0  0  0  0
 16 17  1  0  0  0  0
 18 17  1  0  0  0  0
 19 18  1  0  0  0  0
 20  1  1  0  0  0  0
 20 22  1  0  0  0  0
 20 21  1  0  0  0  0
 23 20  1  0  0  0  0
 24 23  1  0  0  0  0
 25 23  1  0  0  0  0
 26 31  1  0  0  0  0
 26 32  1  0  0  0  0
 27 26  2  0  0  0  0
 28 29  2  0  0  0  0
 28 27  1  0  0  0  0
 29 30  1  0  0  0  0
 30 23  1  0  0  0  0
 30 31  2  0  0  0  0
 33 27  1  0  0  0  0
 34 28  1  0  0  0  0
M  END
>  <minimizedAffinity>
-4.93694687

>  <minimizedRMSD>
2.36350393

$$$$
