
 OpenBabel03252505403D

 24 26  0  0  1  0  0  0  0  0999 V2000
   45.4980   34.0550   44.0870 C   0  0  0  0  0  0  0  0  0  0  0  0
   46.5870   33.5250   43.3480 C   0  0  0  0  0  0  0  0  0  0  0  0
   47.4660   32.6690   44.0020 C   0  0  0  0  0  0  0  0  0  0  0  0
   47.2380   32.3820   45.3130 N   0  0  0  0  0  0  0  0  0  0  0  0
   46.1850   32.9100   45.9830 C   0  0  0  0  0  0  0  0  0  0  0  0
   45.3200   33.7460   45.3570 N   0  0  0  0  0  0  0  0  0  0  0  0
   46.7070   33.7920   42.3240 H   0  0  0  0  0  0  0  0  0  0  0  0
   48.3140   32.2360   43.4890 H   0  0  0  0  0  0  0  0  0  0  0  0
   44.5400   34.9800   43.4300 C   0  0  1  0  0  0  0  0  0  0  0  0
   45.1190   36.3890   43.1700 C   0  0  0  0  0  0  0  0  0  0  0  0
   44.7580   35.4590   42.0620 C   0  0  2  0  0  0  0  0  0  0  0  0
   43.5750   35.0180   43.9830 H   0  0  0  0  0  0  0  0  0  0  0  0
   46.1940   36.5320   43.3450 H   0  0  0  0  0  0  0  0  0  0  0  0
   44.4470   37.2450   43.3130 H   0  0  0  0  0  0  0  0  0  0  0  0
   45.6110   34.9380   41.5260 H   0  0  0  0  0  0  0  0  0  0  0  0
   43.5450   35.6000   41.2190 C   0  0  0  0  0  3  0  0  0  0  0  0
   43.5120   34.6110   40.0870 C   0  0  0  0  0  2  0  0  0  0  0  0
   42.0600   34.7620   39.6280 C   0  0  0  0  0  2  0  0  0  0  0  0
   41.3530   34.5890   40.9720 C   0  0  0  0  0  2  0  0  0  0  0  0
   42.2370   35.3740   41.9270 C   0  0  0  0  0  2  0  0  0  0  0  0
   46.1150   32.4820   47.4180 C   0  0  0  0  0  0  0  0  0  0  0  0
   45.1090   33.1240   48.0960 F   0  0  0  0  0  0  0  0  0  0  0  0
   47.3270   32.7700   48.0510 F   0  0  0  0  0  0  0  0  0  0  0  0
   45.9840   31.1000   47.4620 F   0  0  0  0  0  0  0  0  0  0  0  0
  1  6  1  0  0  0  0
  2  3  1  0  0  0  0
  2  1  2  0  0  0  0
  3  4  2  0  0  0  0
  4  5  1  0  0  0  0
  5 21  1  0  0  0  0
  6  5  2  0  0  0  0
  7  2  1  0  0  0  0
  8  3  1  0  0  0  0
  9 12  1  1  0  0  0
  9  1  1  0  0  0  0
 10 14  1  0  0  0  0
 10 13  1  0  0  0  0
 10  9  1  0  0  0  0
 11 15  1  6  0  0  0
 11 10  1  0  0  0  0
 11  9  1  0  0  0  0
 16 20  1  0  0  0  0
 16 11  1  0  0  0  0
 17 16  1  0  0  0  0
 18 17  1  0  0  0  0
 18 19  1  0  0  0  0
 19 20  1  0  0  0  0
 21 24  1  0  0  0  0
 21 23  1  0  0  0  0
 21 22  1  0  0  0  0
M  END
>  <minimizedAffinity>
-5.02963829

>  <minimizedRMSD>
0.782274544

$$$$
