
 OpenBabel03252505403D

 24 26  0  0  1  0  0  0  0  0999 V2000
   46.0600   32.6110   45.2660 C   0  0  0  0  0  0  0  0  0  0  0  0
   46.8830   31.6350   44.6430 C   0  0  0  0  0  0  0  0  0  0  0  0
   47.5120   30.6970   45.4530 C   0  0  0  0  0  0  0  0  0  0  0  0
   47.3090   30.7610   46.7980 N   0  0  0  0  0  0  0  0  0  0  0  0
   46.5160   31.7090   47.3530 C   0  0  0  0  0  0  0  0  0  0  0  0
   45.8950   32.6290   46.5740 N   0  0  0  0  0  0  0  0  0  0  0  0
   46.9990   31.6440   43.5840 H   0  0  0  0  0  0  0  0  0  0  0  0
   48.1500   29.9320   45.0340 H   0  0  0  0  0  0  0  0  0  0  0  0
   45.3760   33.6370   44.4380 C   0  0  1  0  0  0  0  0  0  0  0  0
   46.3440   34.5030   43.6010 C   0  0  0  0  0  0  0  0  0  0  0  0
   45.3730   33.5590   42.9740 C   0  0  2  0  0  0  0  0  0  0  0  0
   44.6860   34.2550   45.0550 H   0  0  0  0  0  0  0  0  0  0  0  0
   47.3980   34.1950   43.5720 H   0  0  0  0  0  0  0  0  0  0  0  0
   46.1050   35.5690   43.4980 H   0  0  0  0  0  0  0  0  0  0  0  0
   45.7890   32.5850   42.5680 H   0  0  0  0  0  0  0  0  0  0  0  0
   44.1200   33.9800   42.3010 C   0  0  0  0  0  3  0  0  0  0  0  0
   44.0370   35.4700   42.1200 C   0  0  0  0  0  2  0  0  0  0  0  0
   42.8620   35.5660   41.1430 C   0  0  0  0  0  2  0  0  0  0  0  0
   43.3370   34.5740   40.0830 C   0  0  0  0  0  2  0  0  0  0  0  0
   43.9210   33.4410   40.9110 C   0  0  0  0  0  2  0  0  0  0  0  0
   46.4300   31.6160   48.8460 C   0  0  0  0  0  0  0  0  0  0  0  0
   45.6860   30.5350   49.2510 F   0  0  0  0  0  0  0  0  0  0  0  0
   45.8350   32.7740   49.3530 F   0  0  0  0  0  0  0  0  0  0  0  0
   47.7190   31.5940   49.3650 F   0  0  0  0  0  0  0  0  0  0  0  0
  1  6  1  0  0  0  0
  2  1  2  0  0  0  0
  2  3  1  0  0  0  0
  3  4  2  0  0  0  0
  4  5  1  0  0  0  0
  5 21  1  0  0  0  0
  6  5  2  0  0  0  0
  7  2  1  0  0  0  0
  8  3  1  0  0  0  0
  9 12  1  1  0  0  0
  9  1  1  0  0  0  0
 10  9  1  0  0  0  0
 11 15  1  6  0  0  0
 11 10  1  0  0  0  0
 11  9  1  0  0  0  0
 13 10  1  0  0  0  0
 14 10  1  0  0  0  0
 16 11  1  0  0  0  0
 17 16  1  0  0  0  0
 18 17  1  0  0  0  0
 19 20  1  0  0  0  0
 19 18  1  0  0  0  0
 20 16  1  0  0  0  0
 21 22  1  0  0  0  0
 21 23  1  0  0  0  0
 21 24  1  0  0  0  0
M  END
>  <minimizedAffinity>
-4.64400291

>  <minimizedRMSD>
2.29352999

$$$$
