
 OpenBabel03242515363D

 28 31  0  0  0  0  0  0  0  0999 V2000
   41.5110   35.2220   41.9130 C   0  0  0  0  0  0  0  0  0  0  0  0
   42.6620   35.2840   41.1220 C   0  0  0  0  0  0  0  0  0  0  0  0
   42.5740   35.1810   39.7510 C   0  0  0  0  0  0  0  0  0  0  0  0
   41.3630   35.0160   39.1310 C   0  0  0  0  0  0  0  0  0  0  0  0
   40.1980   34.9510   39.9100 C   0  0  0  0  0  0  0  0  0  0  0  0
   40.2810   35.0550   41.2900 C   0  0  0  0  0  0  0  0  0  0  0  0
   39.0920   34.7800   39.0510 O   0  0  0  0  0  0  0  0  0  0  0  0
   39.6520   34.4100   37.8000 C   0  0  0  0  0  0  0  0  0  0  0  0
   40.9750   34.8840   37.7850 O   0  0  0  0  0  0  0  0  0  0  0  0
   41.5500   35.2990   42.9770 H   0  0  0  0  0  0  0  0  0  0  0  0
   43.4730   35.2320   39.1640 H   0  0  0  0  0  0  0  0  0  0  0  0
   39.3920   35.0090   41.9310 H   0  0  0  0  0  0  0  0  0  0  0  0
   39.0710   34.9880   37.0290 H   0  0  0  0  0  0  0  0  0  0  0  0
   39.5430   33.3320   37.6000 H   0  0  0  0  0  0  0  0  0  0  0  0
   44.2140   35.5020   41.9940 S   0  0  0  0  0  0  0  0  0  0  0  0
   45.3680   34.1870   41.4860 C   0  0  0  0  0  0  0  0  0  0  0  0
   45.0890   32.9390   42.0690 C   0  0  0  0  0  0  0  0  0  0  0  0
   45.9520   31.8780   41.7130 C   0  0  0  0  0  0  0  0  0  0  0  0
   46.9590   32.1160   40.8610 N   0  0  0  0  0  0  0  0  0  0  0  0
   47.1870   33.3340   40.3260 C   0  0  0  0  0  0  0  0  0  0  0  0
   46.3890   34.3520   40.6450 N   0  0  0  0  0  0  0  0  0  0  0  0
   44.3180   32.6700   42.7470 H   0  0  0  0  0  0  0  0  0  0  0  0
   45.8090   30.8960   42.1120 H   0  0  0  0  0  0  0  0  0  0  0  0
   48.3160   33.5310   39.3930 C   0  0  0  0  0  0  0  0  0  0  0  0
   48.9800   32.2100   39.0310 C   0  0  0  0  0  0  0  0  0  0  0  0
   49.4810   32.3740   37.6190 C   0  0  0  0  0  0  0  0  0  0  0  0
   48.8870   33.6420   37.0840 C   0  0  0  0  0  0  0  0  0  0  0  0
   47.8490   34.1000   38.0870 C   0  0  0  0  0  0  0  0  0  0  0  0
  1 10  1  0  0  0  0
  2  1  2  0  0  0  0
  2 15  1  0  0  0  0
  3  2  1  0  0  0  0
  4  3  2  0  0  0  0
  4  5  1  0  0  0  0
  5  6  2  0  0  0  0
  6  1  1  0  0  0  0
  6 12  1  0  0  0  0
  7  5  1  0  0  0  0
  8  7  1  0  0  0  0
  9  8  1  0  0  0  0
  9  4  1  0  0  0  0
 11  3  1  0  0  0  0
 13  8  1  0  0  0  0
 14  8  1  0  0  0  0
 16 15  1  0  0  0  0
 16 17  1  0  0  0  0
 17 22  1  0  0  0  0
 18 17  2  0  0  0  0
 18 23  1  0  0  0  0
 19 18  1  0  0  0  0
 20 21  1  0  0  0  0
 20 19  2  0  0  0  0
 21 16  2  0  0  0  0
 24 20  1  0  0  0  0
 25 24  1  0  0  0  0
 26 25  1  0  0  0  0
 27 26  1  0  0  0  0
 27 28  1  0  0  0  0
 28 24  1  0  0  0  0
M  END
>  <minimizedAffinity>
-4.99747419

>  <minimizedRMSD>
5.59443951

$$$$
