
 OpenBabel03252504073D

 15 16  0  0  0  0  0  0  0  0999 V2000
   45.0130   34.9060   44.7180 C   0  0  0  0  0  0  0  0  0  0  0  0
   46.0070   34.5500   43.7640 C   0  0  0  0  0  0  0  0  0  0  0  0
   46.9070   33.5510   44.1560 C   0  0  0  0  0  0  0  0  0  0  0  0
   46.7960   32.9910   45.3760 N   0  0  0  0  0  0  0  0  0  0  0  0
   45.8340   33.3630   46.2470 C   0  0  0  0  0  0  0  0  0  0  0  0
   44.9500   34.3080   45.9270 N   0  0  0  0  0  0  0  0  0  0  0  0
   47.6470   33.2860   43.4470 H   0  0  0  0  0  0  0  0  0  0  0  0
   45.7260   32.9260   47.2340 H   0  0  0  0  0  0  0  0  0  0  0  0
   46.0070   35.2540   42.4560 C   0  0  0  0  0  3  0  0  0  0  0  0
   45.1520   34.5060   41.4590 C   0  0  0  0  0  2  0  0  0  0  0  0
   46.1050   33.7980   40.5270 C   0  0  0  0  0  2  0  0  0  0  0  0
   47.4770   34.3940   40.7320 C   0  0  0  0  0  2  0  0  0  0  0  0
   47.3960   35.3220   41.9200 C   0  0  0  0  0  2  0  0  0  0  0  0
   44.1180   35.8780   44.3660 O   0  0  0  0  0  0  0  0  0  0  0  0
   44.3940   36.8660   44.4340 H   0  0  0  0  0  0  0  0  0  0  0  0
  1  6  1  0  0  0  0
  2  3  1  0  0  0  0
  2  1  2  0  0  0  0
  3  4  2  0  0  0  0
  4  5  1  0  0  0  0
  5  8  1  0  0  0  0
  6  5  2  0  0  0  0
  7  3  1  0  0  0  0
  9  2  1  0  0  0  0
 10  9  1  0  0  0  0
 11 12  1  0  0  0  0
 11 10  1  0  0  0  0
 12 13  1  0  0  0  0
 13  9  1  0  0  0  0
 14 15  1  0  0  0  0
 14  1  1  0  0  0  0
M  END
>  <minimizedAffinity>
-4.4573698

>  <minimizedRMSD>
1.7805841

$$$$
