
 OpenBabel03252500503D

 25 27  0  0  0  0  0  0  0  0999 V2000
   33.9010   29.2360   39.2990 C   0  0  0  0  0  0  0  0  0  0  0  0
   34.1340   28.5320   38.1220 C   0  0  0  0  0  0  0  0  0  0  0  0
   35.2570   27.6920   38.0100 C   0  0  0  0  0  0  0  0  0  0  0  0
   36.0900   27.6060   39.0940 N   0  0  0  0  0  0  0  0  0  0  0  0
   35.8500   28.2870   40.2110 C   0  0  0  0  0  0  0  0  0  0  0  0
   34.7620   29.0970   40.3140 N   0  0  0  0  0  0  0  0  0  0  0  0
   33.0560   29.8960   39.4450 H   0  0  0  0  0  0  0  0  0  0  0  0
   35.4560   27.1400   37.1080 H   0  0  0  0  0  0  0  0  0  0  0  0
   36.7350   28.1910   41.3560 C   0  0  0  0  0  0  0  0  0  0  0  0
   37.1290   26.9890   41.8680 C   0  0  0  0  0  0  0  0  0  0  0  0
   37.9640   26.8600   42.9470 C   0  0  0  0  0  0  0  0  0  0  0  0
   38.4030   28.0070   43.5140 N   0  0  0  0  0  0  0  0  0  0  0  0
   38.0130   29.1800   43.0090 C   0  0  0  0  0  0  0  0  0  0  0  0
   37.1980   29.3310   41.9550 N   0  0  0  0  0  0  0  0  0  0  0  0
   36.7540   26.0900   41.3810 H   0  0  0  0  0  0  0  0  0  0  0  0
   38.2230   25.8610   43.2820 H   0  0  0  0  0  0  0  0  0  0  0  0
   38.3870   30.0780   43.4930 H   0  0  0  0  0  0  0  0  0  0  0  0
   33.2050   28.6790   37.0240 C   0  0  0  0  0  0  0  0  0  0  0  0
   32.9100   27.6670   36.3680 O   0  0  0  0  0  0  0  0  0  0  0  0
   32.5320   29.7930   36.5180 O   0  0  0  0  0  0  0  0  0  0  0  0
   31.1730   29.8480   36.2760 C   0  0  0  0  0  3  0  0  0  0  0  0
   30.3100   29.9200   37.4970 C   0  0  0  0  0  2  0  0  0  0  0  0
   30.1830   31.3800   37.8630 C   0  0  0  0  0  2  0  0  0  0  0  0
   30.1880   32.0650   36.5350 C   0  0  0  0  0  2  0  0  0  0  0  0
   30.9160   31.1860   35.5770 C   0  0  0  0  0  2  0  0  0  0  0  0
  1  7  1  0  0  0  0
  1  6  1  0  0  0  0
  2  1  2  0  0  0  0
  3  2  1  0  0  0  0
  3  4  2  0  0  0  0
  4  5  1  0  0  0  0
  5  6  2  0  0  0  0
  5  9  1  0  0  0  0
  8  3  1  0  0  0  0
  9 10  2  0  0  0  0
  9 14  1  0  0  0  0
 10 11  1  0  0  0  0
 11 16  1  0  0  0  0
 11 12  2  0  0  0  0
 13 17  1  0  0  0  0
 13 12  1  0  0  0  0
 14 13  2  0  0  0  0
 15 10  1  0  0  0  0
 18  2  1  0  0  0  0
 19 18  2  0  0  0  0
 20 18  1  0  0  0  0
 21 20  1  0  0  0  0
 21 22  1  0  0  0  0
 22 23  1  0  0  0  0
 24 23  1  0  0  0  0
 25 21  1  0  0  0  0
 25 24  1  0  0  0  0
M  END
>  <minimizedAffinity>
-4.82107258

$$$$

 OpenBabel03252500503D

 25 27  0  0  0  0  0  0  0  0999 V2000
   39.2470   30.3800   40.1460 C   0  0  0  0  0  0  0  0  0  0  0  0
   38.2520   31.1230   40.7720 C   0  0  0  0  0  0  0  0  0  0  0  0
   38.3620   32.5230   40.8580 C   0  0  0  0  0  0  0  0  0  0  0  0
   39.4730   33.1020   40.3070 N   0  0  0  0  0  0  0  0  0  0  0  0
   40.4140   32.3750   39.7120 C   0  0  0  0  0  0  0  0  0  0  0  0
   40.3020   31.0210   39.6310 N   0  0  0  0  0  0  0  0  0  0  0  0
   39.2190   29.3020   40.0480 H   0  0  0  0  0  0  0  0  0  0  0  0
   37.6040   33.1170   41.3390 H   0  0  0  0  0  0  0  0  0  0  0  0
   41.5890   32.9940   39.1280 C   0  0  0  0  0  0  0  0  0  0  0  0
   42.6760   33.3360   39.8790 C   0  0  0  0  0  0  0  0  0  0  0  0
   43.8020   33.9220   39.3620 C   0  0  0  0  0  0  0  0  0  0  0  0
   43.8040   34.1600   38.0300 N   0  0  0  0  0  0  0  0  0  0  0  0
   42.7380   33.8230   37.3010 C   0  0  0  0  0  0  0  0  0  0  0  0
   41.6250   33.2500   37.7840 N   0  0  0  0  0  0  0  0  0  0  0  0
   42.6330   33.1260   40.9470 H   0  0  0  0  0  0  0  0  0  0  0  0
   44.6170   34.1580   40.0380 H   0  0  0  0  0  0  0  0  0  0  0  0
   42.7790   34.0310   36.2350 H   0  0  0  0  0  0  0  0  0  0  0  0
   37.1100   30.4330   41.3290 C   0  0  0  0  0  0  0  0  0  0  0  0
   35.9760   30.8310   41.0150 O   0  0  0  0  0  0  0  0  0  0  0  0
   37.0140   29.3480   42.2020 O   0  0  0  0  0  0  0  0  0  0  0  0
   36.3670   28.1610   41.9140 C   0  0  0  0  0  3  0  0  0  0  0  0
   36.8370   27.4630   40.6760 C   0  0  0  0  0  2  0  0  0  0  0  0
   38.0040   26.5910   41.0760 C   0  0  0  0  0  2  0  0  0  0  0  0
   37.6440   26.1550   42.4590 C   0  0  0  0  0  2  0  0  0  0  0  0
   36.7380   27.1870   43.0360 C   0  0  0  0  0  2  0  0  0  0  0  0
  1  2  1  0  0  0  0
  2  3  2  0  0  0  0
  2 18  1  0  0  0  0
  3  8  1  0  0  0  0
  4  3  1  0  0  0  0
  5  4  2  0  0  0  0
  6  5  1  0  0  0  0
  6  1  2  0  0  0  0
  7  1  1  0  0  0  0
  9  5  1  0  0  0  0
  9 10  1  0  0  0  0
 10 15  1  0  0  0  0
 11 10  2  0  0  0  0
 11 16  1  0  0  0  0
 12 11  1  0  0  0  0
 13 14  1  0  0  0  0
 13 12  2  0  0  0  0
 14  9  2  0  0  0  0
 17 13  1  0  0  0  0
 18 20  1  0  0  0  0
 19 18  2  0  0  0  0
 21 20  1  0  0  0  0
 21 25  1  0  0  0  0
 22 23  1  0  0  0  0
 22 21  1  0  0  0  0
 23 24  1  0  0  0  0
 24 25  1  0  0  0  0
M  END
>  <minimizedAffinity>
-4.7864089

$$$$

 OpenBabel03252500503D

 25 27  0  0  0  0  0  0  0  0999 V2000
   38.4390   27.8830   40.9020 C   0  0  0  0  0  0  0  0  0  0  0  0
   39.1290   27.6280   42.0820 C   0  0  0  0  0  0  0  0  0  0  0  0
   39.6110   28.6930   42.8640 C   0  0  0  0  0  0  0  0  0  0  0  0
   39.3700   29.9640   42.4150 N   0  0  0  0  0  0  0  0  0  0  0  0
   38.7070   30.1880   41.2830 C   0  0  0  0  0  0  0  0  0  0  0  0
   38.2430   29.1540   40.5310 N   0  0  0  0  0  0  0  0  0  0  0  0
   38.0450   27.1070   40.2580 H   0  0  0  0  0  0  0  0  0  0  0  0
   40.1480   28.5180   43.7800 H   0  0  0  0  0  0  0  0  0  0  0  0
   38.4540   31.5360   40.8120 C   0  0  0  0  0  0  0  0  0  0  0  0
   37.3870   31.8370   40.0170 C   0  0  0  0  0  0  0  0  0  0  0  0
   37.1160   33.0990   39.5540 C   0  0  0  0  0  0  0  0  0  0  0  0
   37.9750   34.0770   39.9250 N   0  0  0  0  0  0  0  0  0  0  0  0
   39.0170   33.7760   40.7030 C   0  0  0  0  0  0  0  0  0  0  0  0
   39.3020   32.5500   41.1680 N   0  0  0  0  0  0  0  0  0  0  0  0
   36.7210   31.0210   39.7430 H   0  0  0  0  0  0  0  0  0  0  0  0
   36.2440   33.2420   38.9260 H   0  0  0  0  0  0  0  0  0  0  0  0
   39.6830   34.5890   40.9790 H   0  0  0  0  0  0  0  0  0  0  0  0
   39.3410   26.2560   42.4860 C   0  0  0  0  0  0  0  0  0  0  0  0
   39.5980   26.0310   43.6790 O   0  0  0  0  0  0  0  0  0  0  0  0
   39.3160   25.0610   41.7650 O   0  0  0  0  0  0  0  0  0  0  0  0
   38.3690   24.0660   41.9240 C   0  0  0  0  0  3  0  0  0  0  0  0
   36.9450   24.5270   41.8710 C   0  0  0  0  0  2  0  0  0  0  0  0
   36.5340   24.5220   40.4170 C   0  0  0  0  0  2  0  0  0  0  0  0
   37.2870   23.3600   39.8540 C   0  0  0  0  0  2  0  0  0  0  0  0
   38.4950   23.1540   40.7010 C   0  0  0  0  0  2  0  0  0  0  0  0
  1  2  1  0  0  0  0
  2 18  1  0  0  0  0
  2  3  2  0  0  0  0
  3  8  1  0  0  0  0
  4  3  1  0  0  0  0
  5  4  2  0  0  0  0
  6  1  2  0  0  0  0
  6  5  1  0  0  0  0
  7  1  1  0  0  0  0
  9 14  1  0  0  0  0
  9  5  1  0  0  0  0
 10  9  2  0  0  0  0
 11 12  2  0  0  0  0
 11 10  1  0  0  0  0
 12 13  1  0  0  0  0
 13 17  1  0  0  0  0
 13 14  2  0  0  0  0
 15 10  1  0  0  0  0
 16 11  1  0  0  0  0
 18 19  2  0  0  0  0
 20 21  1  0  0  0  0
 20 18  1  0  0  0  0
 22 21  1  0  0  0  0
 23 22  1  0  0  0  0
 24 23  1  0  0  0  0
 24 25  1  0  0  0  0
 25 21  1  0  0  0  0
M  END
>  <minimizedAffinity>
-4.76726151

$$$$

 OpenBabel03252500503D

 25 27  0  0  0  0  0  0  0  0999 V2000
   36.5240   27.2960   39.3060 C   0  0  0  0  0  0  0  0  0  0  0  0
   36.3710   27.9340   40.5320 C   0  0  0  0  0  0  0  0  0  0  0  0
   35.3870   28.9260   40.6950 C   0  0  0  0  0  0  0  0  0  0  0  0
   34.6060   29.2240   39.6110 N   0  0  0  0  0  0  0  0  0  0  0  0
   34.7680   28.6020   38.4460 C   0  0  0  0  0  0  0  0  0  0  0  0
   35.7210   27.6430   38.2940 N   0  0  0  0  0  0  0  0  0  0  0  0
   37.2620   26.5260   39.1180 H   0  0  0  0  0  0  0  0  0  0  0  0
   35.2530   29.4330   41.6360 H   0  0  0  0  0  0  0  0  0  0  0  0
   33.9370   28.9210   37.3000 C   0  0  0  0  0  0  0  0  0  0  0  0
   32.6140   29.2310   37.4290 C   0  0  0  0  0  0  0  0  0  0  0  0
   31.8000   29.5380   36.3700 C   0  0  0  0  0  0  0  0  0  0  0  0
   32.3700   29.5240   35.1430 N   0  0  0  0  0  0  0  0  0  0  0  0
   33.6650   29.2200   35.0240 C   0  0  0  0  0  0  0  0  0  0  0  0
   34.4810   28.9170   36.0450 N   0  0  0  0  0  0  0  0  0  0  0  0
   32.1960   29.2310   38.4340 H   0  0  0  0  0  0  0  0  0  0  0  0
   30.7600   29.7710   36.5700 H   0  0  0  0  0  0  0  0  0  0  0  0
   34.0850   29.2200   34.0220 H   0  0  0  0  0  0  0  0  0  0  0  0
   37.2370   27.5600   41.6280 C   0  0  0  0  0  0  0  0  0  0  0  0
   37.1050   28.1590   42.7080 O   0  0  0  0  0  0  0  0  0  0  0  0
   38.2530   26.6090   41.7260 O   0  0  0  0  0  0  0  0  0  0  0  0
   38.1300   25.3890   42.3650 C   0  0  0  0  0  3  0  0  0  0  0  0
   36.7990   24.7210   42.2120 C   0  0  0  0  0  2  0  0  0  0  0  0
   36.8550   23.9130   40.9370 C   0  0  0  0  0  2  0  0  0  0  0  0
   38.2750   23.4540   40.8860 C   0  0  0  0  0  2  0  0  0  0  0  0
   39.0930   24.4340   41.6550 C   0  0  0  0  0  2  0  0  0  0  0  0
  1  2  1  0  0  0  0
  2  3  2  0  0  0  0
  2 18  1  0  0  0  0
  3  8  1  0  0  0  0
  4  3  1  0  0  0  0
  5  4  2  0  0  0  0
  6  5  1  0  0  0  0
  6  1  2  0  0  0  0
  7  1  1  0  0  0  0
  9 10  1  0  0  0  0
  9  5  1  0  0  0  0
 10 15  1  0  0  0  0
 11 16  1  0  0  0  0
 11 10  2  0  0  0  0
 12 11  1  0  0  0  0
 13 12  2  0  0  0  0
 13 14  1  0  0  0  0
 14  9  2  0  0  0  0
 17 13  1  0  0  0  0
 18 20  1  0  0  0  0
 18 19  2  0  0  0  0
 20 21  1  0  0  0  0
 22 21  1  0  0  0  0
 23 22  1  0  0  0  0
 24 23  1  0  0  0  0
 24 25  1  0  0  0  0
 25 21  1  0  0  0  0
M  END
>  <minimizedAffinity>
-4.5288806

$$$$

 OpenBabel03252500503D

 25 27  0  0  0  0  0  0  0  0999 V2000
   37.7550   27.8200   40.4150 C   0  0  0  0  0  0  0  0  0  0  0  0
   37.4730   27.4530   41.7260 C   0  0  0  0  0  0  0  0  0  0  0  0
   37.3360   28.4370   42.7230 C   0  0  0  0  0  0  0  0  0  0  0  0
   37.4900   29.7430   42.3430 N   0  0  0  0  0  0  0  0  0  0  0  0
   37.7600   30.0750   41.0840 C   0  0  0  0  0  0  0  0  0  0  0  0
   37.8910   29.1190   40.1240 N   0  0  0  0  0  0  0  0  0  0  0  0
   37.8720   27.1110   39.6060 H   0  0  0  0  0  0  0  0  0  0  0  0
   37.1180   28.1740   43.7440 H   0  0  0  0  0  0  0  0  0  0  0  0
   37.9220   31.4610   40.6870 C   0  0  0  0  0  0  0  0  0  0  0  0
   38.9690   32.2200   41.1210 C   0  0  0  0  0  0  0  0  0  0  0  0
   39.1550   33.5310   40.7680 C   0  0  0  0  0  0  0  0  0  0  0  0
   38.2300   34.0720   39.9410 N   0  0  0  0  0  0  0  0  0  0  0  0
   37.2080   33.3240   39.5200 C   0  0  0  0  0  0  0  0  0  0  0  0
   37.0060   32.0400   39.8530 N   0  0  0  0  0  0  0  0  0  0  0  0
   39.6910   31.7450   41.7840 H   0  0  0  0  0  0  0  0  0  0  0  0
   40.0190   34.0550   41.1630 H   0  0  0  0  0  0  0  0  0  0  0  0
   36.4870   33.7950   38.8570 H   0  0  0  0  0  0  0  0  0  0  0  0
   37.3240   26.0500   42.0440 C   0  0  0  0  0  0  0  0  0  0  0  0
   36.5550   25.7380   42.9670 O   0  0  0  0  0  0  0  0  0  0  0  0
   37.9040   24.9070   41.4920 O   0  0  0  0  0  0  0  0  0  0  0  0
   37.2040   23.7840   41.0930 C   0  0  0  0  0  3  0  0  0  0  0  0
   36.1590   24.0230   40.0470 C   0  0  0  0  0  2  0  0  0  0  0  0
   36.8470   23.9250   38.7060 C   0  0  0  0  0  2  0  0  0  0  0  0
   37.8900   22.8790   38.9330 C   0  0  0  0  0  2  0  0  0  0  0  0
   38.2150   22.8760   40.3870 C   0  0  0  0  0  2  0  0  0  0  0  0
  1  2  1  0  0  0  0
  2 18  1  0  0  0  0
  2  3  2  0  0  0  0
  3  8  1  0  0  0  0
  4  3  1  0  0  0  0
  5  4  2  0  0  0  0
  6  1  2  0  0  0  0
  6  5  1  0  0  0  0
  7  1  1  0  0  0  0
  9  5  1  0  0  0  0
  9 10  1  0  0  0  0
 10 15  1  0  0  0  0
 11 10  2  0  0  0  0
 11 16  1  0  0  0  0
 12 11  1  0  0  0  0
 13 14  1  0  0  0  0
 13 12  2  0  0  0  0
 14  9  2  0  0  0  0
 17 13  1  0  0  0  0
 18 19  2  0  0  0  0
 20 18  1  0  0  0  0
 21 20  1  0  0  0  0
 22 21  1  0  0  0  0
 23 24  1  0  0  0  0
 23 22  1  0  0  0  0
 24 25  1  0  0  0  0
 25 21  1  0  0  0  0
M  END
>  <minimizedAffinity>
-4.49132013

$$$$

 OpenBabel03252500503D

 25 27  0  0  0  0  0  0  0  0999 V2000
   37.0080   29.5060   38.6410 C   0  0  0  0  0  0  0  0  0  0  0  0
   36.7680   29.7500   39.9890 C   0  0  0  0  0  0  0  0  0  0  0  0
   35.4810   29.5580   40.5240 C   0  0  0  0  0  0  0  0  0  0  0  0
   34.5010   29.1290   39.6700 N   0  0  0  0  0  0  0  0  0  0  0  0
   34.7510   28.9010   38.3830 C   0  0  0  0  0  0  0  0  0  0  0  0
   35.9970   29.0880   37.8710 N   0  0  0  0  0  0  0  0  0  0  0  0
   37.9750   29.6360   38.1710 H   0  0  0  0  0  0  0  0  0  0  0  0
   35.2730   29.7410   41.5640 H   0  0  0  0  0  0  0  0  0  0  0  0
   33.7080   28.4460   37.4820 C   0  0  0  0  0  0  0  0  0  0  0  0
   33.7410   27.2110   36.9030 C   0  0  0  0  0  0  0  0  0  0  0  0
   32.7740   26.7470   36.0490 C   0  0  0  0  0  0  0  0  0  0  0  0
   31.7450   27.5850   35.7860 N   0  0  0  0  0  0  0  0  0  0  0  0
   31.7200   28.7920   36.3560 C   0  0  0  0  0  0  0  0  0  0  0  0
   32.6530   29.2670   37.1940 N   0  0  0  0  0  0  0  0  0  0  0  0
   34.5860   26.5670   37.1420 H   0  0  0  0  0  0  0  0  0  0  0  0
   32.8850   25.7500   35.6370 H   0  0  0  0  0  0  0  0  0  0  0  0
   30.8760   29.4360   36.1200 H   0  0  0  0  0  0  0  0  0  0  0  0
   37.8590   30.2010   40.8240 C   0  0  0  0  0  0  0  0  0  0  0  0
   37.9710   31.4200   41.0310 O   0  0  0  0  0  0  0  0  0  0  0  0
   38.8730   29.5060   41.4830 O   0  0  0  0  0  0  0  0  0  0  0  0
   38.9340   29.3120   42.8510 C   0  0  0  0  0  3  0  0  0  0  0  0
   37.6470   28.8970   43.4940 C   0  0  0  0  0  2  0  0  0  0  0  0
   37.5750   27.3900   43.4030 C   0  0  0  0  0  2  0  0  0  0  0  0
   39.0030   26.9720   43.5390 C   0  0  0  0  0  2  0  0  0  0  0  0
   39.8500   28.1060   43.0730 C   0  0  0  0  0  2  0  0  0  0  0  0
  1  2  1  0  0  0  0
  2  3  2  0  0  0  0
  2 18  1  0  0  0  0
  3  8  1  0  0  0  0
  4  3  1  0  0  0  0
  5  4  2  0  0  0  0
  6  5  1  0  0  0  0
  6  1  2  0  0  0  0
  7  1  1  0  0  0  0
  9  5  1  0  0  0  0
 10 15  1  0  0  0  0
 10  9  2  0  0  0  0
 11 10  1  0  0  0  0
 12 11  2  0  0  0  0
 12 13  1  0  0  0  0
 13 14  2  0  0  0  0
 14  9  1  0  0  0  0
 16 11  1  0  0  0  0
 17 13  1  0  0  0  0
 18 19  2  0  0  0  0
 18 20  1  0  0  0  0
 20 21  1  0  0  0  0
 21 25  1  0  0  0  0
 21 22  1  0  0  0  0
 23 22  1  0  0  0  0
 23 24  1  0  0  0  0
 25 24  1  0  0  0  0
M  END
>  <minimizedAffinity>
-4.44796801

$$$$

 OpenBabel03252500503D

 25 27  0  0  0  0  0  0  0  0999 V2000
   39.2460   29.5800   39.0180 C   0  0  0  0  0  0  0  0  0  0  0  0
   39.1390   30.4660   40.0850 C   0  0  0  0  0  0  0  0  0  0  0  0
   40.1270   31.4470   40.2920 C   0  0  0  0  0  0  0  0  0  0  0  0
   41.1730   31.4830   39.4090 N   0  0  0  0  0  0  0  0  0  0  0  0
   41.2570   30.6270   38.3950 C   0  0  0  0  0  0  0  0  0  0  0  0
   40.2990   29.6810   38.1990 N   0  0  0  0  0  0  0  0  0  0  0  0
   38.5200   28.8060   38.8070 H   0  0  0  0  0  0  0  0  0  0  0  0
   40.0630   32.1420   41.1110 H   0  0  0  0  0  0  0  0  0  0  0  0
   42.3680   30.6710   37.4630 C   0  0  0  0  0  0  0  0  0  0  0  0
   42.4060   29.8890   36.3450 C   0  0  0  0  0  0  0  0  0  0  0  0
   43.4370   29.9050   35.4420 C   0  0  0  0  0  0  0  0  0  0  0  0
   44.4590   30.7520   35.7040 N   0  0  0  0  0  0  0  0  0  0  0  0
   44.4160   31.5140   36.8000 C   0  0  0  0  0  0  0  0  0  0  0  0
   43.4180   31.5160   37.6960 N   0  0  0  0  0  0  0  0  0  0  0  0
   41.5630   29.2220   36.1710 H   0  0  0  0  0  0  0  0  0  0  0  0
   43.3790   29.2470   34.5810 H   0  0  0  0  0  0  0  0  0  0  0  0
   45.2560   32.1810   36.9750 H   0  0  0  0  0  0  0  0  0  0  0  0
   38.0020   30.3610   40.9710 C   0  0  0  0  0  0  0  0  0  0  0  0
   37.1210   31.2330   40.8990 O   0  0  0  0  0  0  0  0  0  0  0  0
   37.6710   29.4230   41.9510 O   0  0  0  0  0  0  0  0  0  0  0  0
   36.5890   28.5650   41.8850 C   0  0  0  0  0  3  0  0  0  0  0  0
   36.5360   27.6980   40.6650 C   0  0  0  0  0  2  0  0  0  0  0  0
   37.3490   26.4610   40.9670 C   0  0  0  0  0  2  0  0  0  0  0  0
   37.1080   26.2420   42.4260 C   0  0  0  0  0  2  0  0  0  0  0  0
   36.7680   27.5620   43.0290 C   0  0  0  0  0  2  0  0  0  0  0  0
  1  2  1  0  0  0  0
  2  3  2  0  0  0  0
  2 18  1  0  0  0  0
  3  8  1  0  0  0  0
  4  3  1  0  0  0  0
  5  4  2  0  0  0  0
  6  5  1  0  0  0  0
  6  1  2  0  0  0  0
  7  1  1  0  0  0  0
  9 14  1  0  0  0  0
  9  5  1  0  0  0  0
 10  9  2  0  0  0  0
 11 12  2  0  0  0  0
 11 10  1  0  0  0  0
 12 13  1  0  0  0  0
 13 17  1  0  0  0  0
 13 14  2  0  0  0  0
 15 10  1  0  0  0  0
 16 11  1  0  0  0  0
 18 20  1  0  0  0  0
 19 18  2  0  0  0  0
 21 20  1  0  0  0  0
 21 25  1  0  0  0  0
 22 23  1  0  0  0  0
 22 21  1  0  0  0  0
 23 24  1  0  0  0  0
 24 25  1  0  0  0  0
M  END
>  <minimizedAffinity>
-4.39347315

$$$$

 OpenBabel03252500503D

 25 27  0  0  0  0  0  0  0  0999 V2000
   36.6010   27.0690   40.1540 C   0  0  0  0  0  0  0  0  0  0  0  0
   36.5070   27.9700   41.2090 C   0  0  0  0  0  0  0  0  0  0  0  0
   35.7860   29.1690   41.0530 C   0  0  0  0  0  0  0  0  0  0  0  0
   35.1960   29.3950   39.8390 N   0  0  0  0  0  0  0  0  0  0  0  0
   35.2970   28.5200   38.8420 C   0  0  0  0  0  0  0  0  0  0  0  0
   35.9950   27.3630   38.9980 N   0  0  0  0  0  0  0  0  0  0  0  0
   37.1410   26.1320   40.2120 H   0  0  0  0  0  0  0  0  0  0  0  0
   35.7010   29.8800   41.8570 H   0  0  0  0  0  0  0  0  0  0  0  0
   34.6690   28.7660   37.5570 C   0  0  0  0  0  0  0  0  0  0  0  0
   33.3230   28.9520   37.4330 C   0  0  0  0  0  0  0  0  0  0  0  0
   32.6960   29.1870   36.2380 C   0  0  0  0  0  0  0  0  0  0  0  0
   33.4840   29.2290   35.1380 N   0  0  0  0  0  0  0  0  0  0  0  0
   34.7990   29.0460   35.2660 C   0  0  0  0  0  0  0  0  0  0  0  0
   35.4350   28.8150   36.4250 N   0  0  0  0  0  0  0  0  0  0  0  0
   32.7260   28.9110   38.3430 H   0  0  0  0  0  0  0  0  0  0  0  0
   31.6190   29.3230   36.2380 H   0  0  0  0  0  0  0  0  0  0  0  0
   35.3980   29.0870   34.3600 H   0  0  0  0  0  0  0  0  0  0  0  0
   37.1600   27.6550   42.4600 C   0  0  0  0  0  0  0  0  0  0  0  0
   36.4490   27.4830   43.4630 O   0  0  0  0  0  0  0  0  0  0  0  0
   38.5070   27.4950   42.7900 O   0  0  0  0  0  0  0  0  0  0  0  0
   39.0360   26.3830   43.4180 C   0  0  0  0  0  3  0  0  0  0  0  0
   39.0210   25.1260   42.6060 C   0  0  0  0  0  2  0  0  0  0  0  0
   40.2880   25.1170   41.7820 C   0  0  0  0  0  2  0  0  0  0  0  0
   41.2820   25.7800   42.6790 C   0  0  0  0  0  2  0  0  0  0  0  0
   40.5290   26.6690   43.6070 C   0  0  0  0  0  2  0  0  0  0  0  0
  1  7  1  0  0  0  0
  1  2  1  0  0  0  0
  2 18  1  0  0  0  0
  3  2  2  0  0  0  0
  3  8  1  0  0  0  0
  4  3  1  0  0  0  0
  5  6  1  0  0  0  0
  5  4  2  0  0  0  0
  6  1  2  0  0  0  0
  9  5  1  0  0  0  0
 10  9  1  0  0  0  0
 10 15  1  0  0  0  0
 11 16  1  0  0  0  0
 11 10  2  0  0  0  0
 12 13  2  0  0  0  0
 12 11  1  0  0  0  0
 13 14  1  0  0  0  0
 14  9  2  0  0  0  0
 17 13  1  0  0  0  0
 18 20  1  0  0  0  0
 18 19  2  0  0  0  0
 20 21  1  0  0  0  0
 21 25  1  0  0  0  0
 22 21  1  0  0  0  0
 23 22  1  0  0  0  0
 23 24  1  0  0  0  0
 24 25  1  0  0  0  0
M  END
>  <minimizedAffinity>
-4.36734915

$$$$

 OpenBabel03252500503D

 25 27  0  0  0  0  0  0  0  0999 V2000
   39.3350   29.1510   40.9020 C   0  0  0  0  0  0  0  0  0  0  0  0
   37.9570   29.2020   40.7190 C   0  0  0  0  0  0  0  0  0  0  0  0
   37.3780   30.2600   39.9950 C   0  0  0  0  0  0  0  0  0  0  0  0
   38.2200   31.2150   39.4930 N   0  0  0  0  0  0  0  0  0  0  0  0
   39.5350   31.1490   39.6780 C   0  0  0  0  0  0  0  0  0  0  0  0
   40.0910   30.1240   40.3780 N   0  0  0  0  0  0  0  0  0  0  0  0
   39.8390   28.3640   41.4480 H   0  0  0  0  0  0  0  0  0  0  0  0
   36.3140   30.3180   39.8430 H   0  0  0  0  0  0  0  0  0  0  0  0
   40.4230   32.1640   39.1430 C   0  0  0  0  0  0  0  0  0  0  0  0
   40.9570   32.0710   37.8900 C   0  0  0  0  0  0  0  0  0  0  0  0
   41.7980   33.0090   37.3510 C   0  0  0  0  0  0  0  0  0  0  0  0
   42.0960   34.0750   38.1310 N   0  0  0  0  0  0  0  0  0  0  0  0
   41.5700   34.1600   39.3550 C   0  0  0  0  0  0  0  0  0  0  0  0
   40.7450   33.2550   39.9030 N   0  0  0  0  0  0  0  0  0  0  0  0
   40.6920   31.1980   37.2960 H   0  0  0  0  0  0  0  0  0  0  0  0
   42.1740   32.8490   36.3460 H   0  0  0  0  0  0  0  0  0  0  0  0
   41.8330   35.0310   39.9490 H   0  0  0  0  0  0  0  0  0  0  0  0
   37.1380   28.1520   41.2830 C   0  0  0  0  0  0  0  0  0  0  0  0
   36.1760   28.4810   41.9960 O   0  0  0  0  0  0  0  0  0  0  0  0
   37.2110   26.7620   41.1840 O   0  0  0  0  0  0  0  0  0  0  0  0
   37.3750   25.9050   42.2570 C   0  0  0  0  0  3  0  0  0  0  0  0
   36.9200   24.4970   42.0230 C   0  0  0  0  0  2  0  0  0  0  0  0
   38.0820   23.7550   41.4050 C   0  0  0  0  0  2  0  0  0  0  0  0
   39.2720   24.3840   42.0550 C   0  0  0  0  0  2  0  0  0  0  0  0
   38.8850   25.7630   42.4650 C   0  0  0  0  0  2  0  0  0  0  0  0
  1  7  1  0  0  0  0
  2  1  1  0  0  0  0
  2 18  1  0  0  0  0
  3  2  2  0  0  0  0
  4  5  2  0  0  0  0
  4  3  1  0  0  0  0
  5  6  1  0  0  0  0
  6  1  2  0  0  0  0
  8  3  1  0  0  0  0
  9  5  1  0  0  0  0
  9 14  1  0  0  0  0
 10  9  2  0  0  0  0
 11 10  1  0  0  0  0
 11 12  2  0  0  0  0
 12 13  1  0  0  0  0
 13 14  2  0  0  0  0
 13 17  1  0  0  0  0
 15 10  1  0  0  0  0
 16 11  1  0  0  0  0
 18 19  2  0  0  0  0
 20 18  1  0  0  0  0
 20 21  1  0  0  0  0
 21 25  1  0  0  0  0
 22 21  1  0  0  0  0
 23 22  1  0  0  0  0
 23 24  1  0  0  0  0
 24 25  1  0  0  0  0
M  END
>  <minimizedAffinity>
-4.321877

$$$$
