
 OpenBabel03252504253D

 17 18  0  0  0  0  0  0  0  0999 V2000
   44.5250   35.5100   44.7610 C   0  0  0  0  0  0  0  0  0  0  0  0
   45.2680   35.1760   43.6370 C   0  0  0  0  0  0  0  0  0  0  0  0
   46.2010   34.1440   43.7630 C   0  0  0  0  0  0  0  0  0  0  0  0
   46.3200   33.5440   44.9670 N   0  0  0  0  0  0  0  0  0  0  0  0
   45.5880   33.8870   46.0420 C   0  0  0  0  0  0  0  0  0  0  0  0
   44.6680   34.8840   45.9630 N   0  0  0  0  0  0  0  0  0  0  0  0
   43.7720   36.2960   44.7760 H   0  0  0  0  0  0  0  0  0  0  0  0
   46.7490   33.9190   42.8780 H   0  0  0  0  0  0  0  0  0  0  0  0
   45.7060   33.3920   46.9790 H   0  0  0  0  0  0  0  0  0  0  0  0
   44.9770   35.9590   42.4260 C   0  0  0  0  0  0  0  0  0  0  0  0
   44.4460   36.8710   42.6650 H   0  0  0  0  0  0  0  0  0  0  0  0
   45.9320   36.2510   41.9150 H   0  0  0  0  0  0  0  0  0  0  0  0
   44.1460   35.1410   41.4730 C   0  0  0  0  0  3  0  0  0  0  0  0
   42.7110   35.6230   41.3950 C   0  0  0  0  0  2  0  0  0  0  0  0
   42.1140   34.5150   40.5420 C   0  0  0  0  0  2  0  0  0  0  0  0
   42.6770   33.2760   41.2100 C   0  0  0  0  0  2  0  0  0  0  0  0
   43.9360   33.7300   41.9560 C   0  0  0  0  0  2  0  0  0  0  0  0
  1  7  1  0  0  0  0
  1  6  1  0  0  0  0
  2  3  1  0  0  0  0
  2  1  2  0  0  0  0
  3  4  2  0  0  0  0
  4  5  1  0  0  0  0
  5  9  1  0  0  0  0
  6  5  2  0  0  0  0
  8  3  1  0  0  0  0
 10 11  1  0  0  0  0
 10  2  1  0  0  0  0
 12 10  1  0  0  0  0
 13 17  1  0  0  0  0
 13 10  1  0  0  0  0
 14 13  1  0  0  0  0
 15 16  1  0  0  0  0
 15 14  1  0  0  0  0
 16 17  1  0  0  0  0
M  END
>  <minimizedAffinity>
-3.72597861

>  <minimizedRMSD>
1.21246028

$$$$
