
 OpenBabel03242521033D

 23 25  0  0  0  0  0  0  0  0999 V2000
   46.6910   34.7320   42.1060 C   0  0  0  0  0  0  0  0  0  0  0  0
   47.8760   35.3720   41.8260 C   0  0  0  0  0  0  0  0  0  0  0  0
   48.6060   35.2340   40.6680 C   0  0  0  0  0  0  0  0  0  0  0  0
   48.1280   34.3860   39.6960 C   0  0  0  0  0  0  0  0  0  0  0  0
   46.9500   33.7550   39.9850 C   0  0  0  0  0  0  0  0  0  0  0  0
   46.2820   33.9250   41.1220 N   0  0  0  0  0  0  0  0  0  0  0  0
   48.3060   36.0600   42.5660 H   0  0  0  0  0  0  0  0  0  0  0  0
   49.5320   35.7670   40.5120 H   0  0  0  0  0  0  0  0  0  0  0  0
   48.6510   34.2350   38.7720 H   0  0  0  0  0  0  0  0  0  0  0  0
   44.4510   35.9650   44.8740 C   0  0  0  0  0  0  0  0  0  0  0  0
   45.0780   35.9460   43.6240 C   0  0  0  0  0  0  0  0  0  0  0  0
   45.9560   34.9110   43.3430 C   0  0  0  0  0  0  0  0  0  0  0  0
   46.1550   33.9690   44.3090 N   0  0  0  0  0  0  0  0  0  0  0  0
   45.5340   34.0140   45.5090 C   0  0  0  0  0  0  0  0  0  0  0  0
   44.6880   35.0120   45.7810 N   0  0  0  0  0  0  0  0  0  0  0  0
   43.7730   36.7850   45.0630 H   0  0  0  0  0  0  0  0  0  0  0  0
   44.9430   36.6770   42.8350 H   0  0  0  0  0  0  0  0  0  0  0  0
   45.7900   33.1900   46.1880 H   0  0  0  0  0  0  0  0  0  0  0  0
   46.3810   32.8160   38.9560 C   0  0  0  0  0  0  0  0  0  0  0  0
   46.7880   33.2780   37.5560 C   0  0  0  0  0  0  0  0  0  0  0  0
   45.4890   33.3470   36.7530 C   0  0  0  0  0  0  0  0  0  0  0  0
   44.5650   32.4380   37.5190 C   0  0  0  0  0  0  0  0  0  0  0  0
   44.8900   32.7700   38.9680 C   0  0  0  0  0  0  0  0  0  0  0  0
  1 12  1  0  0  0  0
  2  1  1  0  0  0  0
  2  7  1  0  0  0  0
  3  2  2  0  0  0  0
  4  5  2  0  0  0  0
  4  3  1  0  0  0  0
  5  6  1  0  0  0  0
  6  1  2  0  0  0  0
  8  3  1  0  0  0  0
  9  4  1  0  0  0  0
 10 16  1  0  0  0  0
 10 15  1  0  0  0  0
 11 10  2  0  0  0  0
 12 11  1  0  0  0  0
 12 13  2  0  0  0  0
 13 14  1  0  0  0  0
 14 15  2  0  0  0  0
 14 18  1  0  0  0  0
 17 11  1  0  0  0  0
 19 23  1  0  0  0  0
 19  5  1  0  0  0  0
 20 19  1  0  0  0  0
 21 22  1  0  0  0  0
 21 20  1  0  0  0  0
 22 23  1  0  0  0  0
M  END
>  <minimizedAffinity>
-5.38154745

>  <minimizedRMSD>
0.194821671

$$$$
