
 OpenBabel03242518433D

 15 16  0  0  0  0  0  0  0  0999 V2000
   36.9530   31.8430   39.9750 C   0  0  0  0  0  0  0  0  0  0  0  0
   37.1810   31.5020   38.6250 C   0  0  0  0  0  0  0  0  0  0  0  0
   37.1850   30.1240   38.3030 C   0  0  0  0  0  0  0  0  0  0  0  0
   36.9720   29.2200   39.3010 N   0  0  0  0  0  0  0  0  0  0  0  0
   36.7600   29.5980   40.5780 C   0  0  0  0  0  0  0  0  0  0  0  0
   36.7510   30.9040   40.9150 N   0  0  0  0  0  0  0  0  0  0  0  0
   37.3420   32.2650   37.8810 H   0  0  0  0  0  0  0  0  0  0  0  0
   37.3550   29.8210   37.2790 H   0  0  0  0  0  0  0  0  0  0  0  0
   36.5300   28.6070   41.6610 C   0  0  0  0  0  3  0  0  0  0  0  0
   37.3210   28.9090   42.9180 C   0  0  0  0  0  2  0  0  0  0  0  0
   37.1790   27.6100   43.6800 C   0  0  0  0  0  2  0  0  0  0  0  0
   36.9690   26.5310   42.6350 C   0  0  0  0  0  2  0  0  0  0  0  0
   37.0910   27.2410   41.2880 C   0  0  0  0  0  2  0  0  0  0  0  0
   36.9480   33.1770   40.2980 O   0  0  0  0  0  0  0  0  0  0  0  0
   36.1250   33.7580   40.3730 H   0  0  0  0  0  0  0  0  0  0  0  0
  1 14  1  0  0  0  0
  1  6  1  0  0  0  0
  2  1  2  0  0  0  0
  3  2  1  0  0  0  0
  3  4  2  0  0  0  0
  4  5  1  0  0  0  0
  5  6  2  0  0  0  0
  5  9  1  0  0  0  0
  7  2  1  0  0  0  0
  8  3  1  0  0  0  0
  9 10  1  0  0  0  0
 10 11  1  0  0  0  0
 12 11  1  0  0  0  0
 13  9  1  0  0  0  0
 13 12  1  0  0  0  0
 14 15  1  0  0  0  0
M  END
>  <minimizedAffinity>
-4.60933447

$$$$

 OpenBabel03242518433D

 15 16  0  0  0  0  0  0  0  0999 V2000
   36.6410   30.1170   41.3780 C   0  0  0  0  0  0  0  0  0  0  0  0
   37.9480   30.6050   41.1710 C   0  0  0  0  0  0  0  0  0  0  0  0
   38.9980   29.6560   41.1830 C   0  0  0  0  0  0  0  0  0  0  0  0
   38.6890   28.3440   41.3910 N   0  0  0  0  0  0  0  0  0  0  0  0
   37.4210   27.9270   41.5850 C   0  0  0  0  0  0  0  0  0  0  0  0
   36.4000   28.8100   41.5790 N   0  0  0  0  0  0  0  0  0  0  0  0
   38.1280   31.6560   41.0120 H   0  0  0  0  0  0  0  0  0  0  0  0
   40.0140   29.9900   41.0270 H   0  0  0  0  0  0  0  0  0  0  0  0
   37.0920   26.4970   41.8120 C   0  0  0  0  0  3  0  0  0  0  0  0
   38.2530   25.7040   42.3780 C   0  0  0  0  0  2  0  0  0  0  0  0
   37.7730   24.2850   42.1770 C   0  0  0  0  0  2  0  0  0  0  0  0
   36.8220   24.3260   40.9960 C   0  0  0  0  0  2  0  0  0  0  0  0
   36.8600   25.7680   40.4950 C   0  0  0  0  0  2  0  0  0  0  0  0
   35.6160   31.0290   41.3690 O   0  0  0  0  0  0  0  0  0  0  0  0
   35.0350   31.2500   40.5720 H   0  0  0  0  0  0  0  0  0  0  0  0
  1  6  1  0  0  0  0
  2  3  1  0  0  0  0
  2  1  2  0  0  0  0
  3  4  2  0  0  0  0
  4  5  1  0  0  0  0
  5  9  1  0  0  0  0
  6  5  2  0  0  0  0
  7  2  1  0  0  0  0
  8  3  1  0  0  0  0
  9 10  1  0  0  0  0
 11 10  1  0  0  0  0
 12 11  1  0  0  0  0
 13 12  1  0  0  0  0
 13  9  1  0  0  0  0
 14  1  1  0  0  0  0
 15 14  1  0  0  0  0
M  END
>  <minimizedAffinity>
-4.42762089

$$$$

 OpenBabel03242518433D

 15 16  0  0  0  0  0  0  0  0999 V2000
   37.7670   32.6170   40.4040 C   0  0  0  0  0  0  0  0  0  0  0  0
   39.0750   33.1450   40.4480 C   0  0  0  0  0  0  0  0  0  0  0  0
   40.0840   32.3130   40.9870 C   0  0  0  0  0  0  0  0  0  0  0  0
   39.7400   31.0690   41.4270 N   0  0  0  0  0  0  0  0  0  0  0  0
   38.4730   30.6110   41.3630 C   0  0  0  0  0  0  0  0  0  0  0  0
   37.4890   31.3810   40.8540 N   0  0  0  0  0  0  0  0  0  0  0  0
   39.2840   34.1370   40.0840 H   0  0  0  0  0  0  0  0  0  0  0  0
   41.1000   32.6800   41.0380 H   0  0  0  0  0  0  0  0  0  0  0  0
   38.1040   29.2550   41.8450 C   0  0  0  0  0  3  0  0  0  0  0  0
   36.6560   28.9020   41.5710 C   0  0  0  0  0  2  0  0  0  0  0  0
   36.4750   27.6800   42.4430 C   0  0  0  0  0  2  0  0  0  0  0  0
   37.4730   27.8220   43.5760 C   0  0  0  0  0  2  0  0  0  0  0  0
   38.1360   29.1810   43.3660 C   0  0  0  0  0  2  0  0  0  0  0  0
   36.7800   33.4160   39.8830 O   0  0  0  0  0  0  0  0  0  0  0  0
   36.4500   33.3910   38.9280 H   0  0  0  0  0  0  0  0  0  0  0  0
  1  2  2  0  0  0  0
  1  6  1  0  0  0  0
  2  3  1  0  0  0  0
  3  8  1  0  0  0  0
  3  4  2  0  0  0  0
  5  4  1  0  0  0  0
  5  9  1  0  0  0  0
  6  5  2  0  0  0  0
  7  2  1  0  0  0  0
  9 13  1  0  0  0  0
 10  9  1  0  0  0  0
 10 11  1  0  0  0  0
 11 12  1  0  0  0  0
 13 12  1  0  0  0  0
 14  1  1  0  0  0  0
 15 14  1  0  0  0  0
M  END
>  <minimizedAffinity>
-4.38196135

$$$$

 OpenBabel03242518433D

 15 16  0  0  0  0  0  0  0  0999 V2000
   36.1220   29.6450   41.0840 C   0  0  0  0  0  0  0  0  0  0  0  0
   35.6970   29.1690   39.8250 C   0  0  0  0  0  0  0  0  0  0  0  0
   36.0300   27.8330   39.4990 C   0  0  0  0  0  0  0  0  0  0  0  0
   36.7330   27.0950   40.4050 N   0  0  0  0  0  0  0  0  0  0  0  0
   37.1170   27.5980   41.5960 C   0  0  0  0  0  0  0  0  0  0  0  0
   36.8130   28.8680   41.9350 N   0  0  0  0  0  0  0  0  0  0  0  0
   35.1430   29.8020   39.1520 H   0  0  0  0  0  0  0  0  0  0  0  0
   35.7220   27.4300   38.5440 H   0  0  0  0  0  0  0  0  0  0  0  0
   37.8830   26.7890   42.5780 C   0  0  0  0  0  3  0  0  0  0  0  0
   39.1890   27.4380   42.9900 C   0  0  0  0  0  2  0  0  0  0  0  0
   39.8900   26.2890   43.6800 C   0  0  0  0  0  2  0  0  0  0  0  0
   39.3330   25.0230   43.0570 C   0  0  0  0  0  2  0  0  0  0  0  0
   38.3890   25.4950   41.9540 C   0  0  0  0  0  2  0  0  0  0  0  0
   35.8040   30.9390   41.4100 O   0  0  0  0  0  0  0  0  0  0  0  0
   35.0040   31.2260   41.9590 H   0  0  0  0  0  0  0  0  0  0  0  0
  1 14  1  0  0  0  0
  1  6  1  0  0  0  0
  2  1  2  0  0  0  0
  3  2  1  0  0  0  0
  3  4  2  0  0  0  0
  4  5  1  0  0  0  0
  5  6  2  0  0  0  0
  5  9  1  0  0  0  0
  7  2  1  0  0  0  0
  8  3  1  0  0  0  0
  9 10  1  0  0  0  0
 10 11  1  0  0  0  0
 12 11  1  0  0  0  0
 13  9  1  0  0  0  0
 13 12  1  0  0  0  0
 14 15  1  0  0  0  0
M  END
>  <minimizedAffinity>
-4.36124468

$$$$

 OpenBabel03242518433D

 15 16  0  0  0  0  0  0  0  0999 V2000
   39.1140   32.4990   40.8810 C   0  0  0  0  0  0  0  0  0  0  0  0
   38.0780   33.0260   40.0810 C   0  0  0  0  0  0  0  0  0  0  0  0
   36.9520   32.1970   39.8610 C   0  0  0  0  0  0  0  0  0  0  0  0
   36.9340   30.9560   40.4250 N   0  0  0  0  0  0  0  0  0  0  0  0
   37.9520   30.4980   41.1830 C   0  0  0  0  0  0  0  0  0  0  0  0
   39.0390   31.2660   41.4100 N   0  0  0  0  0  0  0  0  0  0  0  0
   38.1510   34.0170   39.6630 H   0  0  0  0  0  0  0  0  0  0  0  0
   36.1360   32.5650   39.2540 H   0  0  0  0  0  0  0  0  0  0  0  0
   37.9270   29.1450   41.7940 C   0  0  0  0  0  3  0  0  0  0  0  0
   36.5660   28.4830   41.7120 C   0  0  0  0  0  2  0  0  0  0  0  0
   36.7340   27.3330   42.6790 C   0  0  0  0  0  2  0  0  0  0  0  0
   37.7850   27.7750   43.6790 C   0  0  0  0  0  2  0  0  0  0  0  0
   38.1220   29.2160   43.3020 C   0  0  0  0  0  2  0  0  0  0  0  0
   40.2100   33.2940   41.1000 O   0  0  0  0  0  0  0  0  0  0  0  0
   40.3550   33.8830   41.9090 H   0  0  0  0  0  0  0  0  0  0  0  0
  1 14  1  0  0  0  0
  1  6  1  0  0  0  0
  2  1  2  0  0  0  0
  3  2  1  0  0  0  0
  3  4  2  0  0  0  0
  4  5  1  0  0  0  0
  5  6  2  0  0  0  0
  5  9  1  0  0  0  0
  7  2  1  0  0  0  0
  8  3  1  0  0  0  0
  9 13  1  0  0  0  0
 10  9  1  0  0  0  0
 10 11  1  0  0  0  0
 11 12  1  0  0  0  0
 13 12  1  0  0  0  0
 14 15  1  0  0  0  0
M  END
>  <minimizedAffinity>
-4.23659229

$$$$

 OpenBabel03242518433D

 15 16  0  0  0  0  0  0  0  0999 V2000
   38.3530   24.7830   42.4280 C   0  0  0  0  0  0  0  0  0  0  0  0
   39.5200   24.9620   43.2010 C   0  0  0  0  0  0  0  0  0  0  0  0
   39.7940   26.2740   43.6540 C   0  0  0  0  0  0  0  0  0  0  0  0
   38.9290   27.2740   43.3220 N   0  0  0  0  0  0  0  0  0  0  0  0
   37.8260   27.0510   42.5780 C   0  0  0  0  0  0  0  0  0  0  0  0
   37.5380   25.8100   42.1320 N   0  0  0  0  0  0  0  0  0  0  0  0
   40.1650   24.1290   43.4310 H   0  0  0  0  0  0  0  0  0  0  0  0
   40.6790   26.4530   44.2500 H   0  0  0  0  0  0  0  0  0  0  0  0
   36.8880   28.1450   42.2190 C   0  0  0  0  0  3  0  0  0  0  0  0
   36.2990   27.9880   40.8320 C   0  0  0  0  0  2  0  0  0  0  0  0
   35.6960   29.3570   40.6060 C   0  0  0  0  0  2  0  0  0  0  0  0
   36.5070   30.3180   41.4550 C   0  0  0  0  0  2  0  0  0  0  0  0
   37.6180   29.4730   42.0730 C   0  0  0  0  0  2  0  0  0  0  0  0
   38.0780   23.5140   41.9830 O   0  0  0  0  0  0  0  0  0  0  0  0
   37.4600   22.8550   42.4380 H   0  0  0  0  0  0  0  0  0  0  0  0
  1  2  1  0  0  0  0
  2  7  1  0  0  0  0
  2  3  2  0  0  0  0
  3  8  1  0  0  0  0
  4  3  1  0  0  0  0
  5  4  2  0  0  0  0
  6  1  2  0  0  0  0
  6  5  1  0  0  0  0
  9  5  1  0  0  0  0
 10  9  1  0  0  0  0
 11 10  1  0  0  0  0
 11 12  1  0  0  0  0
 12 13  1  0  0  0  0
 13  9  1  0  0  0  0
 14  1  1  0  0  0  0
 14 15  1  0  0  0  0
M  END
>  <minimizedAffinity>
-4.17299509

$$$$

 OpenBabel03242518433D

 15 16  0  0  0  0  0  0  0  0999 V2000
   36.8360   30.6370   41.1000 C   0  0  0  0  0  0  0  0  0  0  0  0
   37.5810   31.5130   40.2830 C   0  0  0  0  0  0  0  0  0  0  0  0
   38.9040   31.1230   39.9630 C   0  0  0  0  0  0  0  0  0  0  0  0
   39.3730   29.9420   40.4560 N   0  0  0  0  0  0  0  0  0  0  0  0
   38.6190   29.1380   41.2340 C   0  0  0  0  0  0  0  0  0  0  0  0
   37.3550   29.4840   41.5560 N   0  0  0  0  0  0  0  0  0  0  0  0
   37.1530   32.4340   39.9240 H   0  0  0  0  0  0  0  0  0  0  0  0
   39.5080   31.7670   39.3390 H   0  0  0  0  0  0  0  0  0  0  0  0
   39.1380   27.8530   41.7680 C   0  0  0  0  0  3  0  0  0  0  0  0
   38.0640   26.7920   41.9030 C   0  0  0  0  0  2  0  0  0  0  0  0
   38.7650   25.7630   42.7620 C   0  0  0  0  0  2  0  0  0  0  0  0
   39.7950   26.5270   43.5740 C   0  0  0  0  0  2  0  0  0  0  0  0
   39.5840   27.9960   43.2170 C   0  0  0  0  0  2  0  0  0  0  0  0
   35.5530   31.0060   41.4160 O   0  0  0  0  0  0  0  0  0  0  0  0
   34.7200   30.7050   40.9290 H   0  0  0  0  0  0  0  0  0  0  0  0
  1 14  1  0  0  0  0
  1  6  1  0  0  0  0
  2  1  2  0  0  0  0
  3  2  1  0  0  0  0
  3  4  2  0  0  0  0
  4  5  1  0  0  0  0
  5  6  2  0  0  0  0
  5  9  1  0  0  0  0
  7  2  1  0  0  0  0
  8  3  1  0  0  0  0
  9 10  1  0  0  0  0
  9 13  1  0  0  0  0
 10 11  1  0  0  0  0
 11 12  1  0  0  0  0
 13 12  1  0  0  0  0
 15 14  1  0  0  0  0
M  END
>  <minimizedAffinity>
-4.11205435

$$$$

 OpenBabel03242518433D

 15 16  0  0  0  0  0  0  0  0999 V2000
   38.3890   30.8440   38.5560 C   0  0  0  0  0  0  0  0  0  0  0  0
   37.8230   32.0930   38.8860 C   0  0  0  0  0  0  0  0  0  0  0  0
   37.2230   32.2090   40.1620 C   0  0  0  0  0  0  0  0  0  0  0  0
   37.2250   31.1220   40.9860 N   0  0  0  0  0  0  0  0  0  0  0  0
   37.7800   29.9470   40.6220 C   0  0  0  0  0  0  0  0  0  0  0  0
   38.3600   29.8080   39.4110 N   0  0  0  0  0  0  0  0  0  0  0  0
   37.8540   32.9160   38.1910 H   0  0  0  0  0  0  0  0  0  0  0  0
   36.7790   33.1510   40.4540 H   0  0  0  0  0  0  0  0  0  0  0  0
   37.7780   28.7670   41.5230 C   0  0  0  0  0  3  0  0  0  0  0  0
   36.3930   28.1900   41.7410 C   0  0  0  0  0  2  0  0  0  0  0  0
   36.6330   27.2740   42.9200 C   0  0  0  0  0  2  0  0  0  0  0  0
   37.8110   27.8600   43.6740 C   0  0  0  0  0  2  0  0  0  0  0  0
   38.1530   29.1580   42.9460 C   0  0  0  0  0  2  0  0  0  0  0  0
   38.9740   30.7210   37.3200 O   0  0  0  0  0  0  0  0  0  0  0  0
   39.9600   30.8290   37.1250 H   0  0  0  0  0  0  0  0  0  0  0  0
  1  2  2  0  0  0  0
  1  6  1  0  0  0  0
  2  3  1  0  0  0  0
  3  8  1  0  0  0  0
  3  4  2  0  0  0  0
  5  4  1  0  0  0  0
  5  9  1  0  0  0  0
  6  5  2  0  0  0  0
  7  2  1  0  0  0  0
  9 10  1  0  0  0  0
  9 13  1  0  0  0  0
 10 11  1  0  0  0  0
 11 12  1  0  0  0  0
 13 12  1  0  0  0  0
 14  1  1  0  0  0  0
 15 14  1  0  0  0  0
M  END
>  <minimizedAffinity>
-4.06766939

$$$$

 OpenBabel03242518433D

 15 16  0  0  0  0  0  0  0  0999 V2000
   39.4520   32.2530   38.0770 C   0  0  0  0  0  0  0  0  0  0  0  0
   40.1680   32.8650   39.1280 C   0  0  0  0  0  0  0  0  0  0  0  0
   39.6060   32.7770   40.4240 C   0  0  0  0  0  0  0  0  0  0  0  0
   38.4230   32.1170   40.5800 N   0  0  0  0  0  0  0  0  0  0  0  0
   37.7760   31.5490   39.5410 C   0  0  0  0  0  0  0  0  0  0  0  0
   38.2880   31.6160   38.2940 N   0  0  0  0  0  0  0  0  0  0  0  0
   41.1000   33.3730   38.9410 H   0  0  0  0  0  0  0  0  0  0  0  0
   40.1240   33.2330   41.2570 H   0  0  0  0  0  0  0  0  0  0  0  0
   36.4880   30.8320   39.7170 C   0  0  0  0  0  3  0  0  0  0  0  0
   36.5120   29.8430   40.8660 C   0  0  0  0  0  2  0  0  0  0  0  0
   35.2580   29.0420   40.5980 C   0  0  0  0  0  2  0  0  0  0  0  0
   35.0180   29.1250   39.1030 C   0  0  0  0  0  2  0  0  0  0  0  0
   36.2070   29.9030   38.5440 C   0  0  0  0  0  2  0  0  0  0  0  0
   39.9870   32.3330   36.8170 O   0  0  0  0  0  0  0  0  0  0  0  0
   40.5580   31.6240   36.3770 H   0  0  0  0  0  0  0  0  0  0  0  0
  1  6  2  0  0  0  0
  1  2  1  0  0  0  0
  2  3  2  0  0  0  0
  3  4  1  0  0  0  0
  3  8  1  0  0  0  0
  5  9  1  0  0  0  0
  5  4  2  0  0  0  0
  6  5  1  0  0  0  0
  7  2  1  0  0  0  0
  9 10  1  0  0  0  0
 11 10  1  0  0  0  0
 12 11  1  0  0  0  0
 13 12  1  0  0  0  0
 13  9  1  0  0  0  0
 14  1  1  0  0  0  0
 15 14  1  0  0  0  0
M  END
>  <minimizedAffinity>
-4.04114771

$$$$
