
 OpenBabel03242514203D

 45 47  0  0  0  0  0  0  0  0999 V2000
   46.1210   34.5460   43.6290 C   0  0  0  0  0  0  0  0  0  0  0  0
   46.1100   33.7840   44.7710 C   0  0  0  0  0  0  0  0  0  0  0  0
   45.2980   34.1860   45.7870 C   0  0  0  0  0  0  0  0  0  0  0  0
   44.5430   35.3140   45.6290 N   0  0  0  0  0  0  0  0  0  0  0  0
   44.5530   36.0460   44.5340 C   0  0  0  0  0  0  0  0  0  0  0  0
   45.3430   35.6450   43.5570 N   0  0  0  0  0  0  0  0  0  0  0  0
   45.1180   33.7620   46.7590 H   0  0  0  0  0  0  0  0  0  0  0  0
   43.9560   36.9440   44.4010 H   0  0  0  0  0  0  0  0  0  0  0  0
   46.9440   34.0670   42.5120 C   0  0  0  0  0  0  0  0  0  0  0  0
   48.3370   34.6250   42.5800 C   0  0  0  0  0  0  0  0  0  0  0  0
   48.6510   35.4910   41.4420 C   0  0  0  0  0  0  0  0  0  0  0  0
   48.4340   34.7880   40.1190 C   0  0  0  0  0  0  0  0  0  0  0  0
   47.1710   34.0210   40.0560 C   0  0  0  0  0  0  0  0  0  0  0  0
   46.2600   34.3380   41.2200 C   0  0  0  0  0  0  0  0  0  0  0  0
   47.1150   32.9810   42.6460 H   0  0  0  0  0  0  0  0  0  0  0  0
   49.1100   33.8410   42.6630 H   0  0  0  0  0  0  0  0  0  0  0  0
   48.4190   35.2170   43.5140 H   0  0  0  0  0  0  0  0  0  0  0  0
   49.7490   35.7440   41.4800 H   0  0  0  0  0  0  0  0  0  0  0  0
   48.0940   36.4410   41.4950 H   0  0  0  0  0  0  0  0  0  0  0  0
   49.3050   34.0840   39.9750 H   0  0  0  0  0  0  0  0  0  0  0  0
   48.4910   35.5450   39.3320 H   0  0  0  0  0  0  0  0  0  0  0  0
   47.3290   32.9140   40.0820 H   0  0  0  0  0  0  0  0  0  0  0  0
   46.6300   34.2870   39.1280 H   0  0  0  0  0  0  0  0  0  0  0  0
   45.3470   33.7230   41.0930 H   0  0  0  0  0  0  0  0  0  0  0  0
   46.0200   35.4320   41.2050 H   0  0  0  0  0  0  0  0  0  0  0  0
   46.7660   32.6800   45.1030 O   0  0  0  0  0  0  0  0  0  0  0  0
   47.2350   32.1540   46.2840 C   0  0  0  0  0  0  0  0  0  0  0  0
   46.7830   32.5890   47.1760 H   0  0  0  0  0  0  0  0  0  0  0  0
   48.3380   32.3770   46.3770 H   0  0  0  0  0  0  0  0  0  0  0  0
   47.1400   30.6450   46.3690 C   0  0  0  0  0  0  0  0  0  0  0  0
   48.0620   30.2270   45.9190 H   0  0  0  0  0  0  0  0  0  0  0  0
   47.1300   30.3430   47.4290 H   0  0  0  0  0  0  0  0  0  0  0  0
   46.0190   30.1140   45.6160 N   0  0  0  0  0  0  0  0  0  0  0  0
   46.2890   29.3250   44.9920 H   0  0  0  0  0  0  0  0  0  0  0  0
   44.8420   29.5620   46.7760 S   0  0  0  0  0  0  0  0  0  0  0  0
   43.6040   29.0650   46.0940 O   0  0  0  0  0  0  0  0  0  0  0  0
   42.6610   29.2520   46.3120 H   0  0  0  0  0  0  0  0  0  0  0  0
   44.5100   30.7410   47.6440 O   0  0  0  0  0  0  0  0  0  0  0  0
   43.6050   30.9640   47.9490 H   0  0  0  0  0  0  0  0  0  0  0  0
   45.4830   28.3750   47.7510 O   0  0  0  0  0  0  0  0  0  0  0  0
   45.0190   27.1000   47.5090 C   0  0  0  0  0  0  0  0  0  0  0  0
   46.0960   26.0960   47.2340 C   0  0  0  0  0  0  0  0  0  0  0  0
   46.4530   25.4610   48.5600 C   0  0  0  0  0  0  0  0  0  0  0  0
   45.1240   25.3820   49.2350 C   0  0  0  0  0  0  0  0  0  0  0  0
   44.3840   26.6010   48.7940 C   0  0  0  0  0  0  0  0  0  0  0  0
  1  2  1  0  0  0  0
  2 26  1  0  0  0  0
  2  3  2  0  0  0  0
  3  7  1  0  0  0  0
  4  3  1  0  0  0  0
  5  4  2  0  0  0  0
  6  1  2  0  0  0  0
  6  5  1  0  0  0  0
  8  5  1  0  0  0  0
  9 10  1  0  0  0  0
  9 15  1  0  0  0  0
  9  1  1  0  0  0  0
 10 16  1  0  0  0  0
 10 17  1  0  0  0  0
 11 18  1  0  0  0  0
 11 19  1  0  0  0  0
 11 10  1  0  0  0  0
 12 11  1  0  0  0  0
 13 22  1  0  0  0  0
 13 12  1  0  0  0  0
 13 14  1  0  0  0  0
 14  9  1  0  0  0  0
 20 12  1  0  0  0  0
 21 12  1  0  0  0  0
 23 13  1  0  0  0  0
 24 14  1  0  0  0  0
 25 14  1  0  0  0  0
 26 27  1  0  0  0  0
 27 30  1  0  0  0  0
 27 29  1  0  0  0  0
 27 28  1  0  0  0  0
 30 32  1  0  0  0  0
 31 30  1  0  0  0  0
 33 30  1  0  0  0  0
 33 35  1  0  0  0  0
 34 33  1  0  0  0  0
 35 38  1  0  0  0  0
 35 40  1  0  0  0  0
 36 37  1  0  0  0  0
 36 35  1  0  0  0  0
 38 39  1  0  0  0  0
 41 40  1  0  0  0  0
 41 45  1  0  0  0  0
 42 41  1  0  0  0  0
 42 43  1  0  0  0  0
 43 44  1  0  0  0  0
 45 44  1  0  0  0  0
M  END
>  <minimizedAffinity>
-5.78943443

>  <minimizedRMSD>
0.69828248

$$$$
