
 OpenBabel03252505513D

 21 22  0  0  0  0  0  0  0  0999 V2000
   44.5970   35.5370   45.0470 C   0  0  0  0  0  0  0  0  0  0  0  0
   45.3560   35.1500   43.9440 C   0  0  0  0  0  0  0  0  0  0  0  0
   46.1260   33.9860   44.0630 C   0  0  0  0  0  0  0  0  0  0  0  0
   46.1110   33.2920   45.2140 N   0  0  0  0  0  0  0  0  0  0  0  0
   45.3670   33.6970   46.2560 C   0  0  0  0  0  0  0  0  0  0  0  0
   44.6100   34.8040   46.1970 N   0  0  0  0  0  0  0  0  0  0  0  0
   43.9790   36.4250   45.0250 H   0  0  0  0  0  0  0  0  0  0  0  0
   46.6970   33.7150   43.2030 H   0  0  0  0  0  0  0  0  0  0  0  0
   45.2760   36.0170   42.7320 C   0  0  0  0  0  0  0  0  0  0  0  0
   45.3260   37.3120   43.1760 F   0  0  0  0  0  0  0  0  0  0  0  0
   44.0500   35.7420   42.1320 F   0  0  0  0  0  0  0  0  0  0  0  0
   46.3090   35.6760   41.8960 F   0  0  0  0  0  0  0  0  0  0  0  0
   45.3040   33.0260   47.4740 O   0  0  0  0  0  0  0  0  0  0  0  0
   45.5920   31.6450   47.5500 C   0  0  0  0  0  0  0  0  0  0  0  0
   44.9910   31.1780   48.3330 H   0  0  0  0  0  0  0  0  0  0  0  0
   45.4490   31.2410   46.5350 H   0  0  0  0  0  0  0  0  0  0  0  0
   47.0720   31.5530   47.8700 C   0  0  0  0  0  3  0  0  0  0  0  0
   47.7990   30.5360   47.0390 C   0  0  0  0  0  2  0  0  0  0  0  0
   48.6040   29.6690   48.0100 C   0  0  0  0  0  2  0  0  0  0  0  0
   48.7270   30.5950   49.2020 C   0  0  0  0  0  2  0  0  0  0  0  0
   47.2890   31.1170   49.3140 C   0  0  0  0  0  2  0  0  0  0  0  0
  1  6  1  0  0  0  0
  2  3  1  0  0  0  0
  2  1  2  0  0  0  0
  3  4  2  0  0  0  0
  4  5  1  0  0  0  0
  5 13  1  0  0  0  0
  6  5  2  0  0  0  0
  7  1  1  0  0  0  0
  8  3  1  0  0  0  0
  9 10  1  0  0  0  0
  9  2  1  0  0  0  0
 11  9  1  0  0  0  0
 12  9  1  0  0  0  0
 13 14  1  0  0  0  0
 14 17  1  0  0  0  0
 14 15  1  0  0  0  0
 16 14  1  0  0  0  0
 17 21  1  0  0  0  0
 18 17  1  0  0  0  0
 18 19  1  0  0  0  0
 19 20  1  0  0  0  0
 20 21  1  0  0  0  0
M  END
>  <minimizedAffinity>
-4.75672245

>  <minimizedRMSD>
1.63440359

$$$$
