
 OpenBabel03252500013D

 33 36  0  0  0  0  0  0  0  0999 V2000
   46.6140   34.7540   42.0500 C   0  0  0  0  0  0  0  0  0  0  0  0
   47.8890   35.2920   42.0180 C   0  0  0  0  0  0  0  0  0  0  0  0
   48.7530   35.2040   40.9410 C   0  0  0  0  0  0  0  0  0  0  0  0
   48.3480   34.5420   39.8050 C   0  0  0  0  0  0  0  0  0  0  0  0
   47.0800   33.9930   39.7990 C   0  0  0  0  0  0  0  0  0  0  0  0
   46.6060   33.3880   38.6810 C   0  0  0  0  0  0  0  0  0  0  0  0
   45.3300   32.8850   38.5960 C   0  0  0  0  0  0  0  0  0  0  0  0
   44.5390   33.0220   39.7240 C   0  0  0  0  0  0  0  0  0  0  0  0
   45.0120   33.6280   40.8600 C   0  0  0  0  0  0  0  0  0  0  0  0
   46.2700   34.1140   40.9030 C   0  0  0  0  0  0  0  0  0  0  0  0
   48.3280   35.8390   42.8440 H   0  0  0  0  0  0  0  0  0  0  0  0
   49.7400   35.6210   40.9180 H   0  0  0  0  0  0  0  0  0  0  0  0
   48.9950   34.4540   38.9510 H   0  0  0  0  0  0  0  0  0  0  0  0
   47.3030   33.3210   37.8430 H   0  0  0  0  0  0  0  0  0  0  0  0
   45.0920   32.4350   37.6450 H   0  0  0  0  0  0  0  0  0  0  0  0
   43.5810   32.5830   39.4780 H   0  0  0  0  0  0  0  0  0  0  0  0
   44.4190   36.1380   44.7510 C   0  0  0  0  0  0  0  0  0  0  0  0
   45.0360   36.0530   43.5180 C   0  0  0  0  0  0  0  0  0  0  0  0
   45.9140   34.9620   43.2460 C   0  0  0  0  0  0  0  0  0  0  0  0
   46.0350   34.1260   44.2930 N   0  0  0  0  0  0  0  0  0  0  0  0
   45.4530   34.2030   45.4590 C   0  0  0  0  0  0  0  0  0  0  0  0
   44.6330   35.2280   45.6790 N   0  0  0  0  0  0  0  0  0  0  0  0
   43.7690   36.9800   44.8930 H   0  0  0  0  0  0  0  0  0  0  0  0
   44.9080   36.7760   42.7010 H   0  0  0  0  0  0  0  0  0  0  0  0
   45.7650   33.0780   46.3950 C   0  0  0  0  0  0  0  0  0  0  0  0
   44.9210   33.0600   47.4720 F   0  0  0  0  0  0  0  0  0  0  0  0
   47.0880   33.1620   46.7860 F   0  0  0  0  0  0  0  0  0  0  0  0
   45.6960   31.8650   45.6800 F   0  0  0  0  0  0  0  0  0  0  0  0
   44.0060   33.5820   41.9530 C   0  0  0  0  0  0  0  0  0  0  0  0
   43.9530   32.1500   42.3650 C   0  0  0  0  0  0  0  0  0  0  0  0
   43.1390   31.3640   41.3720 C   0  0  0  0  0  0  0  0  0  0  0  0
   42.0190   32.3550   41.1790 C   0  0  0  0  0  0  0  0  0  0  0  0
   42.5720   33.6850   41.4280 C   0  0  0  0  0  0  0  0  0  0  0  0
  1 19  1  0  0  0  0
  2  1  1  0  0  0  0
  2 11  1  0  0  0  0
  3  2  2  0  0  0  0
  4  3  1  0  0  0  0
  5  4  2  0  0  0  0
  5 10  1  0  0  0  0
  6  5  1  0  0  0  0
  7  6  2  0  0  0  0
  7  8  1  0  0  0  0
  8  9  2  0  0  0  0
  9 10  1  0  0  0  0
  9 29  1  0  0  0  0
 10  1  2  0  0  0  0
 12  3  1  0  0  0  0
 13  4  1  0  0  0  0
 14  6  1  0  0  0  0
 15  7  1  0  0  0  0
 16  8  1  0  0  0  0
 17 23  1  0  0  0  0
 17 22  1  0  0  0  0
 18 17  2  0  0  0  0
 19 18  1  0  0  0  0
 19 20  2  0  0  0  0
 20 21  1  0  0  0  0
 21 22  2  0  0  0  0
 21 25  1  0  0  0  0
 24 18  1  0  0  0  0
 25 27  1  0  0  0  0
 25 26  1  0  0  0  0
 28 25  1  0  0  0  0
 29 30  1  0  0  0  0
 31 30  1  0  0  0  0
 32 31  1  0  0  0  0
 32 33  1  0  0  0  0
 33 29  1  0  0  0  0
M  END
>  <minimizedAffinity>
-7.09888077

>  <minimizedRMSD>
0.841023803

$$$$
