
 OpenBabel03252509163D

 21 23  0  0  0  0  0  0  0  0999 V2000
   46.4410   32.9070   45.5110 C   0  0  0  0  0  0  0  0  0  0  0  0
   46.5090   32.7710   46.9260 C   0  0  0  0  0  0  0  0  0  0  0  0
   47.0590   31.6410   47.4370 C   0  0  0  0  0  0  0  0  0  0  0  0
   47.5400   30.6520   46.5360 C   0  0  0  0  0  0  0  0  0  0  0  0
   47.1900   31.3680   44.8790 S   0  0  0  0  0  0  0  0  0  0  0  0
   46.1250   33.5610   47.5510 H   0  0  0  0  0  0  0  0  0  0  0  0
   47.1530   31.4410   48.4710 H   0  0  0  0  0  0  0  0  0  0  0  0
   44.5000   35.9130   44.5280 C   0  0  0  0  0  0  0  0  0  0  0  0
   45.0630   36.1460   43.2460 C   0  0  0  0  0  0  0  0  0  0  0  0
   46.0640   35.2810   42.7830 C   0  0  0  0  0  0  0  0  0  0  0  0
   46.4400   34.2520   43.6080 N   0  0  0  0  0  0  0  0  0  0  0  0
   45.8730   34.0730   44.8210 C   0  0  0  0  0  0  0  0  0  0  0  0
   44.9040   34.8970   45.2880 N   0  0  0  0  0  0  0  0  0  0  0  0
   43.7300   36.5850   44.8780 H   0  0  0  0  0  0  0  0  0  0  0  0
   44.7630   36.9520   42.6100 H   0  0  0  0  0  0  0  0  0  0  0  0
   46.5410   35.3920   41.8190 H   0  0  0  0  0  0  0  0  0  0  0  0
   48.1560   29.3950   46.7040 C   0  0  0  0  0  3  0  0  0  0  0  0
   47.3450   28.3060   47.3460 C   0  0  0  0  0  2  0  0  0  0  0  0
   46.6420   27.6350   46.2220 C   0  0  0  0  0  2  0  0  0  0  0  0
   47.6330   27.6770   45.0840 C   0  0  0  0  0  2  0  0  0  0  0  0
   48.5780   28.7990   45.3880 C   0  0  0  0  0  2  0  0  0  0  0  0
  1  2  2  0  0  0  0
  2  3  1  0  0  0  0
  2  6  1  0  0  0  0
  3  7  1  0  0  0  0
  4 17  1  0  0  0  0
  4  3  2  0  0  0  0
  5  1  1  0  0  0  0
  5  4  1  0  0  0  0
  8 14  1  0  0  0  0
  8 13  1  0  0  0  0
  9  8  2  0  0  0  0
 10  9  1  0  0  0  0
 10 11  2  0  0  0  0
 11 12  1  0  0  0  0
 12 13  2  0  0  0  0
 12  1  1  0  0  0  0
 15  9  1  0  0  0  0
 16 10  1  0  0  0  0
 17 18  1  0  0  0  0
 19 18  1  0  0  0  0
 20 21  1  0  0  0  0
 20 19  1  0  0  0  0
 21 17  1  0  0  0  0
M  END
>  <minimizedAffinity>
-4.11995792

>  <minimizedRMSD>
2.95405936

$$$$
