
 OpenBabel03252507583D

 23 25  0  0  1  0  0  0  0  0999 V2000
   46.7490   32.3310   45.9840 C   0  0  1  0  0  0  0  0  0  0  0  0
   47.1020   32.5190   47.4260 C   0  0  0  0  0  0  0  0  0  0  0  0
   45.8250   31.8480   47.0560 C   0  0  2  0  0  0  0  0  0  0  0  0
   47.3630   31.6180   45.4020 H   0  0  0  0  0  0  0  0  0  0  0  0
   47.9510   31.9070   47.7870 H   0  0  0  0  0  0  0  0  0  0  0  0
   47.1540   33.5680   47.7410 H   0  0  0  0  0  0  0  0  0  0  0  0
   44.9040   32.4470   47.2880 H   0  0  0  0  0  0  0  0  0  0  0  0
   46.2210   34.7860   43.3050 C   0  0  0  0  0  0  0  0  0  0  0  0
   45.1950   35.6080   43.8230 C   0  0  0  0  0  0  0  0  0  0  0  0
   44.6790   35.3060   45.1080 C   0  0  0  0  0  0  0  0  0  0  0  0
   45.2130   34.2370   45.7590 N   0  0  0  0  0  0  0  0  0  0  0  0
   46.2020   33.4850   45.1960 C   0  0  0  0  0  0  0  0  0  0  0  0
   46.7000   33.7490   43.9970 N   0  0  0  0  0  0  0  0  0  0  0  0
   44.7730   36.4590   43.3030 H   0  0  0  0  0  0  0  0  0  0  0  0
   43.8940   35.9000   45.5570 H   0  0  0  0  0  0  0  0  0  0  0  0
   46.6660   35.1860   42.0150 C   0  0  0  0  0  0  0  0  0  0  0  0
   47.8790   35.2390   41.6430 O   0  0  0  0  0  0  0  0  0  0  0  0
   46.0720   35.5080   41.1470 H   0  0  0  0  0  0  0  0  0  0  0  0
   45.7210   30.4110   47.4220 C   0  0  0  0  0  3  0  0  0  0  0  0
   44.9740   29.5800   46.4070 C   0  0  0  0  0  2  0  0  0  0  0  0
   44.8040   28.2630   47.1710 C   0  0  0  0  0  2  0  0  0  0  0  0
   45.0570   28.5620   48.6250 C   0  0  0  0  0  2  0  0  0  0  0  0
   44.9910   30.0960   48.6830 C   0  0  0  0  0  2  0  0  0  0  0  0
  1  4  1  6  0  0  0
  1  3  1  0  0  0  0
  1  2  1  0  0  0  0
  2  6  1  0  0  0  0
  2  5  1  0  0  0  0
  3  7  1  1  0  0  0
  3 19  1  0  0  0  0
  3  2  1  0  0  0  0
  8  9  2  0  0  0  0
  8 13  1  0  0  0  0
  9 10  1  0  0  0  0
 10 15  1  0  0  0  0
 10 11  2  0  0  0  0
 12 11  1  0  0  0  0
 12  1  1  0  0  0  0
 13 12  2  0  0  0  0
 14  9  1  0  0  0  0
 16  8  1  0  0  0  0
 17 16  2  0  0  0  0
 18 16  1  0  0  0  0
 19 23  1  0  0  0  0
 20 21  1  0  0  0  0
 20 19  1  0  0  0  0
 21 22  1  0  0  0  0
 22 23  1  0  0  0  0
M  END
>  <minimizedAffinity>
-4.46759081

>  <minimizedRMSD>
1.16459644

$$$$
