
 OpenBabel03242519233D

 30 32  0  0  0  0  0  0  0  0999 V2000
   36.5400   30.3520   40.5660 C   0  0  0  0  0  0  0  0  0  0  0  0
   36.3190   29.9600   39.1600 C   0  0  0  0  0  0  0  0  0  0  0  0
   37.2830   30.5900   38.2010 C   0  0  0  0  0  0  0  0  0  0  0  0
   37.2910   32.1030   38.3080 C   0  0  0  0  0  0  0  0  0  0  0  0
   37.2500   32.6120   39.7190 C   0  0  0  0  0  0  0  0  0  0  0  0
   37.5060   31.5190   40.7270 C   0  0  0  0  0  0  0  0  0  0  0  0
   35.5970   30.7020   41.0850 H   0  0  0  0  0  0  0  0  0  0  0  0
   36.2670   28.8860   38.9670 H   0  0  0  0  0  0  0  0  0  0  0  0
   35.3040   30.3540   38.8670 H   0  0  0  0  0  0  0  0  0  0  0  0
   36.8720   30.3820   37.1700 H   0  0  0  0  0  0  0  0  0  0  0  0
   38.2960   30.2080   38.1950 H   0  0  0  0  0  0  0  0  0  0  0  0
   36.4800   32.5740   37.7150 H   0  0  0  0  0  0  0  0  0  0  0  0
   38.2400   32.4620   37.8640 H   0  0  0  0  0  0  0  0  0  0  0  0
   36.2430   33.0320   39.9610 H   0  0  0  0  0  0  0  0  0  0  0  0
   37.9890   33.3990   39.9030 H   0  0  0  0  0  0  0  0  0  0  0  0
   37.4110   31.9460   41.7280 H   0  0  0  0  0  0  0  0  0  0  0  0
   38.5410   31.1690   40.5970 H   0  0  0  0  0  0  0  0  0  0  0  0
   37.0470   29.2430   41.3980 C   0  0  0  0  0  0  0  0  0  0  0  0
   37.8720   29.6160   42.4940 C   0  0  0  0  0  0  0  0  0  0  0  0
   38.3750   28.6160   43.3240 C   0  0  0  0  0  0  0  0  0  0  0  0
   38.0320   27.3150   43.0180 N   0  0  0  0  0  0  0  0  0  0  0  0
   37.2460   26.9960   41.9680 C   0  0  0  0  0  0  0  0  0  0  0  0
   36.7640   27.9530   41.1720 N   0  0  0  0  0  0  0  0  0  0  0  0
   38.1760   30.5850   42.7890 H   0  0  0  0  0  0  0  0  0  0  0  0
   39.0070   28.8110   44.1770 H   0  0  0  0  0  0  0  0  0  0  0  0
   36.9080   25.5780   41.6840 C   0  0  0  0  0  3  0  0  0  0  0  0
   36.7160   25.3580   40.1810 C   0  0  0  0  0  2  0  0  0  0  0  0
   36.6170   23.8470   40.1310 C   0  0  0  0  0  2  0  0  0  0  0  0
   37.6740   23.4140   41.1000 C   0  0  0  0  0  2  0  0  0  0  0  0
   38.0580   24.6300   41.9300 C   0  0  0  0  0  2  0  0  0  0  0  0
  1  6  1  0  0  0  0
  1  7  1  0  0  0  0
  1 18  1  0  0  0  0
  2  1  1  0  0  0  0
  3  4  1  0  0  0  0
  3  2  1  0  0  0  0
  4  5  1  0  0  0  0
  5 15  1  0  0  0  0
  5 14  1  0  0  0  0
  5  6  1  0  0  0  0
  6 16  1  0  0  0  0
  8  2  1  0  0  0  0
  9  2  1  0  0  0  0
 10  3  1  0  0  0  0
 11  3  1  0  0  0  0
 12  4  1  0  0  0  0
 13  4  1  0  0  0  0
 17  6  1  0  0  0  0
 18 19  1  0  0  0  0
 19 24  1  0  0  0  0
 19 20  2  0  0  0  0
 20 25  1  0  0  0  0
 21 20  1  0  0  0  0
 22 21  2  0  0  0  0
 23 18  2  0  0  0  0
 23 22  1  0  0  0  0
 26 30  1  0  0  0  0
 26 22  1  0  0  0  0
 27 26  1  0  0  0  0
 28 27  1  0  0  0  0
 28 29  1  0  0  0  0
 29 30  1  0  0  0  0
M  END
>  <minimizedAffinity>
-5.21582651

$$$$

 OpenBabel03242519233D

 30 32  0  0  0  0  0  0  0  0999 V2000
   38.1580   26.9130   43.0520 C   0  0  0  0  0  0  0  0  0  0  0  0
   39.4850   26.7550   43.6800 C   0  0  0  0  0  0  0  0  0  0  0  0
   40.3490   25.7320   43.0090 C   0  0  0  0  0  0  0  0  0  0  0  0
   39.6710   24.3780   42.9180 C   0  0  0  0  0  0  0  0  0  0  0  0
   38.2220   24.4510   42.5350 C   0  0  0  0  0  0  0  0  0  0  0  0
   37.8310   25.8220   42.0390 C   0  0  0  0  0  0  0  0  0  0  0  0
   37.3050   26.8650   43.7930 H   0  0  0  0  0  0  0  0  0  0  0  0
   40.0560   27.6750   43.8240 H   0  0  0  0  0  0  0  0  0  0  0  0
   39.3070   26.3620   44.7220 H   0  0  0  0  0  0  0  0  0  0  0  0
   41.2230   25.5630   43.7070 H   0  0  0  0  0  0  0  0  0  0  0  0
   40.7840   26.0000   42.0550 H   0  0  0  0  0  0  0  0  0  0  0  0
   39.7840   23.7840   43.8470 H   0  0  0  0  0  0  0  0  0  0  0  0
   40.1850   23.8020   42.1240 H   0  0  0  0  0  0  0  0  0  0  0  0
   37.5660   24.2380   43.4140 H   0  0  0  0  0  0  0  0  0  0  0  0
   37.9590   23.7380   41.7460 H   0  0  0  0  0  0  0  0  0  0  0  0
   36.7600   25.8190   41.8280 H   0  0  0  0  0  0  0  0  0  0  0  0
   38.3690   26.0120   41.0980 H   0  0  0  0  0  0  0  0  0  0  0  0
   37.9980   28.2110   42.3670 C   0  0  0  0  0  0  0  0  0  0  0  0
   38.8750   29.2470   42.7880 C   0  0  0  0  0  0  0  0  0  0  0  0
   38.7820   30.4950   42.1730 C   0  0  0  0  0  0  0  0  0  0  0  0
   37.8290   30.6370   41.1850 N   0  0  0  0  0  0  0  0  0  0  0  0
   37.0120   29.6310   40.8100 C   0  0  0  0  0  0  0  0  0  0  0  0
   37.1010   28.4360   41.3980 N   0  0  0  0  0  0  0  0  0  0  0  0
   39.6240   29.2130   43.5340 H   0  0  0  0  0  0  0  0  0  0  0  0
   39.4080   31.3350   42.4310 H   0  0  0  0  0  0  0  0  0  0  0  0
   36.0040   29.8390   39.7390 C   0  0  0  0  0  3  0  0  0  0  0  0
   36.4770   29.2180   38.4220 C   0  0  0  0  0  2  0  0  0  0  0  0
   35.2210   29.3530   37.5840 C   0  0  0  0  0  2  0  0  0  0  0  0
   34.1370   28.9920   38.5530 C   0  0  0  0  0  2  0  0  0  0  0  0
   34.7370   29.0440   39.9500 C   0  0  0  0  0  2  0  0  0  0  0  0
  1  2  1  0  0  0  0
  1  7  1  0  0  0  0
  2  8  1  0  0  0  0
  2  9  1  0  0  0  0
  3  2  1  0  0  0  0
  3 10  1  0  0  0  0
  4  3  1  0  0  0  0
  4 12  1  0  0  0  0
  5  4  1  0  0  0  0
  5 14  1  0  0  0  0
  6  5  1  0  0  0  0
  6  1  1  0  0  0  0
 11  3  1  0  0  0  0
 13  4  1  0  0  0  0
 15  5  1  0  0  0  0
 16  6  1  0  0  0  0
 17  6  1  0  0  0  0
 18 19  1  0  0  0  0
 18  1  1  0  0  0  0
 19 24  1  0  0  0  0
 20 25  1  0  0  0  0
 20 19  2  0  0  0  0
 21 20  1  0  0  0  0
 22 21  2  0  0  0  0
 22 23  1  0  0  0  0
 23 18  2  0  0  0  0
 26 30  1  0  0  0  0
 26 22  1  0  0  0  0
 27 26  1  0  0  0  0
 28 27  1  0  0  0  0
 28 29  1  0  0  0  0
 29 30  1  0  0  0  0
M  END
>  <minimizedAffinity>
-5.17311954

$$$$

 OpenBabel03242519233D

 30 32  0  0  0  0  0  0  0  0999 V2000
   36.8780   25.8180   41.0440 C   0  0  0  0  0  0  0  0  0  0  0  0
   37.0610   24.8810   42.1690 C   0  0  0  0  0  0  0  0  0  0  0  0
   38.3310   24.0890   42.0930 C   0  0  0  0  0  0  0  0  0  0  0  0
   38.4580   23.3340   40.7840 C   0  0  0  0  0  0  0  0  0  0  0  0
   38.0380   24.1290   39.5820 C   0  0  0  0  0  0  0  0  0  0  0  0
   37.8610   25.5940   39.9010 C   0  0  0  0  0  0  0  0  0  0  0  0
   35.8620   25.7330   40.5530 H   0  0  0  0  0  0  0  0  0  0  0  0
   36.9620   25.3110   43.1690 H   0  0  0  0  0  0  0  0  0  0  0  0
   36.2290   24.1220   42.1000 H   0  0  0  0  0  0  0  0  0  0  0  0
   38.2360   23.2800   42.8770 H   0  0  0  0  0  0  0  0  0  0  0  0
   39.2530   24.6090   42.3190 H   0  0  0  0  0  0  0  0  0  0  0  0
   37.9190   22.3650   40.7990 H   0  0  0  0  0  0  0  0  0  0  0  0
   39.5280   23.0850   40.6460 H   0  0  0  0  0  0  0  0  0  0  0  0
   37.0530   23.7730   39.1930 H   0  0  0  0  0  0  0  0  0  0  0  0
   38.7600   24.0640   38.7620 H   0  0  0  0  0  0  0  0  0  0  0  0
   37.5080   26.1010   39.0000 H   0  0  0  0  0  0  0  0  0  0  0  0
   38.8460   26.0070   40.1670 H   0  0  0  0  0  0  0  0  0  0  0  0
   36.9920   27.2320   41.4500 C   0  0  0  0  0  0  0  0  0  0  0  0
   37.3640   27.4620   42.8020 C   0  0  0  0  0  0  0  0  0  0  0  0
   37.4980   28.7760   43.2470 C   0  0  0  0  0  0  0  0  0  0  0  0
   37.2560   29.7760   42.3270 N   0  0  0  0  0  0  0  0  0  0  0  0
   36.9040   29.5230   41.0490 C   0  0  0  0  0  0  0  0  0  0  0  0
   36.7750   28.2640   40.6230 N   0  0  0  0  0  0  0  0  0  0  0  0
   37.5640   26.7510   43.5600 H   0  0  0  0  0  0  0  0  0  0  0  0
   37.7780   29.0390   44.2560 H   0  0  0  0  0  0  0  0  0  0  0  0
   36.6540   30.6390   40.1010 C   0  0  0  0  0  3  0  0  0  0  0  0
   37.4610   31.8780   40.4990 C   0  0  0  0  0  2  0  0  0  0  0  0
   37.2260   32.7630   39.2920 C   0  0  0  0  0  2  0  0  0  0  0  0
   37.3300   31.7980   38.1500 C   0  0  0  0  0  2  0  0  0  0  0  0
   37.2320   30.3940   38.7270 C   0  0  0  0  0  2  0  0  0  0  0  0
  1 18  1  0  0  0  0
  1  2  1  0  0  0  0
  2  8  1  0  0  0  0
  3  2  1  0  0  0  0
  3 11  1  0  0  0  0
  3 10  1  0  0  0  0
  4 12  1  0  0  0  0
  4  3  1  0  0  0  0
  5  6  1  0  0  0  0
  5  4  1  0  0  0  0
  6 17  1  0  0  0  0
  6  1  1  0  0  0  0
  7  1  1  0  0  0  0
  9  2  1  0  0  0  0
 13  4  1  0  0  0  0
 14  5  1  0  0  0  0
 15  5  1  0  0  0  0
 16  6  1  0  0  0  0
 18 19  1  0  0  0  0
 19 20  2  0  0  0  0
 19 24  1  0  0  0  0
 20 25  1  0  0  0  0
 21 20  1  0  0  0  0
 22 21  2  0  0  0  0
 23 22  1  0  0  0  0
 23 18  2  0  0  0  0
 26 27  1  0  0  0  0
 26 22  1  0  0  0  0
 28 27  1  0  0  0  0
 29 30  1  0  0  0  0
 29 28  1  0  0  0  0
 30 26  1  0  0  0  0
M  END
>  <minimizedAffinity>
-5.16142941

$$$$

 OpenBabel03242519233D

 30 32  0  0  0  0  0  0  0  0999 V2000
   38.2160   29.9040   40.2340 C   0  0  0  0  0  0  0  0  0  0  0  0
   38.4420   31.2620   40.7650 C   0  0  0  0  0  0  0  0  0  0  0  0
   37.3750   32.2420   40.3840 C   0  0  0  0  0  0  0  0  0  0  0  0
   37.1730   32.3160   38.8830 C   0  0  0  0  0  0  0  0  0  0  0  0
   37.1920   30.9780   38.2020 C   0  0  0  0  0  0  0  0  0  0  0  0
   37.1110   29.8370   39.1860 C   0  0  0  0  0  0  0  0  0  0  0  0
   39.1210   29.4740   39.7070 H   0  0  0  0  0  0  0  0  0  0  0  0
   38.6280   31.3290   41.8400 H   0  0  0  0  0  0  0  0  0  0  0  0
   39.3880   31.6460   40.2860 H   0  0  0  0  0  0  0  0  0  0  0  0
   37.7780   33.2600   40.6650 H   0  0  0  0  0  0  0  0  0  0  0  0
   36.4210   32.1560   40.8880 H   0  0  0  0  0  0  0  0  0  0  0  0
   37.8970   32.9970   38.3900 H   0  0  0  0  0  0  0  0  0  0  0  0
   36.1720   32.7540   38.7030 H   0  0  0  0  0  0  0  0  0  0  0  0
   38.1420   30.8340   37.6330 H   0  0  0  0  0  0  0  0  0  0  0  0
   36.3620   30.8540   37.4980 H   0  0  0  0  0  0  0  0  0  0  0  0
   37.1810   28.8990   38.6310 H   0  0  0  0  0  0  0  0  0  0  0  0
   36.1270   29.8770   39.6770 H   0  0  0  0  0  0  0  0  0  0  0  0
   37.8840   28.9240   41.2860 C   0  0  0  0  0  0  0  0  0  0  0  0
   37.8700   29.4220   42.6170 C   0  0  0  0  0  0  0  0  0  0  0  0
   37.5530   28.5500   43.6570 C   0  0  0  0  0  0  0  0  0  0  0  0
   37.2720   27.2420   43.3140 N   0  0  0  0  0  0  0  0  0  0  0  0
   37.2950   26.8020   42.0390 C   0  0  0  0  0  0  0  0  0  0  0  0
   37.5980   27.6380   41.0430 N   0  0  0  0  0  0  0  0  0  0  0  0
   38.0730   30.4040   42.9550 H   0  0  0  0  0  0  0  0  0  0  0  0
   37.5190   28.8450   44.6940 H   0  0  0  0  0  0  0  0  0  0  0  0
   36.9840   25.3830   41.7260 C   0  0  0  0  0  3  0  0  0  0  0  0
   36.7130   25.2060   40.2300 C   0  0  0  0  0  2  0  0  0  0  0  0
   36.6560   23.6950   40.1350 C   0  0  0  0  0  2  0  0  0  0  0  0
   37.7800   23.2650   41.0280 C   0  0  0  0  0  2  0  0  0  0  0  0
   38.1740   24.4650   41.8760 C   0  0  0  0  0  2  0  0  0  0  0  0
  1  2  1  0  0  0  0
  1 18  1  0  0  0  0
  2  8  1  0  0  0  0
  3 10  1  0  0  0  0
  3  2  1  0  0  0  0
  3 11  1  0  0  0  0
  4  3  1  0  0  0  0
  5  4  1  0  0  0  0
  5  6  1  0  0  0  0
  6 17  1  0  0  0  0
  6  1  1  0  0  0  0
  7  1  1  0  0  0  0
  9  2  1  0  0  0  0
 12  4  1  0  0  0  0
 13  4  1  0  0  0  0
 14  5  1  0  0  0  0
 15  5  1  0  0  0  0
 16  6  1  0  0  0  0
 18 19  1  0  0  0  0
 19 24  1  0  0  0  0
 19 20  2  0  0  0  0
 20 25  1  0  0  0  0
 21 20  1  0  0  0  0
 22 21  2  0  0  0  0
 23 18  2  0  0  0  0
 23 22  1  0  0  0  0
 26 30  1  0  0  0  0
 26 22  1  0  0  0  0
 27 26  1  0  0  0  0
 28 27  1  0  0  0  0
 28 29  1  0  0  0  0
 29 30  1  0  0  0  0
M  END
>  <minimizedAffinity>
-5.12077761

$$$$

 OpenBabel03242519233D

 30 32  0  0  0  0  0  0  0  0999 V2000
   37.1840   27.3220   42.5300 C   0  0  0  0  0  0  0  0  0  0  0  0
   38.4260   27.3640   43.3270 C   0  0  0  0  0  0  0  0  0  0  0  0
   39.4940   26.4400   42.8260 C   0  0  0  0  0  0  0  0  0  0  0  0
   39.0100   25.0070   42.7230 C   0  0  0  0  0  0  0  0  0  0  0  0
   37.6260   24.8730   42.1580 C   0  0  0  0  0  0  0  0  0  0  0  0
   37.1340   26.1610   41.5440 C   0  0  0  0  0  0  0  0  0  0  0  0
   36.2540   27.1880   43.1600 H   0  0  0  0  0  0  0  0  0  0  0  0
   38.8530   28.3560   43.4920 H   0  0  0  0  0  0  0  0  0  0  0  0
   38.1650   26.9900   44.3580 H   0  0  0  0  0  0  0  0  0  0  0  0
   40.2830   26.4150   43.6350 H   0  0  0  0  0  0  0  0  0  0  0  0
   40.0130   26.7290   41.9200 H   0  0  0  0  0  0  0  0  0  0  0  0
   39.0740   24.4670   43.6890 H   0  0  0  0  0  0  0  0  0  0  0  0
   39.6920   24.4750   42.0310 H   0  0  0  0  0  0  0  0  0  0  0  0
   36.8930   24.6070   42.9590 H   0  0  0  0  0  0  0  0  0  0  0  0
   37.5620   24.1030   41.3820 H   0  0  0  0  0  0  0  0  0  0  0  0
   36.1080   26.0070   41.2010 H   0  0  0  0  0  0  0  0  0  0  0  0
   37.7620   26.3850   40.6690 H   0  0  0  0  0  0  0  0  0  0  0  0
   36.9520   28.5610   41.7620 C   0  0  0  0  0  0  0  0  0  0  0  0
   35.7380   28.6170   41.0260 C   0  0  0  0  0  0  0  0  0  0  0  0
   35.4550   29.7650   40.2880 C   0  0  0  0  0  0  0  0  0  0  0  0
   36.3890   30.7800   40.3240 N   0  0  0  0  0  0  0  0  0  0  0  0
   37.5330   30.6930   41.0340 C   0  0  0  0  0  0  0  0  0  0  0  0
   37.8050   29.5940   41.7410 N   0  0  0  0  0  0  0  0  0  0  0  0
   34.9790   27.8840   40.9500 H   0  0  0  0  0  0  0  0  0  0  0  0
   34.5570   29.8910   39.7020 H   0  0  0  0  0  0  0  0  0  0  0  0
   38.5050   31.8170   41.0370 C   0  0  0  0  0  3  0  0  0  0  0  0
   39.7260   31.4790   40.1760 C   0  0  0  0  0  2  0  0  0  0  0  0
   40.4290   32.8210   40.1520 C   0  0  0  0  0  2  0  0  0  0  0  0
   39.2950   33.7850   39.9830 C   0  0  0  0  0  2  0  0  0  0  0  0
   38.0080   33.0370   40.2980 C   0  0  0  0  0  2  0  0  0  0  0  0
  1  7  1  0  0  0  0
  1  2  1  0  0  0  0
  2  8  1  0  0  0  0
  2  9  1  0  0  0  0
  3  2  1  0  0  0  0
  3 10  1  0  0  0  0
  4  3  1  0  0  0  0
  4 12  1  0  0  0  0
  5  4  1  0  0  0  0
  5 14  1  0  0  0  0
  6  5  1  0  0  0  0
  6  1  1  0  0  0  0
 11  3  1  0  0  0  0
 13  4  1  0  0  0  0
 15  5  1  0  0  0  0
 16  6  1  0  0  0  0
 17  6  1  0  0  0  0
 18  1  1  0  0  0  0
 19 18  2  0  0  0  0
 20 21  2  0  0  0  0
 20 19  1  0  0  0  0
 21 22  1  0  0  0  0
 22 26  1  0  0  0  0
 22 23  2  0  0  0  0
 23 18  1  0  0  0  0
 24 19  1  0  0  0  0
 25 20  1  0  0  0  0
 27 26  1  0  0  0  0
 28 27  1  0  0  0  0
 29 28  1  0  0  0  0
 29 30  1  0  0  0  0
 30 26  1  0  0  0  0
M  END
>  <minimizedAffinity>
-5.11303139

$$$$

 OpenBabel03242519233D

 30 32  0  0  0  0  0  0  0  0999 V2000
   40.5320   31.6880   39.3270 C   0  0  0  0  0  0  0  0  0  0  0  0
   41.0870   32.9410   39.8780 C   0  0  0  0  0  0  0  0  0  0  0  0
   41.2170   34.0380   38.8660 C   0  0  0  0  0  0  0  0  0  0  0  0
   42.0330   33.6130   37.6600 C   0  0  0  0  0  0  0  0  0  0  0  0
   41.7230   32.2260   37.1760 C   0  0  0  0  0  0  0  0  0  0  0  0
   40.4680   31.6700   37.8050 C   0  0  0  0  0  0  0  0  0  0  0  0
   41.1480   30.7750   39.5870 H   0  0  0  0  0  0  0  0  0  0  0  0
   40.5930   33.3290   40.7710 H   0  0  0  0  0  0  0  0  0  0  0  0
   42.1410   32.7120   40.2100 H   0  0  0  0  0  0  0  0  0  0  0  0
   41.8410   34.8400   39.3600 H   0  0  0  0  0  0  0  0  0  0  0  0
   40.3060   34.5290   38.5490 H   0  0  0  0  0  0  0  0  0  0  0  0
   43.1240   33.7150   37.8290 H   0  0  0  0  0  0  0  0  0  0  0  0
   41.7870   34.3050   36.8310 H   0  0  0  0  0  0  0  0  0  0  0  0
   42.5460   31.5180   37.4420 H   0  0  0  0  0  0  0  0  0  0  0  0
   41.5850   32.1810   36.0910 H   0  0  0  0  0  0  0  0  0  0  0  0
   40.3310   30.6460   37.4500 H   0  0  0  0  0  0  0  0  0  0  0  0
   39.6160   32.2740   37.4590 H   0  0  0  0  0  0  0  0  0  0  0  0
   39.1760   31.3930   39.8280 C   0  0  0  0  0  0  0  0  0  0  0  0
   38.1060   32.0140   39.1280 C   0  0  0  0  0  0  0  0  0  0  0  0
   36.7990   31.7670   39.5440 C   0  0  0  0  0  0  0  0  0  0  0  0
   36.6350   30.9250   40.6250 N   0  0  0  0  0  0  0  0  0  0  0  0
   37.6740   30.3520   41.2680 C   0  0  0  0  0  0  0  0  0  0  0  0
   38.9260   30.5880   40.8690 N   0  0  0  0  0  0  0  0  0  0  0  0
   38.1550   32.6670   38.2970 H   0  0  0  0  0  0  0  0  0  0  0  0
   35.9310   32.1960   39.0690 H   0  0  0  0  0  0  0  0  0  0  0  0
   37.4390   29.4530   42.4270 C   0  0  0  0  0  3  0  0  0  0  0  0
   36.5990   28.2420   42.0110 C   0  0  0  0  0  2  0  0  0  0  0  0
   36.6950   27.3930   43.2630 C   0  0  0  0  0  2  0  0  0  0  0  0
   38.1310   27.5540   43.6620 C   0  0  0  0  0  2  0  0  0  0  0  0
   38.6880   28.7430   42.8940 C   0  0  0  0  0  2  0  0  0  0  0  0
  1  7  1  0  0  0  0
  1 18  1  0  0  0  0
  1  2  1  0  0  0  0
  2  9  1  0  0  0  0
  2  8  1  0  0  0  0
  3 10  1  0  0  0  0
  3  2  1  0  0  0  0
  4 12  1  0  0  0  0
  4  3  1  0  0  0  0
  5 14  1  0  0  0  0
  5  4  1  0  0  0  0
  5  6  1  0  0  0  0
  6  1  1  0  0  0  0
 11  3  1  0  0  0  0
 13  4  1  0  0  0  0
 15  5  1  0  0  0  0
 16  6  1  0  0  0  0
 17  6  1  0  0  0  0
 18 23  1  0  0  0  0
 19 20  1  0  0  0  0
 19 18  2  0  0  0  0
 20 21  2  0  0  0  0
 21 22  1  0  0  0  0
 22 26  1  0  0  0  0
 23 22  2  0  0  0  0
 24 19  1  0  0  0  0
 25 20  1  0  0  0  0
 26 30  1  0  0  0  0
 27 26  1  0  0  0  0
 27 28  1  0  0  0  0
 28 29  1  0  0  0  0
 30 29  1  0  0  0  0
M  END
>  <minimizedAffinity>
-5.02767467

$$$$

 OpenBabel03242519233D

 30 32  0  0  0  0  0  0  0  0999 V2000
   37.2330   30.8280   40.9990 C   0  0  0  0  0  0  0  0  0  0  0  0
   36.5790   31.5790   39.9100 C   0  0  0  0  0  0  0  0  0  0  0  0
   37.5410   32.2780   38.9980 C   0  0  0  0  0  0  0  0  0  0  0  0
   38.4800   33.2000   39.7520 C   0  0  0  0  0  0  0  0  0  0  0  0
   39.0030   32.6170   41.0330 C   0  0  0  0  0  0  0  0  0  0  0  0
   38.7180   31.1390   41.1450 C   0  0  0  0  0  0  0  0  0  0  0  0
   36.8030   31.0570   42.0210 H   0  0  0  0  0  0  0  0  0  0  0  0
   35.8550   31.0190   39.3130 H   0  0  0  0  0  0  0  0  0  0  0  0
   35.9760   32.3990   40.3960 H   0  0  0  0  0  0  0  0  0  0  0  0
   36.9140   32.9710   38.3630 H   0  0  0  0  0  0  0  0  0  0  0  0
   38.0960   31.6640   38.3010 H   0  0  0  0  0  0  0  0  0  0  0  0
   38.0300   34.1940   39.9490 H   0  0  0  0  0  0  0  0  0  0  0  0
   39.3560   33.3860   39.1020 H   0  0  0  0  0  0  0  0  0  0  0  0
   38.5160   33.0980   41.9170 H   0  0  0  0  0  0  0  0  0  0  0  0
   40.0850   32.7450   41.1410 H   0  0  0  0  0  0  0  0  0  0  0  0
   39.0780   30.7930   42.1170 H   0  0  0  0  0  0  0  0  0  0  0  0
   39.2880   30.6210   40.3600 H   0  0  0  0  0  0  0  0  0  0  0  0
   37.1040   29.3660   40.8470 C   0  0  0  0  0  0  0  0  0  0  0  0
   36.3560   28.9230   39.7220 C   0  0  0  0  0  0  0  0  0  0  0  0
   36.2050   27.5520   39.5150 C   0  0  0  0  0  0  0  0  0  0  0  0
   36.8010   26.7110   40.4330 N   0  0  0  0  0  0  0  0  0  0  0  0
   37.5040   27.1660   41.4910 C   0  0  0  0  0  0  0  0  0  0  0  0
   37.6500   28.4780   41.6890 N   0  0  0  0  0  0  0  0  0  0  0  0
   35.8730   29.5040   38.9820 H   0  0  0  0  0  0  0  0  0  0  0  0
   35.6550   27.1310   38.6880 H   0  0  0  0  0  0  0  0  0  0  0  0
   38.1250   26.2150   42.4480 C   0  0  0  0  0  3  0  0  0  0  0  0
   38.8640   25.1000   41.7010 C   0  0  0  0  0  2  0  0  0  0  0  0
   39.5800   24.4210   42.8510 C   0  0  0  0  0  2  0  0  0  0  0  0
   40.0460   25.5790   43.6800 C   0  0  0  0  0  2  0  0  0  0  0  0
   39.2820   26.8100   43.2150 C   0  0  0  0  0  2  0  0  0  0  0  0
  1  6  1  0  0  0  0
  1  7  1  0  0  0  0
  2  9  1  0  0  0  0
  2  1  1  0  0  0  0
  3  4  1  0  0  0  0
  3  2  1  0  0  0  0
  4 12  1  0  0  0  0
  4  5  1  0  0  0  0
  5 15  1  0  0  0  0
  5  6  1  0  0  0  0
  5 14  1  0  0  0  0
  6 16  1  0  0  0  0
  8  2  1  0  0  0  0
 10  3  1  0  0  0  0
 11  3  1  0  0  0  0
 13  4  1  0  0  0  0
 17  6  1  0  0  0  0
 18  1  1  0  0  0  0
 18 23  1  0  0  0  0
 19 18  2  0  0  0  0
 20 19  1  0  0  0  0
 20 21  2  0  0  0  0
 21 22  1  0  0  0  0
 22 23  2  0  0  0  0
 22 26  1  0  0  0  0
 24 19  1  0  0  0  0
 25 20  1  0  0  0  0
 26 30  1  0  0  0  0
 27 26  1  0  0  0  0
 27 28  1  0  0  0  0
 28 29  1  0  0  0  0
 30 29  1  0  0  0  0
M  END
>  <minimizedAffinity>
-4.76828671

$$$$

 OpenBabel03242519233D

 30 32  0  0  0  0  0  0  0  0999 V2000
   37.4950   29.4130   37.0590 C   0  0  0  0  0  0  0  0  0  0  0  0
   36.5000   29.7990   36.0400 C   0  0  0  0  0  0  0  0  0  0  0  0
   35.5240   28.7120   35.7090 C   0  0  0  0  0  0  0  0  0  0  0  0
   36.2150   27.4320   35.2780 C   0  0  0  0  0  0  0  0  0  0  0  0
   37.4190   27.0850   36.1050 C   0  0  0  0  0  0  0  0  0  0  0  0
   37.5080   27.9190   37.3600 C   0  0  0  0  0  0  0  0  0  0  0  0
   38.5600   29.6400   36.7520 H   0  0  0  0  0  0  0  0  0  0  0  0
   35.9570   30.7280   36.2320 H   0  0  0  0  0  0  0  0  0  0  0  0
   37.0700   29.9920   35.0850 H   0  0  0  0  0  0  0  0  0  0  0  0
   34.9760   29.0610   34.7840 H   0  0  0  0  0  0  0  0  0  0  0  0
   34.7560   28.4970   36.4410 H   0  0  0  0  0  0  0  0  0  0  0  0
   36.4880   27.4380   34.2040 H   0  0  0  0  0  0  0  0  0  0  0  0
   35.4900   26.6050   35.4040 H   0  0  0  0  0  0  0  0  0  0  0  0
   38.3610   27.2760   35.5360 H   0  0  0  0  0  0  0  0  0  0  0  0
   37.4270   26.0360   36.4160 H   0  0  0  0  0  0  0  0  0  0  0  0
   38.4280   27.6520   37.8850 H   0  0  0  0  0  0  0  0  0  0  0  0
   36.6540   27.6600   38.0040 H   0  0  0  0  0  0  0  0  0  0  0  0
   37.3060   30.1180   38.3420 C   0  0  0  0  0  0  0  0  0  0  0  0
   37.2650   31.5370   38.2700 C   0  0  0  0  0  0  0  0  0  0  0  0
   37.0780   32.2620   39.4460 C   0  0  0  0  0  0  0  0  0  0  0  0
   36.9470   31.5390   40.6140 N   0  0  0  0  0  0  0  0  0  0  0  0
   36.9920   30.1910   40.6460 C   0  0  0  0  0  0  0  0  0  0  0  0
   37.1700   29.4960   39.5210 N   0  0  0  0  0  0  0  0  0  0  0  0
   37.3580   32.1560   37.4170 H   0  0  0  0  0  0  0  0  0  0  0  0
   37.0340   33.3400   39.4810 H   0  0  0  0  0  0  0  0  0  0  0  0
   36.8440   29.4630   41.9330 C   0  0  0  0  0  3  0  0  0  0  0  0
   36.5860   27.9740   41.6860 C   0  0  0  0  0  2  0  0  0  0  0  0
   36.7040   27.4330   43.0960 C   0  0  0  0  0  2  0  0  0  0  0  0
   37.8750   28.1910   43.6440 C   0  0  0  0  0  2  0  0  0  0  0  0
   38.1330   29.3670   42.7150 C   0  0  0  0  0  2  0  0  0  0  0  0
  1  6  1  0  0  0  0
  1 18  1  0  0  0  0
  2  8  1  0  0  0  0
  2  1  1  0  0  0  0
  3  2  1  0  0  0  0
  3 11  1  0  0  0  0
  4 13  1  0  0  0  0
  4  3  1  0  0  0  0
  4  5  1  0  0  0  0
  5 15  1  0  0  0  0
  5  6  1  0  0  0  0
  6 16  1  0  0  0  0
  6 17  1  0  0  0  0
  7  1  1  0  0  0  0
  9  2  1  0  0  0  0
 10  3  1  0  0  0  0
 12  4  1  0  0  0  0
 14  5  1  0  0  0  0
 18 23  1  0  0  0  0
 19 18  2  0  0  0  0
 19 20  1  0  0  0  0
 20 25  1  0  0  0  0
 20 21  2  0  0  0  0
 21 22  1  0  0  0  0
 22 26  1  0  0  0  0
 23 22  2  0  0  0  0
 24 19  1  0  0  0  0
 26 30  1  0  0  0  0
 27 26  1  0  0  0  0
 27 28  1  0  0  0  0
 28 29  1  0  0  0  0
 30 29  1  0  0  0  0
M  END
>  <minimizedAffinity>
-4.68416309

$$$$

 OpenBabel03242519233D

 30 32  0  0  0  0  0  0  0  0999 V2000
   38.3070   30.7540   40.0900 C   0  0  0  0  0  0  0  0  0  0  0  0
   39.3550   31.6260   40.6550 C   0  0  0  0  0  0  0  0  0  0  0  0
   38.8590   32.9820   41.0540 C   0  0  0  0  0  0  0  0  0  0  0  0
   38.1690   33.7000   39.9110 C   0  0  0  0  0  0  0  0  0  0  0  0
   37.2650   32.8190   39.0990 C   0  0  0  0  0  0  0  0  0  0  0  0
   37.0120   31.4910   39.7690 C   0  0  0  0  0  0  0  0  0  0  0  0
   38.6030   30.2780   39.1070 H   0  0  0  0  0  0  0  0  0  0  0  0
   39.9410   31.1990   41.4720 H   0  0  0  0  0  0  0  0  0  0  0  0
   40.1040   31.8100   39.8310 H   0  0  0  0  0  0  0  0  0  0  0  0
   39.7840   33.6000   41.2590 H   0  0  0  0  0  0  0  0  0  0  0  0
   38.2610   33.0440   41.9540 H   0  0  0  0  0  0  0  0  0  0  0  0
   38.8850   34.2200   39.2420 H   0  0  0  0  0  0  0  0  0  0  0  0
   37.5340   34.4930   40.3520 H   0  0  0  0  0  0  0  0  0  0  0  0
   37.7230   32.5870   38.1060 H   0  0  0  0  0  0  0  0  0  0  0  0
   36.2880   33.2770   38.9140 H   0  0  0  0  0  0  0  0  0  0  0  0
   36.3930   30.8840   39.1040 H   0  0  0  0  0  0  0  0  0  0  0  0
   36.4470   31.6760   40.6940 H   0  0  0  0  0  0  0  0  0  0  0  0
   37.9620   29.6240   40.9750 C   0  0  0  0  0  0  0  0  0  0  0  0
   36.5890   29.2550   41.0050 C   0  0  0  0  0  0  0  0  0  0  0  0
   36.1990   28.1890   41.8130 C   0  0  0  0  0  0  0  0  0  0  0  0
   37.1890   27.5590   42.5400 N   0  0  0  0  0  0  0  0  0  0  0  0
   38.4840   27.9360   42.4880 C   0  0  0  0  0  0  0  0  0  0  0  0
   38.8580   28.9570   41.7140 N   0  0  0  0  0  0  0  0  0  0  0  0
   35.7790   29.6890   40.4790 H   0  0  0  0  0  0  0  0  0  0  0  0
   35.1800   27.8430   41.8940 H   0  0  0  0  0  0  0  0  0  0  0  0
   39.5090   27.2220   43.2920 C   0  0  0  0  0  3  0  0  0  0  0  0
   39.8920   25.8970   42.6260 C   0  0  0  0  0  2  0  0  0  0  0  0
   41.0750   25.4880   43.4810 C   0  0  0  0  0  2  0  0  0  0  0  0
   41.8040   26.7830   43.6780 C   0  0  0  0  0  2  0  0  0  0  0  0
   40.8550   27.9050   43.2850 C   0  0  0  0  0  2  0  0  0  0  0  0
  1  2  1  0  0  0  0
  1 18  1  0  0  0  0
  2  3  1  0  0  0  0
  2  8  1  0  0  0  0
  3 10  1  0  0  0  0
  3 11  1  0  0  0  0
  4 13  1  0  0  0  0
  4  3  1  0  0  0  0
  5  6  1  0  0  0  0
  5  4  1  0  0  0  0
  6  1  1  0  0  0  0
  6 17  1  0  0  0  0
  7  1  1  0  0  0  0
  9  2  1  0  0  0  0
 12  4  1  0  0  0  0
 14  5  1  0  0  0  0
 15  5  1  0  0  0  0
 16  6  1  0  0  0  0
 18 19  2  0  0  0  0
 18 23  1  0  0  0  0
 19 20  1  0  0  0  0
 20 25  1  0  0  0  0
 20 21  2  0  0  0  0
 22 21  1  0  0  0  0
 22 26  1  0  0  0  0
 23 22  2  0  0  0  0
 24 19  1  0  0  0  0
 27 26  1  0  0  0  0
 27 28  1  0  0  0  0
 28 29  1  0  0  0  0
 30 26  1  0  0  0  0
 30 29  1  0  0  0  0
M  END
>  <minimizedAffinity>
-4.65937281

$$$$
