
 OpenBabel03252507583D

 23 25  0  0  1  0  0  0  0  0999 V2000
   47.0650   32.3400   45.5060 C   0  0  1  0  0  0  0  0  0  0  0  0
   46.9810   32.6370   46.9710 C   0  0  0  0  0  0  0  0  0  0  0  0
   45.9040   31.8480   46.3110 C   0  0  2  0  0  0  0  0  0  0  0  0
   47.8600   31.6450   45.1760 H   0  0  0  0  0  0  0  0  0  0  0  0
   47.7260   32.1140   47.6010 H   0  0  0  0  0  0  0  0  0  0  0  0
   46.8800   33.7020   47.2070 H   0  0  0  0  0  0  0  0  0  0  0  0
   44.9210   32.3860   46.2280 H   0  0  0  0  0  0  0  0  0  0  0  0
   47.2320   34.6700   42.6740 C   0  0  0  0  0  0  0  0  0  0  0  0
   45.9980   35.3560   42.7510 C   0  0  0  0  0  0  0  0  0  0  0  0
   45.1000   35.0040   43.7900 C   0  0  0  0  0  0  0  0  0  0  0  0
   45.4930   34.0230   44.6470 N   0  0  0  0  0  0  0  0  0  0  0  0
   46.6990   33.4020   44.5110 C   0  0  0  0  0  0  0  0  0  0  0  0
   47.5540   33.7140   43.5480 N   0  0  0  0  0  0  0  0  0  0  0  0
   45.6900   36.1370   42.0680 H   0  0  0  0  0  0  0  0  0  0  0  0
   44.1430   35.4940   43.9000 H   0  0  0  0  0  0  0  0  0  0  0  0
   48.0530   35.1100   41.6000 C   0  0  0  0  0  0  0  0  0  0  0  0
   48.9850   35.9670   41.6950 O   0  0  0  0  0  0  0  0  0  0  0  0
   48.0340   34.8050   40.5430 H   0  0  0  0  0  0  0  0  0  0  0  0
   45.7840   30.4310   46.7400 C   0  0  0  0  0  3  0  0  0  0  0  0
   45.0680   29.5540   45.7430 C   0  0  0  0  0  2  0  0  0  0  0  0
   44.8680   28.2760   46.5620 C   0  0  0  0  0  2  0  0  0  0  0  0
   45.0750   28.6430   48.0090 C   0  0  0  0  0  2  0  0  0  0  0  0
   45.0120   30.1770   47.9910 C   0  0  0  0  0  2  0  0  0  0  0  0
  1  4  1  6  0  0  0
  1  3  1  0  0  0  0
  1  2  1  0  0  0  0
  2  6  1  0  0  0  0
  2  5  1  0  0  0  0
  3  7  1  6  0  0  0
  3 19  1  0  0  0  0
  3  2  1  0  0  0  0
  8  9  2  0  0  0  0
  8 13  1  0  0  0  0
  9 10  1  0  0  0  0
 10 15  1  0  0  0  0
 10 11  2  0  0  0  0
 12 11  1  0  0  0  0
 12  1  1  0  0  0  0
 13 12  2  0  0  0  0
 14  9  1  0  0  0  0
 16 17  2  0  0  0  0
 16  8  1  0  0  0  0
 18 16  1  0  0  0  0
 19 23  1  0  0  0  0
 20 21  1  0  0  0  0
 20 19  1  0  0  0  0
 21 22  1  0  0  0  0
 23 22  1  0  0  0  0
M  END
>  <minimizedAffinity>
-4.49418688

>  <minimizedRMSD>
1.99299252

$$$$
