
 OpenBabel03252505353D

 26 28  0  0  0  0  0  0  0  0999 V2000
   37.6880   29.2170   41.4870 C   0  0  0  0  0  0  0  0  0  0  0  0
   36.5950   28.4850   41.8600 C   0  0  0  0  0  0  0  0  0  0  0  0
   36.5610   27.6010   42.9280 C   0  0  0  0  0  0  0  0  0  0  0  0
   37.7230   27.4450   43.6790 C   0  0  0  0  0  0  0  0  0  0  0  0
   38.8270   28.1820   43.3040 C   0  0  0  0  0  0  0  0  0  0  0  0
   38.8290   29.0570   42.2320 C   0  0  0  0  0  0  0  0  0  0  0  0
   35.6510   28.5600   41.3150 H   0  0  0  0  0  0  0  0  0  0  0  0
   35.6670   27.0450   43.1800 H   0  0  0  0  0  0  0  0  0  0  0  0
   37.6910   26.7570   44.5070 H   0  0  0  0  0  0  0  0  0  0  0  0
   39.7090   28.0270   43.9190 H   0  0  0  0  0  0  0  0  0  0  0  0
   37.5880   30.6290   38.0080 C   0  0  0  0  0  0  0  0  0  0  0  0
   37.7160   29.6550   39.0290 C   0  0  0  0  0  0  0  0  0  0  0  0
   37.5800   30.1030   40.3500 C   0  0  0  0  0  0  0  0  0  0  0  0
   37.3370   31.4200   40.6090 N   0  0  0  0  0  0  0  0  0  0  0  0
   37.2270   32.2980   39.5690 C   0  0  0  0  0  0  0  0  0  0  0  0
   37.3510   31.9060   38.2840 N   0  0  0  0  0  0  0  0  0  0  0  0
   36.9850   33.6720   39.8230 N   0  0  0  0  0  0  0  0  0  0  0  0
   37.7070   30.1930   37.0270 H   0  0  0  0  0  0  0  0  0  0  0  0
   37.9080   28.6100   38.8750 H   0  0  0  0  0  0  0  0  0  0  0  0
   37.8570   34.2020   40.0460 H   0  0  0  0  0  0  0  0  0  0  0  0
   35.9440   33.7790   39.7100 H   0  0  0  0  0  0  0  0  0  0  0  0
   40.0470   29.8270   41.8720 C   0  0  0  0  0  3  0  0  0  0  0  0
   40.2430   31.0010   42.8380 C   0  0  0  0  0  2  0  0  0  0  0  0
   41.7530   31.1710   42.7330 C   0  0  0  0  0  2  0  0  0  0  0  0
   42.1800   29.7180   42.9630 C   0  0  0  0  0  2  0  0  0  0  0  0
   41.3100   29.0350   41.9220 C   0  0  0  0  0  2  0  0  0  0  0  0
  1  2  2  0  0  0  0
  1  6  1  0  0  0  0
  2  3  1  0  0  0  0
  3  8  1  0  0  0  0
  3  4  2  0  0  0  0
  4  9  1  0  0  0  0
  5  4  1  0  0  0  0
  5 10  1  0  0  0  0
  6  5  2  0  0  0  0
  7  2  1  0  0  0  0
 11 16  2  0  0  0  0
 11 12  1  0  0  0  0
 12 13  2  0  0  0  0
 13 14  1  0  0  0  0
 13  1  1  0  0  0  0
 15 17  1  0  0  0  0
 15 14  2  0  0  0  0
 16 15  1  0  0  0  0
 17 20  1  0  0  0  0
 18 11  1  0  0  0  0
 19 12  1  0  0  0  0
 21 17  1  0  0  0  0
 22 26  1  0  0  0  0
 22  6  1  0  0  0  0
 22 23  1  0  0  0  0
 24 23  1  0  0  0  0
 24 25  1  0  0  0  0
 26 25  1  0  0  0  0
M  END
>  <minimizedAffinity>
-5.52460718

$$$$

 OpenBabel03252505353D

 26 28  0  0  0  0  0  0  0  0999 V2000
   37.7710   29.5420   41.5880 C   0  0  0  0  0  0  0  0  0  0  0  0
   38.0890   29.3300   42.9010 C   0  0  0  0  0  0  0  0  0  0  0  0
   37.5900   28.2960   43.6800 C   0  0  0  0  0  0  0  0  0  0  0  0
   36.7010   27.4050   43.0840 C   0  0  0  0  0  0  0  0  0  0  0  0
   36.3790   27.6160   41.7600 C   0  0  0  0  0  0  0  0  0  0  0  0
   36.8940   28.6590   41.0090 C   0  0  0  0  0  0  0  0  0  0  0  0
   38.7800   29.9900   43.4290 H   0  0  0  0  0  0  0  0  0  0  0  0
   37.8760   28.1740   44.7160 H   0  0  0  0  0  0  0  0  0  0  0  0
   36.3180   26.6040   43.6940 H   0  0  0  0  0  0  0  0  0  0  0  0
   35.6820   26.8970   41.3390 H   0  0  0  0  0  0  0  0  0  0  0  0
   40.1380   31.8000   39.7440 C   0  0  0  0  0  0  0  0  0  0  0  0
   39.6770   30.6330   40.4020 C   0  0  0  0  0  0  0  0  0  0  0  0
   38.3670   30.6620   40.8970 C   0  0  0  0  0  0  0  0  0  0  0  0
   37.5950   31.7760   40.7370 N   0  0  0  0  0  0  0  0  0  0  0  0
   38.1120   32.8620   40.0910 C   0  0  0  0  0  0  0  0  0  0  0  0
   39.3690   32.8730   39.6000 N   0  0  0  0  0  0  0  0  0  0  0  0
   37.3260   34.0310   39.9270 N   0  0  0  0  0  0  0  0  0  0  0  0
   41.1540   31.6850   39.3970 H   0  0  0  0  0  0  0  0  0  0  0  0
   40.2460   29.7350   40.5510 H   0  0  0  0  0  0  0  0  0  0  0  0
   37.3410   34.6500   40.7670 H   0  0  0  0  0  0  0  0  0  0  0  0
   36.9270   33.9440   38.9560 H   0  0  0  0  0  0  0  0  0  0  0  0
   36.5120   28.8400   39.5850 C   0  0  0  0  0  3  0  0  0  0  0  0
   36.3870   27.4810   38.8870 C   0  0  0  0  0  2  0  0  0  0  0  0
   35.3970   27.8470   37.7880 C   0  0  0  0  0  2  0  0  0  0  0  0
   34.3290   28.5370   38.6410 C   0  0  0  0  0  2  0  0  0  0  0  0
   35.2060   29.5310   39.3830 C   0  0  0  0  0  2  0  0  0  0  0  0
  1  2  1  0  0  0  0
  2  7  1  0  0  0  0
  2  3  2  0  0  0  0
  3  8  1  0  0  0  0
  4  3  1  0  0  0  0
  4  9  1  0  0  0  0
  5  4  2  0  0  0  0
  6  1  2  0  0  0  0
  6  5  1  0  0  0  0
 10  5  1  0  0  0  0
 11 12  1  0  0  0  0
 12 19  1  0  0  0  0
 12 13  2  0  0  0  0
 13  1  1  0  0  0  0
 14 13  1  0  0  0  0
 15 14  2  0  0  0  0
 16 11  2  0  0  0  0
 16 15  1  0  0  0  0
 17 15  1  0  0  0  0
 17 20  1  0  0  0  0
 18 11  1  0  0  0  0
 21 17  1  0  0  0  0
 22  6  1  0  0  0  0
 23 22  1  0  0  0  0
 24 25  1  0  0  0  0
 24 23  1  0  0  0  0
 25 26  1  0  0  0  0
 26 22  1  0  0  0  0
M  END
>  <minimizedAffinity>
-5.43262482

$$$$

 OpenBabel03252505353D

 26 28  0  0  0  0  0  0  0  0999 V2000
   37.3310   30.0210   39.4220 C   0  0  0  0  0  0  0  0  0  0  0  0
   36.6160   30.3230   38.2970 C   0  0  0  0  0  0  0  0  0  0  0  0
   35.5500   29.5790   37.8130 C   0  0  0  0  0  0  0  0  0  0  0  0
   35.1770   28.4400   38.5220 C   0  0  0  0  0  0  0  0  0  0  0  0
   35.8970   28.1330   39.6580 C   0  0  0  0  0  0  0  0  0  0  0  0
   36.9570   28.8970   40.1150 C   0  0  0  0  0  0  0  0  0  0  0  0
   36.8540   31.2010   37.6940 H   0  0  0  0  0  0  0  0  0  0  0  0
   35.0170   29.8630   36.9150 H   0  0  0  0  0  0  0  0  0  0  0  0
   34.3490   27.8660   38.1410 H   0  0  0  0  0  0  0  0  0  0  0  0
   35.5700   27.2370   40.1770 H   0  0  0  0  0  0  0  0  0  0  0  0
   40.7310   31.5030   40.0100 C   0  0  0  0  0  0  0  0  0  0  0  0
   39.7630   30.5640   39.5780 C   0  0  0  0  0  0  0  0  0  0  0  0
   38.4200   30.8880   39.8110 C   0  0  0  0  0  0  0  0  0  0  0  0
   38.0920   32.0590   40.4290 N   0  0  0  0  0  0  0  0  0  0  0  0
   39.0840   32.9130   40.8160 C   0  0  0  0  0  0  0  0  0  0  0  0
   40.3880   32.6370   40.6090 N   0  0  0  0  0  0  0  0  0  0  0  0
   38.7590   34.1290   41.4690 N   0  0  0  0  0  0  0  0  0  0  0  0
   41.7350   31.1690   39.7880 H   0  0  0  0  0  0  0  0  0  0  0  0
   39.9720   29.6310   39.0890 H   0  0  0  0  0  0  0  0  0  0  0  0
   38.6010   34.0090   42.4950 H   0  0  0  0  0  0  0  0  0  0  0  0
   38.7690   34.8490   40.7010 H   0  0  0  0  0  0  0  0  0  0  0  0
   37.6990   28.5200   41.3460 C   0  0  0  0  0  3  0  0  0  0  0  0
   37.1340   29.2640   42.5610 C   0  0  0  0  0  2  0  0  0  0  0  0
   37.5150   28.2850   43.6630 C   0  0  0  0  0  2  0  0  0  0  0  0
   36.9660   26.9960   43.0460 C   0  0  0  0  0  2  0  0  0  0  0  0
   37.6320   27.0680   41.6820 C   0  0  0  0  0  2  0  0  0  0  0  0
  1 13  1  0  0  0  0
  1  6  1  0  0  0  0
  2  1  2  0  0  0  0
  3  2  1  0  0  0  0
  3  4  2  0  0  0  0
  4  5  1  0  0  0  0
  5  6  2  0  0  0  0
  5 10  1  0  0  0  0
  6 22  1  0  0  0  0
  7  2  1  0  0  0  0
  8  3  1  0  0  0  0
  9  4  1  0  0  0  0
 11 16  1  0  0  0  0
 12 13  1  0  0  0  0
 12 11  2  0  0  0  0
 13 14  2  0  0  0  0
 14 15  1  0  0  0  0
 15 17  1  0  0  0  0
 16 15  2  0  0  0  0
 17 20  1  0  0  0  0
 18 11  1  0  0  0  0
 19 12  1  0  0  0  0
 21 17  1  0  0  0  0
 22 26  1  0  0  0  0
 22 23  1  0  0  0  0
 23 24  1  0  0  0  0
 25 24  1  0  0  0  0
 26 25  1  0  0  0  0
M  END
>  <minimizedAffinity>
-5.4271245

$$$$

 OpenBabel03252505353D

 26 28  0  0  0  0  0  0  0  0999 V2000
   39.6900   28.3920   42.0410 C   0  0  0  0  0  0  0  0  0  0  0  0
   40.8310   28.7960   42.6760 C   0  0  0  0  0  0  0  0  0  0  0  0
   41.6110   27.9900   43.4930 C   0  0  0  0  0  0  0  0  0  0  0  0
   41.2060   26.6710   43.6800 C   0  0  0  0  0  0  0  0  0  0  0  0
   40.0560   26.2610   43.0390 C   0  0  0  0  0  0  0  0  0  0  0  0
   39.2990   27.0900   42.2310 C   0  0  0  0  0  0  0  0  0  0  0  0
   41.2050   29.8170   42.5720 H   0  0  0  0  0  0  0  0  0  0  0  0
   42.5060   28.3610   43.9730 H   0  0  0  0  0  0  0  0  0  0  0  0
   41.8160   26.0490   44.3140 H   0  0  0  0  0  0  0  0  0  0  0  0
   39.7800   25.2250   43.2150 H   0  0  0  0  0  0  0  0  0  0  0  0
   38.7020   30.7880   39.3230 C   0  0  0  0  0  0  0  0  0  0  0  0
   39.5090   29.8670   40.0350 C   0  0  0  0  0  0  0  0  0  0  0  0
   38.9750   29.3410   41.2180 C   0  0  0  0  0  0  0  0  0  0  0  0
   37.7330   29.7180   41.6400 N   0  0  0  0  0  0  0  0  0  0  0  0
   37.0170   30.6120   40.8980 C   0  0  0  0  0  0  0  0  0  0  0  0
   37.4960   31.1410   39.7530 N   0  0  0  0  0  0  0  0  0  0  0  0
   35.7300   31.0220   41.3300 N   0  0  0  0  0  0  0  0  0  0  0  0
   39.1940   31.1380   38.4270 H   0  0  0  0  0  0  0  0  0  0  0  0
   40.4900   29.5410   39.7430 H   0  0  0  0  0  0  0  0  0  0  0  0
   35.7650   31.7910   42.0370 H   0  0  0  0  0  0  0  0  0  0  0  0
   35.0650   30.4080   40.7910 H   0  0  0  0  0  0  0  0  0  0  0  0
   38.0670   26.5960   41.5640 C   0  0  0  0  0  3  0  0  0  0  0  0
   38.4100   25.5010   40.5480 C   0  0  0  0  0  2  0  0  0  0  0  0
   37.0920   24.7370   40.5370 C   0  0  0  0  0  2  0  0  0  0  0  0
   36.9020   24.5560   42.0450 C   0  0  0  0  0  2  0  0  0  0  0  0
   37.0640   25.9980   42.4930 C   0  0  0  0  0  2  0  0  0  0  0  0
  1  6  2  0  0  0  0
  1  2  1  0  0  0  0
  2  3  2  0  0  0  0
  3  4  1  0  0  0  0
  3  8  1  0  0  0  0
  4  9  1  0  0  0  0
  5 10  1  0  0  0  0
  5  4  2  0  0  0  0
  6  5  1  0  0  0  0
  7  2  1  0  0  0  0
 11 16  2  0  0  0  0
 11 12  1  0  0  0  0
 12 13  2  0  0  0  0
 13 14  1  0  0  0  0
 13  1  1  0  0  0  0
 15 17  1  0  0  0  0
 15 14  2  0  0  0  0
 16 15  1  0  0  0  0
 17 20  1  0  0  0  0
 18 11  1  0  0  0  0
 19 12  1  0  0  0  0
 21 17  1  0  0  0  0
 22  6  1  0  0  0  0
 22 26  1  0  0  0  0
 23 22  1  0  0  0  0
 24 23  1  0  0  0  0
 24 25  1  0  0  0  0
 25 26  1  0  0  0  0
M  END
>  <minimizedAffinity>
-5.34753895

$$$$

 OpenBabel03252505353D

 26 28  0  0  0  0  0  0  0  0999 V2000
   36.5890   26.2570   39.5360 C   0  0  0  0  0  0  0  0  0  0  0  0
   36.1630   25.1190   38.9110 C   0  0  0  0  0  0  0  0  0  0  0  0
   36.1140   23.8630   39.4990 C   0  0  0  0  0  0  0  0  0  0  0  0
   36.5270   23.7510   40.8240 C   0  0  0  0  0  0  0  0  0  0  0  0
   36.9570   24.8990   41.4570 C   0  0  0  0  0  0  0  0  0  0  0  0
   36.9950   26.1370   40.8410 C   0  0  0  0  0  0  0  0  0  0  0  0
   35.8250   25.1360   37.8730 H   0  0  0  0  0  0  0  0  0  0  0  0
   35.7680   22.9930   38.9580 H   0  0  0  0  0  0  0  0  0  0  0  0
   36.4860   22.7740   41.2760 H   0  0  0  0  0  0  0  0  0  0  0  0
   37.2690   24.7610   42.4880 H   0  0  0  0  0  0  0  0  0  0  0  0
   35.5970   29.5260   37.9750 C   0  0  0  0  0  0  0  0  0  0  0  0
   35.4640   28.3360   38.7300 C   0  0  0  0  0  0  0  0  0  0  0  0
   36.5870   27.5010   38.7990 C   0  0  0  0  0  0  0  0  0  0  0  0
   37.7410   27.8460   38.1570 N   0  0  0  0  0  0  0  0  0  0  0  0
   37.7910   29.0110   37.4480 C   0  0  0  0  0  0  0  0  0  0  0  0
   36.7310   29.8410   37.3580 N   0  0  0  0  0  0  0  0  0  0  0  0
   38.9790   29.3760   36.7660 N   0  0  0  0  0  0  0  0  0  0  0  0
   34.6850   30.1040   37.9790 H   0  0  0  0  0  0  0  0  0  0  0  0
   34.5790   28.0230   39.2520 H   0  0  0  0  0  0  0  0  0  0  0  0
   39.0660   28.9210   35.8300 H   0  0  0  0  0  0  0  0  0  0  0  0
   39.4660   30.0380   37.4260 H   0  0  0  0  0  0  0  0  0  0  0  0
   37.4670   27.3420   41.5700 C   0  0  0  0  0  3  0  0  0  0  0  0
   36.5930   27.6000   42.8030 C   0  0  0  0  0  2  0  0  0  0  0  0
   37.5930   28.3460   43.6770 C   0  0  0  0  0  2  0  0  0  0  0  0
   38.7730   27.3740   43.5820 C   0  0  0  0  0  2  0  0  0  0  0  0
   38.8690   27.2450   42.0710 C   0  0  0  0  0  2  0  0  0  0  0  0
  1  6  1  0  0  0  0
  2  3  1  0  0  0  0
  2  1  2  0  0  0  0
  3  4  2  0  0  0  0
  4  9  1  0  0  0  0
  4  5  1  0  0  0  0
  5 10  1  0  0  0  0
  6  5  2  0  0  0  0
  6 22  1  0  0  0  0
  7  2  1  0  0  0  0
  8  3  1  0  0  0  0
 11 18  1  0  0  0  0
 11 12  1  0  0  0  0
 12 13  2  0  0  0  0
 12 19  1  0  0  0  0
 13  1  1  0  0  0  0
 14 13  1  0  0  0  0
 15 14  2  0  0  0  0
 16 15  1  0  0  0  0
 16 11  2  0  0  0  0
 17 21  1  0  0  0  0
 17 15  1  0  0  0  0
 20 17  1  0  0  0  0
 22 26  1  0  0  0  0
 22 23  1  0  0  0  0
 23 24  1  0  0  0  0
 25 24  1  0  0  0  0
 26 25  1  0  0  0  0
M  END
>  <minimizedAffinity>
-5.23402786

$$$$

 OpenBabel03252505353D

 26 28  0  0  0  0  0  0  0  0999 V2000
   37.7040   29.9850   41.4400 C   0  0  0  0  0  0  0  0  0  0  0  0
   38.2310   29.5890   42.6370 C   0  0  0  0  0  0  0  0  0  0  0  0
   37.7960   28.4950   43.3710 C   0  0  0  0  0  0  0  0  0  0  0  0
   36.7470   27.7410   42.8530 C   0  0  0  0  0  0  0  0  0  0  0  0
   36.2130   28.1390   41.6450 C   0  0  0  0  0  0  0  0  0  0  0  0
   36.6700   29.2360   40.9370 C   0  0  0  0  0  0  0  0  0  0  0  0
   39.0560   30.1340   43.1000 H   0  0  0  0  0  0  0  0  0  0  0  0
   38.2500   28.2250   44.3150 H   0  0  0  0  0  0  0  0  0  0  0  0
   36.4130   26.8930   43.4270 H   0  0  0  0  0  0  0  0  0  0  0  0
   35.3970   27.5210   41.2810 H   0  0  0  0  0  0  0  0  0  0  0  0
   38.1970   33.4020   39.9610 C   0  0  0  0  0  0  0  0  0  0  0  0
   37.5360   32.3380   40.6230 C   0  0  0  0  0  0  0  0  0  0  0  0
   38.2570   31.1470   40.7830 C   0  0  0  0  0  0  0  0  0  0  0  0
   39.5330   31.0470   40.3110 N   0  0  0  0  0  0  0  0  0  0  0  0
   40.1020   32.1170   39.6840 C   0  0  0  0  0  0  0  0  0  0  0  0
   39.4410   33.2810   39.5100 N   0  0  0  0  0  0  0  0  0  0  0  0
   41.4230   32.0240   39.1780 N   0  0  0  0  0  0  0  0  0  0  0  0
   37.5660   34.2750   39.8850 H   0  0  0  0  0  0  0  0  0  0  0  0
   36.5340   32.3700   41.0100 H   0  0  0  0  0  0  0  0  0  0  0  0
   41.4670   31.5770   38.2360 H   0  0  0  0  0  0  0  0  0  0  0  0
   42.0220   32.4540   39.9310 H   0  0  0  0  0  0  0  0  0  0  0  0
   36.0580   29.6200   39.6380 C   0  0  0  0  0  3  0  0  0  0  0  0
   36.7690   28.9120   38.4800 C   0  0  0  0  0  2  0  0  0  0  0  0
   35.6400   28.8890   37.4590 C   0  0  0  0  0  2  0  0  0  0  0  0
   34.5270   28.3100   38.3370 C   0  0  0  0  0  2  0  0  0  0  0  0
   34.6130   29.2680   39.5130 C   0  0  0  0  0  2  0  0  0  0  0  0
  1  2  1  0  0  0  0
  2  7  1  0  0  0  0
  2  3  2  0  0  0  0
  3  8  1  0  0  0  0
  4  3  1  0  0  0  0
  4  9  1  0  0  0  0
  5  4  2  0  0  0  0
  6  1  2  0  0  0  0
  6  5  1  0  0  0  0
 10  5  1  0  0  0  0
 11 12  1  0  0  0  0
 12 13  2  0  0  0  0
 12 19  1  0  0  0  0
 13  1  1  0  0  0  0
 14 13  1  0  0  0  0
 15 14  2  0  0  0  0
 16 15  1  0  0  0  0
 16 11  2  0  0  0  0
 17 15  1  0  0  0  0
 17 21  1  0  0  0  0
 18 11  1  0  0  0  0
 20 17  1  0  0  0  0
 22  6  1  0  0  0  0
 23 22  1  0  0  0  0
 24 25  1  0  0  0  0
 24 23  1  0  0  0  0
 25 26  1  0  0  0  0
 26 22  1  0  0  0  0
M  END
>  <minimizedAffinity>
-5.13149738

$$$$

 OpenBabel03252505353D

 26 28  0  0  0  0  0  0  0  0999 V2000
   36.9380   30.7000   38.8300 C   0  0  0  0  0  0  0  0  0  0  0  0
   37.1370   32.0360   38.6160 C   0  0  0  0  0  0  0  0  0  0  0  0
   37.7170   32.9070   39.5270 C   0  0  0  0  0  0  0  0  0  0  0  0
   38.1280   32.3860   40.7510 C   0  0  0  0  0  0  0  0  0  0  0  0
   37.9290   31.0390   40.9700 C   0  0  0  0  0  0  0  0  0  0  0  0
   37.3470   30.1960   40.0390 C   0  0  0  0  0  0  0  0  0  0  0  0
   36.8380   32.5090   37.6780 H   0  0  0  0  0  0  0  0  0  0  0  0
   37.8510   33.9570   39.3060 H   0  0  0  0  0  0  0  0  0  0  0  0
   38.5780   33.0670   41.4550 H   0  0  0  0  0  0  0  0  0  0  0  0
   38.2650   30.6790   41.9380 H   0  0  0  0  0  0  0  0  0  0  0  0
   34.5570   28.5970   36.8280 C   0  0  0  0  0  0  0  0  0  0  0  0
   35.0440   29.3500   37.9240 C   0  0  0  0  0  0  0  0  0  0  0  0
   36.3210   29.9100   37.7900 C   0  0  0  0  0  0  0  0  0  0  0  0
   37.0380   29.7200   36.6450 N   0  0  0  0  0  0  0  0  0  0  0  0
   36.5000   28.9810   35.6310 C   0  0  0  0  0  0  0  0  0  0  0  0
   35.2740   28.4260   35.7220 N   0  0  0  0  0  0  0  0  0  0  0  0
   37.2380   28.7660   34.4400 N   0  0  0  0  0  0  0  0  0  0  0  0
   33.5690   28.2070   37.0210 H   0  0  0  0  0  0  0  0  0  0  0  0
   34.5170   29.5260   38.8440 H   0  0  0  0  0  0  0  0  0  0  0  0
   37.9160   27.9760   34.5200 H   0  0  0  0  0  0  0  0  0  0  0  0
   36.8790   29.4990   33.7740 H   0  0  0  0  0  0  0  0  0  0  0  0
   37.1560   28.7510   40.3270 C   0  0  0  0  0  3  0  0  0  0  0  0
   38.4290   28.1530   40.9360 C   0  0  0  0  0  2  0  0  0  0  0  0
   37.8210   27.0000   41.7250 C   0  0  0  0  0  2  0  0  0  0  0  0
   36.7250   27.7660   42.4710 C   0  0  0  0  0  2  0  0  0  0  0  0
   36.0580   28.4580   41.2940 C   0  0  0  0  0  2  0  0  0  0  0  0
  1  6  1  0  0  0  0
  2  1  2  0  0  0  0
  2  3  1  0  0  0  0
  3  4  2  0  0  0  0
  4  5  1  0  0  0  0
  4  9  1  0  0  0  0
  5 10  1  0  0  0  0
  6 22  1  0  0  0  0
  6  5  2  0  0  0  0
  7  2  1  0  0  0  0
  8  3  1  0  0  0  0
 11 18  1  0  0  0  0
 11 12  1  0  0  0  0
 12 19  1  0  0  0  0
 13 12  2  0  0  0  0
 13  1  1  0  0  0  0
 14 13  1  0  0  0  0
 15 16  1  0  0  0  0
 15 14  2  0  0  0  0
 16 11  2  0  0  0  0
 17 20  1  0  0  0  0
 17 15  1  0  0  0  0
 21 17  1  0  0  0  0
 22 23  1  0  0  0  0
 22 26  1  0  0  0  0
 23 24  1  0  0  0  0
 24 25  1  0  0  0  0
 26 25  1  0  0  0  0
M  END
>  <minimizedAffinity>
-5.11010456

$$$$

 OpenBabel03252505353D

 26 28  0  0  0  0  0  0  0  0999 V2000
   37.8840   30.6570   40.5810 C   0  0  0  0  0  0  0  0  0  0  0  0
   38.4440   31.8280   41.0100 C   0  0  0  0  0  0  0  0  0  0  0  0
   38.3080   33.0520   40.3710 C   0  0  0  0  0  0  0  0  0  0  0  0
   37.5450   33.0950   39.2080 C   0  0  0  0  0  0  0  0  0  0  0  0
   36.9780   31.9150   38.7730 C   0  0  0  0  0  0  0  0  0  0  0  0
   37.1330   30.7090   39.4340 C   0  0  0  0  0  0  0  0  0  0  0  0
   39.0540   31.8650   41.9150 H   0  0  0  0  0  0  0  0  0  0  0  0
   38.7740   33.9500   40.7540 H   0  0  0  0  0  0  0  0  0  0  0  0
   37.4420   34.0490   38.7160 H   0  0  0  0  0  0  0  0  0  0  0  0
   36.3930   31.9990   37.8620 H   0  0  0  0  0  0  0  0  0  0  0  0
   39.4090   27.5860   42.1130 C   0  0  0  0  0  0  0  0  0  0  0  0
   39.3210   28.7510   41.3130 C   0  0  0  0  0  0  0  0  0  0  0  0
   38.1090   29.4530   41.3480 C   0  0  0  0  0  0  0  0  0  0  0  0
   37.0790   29.0090   42.1250 N   0  0  0  0  0  0  0  0  0  0  0  0
   37.2410   27.8760   42.8690 C   0  0  0  0  0  0  0  0  0  0  0  0
   38.3930   27.1730   42.8620 N   0  0  0  0  0  0  0  0  0  0  0  0
   36.1760   27.3960   43.6730 N   0  0  0  0  0  0  0  0  0  0  0  0
   40.3760   27.1140   42.0230 H   0  0  0  0  0  0  0  0  0  0  0  0
   40.1030   29.1390   40.6860 H   0  0  0  0  0  0  0  0  0  0  0  0
   35.4880   26.8230   43.1350 H   0  0  0  0  0  0  0  0  0  0  0  0
   36.3860   27.7690   44.6350 H   0  0  0  0  0  0  0  0  0  0  0  0
   36.5000   29.4670   38.9210 C   0  0  0  0  0  3  0  0  0  0  0  0
   35.0110   29.4360   39.2820 C   0  0  0  0  0  2  0  0  0  0  0  0
   34.4920   28.5470   38.1600 C   0  0  0  0  0  2  0  0  0  0  0  0
   35.1260   29.2660   36.9650 C   0  0  0  0  0  2  0  0  0  0  0  0
   36.5690   29.3100   37.4390 C   0  0  0  0  0  2  0  0  0  0  0  0
  1  2  1  0  0  0  0
  1 13  1  0  0  0  0
  2  7  1  0  0  0  0
  3  8  1  0  0  0  0
  3  2  2  0  0  0  0
  4  3  1  0  0  0  0
  5  4  2  0  0  0  0
  5  6  1  0  0  0  0
  6  1  2  0  0  0  0
  9  4  1  0  0  0  0
 10  5  1  0  0  0  0
 11 16  1  0  0  0  0
 12 13  1  0  0  0  0
 12 11  2  0  0  0  0
 13 14  2  0  0  0  0
 14 15  1  0  0  0  0
 15 17  1  0  0  0  0
 16 15  2  0  0  0  0
 17 21  1  0  0  0  0
 18 11  1  0  0  0  0
 19 12  1  0  0  0  0
 20 17  1  0  0  0  0
 22 23  1  0  0  0  0
 22  6  1  0  0  0  0
 24 23  1  0  0  0  0
 25 26  1  0  0  0  0
 25 24  1  0  0  0  0
 26 22  1  0  0  0  0
M  END
>  <minimizedAffinity>
-5.08767414

$$$$

 OpenBabel03252505353D

 26 28  0  0  0  0  0  0  0  0999 V2000
   36.5520   28.5610   41.1840 C   0  0  0  0  0  0  0  0  0  0  0  0
   36.3520   27.6960   42.2240 C   0  0  0  0  0  0  0  0  0  0  0  0
   37.0170   27.7530   43.4410 C   0  0  0  0  0  0  0  0  0  0  0  0
   37.9570   28.7630   43.6200 C   0  0  0  0  0  0  0  0  0  0  0  0
   38.1610   29.6370   42.5720 C   0  0  0  0  0  0  0  0  0  0  0  0
   37.4810   29.5540   41.3700 C   0  0  0  0  0  0  0  0  0  0  0  0
   35.6290   26.8820   42.1510 H   0  0  0  0  0  0  0  0  0  0  0  0
   36.8190   27.0420   44.2310 H   0  0  0  0  0  0  0  0  0  0  0  0
   38.4700   28.8030   44.5670 H   0  0  0  0  0  0  0  0  0  0  0  0
   38.9040   30.4080   42.7590 H   0  0  0  0  0  0  0  0  0  0  0  0
   33.9650   28.8380   38.4770 C   0  0  0  0  0  0  0  0  0  0  0  0
   34.6180   29.1090   39.7040 C   0  0  0  0  0  0  0  0  0  0  0  0
   35.7870   28.3840   39.9710 C   0  0  0  0  0  0  0  0  0  0  0  0
   36.2490   27.4670   39.0720 N   0  0  0  0  0  0  0  0  0  0  0  0
   35.5630   27.2630   37.9110 C   0  0  0  0  0  0  0  0  0  0  0  0
   34.4330   27.9410   37.6170 N   0  0  0  0  0  0  0  0  0  0  0  0
   36.0240   26.3060   36.9720 N   0  0  0  0  0  0  0  0  0  0  0  0
   33.0770   29.4420   38.3570 H   0  0  0  0  0  0  0  0  0  0  0  0
   34.2930   29.8190   40.4410 H   0  0  0  0  0  0  0  0  0  0  0  0
   35.7220   25.3330   37.2030 H   0  0  0  0  0  0  0  0  0  0  0  0
   36.5690   26.8700   36.2690 H   0  0  0  0  0  0  0  0  0  0  0  0
   37.7400   30.5230   40.2740 C   0  0  0  0  0  3  0  0  0  0  0  0
   36.9640   31.8230   40.5130 C   0  0  0  0  0  2  0  0  0  0  0  0
   37.8530   32.7970   39.7520 C   0  0  0  0  0  2  0  0  0  0  0  0
   39.2070   32.4180   40.3580 C   0  0  0  0  0  2  0  0  0  0  0  0
   39.1720   30.9160   40.1290 C   0  0  0  0  0  2  0  0  0  0  0  0
  1  6  2  0  0  0  0
  1  2  1  0  0  0  0
  2  3  2  0  0  0  0
  3  4  1  0  0  0  0
  3  8  1  0  0  0  0
  4  9  1  0  0  0  0
  5 10  1  0  0  0  0
  5  4  2  0  0  0  0
  6  5  1  0  0  0  0
  7  2  1  0  0  0  0
 11 12  1  0  0  0  0
 12 13  2  0  0  0  0
 12 19  1  0  0  0  0
 13  1  1  0  0  0  0
 14 13  1  0  0  0  0
 15 14  2  0  0  0  0
 16 15  1  0  0  0  0
 16 11  2  0  0  0  0
 17 20  1  0  0  0  0
 17 15  1  0  0  0  0
 18 11  1  0  0  0  0
 21 17  1  0  0  0  0
 22 23  1  0  0  0  0
 22  6  1  0  0  0  0
 24 25  1  0  0  0  0
 24 23  1  0  0  0  0
 26 22  1  0  0  0  0
 26 25  1  0  0  0  0
M  END
>  <minimizedAffinity>
-5.0264349

$$$$
