
 OpenBabel03252505343D

 26 28  0  0  0  0  0  0  0  0999 V2000
   46.5710   34.7700   42.1080 C   0  0  0  0  0  0  0  0  0  0  0  0
   47.8600   35.2110   41.9930 C   0  0  0  0  0  0  0  0  0  0  0  0
   48.6500   35.0630   40.8620 C   0  0  0  0  0  0  0  0  0  0  0  0
   48.0930   34.4190   39.7610 C   0  0  0  0  0  0  0  0  0  0  0  0
   46.7920   33.9740   39.8740 C   0  0  0  0  0  0  0  0  0  0  0  0
   46.0300   34.1370   41.0170 C   0  0  0  0  0  0  0  0  0  0  0  0
   48.3580   35.7240   42.8180 H   0  0  0  0  0  0  0  0  0  0  0  0
   49.6670   35.4310   40.8240 H   0  0  0  0  0  0  0  0  0  0  0  0
   48.7110   34.3070   38.8850 H   0  0  0  0  0  0  0  0  0  0  0  0
   46.4010   33.4780   38.9900 H   0  0  0  0  0  0  0  0  0  0  0  0
   44.4170   36.2120   44.8250 C   0  0  0  0  0  0  0  0  0  0  0  0
   45.0540   36.1150   43.5630 C   0  0  0  0  0  0  0  0  0  0  0  0
   45.8650   34.9940   43.3480 C   0  0  0  0  0  0  0  0  0  0  0  0
   46.0150   34.0550   44.3280 N   0  0  0  0  0  0  0  0  0  0  0  0
   45.3690   34.2200   45.5180 C   0  0  0  0  0  0  0  0  0  0  0  0
   44.5790   35.2860   45.7640 N   0  0  0  0  0  0  0  0  0  0  0  0
   45.5250   33.2590   46.5490 N   0  0  0  0  0  0  0  0  0  0  0  0
   43.8150   37.1050   44.8990 H   0  0  0  0  0  0  0  0  0  0  0  0
   44.9650   36.8270   42.7630 H   0  0  0  0  0  0  0  0  0  0  0  0
   46.3900   33.4080   47.1150 H   0  0  0  0  0  0  0  0  0  0  0  0
   44.6830   32.6330   46.4530 H   0  0  0  0  0  0  0  0  0  0  0  0
   44.6330   33.6370   41.0850 C   0  0  0  0  0  3  0  0  0  0  0  0
   43.6670   34.6620   40.4780 C   0  0  0  0  0  2  0  0  0  0  0  0
   42.5410   33.7310   40.0470 C   0  0  0  0  0  2  0  0  0  0  0  0
   43.3640   32.6890   39.2840 C   0  0  0  0  0  2  0  0  0  0  0  0
   44.4000   32.3630   40.3470 C   0  0  0  0  0  2  0  0  0  0  0  0
  1 13  1  0  0  0  0
  2  1  1  0  0  0  0
  2  7  1  0  0  0  0
  3  2  2  0  0  0  0
  4  5  2  0  0  0  0
  4  3  1  0  0  0  0
  5  6  1  0  0  0  0
  6 22  1  0  0  0  0
  6  1  2  0  0  0  0
  8  3  1  0  0  0  0
  9  4  1  0  0  0  0
 10  5  1  0  0  0  0
 11 18  1  0  0  0  0
 11 16  1  0  0  0  0
 12 11  2  0  0  0  0
 13 12  1  0  0  0  0
 13 14  2  0  0  0  0
 14 15  1  0  0  0  0
 15 16  2  0  0  0  0
 15 17  1  0  0  0  0
 17 20  1  0  0  0  0
 19 12  1  0  0  0  0
 21 17  1  0  0  0  0
 23 22  1  0  0  0  0
 24 23  1  0  0  0  0
 25 24  1  0  0  0  0
 25 26  1  0  0  0  0
 26 22  1  0  0  0  0
M  END
>  <minimizedAffinity>
-6.00785351

>  <minimizedRMSD>
0.900259554

$$$$
