
 OpenBabel03252503543D

 32 34  0  0  1  0  0  0  0  0999 V2000
   38.1850   30.7250   41.2370 N   0  0  0  0  0  0  0  0  0  0  0  0
   39.2650   31.6590   41.0810 C   0  0  0  0  0  0  0  0  0  0  0  0
   38.6270   33.0320   40.8940 C   0  0  0  0  0  0  0  0  0  0  0  0
   38.0590   33.0370   39.5140 C   0  0  0  0  0  0  0  0  0  0  0  0
   36.9570   32.0020   39.5460 C   0  0  0  0  0  0  0  0  0  0  0  0
   36.9470   30.9920   40.5480 C   0  0  1  0  0  0  0  0  0  0  0  0
   39.9010   31.7330   41.9790 H   0  0  0  0  0  0  0  0  0  0  0  0
   39.8590   31.4730   40.1580 H   0  0  0  0  0  0  0  0  0  0  0  0
   37.8770   33.2380   41.6830 H   0  0  0  0  0  0  0  0  0  0  0  0
   39.4700   33.7360   40.9040 H   0  0  0  0  0  0  0  0  0  0  0  0
   38.8990   32.7540   38.8230 H   0  0  0  0  0  0  0  0  0  0  0  0
   37.7490   34.0420   39.2440 H   0  0  0  0  0  0  0  0  0  0  0  0
   36.0300   32.6630   39.7020 H   0  0  0  0  0  0  0  0  0  0  0  0
   36.9300   31.6170   38.4910 H   0  0  0  0  0  0  0  0  0  0  0  0
   36.1610   31.1190   41.3140 H   0  0  0  0  0  0  0  0  0  0  0  0
   39.4500   27.6420   42.8290 C   0  0  0  0  0  0  0  0  0  0  0  0
   39.4040   28.7450   41.9720 C   0  0  0  0  0  0  0  0  0  0  0  0
   38.2920   29.5630   41.9970 C   0  0  0  0  0  0  0  0  0  0  0  0
   37.2770   29.2570   42.8530 N   0  0  0  0  0  0  0  0  0  0  0  0
   37.3320   28.1760   43.6800 C   0  0  0  0  0  0  0  0  0  0  0  0
   38.4150   27.3830   43.6610 N   0  0  0  0  0  0  0  0  0  0  0  0
   40.2450   28.9240   41.2810 H   0  0  0  0  0  0  0  0  0  0  0  0
   36.4900   27.9910   44.3340 H   0  0  0  0  0  0  0  0  0  0  0  0
   40.7070   26.8200   42.8090 C   0  0  0  0  0  0  0  0  0  0  0  0
   40.9820   26.3400   41.5330 F   0  0  0  0  0  0  0  0  0  0  0  0
   41.7220   27.6170   43.2830 F   0  0  0  0  0  0  0  0  0  0  0  0
   40.5680   25.7380   43.6710 F   0  0  0  0  0  0  0  0  0  0  0  0
   36.5310   29.7080   39.7720 C   0  0  0  0  0  3  0  0  0  0  0  0
   36.4690   29.9140   38.2820 C   0  0  0  0  0  2  0  0  0  0  0  0
   35.6350   28.6690   37.9140 C   0  0  0  0  0  2  0  0  0  0  0  0
   34.4230   28.9960   38.7620 C   0  0  0  0  0  2  0  0  0  0  0  0
   35.1020   29.3090   40.0810 C   0  0  0  0  0  2  0  0  0  0  0  0
  1 18  1  0  0  0  0
  2  1  1  0  0  0  0
  2  7  1  0  0  0  0
  3 10  1  0  0  0  0
  3  2  1  0  0  0  0
  3  9  1  0  0  0  0
  4  5  1  0  0  0  0
  4  3  1  0  0  0  0
  5 13  1  0  0  0  0
  5  6  1  0  0  0  0
  6  1  1  0  0  0  0
  6 15  1  1  0  0  0
  8  2  1  0  0  0  0
 11  4  1  0  0  0  0
 12  4  1  0  0  0  0
 14  5  1  0  0  0  0
 16 21  1  0  0  0  0
 17 18  1  0  0  0  0
 17 16  2  0  0  0  0
 18 19  2  0  0  0  0
 19 20  1  0  0  0  0
 20 23  1  0  0  0  0
 21 20  2  0  0  0  0
 22 17  1  0  0  0  0
 24 16  1  0  0  0  0
 24 26  1  0  0  0  0
 24 27  1  0  0  0  0
 25 24  1  0  0  0  0
 28 32  1  0  0  0  0
 28  6  1  0  0  0  0
 29 28  1  0  0  0  0
 30 29  1  0  0  0  0
 30 31  1  0  0  0  0
 31 32  1  0  0  0  0
M  END
>  <minimizedAffinity>
-5.47865438

$$$$

 OpenBabel03252503543D

 32 34  0  0  1  0  0  0  0  0999 V2000
   37.9090   29.7810   40.2200 N   0  0  0  0  0  0  0  0  0  0  0  0
   39.2090   30.2190   39.7950 C   0  0  0  0  0  0  0  0  0  0  0  0
   39.0310   31.6260   39.2320 C   0  0  0  0  0  0  0  0  0  0  0  0
   38.3530   31.4580   37.9130 C   0  0  0  0  0  0  0  0  0  0  0  0
   36.9860   30.9040   38.2470 C   0  0  0  0  0  0  0  0  0  0  0  0
   36.7570   30.2590   39.4950 C   0  0  1  0  0  0  0  0  0  0  0  0
   39.9260   30.3080   40.6290 H   0  0  0  0  0  0  0  0  0  0  0  0
   39.6120   29.6070   38.9570 H   0  0  0  0  0  0  0  0  0  0  0  0
   38.4730   32.2730   39.9380 H   0  0  0  0  0  0  0  0  0  0  0  0
   40.0510   31.9800   39.0340 H   0  0  0  0  0  0  0  0  0  0  0  0
   38.9800   30.7370   37.3220 H   0  0  0  0  0  0  0  0  0  0  0  0
   38.3560   32.4000   37.3720 H   0  0  0  0  0  0  0  0  0  0  0  0
   36.3430   31.8550   38.2190 H   0  0  0  0  0  0  0  0  0  0  0  0
   36.7270   30.2870   37.3460 H   0  0  0  0  0  0  0  0  0  0  0  0
   36.1390   30.8410   40.2020 H   0  0  0  0  0  0  0  0  0  0  0  0
   37.5820   26.7160   42.2530 C   0  0  0  0  0  0  0  0  0  0  0  0
   37.7060   27.5240   41.1200 C   0  0  0  0  0  0  0  0  0  0  0  0
   37.7150   28.8970   41.2770 C   0  0  0  0  0  0  0  0  0  0  0  0
   37.5950   29.4090   42.5330 N   0  0  0  0  0  0  0  0  0  0  0  0
   37.4700   28.6100   43.6290 C   0  0  0  0  0  0  0  0  0  0  0  0
   37.4660   27.2760   43.4800 N   0  0  0  0  0  0  0  0  0  0  0  0
   37.7710   27.0500   40.1260 H   0  0  0  0  0  0  0  0  0  0  0  0
   37.3780   29.0850   44.5980 H   0  0  0  0  0  0  0  0  0  0  0  0
   37.6410   25.2310   42.0370 C   0  0  0  0  0  0  0  0  0  0  0  0
   37.7900   24.9170   40.6900 F   0  0  0  0  0  0  0  0  0  0  0  0
   38.6860   24.7520   42.7900 F   0  0  0  0  0  0  0  0  0  0  0  0
   36.4690   24.6460   42.5030 F   0  0  0  0  0  0  0  0  0  0  0  0
   35.8720   29.0350   39.1190 C   0  0  0  0  0  3  0  0  0  0  0  0
   35.8150   28.7810   37.6360 C   0  0  0  0  0  2  0  0  0  0  0  0
   34.5730   27.8660   37.6090 C   0  0  0  0  0  2  0  0  0  0  0  0
   33.6030   28.8450   38.2350 C   0  0  0  0  0  2  0  0  0  0  0  0
   34.4110   29.2850   39.4390 C   0  0  0  0  0  2  0  0  0  0  0  0
  1 18  1  0  0  0  0
  2  1  1  0  0  0  0
  2  7  1  0  0  0  0
  3  2  1  0  0  0  0
  3  9  1  0  0  0  0
  4  5  1  0  0  0  0
  4  3  1  0  0  0  0
  5  6  1  0  0  0  0
  6 15  1  1  0  0  0
  6  1  1  0  0  0  0
  8  2  1  0  0  0  0
 10  3  1  0  0  0  0
 11  4  1  0  0  0  0
 12  4  1  0  0  0  0
 13  5  1  0  0  0  0
 14  5  1  0  0  0  0
 16 21  1  0  0  0  0
 17 18  1  0  0  0  0
 17 16  2  0  0  0  0
 18 19  2  0  0  0  0
 19 20  1  0  0  0  0
 20 23  1  0  0  0  0
 21 20  2  0  0  0  0
 22 17  1  0  0  0  0
 24 16  1  0  0  0  0
 24 27  1  0  0  0  0
 24 26  1  0  0  0  0
 25 24  1  0  0  0  0
 28 32  1  0  0  0  0
 28  6  1  0  0  0  0
 29 28  1  0  0  0  0
 30 29  1  0  0  0  0
 30 31  1  0  0  0  0
 31 32  1  0  0  0  0
M  END
>  <minimizedAffinity>
-5.41460133

$$$$

 OpenBabel03252503543D

 32 34  0  0  1  0  0  0  0  0999 V2000
   38.2700   29.0680   41.7010 N   0  0  0  0  0  0  0  0  0  0  0  0
   38.1800   29.1950   43.1290 C   0  0  0  0  0  0  0  0  0  0  0  0
   37.9920   27.7850   43.6790 C   0  0  0  0  0  0  0  0  0  0  0  0
   36.5880   27.3990   43.3500 C   0  0  0  0  0  0  0  0  0  0  0  0
   36.5520   27.3280   41.8390 C   0  0  0  0  0  0  0  0  0  0  0  0
   37.5330   28.0060   41.0630 C   0  0  1  0  0  0  0  0  0  0  0  0
   39.1060   29.5840   43.5840 H   0  0  0  0  0  0  0  0  0  0  0  0
   37.2810   29.7680   43.4490 H   0  0  0  0  0  0  0  0  0  0  0  0
   38.7510   27.0890   43.2710 H   0  0  0  0  0  0  0  0  0  0  0  0
   38.0530   27.9000   44.7700 H   0  0  0  0  0  0  0  0  0  0  0  0
   35.9290   28.2100   43.7610 H   0  0  0  0  0  0  0  0  0  0  0  0
   36.3250   26.4810   43.8670 H   0  0  0  0  0  0  0  0  0  0  0  0
   36.6800   26.2000   41.6620 H   0  0  0  0  0  0  0  0  0  0  0  0
   35.4900   27.5950   41.5910 H   0  0  0  0  0  0  0  0  0  0  0  0
   38.2660   27.3400   40.5740 H   0  0  0  0  0  0  0  0  0  0  0  0
   39.5520   32.0900   40.0110 C   0  0  0  0  0  0  0  0  0  0  0  0
   38.7040   31.2780   40.7680 C   0  0  0  0  0  0  0  0  0  0  0  0
   39.0110   29.9390   40.9080 C   0  0  0  0  0  0  0  0  0  0  0  0
   40.1290   29.4610   40.2940 N   0  0  0  0  0  0  0  0  0  0  0  0
   40.9460   30.2610   39.5560 C   0  0  0  0  0  0  0  0  0  0  0  0
   40.6520   31.5650   39.4220 N   0  0  0  0  0  0  0  0  0  0  0  0
   37.7970   31.7190   41.2160 H   0  0  0  0  0  0  0  0  0  0  0  0
   41.8180   29.8150   39.0950 H   0  0  0  0  0  0  0  0  0  0  0  0
   39.2090   33.5510   39.9400 C   0  0  0  0  0  0  0  0  0  0  0  0
   39.1130   34.1140   41.2090 F   0  0  0  0  0  0  0  0  0  0  0  0
   40.1840   34.1610   39.1870 F   0  0  0  0  0  0  0  0  0  0  0  0
   37.9930   33.7120   39.2870 F   0  0  0  0  0  0  0  0  0  0  0  0
   36.7140   28.6150   39.8870 C   0  0  0  0  0  3  0  0  0  0  0  0
   35.2820   28.9020   40.2520 C   0  0  0  0  0  2  0  0  0  0  0  0
   34.7070   29.0390   38.8260 C   0  0  0  0  0  2  0  0  0  0  0  0
   35.0880   27.6580   38.3350 C   0  0  0  0  0  2  0  0  0  0  0  0
   36.5440   27.6220   38.7540 C   0  0  0  0  0  2  0  0  0  0  0  0
  1  2  1  0  0  0  0
  2  8  1  0  0  0  0
  2  7  1  0  0  0  0
  2  3  1  0  0  0  0
  3 10  1  0  0  0  0
  4  3  1  0  0  0  0
  4 11  1  0  0  0  0
  4 12  1  0  0  0  0
  5  4  1  0  0  0  0
  6 15  1  6  0  0  0
  6  1  1  0  0  0  0
  6  5  1  0  0  0  0
  9  3  1  0  0  0  0
 13  5  1  0  0  0  0
 14  5  1  0  0  0  0
 16 17  1  0  0  0  0
 17 18  2  0  0  0  0
 17 22  1  0  0  0  0
 18  1  1  0  0  0  0
 19 18  1  0  0  0  0
 20 19  2  0  0  0  0
 21 20  1  0  0  0  0
 21 16  2  0  0  0  0
 23 20  1  0  0  0  0
 24 16  1  0  0  0  0
 24 25  1  0  0  0  0
 26 24  1  0  0  0  0
 27 24  1  0  0  0  0
 28 29  1  0  0  0  0
 28  6  1  0  0  0  0
 30 29  1  0  0  0  0
 31 32  1  0  0  0  0
 31 30  1  0  0  0  0
 32 28  1  0  0  0  0
M  END
>  <minimizedAffinity>
-5.22571325

$$$$

 OpenBabel03252503543D

 32 34  0  0  1  0  0  0  0  0999 V2000
   37.3820   30.5010   39.7850 N   0  0  0  0  0  0  0  0  0  0  0  0
   36.8240   29.9580   38.5780 C   0  0  0  0  0  0  0  0  0  0  0  0
   35.4410   29.4280   38.9400 C   0  0  0  0  0  0  0  0  0  0  0  0
   35.6710   28.1770   39.7210 C   0  0  0  0  0  0  0  0  0  0  0  0
   36.3510   28.6350   40.9920 C   0  0  0  0  0  0  0  0  0  0  0  0
   37.0150   29.8930   41.0400 C   0  0  1  0  0  0  0  0  0  0  0  0
   36.6690   30.7220   37.7970 H   0  0  0  0  0  0  0  0  0  0  0  0
   37.3960   29.0810   38.2010 H   0  0  0  0  0  0  0  0  0  0  0  0
   34.8480   30.1890   39.4860 H   0  0  0  0  0  0  0  0  0  0  0  0
   34.9920   29.1380   37.9800 H   0  0  0  0  0  0  0  0  0  0  0  0
   36.3300   27.5240   39.0880 H   0  0  0  0  0  0  0  0  0  0  0  0
   34.7330   27.6470   39.8580 H   0  0  0  0  0  0  0  0  0  0  0  0
   35.4650   28.6760   41.7210 H   0  0  0  0  0  0  0  0  0  0  0  0
   36.9900   27.7560   41.2770 H   0  0  0  0  0  0  0  0  0  0  0  0
   36.4940   30.6600   41.6410 H   0  0  0  0  0  0  0  0  0  0  0  0
   40.1770   32.7770   38.9810 C   0  0  0  0  0  0  0  0  0  0  0  0
   39.3740   31.6340   38.9520 C   0  0  0  0  0  0  0  0  0  0  0  0
   38.2820   31.5630   39.7940 C   0  0  0  0  0  0  0  0  0  0  0  0
   38.0340   32.6120   40.6270 N   0  0  0  0  0  0  0  0  0  0  0  0
   38.8260   33.7190   40.6500 C   0  0  0  0  0  0  0  0  0  0  0  0
   39.8850   33.7920   39.8280 N   0  0  0  0  0  0  0  0  0  0  0  0
   39.6440   30.8050   38.2750 H   0  0  0  0  0  0  0  0  0  0  0  0
   38.5710   34.5150   41.3370 H   0  0  0  0  0  0  0  0  0  0  0  0
   41.3150   32.8320   38.0030 C   0  0  0  0  0  0  0  0  0  0  0  0
   41.0210   32.1310   36.8380 F   0  0  0  0  0  0  0  0  0  0  0  0
   41.5670   34.1600   37.7480 F   0  0  0  0  0  0  0  0  0  0  0  0
   42.4520   32.2800   38.5810 F   0  0  0  0  0  0  0  0  0  0  0  0
   38.3170   29.5910   41.8390 C   0  0  0  0  0  3  0  0  0  0  0  0
   39.1220   28.4630   41.2500 C   0  0  0  0  0  2  0  0  0  0  0  0
   40.0160   28.1600   42.4700 C   0  0  0  0  0  2  0  0  0  0  0  0
   38.9020   27.8490   43.4480 C   0  0  0  0  0  2  0  0  0  0  0  0
   38.0090   29.0520   43.2220 C   0  0  0  0  0  2  0  0  0  0  0  0
  1 18  1  0  0  0  0
  1  6  1  0  0  0  0
  2  3  1  0  0  0  0
  2  1  1  0  0  0  0
  3  9  1  0  0  0  0
  3  4  1  0  0  0  0
  4 12  1  0  0  0  0
  4  5  1  0  0  0  0
  5  6  1  0  0  0  0
  5 14  1  0  0  0  0
  5 13  1  0  0  0  0
  6 15  1  1  0  0  0
  6 28  1  0  0  0  0
  7  2  1  0  0  0  0
  8  2  1  0  0  0  0
 10  3  1  0  0  0  0
 11  4  1  0  0  0  0
 16 21  1  0  0  0  0
 17 16  2  0  0  0  0
 17 18  1  0  0  0  0
 18 19  2  0  0  0  0
 19 20  1  0  0  0  0
 20 23  1  0  0  0  0
 21 20  2  0  0  0  0
 22 17  1  0  0  0  0
 24 27  1  0  0  0  0
 24 16  1  0  0  0  0
 25 24  1  0  0  0  0
 26 24  1  0  0  0  0
 28 32  1  0  0  0  0
 29 28  1  0  0  0  0
 29 30  1  0  0  0  0
 30 31  1  0  0  0  0
 32 31  1  0  0  0  0
M  END
>  <minimizedAffinity>
-5.16763544

$$$$

 OpenBabel03252503543D

 32 34  0  0  1  0  0  0  0  0999 V2000
   38.2690   27.6730   41.8660 N   0  0  0  0  0  0  0  0  0  0  0  0
   38.5560   28.0510   43.2210 C   0  0  0  0  0  0  0  0  0  0  0  0
   39.9650   27.5500   43.5220 C   0  0  0  0  0  0  0  0  0  0  0  0
   39.8520   26.0690   43.6690 C   0  0  0  0  0  0  0  0  0  0  0  0
   39.4540   25.5730   42.2960 C   0  0  0  0  0  0  0  0  0  0  0  0
   38.8580   26.4590   41.3560 C   0  0  1  0  0  0  0  0  0  0  0  0
   38.5790   29.1440   43.3660 H   0  0  0  0  0  0  0  0  0  0  0  0
   37.8910   27.5430   43.9550 H   0  0  0  0  0  0  0  0  0  0  0  0
   40.6800   27.8640   42.7360 H   0  0  0  0  0  0  0  0  0  0  0  0
   40.2030   27.9600   44.5120 H   0  0  0  0  0  0  0  0  0  0  0  0
   39.0580   25.8850   44.4420 H   0  0  0  0  0  0  0  0  0  0  0  0
   40.7790   25.6630   44.0620 H   0  0  0  0  0  0  0  0  0  0  0  0
   40.4690   25.2420   41.8730 H   0  0  0  0  0  0  0  0  0  0  0  0
   38.8560   24.6490   42.5160 H   0  0  0  0  0  0  0  0  0  0  0  0
   39.5140   26.7370   40.5130 H   0  0  0  0  0  0  0  0  0  0  0  0
   36.9270   29.6930   39.0810 C   0  0  0  0  0  0  0  0  0  0  0  0
   37.8620   29.0430   39.8900 C   0  0  0  0  0  0  0  0  0  0  0  0
   37.4260   28.4080   41.0360 C   0  0  0  0  0  0  0  0  0  0  0  0
   36.0980   28.4460   41.3360 N   0  0  0  0  0  0  0  0  0  0  0  0
   35.1960   29.0850   40.5410 C   0  0  0  0  0  0  0  0  0  0  0  0
   35.6170   29.6990   39.4240 N   0  0  0  0  0  0  0  0  0  0  0  0
   38.9280   29.0730   39.6090 H   0  0  0  0  0  0  0  0  0  0  0  0
   34.1560   29.0760   40.8400 H   0  0  0  0  0  0  0  0  0  0  0  0
   37.4410   30.3150   37.8140 C   0  0  0  0  0  0  0  0  0  0  0  0
   38.7060   29.8360   37.4880 F   0  0  0  0  0  0  0  0  0  0  0  0
   36.5240   30.0430   36.8260 F   0  0  0  0  0  0  0  0  0  0  0  0
   37.5130   31.6940   37.9690 F   0  0  0  0  0  0  0  0  0  0  0  0
   37.7310   25.6020   40.7080 C   0  0  0  0  0  3  0  0  0  0  0  0
   36.9480   24.8000   41.7120 C   0  0  0  0  0  2  0  0  0  0  0  0
   36.2890   23.7980   40.7410 C   0  0  0  0  0  2  0  0  0  0  0  0
   37.5670   23.2260   40.1640 C   0  0  0  0  0  2  0  0  0  0  0  0
   38.3010   24.5080   39.8270 C   0  0  0  0  0  2  0  0  0  0  0  0
  1  2  1  0  0  0  0
  2  7  1  0  0  0  0
  2  3  1  0  0  0  0
  2  8  1  0  0  0  0
  3  4  1  0  0  0  0
  3 10  1  0  0  0  0
  4 12  1  0  0  0  0
  4 11  1  0  0  0  0
  5 14  1  0  0  0  0
  5  4  1  0  0  0  0
  6 15  1  6  0  0  0
  6  1  1  0  0  0  0
  6  5  1  0  0  0  0
  9  3  1  0  0  0  0
 13  5  1  0  0  0  0
 16 21  2  0  0  0  0
 16 17  1  0  0  0  0
 17 18  2  0  0  0  0
 18 19  1  0  0  0  0
 18  1  1  0  0  0  0
 20 23  1  0  0  0  0
 20 19  2  0  0  0  0
 21 20  1  0  0  0  0
 22 17  1  0  0  0  0
 24 27  1  0  0  0  0
 24 16  1  0  0  0  0
 25 24  1  0  0  0  0
 26 24  1  0  0  0  0
 28  6  1  0  0  0  0
 28 29  1  0  0  0  0
 30 29  1  0  0  0  0
 31 30  1  0  0  0  0
 32 31  1  0  0  0  0
 32 28  1  0  0  0  0
M  END
>  <minimizedAffinity>
-5.16222382

$$$$

 OpenBabel03252503543D

 32 34  0  0  1  0  0  0  0  0999 V2000
   38.0280   30.7760   40.2590 N   0  0  0  0  0  0  0  0  0  0  0  0
   36.9630   31.7220   40.4410 C   0  0  0  0  0  0  0  0  0  0  0  0
   37.2960   32.9240   39.5630 C   0  0  0  0  0  0  0  0  0  0  0  0
   38.4150   33.6360   40.2480 C   0  0  0  0  0  0  0  0  0  0  0  0
   39.5780   32.6710   40.1940 C   0  0  0  0  0  0  0  0  0  0  0  0
   39.3510   31.2810   39.9910 C   0  0  1  0  0  0  0  0  0  0  0  0
   35.9880   31.3430   40.0890 H   0  0  0  0  0  0  0  0  0  0  0  0
   36.9120   32.1120   41.4820 H   0  0  0  0  0  0  0  0  0  0  0  0
   37.5380   32.6110   38.5280 H   0  0  0  0  0  0  0  0  0  0  0  0
   36.4100   33.5700   39.6240 H   0  0  0  0  0  0  0  0  0  0  0  0
   38.0680   33.8380   41.2980 H   0  0  0  0  0  0  0  0  0  0  0  0
   38.5850   34.6000   39.7770 H   0  0  0  0  0  0  0  0  0  0  0  0
   40.1610   33.0690   39.2880 H   0  0  0  0  0  0  0  0  0  0  0  0
   40.1670   32.9200   41.1170 H   0  0  0  0  0  0  0  0  0  0  0  0
   39.6520   30.9120   38.9930 H   0  0  0  0  0  0  0  0  0  0  0  0
   37.3510   27.3830   41.5510 C   0  0  0  0  0  0  0  0  0  0  0  0
   37.5980   28.7580   41.5600 C   0  0  0  0  0  0  0  0  0  0  0  0
   37.8440   29.4000   40.3620 C   0  0  0  0  0  0  0  0  0  0  0  0
   37.8430   28.6620   39.2160 N   0  0  0  0  0  0  0  0  0  0  0  0
   37.6040   27.3210   39.2210 C   0  0  0  0  0  0  0  0  0  0  0  0
   37.3600   26.6970   40.3840 N   0  0  0  0  0  0  0  0  0  0  0  0
   37.6150   29.2940   42.5230 H   0  0  0  0  0  0  0  0  0  0  0  0
   37.6190   26.7970   38.2740 H   0  0  0  0  0  0  0  0  0  0  0  0
   37.0270   26.7430   42.8710 C   0  0  0  0  0  0  0  0  0  0  0  0
   36.6830   25.4040   42.7170 F   0  0  0  0  0  0  0  0  0  0  0  0
   38.1300   26.8950   43.6770 F   0  0  0  0  0  0  0  0  0  0  0  0
   35.9620   27.4120   43.4630 F   0  0  0  0  0  0  0  0  0  0  0  0
   40.3460   30.5980   40.9750 C   0  0  0  0  0  3  0  0  0  0  0  0
   40.3070   31.1900   42.3590 C   0  0  0  0  0  2  0  0  0  0  0  0
   41.6450   30.6310   42.8840 C   0  0  0  0  0  2  0  0  0  0  0  0
   42.5370   31.2560   41.8310 C   0  0  0  0  0  2  0  0  0  0  0  0
   41.7870   30.8550   40.5780 C   0  0  0  0  0  2  0  0  0  0  0  0
  1 18  1  0  0  0  0
  1  2  1  0  0  0  0
  2  8  1  0  0  0  0
  3 10  1  0  0  0  0
  3  4  1  0  0  0  0
  3  2  1  0  0  0  0
  4 11  1  0  0  0  0
  5  4  1  0  0  0  0
  5 14  1  0  0  0  0
  6 15  1  6  0  0  0
  6  5  1  0  0  0  0
  6  1  1  0  0  0  0
  6 28  1  0  0  0  0
  7  2  1  0  0  0  0
  9  3  1  0  0  0  0
 12  4  1  0  0  0  0
 13  5  1  0  0  0  0
 16 17  1  0  0  0  0
 16 24  1  0  0  0  0
 17 22  1  0  0  0  0
 18 17  2  0  0  0  0
 19 20  2  0  0  0  0
 19 18  1  0  0  0  0
 20 21  1  0  0  0  0
 21 16  2  0  0  0  0
 23 20  1  0  0  0  0
 24 27  1  0  0  0  0
 24 26  1  0  0  0  0
 25 24  1  0  0  0  0
 28 29  1  0  0  0  0
 29 30  1  0  0  0  0
 31 30  1  0  0  0  0
 32 28  1  0  0  0  0
 32 31  1  0  0  0  0
M  END
>  <minimizedAffinity>
-5.15154886

$$$$

 OpenBabel03252503543D

 32 34  0  0  1  0  0  0  0  0999 V2000
   38.1910   29.5060   41.5020 N   0  0  0  0  0  0  0  0  0  0  0  0
   38.2560   29.4710   42.9360 C   0  0  0  0  0  0  0  0  0  0  0  0
   38.3540   28.0010   43.3310 C   0  0  0  0  0  0  0  0  0  0  0  0
   36.9970   27.4230   43.1040 C   0  0  0  0  0  0  0  0  0  0  0  0
   36.7890   27.5000   41.6080 C   0  0  0  0  0  0  0  0  0  0  0  0
   37.5530   28.4070   40.8210 C   0  0  1  0  0  0  0  0  0  0  0  0
   39.1600   29.9600   43.3360 H   0  0  0  0  0  0  0  0  0  0  0  0
   37.3250   29.8520   43.4140 H   0  0  0  0  0  0  0  0  0  0  0  0
   39.1560   27.4860   42.7650 H   0  0  0  0  0  0  0  0  0  0  0  0
   38.5290   28.0130   44.4150 H   0  0  0  0  0  0  0  0  0  0  0  0
   36.2760   28.0690   43.6750 H   0  0  0  0  0  0  0  0  0  0  0  0
   36.9420   26.4270   43.5320 H   0  0  0  0  0  0  0  0  0  0  0  0
   37.0660   26.4330   41.2850 H   0  0  0  0  0  0  0  0  0  0  0  0
   35.6760   27.6120   41.5040 H   0  0  0  0  0  0  0  0  0  0  0  0
   38.3150   27.9250   40.1820 H   0  0  0  0  0  0  0  0  0  0  0  0
   39.9910   31.5120   38.9770 C   0  0  0  0  0  0  0  0  0  0  0  0
   39.6100   30.3990   39.7310 C   0  0  0  0  0  0  0  0  0  0  0  0
   38.6880   30.5640   40.7460 C   0  0  0  0  0  0  0  0  0  0  0  0
   38.1920   31.8110   40.9770 N   0  0  0  0  0  0  0  0  0  0  0  0
   38.5740   32.8890   40.2380 C   0  0  0  0  0  0  0  0  0  0  0  0
   39.4660   32.7300   39.2470 N   0  0  0  0  0  0  0  0  0  0  0  0
   40.0700   29.4200   39.5140 H   0  0  0  0  0  0  0  0  0  0  0  0
   38.1400   33.8520   40.4770 H   0  0  0  0  0  0  0  0  0  0  0  0
   40.9480   31.2690   37.8450 C   0  0  0  0  0  0  0  0  0  0  0  0
   40.8200   32.2370   36.8540 F   0  0  0  0  0  0  0  0  0  0  0  0
   42.2140   31.2530   38.3790 F   0  0  0  0  0  0  0  0  0  0  0  0
   40.6990   30.0220   37.2840 F   0  0  0  0  0  0  0  0  0  0  0  0
   36.5140   28.9880   39.8170 C   0  0  0  0  0  3  0  0  0  0  0  0
   35.1050   28.9650   40.3470 C   0  0  0  0  0  2  0  0  0  0  0  0
   34.3560   29.1590   39.0120 C   0  0  0  0  0  2  0  0  0  0  0  0
   34.9070   27.9370   38.3070 C   0  0  0  0  0  2  0  0  0  0  0  0
   36.3860   28.1180   38.5820 C   0  0  0  0  0  2  0  0  0  0  0  0
  1  2  1  0  0  0  0
  2  3  1  0  0  0  0
  2  7  1  0  0  0  0
  2  8  1  0  0  0  0
  3 10  1  0  0  0  0
  4  3  1  0  0  0  0
  4 12  1  0  0  0  0
  4 11  1  0  0  0  0
  5  4  1  0  0  0  0
  6 15  1  6  0  0  0
  6  1  1  0  0  0  0
  6  5  1  0  0  0  0
  9  3  1  0  0  0  0
 13  5  1  0  0  0  0
 14  5  1  0  0  0  0
 16 21  2  0  0  0  0
 16 17  1  0  0  0  0
 17 18  2  0  0  0  0
 18 19  1  0  0  0  0
 18  1  1  0  0  0  0
 20 23  1  0  0  0  0
 20 19  2  0  0  0  0
 21 20  1  0  0  0  0
 22 17  1  0  0  0  0
 24 26  1  0  0  0  0
 24 16  1  0  0  0  0
 25 24  1  0  0  0  0
 27 24  1  0  0  0  0
 28 29  1  0  0  0  0
 28  6  1  0  0  0  0
 30 29  1  0  0  0  0
 31 32  1  0  0  0  0
 31 30  1  0  0  0  0
 32 28  1  0  0  0  0
M  END
>  <minimizedAffinity>
-5.13166142

$$$$

 OpenBabel03252503543D

 32 34  0  0  1  0  0  0  0  0999 V2000
   39.5950   29.7180   42.1500 N   0  0  0  0  0  0  0  0  0  0  0  0
   41.0120   29.5100   42.2630 C   0  0  0  0  0  0  0  0  0  0  0  0
   41.6110   30.8400   42.7080 C   0  0  0  0  0  0  0  0  0  0  0  0
   41.5590   31.7350   41.5150 C   0  0  0  0  0  0  0  0  0  0  0  0
   40.0840   31.9430   41.2510 C   0  0  0  0  0  0  0  0  0  0  0  0
   39.1250   31.0250   41.7630 C   0  0  1  0  0  0  0  0  0  0  0  0
   41.2770   28.7750   43.0410 H   0  0  0  0  0  0  0  0  0  0  0  0
   41.4870   29.2770   41.2840 H   0  0  0  0  0  0  0  0  0  0  0  0
   41.0770   31.2460   43.5900 H   0  0  0  0  0  0  0  0  0  0  0  0
   42.6680   30.6190   42.9070 H   0  0  0  0  0  0  0  0  0  0  0  0
   42.0740   31.1850   40.6820 H   0  0  0  0  0  0  0  0  0  0  0  0
   42.1320   32.6390   41.7030 H   0  0  0  0  0  0  0  0  0  0  0  0
   39.9050   32.9590   41.7570 H   0  0  0  0  0  0  0  0  0  0  0  0
   40.0370   32.1000   40.1400 H   0  0  0  0  0  0  0  0  0  0  0  0
   38.5170   31.4190   42.5970 H   0  0  0  0  0  0  0  0  0  0  0  0
   37.7360   26.5300   42.0180 C   0  0  0  0  0  0  0  0  0  0  0  0
   38.6670   27.5130   41.6750 C   0  0  0  0  0  0  0  0  0  0  0  0
   38.6610   28.7080   42.3680 C   0  0  0  0  0  0  0  0  0  0  0  0
   37.7410   28.8830   43.3560 N   0  0  0  0  0  0  0  0  0  0  0  0
   36.8360   27.9180   43.6790 C   0  0  0  0  0  0  0  0  0  0  0  0
   36.8430   26.7540   43.0100 N   0  0  0  0  0  0  0  0  0  0  0  0
   39.3680   27.3230   40.8450 H   0  0  0  0  0  0  0  0  0  0  0  0
   36.1320   28.1240   44.4750 H   0  0  0  0  0  0  0  0  0  0  0  0
   37.8230   25.2250   41.2780 C   0  0  0  0  0  0  0  0  0  0  0  0
   36.8490   24.3290   41.7090 F   0  0  0  0  0  0  0  0  0  0  0  0
   37.6950   25.5080   39.9390 F   0  0  0  0  0  0  0  0  0  0  0  0
   39.0740   24.6570   41.4830 F   0  0  0  0  0  0  0  0  0  0  0  0
   38.1160   30.8560   40.5890 C   0  0  0  0  0  3  0  0  0  0  0  0
   38.7870   30.7340   39.2470 C   0  0  0  0  0  2  0  0  0  0  0  0
   37.5650   31.0350   38.3530 C   0  0  0  0  0  2  0  0  0  0  0  0
   37.2570   32.4090   38.9110 C   0  0  0  0  0  2  0  0  0  0  0  0
   37.2750   32.1020   40.3950 C   0  0  0  0  0  2  0  0  0  0  0  0
  1  2  1  0  0  0  0
  1 18  1  0  0  0  0
  2  3  1  0  0  0  0
  2  7  1  0  0  0  0
  3 10  1  0  0  0  0
  3  9  1  0  0  0  0
  4 12  1  0  0  0  0
  4  3  1  0  0  0  0
  5  4  1  0  0  0  0
  5 13  1  0  0  0  0
  5  6  1  0  0  0  0
  6  1  1  0  0  0  0
  6 15  1  1  0  0  0
  8  2  1  0  0  0  0
 11  4  1  0  0  0  0
 14  5  1  0  0  0  0
 16 21  1  0  0  0  0
 17 16  2  0  0  0  0
 17 18  1  0  0  0  0
 18 19  2  0  0  0  0
 19 20  1  0  0  0  0
 20 23  1  0  0  0  0
 21 20  2  0  0  0  0
 22 17  1  0  0  0  0
 24 27  1  0  0  0  0
 24 25  1  0  0  0  0
 24 16  1  0  0  0  0
 26 24  1  0  0  0  0
 28  6  1  0  0  0  0
 29 28  1  0  0  0  0
 30 31  1  0  0  0  0
 30 29  1  0  0  0  0
 31 32  1  0  0  0  0
 32 28  1  0  0  0  0
M  END
>  <minimizedAffinity>
-5.04606485

$$$$

 OpenBabel03252503543D

 32 34  0  0  1  0  0  0  0  0999 V2000
   37.6590   30.1640   40.7690 N   0  0  0  0  0  0  0  0  0  0  0  0
   36.6770   31.1980   40.5930 C   0  0  0  0  0  0  0  0  0  0  0  0
   36.9480   31.8260   39.2300 C   0  0  0  0  0  0  0  0  0  0  0  0
   38.1840   32.6470   39.3940 C   0  0  0  0  0  0  0  0  0  0  0  0
   39.2790   31.6440   39.6810 C   0  0  0  0  0  0  0  0  0  0  0  0
   38.9570   30.3470   40.1690 C   0  0  1  0  0  0  0  0  0  0  0  0
   35.6460   30.8080   40.5540 H   0  0  0  0  0  0  0  0  0  0  0  0
   36.7880   32.0210   41.3330 H   0  0  0  0  0  0  0  0  0  0  0  0
   37.0310   31.0530   38.4400 H   0  0  0  0  0  0  0  0  0  0  0  0
   36.1120   32.5200   39.0700 H   0  0  0  0  0  0  0  0  0  0  0  0
   37.9940   33.3400   40.2570 H   0  0  0  0  0  0  0  0  0  0  0  0
   38.3370   33.2670   38.5150 H   0  0  0  0  0  0  0  0  0  0  0  0
   39.7520   31.5220   38.6410 H   0  0  0  0  0  0  0  0  0  0  0  0
   40.0000   32.2210   40.3200 H   0  0  0  0  0  0  0  0  0  0  0  0
   39.1000   29.5350   39.4330 H   0  0  0  0  0  0  0  0  0  0  0  0
   37.1470   26.6530   41.7910 C   0  0  0  0  0  0  0  0  0  0  0  0
   37.3080   27.7580   40.9510 C   0  0  0  0  0  0  0  0  0  0  0  0
   37.4220   29.0140   41.5160 C   0  0  0  0  0  0  0  0  0  0  0  0
   37.3660   29.1250   42.8720 N   0  0  0  0  0  0  0  0  0  0  0  0
   37.2040   28.0400   43.6790 C   0  0  0  0  0  0  0  0  0  0  0  0
   37.0980   26.8180   43.1330 N   0  0  0  0  0  0  0  0  0  0  0  0
   37.3160   27.6060   39.8590 H   0  0  0  0  0  0  0  0  0  0  0  0
   37.1680   28.2010   44.7490 H   0  0  0  0  0  0  0  0  0  0  0  0
   37.0900   25.3040   41.1330 C   0  0  0  0  0  0  0  0  0  0  0  0
   38.3610   24.8450   40.8010 F   0  0  0  0  0  0  0  0  0  0  0  0
   36.4550   24.4520   42.0050 F   0  0  0  0  0  0  0  0  0  0  0  0
   36.3280   25.3830   39.9730 F   0  0  0  0  0  0  0  0  0  0  0  0
   40.0410   30.0840   41.2550 C   0  0  0  0  0  3  0  0  0  0  0  0
   40.2200   31.2410   42.2020 C   0  0  0  0  0  2  0  0  0  0  0  0
   41.5880   30.8420   42.7940 C   0  0  0  0  0  2  0  0  0  0  0  0
   42.3580   30.8190   41.4900 C   0  0  0  0  0  2  0  0  0  0  0  0
   41.4250   29.9750   40.6460 C   0  0  0  0  0  2  0  0  0  0  0  0
  1 18  1  0  0  0  0
  2  1  1  0  0  0  0
  2  8  1  0  0  0  0
  3  4  1  0  0  0  0
  3  2  1  0  0  0  0
  4  5  1  0  0  0  0
  4 11  1  0  0  0  0
  5  6  1  0  0  0  0
  5 14  1  0  0  0  0
  6 15  1  6  0  0  0
  6  1  1  0  0  0  0
  6 28  1  0  0  0  0
  7  2  1  0  0  0  0
  9  3  1  0  0  0  0
 10  3  1  0  0  0  0
 12  4  1  0  0  0  0
 13  5  1  0  0  0  0
 16 21  1  0  0  0  0
 17 18  1  0  0  0  0
 17 16  2  0  0  0  0
 18 19  2  0  0  0  0
 19 20  1  0  0  0  0
 20 23  1  0  0  0  0
 21 20  2  0  0  0  0
 22 17  1  0  0  0  0
 24 16  1  0  0  0  0
 24 26  1  0  0  0  0
 25 24  1  0  0  0  0
 27 24  1  0  0  0  0
 28 29  1  0  0  0  0
 29 30  1  0  0  0  0
 31 30  1  0  0  0  0
 32 28  1  0  0  0  0
 32 31  1  0  0  0  0
M  END
>  <minimizedAffinity>
-5.02980423

$$$$
