
 OpenBabel03252507583D

 23 25  0  0  1  0  0  0  0  0999 V2000
   46.4390   32.6360   45.6890 C   0  0  1  0  0  0  0  0  0  0  0  0
   47.1180   32.9580   46.9830 C   0  0  0  0  0  0  0  0  0  0  0  0
   45.6420   32.7580   46.9490 C   0  0  2  0  0  0  0  0  0  0  0  0
   46.6450   31.6440   45.2430 H   0  0  0  0  0  0  0  0  0  0  0  0
   47.7650   32.1560   47.3880 H   0  0  0  0  0  0  0  0  0  0  0  0
   47.5830   33.9500   47.0090 H   0  0  0  0  0  0  0  0  0  0  0  0
   45.0450   33.6920   47.1240 H   0  0  0  0  0  0  0  0  0  0  0  0
   46.7370   34.8660   42.7880 C   0  0  0  0  0  0  0  0  0  0  0  0
   45.6470   35.7510   42.9520 C   0  0  0  0  0  0  0  0  0  0  0  0
   44.8000   35.5700   44.0730 C   0  0  0  0  0  0  0  0  0  0  0  0
   45.0980   34.5480   44.9210 N   0  0  0  0  0  0  0  0  0  0  0  0
   46.1670   33.7310   44.6990 C   0  0  0  0  0  0  0  0  0  0  0  0
   46.9730   33.8820   43.6580 N   0  0  0  0  0  0  0  0  0  0  0  0
   45.4130   36.5640   42.2760 H   0  0  0  0  0  0  0  0  0  0  0  0
   43.9510   36.2150   44.2520 H   0  0  0  0  0  0  0  0  0  0  0  0
   47.5200   35.1480   41.6350 C   0  0  0  0  0  0  0  0  0  0  0  0
   48.6230   35.7790   41.6360 O   0  0  0  0  0  0  0  0  0  0  0  0
   47.3270   34.8840   40.5850 H   0  0  0  0  0  0  0  0  0  0  0  0
   45.1350   31.5690   47.6810 C   0  0  0  0  0  3  0  0  0  0  0  0
   45.4600   31.5790   49.1540 C   0  0  0  0  0  2  0  0  0  0  0  0
   45.0620   30.1560   49.5560 C   0  0  0  0  0  2  0  0  0  0  0  0
   44.9610   29.3520   48.2850 C   0  0  0  0  0  2  0  0  0  0  0  0
   45.6660   30.2440   47.2520 C   0  0  0  0  0  2  0  0  0  0  0  0
  1  4  1  6  0  0  0
  1  3  1  0  0  0  0
  1  2  1  0  0  0  0
  2  6  1  0  0  0  0
  2  5  1  0  0  0  0
  3  2  1  0  0  0  0
  3  7  1  1  0  0  0
  3 19  1  0  0  0  0
  8  9  2  0  0  0  0
  8 13  1  0  0  0  0
  9 10  1  0  0  0  0
 10 15  1  0  0  0  0
 10 11  2  0  0  0  0
 12 11  1  0  0  0  0
 12  1  1  0  0  0  0
 13 12  2  0  0  0  0
 14  9  1  0  0  0  0
 16 17  2  0  0  0  0
 16  8  1  0  0  0  0
 18 16  1  0  0  0  0
 19 20  1  0  0  0  0
 20 21  1  0  0  0  0
 22 21  1  0  0  0  0
 23 19  1  0  0  0  0
 23 22  1  0  0  0  0
M  END
>  <minimizedAffinity>
-4.53490067

>  <minimizedRMSD>
0.820773125

$$$$
