
 OpenBabel03242514213D

 45 47  0  0  0  0  0  0  0  0999 V2000
   38.8720   25.7700   42.3940 C   0  0  0  0  0  0  0  0  0  0  0  0
   39.0720   26.8010   43.2780 C   0  0  0  0  0  0  0  0  0  0  0  0
   40.2720   26.8560   43.9180 C   0  0  0  0  0  0  0  0  0  0  0  0
   41.2090   25.8950   43.6590 N   0  0  0  0  0  0  0  0  0  0  0  0
   41.0180   24.9050   42.8120 C   0  0  0  0  0  0  0  0  0  0  0  0
   39.8520   24.8640   42.1970 N   0  0  0  0  0  0  0  0  0  0  0  0
   40.6590   27.5550   44.6390 H   0  0  0  0  0  0  0  0  0  0  0  0
   41.7580   24.1380   42.6010 H   0  0  0  0  0  0  0  0  0  0  0  0
   37.6040   25.7580   41.6550 C   0  0  0  0  0  0  0  0  0  0  0  0
   36.8980   24.4400   41.8000 C   0  0  0  0  0  0  0  0  0  0  0  0
   36.7680   23.7290   40.5270 C   0  0  0  0  0  0  0  0  0  0  0  0
   36.0830   24.5750   39.4740 C   0  0  0  0  0  0  0  0  0  0  0  0
   36.5750   25.9690   39.4240 C   0  0  0  0  0  0  0  0  0  0  0  0
   37.8330   26.1550   40.2400 C   0  0  0  0  0  0  0  0  0  0  0  0
   36.9040   26.4580   42.1520 H   0  0  0  0  0  0  0  0  0  0  0  0
   35.9020   24.5350   42.2650 H   0  0  0  0  0  0  0  0  0  0  0  0
   37.4900   23.8150   42.5000 H   0  0  0  0  0  0  0  0  0  0  0  0
   36.1000   22.8340   40.6850 H   0  0  0  0  0  0  0  0  0  0  0  0
   37.7440   23.3530   40.1760 H   0  0  0  0  0  0  0  0  0  0  0  0
   34.9820   24.5770   39.7210 H   0  0  0  0  0  0  0  0  0  0  0  0
   36.2040   24.0650   38.5140 H   0  0  0  0  0  0  0  0  0  0  0  0
   35.8370   26.7080   39.8230 H   0  0  0  0  0  0  0  0  0  0  0  0
   36.8170   26.2320   38.3760 H   0  0  0  0  0  0  0  0  0  0  0  0
   38.1260   27.2180   40.1470 H   0  0  0  0  0  0  0  0  0  0  0  0
   38.6290   25.4760   39.8400 H   0  0  0  0  0  0  0  0  0  0  0  0
   38.2930   27.8060   43.6560 O   0  0  0  0  0  0  0  0  0  0  0  0
   38.2270   29.1440   43.3530 C   0  0  0  0  0  0  0  0  0  0  0  0
   39.2000   29.6240   43.2420 H   0  0  0  0  0  0  0  0  0  0  0  0
   37.7260   29.6930   44.2020 H   0  0  0  0  0  0  0  0  0  0  0  0
   37.3810   29.4620   42.1380 C   0  0  0  0  0  0  0  0  0  0  0  0
   37.2220   28.5140   41.5860 H   0  0  0  0  0  0  0  0  0  0  0  0
   36.3910   29.8150   42.4690 H   0  0  0  0  0  0  0  0  0  0  0  0
   38.0380   30.3810   41.2260 N   0  0  0  0  0  0  0  0  0  0  0  0
   38.5810   29.8930   40.4830 H   0  0  0  0  0  0  0  0  0  0  0  0
   36.7890   31.3490   40.4920 S   0  0  0  0  0  0  0  0  0  0  0  0
   37.0990   32.8100   40.6090 O   0  0  0  0  0  0  0  0  0  0  0  0
   36.5050   33.5480   40.8790 H   0  0  0  0  0  0  0  0  0  0  0  0
   35.5170   31.0350   41.2260 O   0  0  0  0  0  0  0  0  0  0  0  0
   34.8480   31.7060   41.4820 H   0  0  0  0  0  0  0  0  0  0  0  0
   36.5740   30.9280   38.8960 O   0  0  0  0  0  0  0  0  0  0  0  0
   36.4370   29.5780   38.6570 C   0  0  0  0  0  3  0  0  0  0  0  0
   35.2150   29.2140   37.8710 C   0  0  0  0  0  2  0  0  0  0  0  0
   35.6200   29.1910   36.4140 C   0  0  0  0  0  2  0  0  0  0  0  0
   37.0020   28.6280   36.4840 C   0  0  0  0  0  2  0  0  0  0  0  0
   37.5810   29.1630   37.7510 C   0  0  0  0  0  2  0  0  0  0  0  0
  1  2  1  0  0  0  0
  2 26  1  0  0  0  0
  2  3  2  0  0  0  0
  3  7  1  0  0  0  0
  4  3  1  0  0  0  0
  5  4  2  0  0  0  0
  6  1  2  0  0  0  0
  6  5  1  0  0  0  0
  8  5  1  0  0  0  0
  9 10  1  0  0  0  0
  9 15  1  0  0  0  0
  9  1  1  0  0  0  0
 10 16  1  0  0  0  0
 10 17  1  0  0  0  0
 11 18  1  0  0  0  0
 11 10  1  0  0  0  0
 12 20  1  0  0  0  0
 12 11  1  0  0  0  0
 13 12  1  0  0  0  0
 13 22  1  0  0  0  0
 13 14  1  0  0  0  0
 14  9  1  0  0  0  0
 19 11  1  0  0  0  0
 21 12  1  0  0  0  0
 23 13  1  0  0  0  0
 24 14  1  0  0  0  0
 25 14  1  0  0  0  0
 27 26  1  0  0  0  0
 27 29  1  0  0  0  0
 28 27  1  0  0  0  0
 30 32  1  0  0  0  0
 30 27  1  0  0  0  0
 31 30  1  0  0  0  0
 33 30  1  0  0  0  0
 34 33  1  0  0  0  0
 35 36  1  0  0  0  0
 35 38  1  0  0  0  0
 35 33  1  0  0  0  0
 36 37  1  0  0  0  0
 38 39  1  0  0  0  0
 40 35  1  0  0  0  0
 41 40  1  0  0  0  0
 42 41  1  0  0  0  0
 43 44  1  0  0  0  0
 43 42  1  0  0  0  0
 44 45  1  0  0  0  0
 45 41  1  0  0  0  0
M  END
>  <minimizedAffinity>
-5.99679804

$$$$

 OpenBabel03242514213D

 45 47  0  0  0  0  0  0  0  0999 V2000
   40.3710   28.6150   42.7080 C   0  0  0  0  0  0  0  0  0  0  0  0
   40.9140   29.7160   42.0920 C   0  0  0  0  0  0  0  0  0  0  0  0
   42.2340   29.9680   42.3060 C   0  0  0  0  0  0  0  0  0  0  0  0
   42.9500   29.1290   43.1130 N   0  0  0  0  0  0  0  0  0  0  0  0
   42.4300   28.0730   43.7050 C   0  0  0  0  0  0  0  0  0  0  0  0
   41.1500   27.8390   43.4880 N   0  0  0  0  0  0  0  0  0  0  0  0
   42.8740   30.7520   41.9400 H   0  0  0  0  0  0  0  0  0  0  0  0
   42.9920   27.4020   44.3480 H   0  0  0  0  0  0  0  0  0  0  0  0
   38.9660   28.3090   42.4150 C   0  0  0  0  0  0  0  0  0  0  0  0
   38.0390   29.1130   43.2820 C   0  0  0  0  0  0  0  0  0  0  0  0
   37.2410   28.2750   44.1790 C   0  0  0  0  0  0  0  0  0  0  0  0
   36.4640   27.2180   43.4240 C   0  0  0  0  0  0  0  0  0  0  0  0
   37.2590   26.5290   42.3840 C   0  0  0  0  0  0  0  0  0  0  0  0
   38.7330   26.8430   42.4990 C   0  0  0  0  0  0  0  0  0  0  0  0
   38.7310   28.6870   41.4010 H   0  0  0  0  0  0  0  0  0  0  0  0
   37.3640   29.7650   42.7000 H   0  0  0  0  0  0  0  0  0  0  0  0
   38.6590   29.8020   43.8920 H   0  0  0  0  0  0  0  0  0  0  0  0
   36.4690   28.9260   44.6810 H   0  0  0  0  0  0  0  0  0  0  0  0
   37.8640   27.8330   44.9750 H   0  0  0  0  0  0  0  0  0  0  0  0
   35.5880   27.7380   42.9400 H   0  0  0  0  0  0  0  0  0  0  0  0
   36.0630   26.5170   44.1610 H   0  0  0  0  0  0  0  0  0  0  0  0
   36.9640   26.8170   41.3450 H   0  0  0  0  0  0  0  0  0  0  0  0
   37.1420   25.4340   42.5020 H   0  0  0  0  0  0  0  0  0  0  0  0
   39.2460   26.2920   41.6880 H   0  0  0  0  0  0  0  0  0  0  0  0
   39.0960   26.5170   43.5070 H   0  0  0  0  0  0  0  0  0  0  0  0
   40.3850   30.6330   41.2920 O   0  0  0  0  0  0  0  0  0  0  0  0
   40.7400   31.1800   40.0820 C   0  0  0  0  0  0  0  0  0  0  0  0
   40.2330   30.7340   39.2260 H   0  0  0  0  0  0  0  0  0  0  0  0
   41.8380   30.9930   39.8990 H   0  0  0  0  0  0  0  0  0  0  0  0
   40.5890   32.6850   40.0160 C   0  0  0  0  0  0  0  0  0  0  0  0
   40.3200   33.0370   41.0320 H   0  0  0  0  0  0  0  0  0  0  0  0
   41.5620   33.1350   39.7630 H   0  0  0  0  0  0  0  0  0  0  0  0
   39.5210   33.0990   39.1250 N   0  0  0  0  0  0  0  0  0  0  0  0
   39.3030   32.3860   38.3970 H   0  0  0  0  0  0  0  0  0  0  0  0
   38.1110   33.3710   40.1120 S   0  0  0  0  0  0  0  0  0  0  0  0
   37.0660   34.1400   39.3610 O   0  0  0  0  0  0  0  0  0  0  0  0
   36.5330   34.9120   39.6610 H   0  0  0  0  0  0  0  0  0  0  0  0
   38.5690   34.1590   41.3040 O   0  0  0  0  0  0  0  0  0  0  0  0
   38.0680   34.9060   41.6970 H   0  0  0  0  0  0  0  0  0  0  0  0
   37.4860   31.9290   40.6620 O   0  0  0  0  0  0  0  0  0  0  0  0
   36.5760   31.3240   39.8240 C   0  0  0  0  0  3  0  0  0  0  0  0
   37.1960   30.5040   38.7340 C   0  0  0  0  0  2  0  0  0  0  0  0
   37.3020   29.0880   39.2560 C   0  0  0  0  0  2  0  0  0  0  0  0
   36.0460   28.9550   40.0530 C   0  0  0  0  0  2  0  0  0  0  0  0
   35.8140   30.3040   40.6490 C   0  0  0  0  0  2  0  0  0  0  0  0
  1  6  1  0  0  0  0
  2  3  1  0  0  0  0
  2  1  2  0  0  0  0
  3  4  2  0  0  0  0
  4  5  1  0  0  0  0
  5  8  1  0  0  0  0
  6  5  2  0  0  0  0
  7  3  1  0  0  0  0
  9 14  1  0  0  0  0
  9  1  1  0  0  0  0
  9 10  1  0  0  0  0
 10 17  1  0  0  0  0
 10 11  1  0  0  0  0
 11 18  1  0  0  0  0
 11 19  1  0  0  0  0
 12 21  1  0  0  0  0
 12 11  1  0  0  0  0
 13 14  1  0  0  0  0
 13 23  1  0  0  0  0
 13 12  1  0  0  0  0
 14 25  1  0  0  0  0
 15  9  1  0  0  0  0
 16 10  1  0  0  0  0
 20 12  1  0  0  0  0
 22 13  1  0  0  0  0
 24 14  1  0  0  0  0
 26  2  1  0  0  0  0
 27 26  1  0  0  0  0
 28 27  1  0  0  0  0
 29 27  1  0  0  0  0
 30 27  1  0  0  0  0
 30 31  1  0  0  0  0
 32 30  1  0  0  0  0
 33 30  1  0  0  0  0
 33 35  1  0  0  0  0
 34 33  1  0  0  0  0
 35 40  1  0  0  0  0
 35 38  1  0  0  0  0
 36 37  1  0  0  0  0
 36 35  1  0  0  0  0
 38 39  1  0  0  0  0
 41 45  1  0  0  0  0
 41 40  1  0  0  0  0
 42 43  1  0  0  0  0
 42 41  1  0  0  0  0
 43 44  1  0  0  0  0
 44 45  1  0  0  0  0
M  END
>  <minimizedAffinity>
-5.81484175

$$$$

 OpenBabel03242514213D

 45 47  0  0  0  0  0  0  0  0999 V2000
   39.3980   25.6050   42.3990 C   0  0  0  0  0  0  0  0  0  0  0  0
   39.3960   26.7110   43.2120 C   0  0  0  0  0  0  0  0  0  0  0  0
   40.5640   27.0390   43.8290 C   0  0  0  0  0  0  0  0  0  0  0  0
   41.6700   26.2650   43.6170 N   0  0  0  0  0  0  0  0  0  0  0  0
   41.6730   25.2030   42.8370 C   0  0  0  0  0  0  0  0  0  0  0  0
   40.5350   24.8970   42.2440 N   0  0  0  0  0  0  0  0  0  0  0  0
   40.8090   27.8450   44.4980 H   0  0  0  0  0  0  0  0  0  0  0  0
   42.5470   24.5830   42.6640 H   0  0  0  0  0  0  0  0  0  0  0  0
   38.1550   25.2990   41.6810 C   0  0  0  0  0  0  0  0  0  0  0  0
   37.7580   23.8610   41.8630 C   0  0  0  0  0  0  0  0  0  0  0  0
   37.7720   23.1110   40.6060 C   0  0  0  0  0  0  0  0  0  0  0  0
   36.9050   23.7620   39.5500 C   0  0  0  0  0  0  0  0  0  0  0  0
   37.0770   25.2280   39.4640 C   0  0  0  0  0  0  0  0  0  0  0  0
   38.2740   25.7040   40.2560 C   0  0  0  0  0  0  0  0  0  0  0  0
   37.3240   25.8390   42.1760 H   0  0  0  0  0  0  0  0  0  0  0  0
   36.7710   23.7460   42.3430 H   0  0  0  0  0  0  0  0  0  0  0  0
   38.4810   23.3970   42.5650 H   0  0  0  0  0  0  0  0  0  0  0  0
   37.3190   22.0950   40.7930 H   0  0  0  0  0  0  0  0  0  0  0  0
   38.8020   22.9500   40.2470 H   0  0  0  0  0  0  0  0  0  0  0  0
   35.8330   23.5280   39.8140 H   0  0  0  0  0  0  0  0  0  0  0  0
   37.1230   23.2700   38.5970 H   0  0  0  0  0  0  0  0  0  0  0  0
   36.2000   25.7970   39.8620 H   0  0  0  0  0  0  0  0  0  0  0  0
   37.2430   25.5150   38.4070 H   0  0  0  0  0  0  0  0  0  0  0  0
   38.3240   26.8040   40.1370 H   0  0  0  0  0  0  0  0  0  0  0  0
   39.1940   25.2080   39.8550 H   0  0  0  0  0  0  0  0  0  0  0  0
   38.4360   27.5660   43.5390 O   0  0  0  0  0  0  0  0  0  0  0  0
   38.1020   28.8400   43.1430 C   0  0  0  0  0  0  0  0  0  0  0  0
   38.9590   29.4860   42.9530 H   0  0  0  0  0  0  0  0  0  0  0  0
   37.5310   29.3480   43.9730 H   0  0  0  0  0  0  0  0  0  0  0  0
   37.1730   28.8920   41.9480 C   0  0  0  0  0  0  0  0  0  0  0  0
   36.9590   27.8470   41.6470 H   0  0  0  0  0  0  0  0  0  0  0  0
   36.2150   29.3430   42.2550 H   0  0  0  0  0  0  0  0  0  0  0  0
   37.7730   29.5520   40.8040 N   0  0  0  0  0  0  0  0  0  0  0  0
   37.7310   28.9750   39.9370 H   0  0  0  0  0  0  0  0  0  0  0  0
   36.8980   31.0380   40.5570 S   0  0  0  0  0  0  0  0  0  0  0  0
   35.6600   31.0820   41.4000 O   0  0  0  0  0  0  0  0  0  0  0  0
   34.7470   31.3480   41.1430 H   0  0  0  0  0  0  0  0  0  0  0  0
   36.5290   31.0810   39.1020 O   0  0  0  0  0  0  0  0  0  0  0  0
   35.6600   31.3860   38.7620 H   0  0  0  0  0  0  0  0  0  0  0  0
   37.8640   32.3550   40.8770 O   0  0  0  0  0  0  0  0  0  0  0  0
   38.1820   33.1310   39.7840 C   0  0  0  0  0  3  0  0  0  0  0  0
   38.2560   34.5990   40.0730 C   0  0  0  0  0  2  0  0  0  0  0  0
   39.6970   34.9070   40.4160 C   0  0  0  0  0  2  0  0  0  0  0  0
   40.4380   34.0060   39.4850 C   0  0  0  0  0  2  0  0  0  0  0  0
   39.6000   32.7750   39.3770 C   0  0  0  0  0  2  0  0  0  0  0  0
  1  2  1  0  0  0  0
  2 26  1  0  0  0  0
  2  3  2  0  0  0  0
  3  7  1  0  0  0  0
  4  3  1  0  0  0  0
  5  4  2  0  0  0  0
  6  1  2  0  0  0  0
  6  5  1  0  0  0  0
  8  5  1  0  0  0  0
  9 10  1  0  0  0  0
  9 15  1  0  0  0  0
  9  1  1  0  0  0  0
 10 16  1  0  0  0  0
 10 17  1  0  0  0  0
 11 18  1  0  0  0  0
 11 10  1  0  0  0  0
 12 20  1  0  0  0  0
 12 11  1  0  0  0  0
 13 12  1  0  0  0  0
 13 22  1  0  0  0  0
 13 14  1  0  0  0  0
 14  9  1  0  0  0  0
 19 11  1  0  0  0  0
 21 12  1  0  0  0  0
 23 13  1  0  0  0  0
 24 14  1  0  0  0  0
 25 14  1  0  0  0  0
 27 26  1  0  0  0  0
 27 29  1  0  0  0  0
 28 27  1  0  0  0  0
 30 32  1  0  0  0  0
 30 27  1  0  0  0  0
 31 30  1  0  0  0  0
 33 30  1  0  0  0  0
 34 33  1  0  0  0  0
 35 33  1  0  0  0  0
 35 40  1  0  0  0  0
 35 36  1  0  0  0  0
 37 36  1  0  0  0  0
 38 35  1  0  0  0  0
 39 38  1  0  0  0  0
 41 42  1  0  0  0  0
 41 40  1  0  0  0  0
 42 43  1  0  0  0  0
 44 43  1  0  0  0  0
 45 44  1  0  0  0  0
 45 41  1  0  0  0  0
M  END
>  <minimizedAffinity>
-5.61165619

$$$$

 OpenBabel03242514213D

 45 47  0  0  0  0  0  0  0  0999 V2000
   37.7040   31.7820   39.9810 C   0  0  0  0  0  0  0  0  0  0  0  0
   38.9110   31.9450   40.6140 C   0  0  0  0  0  0  0  0  0  0  0  0
   39.3990   33.2120   40.7210 C   0  0  0  0  0  0  0  0  0  0  0  0
   38.6780   34.2490   40.1990 N   0  0  0  0  0  0  0  0  0  0  0  0
   37.5200   34.0940   39.5910 C   0  0  0  0  0  0  0  0  0  0  0  0
   37.0580   32.8620   39.4960 N   0  0  0  0  0  0  0  0  0  0  0  0
   40.3030   33.5870   41.1670 H   0  0  0  0  0  0  0  0  0  0  0  0
   36.9420   34.9130   39.1740 H   0  0  0  0  0  0  0  0  0  0  0  0
   37.1510   30.4240   39.9330 C   0  0  0  0  0  0  0  0  0  0  0  0
   37.1030   29.9020   38.5250 C   0  0  0  0  0  0  0  0  0  0  0  0
   35.7360   29.6540   38.0640 C   0  0  0  0  0  0  0  0  0  0  0  0
   34.9860   28.7230   38.9910 C   0  0  0  0  0  0  0  0  0  0  0  0
   35.1690   29.0400   40.4240 C   0  0  0  0  0  0  0  0  0  0  0  0
   35.8360   30.3820   40.6250 C   0  0  0  0  0  0  0  0  0  0  0  0
   37.8720   29.7360   40.4170 H   0  0  0  0  0  0  0  0  0  0  0  0
   37.7040   28.9860   38.3860 H   0  0  0  0  0  0  0  0  0  0  0  0
   37.5710   30.6620   37.8670 H   0  0  0  0  0  0  0  0  0  0  0  0
   35.7860   29.1240   37.0700 H   0  0  0  0  0  0  0  0  0  0  0  0
   35.1900   30.5990   37.9050 H   0  0  0  0  0  0  0  0  0  0  0  0
   35.3690   27.6800   38.7890 H   0  0  0  0  0  0  0  0  0  0  0  0
   33.9320   28.7470   38.7000 H   0  0  0  0  0  0  0  0  0  0  0  0
   35.8100   28.2960   40.9600 H   0  0  0  0  0  0  0  0  0  0  0  0
   34.1790   29.0840   40.9170 H   0  0  0  0  0  0  0  0  0  0  0  0
   35.9330   30.5350   41.7170 H   0  0  0  0  0  0  0  0  0  0  0  0
   35.2000   31.1760   40.1560 H   0  0  0  0  0  0  0  0  0  0  0  0
   39.7440   31.0740   41.1690 O   0  0  0  0  0  0  0  0  0  0  0  0
   40.1010   30.7670   42.4600 C   0  0  0  0  0  0  0  0  0  0  0  0
   39.5090   31.2800   43.2200 H   0  0  0  0  0  0  0  0  0  0  0  0
   41.1620   31.1030   42.6420 H   0  0  0  0  0  0  0  0  0  0  0  0
   40.1100   29.2830   42.7630 C   0  0  0  0  0  0  0  0  0  0  0  0
   41.1170   28.8970   42.5060 H   0  0  0  0  0  0  0  0  0  0  0  0
   39.9720   29.1340   43.8460 H   0  0  0  0  0  0  0  0  0  0  0  0
   39.1530   28.5440   41.9610 N   0  0  0  0  0  0  0  0  0  0  0  0
   39.5920   27.7710   41.4180 H   0  0  0  0  0  0  0  0  0  0  0  0
   37.9690   27.8870   43.0570 S   0  0  0  0  0  0  0  0  0  0  0  0
   37.1180   28.9710   43.6470 O   0  0  0  0  0  0  0  0  0  0  0  0
   36.8510   29.1040   44.5850 H   0  0  0  0  0  0  0  0  0  0  0  0
   38.7330   27.1880   44.1440 O   0  0  0  0  0  0  0  0  0  0  0  0
   38.4980   27.2260   45.0960 H   0  0  0  0  0  0  0  0  0  0  0  0
   37.0180   26.7540   42.2930 O   0  0  0  0  0  0  0  0  0  0  0  0
   37.7000   25.8360   41.5250 C   0  0  0  0  0  3  0  0  0  0  0  0
   37.3260   24.4110   41.7960 C   0  0  0  0  0  2  0  0  0  0  0  0
   36.2230   24.0530   40.8250 C   0  0  0  0  0  2  0  0  0  0  0  0
   36.6410   24.7890   39.5950 C   0  0  0  0  0  2  0  0  0  0  0  0
   37.2730   26.0490   40.0850 C   0  0  0  0  0  2  0  0  0  0  0  0
  1  2  1  0  0  0  0
  2  3  2  0  0  0  0
  2 26  1  0  0  0  0
  3  7  1  0  0  0  0
  4  3  1  0  0  0  0
  5  4  2  0  0  0  0
  6  5  1  0  0  0  0
  6  1  2  0  0  0  0
  8  5  1  0  0  0  0
  9  1  1  0  0  0  0
  9 15  1  0  0  0  0
  9 14  1  0  0  0  0
 10  9  1  0  0  0  0
 11 10  1  0  0  0  0
 11 12  1  0  0  0  0
 12 13  1  0  0  0  0
 13 14  1  0  0  0  0
 13 23  1  0  0  0  0
 13 22  1  0  0  0  0
 14 24  1  0  0  0  0
 16 10  1  0  0  0  0
 17 10  1  0  0  0  0
 18 11  1  0  0  0  0
 19 11  1  0  0  0  0
 20 12  1  0  0  0  0
 21 12  1  0  0  0  0
 25 14  1  0  0  0  0
 26 27  1  0  0  0  0
 27 29  1  0  0  0  0
 27 30  1  0  0  0  0
 27 28  1  0  0  0  0
 30 32  1  0  0  0  0
 31 30  1  0  0  0  0
 33 30  1  0  0  0  0
 33 35  1  0  0  0  0
 34 33  1  0  0  0  0
 35 36  1  0  0  0  0
 35 38  1  0  0  0  0
 36 37  1  0  0  0  0
 38 39  1  0  0  0  0
 40 35  1  0  0  0  0
 41 42  1  0  0  0  0
 41 40  1  0  0  0  0
 43 42  1  0  0  0  0
 44 45  1  0  0  0  0
 44 43  1  0  0  0  0
 45 41  1  0  0  0  0
M  END
>  <minimizedAffinity>
-5.60632753

$$$$

 OpenBabel03242514213D

 45 47  0  0  0  0  0  0  0  0999 V2000
   41.0220   32.8740   40.4740 C   0  0  0  0  0  0  0  0  0  0  0  0
   41.7260   32.3290   41.5200 C   0  0  0  0  0  0  0  0  0  0  0  0
   43.0110   32.7430   41.6960 C   0  0  0  0  0  0  0  0  0  0  0  0
   43.5360   33.6670   40.8360 N   0  0  0  0  0  0  0  0  0  0  0  0
   42.8620   34.1900   39.8330 C   0  0  0  0  0  0  0  0  0  0  0  0
   41.6180   33.7820   39.6740 N   0  0  0  0  0  0  0  0  0  0  0  0
   43.7490   32.4700   42.4300 H   0  0  0  0  0  0  0  0  0  0  0  0
   43.2730   34.9240   39.1460 H   0  0  0  0  0  0  0  0  0  0  0  0
   39.6160   32.4780   40.3340 C   0  0  0  0  0  0  0  0  0  0  0  0
   39.4660   31.3230   39.3850 C   0  0  0  0  0  0  0  0  0  0  0  0
   38.6930   31.6740   38.1920 C   0  0  0  0  0  0  0  0  0  0  0  0
   37.3340   32.2400   38.5450 C   0  0  0  0  0  0  0  0  0  0  0  0
   37.3730   33.2320   39.6410 C   0  0  0  0  0  0  0  0  0  0  0  0
   38.7860   33.6560   39.9700 C   0  0  0  0  0  0  0  0  0  0  0  0
   39.2800   32.0410   41.2950 H   0  0  0  0  0  0  0  0  0  0  0  0
   39.0160   30.4330   39.8590 H   0  0  0  0  0  0  0  0  0  0  0  0
   40.4820   31.0070   39.0730 H   0  0  0  0  0  0  0  0  0  0  0  0
   38.4910   30.7310   37.6090 H   0  0  0  0  0  0  0  0  0  0  0  0
   39.2590   32.3530   37.5330 H   0  0  0  0  0  0  0  0  0  0  0  0
   36.6850   31.3690   38.8530 H   0  0  0  0  0  0  0  0  0  0  0  0
   36.9060   32.6610   37.6300 H   0  0  0  0  0  0  0  0  0  0  0  0
   36.9370   32.8460   40.5970 H   0  0  0  0  0  0  0  0  0  0  0  0
   36.8170   34.1390   39.3330 H   0  0  0  0  0  0  0  0  0  0  0  0
   38.7200   34.3910   40.7950 H   0  0  0  0  0  0  0  0  0  0  0  0
   39.2510   34.1080   39.0570 H   0  0  0  0  0  0  0  0  0  0  0  0
   41.3920   31.4330   42.4390 O   0  0  0  0  0  0  0  0  0  0  0  0
   41.5080   30.0670   42.5420 C   0  0  0  0  0  0  0  0  0  0  0  0
   42.0440   29.7320   43.4300 H   0  0  0  0  0  0  0  0  0  0  0  0
   42.1130   29.6790   41.6720 H   0  0  0  0  0  0  0  0  0  0  0  0
   40.1900   29.3260   42.4540 C   0  0  0  0  0  0  0  0  0  0  0  0
   40.0140   29.0860   41.3860 H   0  0  0  0  0  0  0  0  0  0  0  0
   40.2770   28.3690   42.9920 H   0  0  0  0  0  0  0  0  0  0  0  0
   39.0670   30.1310   42.9010 N   0  0  0  0  0  0  0  0  0  0  0  0
   38.9600   31.0120   42.3560 H   0  0  0  0  0  0  0  0  0  0  0  0
   37.6360   29.1540   42.7160 S   0  0  0  0  0  0  0  0  0  0  0  0
   36.6040   29.8580   41.8890 O   0  0  0  0  0  0  0  0  0  0  0  0
   35.6390   29.9540   42.0570 H   0  0  0  0  0  0  0  0  0  0  0  0
   37.1040   28.9090   44.0990 O   0  0  0  0  0  0  0  0  0  0  0  0
   36.1520   28.9310   44.3350 H   0  0  0  0  0  0  0  0  0  0  0  0
   38.0090   27.6780   42.0440 O   0  0  0  0  0  0  0  0  0  0  0  0
   37.8010   26.5890   42.8630 C   0  0  0  0  0  3  0  0  0  0  0  0
   37.0630   25.4610   42.2100 C   0  0  0  0  0  2  0  0  0  0  0  0
   38.1050   24.5300   41.6310 C   0  0  0  0  0  2  0  0  0  0  0  0
   39.1830   24.5910   42.6620 C   0  0  0  0  0  2  0  0  0  0  0  0
   39.1620   25.9930   43.1730 C   0  0  0  0  0  2  0  0  0  0  0  0
  1  2  1  0  0  0  0
  2  3  2  0  0  0  0
  2 26  1  0  0  0  0
  3  7  1  0  0  0  0
  4  3  1  0  0  0  0
  5  4  2  0  0  0  0
  6  5  1  0  0  0  0
  6  1  2  0  0  0  0
  8  5  1  0  0  0  0
  9  1  1  0  0  0  0
  9 15  1  0  0  0  0
 10 16  1  0  0  0  0
 10  9  1  0  0  0  0
 11 12  1  0  0  0  0
 11 10  1  0  0  0  0
 12 20  1  0  0  0  0
 12 13  1  0  0  0  0
 13 14  1  0  0  0  0
 13 22  1  0  0  0  0
 14  9  1  0  0  0  0
 14 24  1  0  0  0  0
 17 10  1  0  0  0  0
 18 11  1  0  0  0  0
 19 11  1  0  0  0  0
 21 12  1  0  0  0  0
 23 13  1  0  0  0  0
 25 14  1  0  0  0  0
 26 27  1  0  0  0  0
 27 28  1  0  0  0  0
 29 27  1  0  0  0  0
 30 27  1  0  0  0  0
 30 33  1  0  0  0  0
 30 32  1  0  0  0  0
 31 30  1  0  0  0  0
 34 33  1  0  0  0  0
 35 33  1  0  0  0  0
 35 38  1  0  0  0  0
 36 37  1  0  0  0  0
 36 35  1  0  0  0  0
 38 39  1  0  0  0  0
 40 35  1  0  0  0  0
 40 41  1  0  0  0  0
 41 45  1  0  0  0  0
 42 41  1  0  0  0  0
 43 42  1  0  0  0  0
 43 44  1  0  0  0  0
 44 45  1  0  0  0  0
M  END
>  <minimizedAffinity>
-5.48963833

$$$$

 OpenBabel03242514213D

 45 47  0  0  0  0  0  0  0  0999 V2000
   37.1290   25.7140   40.5160 C   0  0  0  0  0  0  0  0  0  0  0  0
   36.3940   25.9770   39.3870 C   0  0  0  0  0  0  0  0  0  0  0  0
   36.0440   24.9190   38.6050 C   0  0  0  0  0  0  0  0  0  0  0  0
   36.4360   23.6620   38.9720 N   0  0  0  0  0  0  0  0  0  0  0  0
   37.1420   23.4090   40.0550 C   0  0  0  0  0  0  0  0  0  0  0  0
   37.4730   24.4430   40.8040 N   0  0  0  0  0  0  0  0  0  0  0  0
   35.4790   24.8700   37.6910 H   0  0  0  0  0  0  0  0  0  0  0  0
   37.4580   22.4130   40.3520 H   0  0  0  0  0  0  0  0  0  0  0  0
   37.4410   26.8500   41.3920 C   0  0  0  0  0  0  0  0  0  0  0  0
   38.9170   26.9490   41.6550 C   0  0  0  0  0  0  0  0  0  0  0  0
   39.2510   26.7520   43.0660 C   0  0  0  0  0  0  0  0  0  0  0  0
   38.4950   27.7060   43.9650 C   0  0  0  0  0  0  0  0  0  0  0  0
   37.0630   27.8360   43.6210 C   0  0  0  0  0  0  0  0  0  0  0  0
   36.6220   26.7820   42.6310 C   0  0  0  0  0  0  0  0  0  0  0  0
   37.2350   27.7860   40.8350 H   0  0  0  0  0  0  0  0  0  0  0  0
   39.3520   27.9040   41.3100 H   0  0  0  0  0  0  0  0  0  0  0  0
   39.4210   26.1650   41.0540 H   0  0  0  0  0  0  0  0  0  0  0  0
   40.3430   26.9920   43.2110 H   0  0  0  0  0  0  0  0  0  0  0  0
   39.1030   25.7020   43.3700 H   0  0  0  0  0  0  0  0  0  0  0  0
   38.9940   28.7140   43.8670 H   0  0  0  0  0  0  0  0  0  0  0  0
   38.6380   27.3700   44.9960 H   0  0  0  0  0  0  0  0  0  0  0  0
   36.8110   28.8200   43.1530 H   0  0  0  0  0  0  0  0  0  0  0  0
   36.4540   27.7060   44.5370 H   0  0  0  0  0  0  0  0  0  0  0  0
   35.5470   26.9540   42.4310 H   0  0  0  0  0  0  0  0  0  0  0  0
   36.7970   25.7700   43.0770 H   0  0  0  0  0  0  0  0  0  0  0  0
   35.9340   27.1110   38.8750 O   0  0  0  0  0  0  0  0  0  0  0  0
   36.5100   28.2910   38.4700 C   0  0  0  0  0  0  0  0  0  0  0  0
   36.6570   28.3680   37.3920 H   0  0  0  0  0  0  0  0  0  0  0  0
   37.5460   28.3690   38.9110 H   0  0  0  0  0  0  0  0  0  0  0  0
   35.7890   29.5300   38.9580 C   0  0  0  0  0  0  0  0  0  0  0  0
   34.9600   29.7330   38.2510 H   0  0  0  0  0  0  0  0  0  0  0  0
   35.3350   29.3210   39.9400 H   0  0  0  0  0  0  0  0  0  0  0  0
   36.6410   30.7050   38.9650 N   0  0  0  0  0  0  0  0  0  0  0  0
   36.2540   31.4880   38.3970 H   0  0  0  0  0  0  0  0  0  0  0  0
   36.7980   31.2110   40.6240 S   0  0  0  0  0  0  0  0  0  0  0  0
   35.5380   30.9460   41.3910 O   0  0  0  0  0  0  0  0  0  0  0  0
   35.0580   31.5400   42.0130 H   0  0  0  0  0  0  0  0  0  0  0  0
   37.0820   32.6840   40.5980 O   0  0  0  0  0  0  0  0  0  0  0  0
   36.6870   33.3340   41.2190 H   0  0  0  0  0  0  0  0  0  0  0  0
   38.0900   30.4560   41.3540 O   0  0  0  0  0  0  0  0  0  0  0  0
   39.2590   31.1850   41.3820 C   0  0  0  0  0  3  0  0  0  0  0  0
   40.0440   31.0390   42.6490 C   0  0  0  0  0  2  0  0  0  0  0  0
   41.0290   29.9110   42.4280 C   0  0  0  0  0  2  0  0  0  0  0  0
   41.4130   30.1100   40.9990 C   0  0  0  0  0  2  0  0  0  0  0  0
   40.1770   30.6030   40.3230 C   0  0  0  0  0  2  0  0  0  0  0  0
  1  6  1  0  0  0  0
  1  9  1  0  0  0  0
  2  1  2  0  0  0  0
  3  4  2  0  0  0  0
  3  2  1  0  0  0  0
  4  5  1  0  0  0  0
  5  8  1  0  0  0  0
  5  6  2  0  0  0  0
  7  3  1  0  0  0  0
  9 10  1  0  0  0  0
  9 14  1  0  0  0  0
 10 11  1  0  0  0  0
 11 18  1  0  0  0  0
 11 19  1  0  0  0  0
 11 12  1  0  0  0  0
 12 21  1  0  0  0  0
 13 12  1  0  0  0  0
 13 23  1  0  0  0  0
 14 25  1  0  0  0  0
 14 13  1  0  0  0  0
 15  9  1  0  0  0  0
 16 10  1  0  0  0  0
 17 10  1  0  0  0  0
 20 12  1  0  0  0  0
 22 13  1  0  0  0  0
 24 14  1  0  0  0  0
 26  2  1  0  0  0  0
 27 26  1  0  0  0  0
 27 29  1  0  0  0  0
 27 30  1  0  0  0  0
 28 27  1  0  0  0  0
 30 33  1  0  0  0  0
 30 32  1  0  0  0  0
 31 30  1  0  0  0  0
 33 35  1  0  0  0  0
 34 33  1  0  0  0  0
 35 40  1  0  0  0  0
 35 36  1  0  0  0  0
 36 37  1  0  0  0  0
 38 35  1  0  0  0  0
 38 39  1  0  0  0  0
 40 41  1  0  0  0  0
 41 42  1  0  0  0  0
 43 42  1  0  0  0  0
 44 43  1  0  0  0  0
 45 44  1  0  0  0  0
 45 41  1  0  0  0  0
M  END
>  <minimizedAffinity>
-5.44023085

$$$$

 OpenBabel03242514213D

 45 47  0  0  0  0  0  0  0  0999 V2000
   31.9920   28.8720   35.9600 C   0  0  0  0  0  0  0  0  0  0  0  0
   33.0100   28.3530   36.7220 C   0  0  0  0  0  0  0  0  0  0  0  0
   33.3000   27.0330   36.5670 C   0  0  0  0  0  0  0  0  0  0  0  0
   32.5770   26.2920   35.6740 N   0  0  0  0  0  0  0  0  0  0  0  0
   31.6010   26.7890   34.9430 C   0  0  0  0  0  0  0  0  0  0  0  0
   31.3300   28.0700   35.1020 N   0  0  0  0  0  0  0  0  0  0  0  0
   34.0400   26.4100   37.0390 H   0  0  0  0  0  0  0  0  0  0  0  0
   31.0220   26.2070   34.2320 H   0  0  0  0  0  0  0  0  0  0  0  0
   31.7320   30.3110   36.0810 C   0  0  0  0  0  0  0  0  0  0  0  0
   30.6770   30.5920   37.1130 C   0  0  0  0  0  0  0  0  0  0  0  0
   29.4750   31.1970   36.5380 C   0  0  0  0  0  0  0  0  0  0  0  0
   29.7920   32.4560   35.7600 C   0  0  0  0  0  0  0  0  0  0  0  0
   30.9720   32.3260   34.8780 C   0  0  0  0  0  0  0  0  0  0  0  0
   31.4230   30.8890   34.7460 C   0  0  0  0  0  0  0  0  0  0  0  0
   32.6280   30.7920   36.5200 H   0  0  0  0  0  0  0  0  0  0  0  0
   31.0430   31.2270   37.9390 H   0  0  0  0  0  0  0  0  0  0  0  0
   30.4020   29.6270   37.5860 H   0  0  0  0  0  0  0  0  0  0  0  0
   28.8000   31.5180   37.3820 H   0  0  0  0  0  0  0  0  0  0  0  0
   28.9140   30.4710   35.9270 H   0  0  0  0  0  0  0  0  0  0  0  0
   29.9820   33.2710   36.5190 H   0  0  0  0  0  0  0  0  0  0  0  0
   28.8940   32.7320   35.2010 H   0  0  0  0  0  0  0  0  0  0  0  0
   31.8610   32.8940   35.2490 H   0  0  0  0  0  0  0  0  0  0  0  0
   30.7100   32.6860   33.8640 H   0  0  0  0  0  0  0  0  0  0  0  0
   32.3040   30.8860   34.0760 H   0  0  0  0  0  0  0  0  0  0  0  0
   30.5830   30.2830   34.3200 H   0  0  0  0  0  0  0  0  0  0  0  0
   33.8060   28.9050   37.6290 O   0  0  0  0  0  0  0  0  0  0  0  0
   35.1300   29.2730   37.6560 C   0  0  0  0  0  0  0  0  0  0  0  0
   35.3950   30.0360   36.9230 H   0  0  0  0  0  0  0  0  0  0  0  0
   35.7680   28.3810   37.3920 H   0  0  0  0  0  0  0  0  0  0  0  0
   35.6230   29.7090   39.0200 C   0  0  0  0  0  0  0  0  0  0  0  0
   34.9710   30.5380   39.3600 H   0  0  0  0  0  0  0  0  0  0  0  0
   35.4910   28.8800   39.7330 H   0  0  0  0  0  0  0  0  0  0  0  0
   36.9800   30.2200   38.9840 N   0  0  0  0  0  0  0  0  0  0  0  0
   37.1420   30.8830   38.1970 H   0  0  0  0  0  0  0  0  0  0  0  0
   37.2560   31.0360   40.4990 S   0  0  0  0  0  0  0  0  0  0  0  0
   36.5640   32.3650   40.5300 O   0  0  0  0  0  0  0  0  0  0  0  0
   36.9140   33.2360   40.8270 H   0  0  0  0  0  0  0  0  0  0  0  0
   38.7410   31.2290   40.6170 O   0  0  0  0  0  0  0  0  0  0  0  0
   39.1660   32.0460   40.9560 H   0  0  0  0  0  0  0  0  0  0  0  0
   36.7610   30.0940   41.7780 O   0  0  0  0  0  0  0  0  0  0  0  0
   37.5480   28.9930   42.0380 C   0  0  0  0  0  3  0  0  0  0  0  0
   38.0690   28.9280   43.4410 C   0  0  0  0  0  2  0  0  0  0  0  0
   37.0760   28.1130   44.2410 C   0  0  0  0  0  2  0  0  0  0  0  0
   36.6570   27.0760   43.2520 C   0  0  0  0  0  2  0  0  0  0  0  0
   36.6590   27.7680   41.9290 C   0  0  0  0  0  2  0  0  0  0  0  0
  1  9  1  0  0  0  0
  1  2  1  0  0  0  0
  2 26  1  0  0  0  0
  3  2  2  0  0  0  0
  3  7  1  0  0  0  0
  4  3  1  0  0  0  0
  5  6  1  0  0  0  0
  5  4  2  0  0  0  0
  6  1  2  0  0  0  0
  8  5  1  0  0  0  0
  9 15  1  0  0  0  0
  9 10  1  0  0  0  0
 10 17  1  0  0  0  0
 10 16  1  0  0  0  0
 11 10  1  0  0  0  0
 11 18  1  0  0  0  0
 12 20  1  0  0  0  0
 12 11  1  0  0  0  0
 13 22  1  0  0  0  0
 13 12  1  0  0  0  0
 14 13  1  0  0  0  0
 14  9  1  0  0  0  0
 19 11  1  0  0  0  0
 21 12  1  0  0  0  0
 23 13  1  0  0  0  0
 24 14  1  0  0  0  0
 25 14  1  0  0  0  0
 26 27  1  0  0  0  0
 27 30  1  0  0  0  0
 28 27  1  0  0  0  0
 29 27  1  0  0  0  0
 30 31  1  0  0  0  0
 30 32  1  0  0  0  0
 33 30  1  0  0  0  0
 33 35  1  0  0  0  0
 34 33  1  0  0  0  0
 35 36  1  0  0  0  0
 35 38  1  0  0  0  0
 35 40  1  0  0  0  0
 36 37  1  0  0  0  0
 38 39  1  0  0  0  0
 40 41  1  0  0  0  0
 41 42  1  0  0  0  0
 42 43  1  0  0  0  0
 44 43  1  0  0  0  0
 45 41  1  0  0  0  0
 45 44  1  0  0  0  0
M  END
>  <minimizedAffinity>
-5.4293294

$$$$

 OpenBabel03242514213D

 45 47  0  0  0  0  0  0  0  0999 V2000
   37.1550   28.9480   39.4170 C   0  0  0  0  0  0  0  0  0  0  0  0
   37.9080   29.3520   38.3420 C   0  0  0  0  0  0  0  0  0  0  0  0
   37.2470   29.6800   37.1990 C   0  0  0  0  0  0  0  0  0  0  0  0
   35.8830   29.5920   37.1700 N   0  0  0  0  0  0  0  0  0  0  0  0
   35.1590   29.2030   38.1990 C   0  0  0  0  0  0  0  0  0  0  0  0
   35.8120   28.8900   39.3020 N   0  0  0  0  0  0  0  0  0  0  0  0
   37.6080   30.0200   36.2440 H   0  0  0  0  0  0  0  0  0  0  0  0
   34.0760   29.1310   38.1840 H   0  0  0  0  0  0  0  0  0  0  0  0
   37.8690   28.6650   40.6670 C   0  0  0  0  0  0  0  0  0  0  0  0
   37.3250   27.4390   41.3420 C   0  0  0  0  0  0  0  0  0  0  0  0
   36.7230   27.7340   42.6440 C   0  0  0  0  0  0  0  0  0  0  0  0
   37.6880   28.4510   43.5630 C   0  0  0  0  0  0  0  0  0  0  0  0
   38.4360   29.5410   42.9020 C   0  0  0  0  0  0  0  0  0  0  0  0
   37.8700   29.8690   41.5390 C   0  0  0  0  0  0  0  0  0  0  0  0
   38.9040   28.3600   40.4160 H   0  0  0  0  0  0  0  0  0  0  0  0
   38.0820   26.6440   41.4650 H   0  0  0  0  0  0  0  0  0  0  0  0
   36.5490   27.0040   40.6790 H   0  0  0  0  0  0  0  0  0  0  0  0
   36.4800   26.7570   43.1530 H   0  0  0  0  0  0  0  0  0  0  0  0
   35.7770   28.2890   42.5310 H   0  0  0  0  0  0  0  0  0  0  0  0
   38.4160   27.6760   43.9440 H   0  0  0  0  0  0  0  0  0  0  0  0
   37.1160   28.8120   44.4230 H   0  0  0  0  0  0  0  0  0  0  0  0
   39.5150   29.2940   42.7350 H   0  0  0  0  0  0  0  0  0  0  0  0
   38.3680   30.4580   43.5190 H   0  0  0  0  0  0  0  0  0  0  0  0
   38.4880   30.6880   41.1200 H   0  0  0  0  0  0  0  0  0  0  0  0
   36.8020   30.1830   41.6570 H   0  0  0  0  0  0  0  0  0  0  0  0
   39.2180   29.4920   38.1830 O   0  0  0  0  0  0  0  0  0  0  0  0
   40.1280   30.4750   38.4910 C   0  0  0  0  0  0  0  0  0  0  0  0
   41.1250   30.3010   38.0850 H   0  0  0  0  0  0  0  0  0  0  0  0
   40.2710   30.5120   39.6100 H   0  0  0  0  0  0  0  0  0  0  0  0
   39.6810   31.8720   38.1130 C   0  0  0  0  0  0  0  0  0  0  0  0
   38.6010   31.8210   37.8690 H   0  0  0  0  0  0  0  0  0  0  0  0
   39.7850   32.5330   38.9890 H   0  0  0  0  0  0  0  0  0  0  0  0
   40.3610   32.3760   36.9350 N   0  0  0  0  0  0  0  0  0  0  0  0
   39.8400   33.1470   36.4660 H   0  0  0  0  0  0  0  0  0  0  0  0
   41.9180   32.9590   37.4570 S   0  0  0  0  0  0  0  0  0  0  0  0
   42.3360   34.1630   36.6680 O   0  0  0  0  0  0  0  0  0  0  0  0
   43.2090   34.3580   36.2560 H   0  0  0  0  0  0  0  0  0  0  0  0
   42.8920   31.8380   37.2340 O   0  0  0  0  0  0  0  0  0  0  0  0
   43.7990   31.9580   36.8800 H   0  0  0  0  0  0  0  0  0  0  0  0
   41.9050   33.3080   39.0840 O   0  0  0  0  0  0  0  0  0  0  0  0
   42.9840   32.8320   39.7960 C   0  0  0  0  0  3  0  0  0  0  0  0
   44.0780   33.8360   39.9960 C   0  0  0  0  0  2  0  0  0  0  0  0
   43.8090   34.5230   41.3170 C   0  0  0  0  0  2  0  0  0  0  0  0
   43.2790   33.4010   42.1490 C   0  0  0  0  0  2  0  0  0  0  0  0
   42.5010   32.5440   41.2060 C   0  0  0  0  0  2  0  0  0  0  0  0
  1  9  1  0  0  0  0
  2  1  2  0  0  0  0
  3  2  1  0  0  0  0
  4  3  2  0  0  0  0
  4  5  1  0  0  0  0
  5  6  2  0  0  0  0
  6  1  1  0  0  0  0
  7  3  1  0  0  0  0
  8  5  1  0  0  0  0
  9 10  1  0  0  0  0
  9 14  1  0  0  0  0
 10 16  1  0  0  0  0
 10 11  1  0  0  0  0
 11 18  1  0  0  0  0
 11 12  1  0  0  0  0
 12 20  1  0  0  0  0
 12 21  1  0  0  0  0
 13 23  1  0  0  0  0
 13 12  1  0  0  0  0
 14 25  1  0  0  0  0
 14 13  1  0  0  0  0
 15  9  1  0  0  0  0
 17 10  1  0  0  0  0
 19 11  1  0  0  0  0
 22 13  1  0  0  0  0
 24 14  1  0  0  0  0
 26  2  1  0  0  0  0
 26 27  1  0  0  0  0
 27 29  1  0  0  0  0
 28 27  1  0  0  0  0
 30 27  1  0  0  0  0
 30 32  1  0  0  0  0
 31 30  1  0  0  0  0
 33 35  1  0  0  0  0
 33 30  1  0  0  0  0
 34 33  1  0  0  0  0
 35 40  1  0  0  0  0
 36 35  1  0  0  0  0
 37 36  1  0  0  0  0
 38 35  1  0  0  0  0
 39 38  1  0  0  0  0
 40 41  1  0  0  0  0
 41 42  1  0  0  0  0
 41 45  1  0  0  0  0
 42 43  1  0  0  0  0
 43 44  1  0  0  0  0
 45 44  1  0  0  0  0
M  END
>  <minimizedAffinity>
-5.4006362

$$$$

 OpenBabel03242514213D

 45 47  0  0  0  0  0  0  0  0999 V2000
   37.0220   27.9590   39.6700 C   0  0  0  0  0  0  0  0  0  0  0  0
   37.1190   29.0580   38.8540 C   0  0  0  0  0  0  0  0  0  0  0  0
   36.4230   29.0370   37.6840 C   0  0  0  0  0  0  0  0  0  0  0  0
   35.6700   27.9380   37.3780 N   0  0  0  0  0  0  0  0  0  0  0  0
   35.5760   26.8820   38.1600 C   0  0  0  0  0  0  0  0  0  0  0  0
   36.2540   26.9170   39.2910 N   0  0  0  0  0  0  0  0  0  0  0  0
   36.3390   29.7650   36.8960 H   0  0  0  0  0  0  0  0  0  0  0  0
   34.9800   26.0060   37.9230 H   0  0  0  0  0  0  0  0  0  0  0  0
   37.7180   28.0190   40.9600 C   0  0  0  0  0  0  0  0  0  0  0  0
   37.6980   26.6870   41.6550 C   0  0  0  0  0  0  0  0  0  0  0  0
   36.9560   26.7220   42.9170 C   0  0  0  0  0  0  0  0  0  0  0  0
   37.4820   27.7900   43.8520 C   0  0  0  0  0  0  0  0  0  0  0  0
   37.7430   29.0840   43.1850 C   0  0  0  0  0  0  0  0  0  0  0  0
   37.1680   29.1260   41.7870 C   0  0  0  0  0  0  0  0  0  0  0  0
   38.7980   28.1700   40.7670 H   0  0  0  0  0  0  0  0  0  0  0  0
   38.7090   26.2830   41.8400 H   0  0  0  0  0  0  0  0  0  0  0  0
   37.2120   25.9580   40.9740 H   0  0  0  0  0  0  0  0  0  0  0  0
   37.1150   25.7420   43.4500 H   0  0  0  0  0  0  0  0  0  0  0  0
   35.8730   26.8300   42.7420 H   0  0  0  0  0  0  0  0  0  0  0  0
   38.4440   27.3970   44.2920 H   0  0  0  0  0  0  0  0  0  0  0  0
   36.7640   27.8920   44.6710 H   0  0  0  0  0  0  0  0  0  0  0  0
   38.8340   29.3080   43.0750 H   0  0  0  0  0  0  0  0  0  0  0  0
   37.2650   29.8970   43.7650 H   0  0  0  0  0  0  0  0  0  0  0  0
   37.4110   30.1210   41.3660 H   0  0  0  0  0  0  0  0  0  0  0  0
   36.0620   28.9660   41.8450 H   0  0  0  0  0  0  0  0  0  0  0  0
   37.7930   30.1950   38.9780 O   0  0  0  0  0  0  0  0  0  0  0  0
   37.6560   31.4600   38.4570 C   0  0  0  0  0  0  0  0  0  0  0  0
   36.8990   31.5410   37.6760 H   0  0  0  0  0  0  0  0  0  0  0  0
   38.6220   31.7610   37.9580 H   0  0  0  0  0  0  0  0  0  0  0  0
   37.4080   32.5330   39.4960 C   0  0  0  0  0  0  0  0  0  0  0  0
   36.3550   32.8610   39.3910 H   0  0  0  0  0  0  0  0  0  0  0  0
   37.5120   32.0930   40.5010 H   0  0  0  0  0  0  0  0  0  0  0  0
   38.2420   33.7040   39.2980 N   0  0  0  0  0  0  0  0  0  0  0  0
   37.6920   34.5870   39.2440 H   0  0  0  0  0  0  0  0  0  0  0  0
   39.3370   33.7840   40.6510 S   0  0  0  0  0  0  0  0  0  0  0  0
   39.3550   32.4910   41.4090 O   0  0  0  0  0  0  0  0  0  0  0  0
   39.3120   32.3450   42.3820 H   0  0  0  0  0  0  0  0  0  0  0  0
   38.8420   34.8900   41.5380 O   0  0  0  0  0  0  0  0  0  0  0  0
   38.8190   34.8430   42.5180 H   0  0  0  0  0  0  0  0  0  0  0  0
   40.8730   34.1820   40.1480 O   0  0  0  0  0  0  0  0  0  0  0  0
   41.1450   33.9170   38.8230 C   0  0  0  0  0  3  0  0  0  0  0  0
   42.2540   34.7430   38.2470 C   0  0  0  0  0  2  0  0  0  0  0  0
   43.5300   33.9490   38.4240 C   0  0  0  0  0  2  0  0  0  0  0  0
   43.0620   32.5510   38.1900 C   0  0  0  0  0  2  0  0  0  0  0  0
   41.6790   32.4990   38.7500 C   0  0  0  0  0  2  0  0  0  0  0  0
  1  9  1  0  0  0  0
  2 26  1  0  0  0  0
  2  1  2  0  0  0  0
  3  2  1  0  0  0  0
  4  3  2  0  0  0  0
  4  5  1  0  0  0  0
  5  6  2  0  0  0  0
  6  1  1  0  0  0  0
  7  3  1  0  0  0  0
  8  5  1  0  0  0  0
  9 10  1  0  0  0  0
  9 14  1  0  0  0  0
 10 16  1  0  0  0  0
 10 11  1  0  0  0  0
 11 18  1  0  0  0  0
 11 12  1  0  0  0  0
 12 20  1  0  0  0  0
 12 21  1  0  0  0  0
 13 23  1  0  0  0  0
 13 12  1  0  0  0  0
 14 25  1  0  0  0  0
 14 13  1  0  0  0  0
 15  9  1  0  0  0  0
 17 10  1  0  0  0  0
 19 11  1  0  0  0  0
 22 13  1  0  0  0  0
 24 14  1  0  0  0  0
 27 26  1  0  0  0  0
 27 30  1  0  0  0  0
 28 27  1  0  0  0  0
 29 27  1  0  0  0  0
 30 32  1  0  0  0  0
 31 30  1  0  0  0  0
 33 30  1  0  0  0  0
 33 35  1  0  0  0  0
 34 33  1  0  0  0  0
 35 36  1  0  0  0  0
 35 38  1  0  0  0  0
 36 37  1  0  0  0  0
 38 39  1  0  0  0  0
 40 35  1  0  0  0  0
 41 40  1  0  0  0  0
 42 43  1  0  0  0  0
 42 41  1  0  0  0  0
 44 43  1  0  0  0  0
 44 45  1  0  0  0  0
 45 41  1  0  0  0  0
M  END
>  <minimizedAffinity>
-5.35397053

$$$$
