
 OpenBabel03242513393D

 30 33  0  0  0  0  0  0  0  0999 V2000
   36.4120   26.9960   39.6390 C   0  0  0  0  0  0  0  0  0  0  0  0
   35.7660   28.2030   39.5580 C   0  0  0  0  0  0  0  0  0  0  0  0
   35.8690   29.0700   40.6190 C   0  0  0  0  0  0  0  0  0  0  0  0
   36.5940   28.7740   41.7560 C   0  0  0  0  0  0  0  0  0  0  0  0
   36.8910   29.3710   42.9290 N   0  0  0  0  0  0  0  0  0  0  0  0
   37.6770   28.5620   43.6790 C   0  0  0  0  0  0  0  0  0  0  0  0
   37.8660   27.4490   42.9510 N   0  0  0  0  0  0  0  0  0  0  0  0
   37.2230   27.5390   41.7750 C   0  0  0  0  0  0  0  0  0  0  0  0
   37.1580   26.6330   40.7520 C   0  0  0  0  0  0  0  0  0  0  0  0
   36.3300   26.3120   38.8010 H   0  0  0  0  0  0  0  0  0  0  0  0
   35.3790   30.0260   40.6000 H   0  0  0  0  0  0  0  0  0  0  0  0
   36.5460   30.3250   43.1920 H   0  0  0  0  0  0  0  0  0  0  0  0
   38.0800   28.7630   44.6710 H   0  0  0  0  0  0  0  0  0  0  0  0
   32.9590   29.1340   37.3950 C   0  0  0  0  0  0  0  0  0  0  0  0
   33.5380   29.1840   36.1350 C   0  0  0  0  0  0  0  0  0  0  0  0
   34.9040   28.8920   36.0490 C   0  0  0  0  0  0  0  0  0  0  0  0
   35.6020   28.5780   37.1710 N   0  0  0  0  0  0  0  0  0  0  0  0
   34.9900   28.5440   38.3680 C   0  0  0  0  0  0  0  0  0  0  0  0
   33.6830   28.8170   38.4900 N   0  0  0  0  0  0  0  0  0  0  0  0
   31.9080   29.3490   37.5270 H   0  0  0  0  0  0  0  0  0  0  0  0
   35.3290   28.9360   35.0770 H   0  0  0  0  0  0  0  0  0  0  0  0
   32.6630   29.5420   34.9820 C   0  0  0  0  0  0  0  0  0  0  0  0
   33.3690   30.4720   34.2610 F   0  0  0  0  0  0  0  0  0  0  0  0
   31.4950   30.0790   35.4830 F   0  0  0  0  0  0  0  0  0  0  0  0
   32.4040   28.3770   34.2700 F   0  0  0  0  0  0  0  0  0  0  0  0
   37.8640   25.3320   40.8570 C   0  0  0  0  0  3  0  0  0  0  0  0
   36.9160   24.2590   41.2900 C   0  0  0  0  0  2  0  0  0  0  0  0
   37.3060   23.0400   40.4890 C   0  0  0  0  0  2  0  0  0  0  0  0
   38.6800   23.3570   39.9050 C   0  0  0  0  0  2  0  0  0  0  0  0
   38.5010   24.8520   39.6100 C   0  0  0  0  0  2  0  0  0  0  0  0
  1  9  1  0  0  0  0
  2  1  2  0  0  0  0
  2  3  1  0  0  0  0
  3  4  2  0  0  0  0
  4  8  1  0  0  0  0
  4  5  1  0  0  0  0
  5 12  1  0  0  0  0
  5  6  1  0  0  0  0
  6 13  1  0  0  0  0
  7  6  2  0  0  0  0
  8  7  1  0  0  0  0
  9 26  1  0  0  0  0
  9  8  2  0  0  0  0
 10  1  1  0  0  0  0
 11  3  1  0  0  0  0
 14 20  1  0  0  0  0
 14 19  1  0  0  0  0
 15 14  2  0  0  0  0
 16 15  1  0  0  0  0
 16 17  2  0  0  0  0
 17 18  1  0  0  0  0
 18 19  2  0  0  0  0
 18  2  1  0  0  0  0
 21 16  1  0  0  0  0
 22 24  1  0  0  0  0
 22 15  1  0  0  0  0
 23 22  1  0  0  0  0
 25 22  1  0  0  0  0
 26 27  1  0  0  0  0
 28 27  1  0  0  0  0
 29 28  1  0  0  0  0
 30 29  1  0  0  0  0
 30 26  1  0  0  0  0
M  END
>  <minimizedAffinity>
-5.76529741

$$$$

 OpenBabel03242513393D

 30 33  0  0  0  0  0  0  0  0999 V2000
   36.7660   26.8490   39.2960 C   0  0  0  0  0  0  0  0  0  0  0  0
   36.6870   28.2110   39.1480 C   0  0  0  0  0  0  0  0  0  0  0  0
   36.7320   28.9930   40.2760 C   0  0  0  0  0  0  0  0  0  0  0  0
   36.8540   28.4650   41.5460 C   0  0  0  0  0  0  0  0  0  0  0  0
   36.9270   28.9260   42.8110 N   0  0  0  0  0  0  0  0  0  0  0  0
   37.0440   27.8920   43.6790 C   0  0  0  0  0  0  0  0  0  0  0  0
   37.0440   26.7770   42.9300 N   0  0  0  0  0  0  0  0  0  0  0  0
   36.9300   27.0830   41.6270 C   0  0  0  0  0  0  0  0  0  0  0  0
   36.8900   26.2500   40.5420 C   0  0  0  0  0  0  0  0  0  0  0  0
   36.7300   26.2320   38.4050 H   0  0  0  0  0  0  0  0  0  0  0  0
   36.6730   30.0640   40.2080 H   0  0  0  0  0  0  0  0  0  0  0  0
   36.8940   29.9450   43.0550 H   0  0  0  0  0  0  0  0  0  0  0  0
   37.1240   27.9440   44.7640 H   0  0  0  0  0  0  0  0  0  0  0  0
   37.0260   30.5270   36.3290 C   0  0  0  0  0  0  0  0  0  0  0  0
   36.3110   29.9000   35.3200 C   0  0  0  0  0  0  0  0  0  0  0  0
   35.7150   28.6710   35.6300 C   0  0  0  0  0  0  0  0  0  0  0  0
   35.8520   28.1470   36.8750 N   0  0  0  0  0  0  0  0  0  0  0  0
   36.5560   28.7990   37.8160 C   0  0  0  0  0  0  0  0  0  0  0  0
   37.1410   29.9770   37.5580 N   0  0  0  0  0  0  0  0  0  0  0  0
   37.5090   31.4780   36.1530 H   0  0  0  0  0  0  0  0  0  0  0  0
   35.1730   28.2060   34.8440 H   0  0  0  0  0  0  0  0  0  0  0  0
   36.2360   30.5790   33.9950 C   0  0  0  0  0  0  0  0  0  0  0  0
   34.8970   30.7550   33.7490 F   0  0  0  0  0  0  0  0  0  0  0  0
   36.8130   29.7480   33.0570 F   0  0  0  0  0  0  0  0  0  0  0  0
   36.9380   31.7760   34.0920 F   0  0  0  0  0  0  0  0  0  0  0  0
   36.9780   24.7800   40.7230 C   0  0  0  0  0  3  0  0  0  0  0  0
   36.0130   24.0860   39.8160 C   0  0  0  0  0  2  0  0  0  0  0  0
   36.7450   22.8600   39.3230 C   0  0  0  0  0  2  0  0  0  0  0  0
   37.9530   22.7090   40.2420 C   0  0  0  0  0  2  0  0  0  0  0  0
   38.3080   24.1860   40.4560 C   0  0  0  0  0  2  0  0  0  0  0  0
  1  9  1  0  0  0  0
  2  1  2  0  0  0  0
  2  3  1  0  0  0  0
  3  4  2  0  0  0  0
  4  8  1  0  0  0  0
  4  5  1  0  0  0  0
  5 12  1  0  0  0  0
  5  6  1  0  0  0  0
  6 13  1  0  0  0  0
  7  6  2  0  0  0  0
  8  7  1  0  0  0  0
  9 26  1  0  0  0  0
  9  8  2  0  0  0  0
 10  1  1  0  0  0  0
 11  3  1  0  0  0  0
 14 19  1  0  0  0  0
 15 16  1  0  0  0  0
 15 14  2  0  0  0  0
 16 17  2  0  0  0  0
 17 18  1  0  0  0  0
 18  2  1  0  0  0  0
 19 18  2  0  0  0  0
 20 14  1  0  0  0  0
 21 16  1  0  0  0  0
 22 25  1  0  0  0  0
 22 15  1  0  0  0  0
 23 22  1  0  0  0  0
 24 22  1  0  0  0  0
 27 26  1  0  0  0  0
 28 27  1  0  0  0  0
 28 29  1  0  0  0  0
 29 30  1  0  0  0  0
 30 26  1  0  0  0  0
M  END
>  <minimizedAffinity>
-5.66659832

$$$$

 OpenBabel03242513393D

 30 33  0  0  0  0  0  0  0  0999 V2000
   37.2330   29.8130   40.0020 C   0  0  0  0  0  0  0  0  0  0  0  0
   36.7130   30.4170   38.8850 C   0  0  0  0  0  0  0  0  0  0  0  0
   37.0370   31.7300   38.6440 C   0  0  0  0  0  0  0  0  0  0  0  0
   37.8610   32.4600   39.4780 C   0  0  0  0  0  0  0  0  0  0  0  0
   38.3610   33.7120   39.5330 N   0  0  0  0  0  0  0  0  0  0  0  0
   39.1430   33.8540   40.6310 C   0  0  0  0  0  0  0  0  0  0  0  0
   39.1220   32.6660   41.2580 N   0  0  0  0  0  0  0  0  0  0  0  0
   38.3530   31.7920   40.5880 C   0  0  0  0  0  0  0  0  0  0  0  0
   38.0670   30.4870   40.8830 C   0  0  0  0  0  0  0  0  0  0  0  0
   36.9760   28.7760   40.1920 H   0  0  0  0  0  0  0  0  0  0  0  0
   36.6540   32.2440   37.7820 H   0  0  0  0  0  0  0  0  0  0  0  0
   38.1540   34.4460   38.8140 H   0  0  0  0  0  0  0  0  0  0  0  0
   39.6830   34.7450   40.9480 H   0  0  0  0  0  0  0  0  0  0  0  0
   33.9130   28.4060   37.6450 C   0  0  0  0  0  0  0  0  0  0  0  0
   34.1980   28.2710   36.2950 C   0  0  0  0  0  0  0  0  0  0  0  0
   35.3670   28.8820   35.8250 C   0  0  0  0  0  0  0  0  0  0  0  0
   36.1630   29.5700   36.6840 N   0  0  0  0  0  0  0  0  0  0  0  0
   35.8380   29.6700   37.9840 C   0  0  0  0  0  0  0  0  0  0  0  0
   34.7280   29.0980   38.4710 N   0  0  0  0  0  0  0  0  0  0  0  0
   33.0250   27.9570   38.0680 H   0  0  0  0  0  0  0  0  0  0  0  0
   35.5680   28.7670   34.7890 H   0  0  0  0  0  0  0  0  0  0  0  0
   33.2440   27.4890   35.4570 C   0  0  0  0  0  0  0  0  0  0  0  0
   32.6620   28.4030   34.6150 F   0  0  0  0  0  0  0  0  0  0  0  0
   32.3110   26.9160   36.2960 F   0  0  0  0  0  0  0  0  0  0  0  0
   33.9710   26.5120   34.7870 F   0  0  0  0  0  0  0  0  0  0  0  0
   38.6390   29.8510   42.0960 C   0  0  0  0  0  3  0  0  0  0  0  0
   37.5720   29.1330   42.8590 C   0  0  0  0  0  2  0  0  0  0  0  0
   38.2220   27.8630   43.3510 C   0  0  0  0  0  2  0  0  0  0  0  0
   39.7220   28.0730   43.1630 C   0  0  0  0  0  2  0  0  0  0  0  0
   39.7140   28.8630   41.8480 C   0  0  0  0  0  2  0  0  0  0  0  0
  1 10  1  0  0  0  0
  1  9  1  0  0  0  0
  2  1  2  0  0  0  0
  3  2  1  0  0  0  0
  3  4  2  0  0  0  0
  4  5  1  0  0  0  0
  4  8  1  0  0  0  0
  5  6  1  0  0  0  0
  6 13  1  0  0  0  0
  6  7  2  0  0  0  0
  8  9  2  0  0  0  0
  8  7  1  0  0  0  0
  9 26  1  0  0  0  0
 11  3  1  0  0  0  0
 12  5  1  0  0  0  0
 14 20  1  0  0  0  0
 14 19  1  0  0  0  0
 15 14  2  0  0  0  0
 16 15  1  0  0  0  0
 16 17  2  0  0  0  0
 17 18  1  0  0  0  0
 18 19  2  0  0  0  0
 18  2  1  0  0  0  0
 21 16  1  0  0  0  0
 22 15  1  0  0  0  0
 22 24  1  0  0  0  0
 23 22  1  0  0  0  0
 25 22  1  0  0  0  0
 26 27  1  0  0  0  0
 27 28  1  0  0  0  0
 29 28  1  0  0  0  0
 30 26  1  0  0  0  0
 30 29  1  0  0  0  0
M  END
>  <minimizedAffinity>
-5.50725985

$$$$

 OpenBabel03242513393D

 30 33  0  0  0  0  0  0  0  0999 V2000
   36.6750   30.4120   39.5830 C   0  0  0  0  0  0  0  0  0  0  0  0
   35.7890   29.3690   39.4930 C   0  0  0  0  0  0  0  0  0  0  0  0
   35.7080   28.4900   40.5460 C   0  0  0  0  0  0  0  0  0  0  0  0
   36.4790   28.6180   41.6850 C   0  0  0  0  0  0  0  0  0  0  0  0
   36.6410   27.9630   42.8530 N   0  0  0  0  0  0  0  0  0  0  0  0
   37.5800   28.5820   43.6090 C   0  0  0  0  0  0  0  0  0  0  0  0
   37.9990   29.6360   42.8900 N   0  0  0  0  0  0  0  0  0  0  0  0
   37.3530   29.6920   41.7130 C   0  0  0  0  0  0  0  0  0  0  0  0
   37.4800   30.6010   40.6970 C   0  0  0  0  0  0  0  0  0  0  0  0
   36.7390   31.1050   38.7510 H   0  0  0  0  0  0  0  0  0  0  0  0
   35.0280   27.6580   40.5200 H   0  0  0  0  0  0  0  0  0  0  0  0
   36.1040   27.1000   43.1080 H   0  0  0  0  0  0  0  0  0  0  0  0
   37.9310   28.2920   44.5990 H   0  0  0  0  0  0  0  0  0  0  0  0
   32.8630   28.8950   37.3390 C   0  0  0  0  0  0  0  0  0  0  0  0
   33.4080   28.9070   36.0640 C   0  0  0  0  0  0  0  0  0  0  0  0
   34.7940   29.0810   35.9640 C   0  0  0  0  0  0  0  0  0  0  0  0
   35.5410   29.2280   37.0880 N   0  0  0  0  0  0  0  0  0  0  0  0
   34.9600   29.2080   38.3000 C   0  0  0  0  0  0  0  0  0  0  0  0
   33.6370   29.0440   38.4360 N   0  0  0  0  0  0  0  0  0  0  0  0
   31.8000   28.7640   37.4820 H   0  0  0  0  0  0  0  0  0  0  0  0
   35.1930   29.0880   34.9790 H   0  0  0  0  0  0  0  0  0  0  0  0
   32.4810   28.7360   34.9090 C   0  0  0  0  0  0  0  0  0  0  0  0
   32.3630   29.9810   34.3450 F   0  0  0  0  0  0  0  0  0  0  0  0
   31.2700   28.2900   35.3980 F   0  0  0  0  0  0  0  0  0  0  0  0
   33.0420   27.7960   34.0510 F   0  0  0  0  0  0  0  0  0  0  0  0
   38.4440   31.7230   40.8130 C   0  0  0  0  0  3  0  0  0  0  0  0
   39.7300   31.3770   40.1320 C   0  0  0  0  0  2  0  0  0  0  0  0
   40.1730   32.6500   39.4520 C   0  0  0  0  0  2  0  0  0  0  0  0
   39.3220   33.7580   40.0660 C   0  0  0  0  0  2  0  0  0  0  0  0
   37.9950   33.0090   40.2330 C   0  0  0  0  0  2  0  0  0  0  0  0
  1  9  1  0  0  0  0
  2  1  2  0  0  0  0
  2  3  1  0  0  0  0
  3  4  2  0  0  0  0
  4  8  1  0  0  0  0
  4  5  1  0  0  0  0
  5 12  1  0  0  0  0
  5  6  1  0  0  0  0
  6 13  1  0  0  0  0
  7  6  2  0  0  0  0
  8  7  1  0  0  0  0
  9 26  1  0  0  0  0
  9  8  2  0  0  0  0
 10  1  1  0  0  0  0
 11  3  1  0  0  0  0
 14 20  1  0  0  0  0
 14 19  1  0  0  0  0
 15 14  2  0  0  0  0
 16 15  1  0  0  0  0
 16 17  2  0  0  0  0
 17 18  1  0  0  0  0
 18 19  2  0  0  0  0
 18  2  1  0  0  0  0
 21 16  1  0  0  0  0
 22 24  1  0  0  0  0
 22 15  1  0  0  0  0
 23 22  1  0  0  0  0
 25 22  1  0  0  0  0
 27 26  1  0  0  0  0
 28 29  1  0  0  0  0
 28 27  1  0  0  0  0
 29 30  1  0  0  0  0
 30 26  1  0  0  0  0
M  END
>  <minimizedAffinity>
-5.49017286

$$$$

 OpenBabel03242513393D

 30 33  0  0  0  0  0  0  0  0999 V2000
   34.2170   29.1820   37.7420 C   0  0  0  0  0  0  0  0  0  0  0  0
   33.3330   28.6900   36.8150 C   0  0  0  0  0  0  0  0  0  0  0  0
   33.3780   27.3500   36.5180 C   0  0  0  0  0  0  0  0  0  0  0  0
   34.2740   26.4830   37.1130 C   0  0  0  0  0  0  0  0  0  0  0  0
   34.5730   25.1700   37.0550 N   0  0  0  0  0  0  0  0  0  0  0  0
   35.5880   24.8840   37.9050 C   0  0  0  0  0  0  0  0  0  0  0  0
   35.9160   26.0460   38.4960 N   0  0  0  0  0  0  0  0  0  0  0  0
   35.1380   27.0420   38.0400 C   0  0  0  0  0  0  0  0  0  0  0  0
   35.1440   28.3680   38.3790 C   0  0  0  0  0  0  0  0  0  0  0  0
   34.1810   30.2400   37.9760 H   0  0  0  0  0  0  0  0  0  0  0  0
   32.7050   26.9220   35.7980 H   0  0  0  0  0  0  0  0  0  0  0  0
   34.0730   24.4930   36.4300 H   0  0  0  0  0  0  0  0  0  0  0  0
   36.0510   23.9140   38.0820 H   0  0  0  0  0  0  0  0  0  0  0  0
   31.6550   30.7230   34.2700 C   0  0  0  0  0  0  0  0  0  0  0  0
   30.5750   31.2560   34.9570 C   0  0  0  0  0  0  0  0  0  0  0  0
   30.4380   30.9030   36.3050 C   0  0  0  0  0  0  0  0  0  0  0  0
   31.3440   30.0710   36.8820 N   0  0  0  0  0  0  0  0  0  0  0  0
   32.3740   29.5830   36.1680 C   0  0  0  0  0  0  0  0  0  0  0  0
   32.5380   29.8990   34.8760 N   0  0  0  0  0  0  0  0  0  0  0  0
   31.8150   30.9580   33.2270 H   0  0  0  0  0  0  0  0  0  0  0  0
   29.6050   31.3200   36.8130 H   0  0  0  0  0  0  0  0  0  0  0  0
   29.6510   32.1570   34.2090 C   0  0  0  0  0  0  0  0  0  0  0  0
   30.4480   32.8610   33.3420 F   0  0  0  0  0  0  0  0  0  0  0  0
   29.0420   32.9940   35.1220 F   0  0  0  0  0  0  0  0  0  0  0  0
   28.7100   31.3600   33.5670 F   0  0  0  0  0  0  0  0  0  0  0  0
   36.1080   28.8800   39.3840 C   0  0  0  0  0  3  0  0  0  0  0  0
   36.5060   30.2840   39.0550 C   0  0  0  0  0  2  0  0  0  0  0  0
   36.5850   30.9960   40.3840 C   0  0  0  0  0  2  0  0  0  0  0  0
   36.5860   29.8930   41.4380 C   0  0  0  0  0  2  0  0  0  0  0  0
   35.6180   28.9010   40.7810 C   0  0  0  0  0  2  0  0  0  0  0  0
  1 10  1  0  0  0  0
  1  9  1  0  0  0  0
  2  1  2  0  0  0  0
  3  2  1  0  0  0  0
  3  4  2  0  0  0  0
  4  8  1  0  0  0  0
  5  4  1  0  0  0  0
  5  6  1  0  0  0  0
  6 13  1  0  0  0  0
  6  7  2  0  0  0  0
  8  9  2  0  0  0  0
  8  7  1  0  0  0  0
  9 26  1  0  0  0  0
 11  3  1  0  0  0  0
 12  5  1  0  0  0  0
 14 19  2  0  0  0  0
 14 15  1  0  0  0  0
 15 16  2  0  0  0  0
 16 21  1  0  0  0  0
 16 17  1  0  0  0  0
 18  2  1  0  0  0  0
 18 17  2  0  0  0  0
 19 18  1  0  0  0  0
 20 14  1  0  0  0  0
 22 15  1  0  0  0  0
 22 24  1  0  0  0  0
 23 22  1  0  0  0  0
 25 22  1  0  0  0  0
 26 30  1  0  0  0  0
 27 26  1  0  0  0  0
 27 28  1  0  0  0  0
 28 29  1  0  0  0  0
 30 29  1  0  0  0  0
M  END
>  <minimizedAffinity>
-5.38073444

$$$$

 OpenBabel03242513393D

 30 33  0  0  0  0  0  0  0  0999 V2000
   37.4120   29.7300   39.9160 C   0  0  0  0  0  0  0  0  0  0  0  0
   36.7770   30.3930   38.8970 C   0  0  0  0  0  0  0  0  0  0  0  0
   37.0340   31.7320   38.7310 C   0  0  0  0  0  0  0  0  0  0  0  0
   37.9030   32.4320   39.5450 C   0  0  0  0  0  0  0  0  0  0  0  0
   38.3630   33.6950   39.6540 N   0  0  0  0  0  0  0  0  0  0  0  0
   39.2330   33.7870   40.6890 C   0  0  0  0  0  0  0  0  0  0  0  0
   39.3070   32.5560   41.2220 N   0  0  0  0  0  0  0  0  0  0  0  0
   38.5130   31.7040   40.5540 C   0  0  0  0  0  0  0  0  0  0  0  0
   38.2980   30.3700   40.7720 C   0  0  0  0  0  0  0  0  0  0  0  0
   37.2080   28.6730   40.0460 H   0  0  0  0  0  0  0  0  0  0  0  0
   36.5590   32.2930   37.9470 H   0  0  0  0  0  0  0  0  0  0  0  0
   38.0700   34.4710   39.0150 H   0  0  0  0  0  0  0  0  0  0  0  0
   39.7700   34.6730   41.0260 H   0  0  0  0  0  0  0  0  0  0  0  0
   35.2750   28.9300   35.8920 C   0  0  0  0  0  0  0  0  0  0  0  0
   34.1160   28.3420   36.3760 C   0  0  0  0  0  0  0  0  0  0  0  0
   33.8650   28.4610   37.7490 C   0  0  0  0  0  0  0  0  0  0  0  0
   34.7410   29.1290   38.5420 N   0  0  0  0  0  0  0  0  0  0  0  0
   35.8510   29.6800   38.0190 C   0  0  0  0  0  0  0  0  0  0  0  0
   36.1250   29.5880   36.7110 N   0  0  0  0  0  0  0  0  0  0  0  0
   35.5240   28.8730   34.8420 H   0  0  0  0  0  0  0  0  0  0  0  0
   32.9730   28.0040   38.1000 H   0  0  0  0  0  0  0  0  0  0  0  0
   33.2340   27.6360   35.4020 C   0  0  0  0  0  0  0  0  0  0  0  0
   34.0020   26.6270   34.8780 F   0  0  0  0  0  0  0  0  0  0  0  0
   32.8640   28.5420   34.4290 F   0  0  0  0  0  0  0  0  0  0  0  0
   32.1210   27.1750   36.0950 F   0  0  0  0  0  0  0  0  0  0  0  0
   38.9950   29.6700   41.8780 C   0  0  0  0  0  3  0  0  0  0  0  0
   38.0440   29.3890   42.9980 C   0  0  0  0  0  2  0  0  0  0  0  0
   38.4150   28.0140   43.4990 C   0  0  0  0  0  2  0  0  0  0  0  0
   39.7850   27.7160   42.8950 C   0  0  0  0  0  2  0  0  0  0  0  0
   39.6150   28.3730   41.5200 C   0  0  0  0  0  2  0  0  0  0  0  0
  1 10  1  0  0  0  0
  1  9  1  0  0  0  0
  2  1  2  0  0  0  0
  3  2  1  0  0  0  0
  3  4  2  0  0  0  0
  4  5  1  0  0  0  0
  4  8  1  0  0  0  0
  5  6  1  0  0  0  0
  6 13  1  0  0  0  0
  6  7  2  0  0  0  0
  8  9  2  0  0  0  0
  8  7  1  0  0  0  0
  9 26  1  0  0  0  0
 11  3  1  0  0  0  0
 12  5  1  0  0  0  0
 14 15  2  0  0  0  0
 14 19  1  0  0  0  0
 15 16  1  0  0  0  0
 16 21  1  0  0  0  0
 16 17  2  0  0  0  0
 18 17  1  0  0  0  0
 18  2  1  0  0  0  0
 19 18  2  0  0  0  0
 20 14  1  0  0  0  0
 22 25  1  0  0  0  0
 22 15  1  0  0  0  0
 23 22  1  0  0  0  0
 24 22  1  0  0  0  0
 26 27  1  0  0  0  0
 27 28  1  0  0  0  0
 29 28  1  0  0  0  0
 30 26  1  0  0  0  0
 30 29  1  0  0  0  0
M  END
>  <minimizedAffinity>
-5.3598237

$$$$

 OpenBabel03242513393D

 30 33  0  0  0  0  0  0  0  0999 V2000
   37.9390   27.9890   41.0800 C   0  0  0  0  0  0  0  0  0  0  0  0
   37.1040   27.0520   40.5250 C   0  0  0  0  0  0  0  0  0  0  0  0
   37.2570   25.7390   40.8990 C   0  0  0  0  0  0  0  0  0  0  0  0
   38.2140   25.3290   41.8070 C   0  0  0  0  0  0  0  0  0  0  0  0
   38.6160   24.1720   42.3710 N   0  0  0  0  0  0  0  0  0  0  0  0
   39.6440   24.4000   43.2240 C   0  0  0  0  0  0  0  0  0  0  0  0
   39.8730   25.7230   43.1810 N   0  0  0  0  0  0  0  0  0  0  0  0
   39.0240   26.3230   42.3310 C   0  0  0  0  0  0  0  0  0  0  0  0
   38.9220   27.6470   41.9990 C   0  0  0  0  0  0  0  0  0  0  0  0
   37.8170   29.0250   40.7850 H   0  0  0  0  0  0  0  0  0  0  0  0
   36.6260   24.9720   40.4900 H   0  0  0  0  0  0  0  0  0  0  0  0
   38.1760   23.2450   42.1580 H   0  0  0  0  0  0  0  0  0  0  0  0
   40.1810   23.6680   43.8260 H   0  0  0  0  0  0  0  0  0  0  0  0
   34.4640   28.9800   38.8700 C   0  0  0  0  0  0  0  0  0  0  0  0
   34.1700   28.2130   37.7520 C   0  0  0  0  0  0  0  0  0  0  0  0
   34.8960   27.0270   37.5840 C   0  0  0  0  0  0  0  0  0  0  0  0
   35.8390   26.6750   38.4950 N   0  0  0  0  0  0  0  0  0  0  0  0
   36.0830   27.4570   39.5610 C   0  0  0  0  0  0  0  0  0  0  0  0
   35.4090   28.5980   39.7560 N   0  0  0  0  0  0  0  0  0  0  0  0
   33.9390   29.9060   39.0560 H   0  0  0  0  0  0  0  0  0  0  0  0
   34.6560   26.4540   36.7220 H   0  0  0  0  0  0  0  0  0  0  0  0
   33.1120   28.7100   36.8260 C   0  0  0  0  0  0  0  0  0  0  0  0
   33.7760   29.4210   35.8590 F   0  0  0  0  0  0  0  0  0  0  0  0
   32.2610   29.5200   37.5490 F   0  0  0  0  0  0  0  0  0  0  0  0
   32.4340   27.6030   36.3260 F   0  0  0  0  0  0  0  0  0  0  0  0
   39.8340   28.6450   42.6100 C   0  0  0  0  0  3  0  0  0  0  0  0
   41.1200   28.7090   41.8500 C   0  0  0  0  0  2  0  0  0  0  0  0
   41.4880   30.1730   41.8170 C   0  0  0  0  0  2  0  0  0  0  0  0
   40.6000   30.8410   42.8620 C   0  0  0  0  0  2  0  0  0  0  0  0
   39.3120   30.0300   42.6700 C   0  0  0  0  0  2  0  0  0  0  0  0
  1  9  1  0  0  0  0
  2  3  1  0  0  0  0
  2  1  2  0  0  0  0
  3  4  2  0  0  0  0
  4  8  1  0  0  0  0
  4  5  1  0  0  0  0
  5  6  1  0  0  0  0
  6 13  1  0  0  0  0
  7  6  2  0  0  0  0
  8  7  1  0  0  0  0
  9  8  2  0  0  0  0
  9 26  1  0  0  0  0
 10  1  1  0  0  0  0
 11  3  1  0  0  0  0
 12  5  1  0  0  0  0
 14 20  1  0  0  0  0
 14 19  1  0  0  0  0
 15 14  2  0  0  0  0
 16 15  1  0  0  0  0
 16 17  2  0  0  0  0
 17 18  1  0  0  0  0
 18 19  2  0  0  0  0
 18  2  1  0  0  0  0
 21 16  1  0  0  0  0
 22 24  1  0  0  0  0
 22 15  1  0  0  0  0
 23 22  1  0  0  0  0
 25 22  1  0  0  0  0
 26 30  1  0  0  0  0
 27 26  1  0  0  0  0
 28 27  1  0  0  0  0
 28 29  1  0  0  0  0
 30 29  1  0  0  0  0
M  END
>  <minimizedAffinity>
-5.28012133

$$$$

 OpenBabel03242513393D

 30 33  0  0  0  0  0  0  0  0999 V2000
   39.0830   29.7430   39.0450 C   0  0  0  0  0  0  0  0  0  0  0  0
   39.5290   28.4610   38.8480 C   0  0  0  0  0  0  0  0  0  0  0  0
   40.6430   28.2710   38.0670 C   0  0  0  0  0  0  0  0  0  0  0  0
   41.3270   29.3160   37.4770 C   0  0  0  0  0  0  0  0  0  0  0  0
   42.4090   29.4750   36.6870 N   0  0  0  0  0  0  0  0  0  0  0  0
   42.6040   30.7890   36.4210 C   0  0  0  0  0  0  0  0  0  0  0  0
   41.6230   31.4460   37.0620 N   0  0  0  0  0  0  0  0  0  0  0  0
   40.8260   30.5850   37.7160 C   0  0  0  0  0  0  0  0  0  0  0  0
   39.7210   30.8390   38.4830 C   0  0  0  0  0  0  0  0  0  0  0  0
   38.2030   29.8910   39.6620 H   0  0  0  0  0  0  0  0  0  0  0  0
   41.0280   27.2850   37.8850 H   0  0  0  0  0  0  0  0  0  0  0  0
   42.9930   28.6750   36.3450 H   0  0  0  0  0  0  0  0  0  0  0  0
   43.3920   31.2320   35.8140 H   0  0  0  0  0  0  0  0  0  0  0  0
   37.6690   26.4310   41.2660 C   0  0  0  0  0  0  0  0  0  0  0  0
   37.5070   25.2240   40.6020 C   0  0  0  0  0  0  0  0  0  0  0  0
   38.0480   25.1260   39.3150 C   0  0  0  0  0  0  0  0  0  0  0  0
   38.6970   26.1870   38.7700 N   0  0  0  0  0  0  0  0  0  0  0  0
   38.8260   27.3350   39.4590 C   0  0  0  0  0  0  0  0  0  0  0  0
   38.3220   27.4660   40.6940 N   0  0  0  0  0  0  0  0  0  0  0  0
   37.2750   26.5680   42.2620 H   0  0  0  0  0  0  0  0  0  0  0  0
   37.9130   24.1940   38.8230 H   0  0  0  0  0  0  0  0  0  0  0  0
   36.7740   24.1340   41.3090 C   0  0  0  0  0  0  0  0  0  0  0  0
   37.6530   23.0820   41.3710 F   0  0  0  0  0  0  0  0  0  0  0  0
   35.6610   23.8140   40.5590 F   0  0  0  0  0  0  0  0  0  0  0  0
   36.4040   24.6160   42.5600 F   0  0  0  0  0  0  0  0  0  0  0  0
   39.2540   32.2330   38.6840 C   0  0  0  0  0  3  0  0  0  0  0  0
   37.7610   32.2970   38.6180 C   0  0  0  0  0  2  0  0  0  0  0  0
   37.3580   33.2810   39.6890 C   0  0  0  0  0  2  0  0  0  0  0  0
   38.6410   34.0100   40.0770 C   0  0  0  0  0  2  0  0  0  0  0  0
   39.6430   32.8540   39.9710 C   0  0  0  0  0  2  0  0  0  0  0  0
  1 10  1  0  0  0  0
  2  1  1  0  0  0  0
  2 18  1  0  0  0  0
  3  2  2  0  0  0  0
  4  8  2  0  0  0  0
  4  3  1  0  0  0  0
  5  4  1  0  0  0  0
  6  5  1  0  0  0  0
  6  7  2  0  0  0  0
  7  8  1  0  0  0  0
  8  9  1  0  0  0  0
  9 26  1  0  0  0  0
  9  1  2  0  0  0  0
 11  3  1  0  0  0  0
 12  5  1  0  0  0  0
 13  6  1  0  0  0  0
 14 20  1  0  0  0  0
 15 14  2  0  0  0  0
 15 22  1  0  0  0  0
 16 15  1  0  0  0  0
 17 16  2  0  0  0  0
 17 18  1  0  0  0  0
 18 19  2  0  0  0  0
 19 14  1  0  0  0  0
 21 16  1  0  0  0  0
 22 23  1  0  0  0  0
 22 25  1  0  0  0  0
 24 22  1  0  0  0  0
 26 30  1  0  0  0  0
 27 26  1  0  0  0  0
 27 28  1  0  0  0  0
 28 29  1  0  0  0  0
 30 29  1  0  0  0  0
M  END
>  <minimizedAffinity>
-5.2758913

$$$$

 OpenBabel03242513393D

 30 33  0  0  0  0  0  0  0  0999 V2000
   38.0140   29.4740   39.6560 C   0  0  0  0  0  0  0  0  0  0  0  0
   38.2880   30.0460   38.4400 C   0  0  0  0  0  0  0  0  0  0  0  0
   37.2960   30.0640   37.4900 C   0  0  0  0  0  0  0  0  0  0  0  0
   36.0400   29.5330   37.7130 C   0  0  0  0  0  0  0  0  0  0  0  0
   34.8860   29.3920   37.0290 N   0  0  0  0  0  0  0  0  0  0  0  0
   33.9620   28.7640   37.7970 C   0  0  0  0  0  0  0  0  0  0  0  0
   34.5630   28.5190   38.9730 N   0  0  0  0  0  0  0  0  0  0  0  0
   35.8280   28.9710   38.9610 C   0  0  0  0  0  0  0  0  0  0  0  0
   36.7750   28.9210   39.9480 C   0  0  0  0  0  0  0  0  0  0  0  0
   38.7980   29.4600   40.4050 H   0  0  0  0  0  0  0  0  0  0  0  0
   37.4650   30.5010   36.5230 H   0  0  0  0  0  0  0  0  0  0  0  0
   34.7550   29.7290   36.0460 H   0  0  0  0  0  0  0  0  0  0  0  0
   32.9390   28.5080   37.5260 H   0  0  0  0  0  0  0  0  0  0  0  0
   40.9150   32.3770   37.3950 C   0  0  0  0  0  0  0  0  0  0  0  0
   42.0810   31.6830   37.6800 C   0  0  0  0  0  0  0  0  0  0  0  0
   41.9430   30.4050   38.2350 C   0  0  0  0  0  0  0  0  0  0  0  0
   40.7050   29.8990   38.4710 N   0  0  0  0  0  0  0  0  0  0  0  0
   39.6070   30.6160   38.1750 C   0  0  0  0  0  0  0  0  0  0  0  0
   39.6990   31.8420   37.6420 N   0  0  0  0  0  0  0  0  0  0  0  0
   40.9550   33.3670   36.9650 H   0  0  0  0  0  0  0  0  0  0  0  0
   42.8470   29.8890   38.4470 H   0  0  0  0  0  0  0  0  0  0  0  0
   43.3800   32.3490   37.3740 C   0  0  0  0  0  0  0  0  0  0  0  0
   43.9060   31.6560   36.3140 F   0  0  0  0  0  0  0  0  0  0  0  0
   44.1850   32.2450   38.4900 F   0  0  0  0  0  0  0  0  0  0  0  0
   43.1130   33.6810   37.0820 F   0  0  0  0  0  0  0  0  0  0  0  0
   36.4600   28.2990   41.2580 C   0  0  0  0  0  3  0  0  0  0  0  0
   36.8710   26.8610   41.2630 C   0  0  0  0  0  2  0  0  0  0  0  0
   37.4400   26.6170   42.6400 C   0  0  0  0  0  2  0  0  0  0  0  0
   37.0000   27.8120   43.4810 C   0  0  0  0  0  2  0  0  0  0  0  0
   37.1090   28.9260   42.4320 C   0  0  0  0  0  2  0  0  0  0  0  0
  1  9  1  0  0  0  0
  1 10  1  0  0  0  0
  2  1  2  0  0  0  0
  3  4  2  0  0  0  0
  3  2  1  0  0  0  0
  4  8  1  0  0  0  0
  5  4  1  0  0  0  0
  5  6  1  0  0  0  0
  6  7  2  0  0  0  0
  8  7  1  0  0  0  0
  8  9  2  0  0  0  0
  9 26  1  0  0  0  0
 11  3  1  0  0  0  0
 12  5  1  0  0  0  0
 13  6  1  0  0  0  0
 14 19  2  0  0  0  0
 14 15  1  0  0  0  0
 15 16  2  0  0  0  0
 16 21  1  0  0  0  0
 16 17  1  0  0  0  0
 18  2  1  0  0  0  0
 18 17  2  0  0  0  0
 19 18  1  0  0  0  0
 20 14  1  0  0  0  0
 22 15  1  0  0  0  0
 22 24  1  0  0  0  0
 23 22  1  0  0  0  0
 25 22  1  0  0  0  0
 26 27  1  0  0  0  0
 26 30  1  0  0  0  0
 27 28  1  0  0  0  0
 28 29  1  0  0  0  0
 30 29  1  0  0  0  0
M  END
>  <minimizedAffinity>
-5.26653242

$$$$
