
 OpenBabel03252503143D

 30 33  0  0  0  0  0  0  0  0999 V2000
   40.4640   33.5480   39.6560 C   0  0  0  0  0  0  0  0  0  0  0  0
   39.4980   32.5600   39.3600 C   0  0  0  0  0  0  0  0  0  0  0  0
   39.6510   31.9550   38.1290 C   0  0  0  0  0  0  0  0  0  0  0  0
   40.6480   32.2810   37.2680 N   0  0  0  0  0  0  0  0  0  0  0  0
   41.5480   33.2420   37.6120 C   0  0  0  0  0  0  0  0  0  0  0  0
   41.4510   33.8670   38.8010 N   0  0  0  0  0  0  0  0  0  0  0  0
   40.3780   34.0530   40.6280 H   0  0  0  0  0  0  0  0  0  0  0  0
   42.3300   33.4780   36.9030 H   0  0  0  0  0  0  0  0  0  0  0  0
   38.7340   30.9640   37.7470 C   0  0  0  0  0  0  0  0  0  0  0  0
   37.5170   30.9790   37.1290 C   0  0  0  0  0  0  0  0  0  0  0  0
   36.8270   29.8750   36.8690 C   0  0  0  0  0  0  0  0  0  0  0  0
   37.4120   28.6840   37.2610 C   0  0  0  0  0  0  0  0  0  0  0  0
   38.9940   29.2260   38.0180 S   0  0  0  0  0  0  0  0  0  0  0  0
   37.1420   31.9880   36.8590 H   0  0  0  0  0  0  0  0  0  0  0  0
   35.8610   29.8070   36.3850 H   0  0  0  0  0  0  0  0  0  0  0  0
   37.0830   27.6660   37.1760 H   0  0  0  0  0  0  0  0  0  0  0  0
   38.4840   32.2610   40.2900 C   0  0  0  0  0  0  0  0  0  0  0  0
   37.4090   32.9220   40.1700 O   0  0  0  0  0  0  0  0  0  0  0  0
   38.7100   31.2170   41.3430 C   0  0  0  0  0  0  0  0  0  0  0  0
   39.8470   31.0420   42.0980 C   0  0  0  0  0  0  0  0  0  0  0  0
   39.5950   29.9940   42.9020 N   0  0  0  0  0  0  0  0  0  0  0  0
   38.3300   29.5410   42.6400 C   0  0  0  0  0  0  0  0  0  0  0  0
   37.7910   30.3010   41.6780 N   0  0  0  0  0  0  0  0  0  0  0  0
   40.6940   31.6820   41.9720 H   0  0  0  0  0  0  0  0  0  0  0  0
   40.2990   29.6500   43.5790 H   0  0  0  0  0  0  0  0  0  0  0  0
   37.6980   28.3760   43.3480 C   0  0  0  0  0  3  0  0  0  0  0  0
   38.6750   27.2960   43.6800 C   0  0  0  0  0  2  0  0  0  0  0  0
   38.4380   26.2250   42.6400 C   0  0  0  0  0  2  0  0  0  0  0  0
   37.0150   26.3630   42.1860 C   0  0  0  0  0  2  0  0  0  0  0  0
   36.5960   27.7700   42.5120 C   0  0  0  0  0  2  0  0  0  0  0  0
  1  7  1  0  0  0  0
  2  1  1  0  0  0  0
  2 17  1  0  0  0  0
  3  2  2  0  0  0  0
  4  5  2  0  0  0  0
  4  3  1  0  0  0  0
  5  6  1  0  0  0  0
  6  1  2  0  0  0  0
  8  5  1  0  0  0  0
  9 13  1  0  0  0  0
  9  3  1  0  0  0  0
 10  9  2  0  0  0  0
 11 10  1  0  0  0  0
 11 12  2  0  0  0  0
 12 13  1  0  0  0  0
 14 10  1  0  0  0  0
 15 11  1  0  0  0  0
 16 12  1  0  0  0  0
 17 19  1  0  0  0  0
 18 17  2  0  0  0  0
 19 23  1  0  0  0  0
 19 20  2  0  0  0  0
 20 21  1  0  0  0  0
 21 25  1  0  0  0  0
 22 21  1  0  0  0  0
 22 26  1  0  0  0  0
 23 22  2  0  0  0  0
 24 20  1  0  0  0  0
 26 27  1  0  0  0  0
 28 27  1  0  0  0  0
 29 30  1  0  0  0  0
 29 28  1  0  0  0  0
 30 26  1  0  0  0  0
M  END
>  <minimizedAffinity>
-5.82324266

$$$$

 OpenBabel03252503143D

 30 33  0  0  0  0  0  0  0  0999 V2000
   39.3540   27.8970   43.3130 C   0  0  0  0  0  0  0  0  0  0  0  0
   38.3190   27.2650   42.5880 C   0  0  0  0  0  0  0  0  0  0  0  0
   38.7130   26.1550   41.8700 C   0  0  0  0  0  0  0  0  0  0  0  0
   39.9930   25.7030   41.8570 N   0  0  0  0  0  0  0  0  0  0  0  0
   40.9450   26.3560   42.5770 C   0  0  0  0  0  0  0  0  0  0  0  0
   40.6210   27.4460   43.2990 N   0  0  0  0  0  0  0  0  0  0  0  0
   39.0810   28.7860   43.8990 H   0  0  0  0  0  0  0  0  0  0  0  0
   41.9550   25.9710   42.5460 H   0  0  0  0  0  0  0  0  0  0  0  0
   37.7530   25.4640   41.1150 C   0  0  0  0  0  0  0  0  0  0  0  0
   36.9040   24.4270   41.3740 C   0  0  0  0  0  0  0  0  0  0  0  0
   36.0650   23.9390   40.4680 C   0  0  0  0  0  0  0  0  0  0  0  0
   36.0900   24.5450   39.2250 C   0  0  0  0  0  0  0  0  0  0  0  0
   37.3730   25.8430   39.4210 S   0  0  0  0  0  0  0  0  0  0  0  0
   36.9680   24.0150   42.4030 H   0  0  0  0  0  0  0  0  0  0  0  0
   35.3660   23.1230   40.5980 H   0  0  0  0  0  0  0  0  0  0  0  0
   35.5310   24.3570   38.3290 H   0  0  0  0  0  0  0  0  0  0  0  0
   37.0080   27.7760   42.6360 C   0  0  0  0  0  0  0  0  0  0  0  0
   36.2480   27.2720   43.5170 O   0  0  0  0  0  0  0  0  0  0  0  0
   36.5820   28.8520   41.6820 C   0  0  0  0  0  0  0  0  0  0  0  0
   35.4440   28.8620   40.9080 C   0  0  0  0  0  0  0  0  0  0  0  0
   35.4810   30.0150   40.2170 N   0  0  0  0  0  0  0  0  0  0  0  0
   36.6180   30.6920   40.5650 C   0  0  0  0  0  0  0  0  0  0  0  0
   37.2910   29.9690   41.4680 N   0  0  0  0  0  0  0  0  0  0  0  0
   34.7490   28.0500   40.9430 H   0  0  0  0  0  0  0  0  0  0  0  0
   34.7300   30.2710   39.5510 H   0  0  0  0  0  0  0  0  0  0  0  0
   37.0000   32.0290   39.9940 C   0  0  0  0  0  3  0  0  0  0  0  0
   37.2540   31.9830   38.5220 C   0  0  0  0  0  2  0  0  0  0  0  0
   38.7590   31.9880   38.3860 C   0  0  0  0  0  2  0  0  0  0  0  0
   39.3050   32.6670   39.6080 C   0  0  0  0  0  2  0  0  0  0  0  0
   38.2420   32.5670   40.6660 C   0  0  0  0  0  2  0  0  0  0  0  0
  1  7  1  0  0  0  0
  2 17  1  0  0  0  0
  2  1  2  0  0  0  0
  3  2  1  0  0  0  0
  4  3  2  0  0  0  0
  4  5  1  0  0  0  0
  5  6  2  0  0  0  0
  6  1  1  0  0  0  0
  8  5  1  0  0  0  0
  9 10  2  0  0  0  0
  9  3  1  0  0  0  0
 10 14  1  0  0  0  0
 11 15  1  0  0  0  0
 11 10  1  0  0  0  0
 12 13  1  0  0  0  0
 12 11  2  0  0  0  0
 13  9  1  0  0  0  0
 16 12  1  0  0  0  0
 17 18  2  0  0  0  0
 19 17  1  0  0  0  0
 20 24  1  0  0  0  0
 20 19  2  0  0  0  0
 21 22  1  0  0  0  0
 21 20  1  0  0  0  0
 22 23  2  0  0  0  0
 23 19  1  0  0  0  0
 25 21  1  0  0  0  0
 26 22  1  0  0  0  0
 26 30  1  0  0  0  0
 27 26  1  0  0  0  0
 28 27  1  0  0  0  0
 28 29  1  0  0  0  0
 29 30  1  0  0  0  0
M  END
>  <minimizedAffinity>
-5.71275854

$$$$

 OpenBabel03252503143D

 30 33  0  0  0  0  0  0  0  0999 V2000
   38.7520   28.7630   37.1770 C   0  0  0  0  0  0  0  0  0  0  0  0
   38.9180   29.9640   37.9030 C   0  0  0  0  0  0  0  0  0  0  0  0
   40.2290   30.3590   38.0690 C   0  0  0  0  0  0  0  0  0  0  0  0
   41.2790   29.6530   37.5780 N   0  0  0  0  0  0  0  0  0  0  0  0
   41.0530   28.5030   36.8870 C   0  0  0  0  0  0  0  0  0  0  0  0
   39.7940   28.0660   36.6910 N   0  0  0  0  0  0  0  0  0  0  0  0
   37.7210   28.4130   37.0220 H   0  0  0  0  0  0  0  0  0  0  0  0
   41.9110   27.9640   36.5090 H   0  0  0  0  0  0  0  0  0  0  0  0
   40.4920   31.5400   38.7810 C   0  0  0  0  0  0  0  0  0  0  0  0
   40.6600   32.8470   38.4280 C   0  0  0  0  0  0  0  0  0  0  0  0
   40.9050   33.8070   39.3120 C   0  0  0  0  0  0  0  0  0  0  0  0
   40.9820   33.4110   40.6350 C   0  0  0  0  0  0  0  0  0  0  0  0
   40.6880   31.6020   40.5470 S   0  0  0  0  0  0  0  0  0  0  0  0
   40.5780   33.0530   37.3400 H   0  0  0  0  0  0  0  0  0  0  0  0
   41.0490   34.8610   39.1100 H   0  0  0  0  0  0  0  0  0  0  0  0
   41.1640   33.9660   41.5360 H   0  0  0  0  0  0  0  0  0  0  0  0
   37.7940   30.6560   38.3900 C   0  0  0  0  0  0  0  0  0  0  0  0
   37.3580   31.5930   37.6550 O   0  0  0  0  0  0  0  0  0  0  0  0
   37.1840   30.2740   39.7060 C   0  0  0  0  0  0  0  0  0  0  0  0
   36.2890   31.0140   40.4440 C   0  0  0  0  0  0  0  0  0  0  0  0
   36.0220   30.2800   41.5390 N   0  0  0  0  0  0  0  0  0  0  0  0
   36.7410   29.1180   41.4680 C   0  0  0  0  0  0  0  0  0  0  0  0
   37.4540   29.1210   40.3340 N   0  0  0  0  0  0  0  0  0  0  0  0
   35.9510   31.9690   40.1010 H   0  0  0  0  0  0  0  0  0  0  0  0
   35.3670   30.6150   42.2690 H   0  0  0  0  0  0  0  0  0  0  0  0
   36.6980   28.0450   42.5190 C   0  0  0  0  0  3  0  0  0  0  0  0
   37.5950   28.3300   43.6800 C   0  0  0  0  0  2  0  0  0  0  0  0
   38.8060   27.4530   43.4610 C   0  0  0  0  0  2  0  0  0  0  0  0
   38.3530   26.2800   42.6430 C   0  0  0  0  0  2  0  0  0  0  0  0
   37.0940   26.7070   41.9400 C   0  0  0  0  0  2  0  0  0  0  0  0
  1  2  1  0  0  0  0
  2  3  2  0  0  0  0
  2 17  1  0  0  0  0
  3  9  1  0  0  0  0
  4  3  1  0  0  0  0
  5  4  2  0  0  0  0
  6  5  1  0  0  0  0
  6  1  2  0  0  0  0
  7  1  1  0  0  0  0
  8  5  1  0  0  0  0
  9 13  1  0  0  0  0
 10  9  2  0  0  0  0
 10 11  1  0  0  0  0
 11 12  2  0  0  0  0
 12 16  1  0  0  0  0
 13 12  1  0  0  0  0
 14 10  1  0  0  0  0
 15 11  1  0  0  0  0
 17 19  1  0  0  0  0
 18 17  2  0  0  0  0
 19 23  1  0  0  0  0
 19 20  2  0  0  0  0
 20 21  1  0  0  0  0
 21 25  1  0  0  0  0
 22 21  1  0  0  0  0
 22 26  1  0  0  0  0
 23 22  2  0  0  0  0
 24 20  1  0  0  0  0
 26 27  1  0  0  0  0
 28 27  1  0  0  0  0
 29 28  1  0  0  0  0
 30 26  1  0  0  0  0
 30 29  1  0  0  0  0
M  END
>  <minimizedAffinity>
-5.59306622

$$$$

 OpenBabel03252503143D

 30 33  0  0  0  0  0  0  0  0999 V2000
   39.9590   32.5960   39.9110 C   0  0  0  0  0  0  0  0  0  0  0  0
   39.0630   31.5070   39.8080 C   0  0  0  0  0  0  0  0  0  0  0  0
   37.7290   31.8590   39.7810 C   0  0  0  0  0  0  0  0  0  0  0  0
   37.3070   33.1470   39.8500 N   0  0  0  0  0  0  0  0  0  0  0  0
   38.2190   34.1520   39.9480 C   0  0  0  0  0  0  0  0  0  0  0  0
   39.5360   33.8710   39.9780 N   0  0  0  0  0  0  0  0  0  0  0  0
   41.0310   32.3580   39.9350 H   0  0  0  0  0  0  0  0  0  0  0  0
   37.8500   35.1670   40.0010 H   0  0  0  0  0  0  0  0  0  0  0  0
   36.7660   30.8440   39.6840 C   0  0  0  0  0  0  0  0  0  0  0  0
   35.9460   30.2200   40.5790 C   0  0  0  0  0  0  0  0  0  0  0  0
   35.0960   29.2610   40.2310 C   0  0  0  0  0  0  0  0  0  0  0  0
   35.0800   28.9170   38.8910 C   0  0  0  0  0  0  0  0  0  0  0  0
   36.3400   30.0340   38.1600 S   0  0  0  0  0  0  0  0  0  0  0  0
   36.0420   30.5730   41.6270 H   0  0  0  0  0  0  0  0  0  0  0  0
   34.4170   28.7220   40.8800 H   0  0  0  0  0  0  0  0  0  0  0  0
   34.5040   28.1930   38.3480 H   0  0  0  0  0  0  0  0  0  0  0  0
   39.5560   30.1910   39.7400 C   0  0  0  0  0  0  0  0  0  0  0  0
   39.9290   29.7970   38.5940 O   0  0  0  0  0  0  0  0  0  0  0  0
   39.6160   29.3430   40.9760 C   0  0  0  0  0  0  0  0  0  0  0  0
   40.4760   29.4960   42.0390 C   0  0  0  0  0  0  0  0  0  0  0  0
   40.1660   28.5160   42.9060 N   0  0  0  0  0  0  0  0  0  0  0  0
   39.1380   27.7820   42.3800 C   0  0  0  0  0  0  0  0  0  0  0  0
   38.8040   28.2980   41.1900 N   0  0  0  0  0  0  0  0  0  0  0  0
   41.2020   30.2820   42.0490 H   0  0  0  0  0  0  0  0  0  0  0  0
   40.6720   28.4060   43.8020 H   0  0  0  0  0  0  0  0  0  0  0  0
   38.5210   26.5970   43.0690 C   0  0  0  0  0  3  0  0  0  0  0  0
   39.2850   25.3330   42.8510 C   0  0  0  0  0  2  0  0  0  0  0  0
   38.4970   24.5770   41.8060 C   0  0  0  0  0  2  0  0  0  0  0  0
   37.0720   25.0330   41.9190 C   0  0  0  0  0  2  0  0  0  0  0  0
   37.1040   26.3750   42.5950 C   0  0  0  0  0  2  0  0  0  0  0  0
  1  7  1  0  0  0  0
  1  6  1  0  0  0  0
  2  1  2  0  0  0  0
  3  2  1  0  0  0  0
  3  4  2  0  0  0  0
  4  5  1  0  0  0  0
  5  6  2  0  0  0  0
  5  8  1  0  0  0  0
  9  3  1  0  0  0  0
  9 10  2  0  0  0  0
 10 14  1  0  0  0  0
 11 10  1  0  0  0  0
 11 15  1  0  0  0  0
 12 11  2  0  0  0  0
 13 12  1  0  0  0  0
 13  9  1  0  0  0  0
 16 12  1  0  0  0  0
 17  2  1  0  0  0  0
 17 19  1  0  0  0  0
 18 17  2  0  0  0  0
 19 23  1  0  0  0  0
 19 20  2  0  0  0  0
 20 24  1  0  0  0  0
 20 21  1  0  0  0  0
 21 25  1  0  0  0  0
 22 21  1  0  0  0  0
 22 26  1  0  0  0  0
 23 22  2  0  0  0  0
 27 26  1  0  0  0  0
 28 29  1  0  0  0  0
 28 27  1  0  0  0  0
 29 30  1  0  0  0  0
 30 26  1  0  0  0  0
M  END
>  <minimizedAffinity>
-5.51445293

$$$$

 OpenBabel03252503143D

 30 33  0  0  0  0  0  0  0  0999 V2000
   36.1120   29.2320   38.5050 C   0  0  0  0  0  0  0  0  0  0  0  0
   36.7690   30.2050   39.2930 C   0  0  0  0  0  0  0  0  0  0  0  0
   37.4950   31.1330   38.5750 C   0  0  0  0  0  0  0  0  0  0  0  0
   37.5750   31.1150   37.2200 N   0  0  0  0  0  0  0  0  0  0  0  0
   36.9200   30.1520   36.5180 C   0  0  0  0  0  0  0  0  0  0  0  0
   36.1930   29.2190   37.1630 N   0  0  0  0  0  0  0  0  0  0  0  0
   35.5220   28.4740   39.0390 H   0  0  0  0  0  0  0  0  0  0  0  0
   37.0040   30.1670   35.4400 H   0  0  0  0  0  0  0  0  0  0  0  0
   38.1840   32.1350   39.2730 C   0  0  0  0  0  0  0  0  0  0  0  0
   37.8560   33.3830   39.7180 C   0  0  0  0  0  0  0  0  0  0  0  0
   38.7090   34.1610   40.3750 C   0  0  0  0  0  0  0  0  0  0  0  0
   39.9700   33.6360   40.5930 C   0  0  0  0  0  0  0  0  0  0  0  0
   39.8710   31.9790   39.8110 S   0  0  0  0  0  0  0  0  0  0  0  0
   36.8190   33.7050   39.4890 H   0  0  0  0  0  0  0  0  0  0  0  0
   38.5230   35.1570   40.7580 H   0  0  0  0  0  0  0  0  0  0  0  0
   40.8340   34.0380   41.0860 H   0  0  0  0  0  0  0  0  0  0  0  0
   36.6510   30.1760   40.6950 C   0  0  0  0  0  0  0  0  0  0  0  0
   35.8550   31.0230   41.2020 O   0  0  0  0  0  0  0  0  0  0  0  0
   37.4400   29.1850   41.4980 C   0  0  0  0  0  0  0  0  0  0  0  0
   38.4950   29.4610   42.3380 C   0  0  0  0  0  0  0  0  0  0  0  0
   38.8860   28.2750   42.8370 N   0  0  0  0  0  0  0  0  0  0  0  0
   38.0850   27.2980   42.3100 C   0  0  0  0  0  0  0  0  0  0  0  0
   37.1960   27.8670   41.4870 N   0  0  0  0  0  0  0  0  0  0  0  0
   38.8380   30.4640   42.4780 H   0  0  0  0  0  0  0  0  0  0  0  0
   39.6740   28.2020   43.5050 H   0  0  0  0  0  0  0  0  0  0  0  0
   38.2240   25.8380   42.6380 C   0  0  0  0  0  3  0  0  0  0  0  0
   39.4310   25.2130   42.0180 C   0  0  0  0  0  2  0  0  0  0  0  0
   38.9030   24.4440   40.8290 C   0  0  0  0  0  2  0  0  0  0  0  0
   37.4770   24.0910   41.1360 C   0  0  0  0  0  2  0  0  0  0  0  0
   37.0100   25.0640   42.1820 C   0  0  0  0  0  2  0  0  0  0  0  0
  1  7  1  0  0  0  0
  1  2  1  0  0  0  0
  2 17  1  0  0  0  0
  3  9  1  0  0  0  0
  3  2  2  0  0  0  0
  4  3  1  0  0  0  0
  5  6  1  0  0  0  0
  5  4  2  0  0  0  0
  6  1  2  0  0  0  0
  8  5  1  0  0  0  0
  9 10  2  0  0  0  0
  9 13  1  0  0  0  0
 10 11  1  0  0  0  0
 11 12  2  0  0  0  0
 11 15  1  0  0  0  0
 12 16  1  0  0  0  0
 13 12  1  0  0  0  0
 14 10  1  0  0  0  0
 17 18  2  0  0  0  0
 17 19  1  0  0  0  0
 19 20  2  0  0  0  0
 20 24  1  0  0  0  0
 20 21  1  0  0  0  0
 21 25  1  0  0  0  0
 22 26  1  0  0  0  0
 22 21  1  0  0  0  0
 23 19  1  0  0  0  0
 23 22  2  0  0  0  0
 27 26  1  0  0  0  0
 28 29  1  0  0  0  0
 28 27  1  0  0  0  0
 29 30  1  0  0  0  0
 30 26  1  0  0  0  0
M  END
>  <minimizedAffinity>
-5.50812006

$$$$

 OpenBabel03252503143D

 30 33  0  0  0  0  0  0  0  0999 V2000
   39.3430   32.1000   38.3190 C   0  0  0  0  0  0  0  0  0  0  0  0
   39.8550   31.9440   39.6260 C   0  0  0  0  0  0  0  0  0  0  0  0
   41.1730   31.5410   39.6840 C   0  0  0  0  0  0  0  0  0  0  0  0
   41.9220   31.3100   38.5760 N   0  0  0  0  0  0  0  0  0  0  0  0
   41.3700   31.4780   37.3440 C   0  0  0  0  0  0  0  0  0  0  0  0
   40.0880   31.8710   37.2220 N   0  0  0  0  0  0  0  0  0  0  0  0
   38.2960   32.4210   38.2280 H   0  0  0  0  0  0  0  0  0  0  0  0
   41.9930   31.2860   36.4800 H   0  0  0  0  0  0  0  0  0  0  0  0
   41.7670   31.3560   40.9420 C   0  0  0  0  0  0  0  0  0  0  0  0
   41.8350   30.3120   41.8190 C   0  0  0  0  0  0  0  0  0  0  0  0
   42.4770   30.3870   42.9790 C   0  0  0  0  0  0  0  0  0  0  0  0
   43.0850   31.5960   43.2630 C   0  0  0  0  0  0  0  0  0  0  0  0
   42.6930   32.6160   41.7890 S   0  0  0  0  0  0  0  0  0  0  0  0
   41.3110   29.3900   41.4920 H   0  0  0  0  0  0  0  0  0  0  0  0
   42.5740   29.6060   43.7230 H   0  0  0  0  0  0  0  0  0  0  0  0
   43.6580   31.9250   44.1090 H   0  0  0  0  0  0  0  0  0  0  0  0
   39.0350   32.1970   40.7420 C   0  0  0  0  0  0  0  0  0  0  0  0
   39.0980   33.3690   41.2220 O   0  0  0  0  0  0  0  0  0  0  0  0
   38.1560   31.1140   41.2930 C   0  0  0  0  0  0  0  0  0  0  0  0
   36.8380   30.8810   40.9740 C   0  0  0  0  0  0  0  0  0  0  0  0
   36.4660   29.8170   41.7070 N   0  0  0  0  0  0  0  0  0  0  0  0
   37.5360   29.4110   42.4570 C   0  0  0  0  0  0  0  0  0  0  0  0
   38.5750   30.2160   42.1960 N   0  0  0  0  0  0  0  0  0  0  0  0
   36.3270   31.4990   40.2660 H   0  0  0  0  0  0  0  0  0  0  0  0
   35.5060   29.4310   41.6530 H   0  0  0  0  0  0  0  0  0  0  0  0
   37.4980   28.2450   43.4030 C   0  0  0  0  0  3  0  0  0  0  0  0
   38.7880   27.4930   43.4560 C   0  0  0  0  0  2  0  0  0  0  0  0
   38.5520   26.2570   42.6190 C   0  0  0  0  0  2  0  0  0  0  0  0
   37.0780   25.9790   42.6580 C   0  0  0  0  0  2  0  0  0  0  0  0
   36.4060   27.2740   43.0190 C   0  0  0  0  0  2  0  0  0  0  0  0
  1  2  1  0  0  0  0
  2  3  2  0  0  0  0
  2 17  1  0  0  0  0
  3  9  1  0  0  0  0
  4  3  1  0  0  0  0
  5  4  2  0  0  0  0
  6  5  1  0  0  0  0
  6  1  2  0  0  0  0
  7  1  1  0  0  0  0
  8  5  1  0  0  0  0
  9 13  1  0  0  0  0
  9 10  2  0  0  0  0
 10 11  1  0  0  0  0
 11 12  2  0  0  0  0
 11 15  1  0  0  0  0
 12 16  1  0  0  0  0
 13 12  1  0  0  0  0
 14 10  1  0  0  0  0
 17 18  2  0  0  0  0
 17 19  1  0  0  0  0
 19 23  1  0  0  0  0
 20 19  2  0  0  0  0
 20 21  1  0  0  0  0
 21 22  1  0  0  0  0
 22 26  1  0  0  0  0
 23 22  2  0  0  0  0
 24 20  1  0  0  0  0
 25 21  1  0  0  0  0
 26 27  1  0  0  0  0
 28 29  1  0  0  0  0
 28 27  1  0  0  0  0
 29 30  1  0  0  0  0
 30 26  1  0  0  0  0
M  END
>  <minimizedAffinity>
-5.47192144

$$$$

 OpenBabel03252503143D

 30 33  0  0  0  0  0  0  0  0999 V2000
   37.0740   30.1470   38.1530 C   0  0  0  0  0  0  0  0  0  0  0  0
   37.2140   29.8690   39.5310 C   0  0  0  0  0  0  0  0  0  0  0  0
   37.2760   28.5270   39.8450 C   0  0  0  0  0  0  0  0  0  0  0  0
   37.2070   27.5480   38.9080 N   0  0  0  0  0  0  0  0  0  0  0  0
   37.0720   27.8800   37.5960 C   0  0  0  0  0  0  0  0  0  0  0  0
   37.0070   29.1740   37.2270 N   0  0  0  0  0  0  0  0  0  0  0  0
   37.0210   31.2050   37.8600 H   0  0  0  0  0  0  0  0  0  0  0  0
   37.0210   27.0760   36.8730 H   0  0  0  0  0  0  0  0  0  0  0  0
   37.4110   28.1560   41.1920 C   0  0  0  0  0  0  0  0  0  0  0  0
   36.5320   27.9530   42.2160 C   0  0  0  0  0  0  0  0  0  0  0  0
   36.9170   27.5940   43.4350 C   0  0  0  0  0  0  0  0  0  0  0  0
   38.2780   27.4300   43.6210 C   0  0  0  0  0  0  0  0  0  0  0  0
   38.9740   27.8160   41.9670 S   0  0  0  0  0  0  0  0  0  0  0  0
   35.4650   28.1140   41.9570 H   0  0  0  0  0  0  0  0  0  0  0  0
   36.2840   27.4160   44.2950 H   0  0  0  0  0  0  0  0  0  0  0  0
   38.8510   27.1500   44.4840 H   0  0  0  0  0  0  0  0  0  0  0  0
   37.2800   30.9240   40.4610 C   0  0  0  0  0  0  0  0  0  0  0  0
   36.1980   31.2010   41.0630 O   0  0  0  0  0  0  0  0  0  0  0  0
   38.5730   31.6470   40.6910 C   0  0  0  0  0  0  0  0  0  0  0  0
   39.4440   31.4620   41.7410 C   0  0  0  0  0  0  0  0  0  0  0  0
   40.4570   32.3220   41.5320 N   0  0  0  0  0  0  0  0  0  0  0  0
   40.2060   33.0150   40.3790 C   0  0  0  0  0  0  0  0  0  0  0  0
   39.0440   32.5930   39.8660 N   0  0  0  0  0  0  0  0  0  0  0  0
   39.2370   30.7440   42.5060 H   0  0  0  0  0  0  0  0  0  0  0  0
   41.2570   32.3850   42.1870 H   0  0  0  0  0  0  0  0  0  0  0  0
   41.1230   34.0680   39.8230 C   0  0  0  0  0  3  0  0  0  0  0  0
   41.4970   33.8230   38.3980 C   0  0  0  0  0  2  0  0  0  0  0  0
   42.8980   33.2600   38.4540 C   0  0  0  0  0  2  0  0  0  0  0  0
   43.5250   33.7760   39.7150 C   0  0  0  0  0  2  0  0  0  0  0  0
   42.3960   34.1570   40.6320 C   0  0  0  0  0  2  0  0  0  0  0  0
  1  2  1  0  0  0  0
  2  3  2  0  0  0  0
  2 17  1  0  0  0  0
  3  9  1  0  0  0  0
  4  3  1  0  0  0  0
  5  4  2  0  0  0  0
  6  5  1  0  0  0  0
  6  1  2  0  0  0  0
  7  1  1  0  0  0  0
  8  5  1  0  0  0  0
  9 13  1  0  0  0  0
  9 10  2  0  0  0  0
 10 11  1  0  0  0  0
 11 12  2  0  0  0  0
 11 15  1  0  0  0  0
 12 16  1  0  0  0  0
 13 12  1  0  0  0  0
 14 10  1  0  0  0  0
 17 19  1  0  0  0  0
 17 18  2  0  0  0  0
 19 20  2  0  0  0  0
 20 24  1  0  0  0  0
 21 20  1  0  0  0  0
 21 25  1  0  0  0  0
 22 21  1  0  0  0  0
 23 22  2  0  0  0  0
 23 19  1  0  0  0  0
 26 22  1  0  0  0  0
 26 30  1  0  0  0  0
 27 28  1  0  0  0  0
 27 26  1  0  0  0  0
 28 29  1  0  0  0  0
 29 30  1  0  0  0  0
M  END
>  <minimizedAffinity>
-5.20557594

$$$$

 OpenBabel03252503143D

 30 33  0  0  0  0  0  0  0  0999 V2000
   36.9990   31.6420   39.1940 C   0  0  0  0  0  0  0  0  0  0  0  0
   37.0600   30.5150   40.0440 C   0  0  0  0  0  0  0  0  0  0  0  0
   38.0070   30.5980   41.0440 C   0  0  0  0  0  0  0  0  0  0  0  0
   38.8180   31.6750   41.2020 N   0  0  0  0  0  0  0  0  0  0  0  0
   38.7110   32.7300   40.3490 C   0  0  0  0  0  0  0  0  0  0  0  0
   37.8040   32.7070   39.3530 N   0  0  0  0  0  0  0  0  0  0  0  0
   36.2570   31.6150   38.3830 H   0  0  0  0  0  0  0  0  0  0  0  0
   39.3720   33.5720   40.5020 H   0  0  0  0  0  0  0  0  0  0  0  0
   38.1420   29.5230   41.9360 C   0  0  0  0  0  0  0  0  0  0  0  0
   37.3890   29.0410   42.9680 C   0  0  0  0  0  0  0  0  0  0  0  0
   37.7400   27.9770   43.6800 C   0  0  0  0  0  0  0  0  0  0  0  0
   38.9270   27.3660   43.3190 C   0  0  0  0  0  0  0  0  0  0  0  0
   39.5120   28.3920   41.9130 S   0  0  0  0  0  0  0  0  0  0  0  0
   36.4570   29.6080   43.1720 H   0  0  0  0  0  0  0  0  0  0  0  0
   37.1990   27.5370   44.5080 H   0  0  0  0  0  0  0  0  0  0  0  0
   39.4370   26.5090   43.7140 H   0  0  0  0  0  0  0  0  0  0  0  0
   36.1950   29.4240   39.8360 C   0  0  0  0  0  0  0  0  0  0  0  0
   34.9700   29.6310   40.0920 O   0  0  0  0  0  0  0  0  0  0  0  0
   36.7350   28.1160   39.3400 C   0  0  0  0  0  0  0  0  0  0  0  0
   37.2990   27.8720   38.1090 C   0  0  0  0  0  0  0  0  0  0  0  0
   37.6340   26.5700   38.1110 N   0  0  0  0  0  0  0  0  0  0  0  0
   37.2810   26.0330   39.3190 C   0  0  0  0  0  0  0  0  0  0  0  0
   36.7280   26.9930   40.0720 N   0  0  0  0  0  0  0  0  0  0  0  0
   37.3930   28.6520   37.3830 H   0  0  0  0  0  0  0  0  0  0  0  0
   38.0830   26.1250   37.2900 H   0  0  0  0  0  0  0  0  0  0  0  0
   37.5020   24.5940   39.6900 C   0  0  0  0  0  3  0  0  0  0  0  0
   36.5580   24.1110   40.7410 C   0  0  0  0  0  2  0  0  0  0  0  0
   37.3670   24.1050   42.0180 C   0  0  0  0  0  2  0  0  0  0  0  0
   38.8040   23.9340   41.6230 C   0  0  0  0  0  2  0  0  0  0  0  0
   38.9110   24.3760   40.1900 C   0  0  0  0  0  2  0  0  0  0  0  0
  1  6  2  0  0  0  0
  1  2  1  0  0  0  0
  2  3  2  0  0  0  0
  3  4  1  0  0  0  0
  3  9  1  0  0  0  0
  5  8  1  0  0  0  0
  5  4  2  0  0  0  0
  6  5  1  0  0  0  0
  7  1  1  0  0  0  0
  9 10  2  0  0  0  0
 10 14  1  0  0  0  0
 10 11  1  0  0  0  0
 11 15  1  0  0  0  0
 12 11  2  0  0  0  0
 12 16  1  0  0  0  0
 13  9  1  0  0  0  0
 13 12  1  0  0  0  0
 17  2  1  0  0  0  0
 17 18  2  0  0  0  0
 19 17  1  0  0  0  0
 19 23  1  0  0  0  0
 20 21  1  0  0  0  0
 20 19  2  0  0  0  0
 21 22  1  0  0  0  0
 22 26  1  0  0  0  0
 22 23  2  0  0  0  0
 24 20  1  0  0  0  0
 25 21  1  0  0  0  0
 26 30  1  0  0  0  0
 26 27  1  0  0  0  0
 27 28  1  0  0  0  0
 29 28  1  0  0  0  0
 30 29  1  0  0  0  0
M  END
>  <minimizedAffinity>
-5.1791501

$$$$

 OpenBabel03252503143D

 30 33  0  0  0  0  0  0  0  0999 V2000
   36.5700   24.8930   41.4030 C   0  0  0  0  0  0  0  0  0  0  0  0
   37.5070   25.8400   41.8750 C   0  0  0  0  0  0  0  0  0  0  0  0
   38.8220   25.4240   41.8240 C   0  0  0  0  0  0  0  0  0  0  0  0
   39.1900   24.2030   41.3590 N   0  0  0  0  0  0  0  0  0  0  0  0
   38.2400   23.3350   40.9190 C   0  0  0  0  0  0  0  0  0  0  0  0
   36.9390   23.6840   40.9430 N   0  0  0  0  0  0  0  0  0  0  0  0
   35.5110   25.1850   41.4260 H   0  0  0  0  0  0  0  0  0  0  0  0
   38.5660   22.3700   40.5550 H   0  0  0  0  0  0  0  0  0  0  0  0
   39.8230   26.2980   42.2750 C   0  0  0  0  0  0  0  0  0  0  0  0
   40.2410   26.7120   43.5070 C   0  0  0  0  0  0  0  0  0  0  0  0
   41.2400   27.5690   43.6770 C   0  0  0  0  0  0  0  0  0  0  0  0
   41.8500   28.0320   42.5260 C   0  0  0  0  0  0  0  0  0  0  0  0
   40.9220   27.1790   41.1920 S   0  0  0  0  0  0  0  0  0  0  0  0
   39.6810   26.2790   44.3610 H   0  0  0  0  0  0  0  0  0  0  0  0
   41.6270   27.9430   44.6170 H   0  0  0  0  0  0  0  0  0  0  0  0
   42.6640   28.7150   42.3750 H   0  0  0  0  0  0  0  0  0  0  0  0
   37.0700   27.0920   42.3460 C   0  0  0  0  0  0  0  0  0  0  0  0
   36.8510   27.1700   43.5920 O   0  0  0  0  0  0  0  0  0  0  0  0
   36.8870   28.2350   41.3920 C   0  0  0  0  0  0  0  0  0  0  0  0
   35.7080   28.6430   40.8130 C   0  0  0  0  0  0  0  0  0  0  0  0
   36.0250   29.6960   40.0380 N   0  0  0  0  0  0  0  0  0  0  0  0
   37.3710   29.9220   40.1440 C   0  0  0  0  0  0  0  0  0  0  0  0
   37.8950   29.0180   40.9810 N   0  0  0  0  0  0  0  0  0  0  0  0
   34.7890   28.1370   41.0220 H   0  0  0  0  0  0  0  0  0  0  0  0
   35.3070   30.1960   39.4840 H   0  0  0  0  0  0  0  0  0  0  0  0
   38.0910   31.0220   39.4170 C   0  0  0  0  0  3  0  0  0  0  0  0
   39.0390   31.7760   40.2920 C   0  0  0  0  0  2  0  0  0  0  0  0
   38.3220   33.0640   40.6230 C   0  0  0  0  0  2  0  0  0  0  0  0
   37.3620   33.3310   39.5020 C   0  0  0  0  0  2  0  0  0  0  0  0
   37.1120   32.0110   38.8280 C   0  0  0  0  0  2  0  0  0  0  0  0
  1  7  1  0  0  0  0
  1  2  1  0  0  0  0
  2 17  1  0  0  0  0
  3  2  2  0  0  0  0
  3  9  1  0  0  0  0
  4  3  1  0  0  0  0
  5  6  1  0  0  0  0
  5  4  2  0  0  0  0
  6  1  2  0  0  0  0
  8  5  1  0  0  0  0
  9 10  2  0  0  0  0
 10 11  1  0  0  0  0
 10 14  1  0  0  0  0
 11 15  1  0  0  0  0
 12 11  2  0  0  0  0
 13  9  1  0  0  0  0
 13 12  1  0  0  0  0
 16 12  1  0  0  0  0
 17 18  2  0  0  0  0
 19 17  1  0  0  0  0
 20 24  1  0  0  0  0
 20 19  2  0  0  0  0
 21 22  1  0  0  0  0
 21 20  1  0  0  0  0
 22 23  2  0  0  0  0
 23 19  1  0  0  0  0
 25 21  1  0  0  0  0
 26 22  1  0  0  0  0
 26 27  1  0  0  0  0
 27 28  1  0  0  0  0
 29 28  1  0  0  0  0
 30 26  1  0  0  0  0
 30 29  1  0  0  0  0
M  END
>  <minimizedAffinity>
-5.15766573

$$$$
