
 OpenBabel03252507583D

 23 25  0  0  1  0  0  0  0  0999 V2000
   46.7920   32.3070   45.9720 C   0  0  1  0  0  0  0  0  0  0  0  0
   47.1050   32.5040   47.4230 C   0  0  0  0  0  0  0  0  0  0  0  0
   45.8390   31.8280   47.0220 C   0  0  2  0  0  0  0  0  0  0  0  0
   47.4220   31.5920   45.4120 H   0  0  0  0  0  0  0  0  0  0  0  0
   47.9450   31.8960   47.8100 H   0  0  0  0  0  0  0  0  0  0  0  0
   47.1460   33.5540   47.7330 H   0  0  0  0  0  0  0  0  0  0  0  0
   44.9110   32.4270   47.2250 H   0  0  0  0  0  0  0  0  0  0  0  0
   46.3500   34.7610   43.2780 C   0  0  0  0  0  0  0  0  0  0  0  0
   45.2910   35.5690   43.7510 C   0  0  0  0  0  0  0  0  0  0  0  0
   44.7230   35.2570   45.0120 C   0  0  0  0  0  0  0  0  0  0  0  0
   45.2420   34.1930   45.6830 N   0  0  0  0  0  0  0  0  0  0  0  0
   46.2650   33.4560   45.1640 C   0  0  0  0  0  0  0  0  0  0  0  0
   46.8110   33.7290   43.9880 N   0  0  0  0  0  0  0  0  0  0  0  0
   44.8820   36.4150   43.2150 H   0  0  0  0  0  0  0  0  0  0  0  0
   43.9120   35.8390   45.4260 H   0  0  0  0  0  0  0  0  0  0  0  0
   46.8450   35.1710   42.0100 C   0  0  0  0  0  0  0  0  0  0  0  0
   48.0640   35.4070   41.7410 O   0  0  0  0  0  0  0  0  0  0  0  0
   46.2930   35.3490   41.0750 H   0  0  0  0  0  0  0  0  0  0  0  0
   45.7270   30.3930   47.3920 C   0  0  0  0  0  3  0  0  0  0  0  0
   44.9670   29.5640   46.3860 C   0  0  0  0  0  2  0  0  0  0  0  0
   44.7920   28.2520   47.1540 C   0  0  0  0  0  2  0  0  0  0  0  0
   45.0580   28.5540   48.6070 C   0  0  0  0  0  2  0  0  0  0  0  0
   45.0030   30.0880   48.6600 C   0  0  0  0  0  2  0  0  0  0  0  0
  1  4  1  6  0  0  0
  1  3  1  0  0  0  0
  1  2  1  0  0  0  0
  2  6  1  0  0  0  0
  2  5  1  0  0  0  0
  3  7  1  1  0  0  0
  3 19  1  0  0  0  0
  3  2  1  0  0  0  0
  8  9  2  0  0  0  0
  8 13  1  0  0  0  0
  9 10  1  0  0  0  0
 10 15  1  0  0  0  0
 10 11  2  0  0  0  0
 12 11  1  0  0  0  0
 12  1  1  0  0  0  0
 13 12  2  0  0  0  0
 14  9  1  0  0  0  0
 16  8  1  0  0  0  0
 17 16  2  0  0  0  0
 18 16  1  0  0  0  0
 19 23  1  0  0  0  0
 20 21  1  0  0  0  0
 20 19  1  0  0  0  0
 21 22  1  0  0  0  0
 22 23  1  0  0  0  0
M  END
>  <minimizedAffinity>
-4.48984385

>  <minimizedRMSD>
1.29337347

$$$$
