
 OpenBabel03252502343D

 36 38  0  0  1  0  0  0  0  0999 V2000
   46.5340   31.2160   44.2840 C   0  0  2  0  0  0  0  0  0  0  0  0
   45.9760   30.3990   43.1030 C   0  0  0  0  0  0  0  0  0  0  0  0
   46.1810   28.9340   43.5370 C   0  0  0  0  0  0  0  0  0  0  0  0
   45.1160   28.7330   44.5820 C   0  0  0  0  0  0  0  0  0  0  0  0
   45.3730   29.6130   45.7660 C   0  0  0  0  0  0  0  0  0  0  0  0
   45.6560   31.0360   45.4550 C   0  0  1  0  0  0  0  0  0  0  0  0
   47.5570   30.7900   44.4610 H   0  0  0  0  0  0  0  0  0  0  0  0
   44.9030   30.5420   42.9870 H   0  0  0  0  0  0  0  0  0  0  0  0
   46.5970   30.6070   42.2210 H   0  0  0  0  0  0  0  0  0  0  0  0
   46.0630   28.2810   42.6710 H   0  0  0  0  0  0  0  0  0  0  0  0
   47.1830   28.8360   44.0240 H   0  0  0  0  0  0  0  0  0  0  0  0
   44.1400   28.9690   44.1100 H   0  0  0  0  0  0  0  0  0  0  0  0
   45.1770   27.6850   44.9360 H   0  0  0  0  0  0  0  0  0  0  0  0
   44.4360   29.5880   46.3830 H   0  0  0  0  0  0  0  0  0  0  0  0
   46.1660   29.1810   46.3820 H   0  0  0  0  0  0  0  0  0  0  0  0
   44.6580   31.4820   45.1570 H   0  0  0  0  0  0  0  0  0  0  0  0
   47.8750   34.3480   42.7050 C   0  0  0  0  0  0  0  0  0  0  0  0
   47.8390   33.0020   43.1230 C   0  0  0  0  0  0  0  0  0  0  0  0
   46.6820   32.5720   43.7950 C   0  0  0  0  0  0  0  0  0  0  0  0
   45.6740   33.4810   43.9990 N   0  0  0  0  0  0  0  0  0  0  0  0
   45.7510   34.7450   43.5860 C   0  0  0  0  0  0  0  0  0  0  0  0
   46.8590   35.1790   42.9360 N   0  0  0  0  0  0  0  0  0  0  0  0
   48.6450   32.3200   42.9460 H   0  0  0  0  0  0  0  0  0  0  0  0
   49.1150   34.7840   41.9970 C   0  0  0  0  0  0  0  0  0  0  0  0
   49.7360   33.7490   41.3660 F   0  0  0  0  0  0  0  0  0  0  0  0
   48.7800   35.8210   41.1220 F   0  0  0  0  0  0  0  0  0  0  0  0
   49.9850   35.3880   42.9290 F   0  0  0  0  0  0  0  0  0  0  0  0
   44.6330   35.6980   43.8300 C   0  0  0  0  0  0  0  0  0  0  0  0
   43.5890   35.4680   42.9740 F   0  0  0  0  0  0  0  0  0  0  0  0
   45.1090   37.0230   43.7080 F   0  0  0  0  0  0  0  0  0  0  0  0
   44.1840   35.6210   45.1220 F   0  0  0  0  0  0  0  0  0  0  0  0
   46.0420   31.6970   46.7110 C   0  0  0  0  0  0  0  0  0  0  0  0
   45.2110   31.5030   47.9190 C   0  0  0  0  0  0  0  0  0  0  0  0
   46.0370   32.2810   48.9570 C   0  0  0  0  0  0  0  0  0  0  0  0
   47.4680   32.0250   48.5350 C   0  0  0  0  0  0  0  0  0  0  0  0
   47.4100   31.2770   47.2140 C   0  0  0  0  0  0  0  0  0  0  0  0
  1  7  1  1  0  0  0
  1  6  1  0  0  0  0
  2  3  1  0  0  0  0
  2  1  1  0  0  0  0
  3 11  1  0  0  0  0
  3  4  1  0  0  0  0
  4 13  1  0  0  0  0
  4  5  1  0  0  0  0
  5 15  1  0  0  0  0
  5 14  1  0  0  0  0
  6 16  1  6  0  0  0
  6  5  1  0  0  0  0
  6 32  1  0  0  0  0
  8  2  1  0  0  0  0
  9  2  1  0  0  0  0
 10  3  1  0  0  0  0
 12  4  1  0  0  0  0
 17 22  2  0  0  0  0
 17 18  1  0  0  0  0
 18 19  2  0  0  0  0
 19 20  1  0  0  0  0
 19  1  1  0  0  0  0
 21 28  1  0  0  0  0
 21 20  2  0  0  0  0
 22 21  1  0  0  0  0
 23 18  1  0  0  0  0
 24 17  1  0  0  0  0
 24 27  1  0  0  0  0
 25 24  1  0  0  0  0
 26 24  1  0  0  0  0
 28 31  1  0  0  0  0
 29 28  1  0  0  0  0
 30 28  1  0  0  0  0
 32 36  1  0  0  0  0
 32 33  1  0  0  0  0
 33 34  1  0  0  0  0
 35 34  1  0  0  0  0
 36 35  1  0  0  0  0
M  END
>  <minimizedAffinity>
-6.1938529

>  <minimizedRMSD>
1.98660326

$$$$
