
 OpenBabel03252504253D

 17 18  0  0  0  0  0  0  0  0999 V2000
   44.3150   35.8340   44.1820 C   0  0  0  0  0  0  0  0  0  0  0  0
   44.4520   35.0720   43.0300 C   0  0  0  0  0  0  0  0  0  0  0  0
   45.0300   33.8060   43.1590 C   0  0  0  0  0  0  0  0  0  0  0  0
   45.4180   33.4120   44.3910 N   0  0  0  0  0  0  0  0  0  0  0  0
   45.2740   34.1710   45.4920 C   0  0  0  0  0  0  0  0  0  0  0  0
   44.7160   35.4070   45.4120 N   0  0  0  0  0  0  0  0  0  0  0  0
   43.8800   36.8320   44.1970 H   0  0  0  0  0  0  0  0  0  0  0  0
   45.1170   33.2550   42.2520 H   0  0  0  0  0  0  0  0  0  0  0  0
   45.5900   33.8280   46.4510 H   0  0  0  0  0  0  0  0  0  0  0  0
   43.9620   35.6960   41.7910 C   0  0  0  0  0  0  0  0  0  0  0  0
   43.6930   36.7310   41.9510 H   0  0  0  0  0  0  0  0  0  0  0  0
   44.7620   35.6760   41.0050 H   0  0  0  0  0  0  0  0  0  0  0  0
   42.7600   34.9480   41.2810 C   0  0  0  0  0  3  0  0  0  0  0  0
   42.5960   35.0690   39.7780 C   0  0  0  0  0  2  0  0  0  0  0  0
   41.2390   34.4010   39.6130 C   0  0  0  0  0  2  0  0  0  0  0  0
   40.4390   35.0530   40.7230 C   0  0  0  0  0  2  0  0  0  0  0  0
   41.4620   35.5540   41.7480 C   0  0  0  0  0  2  0  0  0  0  0  0
  1  7  1  0  0  0  0
  1  6  1  0  0  0  0
  2  3  1  0  0  0  0
  2  1  2  0  0  0  0
  3  4  2  0  0  0  0
  4  5  1  0  0  0  0
  5  9  1  0  0  0  0
  6  5  2  0  0  0  0
  8  3  1  0  0  0  0
 10 11  1  0  0  0  0
 10  2  1  0  0  0  0
 12 10  1  0  0  0  0
 13 17  1  0  0  0  0
 13 10  1  0  0  0  0
 14 13  1  0  0  0  0
 15 14  1  0  0  0  0
 15 16  1  0  0  0  0
 16 17  1  0  0  0  0
M  END
>  <minimizedAffinity>
-4.04513693

>  <minimizedRMSD>
1.12316942

$$$$
