
 OpenBabel03252506033D

 24 26  0  0  0  0  0  0  0  0999 V2000
   40.7250   30.9370   43.0900 Cl  0  0  0  0  0  0  0  0  0  0  0  0
   39.3270   30.2740   42.3310 C   0  0  0  0  0  0  0  0  0  0  0  0
   38.8660   30.7550   41.1260 C   0  0  0  0  0  0  0  0  0  0  0  0
   37.7490   30.1620   40.6040 C   0  0  0  0  0  0  0  0  0  0  0  0
   37.0470   29.1290   41.1750 C   0  0  0  0  0  0  0  0  0  0  0  0
   37.5310   28.6580   42.3940 C   0  0  0  0  0  0  0  0  0  0  0  0
   36.6300   27.3420   43.1290 Cl  0  0  0  0  0  0  0  0  0  0  0  0
   38.6530   29.2180   42.9680 C   0  0  0  0  0  0  0  0  0  0  0  0
   37.4210   30.5780   39.6520 H   0  0  0  0  0  0  0  0  0  0  0  0
   39.0040   28.8310   43.9120 H   0  0  0  0  0  0  0  0  0  0  0  0
   39.7000   34.1610   40.0840 C   0  0  0  0  0  0  0  0  0  0  0  0
   40.7660   33.9690   39.1790 C   0  0  0  0  0  0  0  0  0  0  0  0
   41.1960   32.6540   38.9350 C   0  0  0  0  0  0  0  0  0  0  0  0
   40.5550   31.6410   39.5860 N   0  0  0  0  0  0  0  0  0  0  0  0
   39.5500   31.8560   40.4350 C   0  0  0  0  0  0  0  0  0  0  0  0
   39.1070   33.1210   40.6970 N   0  0  0  0  0  0  0  0  0  0  0  0
   39.3300   35.1510   40.3100 H   0  0  0  0  0  0  0  0  0  0  0  0
   41.2330   34.7920   38.6970 H   0  0  0  0  0  0  0  0  0  0  0  0
   42.0140   32.4390   38.2470 H   0  0  0  0  0  0  0  0  0  0  0  0
   35.8560   28.5410   40.5630 C   0  0  0  0  0  3  0  0  0  0  0  0
   34.8660   29.4920   40.0100 C   0  0  0  0  0  2  0  0  0  0  0  0
   34.3260   28.7730   38.7900 C   0  0  0  0  0  2  0  0  0  0  0  0
   35.6040   28.1600   38.2090 C   0  0  0  0  0  2  0  0  0  0  0  0
   36.1950   27.5550   39.4670 C   0  0  0  0  0  2  0  0  0  0  0  0
  2  8  1  0  0  0  0
  2  1  1  0  0  0  0
  3  2  2  0  0  0  0
  4  3  1  0  0  0  0
  4  5  2  0  0  0  0
  5  6  1  0  0  0  0
  6  8  2  0  0  0  0
  6  7  1  0  0  0  0
  8 10  1  0  0  0  0
  9  4  1  0  0  0  0
 11 17  1  0  0  0  0
 11 16  1  0  0  0  0
 12 11  2  0  0  0  0
 13 12  1  0  0  0  0
 13 14  2  0  0  0  0
 14 15  1  0  0  0  0
 15 16  2  0  0  0  0
 15  3  1  0  0  0  0
 18 12  1  0  0  0  0
 19 13  1  0  0  0  0
 20  5  1  0  0  0  0
 21 20  1  0  0  0  0
 22 21  1  0  0  0  0
 23 22  1  0  0  0  0
 23 24  1  0  0  0  0
 24 20  1  0  0  0  0
M  END
>  <minimizedAffinity>
-5.23436737

$$$$

 OpenBabel03252506033D

 24 26  0  0  0  0  0  0  0  0999 V2000
   37.3550   31.1630   36.8260 Cl  0  0  0  0  0  0  0  0  0  0  0  0
   37.3690   30.0720   38.1600 C   0  0  0  0  0  0  0  0  0  0  0  0
   37.9370   30.4170   39.3650 C   0  0  0  0  0  0  0  0  0  0  0  0
   37.8970   29.4820   40.3640 C   0  0  0  0  0  0  0  0  0  0  0  0
   37.3420   28.2290   40.2690 C   0  0  0  0  0  0  0  0  0  0  0  0
   36.7740   27.9010   39.0400 C   0  0  0  0  0  0  0  0  0  0  0  0
   36.0700   26.2970   38.9150 Cl  0  0  0  0  0  0  0  0  0  0  0  0
   36.7840   28.8040   37.9980 C   0  0  0  0  0  0  0  0  0  0  0  0
   38.3600   29.8000   41.2970 H   0  0  0  0  0  0  0  0  0  0  0  0
   36.3360   28.5210   37.0580 H   0  0  0  0  0  0  0  0  0  0  0  0
   40.4620   33.0640   39.3400 C   0  0  0  0  0  0  0  0  0  0  0  0
   39.7830   34.1610   39.9140 C   0  0  0  0  0  0  0  0  0  0  0  0
   38.4480   33.9790   40.3080 C   0  0  0  0  0  0  0  0  0  0  0  0
   37.8850   32.7510   40.1110 N   0  0  0  0  0  0  0  0  0  0  0  0
   38.5540   31.7350   39.5670 C   0  0  0  0  0  0  0  0  0  0  0  0
   39.8540   31.8760   39.1720 N   0  0  0  0  0  0  0  0  0  0  0  0
   41.4900   33.1480   39.0190 H   0  0  0  0  0  0  0  0  0  0  0  0
   40.2660   35.0980   40.0450 H   0  0  0  0  0  0  0  0  0  0  0  0
   37.8690   34.7860   40.7570 H   0  0  0  0  0  0  0  0  0  0  0  0
   37.3360   27.2760   41.3780 C   0  0  0  0  0  3  0  0  0  0  0  0
   38.6600   26.8200   41.8570 C   0  0  0  0  0  2  0  0  0  0  0  0
   38.4580   26.6550   43.3500 C   0  0  0  0  0  2  0  0  0  0  0  0
   37.6100   27.8880   43.6800 C   0  0  0  0  0  2  0  0  0  0  0  0
   36.5720   27.7880   42.5790 C   0  0  0  0  0  2  0  0  0  0  0  0
  1  2  1  0  0  0  0
  2  3  1  0  0  0  0
  3 15  1  0  0  0  0
  3  4  2  0  0  0  0
  4  9  1  0  0  0  0
  5  4  1  0  0  0  0
  5 20  1  0  0  0  0
  6  5  2  0  0  0  0
  7  6  1  0  0  0  0
  8  2  2  0  0  0  0
  8  6  1  0  0  0  0
 10  8  1  0  0  0  0
 11 12  1  0  0  0  0
 12 18  1  0  0  0  0
 12 13  2  0  0  0  0
 13 19  1  0  0  0  0
 14 13  1  0  0  0  0
 15 14  2  0  0  0  0
 16 11  2  0  0  0  0
 16 15  1  0  0  0  0
 17 11  1  0  0  0  0
 20 21  1  0  0  0  0
 20 24  1  0  0  0  0
 21 22  1  0  0  0  0
 22 23  1  0  0  0  0
 24 23  1  0  0  0  0
M  END
>  <minimizedAffinity>
-4.97657824

$$$$

 OpenBabel03252506033D

 24 26  0  0  0  0  0  0  0  0999 V2000
   40.4470   30.7420   42.5710 Cl  0  0  0  0  0  0  0  0  0  0  0  0
   39.8070   29.1780   42.2380 C   0  0  0  0  0  0  0  0  0  0  0  0
   38.8630   28.9810   41.2560 C   0  0  0  0  0  0  0  0  0  0  0  0
   38.4160   27.7010   41.0670 C   0  0  0  0  0  0  0  0  0  0  0  0
   38.8270   26.5960   41.7700 C   0  0  0  0  0  0  0  0  0  0  0  0
   39.7830   26.8180   42.7600 C   0  0  0  0  0  0  0  0  0  0  0  0
   40.3030   25.4060   43.6650 Cl  0  0  0  0  0  0  0  0  0  0  0  0
   40.2690   28.0870   42.9940 C   0  0  0  0  0  0  0  0  0  0  0  0
   37.6690   27.5960   40.2810 H   0  0  0  0  0  0  0  0  0  0  0  0
   41.0080   28.2270   43.7680 H   0  0  0  0  0  0  0  0  0  0  0  0
   36.8970   31.9150   40.3000 C   0  0  0  0  0  0  0  0  0  0  0  0
   37.3660   32.2060   39.0000 C   0  0  0  0  0  0  0  0  0  0  0  0
   38.3660   31.3830   38.4590 C   0  0  0  0  0  0  0  0  0  0  0  0
   38.8250   30.3490   39.2220 N   0  0  0  0  0  0  0  0  0  0  0  0
   38.3610   30.1010   40.4470 C   0  0  0  0  0  0  0  0  0  0  0  0
   37.3900   30.8810   41.0050 N   0  0  0  0  0  0  0  0  0  0  0  0
   36.1300   32.5170   40.7660 H   0  0  0  0  0  0  0  0  0  0  0  0
   36.9750   33.0240   38.4460 H   0  0  0  0  0  0  0  0  0  0  0  0
   38.7690   31.5550   37.4610 H   0  0  0  0  0  0  0  0  0  0  0  0
   38.3060   25.2530   41.5180 C   0  0  0  0  0  3  0  0  0  0  0  0
   36.9710   24.9510   42.0800 C   0  0  0  0  0  2  0  0  0  0  0  0
   36.3480   24.0380   41.0440 C   0  0  0  0  0  2  0  0  0  0  0  0
   36.7900   24.7110   39.7410 C   0  0  0  0  0  2  0  0  0  0  0  0
   38.2620   24.9170   40.0430 C   0  0  0  0  0  2  0  0  0  0  0  0
  2  1  1  0  0  0  0
  2  8  1  0  0  0  0
  3  2  2  0  0  0  0
  4  3  1  0  0  0  0
  4  5  2  0  0  0  0
  5  6  1  0  0  0  0
  6  8  2  0  0  0  0
  6  7  1  0  0  0  0
  8 10  1  0  0  0  0
  9  4  1  0  0  0  0
 11 17  1  0  0  0  0
 11 16  1  0  0  0  0
 12 11  2  0  0  0  0
 13 12  1  0  0  0  0
 13 14  2  0  0  0  0
 14 15  1  0  0  0  0
 15 16  2  0  0  0  0
 15  3  1  0  0  0  0
 18 12  1  0  0  0  0
 19 13  1  0  0  0  0
 20  5  1  0  0  0  0
 20 21  1  0  0  0  0
 22 21  1  0  0  0  0
 23 24  1  0  0  0  0
 23 22  1  0  0  0  0
 24 20  1  0  0  0  0
M  END
>  <minimizedAffinity>
-4.88073921

$$$$

 OpenBabel03252506033D

 24 26  0  0  0  0  0  0  0  0999 V2000
   36.2710   29.6110   37.1790 Cl  0  0  0  0  0  0  0  0  0  0  0  0
   36.7160   28.6720   38.5530 C   0  0  0  0  0  0  0  0  0  0  0  0
   37.4380   29.2150   39.5920 C   0  0  0  0  0  0  0  0  0  0  0  0
   37.7410   28.3870   40.6390 C   0  0  0  0  0  0  0  0  0  0  0  0
   37.3890   27.0640   40.7460 C   0  0  0  0  0  0  0  0  0  0  0  0
   36.6590   26.5360   39.6830 C   0  0  0  0  0  0  0  0  0  0  0  0
   36.2140   24.8420   39.8150 Cl  0  0  0  0  0  0  0  0  0  0  0  0
   36.3240   27.3230   38.6010 C   0  0  0  0  0  0  0  0  0  0  0  0
   38.3150   28.8600   41.4350 H   0  0  0  0  0  0  0  0  0  0  0  0
   35.7580   26.8850   37.7940 H   0  0  0  0  0  0  0  0  0  0  0  0
   37.2880   32.8480   39.9870 C   0  0  0  0  0  0  0  0  0  0  0  0
   38.5650   33.2710   39.5600 C   0  0  0  0  0  0  0  0  0  0  0  0
   39.4780   32.2910   39.1370 C   0  0  0  0  0  0  0  0  0  0  0  0
   39.0740   30.9880   39.1640 N   0  0  0  0  0  0  0  0  0  0  0  0
   37.8600   30.6210   39.5730 C   0  0  0  0  0  0  0  0  0  0  0  0
   36.9470   31.5470   39.9920 N   0  0  0  0  0  0  0  0  0  0  0  0
   36.5470   33.5590   40.3240 H   0  0  0  0  0  0  0  0  0  0  0  0
   38.8310   34.3000   39.5580 H   0  0  0  0  0  0  0  0  0  0  0  0
   40.4790   32.5530   38.7950 H   0  0  0  0  0  0  0  0  0  0  0  0
   37.7490   26.2350   41.8960 C   0  0  0  0  0  3  0  0  0  0  0  0
   39.0430   25.5230   41.8110 C   0  0  0  0  0  2  0  0  0  0  0  0
   39.5490   25.5360   43.2390 C   0  0  0  0  0  2  0  0  0  0  0  0
   39.1800   26.9560   43.6790 C   0  0  0  0  0  2  0  0  0  0  0  0
   37.7450   27.0120   43.1940 C   0  0  0  0  0  2  0  0  0  0  0  0
  1  2  1  0  0  0  0
  2  8  2  0  0  0  0
  2  3  1  0  0  0  0
  3  4  2  0  0  0  0
  4  5  1  0  0  0  0
  4  9  1  0  0  0  0
  5 20  1  0  0  0  0
  6  7  1  0  0  0  0
  6  5  2  0  0  0  0
  8  6  1  0  0  0  0
 10  8  1  0  0  0  0
 11 16  1  0  0  0  0
 11 17  1  0  0  0  0
 12 11  2  0  0  0  0
 13 14  2  0  0  0  0
 13 12  1  0  0  0  0
 14 15  1  0  0  0  0
 15  3  1  0  0  0  0
 15 16  2  0  0  0  0
 18 12  1  0  0  0  0
 19 13  1  0  0  0  0
 20 24  1  0  0  0  0
 21 20  1  0  0  0  0
 21 22  1  0  0  0  0
 22 23  1  0  0  0  0
 24 23  1  0  0  0  0
M  END
>  <minimizedAffinity>
-4.83802223

$$$$

 OpenBabel03252506033D

 24 26  0  0  0  0  0  0  0  0999 V2000
   37.7690   31.8860   36.8100 Cl  0  0  0  0  0  0  0  0  0  0  0  0
   37.5290   30.9660   38.2460 C   0  0  0  0  0  0  0  0  0  0  0  0
   38.5560   30.7370   39.1340 C   0  0  0  0  0  0  0  0  0  0  0  0
   38.2650   29.9950   40.2470 C   0  0  0  0  0  0  0  0  0  0  0  0
   37.0390   29.4590   40.5560 C   0  0  0  0  0  0  0  0  0  0  0  0
   36.0140   29.7030   39.6440 C   0  0  0  0  0  0  0  0  0  0  0  0
   34.4480   29.0120   40.0350 Cl  0  0  0  0  0  0  0  0  0  0  0  0
   36.2500   30.4450   38.5050 C   0  0  0  0  0  0  0  0  0  0  0  0
   39.1090   29.8390   40.9170 H   0  0  0  0  0  0  0  0  0  0  0  0
   35.4360   30.6170   37.8180 H   0  0  0  0  0  0  0  0  0  0  0  0
   41.3700   33.0750   39.1210 C   0  0  0  0  0  0  0  0  0  0  0  0
   42.3920   32.3440   38.4750 C   0  0  0  0  0  0  0  0  0  0  0  0
   42.1010   31.0390   38.0480 C   0  0  0  0  0  0  0  0  0  0  0  0
   40.8470   30.5540   38.2810 N   0  0  0  0  0  0  0  0  0  0  0  0
   39.9030   31.2700   38.8930 C   0  0  0  0  0  0  0  0  0  0  0  0
   40.1510   32.5430   39.3230 N   0  0  0  0  0  0  0  0  0  0  0  0
   41.5400   34.0830   39.4710 H   0  0  0  0  0  0  0  0  0  0  0  0
   43.3540   32.7670   38.3170 H   0  0  0  0  0  0  0  0  0  0  0  0
   42.8460   30.4230   37.5440 H   0  0  0  0  0  0  0  0  0  0  0  0
   36.7970   28.6720   41.7650 C   0  0  0  0  0  3  0  0  0  0  0  0
   37.0040   27.2120   41.6480 C   0  0  0  0  0  2  0  0  0  0  0  0
   37.5540   26.8220   43.0050 C   0  0  0  0  0  2  0  0  0  0  0  0
   38.5160   27.9810   43.2860 C   0  0  0  0  0  2  0  0  0  0  0  0
   37.6160   29.1520   42.9430 C   0  0  0  0  0  2  0  0  0  0  0  0
  1  2  1  0  0  0  0
  2  8  2  0  0  0  0
  2  3  1  0  0  0  0
  3  4  2  0  0  0  0
  4  5  1  0  0  0  0
  4  9  1  0  0  0  0
  5 20  1  0  0  0  0
  6  7  1  0  0  0  0
  6  5  2  0  0  0  0
  8  6  1  0  0  0  0
 10  8  1  0  0  0  0
 11 16  1  0  0  0  0
 11 17  1  0  0  0  0
 12 11  2  0  0  0  0
 13 14  2  0  0  0  0
 13 12  1  0  0  0  0
 14 15  1  0  0  0  0
 15  3  1  0  0  0  0
 15 16  2  0  0  0  0
 18 12  1  0  0  0  0
 19 13  1  0  0  0  0
 20 24  1  0  0  0  0
 21 20  1  0  0  0  0
 21 22  1  0  0  0  0
 22 23  1  0  0  0  0
 24 23  1  0  0  0  0
M  END
>  <minimizedAffinity>
-4.72797108

$$$$

 OpenBabel03252506033D

 24 26  0  0  0  0  0  0  0  0999 V2000
   37.8140   22.0960   39.1570 Cl  0  0  0  0  0  0  0  0  0  0  0  0
   37.8400   23.4500   40.2220 C   0  0  0  0  0  0  0  0  0  0  0  0
   36.9100   24.4590   40.1250 C   0  0  0  0  0  0  0  0  0  0  0  0
   37.0150   25.4920   41.0170 C   0  0  0  0  0  0  0  0  0  0  0  0
   37.9660   25.6100   42.0010 C   0  0  0  0  0  0  0  0  0  0  0  0
   38.8980   24.5770   42.0810 C   0  0  0  0  0  0  0  0  0  0  0  0
   40.1190   24.7300   43.3330 Cl  0  0  0  0  0  0  0  0  0  0  0  0
   38.8410   23.5110   41.2080 C   0  0  0  0  0  0  0  0  0  0  0  0
   36.2590   26.2670   40.9000 H   0  0  0  0  0  0  0  0  0  0  0  0
   39.5760   22.7260   41.2950 H   0  0  0  0  0  0  0  0  0  0  0  0
   33.8970   23.3960   38.3440 C   0  0  0  0  0  0  0  0  0  0  0  0
   33.8430   24.2840   37.2460 C   0  0  0  0  0  0  0  0  0  0  0  0
   34.8530   25.2520   37.1290 C   0  0  0  0  0  0  0  0  0  0  0  0
   35.8280   25.2770   38.0840 N   0  0  0  0  0  0  0  0  0  0  0  0
   35.8510   24.4240   39.1080 C   0  0  0  0  0  0  0  0  0  0  0  0
   34.8850   23.4700   39.2540 N   0  0  0  0  0  0  0  0  0  0  0  0
   33.1450   22.6330   38.4830 H   0  0  0  0  0  0  0  0  0  0  0  0
   33.0610   24.2230   36.5290 H   0  0  0  0  0  0  0  0  0  0  0  0
   34.8680   25.9650   36.3060 H   0  0  0  0  0  0  0  0  0  0  0  0
   38.0220   26.7440   42.9220 C   0  0  0  0  0  3  0  0  0  0  0  0
   39.0300   27.7850   42.6200 C   0  0  0  0  0  2  0  0  0  0  0  0
   38.3510   29.0710   43.0470 C   0  0  0  0  0  2  0  0  0  0  0  0
   36.9230   28.8410   42.5420 C   0  0  0  0  0  2  0  0  0  0  0  0
   36.6860   27.4390   43.0680 C   0  0  0  0  0  2  0  0  0  0  0  0
  1  2  1  0  0  0  0
  2  8  1  0  0  0  0
  3  2  2  0  0  0  0
  3  4  1  0  0  0  0
  4  5  2  0  0  0  0
  5  6  1  0  0  0  0
  5 20  1  0  0  0  0
  6  7  1  0  0  0  0
  8 10  1  0  0  0  0
  8  6  2  0  0  0  0
  9  4  1  0  0  0  0
 11 17  1  0  0  0  0
 11 16  1  0  0  0  0
 12 11  2  0  0  0  0
 13 12  1  0  0  0  0
 13 14  2  0  0  0  0
 14 15  1  0  0  0  0
 15 16  2  0  0  0  0
 15  3  1  0  0  0  0
 18 12  1  0  0  0  0
 19 13  1  0  0  0  0
 20 24  1  0  0  0  0
 21 20  1  0  0  0  0
 21 22  1  0  0  0  0
 23 22  1  0  0  0  0
 23 24  1  0  0  0  0
M  END
>  <minimizedAffinity>
-4.72234344

$$$$

 OpenBabel03252506033D

 24 26  0  0  0  0  0  0  0  0999 V2000
   34.4090   29.0690   37.0710 Cl  0  0  0  0  0  0  0  0  0  0  0  0
   35.1870   27.7500   37.8600 C   0  0  0  0  0  0  0  0  0  0  0  0
   36.0870   27.9510   38.8820 C   0  0  0  0  0  0  0  0  0  0  0  0
   36.6510   26.8390   39.4450 C   0  0  0  0  0  0  0  0  0  0  0  0
   36.4000   25.5390   39.0810 C   0  0  0  0  0  0  0  0  0  0  0  0
   35.4860   25.3580   38.0450 C   0  0  0  0  0  0  0  0  0  0  0  0
   35.1680   23.6960   37.5730 Cl  0  0  0  0  0  0  0  0  0  0  0  0
   34.8860   26.4420   37.4400 C   0  0  0  0  0  0  0  0  0  0  0  0
   37.3580   27.0490   40.2470 H   0  0  0  0  0  0  0  0  0  0  0  0
   34.1820   26.2700   36.6400 H   0  0  0  0  0  0  0  0  0  0  0  0
   37.6200   31.2720   38.9570 C   0  0  0  0  0  0  0  0  0  0  0  0
   37.1030   31.8380   40.1430 C   0  0  0  0  0  0  0  0  0  0  0  0
   36.2210   31.0640   40.9140 C   0  0  0  0  0  0  0  0  0  0  0  0
   35.9160   29.8100   40.4700 N   0  0  0  0  0  0  0  0  0  0  0  0
   36.4210   29.3050   39.3450 C   0  0  0  0  0  0  0  0  0  0  0  0
   37.2820   30.0290   38.5700 N   0  0  0  0  0  0  0  0  0  0  0  0
   38.3020   31.8230   38.3250 H   0  0  0  0  0  0  0  0  0  0  0  0
   37.3720   32.8200   40.4450 H   0  0  0  0  0  0  0  0  0  0  0  0
   35.7880   31.4430   41.8400 H   0  0  0  0  0  0  0  0  0  0  0  0
   37.0410   24.3940   39.7260 C   0  0  0  0  0  3  0  0  0  0  0  0
   38.5090   24.4730   39.8930 C   0  0  0  0  0  2  0  0  0  0  0  0
   38.7540   23.7690   41.2130 C   0  0  0  0  0  2  0  0  0  0  0  0
   37.5890   24.2960   42.0580 C   0  0  0  0  0  2  0  0  0  0  0  0
   36.4470   24.0850   41.0830 C   0  0  0  0  0  2  0  0  0  0  0  0
  1  2  1  0  0  0  0
  2  3  1  0  0  0  0
  3 15  1  0  0  0  0
  3  4  2  0  0  0  0
  4  9  1  0  0  0  0
  5  4  1  0  0  0  0
  5 20  1  0  0  0  0
  6  5  2  0  0  0  0
  7  6  1  0  0  0  0
  8  2  2  0  0  0  0
  8  6  1  0  0  0  0
 10  8  1  0  0  0  0
 11 12  1  0  0  0  0
 12 18  1  0  0  0  0
 12 13  2  0  0  0  0
 13 19  1  0  0  0  0
 14 13  1  0  0  0  0
 15 14  2  0  0  0  0
 16 11  2  0  0  0  0
 16 15  1  0  0  0  0
 17 11  1  0  0  0  0
 20 21  1  0  0  0  0
 20 24  1  0  0  0  0
 21 22  1  0  0  0  0
 22 23  1  0  0  0  0
 24 23  1  0  0  0  0
M  END
>  <minimizedAffinity>
-4.65097284

$$$$

 OpenBabel03252506033D

 24 26  0  0  0  0  0  0  0  0999 V2000
   37.1210   24.7220   40.2230 Cl  0  0  0  0  0  0  0  0  0  0  0  0
   36.9960   26.4170   39.9450 C   0  0  0  0  0  0  0  0  0  0  0  0
   37.8450   27.3120   40.5560 C   0  0  0  0  0  0  0  0  0  0  0  0
   37.6650   28.6380   40.2700 C   0  0  0  0  0  0  0  0  0  0  0  0
   36.7130   29.1560   39.4270 C   0  0  0  0  0  0  0  0  0  0  0  0
   35.8650   28.2330   38.8190 C   0  0  0  0  0  0  0  0  0  0  0  0
   34.6420   28.8950   37.7460 Cl  0  0  0  0  0  0  0  0  0  0  0  0
   35.9990   26.8840   39.0700 C   0  0  0  0  0  0  0  0  0  0  0  0
   38.3590   29.3060   40.7790 H   0  0  0  0  0  0  0  0  0  0  0  0
   35.3270   26.1940   38.5840 H   0  0  0  0  0  0  0  0  0  0  0  0
   39.5150   26.3970   43.6800 C   0  0  0  0  0  0  0  0  0  0  0  0
   40.8090   26.0230   43.2550 C   0  0  0  0  0  0  0  0  0  0  0  0
   41.0980   26.0870   41.8820 C   0  0  0  0  0  0  0  0  0  0  0  0
   40.1100   26.5090   41.0400 N   0  0  0  0  0  0  0  0  0  0  0  0
   38.8980   26.8560   41.4740 C   0  0  0  0  0  0  0  0  0  0  0  0
   38.5820   26.8050   42.8010 N   0  0  0  0  0  0  0  0  0  0  0  0
   39.2390   26.3650   44.7240 H   0  0  0  0  0  0  0  0  0  0  0  0
   41.5450   25.7010   43.9510 H   0  0  0  0  0  0  0  0  0  0  0  0
   42.0770   25.8120   41.4900 H   0  0  0  0  0  0  0  0  0  0  0  0
   36.5750   30.5880   39.1670 C   0  0  0  0  0  3  0  0  0  0  0  0
   36.6860   31.4820   40.3420 C   0  0  0  0  0  2  0  0  0  0  0  0
   37.3730   32.7130   39.7870 C   0  0  0  0  0  2  0  0  0  0  0  0
   38.4240   32.0850   38.8660 C   0  0  0  0  0  2  0  0  0  0  0  0
   37.5560   31.0860   38.1270 C   0  0  0  0  0  2  0  0  0  0  0  0
  2  1  1  0  0  0  0
  2  3  1  0  0  0  0
  3 15  1  0  0  0  0
  4  3  2  0  0  0  0
  4  9  1  0  0  0  0
  5  4  1  0  0  0  0
  6  8  1  0  0  0  0
  6  5  2  0  0  0  0
  7  6  1  0  0  0  0
  8  2  2  0  0  0  0
 10  8  1  0  0  0  0
 11 17  1  0  0  0  0
 12 11  1  0  0  0  0
 12 18  1  0  0  0  0
 13 12  2  0  0  0  0
 14 15  2  0  0  0  0
 14 13  1  0  0  0  0
 15 16  1  0  0  0  0
 16 11  2  0  0  0  0
 19 13  1  0  0  0  0
 20  5  1  0  0  0  0
 20 21  1  0  0  0  0
 22 21  1  0  0  0  0
 23 22  1  0  0  0  0
 24 23  1  0  0  0  0
 24 20  1  0  0  0  0
M  END
>  <minimizedAffinity>
-4.64170647

$$$$

 OpenBabel03252506033D

 24 26  0  0  0  0  0  0  0  0999 V2000
   35.2090   24.4920   37.3490 Cl  0  0  0  0  0  0  0  0  0  0  0  0
   35.9590   25.2080   38.7250 C   0  0  0  0  0  0  0  0  0  0  0  0
   36.1170   26.5710   38.8300 C   0  0  0  0  0  0  0  0  0  0  0  0
   36.7250   27.0420   39.9630 C   0  0  0  0  0  0  0  0  0  0  0  0
   37.1900   26.2760   41.0030 C   0  0  0  0  0  0  0  0  0  0  0  0
   37.0190   24.8990   40.8750 C   0  0  0  0  0  0  0  0  0  0  0  0
   37.6200   23.9170   42.2010 Cl  0  0  0  0  0  0  0  0  0  0  0  0
   36.4140   24.3670   39.7560 C   0  0  0  0  0  0  0  0  0  0  0  0
   36.8300   28.1260   40.0000 H   0  0  0  0  0  0  0  0  0  0  0  0
   36.2960   23.2970   39.6860 H   0  0  0  0  0  0  0  0  0  0  0  0
   36.1670   28.6280   35.8060 C   0  0  0  0  0  0  0  0  0  0  0  0
   34.8620   29.1650   35.7610 C   0  0  0  0  0  0  0  0  0  0  0  0
   33.9650   28.8090   36.7820 C   0  0  0  0  0  0  0  0  0  0  0  0
   34.4110   27.9650   37.7570 N   0  0  0  0  0  0  0  0  0  0  0  0
   35.6510   27.4750   37.7710 C   0  0  0  0  0  0  0  0  0  0  0  0
   36.5480   27.8000   36.7950 N   0  0  0  0  0  0  0  0  0  0  0  0
   36.8970   28.8680   35.0460 H   0  0  0  0  0  0  0  0  0  0  0  0
   34.5630   29.8190   34.9790 H   0  0  0  0  0  0  0  0  0  0  0  0
   32.9450   29.1890   36.8040 H   0  0  0  0  0  0  0  0  0  0  0  0
   37.8330   26.8460   42.1860 C   0  0  0  0  0  3  0  0  0  0  0  0
   39.0510   27.6520   41.9460 C   0  0  0  0  0  2  0  0  0  0  0  0
   38.9700   28.7390   42.9990 C   0  0  0  0  0  2  0  0  0  0  0  0
   37.4780   29.0870   42.9600 C   0  0  0  0  0  2  0  0  0  0  0  0
   36.8860   27.6930   43.0090 C   0  0  0  0  0  2  0  0  0  0  0  0
  1  2  1  0  0  0  0
  2  3  2  0  0  0  0
  2  8  1  0  0  0  0
  3  4  1  0  0  0  0
  4  9  1  0  0  0  0
  4  5  2  0  0  0  0
  5 20  1  0  0  0  0
  6  5  1  0  0  0  0
  6  7  1  0  0  0  0
  8  6  2  0  0  0  0
 10  8  1  0  0  0  0
 11 16  1  0  0  0  0
 12 11  2  0  0  0  0
 12 13  1  0  0  0  0
 13 19  1  0  0  0  0
 13 14  2  0  0  0  0
 14 15  1  0  0  0  0
 15  3  1  0  0  0  0
 16 15  2  0  0  0  0
 17 11  1  0  0  0  0
 18 12  1  0  0  0  0
 20 24  1  0  0  0  0
 21 20  1  0  0  0  0
 21 22  1  0  0  0  0
 23 22  1  0  0  0  0
 23 24  1  0  0  0  0
M  END
>  <minimizedAffinity>
-4.6331315

$$$$
