
 OpenBabel03252509173D

 21 23  0  0  0  0  0  0  0  0999 V2000
   37.4850   30.3320   41.1570 C   0  0  0  0  0  0  0  0  0  0  0  0
   36.3430   29.5710   40.7830 C   0  0  0  0  0  0  0  0  0  0  0  0
   36.1980   28.3290   41.3100 C   0  0  0  0  0  0  0  0  0  0  0  0
   37.1910   27.8520   42.2070 C   0  0  0  0  0  0  0  0  0  0  0  0
   38.3920   29.2400   42.3050 S   0  0  0  0  0  0  0  0  0  0  0  0
   35.6270   29.9950   40.0970 H   0  0  0  0  0  0  0  0  0  0  0  0
   35.3890   27.6830   41.0940 H   0  0  0  0  0  0  0  0  0  0  0  0
   37.3690   33.6770   39.5550 C   0  0  0  0  0  0  0  0  0  0  0  0
   38.6490   34.1610   39.9310 C   0  0  0  0  0  0  0  0  0  0  0  0
   39.4810   33.3380   40.7020 C   0  0  0  0  0  0  0  0  0  0  0  0
   38.9980   32.1020   41.0480 N   0  0  0  0  0  0  0  0  0  0  0  0
   37.7710   31.6870   40.6660 C   0  0  0  0  0  0  0  0  0  0  0  0
   36.9510   32.4670   39.9200 N   0  0  0  0  0  0  0  0  0  0  0  0
   36.7340   34.3190   38.9610 H   0  0  0  0  0  0  0  0  0  0  0  0
   39.0160   35.1280   39.6560 H   0  0  0  0  0  0  0  0  0  0  0  0
   40.4680   33.6340   41.0270 H   0  0  0  0  0  0  0  0  0  0  0  0
   37.3610   26.6510   42.9270 C   0  0  0  0  0  3  0  0  0  0  0  0
   36.9530   25.3730   42.2520 C   0  0  0  0  0  2  0  0  0  0  0  0
   38.1630   24.9210   41.5200 C   0  0  0  0  0  2  0  0  0  0  0  0
   39.3110   25.3170   42.4160 C   0  0  0  0  0  2  0  0  0  0  0  0
   38.8020   26.4190   43.2920 C   0  0  0  0  0  2  0  0  0  0  0  0
  1  5  1  0  0  0  0
  2  1  2  0  0  0  0
  2  3  1  0  0  0  0
  3  4  2  0  0  0  0
  4  5  1  0  0  0  0
  4 17  1  0  0  0  0
  6  2  1  0  0  0  0
  7  3  1  0  0  0  0
  8 13  2  0  0  0  0
  8  9  1  0  0  0  0
  9 10  2  0  0  0  0
 10 16  1  0  0  0  0
 10 11  1  0  0  0  0
 12 11  2  0  0  0  0
 12  1  1  0  0  0  0
 13 12  1  0  0  0  0
 14  8  1  0  0  0  0
 15  9  1  0  0  0  0
 17 21  1  0  0  0  0
 18 17  1  0  0  0  0
 19 18  1  0  0  0  0
 19 20  1  0  0  0  0
 20 21  1  0  0  0  0
M  END
>  <minimizedAffinity>
-4.8189292

$$$$

 OpenBabel03252509173D

 21 23  0  0  0  0  0  0  0  0999 V2000
   39.2380   31.2240   40.9270 C   0  0  0  0  0  0  0  0  0  0  0  0
   37.8370   31.0110   40.7930 C   0  0  0  0  0  0  0  0  0  0  0  0
   37.2540   30.0620   41.5680 C   0  0  0  0  0  0  0  0  0  0  0  0
   38.0690   29.3300   42.4730 C   0  0  0  0  0  0  0  0  0  0  0  0
   39.7490   30.0270   42.2070 S   0  0  0  0  0  0  0  0  0  0  0  0
   37.2780   31.6030   40.0860 H   0  0  0  0  0  0  0  0  0  0  0  0
   36.2240   29.8250   41.5430 H   0  0  0  0  0  0  0  0  0  0  0  0
   41.2000   34.1580   39.7820 C   0  0  0  0  0  0  0  0  0  0  0  0
   41.3520   33.8170   38.4130 C   0  0  0  0  0  0  0  0  0  0  0  0
   40.7890   32.6200   37.9500 C   0  0  0  0  0  0  0  0  0  0  0  0
   40.1170   31.8460   38.8600 N   0  0  0  0  0  0  0  0  0  0  0  0
   39.9990   32.2140   40.1550 C   0  0  0  0  0  0  0  0  0  0  0  0
   40.5360   33.3670   40.6240 N   0  0  0  0  0  0  0  0  0  0  0  0
   41.6380   35.0820   40.1310 H   0  0  0  0  0  0  0  0  0  0  0  0
   41.8790   34.4280   37.7100 H   0  0  0  0  0  0  0  0  0  0  0  0
   40.8620   32.2920   36.9220 H   0  0  0  0  0  0  0  0  0  0  0  0
   37.8130   28.3050   43.4070 C   0  0  0  0  0  3  0  0  0  0  0  0
   36.6370   27.4070   43.1470 C   0  0  0  0  0  2  0  0  0  0  0  0
   37.1740   26.3000   42.3160 C   0  0  0  0  0  2  0  0  0  0  0  0
   38.5700   26.0790   42.8460 C   0  0  0  0  0  2  0  0  0  0  0  0
   38.9720   27.3520   43.5210 C   0  0  0  0  0  2  0  0  0  0  0  0
  1  5  1  0  0  0  0
  2  1  2  0  0  0  0
  2  3  1  0  0  0  0
  3  4  2  0  0  0  0
  4 17  1  0  0  0  0
  5  4  1  0  0  0  0
  6  2  1  0  0  0  0
  7  3  1  0  0  0  0
  8 14  1  0  0  0  0
  8 13  1  0  0  0  0
  9  8  2  0  0  0  0
 10  9  1  0  0  0  0
 10 11  2  0  0  0  0
 11 12  1  0  0  0  0
 12 13  2  0  0  0  0
 12  1  1  0  0  0  0
 15  9  1  0  0  0  0
 16 10  1  0  0  0  0
 17 21  1  0  0  0  0
 18 17  1  0  0  0  0
 19 20  1  0  0  0  0
 19 18  1  0  0  0  0
 20 21  1  0  0  0  0
M  END
>  <minimizedAffinity>
-4.76634598

$$$$

 OpenBabel03252509173D

 21 23  0  0  0  0  0  0  0  0999 V2000
   38.1600   29.4480   41.6480 C   0  0  0  0  0  0  0  0  0  0  0  0
   37.6820   29.0880   42.9390 C   0  0  0  0  0  0  0  0  0  0  0  0
   37.6590   27.7720   43.2720 C   0  0  0  0  0  0  0  0  0  0  0  0
   38.1120   26.8220   42.3170 C   0  0  0  0  0  0  0  0  0  0  0  0
   38.5950   27.8530   40.8740 S   0  0  0  0  0  0  0  0  0  0  0  0
   37.3530   29.8600   43.6150 H   0  0  0  0  0  0  0  0  0  0  0  0
   37.3200   27.4010   44.2020 H   0  0  0  0  0  0  0  0  0  0  0  0
   39.1200   32.9570   40.9170 C   0  0  0  0  0  0  0  0  0  0  0  0
   38.0590   33.3120   40.0450 C   0  0  0  0  0  0  0  0  0  0  0  0
   37.0800   32.3540   39.7490 C   0  0  0  0  0  0  0  0  0  0  0  0
   37.2110   31.1190   40.3300 N   0  0  0  0  0  0  0  0  0  0  0  0
   38.2420   30.8280   41.1550 C   0  0  0  0  0  0  0  0  0  0  0  0
   39.1990   31.7400   41.4540 N   0  0  0  0  0  0  0  0  0  0  0  0
   39.8710   33.7010   41.1390 H   0  0  0  0  0  0  0  0  0  0  0  0
   37.9650   34.2790   39.5960 H   0  0  0  0  0  0  0  0  0  0  0  0
   36.2420   32.5480   39.0950 H   0  0  0  0  0  0  0  0  0  0  0  0
   38.2310   25.4170   42.3190 C   0  0  0  0  0  3  0  0  0  0  0  0
   36.9650   24.6140   42.2260 C   0  0  0  0  0  2  0  0  0  0  0  0
   36.7280   24.4350   40.7710 C   0  0  0  0  0  2  0  0  0  0  0  0
   38.1100   24.2920   40.1820 C   0  0  0  0  0  2  0  0  0  0  0  0
   39.0520   24.9250   41.1580 C   0  0  0  0  0  2  0  0  0  0  0  0
  1  2  2  0  0  0  0
  2  3  1  0  0  0  0
  2  6  1  0  0  0  0
  3  7  1  0  0  0  0
  4 17  1  0  0  0  0
  4  3  2  0  0  0  0
  5  1  1  0  0  0  0
  5  4  1  0  0  0  0
  8 14  1  0  0  0  0
  8 13  1  0  0  0  0
  9  8  2  0  0  0  0
 10  9  1  0  0  0  0
 10 11  2  0  0  0  0
 11 12  1  0  0  0  0
 12 13  2  0  0  0  0
 12  1  1  0  0  0  0
 15  9  1  0  0  0  0
 16 10  1  0  0  0  0
 18 17  1  0  0  0  0
 19 18  1  0  0  0  0
 20 19  1  0  0  0  0
 20 21  1  0  0  0  0
 21 17  1  0  0  0  0
M  END
>  <minimizedAffinity>
-4.68658304

$$$$

 OpenBabel03252509173D

 21 23  0  0  0  0  0  0  0  0999 V2000
   38.7950   30.3700   41.6690 C   0  0  0  0  0  0  0  0  0  0  0  0
   40.0720   29.9610   42.1460 C   0  0  0  0  0  0  0  0  0  0  0  0
   40.1830   28.7330   42.7110 C   0  0  0  0  0  0  0  0  0  0  0  0
   39.0230   27.9170   42.7980 C   0  0  0  0  0  0  0  0  0  0  0  0
   37.7070   28.9520   42.0380 S   0  0  0  0  0  0  0  0  0  0  0  0
   40.9110   30.6310   42.0490 H   0  0  0  0  0  0  0  0  0  0  0  0
   41.0840   28.3370   43.0990 H   0  0  0  0  0  0  0  0  0  0  0  0
   38.8470   33.9120   40.5640 C   0  0  0  0  0  0  0  0  0  0  0  0
   37.7280   33.9000   39.6910 C   0  0  0  0  0  0  0  0  0  0  0  0
   37.0190   32.7040   39.5200 C   0  0  0  0  0  0  0  0  0  0  0  0
   37.4550   31.6070   40.2180 N   0  0  0  0  0  0  0  0  0  0  0  0
   38.5280   31.6690   41.0380 C   0  0  0  0  0  0  0  0  0  0  0  0
   39.2280   32.8150   41.2170 N   0  0  0  0  0  0  0  0  0  0  0  0
   39.3890   34.8380   40.6890 H   0  0  0  0  0  0  0  0  0  0  0  0
   37.3950   34.7620   39.1500 H   0  0  0  0  0  0  0  0  0  0  0  0
   36.1570   32.6160   38.8740 H   0  0  0  0  0  0  0  0  0  0  0  0
   38.7730   26.6240   43.3020 C   0  0  0  0  0  3  0  0  0  0  0  0
   38.0770   25.6480   42.3970 C   0  0  0  0  0  2  0  0  0  0  0  0
   39.1670   24.9740   41.6470 C   0  0  0  0  0  2  0  0  0  0  0  0
   40.2950   24.8640   42.6450 C   0  0  0  0  0  2  0  0  0  0  0  0
   40.0470   25.9170   43.6790 C   0  0  0  0  0  2  0  0  0  0  0  0
  1  5  1  0  0  0  0
  1  2  2  0  0  0  0
  2  3  1  0  0  0  0
  3  4  2  0  0  0  0
  3  7  1  0  0  0  0
  4 17  1  0  0  0  0
  5  4  1  0  0  0  0
  6  2  1  0  0  0  0
  8 14  1  0  0  0  0
  8 13  1  0  0  0  0
  9  8  2  0  0  0  0
 10  9  1  0  0  0  0
 10 11  2  0  0  0  0
 11 12  1  0  0  0  0
 12 13  2  0  0  0  0
 12  1  1  0  0  0  0
 15  9  1  0  0  0  0
 16 10  1  0  0  0  0
 17 21  1  0  0  0  0
 18 17  1  0  0  0  0
 19 18  1  0  0  0  0
 19 20  1  0  0  0  0
 20 21  1  0  0  0  0
M  END
>  <minimizedAffinity>
-4.6251545

$$$$

 OpenBabel03252509173D

 21 23  0  0  0  0  0  0  0  0999 V2000
   39.5350   31.1370   41.5050 C   0  0  0  0  0  0  0  0  0  0  0  0
   39.7050   30.3290   42.6640 C   0  0  0  0  0  0  0  0  0  0  0  0
   38.7870   29.3610   42.9130 C   0  0  0  0  0  0  0  0  0  0  0  0
   37.7060   29.2020   42.0050 C   0  0  0  0  0  0  0  0  0  0  0  0
   38.0090   30.4960   40.7350 S   0  0  0  0  0  0  0  0  0  0  0  0
   40.5500   30.5040   43.3100 H   0  0  0  0  0  0  0  0  0  0  0  0
   38.8210   28.7110   43.7460 H   0  0  0  0  0  0  0  0  0  0  0  0
   41.1130   34.1590   40.0400 C   0  0  0  0  0  0  0  0  0  0  0  0
   42.4100   34.0430   40.6050 C   0  0  0  0  0  0  0  0  0  0  0  0
   42.6830   32.9570   41.4470 C   0  0  0  0  0  0  0  0  0  0  0  0
   41.6670   32.0640   41.6740 N   0  0  0  0  0  0  0  0  0  0  0  0
   40.4480   32.2190   41.1130 C   0  0  0  0  0  0  0  0  0  0  0  0
   40.1630   33.2620   40.2960 N   0  0  0  0  0  0  0  0  0  0  0  0
   40.9110   35.0000   39.3930 H   0  0  0  0  0  0  0  0  0  0  0  0
   43.1960   34.7450   40.4220 H   0  0  0  0  0  0  0  0  0  0  0  0
   43.6450   32.7990   41.9150 H   0  0  0  0  0  0  0  0  0  0  0  0
   36.6020   28.3260   41.9460 C   0  0  0  0  0  3  0  0  0  0  0  0
   36.4530   27.4820   40.7120 C   0  0  0  0  0  2  0  0  0  0  0  0
   37.2200   26.2430   40.9980 C   0  0  0  0  0  2  0  0  0  0  0  0
   37.0020   26.0000   42.4720 C   0  0  0  0  0  2  0  0  0  0  0  0
   36.6260   27.3210   43.0660 C   0  0  0  0  0  2  0  0  0  0  0  0
  1  2  2  0  0  0  0
  2  3  1  0  0  0  0
  2  6  1  0  0  0  0
  3  7  1  0  0  0  0
  4  3  2  0  0  0  0
  5  1  1  0  0  0  0
  5  4  1  0  0  0  0
  8 13  2  0  0  0  0
  8  9  1  0  0  0  0
  9 10  2  0  0  0  0
 10 11  1  0  0  0  0
 10 16  1  0  0  0  0
 12  1  1  0  0  0  0
 12 11  2  0  0  0  0
 13 12  1  0  0  0  0
 14  8  1  0  0  0  0
 15  9  1  0  0  0  0
 17  4  1  0  0  0  0
 17 21  1  0  0  0  0
 18 19  1  0  0  0  0
 18 17  1  0  0  0  0
 19 20  1  0  0  0  0
 20 21  1  0  0  0  0
M  END
>  <minimizedAffinity>
-4.60418463

$$$$

 OpenBabel03252509173D

 21 23  0  0  0  0  0  0  0  0999 V2000
   36.7830   28.1710   40.3070 C   0  0  0  0  0  0  0  0  0  0  0  0
   35.9210   29.1480   40.8810 C   0  0  0  0  0  0  0  0  0  0  0  0
   36.0170   30.4280   40.4400 C   0  0  0  0  0  0  0  0  0  0  0  0
   36.9690   30.7290   39.4300 C   0  0  0  0  0  0  0  0  0  0  0  0
   37.7700   29.1090   39.0910 S   0  0  0  0  0  0  0  0  0  0  0  0
   35.2210   28.8500   41.6440 H   0  0  0  0  0  0  0  0  0  0  0  0
   35.4260   31.2260   40.8030 H   0  0  0  0  0  0  0  0  0  0  0  0
   37.0320   24.9240   42.0840 C   0  0  0  0  0  0  0  0  0  0  0  0
   36.7090   24.0480   41.0150 C   0  0  0  0  0  0  0  0  0  0  0  0
   36.4240   24.5950   39.7570 C   0  0  0  0  0  0  0  0  0  0  0  0
   36.4780   25.9600   39.6370 N   0  0  0  0  0  0  0  0  0  0  0  0
   36.7900   26.7530   40.6860 C   0  0  0  0  0  0  0  0  0  0  0  0
   37.0690   26.2440   41.9110 N   0  0  0  0  0  0  0  0  0  0  0  0
   37.2490   24.4930   43.0510 H   0  0  0  0  0  0  0  0  0  0  0  0
   36.6690   22.9830   41.1190 H   0  0  0  0  0  0  0  0  0  0  0  0
   36.1700   23.9950   38.8950 H   0  0  0  0  0  0  0  0  0  0  0  0
   37.3320   31.9100   38.7500 C   0  0  0  0  0  3  0  0  0  0  0  0
   37.1880   33.2090   39.4910 C   0  0  0  0  0  2  0  0  0  0  0  0
   38.4850   33.4000   40.1890 C   0  0  0  0  0  2  0  0  0  0  0  0
   39.5100   32.8430   39.2310 C   0  0  0  0  0  2  0  0  0  0  0  0
   38.7780   31.8930   38.3350 C   0  0  0  0  0  2  0  0  0  0  0  0
  1 12  1  0  0  0  0
  1  2  2  0  0  0  0
  2  6  1  0  0  0  0
  3  7  1  0  0  0  0
  3  2  1  0  0  0  0
  4  3  2  0  0  0  0
  5  4  1  0  0  0  0
  5  1  1  0  0  0  0
  8 14  1  0  0  0  0
  9 15  1  0  0  0  0
  9  8  2  0  0  0  0
 10  9  1  0  0  0  0
 11 10  2  0  0  0  0
 11 12  1  0  0  0  0
 12 13  2  0  0  0  0
 13  8  1  0  0  0  0
 16 10  1  0  0  0  0
 17  4  1  0  0  0  0
 17 18  1  0  0  0  0
 18 19  1  0  0  0  0
 20 19  1  0  0  0  0
 21 17  1  0  0  0  0
 21 20  1  0  0  0  0
M  END
>  <minimizedAffinity>
-4.56766987

$$$$

 OpenBabel03252509173D

 21 23  0  0  0  0  0  0  0  0999 V2000
   39.0430   30.7570   40.5110 C   0  0  0  0  0  0  0  0  0  0  0  0
   37.6420   30.8150   40.7550 C   0  0  0  0  0  0  0  0  0  0  0  0
   37.1160   29.9720   41.6790 C   0  0  0  0  0  0  0  0  0  0  0  0
   37.9870   29.0760   42.3560 C   0  0  0  0  0  0  0  0  0  0  0  0
   39.6380   29.4520   41.6400 S   0  0  0  0  0  0  0  0  0  0  0  0
   37.0390   31.5190   40.2060 H   0  0  0  0  0  0  0  0  0  0  0  0
   36.0890   29.9330   41.9310 H   0  0  0  0  0  0  0  0  0  0  0  0
   40.4820   32.3040   37.4610 C   0  0  0  0  0  0  0  0  0  0  0  0
   41.1680   33.3960   38.0550 C   0  0  0  0  0  0  0  0  0  0  0  0
   41.1090   33.5530   39.4460 C   0  0  0  0  0  0  0  0  0  0  0  0
   40.3840   32.6300   40.1540 N   0  0  0  0  0  0  0  0  0  0  0  0
   39.7470   31.6070   39.5420 C   0  0  0  0  0  0  0  0  0  0  0  0
   39.7910   31.4370   38.1990 N   0  0  0  0  0  0  0  0  0  0  0  0
   40.5320   32.1910   36.3880 H   0  0  0  0  0  0  0  0  0  0  0  0
   41.7320   34.1120   37.4930 H   0  0  0  0  0  0  0  0  0  0  0  0
   41.6040   34.3570   39.9710 H   0  0  0  0  0  0  0  0  0  0  0  0
   37.7970   28.0930   43.3490 C   0  0  0  0  0  3  0  0  0  0  0  0
   36.7080   27.0830   43.1270 C   0  0  0  0  0  2  0  0  0  0  0  0
   37.3560   25.9760   42.3770 C   0  0  0  0  0  2  0  0  0  0  0  0
   38.7530   25.9090   42.9450 C   0  0  0  0  0  2  0  0  0  0  0  0
   39.0300   27.2530   43.5440 C   0  0  0  0  0  2  0  0  0  0  0  0
  1  2  2  0  0  0  0
  1  5  1  0  0  0  0
  2  3  1  0  0  0  0
  3  7  1  0  0  0  0
  3  4  2  0  0  0  0
  4 17  1  0  0  0  0
  5  4  1  0  0  0  0
  6  2  1  0  0  0  0
  8  9  2  0  0  0  0
  8 13  1  0  0  0  0
  9 10  1  0  0  0  0
 10 16  1  0  0  0  0
 10 11  2  0  0  0  0
 12 11  1  0  0  0  0
 12  1  1  0  0  0  0
 13 12  2  0  0  0  0
 14  8  1  0  0  0  0
 15  9  1  0  0  0  0
 17 21  1  0  0  0  0
 18 17  1  0  0  0  0
 19 20  1  0  0  0  0
 19 18  1  0  0  0  0
 20 21  1  0  0  0  0
M  END
>  <minimizedAffinity>
-4.51362181

$$$$

 OpenBabel03252509173D

 21 23  0  0  0  0  0  0  0  0999 V2000
   35.5640   28.7030   38.9670 C   0  0  0  0  0  0  0  0  0  0  0  0
   36.2050   27.4900   39.3460 C   0  0  0  0  0  0  0  0  0  0  0  0
   36.8260   27.4420   40.5520 C   0  0  0  0  0  0  0  0  0  0  0  0
   36.8030   28.6000   41.3750 C   0  0  0  0  0  0  0  0  0  0  0  0
   35.8520   29.8200   40.3810 S   0  0  0  0  0  0  0  0  0  0  0  0
   36.1840   26.6490   38.6740 H   0  0  0  0  0  0  0  0  0  0  0  0
   37.3330   26.5920   40.9260 H   0  0  0  0  0  0  0  0  0  0  0  0
   34.6260   29.2310   35.4160 C   0  0  0  0  0  0  0  0  0  0  0  0
   33.2130   29.2420   35.5470 C   0  0  0  0  0  0  0  0  0  0  0  0
   32.6530   29.0700   36.8200 C   0  0  0  0  0  0  0  0  0  0  0  0
   33.5170   28.9010   37.8710 N   0  0  0  0  0  0  0  0  0  0  0  0
   34.8560   28.8980   37.6950 C   0  0  0  0  0  0  0  0  0  0  0  0
   35.4190   29.0630   36.4730 N   0  0  0  0  0  0  0  0  0  0  0  0
   35.0500   29.3640   34.4310 H   0  0  0  0  0  0  0  0  0  0  0  0
   32.5470   29.3740   34.7200 H   0  0  0  0  0  0  0  0  0  0  0  0
   31.5870   29.0670   37.0010 H   0  0  0  0  0  0  0  0  0  0  0  0
   37.3220   28.9020   42.6510 C   0  0  0  0  0  3  0  0  0  0  0  0
   37.3150   27.8080   43.6800 C   0  0  0  0  0  2  0  0  0  0  0  0
   38.6070   27.0980   43.4960 C   0  0  0  0  0  2  0  0  0  0  0  0
   39.5830   28.1880   43.1260 C   0  0  0  0  0  2  0  0  0  0  0  0
   38.7670   29.3180   42.5810 C   0  0  0  0  0  2  0  0  0  0  0  0
  1  2  2  0  0  0  0
  1  5  1  0  0  0  0
  2  3  1  0  0  0  0
  3  7  1  0  0  0  0
  3  4  2  0  0  0  0
  4 17  1  0  0  0  0
  5  4  1  0  0  0  0
  6  2  1  0  0  0  0
  8  9  2  0  0  0  0
  8 13  1  0  0  0  0
  9 10  1  0  0  0  0
 10 16  1  0  0  0  0
 10 11  2  0  0  0  0
 12 11  1  0  0  0  0
 12  1  1  0  0  0  0
 13 12  2  0  0  0  0
 14  8  1  0  0  0  0
 15  9  1  0  0  0  0
 17 18  1  0  0  0  0
 19 18  1  0  0  0  0
 20 19  1  0  0  0  0
 21 17  1  0  0  0  0
 21 20  1  0  0  0  0
M  END
>  <minimizedAffinity>
-4.49647856

$$$$

 OpenBabel03252509173D

 21 23  0  0  0  0  0  0  0  0999 V2000
   35.9380   28.6700   38.6210 C   0  0  0  0  0  0  0  0  0  0  0  0
   35.6780   29.7410   39.5210 C   0  0  0  0  0  0  0  0  0  0  0  0
   35.8390   29.5170   40.8500 C   0  0  0  0  0  0  0  0  0  0  0  0
   36.2590   28.2280   41.2760 C   0  0  0  0  0  0  0  0  0  0  0  0
   36.4320   27.2870   39.7060 S   0  0  0  0  0  0  0  0  0  0  0  0
   35.3630   30.6950   39.1300 H   0  0  0  0  0  0  0  0  0  0  0  0
   35.6690   30.2440   41.5990 H   0  0  0  0  0  0  0  0  0  0  0  0
   34.7260   29.0820   35.1390 C   0  0  0  0  0  0  0  0  0  0  0  0
   35.9440   28.8690   34.4410 C   0  0  0  0  0  0  0  0  0  0  0  0
   37.1040   28.6000   35.1780 C   0  0  0  0  0  0  0  0  0  0  0  0
   36.9880   28.5580   36.5440 N   0  0  0  0  0  0  0  0  0  0  0  0
   35.8050   28.7680   37.1620 C   0  0  0  0  0  0  0  0  0  0  0  0
   34.6710   29.0300   36.4680 N   0  0  0  0  0  0  0  0  0  0  0  0
   33.8360   29.2890   34.5620 H   0  0  0  0  0  0  0  0  0  0  0  0
   36.0240   28.9040   33.3740 H   0  0  0  0  0  0  0  0  0  0  0  0
   38.0680   28.4270   34.7200 H   0  0  0  0  0  0  0  0  0  0  0  0
   36.5250   27.6550   42.5360 C   0  0  0  0  0  3  0  0  0  0  0  0
   37.1710   26.2990   42.5600 C   0  0  0  0  0  2  0  0  0  0  0  0
   38.6320   26.5690   42.5500 C   0  0  0  0  0  2  0  0  0  0  0  0
   38.7850   27.8220   43.3770 C   0  0  0  0  0  2  0  0  0  0  0  0
   37.4560   28.5100   43.3530 C   0  0  0  0  0  2  0  0  0  0  0  0
  1  2  2  0  0  0  0
  1  5  1  0  0  0  0
  2  3  1  0  0  0  0
  3  4  2  0  0  0  0
  3  7  1  0  0  0  0
  4 17  1  0  0  0  0
  5  4  1  0  0  0  0
  6  2  1  0  0  0  0
  8 13  1  0  0  0  0
  9  8  2  0  0  0  0
  9 10  1  0  0  0  0
 10 11  2  0  0  0  0
 11 12  1  0  0  0  0
 12  1  1  0  0  0  0
 13 12  2  0  0  0  0
 14  8  1  0  0  0  0
 15  9  1  0  0  0  0
 16 10  1  0  0  0  0
 17 18  1  0  0  0  0
 17 21  1  0  0  0  0
 19 18  1  0  0  0  0
 19 20  1  0  0  0  0
 21 20  1  0  0  0  0
M  END
>  <minimizedAffinity>
-4.43892431

$$$$
