
 OpenBabel03252508543D

 39 42  0  0  1  0  0  0  0  0999 V2000
   43.3080   34.5030   40.7700 C   0  0  0  0  0  0  0  0  0  0  0  0
   43.2830   35.7190   40.4310 O   0  0  0  0  0  0  0  0  0  0  0  0
   41.9310   34.1260   40.4800 N   0  0  0  0  0  0  0  0  0  0  0  0
   41.5430   34.3110   39.0870 C   0  0  0  0  0  0  0  0  0  0  0  0
   40.7740   35.6240   39.0600 C   0  0  0  0  0  0  0  0  0  0  0  0
   40.0010   35.7110   40.3770 C   0  0  0  0  0  0  0  0  0  0  0  0
   39.6290   34.3310   40.8850 C   0  0  0  0  0  0  0  0  0  0  0  0
   40.9070   33.6040   41.3560 C   0  0  1  0  0  0  0  0  0  0  0  0
   42.4030   34.3060   38.4020 H   0  0  0  0  0  0  0  0  0  0  0  0
   40.8530   33.4680   38.7990 H   0  0  0  0  0  0  0  0  0  0  0  0
   40.0900   35.6880   38.1960 H   0  0  0  0  0  0  0  0  0  0  0  0
   41.5110   36.4620   39.0340 H   0  0  0  0  0  0  0  0  0  0  0  0
   39.0690   36.2380   40.1450 H   0  0  0  0  0  0  0  0  0  0  0  0
   40.5390   36.3120   41.1400 H   0  0  0  0  0  0  0  0  0  0  0  0
   39.1380   33.8000   40.0570 H   0  0  0  0  0  0  0  0  0  0  0  0
   38.9670   34.5200   41.7650 H   0  0  0  0  0  0  0  0  0  0  0  0
   41.0670   33.8980   42.4020 H   0  0  0  0  0  0  0  0  0  0  0  0
   40.6120   32.1440   41.1820 C   0  0  0  0  0  3  0  0  0  0  0  0
   40.6770   31.3160   42.4130 C   0  0  0  0  0  2  0  0  0  0  0  0
   39.8550   30.0810   42.0190 C   0  0  0  0  0  2  0  0  0  0  0  0
   38.6270   30.7700   41.4460 C   0  0  0  0  0  2  0  0  0  0  0  0
   39.1290   32.0550   40.8180 C   0  0  0  0  0  2  0  0  0  0  0  0
   44.3600   33.7740   41.2690 O   0  0  0  0  0  0  0  0  0  0  0  0
   45.6940   34.0660   41.1150 C   0  0  0  0  0  0  0  0  0  0  0  0
   46.3530   34.6920   42.1910 C   0  0  0  0  0  0  0  0  0  0  0  0
   47.7090   34.9760   42.0030 C   0  0  0  0  0  0  0  0  0  0  0  0
   48.3100   34.6470   40.8290 N   0  0  0  0  0  0  0  0  0  0  0  0
   47.6360   34.0550   39.8430 C   0  0  0  0  0  0  0  0  0  0  0  0
   46.3270   33.7640   39.9850 N   0  0  0  0  0  0  0  0  0  0  0  0
   48.2200   35.4610   42.8370 H   0  0  0  0  0  0  0  0  0  0  0  0
   48.1010   33.7860   38.9000 H   0  0  0  0  0  0  0  0  0  0  0  0
   45.6330   35.0020   43.3970 C   0  0  0  0  0  0  0  0  0  0  0  0
   45.0250   36.2390   43.6210 C   0  0  0  0  0  0  0  0  0  0  0  0
   44.4610   36.1080   44.8710 C   0  0  0  0  0  0  0  0  0  0  0  0
   44.7040   34.8860   45.3740 N   0  0  0  0  0  0  0  0  0  0  0  0
   45.4070   34.2480   44.4710 N   0  0  0  0  0  0  0  0  0  0  0  0
   45.0000   37.0970   42.9710 H   0  0  0  0  0  0  0  0  0  0  0  0
   43.9030   36.9230   45.3390 H   0  0  0  0  0  0  0  0  0  0  0  0
   44.3510   34.5960   46.3280 H   0  0  0  0  0  0  0  0  0  0  0  0
  1 23  1  0  0  0  0
  2  1  2  0  0  0  0
  3  1  1  0  0  0  0
  3  8  1  0  0  0  0
  4  3  1  0  0  0  0
  5  4  1  0  0  0  0
  5  6  1  0  0  0  0
  6  7  1  0  0  0  0
  6 14  1  0  0  0  0
  7  8  1  0  0  0  0
  7 16  1  0  0  0  0
  8 17  1  1  0  0  0
  9  4  1  0  0  0  0
 10  4  1  0  0  0  0
 11  5  1  0  0  0  0
 12  5  1  0  0  0  0
 13  6  1  0  0  0  0
 15  7  1  0  0  0  0
 18  8  1  0  0  0  0
 18 19  1  0  0  0  0
 20 19  1  0  0  0  0
 21 20  1  0  0  0  0
 22 18  1  0  0  0  0
 22 21  1  0  0  0  0
 24 23  1  0  0  0  0
 24 25  1  0  0  0  0
 25 32  1  0  0  0  0
 26 25  2  0  0  0  0
 26 30  1  0  0  0  0
 27 26  1  0  0  0  0
 28 29  1  0  0  0  0
 28 27  2  0  0  0  0
 29 24  2  0  0  0  0
 31 28  1  0  0  0  0
 32 33  1  0  0  0  0
 32 36  2  0  0  0  0
 33 34  2  0  0  0  0
 34 38  1  0  0  0  0
 34 35  1  0  0  0  0
 35 39  1  0  0  0  0
 36 35  1  0  0  0  0
 37 33  1  0  0  0  0
M  END
>  <minimizedAffinity>
-6.78704166

>  <minimizedRMSD>
0.417162865

$$$$
