
 OpenBabel03242518323D

 24 26  0  0  0  0  0  0  0  0999 V2000
   47.1720   33.6070   41.1950 O   0  0  0  0  0  0  0  0  0  0  0  0
   47.3080   33.7140   39.7920 C   0  0  0  0  0  0  0  0  0  0  0  0
   48.2610   34.2720   38.9880 C   0  0  0  0  0  0  0  0  0  0  0  0
   47.8750   34.0810   37.6780 C   0  0  0  0  0  0  0  0  0  0  0  0
   46.6820   33.4050   37.7370 C   0  0  0  0  0  0  0  0  0  0  0  0
   46.3580   33.1930   39.0050 O   0  0  0  0  0  0  0  0  0  0  0  0
   49.1280   34.7530   39.4190 H   0  0  0  0  0  0  0  0  0  0  0  0
   48.4200   34.4090   36.8280 H   0  0  0  0  0  0  0  0  0  0  0  0
   45.8460   32.9560   36.5710 C   0  0  0  0  0  0  0  0  0  0  0  0
   44.7360   32.0370   36.9650 C   0  0  0  0  0  0  0  0  0  0  0  0
   45.3320   30.6510   36.8220 C   0  0  0  0  0  0  0  0  0  0  0  0
   46.5230   30.7930   35.9170 C   0  0  0  0  0  0  0  0  0  0  0  0
   46.7000   32.2410   35.5810 C   0  0  0  0  0  0  0  0  0  0  0  0
   47.3270   34.7570   41.9910 C   0  0  0  0  0  0  0  0  0  0  0  0
   48.1800   35.5870   41.6360 O   0  0  0  0  0  0  0  0  0  0  0  0
   46.4530   34.8030   43.1310 C   0  0  0  0  0  0  0  0  0  0  0  0
   45.5720   35.8720   43.0740 C   0  0  0  0  0  0  0  0  0  0  0  0
   44.6690   36.0000   44.1570 C   0  0  0  0  0  0  0  0  0  0  0  0
   44.7210   35.0870   45.1610 N   0  0  0  0  0  0  0  0  0  0  0  0
   45.6060   34.0770   45.1450 C   0  0  0  0  0  0  0  0  0  0  0  0
   46.4790   33.9280   44.1290 N   0  0  0  0  0  0  0  0  0  0  0  0
   45.5120   36.6070   42.2890 H   0  0  0  0  0  0  0  0  0  0  0  0
   43.9530   36.8290   44.1560 H   0  0  0  0  0  0  0  0  0  0  0  0
   45.5900   33.3790   45.9890 H   0  0  0  0  0  0  0  0  0  0  0  0
  1 14  1  0  0  0  0
  2  1  1  0  0  0  0
  3  7  1  0  0  0  0
  3  2  2  0  0  0  0
  4  5  2  0  0  0  0
  4  3  1  0  0  0  0
  5  6  1  0  0  0  0
  6  2  1  0  0  0  0
  8  4  1  0  0  0  0
  9 10  1  0  0  0  0
  9  5  1  0  0  0  0
 11 10  1  0  0  0  0
 12 11  1  0  0  0  0
 13 12  1  0  0  0  0
 13  9  1  0  0  0  0
 14 16  1  0  0  0  0
 15 14  2  0  0  0  0
 16 21  1  0  0  0  0
 17 16  2  0  0  0  0
 17 18  1  0  0  0  0
 18 19  2  0  0  0  0
 20 19  1  0  0  0  0
 20 24  1  0  0  0  0
 21 20  2  0  0  0  0
 22 17  1  0  0  0  0
 23 18  1  0  0  0  0
M  END
>  <minimizedAffinity>
-4.5790596

>  <minimizedRMSD>
0.529640257

$$$$
