
 OpenBabel03242522243D

 24 26  0  0  0  0  0  0  0  0999 V2000
   44.5210   35.6200   45.2730 C   0  0  0  0  0  0  0  0  0  0  0  0
   45.1440   35.5760   44.0270 C   0  0  0  0  0  0  0  0  0  0  0  0
   46.0010   34.5540   43.6400 C   0  0  0  0  0  0  0  0  0  0  0  0
   46.2040   33.5680   44.5690 N   0  0  0  0  0  0  0  0  0  0  0  0
   45.5990   33.6110   45.7780 C   0  0  0  0  0  0  0  0  0  0  0  0
   44.7800   34.6120   46.1190 N   0  0  0  0  0  0  0  0  0  0  0  0
   43.8670   36.4070   45.5580 H   0  0  0  0  0  0  0  0  0  0  0  0
   44.9740   36.3670   43.2970 H   0  0  0  0  0  0  0  0  0  0  0  0
   44.4710   33.0340   41.6600 Cl  0  0  0  0  0  0  0  0  0  0  0  0
   46.0060   33.8220   41.3330 C   0  0  0  0  0  0  0  0  0  0  0  0
   46.6480   34.5150   42.3360 C   0  0  0  0  0  0  0  0  0  0  0  0
   47.8610   35.1270   42.0440 C   0  0  0  0  0  0  0  0  0  0  0  0
   48.4100   35.0460   40.7830 C   0  0  0  0  0  0  0  0  0  0  0  0
   47.7200   34.3310   39.7980 C   0  0  0  0  0  0  0  0  0  0  0  0
   48.4130   34.2250   38.2010 Cl  0  0  0  0  0  0  0  0  0  0  0  0
   46.5120   33.7080   40.0520 C   0  0  0  0  0  0  0  0  0  0  0  0
   48.3460   35.6670   42.8540 H   0  0  0  0  0  0  0  0  0  0  0  0
   49.3580   35.5390   40.6010 H   0  0  0  0  0  0  0  0  0  0  0  0
   46.0120   33.1640   39.2550 H   0  0  0  0  0  0  0  0  0  0  0  0
   45.8990   32.4810   46.7070 C   0  0  0  0  0  0  0  0  0  0  0  0
   45.0560   32.5740   47.9680 C   0  0  0  0  0  0  0  0  0  0  0  0
   45.7740   31.7770   49.0120 C   0  0  0  0  0  0  0  0  0  0  0  0
   47.2220   31.8470   48.6160 C   0  0  0  0  0  0  0  0  0  0  0  0
   47.2980   32.5570   47.2810 C   0  0  0  0  0  0  0  0  0  0  0  0
  1  7  1  0  0  0  0
  1  6  1  0  0  0  0
  2  1  2  0  0  0  0
  3  2  1  0  0  0  0
  3  4  2  0  0  0  0
  4  5  1  0  0  0  0
  5  6  2  0  0  0  0
  5 20  1  0  0  0  0
  8  2  1  0  0  0  0
 10  9  1  0  0  0  0
 10 11  1  0  0  0  0
 11  3  1  0  0  0  0
 12 11  2  0  0  0  0
 12 17  1  0  0  0  0
 13 12  1  0  0  0  0
 14 16  1  0  0  0  0
 14 13  2  0  0  0  0
 15 14  1  0  0  0  0
 16 10  2  0  0  0  0
 18 13  1  0  0  0  0
 19 16  1  0  0  0  0
 20 24  1  0  0  0  0
 20 21  1  0  0  0  0
 21 22  1  0  0  0  0
 23 22  1  0  0  0  0
 24 23  1  0  0  0  0
M  END
>  <minimizedAffinity>
-6.40284252

>  <minimizedRMSD>
0.632069528

$$$$
