
 OpenBabel03252509213D

 21 23  0  0  0  0  0  0  0  0999 V2000
   38.2270   30.7990   40.6590 C   0  0  0  0  0  0  0  0  0  0  0  0
   37.2960   29.6880   40.7500 C   0  0  0  0  0  0  0  0  0  0  0  0
   37.5070   28.9800   41.9230 C   0  0  0  0  0  0  0  0  0  0  0  0
   38.4860   29.3330   42.8440 N   0  0  0  0  0  0  0  0  0  0  0  0
   39.3000   30.3800   42.6750 C   0  0  0  0  0  0  0  0  0  0  0  0
   39.1710   31.1230   41.5690 N   0  0  0  0  0  0  0  0  0  0  0  0
   38.2190   31.4690   39.8090 H   0  0  0  0  0  0  0  0  0  0  0  0
   39.9560   30.4340   43.5220 H   0  0  0  0  0  0  0  0  0  0  0  0
   36.5590   27.8470   42.2210 C   0  0  0  0  0  0  0  0  0  0  0  0
   37.3350   26.5640   42.5780 C   0  0  0  0  0  0  0  0  0  0  0  0
   36.4840   27.3800   43.5760 C   0  0  0  0  0  0  0  0  0  0  0  0
   35.7960   27.6230   41.4820 H   0  0  0  0  0  0  0  0  0  0  0  0
   36.9360   25.5910   42.3050 H   0  0  0  0  0  0  0  0  0  0  0  0
   38.3990   26.6710   42.7100 H   0  0  0  0  0  0  0  0  0  0  0  0
   37.0520   27.9150   44.3830 H   0  0  0  0  0  0  0  0  0  0  0  0
   35.6300   26.8290   44.0170 H   0  0  0  0  0  0  0  0  0  0  0  0
   36.3340   29.4730   39.7310 C   0  0  0  0  0  3  0  0  0  0  0  0
   34.8730   29.3940   40.0200 C   0  0  0  0  0  2  0  0  0  0  0  0
   34.3810   28.8350   38.6920 C   0  0  0  0  0  2  0  0  0  0  0  0
   35.4150   29.2020   37.6460 C   0  0  0  0  0  2  0  0  0  0  0  0
   36.4150   30.1130   38.4030 C   0  0  0  0  0  2  0  0  0  0  0  0
  1  2  2  0  0  0  0
  1  6  1  0  0  0  0
  2  3  1  0  0  0  0
  3  9  1  0  0  0  0
  3  4  2  0  0  0  0
  5  4  1  0  0  0  0
  5  8  1  0  0  0  0
  6  5  2  0  0  0  0
  7  1  1  0  0  0  0
  9 10  1  0  0  0  0
  9 11  1  0  0  0  0
 10 14  1  0  0  0  0
 10 11  1  0  0  0  0
 11 16  1  0  0  0  0
 11 15  1  0  0  0  0
 12  9  1  0  0  0  0
 13 10  1  0  0  0  0
 17 18  1  0  0  0  0
 17  2  1  0  0  0  0
 19 18  1  0  0  0  0
 20 21  1  0  0  0  0
 20 19  1  0  0  0  0
 21 17  1  0  0  0  0
M  END
>  <minimizedAffinity>
-4.5786953

$$$$

 OpenBabel03252509213D

 21 23  0  0  0  0  0  0  0  0999 V2000
   38.8950   31.2440   41.5010 C   0  0  0  0  0  0  0  0  0  0  0  0
   38.0620   30.0640   41.6460 C   0  0  0  0  0  0  0  0  0  0  0  0
   36.8590   30.2410   40.9790 C   0  0  0  0  0  0  0  0  0  0  0  0
   36.5520   31.4050   40.2860 N   0  0  0  0  0  0  0  0  0  0  0  0
   37.3880   32.4450   40.2050 C   0  0  0  0  0  0  0  0  0  0  0  0
   38.5750   32.3660   40.8200 N   0  0  0  0  0  0  0  0  0  0  0  0
   39.8760   31.2970   41.9550 H   0  0  0  0  0  0  0  0  0  0  0  0
   36.9170   33.2080   39.6170 H   0  0  0  0  0  0  0  0  0  0  0  0
   35.9120   29.0680   40.9500 C   0  0  0  0  0  0  0  0  0  0  0  0
   34.9240   29.1930   39.7730 C   0  0  0  0  0  0  0  0  0  0  0  0
   36.0440   28.1330   39.8690 C   0  0  0  0  0  0  0  0  0  0  0  0
   35.3710   28.8360   41.8620 H   0  0  0  0  0  0  0  0  0  0  0  0
   33.9100   28.8160   39.8700 H   0  0  0  0  0  0  0  0  0  0  0  0
   35.1200   29.9830   39.0670 H   0  0  0  0  0  0  0  0  0  0  0  0
   36.8880   28.2410   39.1370 H   0  0  0  0  0  0  0  0  0  0  0  0
   35.6900   27.0840   39.8840 H   0  0  0  0  0  0  0  0  0  0  0  0
   38.5310   28.9390   42.3710 C   0  0  0  0  0  3  0  0  0  0  0  0
   39.9840   28.6610   42.5570 C   0  0  0  0  0  2  0  0  0  0  0  0
   39.9040   27.2320   43.0750 C   0  0  0  0  0  2  0  0  0  0  0  0
   38.5260   27.0530   43.6790 C   0  0  0  0  0  2  0  0  0  0  0  0
   37.9000   28.4700   43.6210 C   0  0  0  0  0  2  0  0  0  0  0  0
  1  2  1  0  0  0  0
  1  7  1  0  0  0  0
  2 17  1  0  0  0  0
  3  2  2  0  0  0  0
  4  3  1  0  0  0  0
  5  4  2  0  0  0  0
  5  6  1  0  0  0  0
  6  1  2  0  0  0  0
  8  5  1  0  0  0  0
  9  3  1  0  0  0  0
  9 12  1  0  0  0  0
 10 11  1  0  0  0  0
 10 13  1  0  0  0  0
 10  9  1  0  0  0  0
 11 16  1  0  0  0  0
 11  9  1  0  0  0  0
 14 10  1  0  0  0  0
 15 11  1  0  0  0  0
 17 18  1  0  0  0  0
 17 21  1  0  0  0  0
 18 19  1  0  0  0  0
 19 20  1  0  0  0  0
 21 20  1  0  0  0  0
M  END
>  <minimizedAffinity>
-4.46685123

$$$$

 OpenBabel03252509213D

 21 23  0  0  0  0  0  0  0  0999 V2000
   36.7700   30.7990   40.8730 C   0  0  0  0  0  0  0  0  0  0  0  0
   37.7430   30.0610   41.6600 C   0  0  0  0  0  0  0  0  0  0  0  0
   38.9260   30.7780   41.7550 C   0  0  0  0  0  0  0  0  0  0  0  0
   39.0970   32.0220   41.1610 N   0  0  0  0  0  0  0  0  0  0  0  0
   38.1380   32.6270   40.4530 C   0  0  0  0  0  0  0  0  0  0  0  0
   36.9590   32.0100   40.3060 N   0  0  0  0  0  0  0  0  0  0  0  0
   35.7820   30.3990   40.6860 H   0  0  0  0  0  0  0  0  0  0  0  0
   38.5200   33.5680   40.1080 H   0  0  0  0  0  0  0  0  0  0  0  0
   40.0140   30.1950   42.6210 C   0  0  0  0  0  0  0  0  0  0  0  0
   41.1590   29.6340   41.7560 C   0  0  0  0  0  0  0  0  0  0  0  0
   41.2740   30.8810   42.6600 C   0  0  0  0  0  0  0  0  0  0  0  0
   39.7230   29.4620   43.3680 H   0  0  0  0  0  0  0  0  0  0  0  0
   41.7160   28.7620   42.0860 H   0  0  0  0  0  0  0  0  0  0  0  0
   41.1130   29.8520   40.7020 H   0  0  0  0  0  0  0  0  0  0  0  0
   41.3900   31.8640   42.1310 H   0  0  0  0  0  0  0  0  0  0  0  0
   42.0220   30.7990   43.4730 H   0  0  0  0  0  0  0  0  0  0  0  0
   37.4060   28.8040   42.2230 C   0  0  0  0  0  3  0  0  0  0  0  0
   37.9560   27.5220   41.6970 C   0  0  0  0  0  2  0  0  0  0  0  0
   37.0370   26.5400   42.4100 C   0  0  0  0  0  2  0  0  0  0  0  0
   36.5090   27.2420   43.6450 C   0  0  0  0  0  2  0  0  0  0  0  0
   37.2820   28.5850   43.6790 C   0  0  0  0  0  2  0  0  0  0  0  0
  1  2  1  0  0  0  0
  2  3  2  0  0  0  0
  2 17  1  0  0  0  0
  3  9  1  0  0  0  0
  4  3  1  0  0  0  0
  5  4  2  0  0  0  0
  6  5  1  0  0  0  0
  6  1  2  0  0  0  0
  7  1  1  0  0  0  0
  8  5  1  0  0  0  0
  9 11  1  0  0  0  0
  9 12  1  0  0  0  0
 10 13  1  0  0  0  0
 10  9  1  0  0  0  0
 10 11  1  0  0  0  0
 11 16  1  0  0  0  0
 14 10  1  0  0  0  0
 15 11  1  0  0  0  0
 17 21  1  0  0  0  0
 18 17  1  0  0  0  0
 18 19  1  0  0  0  0
 19 20  1  0  0  0  0
 20 21  1  0  0  0  0
M  END
>  <minimizedAffinity>
-4.34280348

$$$$

 OpenBabel03252509213D

 21 23  0  0  0  0  0  0  0  0999 V2000
   37.0670   29.0850   42.1700 C   0  0  0  0  0  0  0  0  0  0  0  0
   36.7910   28.0440   41.1950 C   0  0  0  0  0  0  0  0  0  0  0  0
   37.3080   26.8320   41.6270 C   0  0  0  0  0  0  0  0  0  0  0  0
   37.9840   26.6940   42.8330 N   0  0  0  0  0  0  0  0  0  0  0  0
   38.1900   27.7150   43.6710 C   0  0  0  0  0  0  0  0  0  0  0  0
   37.7270   28.9260   43.3380 N   0  0  0  0  0  0  0  0  0  0  0  0
   36.7430   30.1050   42.0090 H   0  0  0  0  0  0  0  0  0  0  0  0
   38.7290   27.3460   44.5220 H   0  0  0  0  0  0  0  0  0  0  0  0
   37.0250   25.6230   40.7730 C   0  0  0  0  0  0  0  0  0  0  0  0
   38.1420   24.5720   40.9260 C   0  0  0  0  0  0  0  0  0  0  0  0
   36.6980   24.3960   41.4440 C   0  0  0  0  0  0  0  0  0  0  0  0
   36.8160   25.7880   39.7210 H   0  0  0  0  0  0  0  0  0  0  0  0
   38.4200   23.9440   40.0850 H   0  0  0  0  0  0  0  0  0  0  0  0
   38.8710   24.7590   41.6980 H   0  0  0  0  0  0  0  0  0  0  0  0
   36.5720   24.3870   42.5590 H   0  0  0  0  0  0  0  0  0  0  0  0
   36.1430   23.5500   40.9940 H   0  0  0  0  0  0  0  0  0  0  0  0
   36.0630   28.3410   40.0150 C   0  0  0  0  0  3  0  0  0  0  0  0
   34.7900   29.1180   40.0390 C   0  0  0  0  0  2  0  0  0  0  0  0
   34.3000   28.8460   38.6230 C   0  0  0  0  0  2  0  0  0  0  0  0
   35.5180   28.4970   37.7910 C   0  0  0  0  0  2  0  0  0  0  0  0
   36.7140   28.7350   38.7490 C   0  0  0  0  0  2  0  0  0  0  0  0
  1  6  1  0  0  0  0
  2  3  1  0  0  0  0
  2  1  2  0  0  0  0
  3  4  2  0  0  0  0
  4  5  1  0  0  0  0
  5  8  1  0  0  0  0
  6  5  2  0  0  0  0
  7  1  1  0  0  0  0
  9 10  1  0  0  0  0
  9 11  1  0  0  0  0
  9  3  1  0  0  0  0
 10 11  1  0  0  0  0
 10 14  1  0  0  0  0
 11 15  1  0  0  0  0
 12  9  1  0  0  0  0
 13 10  1  0  0  0  0
 16 11  1  0  0  0  0
 17 18  1  0  0  0  0
 17  2  1  0  0  0  0
 19 18  1  0  0  0  0
 20 19  1  0  0  0  0
 20 21  1  0  0  0  0
 21 17  1  0  0  0  0
M  END
>  <minimizedAffinity>
-4.26664066

$$$$

 OpenBabel03252509213D

 21 23  0  0  0  0  0  0  0  0999 V2000
   38.7920   27.2630   42.5410 C   0  0  0  0  0  0  0  0  0  0  0  0
   37.5840   27.1990   41.7370 C   0  0  0  0  0  0  0  0  0  0  0  0
   36.9790   28.4450   41.6800 C   0  0  0  0  0  0  0  0  0  0  0  0
   37.5020   29.5610   42.3210 N   0  0  0  0  0  0  0  0  0  0  0  0
   38.6270   29.5240   43.0420 C   0  0  0  0  0  0  0  0  0  0  0  0
   39.2820   28.3620   43.1550 N   0  0  0  0  0  0  0  0  0  0  0  0
   39.4040   26.3860   42.7040 H   0  0  0  0  0  0  0  0  0  0  0  0
   38.8110   30.5090   43.4260 H   0  0  0  0  0  0  0  0  0  0  0  0
   35.7600   28.5760   40.8030 C   0  0  0  0  0  0  0  0  0  0  0  0
   35.5840   30.0310   40.3250 C   0  0  0  0  0  0  0  0  0  0  0  0
   35.9680   28.8480   39.4090 C   0  0  0  0  0  0  0  0  0  0  0  0
   34.8180   28.2000   41.1920 H   0  0  0  0  0  0  0  0  0  0  0  0
   34.5890   30.4390   40.1730 H   0  0  0  0  0  0  0  0  0  0  0  0
   36.3950   30.7060   40.5420 H   0  0  0  0  0  0  0  0  0  0  0  0
   37.0100   28.8650   38.9940 H   0  0  0  0  0  0  0  0  0  0  0  0
   35.2430   28.6320   38.6000 H   0  0  0  0  0  0  0  0  0  0  0  0
   37.1940   25.9810   41.1240 C   0  0  0  0  0  3  0  0  0  0  0  0
   37.7020   25.5650   39.7860 C   0  0  0  0  0  2  0  0  0  0  0  0
   36.7390   24.4220   39.4930 C   0  0  0  0  0  2  0  0  0  0  0  0
   36.2220   23.9230   40.8270 C   0  0  0  0  0  2  0  0  0  0  0  0
   37.0450   24.7180   41.8740 C   0  0  0  0  0  2  0  0  0  0  0  0
  1  7  1  0  0  0  0
  1  6  1  0  0  0  0
  2  1  2  0  0  0  0
  3  2  1  0  0  0  0
  3  4  2  0  0  0  0
  4  5  1  0  0  0  0
  5  6  2  0  0  0  0
  5  8  1  0  0  0  0
  9 12  1  0  0  0  0
  9  3  1  0  0  0  0
 10 14  1  0  0  0  0
 10  9  1  0  0  0  0
 11 10  1  0  0  0  0
 11  9  1  0  0  0  0
 13 10  1  0  0  0  0
 15 11  1  0  0  0  0
 16 11  1  0  0  0  0
 17  2  1  0  0  0  0
 17 21  1  0  0  0  0
 18 17  1  0  0  0  0
 19 18  1  0  0  0  0
 19 20  1  0  0  0  0
 20 21  1  0  0  0  0
M  END
>  <minimizedAffinity>
-4.25217724

$$$$

 OpenBabel03252509213D

 21 23  0  0  0  0  0  0  0  0999 V2000
   40.2490   30.2310   42.2650 C   0  0  0  0  0  0  0  0  0  0  0  0
   38.8590   30.1360   41.8530 C   0  0  0  0  0  0  0  0  0  0  0  0
   38.5070   31.2440   41.0960 C   0  0  0  0  0  0  0  0  0  0  0  0
   39.4010   32.2660   40.8050 N   0  0  0  0  0  0  0  0  0  0  0  0
   40.6690   32.2670   41.2290 C   0  0  0  0  0  0  0  0  0  0  0  0
   41.1010   31.2370   41.9690 N   0  0  0  0  0  0  0  0  0  0  0  0
   40.7090   29.4580   42.8670 H   0  0  0  0  0  0  0  0  0  0  0  0
   41.1420   33.1600   40.8700 H   0  0  0  0  0  0  0  0  0  0  0  0
   37.1200   31.2580   40.5060 C   0  0  0  0  0  0  0  0  0  0  0  0
   37.0260   32.2790   39.3560 C   0  0  0  0  0  0  0  0  0  0  0  0
   36.9570   30.7470   39.1750 C   0  0  0  0  0  0  0  0  0  0  0  0
   36.2850   31.3930   41.1870 H   0  0  0  0  0  0  0  0  0  0  0  0
   36.0990   32.8160   39.1760 H   0  0  0  0  0  0  0  0  0  0  0  0
   37.9540   32.7230   39.0340 H   0  0  0  0  0  0  0  0  0  0  0  0
   37.8280   30.2730   38.6490 H   0  0  0  0  0  0  0  0  0  0  0  0
   36.0070   30.3720   38.7460 H   0  0  0  0  0  0  0  0  0  0  0  0
   38.0790   29.0090   42.2130 C   0  0  0  0  0  3  0  0  0  0  0  0
   38.1680   27.7130   41.4810 C   0  0  0  0  0  2  0  0  0  0  0  0
   36.9330   27.0200   42.0410 C   0  0  0  0  0  2  0  0  0  0  0  0
   36.6300   27.6640   43.3790 C   0  0  0  0  0  2  0  0  0  0  0  0
   37.8230   28.6260   43.6160 C   0  0  0  0  0  2  0  0  0  0  0  0
  1  7  1  0  0  0  0
  2 17  1  0  0  0  0
  2  1  2  0  0  0  0
  3  2  1  0  0  0  0
  4  3  2  0  0  0  0
  4  5  1  0  0  0  0
  5  6  2  0  0  0  0
  6  1  1  0  0  0  0
  8  5  1  0  0  0  0
  9  3  1  0  0  0  0
  9 12  1  0  0  0  0
 10  9  1  0  0  0  0
 11 10  1  0  0  0  0
 11  9  1  0  0  0  0
 13 10  1  0  0  0  0
 14 10  1  0  0  0  0
 15 11  1  0  0  0  0
 16 11  1  0  0  0  0
 17 21  1  0  0  0  0
 18 19  1  0  0  0  0
 18 17  1  0  0  0  0
 19 20  1  0  0  0  0
 20 21  1  0  0  0  0
M  END
>  <minimizedAffinity>
-4.15951014

$$$$

 OpenBabel03252509213D

 21 23  0  0  0  0  0  0  0  0999 V2000
   37.2590   33.0170   39.6540 C   0  0  0  0  0  0  0  0  0  0  0  0
   37.6560   31.6800   40.0600 C   0  0  0  0  0  0  0  0  0  0  0  0
   38.8500   31.7270   40.7630 C   0  0  0  0  0  0  0  0  0  0  0  0
   39.5240   32.9160   41.0140 N   0  0  0  0  0  0  0  0  0  0  0  0
   39.0780   34.1060   40.6000 C   0  0  0  0  0  0  0  0  0  0  0  0
   37.9310   34.1600   39.9110 N   0  0  0  0  0  0  0  0  0  0  0  0
   36.3500   33.1850   39.0910 H   0  0  0  0  0  0  0  0  0  0  0  0
   39.7750   34.8550   40.9220 H   0  0  0  0  0  0  0  0  0  0  0  0
   39.3570   30.4310   41.3410 C   0  0  0  0  0  0  0  0  0  0  0  0
   40.3100   30.6950   42.5230 C   0  0  0  0  0  0  0  0  0  0  0  0
   38.9060   30.0660   42.6540 C   0  0  0  0  0  0  0  0  0  0  0  0
   39.8070   29.7170   40.6580 H   0  0  0  0  0  0  0  0  0  0  0  0
   41.1450   30.0260   42.7120 H   0  0  0  0  0  0  0  0  0  0  0  0
   40.3740   31.7150   42.8660 H   0  0  0  0  0  0  0  0  0  0  0  0
   38.1320   30.6920   43.1720 H   0  0  0  0  0  0  0  0  0  0  0  0
   38.8950   29.0370   43.0640 H   0  0  0  0  0  0  0  0  0  0  0  0
   36.8410   30.5630   39.7450 C   0  0  0  0  0  3  0  0  0  0  0  0
   35.7010   30.1410   40.6070 C   0  0  0  0  0  2  0  0  0  0  0  0
   35.4250   28.7680   40.0110 C   0  0  0  0  0  2  0  0  0  0  0  0
   35.9620   28.7830   38.5930 C   0  0  0  0  0  2  0  0  0  0  0  0
   36.4010   30.2530   38.3700 C   0  0  0  0  0  2  0  0  0  0  0  0
  1  6  2  0  0  0  0
  1  2  1  0  0  0  0
  2  3  2  0  0  0  0
  3  4  1  0  0  0  0
  3  9  1  0  0  0  0
  5  8  1  0  0  0  0
  5  4  2  0  0  0  0
  6  5  1  0  0  0  0
  7  1  1  0  0  0  0
  9 10  1  0  0  0  0
  9 11  1  0  0  0  0
 10 11  1  0  0  0  0
 10 13  1  0  0  0  0
 10 14  1  0  0  0  0
 11 16  1  0  0  0  0
 11 15  1  0  0  0  0
 12  9  1  0  0  0  0
 17  2  1  0  0  0  0
 17 18  1  0  0  0  0
 19 18  1  0  0  0  0
 20 19  1  0  0  0  0
 21 20  1  0  0  0  0
 21 17  1  0  0  0  0
M  END
>  <minimizedAffinity>
-4.14229393

$$$$

 OpenBabel03252509213D

 21 23  0  0  0  0  0  0  0  0999 V2000
   36.1990   27.2600   39.1520 C   0  0  0  0  0  0  0  0  0  0  0  0
   36.7750   26.7980   40.4020 C   0  0  0  0  0  0  0  0  0  0  0  0
   36.6030   27.7530   41.3920 C   0  0  0  0  0  0  0  0  0  0  0  0
   35.9600   28.9630   41.1610 N   0  0  0  0  0  0  0  0  0  0  0  0
   35.4580   29.3030   39.9700 C   0  0  0  0  0  0  0  0  0  0  0  0
   35.5780   28.4420   38.9510 N   0  0  0  0  0  0  0  0  0  0  0  0
   36.2360   26.6500   38.2580 H   0  0  0  0  0  0  0  0  0  0  0  0
   35.0170   30.2770   40.0570 H   0  0  0  0  0  0  0  0  0  0  0  0
   37.0610   27.3910   42.7820 C   0  0  0  0  0  0  0  0  0  0  0  0
   38.5540   27.7250   42.9700 C   0  0  0  0  0  0  0  0  0  0  0  0
   37.3950   28.4650   43.6740 C   0  0  0  0  0  0  0  0  0  0  0  0
   36.8630   26.3830   43.1300 H   0  0  0  0  0  0  0  0  0  0  0  0
   39.1750   27.1070   43.6110 H   0  0  0  0  0  0  0  0  0  0  0  0
   39.0220   28.2850   42.1760 H   0  0  0  0  0  0  0  0  0  0  0  0
   37.2250   29.5280   43.3560 H   0  0  0  0  0  0  0  0  0  0  0  0
   37.4050   28.3990   44.7790 H   0  0  0  0  0  0  0  0  0  0  0  0
   37.3800   25.5180   40.4840 C   0  0  0  0  0  3  0  0  0  0  0  0
   36.5800   24.2660   40.6120 C   0  0  0  0  0  2  0  0  0  0  0  0
   37.6900   23.2930   40.9890 C   0  0  0  0  0  2  0  0  0  0  0  0
   38.9890   23.8820   40.4770 C   0  0  0  0  0  2  0  0  0  0  0  0
   38.5490   25.1300   39.6700 C   0  0  0  0  0  2  0  0  0  0  0  0
  1  2  1  0  0  0  0
  2 17  1  0  0  0  0
  2  3  2  0  0  0  0
  3  9  1  0  0  0  0
  4  3  1  0  0  0  0
  5  8  1  0  0  0  0
  5  4  2  0  0  0  0
  6  1  2  0  0  0  0
  6  5  1  0  0  0  0
  7  1  1  0  0  0  0
  9 10  1  0  0  0  0
  9 12  1  0  0  0  0
  9 11  1  0  0  0  0
 10 13  1  0  0  0  0
 10 11  1  0  0  0  0
 11 16  1  0  0  0  0
 14 10  1  0  0  0  0
 15 11  1  0  0  0  0
 17 18  1  0  0  0  0
 18 19  1  0  0  0  0
 20 19  1  0  0  0  0
 21 20  1  0  0  0  0
 21 17  1  0  0  0  0
M  END
>  <minimizedAffinity>
-4.10795259

$$$$

 OpenBabel03252509213D

 21 23  0  0  0  0  0  0  0  0999 V2000
   36.5740   25.4120   39.9220 C   0  0  0  0  0  0  0  0  0  0  0  0
   36.9760   26.6480   40.5720 C   0  0  0  0  0  0  0  0  0  0  0  0
   37.7700   26.3740   41.6750 C   0  0  0  0  0  0  0  0  0  0  0  0
   38.1010   25.0800   42.0550 N   0  0  0  0  0  0  0  0  0  0  0  0
   37.6840   23.9970   41.3910 C   0  0  0  0  0  0  0  0  0  0  0  0
   36.9100   24.1630   40.3110 N   0  0  0  0  0  0  0  0  0  0  0  0
   35.9470   25.4210   39.0400 H   0  0  0  0  0  0  0  0  0  0  0  0
   38.0760   23.1290   41.8840 H   0  0  0  0  0  0  0  0  0  0  0  0
   38.3530   27.5540   42.4100 C   0  0  0  0  0  0  0  0  0  0  0  0
   37.5360   27.8650   43.6800 C   0  0  0  0  0  0  0  0  0  0  0  0
   38.9760   27.3060   43.6790 C   0  0  0  0  0  0  0  0  0  0  0  0
   38.5180   28.4660   41.8460 H   0  0  0  0  0  0  0  0  0  0  0  0
   37.4290   28.8890   44.0230 H   0  0  0  0  0  0  0  0  0  0  0  0
   36.7800   27.1450   43.9490 H   0  0  0  0  0  0  0  0  0  0  0  0
   39.0950   26.2510   44.0460 H   0  0  0  0  0  0  0  0  0  0  0  0
   39.7280   27.9600   44.1610 H   0  0  0  0  0  0  0  0  0  0  0  0
   36.5720   27.9000   40.0440 C   0  0  0  0  0  3  0  0  0  0  0  0
   36.4310   28.1380   38.5790 C   0  0  0  0  0  2  0  0  0  0  0  0
   36.3220   29.6570   38.5780 C   0  0  0  0  0  2  0  0  0  0  0  0
   35.8250   30.0680   39.9490 C   0  0  0  0  0  2  0  0  0  0  0  0
   35.5120   28.7250   40.6580 C   0  0  0  0  0  2  0  0  0  0  0  0
  1  6  2  0  0  0  0
  1  2  1  0  0  0  0
  2  3  2  0  0  0  0
  3  4  1  0  0  0  0
  3  9  1  0  0  0  0
  5  8  1  0  0  0  0
  5  4  2  0  0  0  0
  6  5  1  0  0  0  0
  7  1  1  0  0  0  0
  9 11  1  0  0  0  0
  9 10  1  0  0  0  0
 10 14  1  0  0  0  0
 10 13  1  0  0  0  0
 11 10  1  0  0  0  0
 11 15  1  0  0  0  0
 11 16  1  0  0  0  0
 12  9  1  0  0  0  0
 17  2  1  0  0  0  0
 17 21  1  0  0  0  0
 18 17  1  0  0  0  0
 19 18  1  0  0  0  0
 19 20  1  0  0  0  0
 20 21  1  0  0  0  0
M  END
>  <minimizedAffinity>
-4.08390713

$$$$
