
 OpenBabel03242517393D

 29 31  0  0  0  0  0  0  0  0999 V2000
   34.3700   28.9600   37.4380 C   0  0  0  0  0  3  0  0  0  0  0  0
   33.1710   28.5480   37.0720 C   0  0  0  0  0  3  0  0  0  0  0  0
   35.0010   29.1750   39.8280 C   0  0  0  0  0  0  0  0  0  0  0  0
   35.0830   28.5250   38.6110 C   0  0  0  0  0  0  0  0  0  0  0  0
   35.8950   27.4140   38.5520 C   0  0  0  0  0  0  0  0  0  0  0  0
   36.5780   26.9870   39.6540 N   0  0  0  0  0  0  0  0  0  0  0  0
   36.4740   27.6480   40.8290 C   0  0  0  0  0  0  0  0  0  0  0  0
   35.6860   28.7360   40.9060 N   0  0  0  0  0  0  0  0  0  0  0  0
   34.3440   30.0560   39.8320 H   0  0  0  0  0  0  0  0  0  0  0  0
   36.0300   26.8310   37.6470 H   0  0  0  0  0  0  0  0  0  0  0  0
   37.1810   27.2530   42.0730 C   0  0  0  0  0  3  0  0  0  0  0  0
   36.3050   27.4010   43.2950 C   0  0  0  0  0  2  0  0  0  0  0  0
   37.2630   27.9760   44.3470 C   0  0  0  0  0  2  0  0  0  0  0  0
   38.0180   28.9700   43.4710 C   0  0  0  0  0  2  0  0  0  0  0  0
   38.4350   28.0570   42.3180 C   0  0  0  0  0  2  0  0  0  0  0  0
   32.4840   29.0460   35.8330 C   0  0  0  0  0  0  0  0  0  0  0  0
   31.9180   28.2430   35.3190 H   0  0  0  0  0  0  0  0  0  0  0  0
   33.2850   29.4290   35.1650 H   0  0  0  0  0  0  0  0  0  0  0  0
   31.5660   30.1630   36.1530 C   0  0  0  0  0  0  0  0  0  0  0  0
   31.3400   31.1520   35.2030 C   0  0  0  0  0  0  0  0  0  0  0  0
   30.4840   32.1970   35.4970 C   0  0  0  0  0  0  0  0  0  0  0  0
   29.8360   32.2980   36.7150 C   0  0  0  0  0  0  0  0  0  0  0  0
   30.0500   31.3200   37.6730 C   0  0  0  0  0  0  0  0  0  0  0  0
   30.9080   30.2690   37.3830 C   0  0  0  0  0  0  0  0  0  0  0  0
   31.8190   31.1390   34.2160 H   0  0  0  0  0  0  0  0  0  0  0  0
   30.2690   32.9970   34.7980 H   0  0  0  0  0  0  0  0  0  0  0  0
   29.1580   33.0810   37.0100 H   0  0  0  0  0  0  0  0  0  0  0  0
   29.5910   31.3040   38.6610 H   0  0  0  0  0  0  0  0  0  0  0  0
   31.0940   29.4850   38.1210 H   0  0  0  0  0  0  0  0  0  0  0  0
  1  4  1  0  0  0  0
  2  1  2  0  0  0  0
  3  9  1  0  0  0  0
  3  8  1  0  0  0  0
  4  3  2  0  0  0  0
  5  4  1  0  0  0  0
  5  6  2  0  0  0  0
  6  7  1  0  0  0  0
  7  8  2  0  0  0  0
  7 11  1  0  0  0  0
 10  5  1  0  0  0  0
 11 15  1  0  0  0  0
 11 12  1  0  0  0  0
 12 13  1  0  0  0  0
 14 13  1  0  0  0  0
 15 14  1  0  0  0  0
 16 19  1  0  0  0  0
 16  2  1  0  0  0  0
 17 16  1  0  0  0  0
 18 16  1  0  0  0  0
 19 24  1  0  0  0  0
 20 21  1  0  0  0  0
 20 19  2  0  0  0  0
 21 22  2  0  0  0  0
 22 27  1  0  0  0  0
 22 23  1  0  0  0  0
 23 28  1  0  0  0  0
 24 23  2  0  0  0  0
 24 29  1  0  0  0  0
 25 20  1  0  0  0  0
 26 21  1  0  0  0  0
M  END
>  <minimizedAffinity>
-6.05003357

$$$$

 OpenBabel03242517393D

 29 31  0  0  0  0  0  0  0  0999 V2000
   34.3920   28.6700   37.2950 C   0  0  0  0  0  3  0  0  0  0  0  0
   33.0980   28.8230   37.0870 C   0  0  0  0  0  3  0  0  0  0  0  0
   34.6890   29.2650   39.6850 C   0  0  0  0  0  0  0  0  0  0  0  0
   35.0210   28.5050   38.5800 C   0  0  0  0  0  0  0  0  0  0  0  0
   36.0030   27.5550   38.7510 C   0  0  0  0  0  0  0  0  0  0  0  0
   36.6100   27.3840   39.9610 N   0  0  0  0  0  0  0  0  0  0  0  0
   36.2590   28.1470   41.0220 C   0  0  0  0  0  0  0  0  0  0  0  0
   35.3020   29.0800   40.8750 N   0  0  0  0  0  0  0  0  0  0  0  0
   33.9010   30.0110   39.5070 H   0  0  0  0  0  0  0  0  0  0  0  0
   36.3390   26.9050   37.9490 H   0  0  0  0  0  0  0  0  0  0  0  0
   36.8670   28.0280   42.3710 C   0  0  0  0  0  3  0  0  0  0  0  0
   38.2520   28.6300   42.4240 C   0  0  0  0  0  2  0  0  0  0  0  0
   39.0360   27.6320   43.2860 C   0  0  0  0  0  2  0  0  0  0  0  0
   38.4790   26.3300   42.7190 C   0  0  0  0  0  2  0  0  0  0  0  0
   36.9790   26.5980   42.8420 C   0  0  0  0  0  2  0  0  0  0  0  0
   32.5090   28.9910   35.7160 C   0  0  0  0  0  0  0  0  0  0  0  0
   31.8780   28.1280   35.4250 H   0  0  0  0  0  0  0  0  0  0  0  0
   33.3680   29.0820   35.0180 H   0  0  0  0  0  0  0  0  0  0  0  0
   31.7060   30.2320   35.6370 C   0  0  0  0  0  0  0  0  0  0  0  0
   30.9520   30.6270   36.7360 C   0  0  0  0  0  0  0  0  0  0  0  0
   30.2000   31.7840   36.6680 C   0  0  0  0  0  0  0  0  0  0  0  0
   30.1680   32.5760   35.5330 C   0  0  0  0  0  0  0  0  0  0  0  0
   30.9140   32.1970   34.4290 C   0  0  0  0  0  0  0  0  0  0  0  0
   31.6710   31.0360   34.4920 C   0  0  0  0  0  0  0  0  0  0  0  0
   30.9280   30.0500   37.6690 H   0  0  0  0  0  0  0  0  0  0  0  0
   29.5930   32.1420   37.4910 H   0  0  0  0  0  0  0  0  0  0  0  0
   29.6070   33.4870   35.4110 H   0  0  0  0  0  0  0  0  0  0  0  0
   30.9600   32.7470   33.4890 H   0  0  0  0  0  0  0  0  0  0  0  0
   32.2670   30.7150   33.6350 H   0  0  0  0  0  0  0  0  0  0  0  0
  1  4  1  0  0  0  0
  2  1  2  0  0  0  0
  3  8  1  0  0  0  0
  4  5  1  0  0  0  0
  4  3  2  0  0  0  0
  5  6  2  0  0  0  0
  6  7  1  0  0  0  0
  7 11  1  0  0  0  0
  8  7  2  0  0  0  0
  9  3  1  0  0  0  0
 10  5  1  0  0  0  0
 11 12  1  0  0  0  0
 11 15  1  0  0  0  0
 12 13  1  0  0  0  0
 14 15  1  0  0  0  0
 14 13  1  0  0  0  0
 16  2  1  0  0  0  0
 17 16  1  0  0  0  0
 18 16  1  0  0  0  0
 19 16  1  0  0  0  0
 19 20  1  0  0  0  0
 20 25  1  0  0  0  0
 21 20  2  0  0  0  0
 21 26  1  0  0  0  0
 22 21  1  0  0  0  0
 23 24  1  0  0  0  0
 23 22  2  0  0  0  0
 24 19  2  0  0  0  0
 27 22  1  0  0  0  0
 28 23  1  0  0  0  0
 29 24  1  0  0  0  0
M  END
>  <minimizedAffinity>
-5.81561756

$$$$

 OpenBabel03242517393D

 29 31  0  0  0  0  0  0  0  0999 V2000
   38.0600   29.9090   41.9920 C   0  0  0  0  0  3  0  0  0  0  0  0
   38.3040   29.4050   43.1860 C   0  0  0  0  0  3  0  0  0  0  0  0
   40.1500   31.1780   41.5680 C   0  0  0  0  0  0  0  0  0  0  0  0
   38.7970   30.9770   41.3660 C   0  0  0  0  0  0  0  0  0  0  0  0
   38.1570   31.8560   40.5220 C   0  0  0  0  0  0  0  0  0  0  0  0
   38.8400   32.8730   39.9200 N   0  0  0  0  0  0  0  0  0  0  0  0
   40.1640   33.0390   40.1410 C   0  0  0  0  0  0  0  0  0  0  0  0
   40.8070   32.1910   40.9630 N   0  0  0  0  0  0  0  0  0  0  0  0
   40.6230   30.4550   42.2480 H   0  0  0  0  0  0  0  0  0  0  0  0
   37.0980   31.7880   40.2950 H   0  0  0  0  0  0  0  0  0  0  0  0
   40.9820   34.1170   39.5290 C   0  0  0  0  0  3  0  0  0  0  0  0
   41.5390   33.7110   38.1840 C   0  0  0  0  0  2  0  0  0  0  0  0
   42.9660   34.2760   38.2100 C   0  0  0  0  0  2  0  0  0  0  0  0
   43.3380   33.9300   39.6490 C   0  0  0  0  0  2  0  0  0  0  0  0
   42.1470   34.5340   40.3930 C   0  0  0  0  0  2  0  0  0  0  0  0
   37.4920   28.2890   43.7780 C   0  0  0  0  0  0  0  0  0  0  0  0
   36.4120   28.3920   43.5480 H   0  0  0  0  0  0  0  0  0  0  0  0
   37.6490   28.3380   44.8760 H   0  0  0  0  0  0  0  0  0  0  0  0
   37.9710   26.9750   43.2930 C   0  0  0  0  0  0  0  0  0  0  0  0
   39.2520   26.5510   43.6270 C   0  0  0  0  0  0  0  0  0  0  0  0
   39.7050   25.3260   43.1770 C   0  0  0  0  0  0  0  0  0  0  0  0
   38.9230   24.4940   42.3960 C   0  0  0  0  0  0  0  0  0  0  0  0
   37.6440   24.9010   42.0530 C   0  0  0  0  0  0  0  0  0  0  0  0
   37.1840   26.1300   42.5030 C   0  0  0  0  0  0  0  0  0  0  0  0
   39.9290   27.1570   44.2430 H   0  0  0  0  0  0  0  0  0  0  0  0
   40.6930   24.9420   43.4050 H   0  0  0  0  0  0  0  0  0  0  0  0
   39.2110   23.5290   42.0120 H   0  0  0  0  0  0  0  0  0  0  0  0
   36.9480   24.3240   41.4450 H   0  0  0  0  0  0  0  0  0  0  0  0
   36.1800   26.4740   42.2470 H   0  0  0  0  0  0  0  0  0  0  0  0
  1  2  2  0  0  0  0
  2 16  1  0  0  0  0
  3  9  1  0  0  0  0
  4  3  1  0  0  0  0
  4  1  1  0  0  0  0
  5  4  2  0  0  0  0
  6  7  2  0  0  0  0
  6  5  1  0  0  0  0
  7  8  1  0  0  0  0
  8  3  2  0  0  0  0
 10  5  1  0  0  0  0
 11  7  1  0  0  0  0
 11 15  1  0  0  0  0
 12 13  1  0  0  0  0
 12 11  1  0  0  0  0
 13 14  1  0  0  0  0
 14 15  1  0  0  0  0
 16 18  1  0  0  0  0
 17 16  1  0  0  0  0
 19 20  1  0  0  0  0
 19 16  1  0  0  0  0
 20 25  1  0  0  0  0
 21 26  1  0  0  0  0
 21 20  2  0  0  0  0
 22 21  1  0  0  0  0
 23 22  2  0  0  0  0
 23 24  1  0  0  0  0
 24 19  2  0  0  0  0
 27 22  1  0  0  0  0
 28 23  1  0  0  0  0
 29 24  1  0  0  0  0
M  END
>  <minimizedAffinity>
-5.45328188

$$$$

 OpenBabel03242517393D

 29 31  0  0  0  0  0  0  0  0999 V2000
   33.7670   28.8470   38.3450 C   0  0  0  0  0  3  0  0  0  0  0  0
   33.5070   29.0270   37.0640 C   0  0  0  0  0  3  0  0  0  0  0  0
   35.2120   29.1460   40.3400 C   0  0  0  0  0  0  0  0  0  0  0  0
   35.0510   29.0260   38.9730 C   0  0  0  0  0  0  0  0  0  0  0  0
   36.1920   29.0840   38.2050 C   0  0  0  0  0  0  0  0  0  0  0  0
   37.4180   29.2530   38.7830 N   0  0  0  0  0  0  0  0  0  0  0  0
   37.5370   29.3670   40.1250 C   0  0  0  0  0  0  0  0  0  0  0  0
   36.4330   29.3120   40.8920 N   0  0  0  0  0  0  0  0  0  0  0  0
   34.2770   29.0940   40.9160 H   0  0  0  0  0  0  0  0  0  0  0  0
   36.1790   29.0010   37.1230 H   0  0  0  0  0  0  0  0  0  0  0  0
   38.8280   29.5530   40.8340 C   0  0  0  0  0  3  0  0  0  0  0  0
   38.6350   29.7550   42.3190 C   0  0  0  0  0  2  0  0  0  0  0  0
   39.6530   30.8520   42.6600 C   0  0  0  0  0  2  0  0  0  0  0  0
   39.4560   31.7520   41.4440 C   0  0  0  0  0  2  0  0  0  0  0  0
   39.6180   30.7300   40.3180 C   0  0  0  0  0  2  0  0  0  0  0  0
   32.1410   28.8210   36.4760 C   0  0  0  0  0  0  0  0  0  0  0  0
   31.5110   28.1610   37.1050 H   0  0  0  0  0  0  0  0  0  0  0  0
   32.2970   28.3560   35.4800 H   0  0  0  0  0  0  0  0  0  0  0  0
   31.4510   30.1170   36.2850 C   0  0  0  0  0  0  0  0  0  0  0  0
   30.6890   30.6430   37.3220 C   0  0  0  0  0  0  0  0  0  0  0  0
   30.0420   31.8520   37.1490 C   0  0  0  0  0  0  0  0  0  0  0  0
   30.1240   32.5690   35.9690 C   0  0  0  0  0  0  0  0  0  0  0  0
   30.8800   32.0590   34.9250 C   0  0  0  0  0  0  0  0  0  0  0  0
   31.5310   30.8460   35.0930 C   0  0  0  0  0  0  0  0  0  0  0  0
   30.5780   30.1310   38.2860 H   0  0  0  0  0  0  0  0  0  0  0  0
   29.4350   32.3110   37.9210 H   0  0  0  0  0  0  0  0  0  0  0  0
   29.6490   33.5140   35.7660 H   0  0  0  0  0  0  0  0  0  0  0  0
   31.0110   32.5420   33.9570 H   0  0  0  0  0  0  0  0  0  0  0  0
   32.1320   30.4230   34.2850 H   0  0  0  0  0  0  0  0  0  0  0  0
  1  4  1  0  0  0  0
  2  1  2  0  0  0  0
  3  8  1  0  0  0  0
  3  9  1  0  0  0  0
  4  3  2  0  0  0  0
  5  6  2  0  0  0  0
  5  4  1  0  0  0  0
  6  7  1  0  0  0  0
  7 11  1  0  0  0  0
  7  8  2  0  0  0  0
 10  5  1  0  0  0  0
 11 12  1  0  0  0  0
 12 13  1  0  0  0  0
 14 13  1  0  0  0  0
 15 11  1  0  0  0  0
 15 14  1  0  0  0  0
 16  2  1  0  0  0  0
 16 17  1  0  0  0  0
 18 16  1  0  0  0  0
 19 16  1  0  0  0  0
 19 20  1  0  0  0  0
 20 25  1  0  0  0  0
 21 20  2  0  0  0  0
 21 26  1  0  0  0  0
 22 21  1  0  0  0  0
 23 24  1  0  0  0  0
 23 22  2  0  0  0  0
 24 19  2  0  0  0  0
 27 22  1  0  0  0  0
 28 23  1  0  0  0  0
 29 24  1  0  0  0  0
M  END
>  <minimizedAffinity>
-5.31234932

$$$$

 OpenBabel03242517393D

 29 31  0  0  0  0  0  0  0  0999 V2000
   35.7720   28.7530   40.9330 C   0  0  0  0  0  3  0  0  0  0  0  0
   35.3290   28.3880   39.7450 C   0  0  0  0  0  3  0  0  0  0  0  0
   37.3860   28.6320   42.8140 C   0  0  0  0  0  0  0  0  0  0  0  0
   36.8100   28.0910   41.6790 C   0  0  0  0  0  0  0  0  0  0  0  0
   37.2770   26.8610   41.2720 C   0  0  0  0  0  0  0  0  0  0  0  0
   38.2600   26.2190   41.9670 N   0  0  0  0  0  0  0  0  0  0  0  0
   38.8000   26.7790   43.0740 C   0  0  0  0  0  0  0  0  0  0  0  0
   38.3580   27.9800   43.4870 N   0  0  0  0  0  0  0  0  0  0  0  0
   36.9860   29.6140   43.1050 H   0  0  0  0  0  0  0  0  0  0  0  0
   36.8950   26.3470   40.3960 H   0  0  0  0  0  0  0  0  0  0  0  0
   39.8720   26.1510   43.8870 C   0  0  0  0  0  3  0  0  0  0  0  0
   41.0820   27.0460   44.0180 C   0  0  0  0  0  2  0  0  0  0  0  0
   42.2580   26.0700   43.8780 C   0  0  0  0  0  2  0  0  0  0  0  0
   41.7160   25.1970   42.7510 C   0  0  0  0  0  2  0  0  0  0  0  0
   40.3450   24.8340   43.3210 C   0  0  0  0  0  2  0  0  0  0  0  0
   34.2390   29.1270   39.0220 C   0  0  0  0  0  0  0  0  0  0  0  0
   34.1120   30.1600   39.4040 H   0  0  0  0  0  0  0  0  0  0  0  0
   33.3070   28.5470   39.1880 H   0  0  0  0  0  0  0  0  0  0  0  0
   34.5110   29.1740   37.5680 C   0  0  0  0  0  0  0  0  0  0  0  0
   33.4530   29.0640   36.6730 C   0  0  0  0  0  0  0  0  0  0  0  0
   33.7010   29.1060   35.3140 C   0  0  0  0  0  0  0  0  0  0  0  0
   34.9780   29.2560   34.8030 C   0  0  0  0  0  0  0  0  0  0  0  0
   36.0440   29.3670   35.6810 C   0  0  0  0  0  0  0  0  0  0  0  0
   35.8000   29.3260   37.0460 C   0  0  0  0  0  0  0  0  0  0  0  0
   32.4140   28.9420   37.0050 H   0  0  0  0  0  0  0  0  0  0  0  0
   32.9180   29.0260   34.5690 H   0  0  0  0  0  0  0  0  0  0  0  0
   35.2430   29.2980   33.7600 H   0  0  0  0  0  0  0  0  0  0  0  0
   37.0850   29.4890   35.3850 H   0  0  0  0  0  0  0  0  0  0  0  0
   36.6230   29.4100   37.7590 H   0  0  0  0  0  0  0  0  0  0  0  0
  1  4  1  0  0  0  0
  2  1  2  0  0  0  0
  3  9  1  0  0  0  0
  3  8  1  0  0  0  0
  4  3  2  0  0  0  0
  5  4  1  0  0  0  0
  5  6  2  0  0  0  0
  6  7  1  0  0  0  0
  7  8  2  0  0  0  0
  7 11  1  0  0  0  0
 10  5  1  0  0  0  0
 11 12  1  0  0  0  0
 13 12  1  0  0  0  0
 14 15  1  0  0  0  0
 14 13  1  0  0  0  0
 15 11  1  0  0  0  0
 16 18  1  0  0  0  0
 16 17  1  0  0  0  0
 16  2  1  0  0  0  0
 19 16  1  0  0  0  0
 20 25  1  0  0  0  0
 20 19  2  0  0  0  0
 21 20  1  0  0  0  0
 22 21  2  0  0  0  0
 22 23  1  0  0  0  0
 23 24  2  0  0  0  0
 24 19  1  0  0  0  0
 24 29  1  0  0  0  0
 26 21  1  0  0  0  0
 27 22  1  0  0  0  0
 28 23  1  0  0  0  0
M  END
>  <minimizedAffinity>
-5.29241419

$$$$

 OpenBabel03242517393D

 29 31  0  0  0  0  0  0  0  0999 V2000
   36.8150   28.4730   41.4580 C   0  0  0  0  0  3  0  0  0  0  0  0
   37.2870   27.8290   42.5080 C   0  0  0  0  0  3  0  0  0  0  0  0
   38.6020   29.8560   40.4330 C   0  0  0  0  0  0  0  0  0  0  0  0
   37.3230   29.7170   40.9390 C   0  0  0  0  0  0  0  0  0  0  0  0
   36.5250   30.8390   40.9300 C   0  0  0  0  0  0  0  0  0  0  0  0
   36.9900   32.0250   40.4420 N   0  0  0  0  0  0  0  0  0  0  0  0
   38.2480   32.1250   39.9540 C   0  0  0  0  0  0  0  0  0  0  0  0
   39.0430   31.0400   39.9540 N   0  0  0  0  0  0  0  0  0  0  0  0
   39.2060   28.9380   40.4580 H   0  0  0  0  0  0  0  0  0  0  0  0
   35.5060   30.8390   41.3030 H   0  0  0  0  0  0  0  0  0  0  0  0
   38.8330   33.3740   39.4050 C   0  0  0  0  0  3  0  0  0  0  0  0
   40.3110   33.4850   39.6990 C   0  0  0  0  0  2  0  0  0  0  0  0
   40.4880   34.9670   40.0560 C   0  0  0  0  0  2  0  0  0  0  0  0
   39.2330   35.1650   40.9000 C   0  0  0  0  0  2  0  0  0  0  0  0
   38.1720   34.6190   39.9450 C   0  0  0  0  0  2  0  0  0  0  0  0
   36.7060   26.5330   42.9960 C   0  0  0  0  0  0  0  0  0  0  0  0
   35.6010   26.5140   42.9090 H   0  0  0  0  0  0  0  0  0  0  0  0
   37.0020   26.4410   44.0620 H   0  0  0  0  0  0  0  0  0  0  0  0
   37.2750   25.3890   42.2500 C   0  0  0  0  0  0  0  0  0  0  0  0
   38.6350   25.1190   42.3480 C   0  0  0  0  0  0  0  0  0  0  0  0
   39.1720   24.0520   41.6530 C   0  0  0  0  0  0  0  0  0  0  0  0
   38.3980   23.2310   40.8530 C   0  0  0  0  0  0  0  0  0  0  0  0
   37.0400   23.4850   40.7430 C   0  0  0  0  0  0  0  0  0  0  0  0
   36.4970   24.5540   41.4390 C   0  0  0  0  0  0  0  0  0  0  0  0
   39.3110   25.7270   42.9630 H   0  0  0  0  0  0  0  0  0  0  0  0
   40.2240   23.7930   41.6910 H   0  0  0  0  0  0  0  0  0  0  0  0
   38.7480   22.3840   40.2850 H   0  0  0  0  0  0  0  0  0  0  0  0
   36.3430   22.9010   40.1430 H   0  0  0  0  0  0  0  0  0  0  0  0
   35.4290   24.7770   41.3700 H   0  0  0  0  0  0  0  0  0  0  0  0
  1  2  2  0  0  0  0
  2 16  1  0  0  0  0
  3  9  1  0  0  0  0
  3  4  1  0  0  0  0
  4  1  1  0  0  0  0
  5  4  2  0  0  0  0
  5 10  1  0  0  0  0
  6  5  1  0  0  0  0
  7  8  1  0  0  0  0
  7  6  2  0  0  0  0
  8  3  2  0  0  0  0
 11 12  1  0  0  0  0
 11 15  1  0  0  0  0
 11  7  1  0  0  0  0
 12 13  1  0  0  0  0
 13 14  1  0  0  0  0
 15 14  1  0  0  0  0
 16 18  1  0  0  0  0
 17 16  1  0  0  0  0
 19 20  1  0  0  0  0
 19 16  1  0  0  0  0
 20 25  1  0  0  0  0
 21 26  1  0  0  0  0
 21 20  2  0  0  0  0
 22 21  1  0  0  0  0
 23 22  2  0  0  0  0
 23 24  1  0  0  0  0
 24 19  2  0  0  0  0
 27 22  1  0  0  0  0
 28 23  1  0  0  0  0
 29 24  1  0  0  0  0
M  END
>  <minimizedAffinity>
-5.25288725

$$$$

 OpenBabel03242517393D

 29 31  0  0  0  0  0  0  0  0999 V2000
   36.1980   28.3140   38.5820 C   0  0  0  0  0  3  0  0  0  0  0  0
   36.3430   27.2030   39.2790 C   0  0  0  0  0  3  0  0  0  0  0  0
   33.7930   28.8970   38.3960 C   0  0  0  0  0  0  0  0  0  0  0  0
   35.0310   28.6790   37.8210 C   0  0  0  0  0  0  0  0  0  0  0  0
   35.1170   28.8270   36.4550 C   0  0  0  0  0  0  0  0  0  0  0  0
   34.0220   29.1730   35.7180 N   0  0  0  0  0  0  0  0  0  0  0  0
   32.8260   29.3790   36.3150 C   0  0  0  0  0  0  0  0  0  0  0  0
   32.7220   29.2390   37.6490 N   0  0  0  0  0  0  0  0  0  0  0  0
   33.7680   28.7690   39.4880 H   0  0  0  0  0  0  0  0  0  0  0  0
   36.0400   28.6790   35.9040 H   0  0  0  0  0  0  0  0  0  0  0  0
   31.5860   29.7560   35.5900 C   0  0  0  0  0  3  0  0  0  0  0  0
   31.8700   30.6700   34.4200 C   0  0  0  0  0  2  0  0  0  0  0  0
   30.7240   31.6880   34.4830 C   0  0  0  0  0  2  0  0  0  0  0  0
   30.6720   31.9020   35.9920 C   0  0  0  0  0  2  0  0  0  0  0  0
   30.5780   30.4530   36.4710 C   0  0  0  0  0  2  0  0  0  0  0  0
   37.5910   26.8860   40.0510 C   0  0  0  0  0  0  0  0  0  0  0  0
   38.5000   27.2870   39.5580 H   0  0  0  0  0  0  0  0  0  0  0  0
   37.6500   25.7790   40.1070 H   0  0  0  0  0  0  0  0  0  0  0  0
   37.5070   27.4210   41.4290 C   0  0  0  0  0  0  0  0  0  0  0  0
   38.2780   28.5240   41.7800 C   0  0  0  0  0  0  0  0  0  0  0  0
   38.2040   29.0280   43.0650 C   0  0  0  0  0  0  0  0  0  0  0  0
   37.3820   28.4700   44.0280 C   0  0  0  0  0  0  0  0  0  0  0  0
   36.6070   27.3710   43.6950 C   0  0  0  0  0  0  0  0  0  0  0  0
   36.6770   26.8610   42.4070 C   0  0  0  0  0  0  0  0  0  0  0  0
   38.9530   29.0180   41.0700 H   0  0  0  0  0  0  0  0  0  0  0  0
   38.7800   29.8840   43.3960 H   0  0  0  0  0  0  0  0  0  0  0  0
   37.2740   28.8100   45.0440 H   0  0  0  0  0  0  0  0  0  0  0  0
   35.9280   26.8580   44.3750 H   0  0  0  0  0  0  0  0  0  0  0  0
   36.0770   25.9950   42.1190 H   0  0  0  0  0  0  0  0  0  0  0  0
  1  2  2  0  0  0  0
  2 16  1  0  0  0  0
  3  9  1  0  0  0  0
  4  3  1  0  0  0  0
  4  1  1  0  0  0  0
  5  4  2  0  0  0  0
  6  7  2  0  0  0  0
  6  5  1  0  0  0  0
  7  8  1  0  0  0  0
  8  3  2  0  0  0  0
 10  5  1  0  0  0  0
 11  7  1  0  0  0  0
 11 15  1  0  0  0  0
 12 13  1  0  0  0  0
 12 11  1  0  0  0  0
 13 14  1  0  0  0  0
 14 15  1  0  0  0  0
 16 18  1  0  0  0  0
 16 19  1  0  0  0  0
 17 16  1  0  0  0  0
 19 20  2  0  0  0  0
 19 24  1  0  0  0  0
 20 21  1  0  0  0  0
 21 26  1  0  0  0  0
 21 22  2  0  0  0  0
 22 27  1  0  0  0  0
 23 22  1  0  0  0  0
 23 28  1  0  0  0  0
 24 23  2  0  0  0  0
 25 20  1  0  0  0  0
 29 24  1  0  0  0  0
M  END
>  <minimizedAffinity>
-5.18533373

$$$$

 OpenBabel03242517393D

 29 31  0  0  0  0  0  0  0  0999 V2000
   37.3650   31.1050   40.3810 C   0  0  0  0  0  3  0  0  0  0  0  0
   36.9500   30.0710   39.6750 C   0  0  0  0  0  3  0  0  0  0  0  0
   39.2550   31.7740   38.9180 C   0  0  0  0  0  0  0  0  0  0  0  0
   38.4620   31.9720   40.0330 C   0  0  0  0  0  0  0  0  0  0  0  0
   38.7620   33.0570   40.8250 C   0  0  0  0  0  0  0  0  0  0  0  0
   39.7980   33.8890   40.5100 N   0  0  0  0  0  0  0  0  0  0  0  0
   40.5530   33.6640   39.4110 C   0  0  0  0  0  0  0  0  0  0  0  0
   40.2750   32.6090   38.6250 N   0  0  0  0  0  0  0  0  0  0  0  0
   38.9820   30.8970   38.3130 H   0  0  0  0  0  0  0  0  0  0  0  0
   38.2040   33.3040   41.7220 H   0  0  0  0  0  0  0  0  0  0  0  0
   41.6950   34.5170   38.9970 C   0  0  0  0  0  3  0  0  0  0  0  0
   42.2420   34.1160   37.6460 C   0  0  0  0  0  2  0  0  0  0  0  0
   43.7610   34.2340   37.8320 C   0  0  0  0  0  2  0  0  0  0  0  0
   43.8810   33.6400   39.2320 C   0  0  0  0  0  2  0  0  0  0  0  0
   42.8430   34.4800   39.9760 C   0  0  0  0  0  2  0  0  0  0  0  0
   35.7960   29.2090   40.0990 C   0  0  0  0  0  0  0  0  0  0  0  0
   35.1630   28.9070   39.2400 H   0  0  0  0  0  0  0  0  0  0  0  0
   35.1990   29.8150   40.8120 H   0  0  0  0  0  0  0  0  0  0  0  0
   36.2770   27.9970   40.8010 C   0  0  0  0  0  0  0  0  0  0  0  0
   36.4100   28.0180   42.1840 C   0  0  0  0  0  0  0  0  0  0  0  0
   36.8580   26.8900   42.8450 C   0  0  0  0  0  0  0  0  0  0  0  0
   37.1840   25.7250   42.1740 C   0  0  0  0  0  0  0  0  0  0  0  0
   37.0570   25.6860   40.7940 C   0  0  0  0  0  0  0  0  0  0  0  0
   36.6070   26.8160   40.1270 C   0  0  0  0  0  0  0  0  0  0  0  0
   36.1700   28.9060   42.7830 H   0  0  0  0  0  0  0  0  0  0  0  0
   36.9810   26.8470   43.9210 H   0  0  0  0  0  0  0  0  0  0  0  0
   37.5380   24.8120   42.6230 H   0  0  0  0  0  0  0  0  0  0  0  0
   37.2860   24.8220   40.1720 H   0  0  0  0  0  0  0  0  0  0  0  0
   36.4990   26.8120   39.0400 H   0  0  0  0  0  0  0  0  0  0  0  0
  2 16  1  0  0  0  0
  2  1  2  0  0  0  0
  3  4  1  0  0  0  0
  4  1  1  0  0  0  0
  4  5  2  0  0  0  0
  5 10  1  0  0  0  0
  6  5  1  0  0  0  0
  7  6  2  0  0  0  0
  8  3  2  0  0  0  0
  8  7  1  0  0  0  0
  9  3  1  0  0  0  0
 11  7  1  0  0  0  0
 11 15  1  0  0  0  0
 12 13  1  0  0  0  0
 12 11  1  0  0  0  0
 13 14  1  0  0  0  0
 14 15  1  0  0  0  0
 16 19  1  0  0  0  0
 16 18  1  0  0  0  0
 17 16  1  0  0  0  0
 19 20  1  0  0  0  0
 20 25  1  0  0  0  0
 20 21  2  0  0  0  0
 21 26  1  0  0  0  0
 22 27  1  0  0  0  0
 22 21  1  0  0  0  0
 23 22  2  0  0  0  0
 24 23  1  0  0  0  0
 24 19  2  0  0  0  0
 28 23  1  0  0  0  0
 29 24  1  0  0  0  0
M  END
>  <minimizedAffinity>
-5.04727316

$$$$

 OpenBabel03242517393D

 29 31  0  0  0  0  0  0  0  0999 V2000
   33.0910   29.0900   37.6170 C   0  0  0  0  0  3  0  0  0  0  0  0
   33.0730   29.2580   36.3080 C   0  0  0  0  0  3  0  0  0  0  0  0
   34.9820   27.5170   37.9480 C   0  0  0  0  0  0  0  0  0  0  0  0
   34.1970   28.5700   38.3790 C   0  0  0  0  0  0  0  0  0  0  0  0
   34.5160   29.1230   39.5990 C   0  0  0  0  0  0  0  0  0  0  0  0
   35.5600   28.6440   40.3350 N   0  0  0  0  0  0  0  0  0  0  0  0
   36.3070   27.6120   39.8810 C   0  0  0  0  0  0  0  0  0  0  0  0
   36.0120   27.0570   38.6910 N   0  0  0  0  0  0  0  0  0  0  0  0
   34.6950   27.1040   36.9700 H   0  0  0  0  0  0  0  0  0  0  0  0
   33.9650   29.9530   40.0310 H   0  0  0  0  0  0  0  0  0  0  0  0
   37.4580   27.0290   40.6160 C   0  0  0  0  0  3  0  0  0  0  0  0
   37.9090   25.7180   40.0150 C   0  0  0  0  0  2  0  0  0  0  0  0
   38.2140   24.8540   41.2460 C   0  0  0  0  0  2  0  0  0  0  0  0
   37.0320   25.2540   42.1230 C   0  0  0  0  0  2  0  0  0  0  0  0
   37.1590   26.7770   42.0730 C   0  0  0  0  0  2  0  0  0  0  0  0
   31.8820   29.8070   35.5770 C   0  0  0  0  0  0  0  0  0  0  0  0
   31.4690   29.0810   34.8490 H   0  0  0  0  0  0  0  0  0  0  0  0
   32.2340   30.7150   35.0450 H   0  0  0  0  0  0  0  0  0  0  0  0
   30.8180   30.2030   36.5280 C   0  0  0  0  0  0  0  0  0  0  0  0
   30.7070   31.5350   36.9100 C   0  0  0  0  0  0  0  0  0  0  0  0
   29.7170   31.9110   37.7970 C   0  0  0  0  0  0  0  0  0  0  0  0
   28.8200   31.0010   38.3270 C   0  0  0  0  0  0  0  0  0  0  0  0
   28.9150   29.6690   37.9570 C   0  0  0  0  0  0  0  0  0  0  0  0
   29.9080   29.2870   37.0660 C   0  0  0  0  0  0  0  0  0  0  0  0
   31.3830   32.3130   36.5320 H   0  0  0  0  0  0  0  0  0  0  0  0
   29.5810   32.9330   38.1310 H   0  0  0  0  0  0  0  0  0  0  0  0
   28.0260   31.2230   39.0210 H   0  0  0  0  0  0  0  0  0  0  0  0
   28.2610   28.8740   38.3140 H   0  0  0  0  0  0  0  0  0  0  0  0
   30.0050   28.2430   36.7590 H   0  0  0  0  0  0  0  0  0  0  0  0
  1  4  1  0  0  0  0
  2  1  2  0  0  0  0
  3  4  2  0  0  0  0
  3  8  1  0  0  0  0
  4  5  1  0  0  0  0
  5 10  1  0  0  0  0
  5  6  2  0  0  0  0
  7  6  1  0  0  0  0
  7 11  1  0  0  0  0
  8  7  2  0  0  0  0
  9  3  1  0  0  0  0
 11 15  1  0  0  0  0
 12 11  1  0  0  0  0
 12 13  1  0  0  0  0
 13 14  1  0  0  0  0
 15 14  1  0  0  0  0
 16  2  1  0  0  0  0
 16 19  1  0  0  0  0
 17 16  1  0  0  0  0
 18 16  1  0  0  0  0
 19 20  2  0  0  0  0
 19 24  1  0  0  0  0
 20 21  1  0  0  0  0
 21 26  1  0  0  0  0
 21 22  2  0  0  0  0
 22 27  1  0  0  0  0
 23 28  1  0  0  0  0
 23 22  1  0  0  0  0
 24 23  2  0  0  0  0
 25 20  1  0  0  0  0
 29 24  1  0  0  0  0
M  END
>  <minimizedAffinity>
-5.02458572

$$$$
