
 OpenBabel03252509303D

 17 18  0  0  0  0  0  0  0  0999 V2000
   44.4190   35.9400   44.8570 C   0  0  0  0  0  0  0  0  0  0  0  0
   44.6700   35.7350   43.4770 C   0  0  0  0  0  0  0  0  0  0  0  0
   45.3100   34.5460   43.1240 C   0  0  0  0  0  0  0  0  0  0  0  0
   45.6580   33.6530   44.1050 N   0  0  0  0  0  0  0  0  0  0  0  0
   45.3880   33.9120   45.4100 C   0  0  0  0  0  0  0  0  0  0  0  0
   44.7770   35.0400   45.7820 N   0  0  0  0  0  0  0  0  0  0  0  0
   43.9280   36.8460   45.1640 H   0  0  0  0  0  0  0  0  0  0  0  0
   44.3700   36.4800   42.7530 H   0  0  0  0  0  0  0  0  0  0  0  0
   45.7090   33.1360   46.0920 H   0  0  0  0  0  0  0  0  0  0  0  0
   45.5750   34.3210   41.7040 C   0  0  0  0  0  0  0  0  0  0  0  0
   45.2110   35.1630   41.0960 H   0  0  0  0  0  0  0  0  0  0  0  0
   45.1580   33.3340   41.3800 H   0  0  0  0  0  0  0  0  0  0  0  0
   47.0760   34.2120   41.5470 C   0  0  0  0  0  3  0  0  0  0  0  0
   47.4680   34.1490   40.0930 C   0  0  0  0  0  2  0  0  0  0  0  0
   48.5890   35.1540   39.8960 C   0  0  0  0  0  2  0  0  0  0  0  0
   49.1340   35.2710   41.3270 C   0  0  0  0  0  2  0  0  0  0  0  0
   47.8040   35.4190   42.0490 C   0  0  0  0  0  2  0  0  0  0  0  0
  1  7  1  0  0  0  0
  1  6  1  0  0  0  0
  2  1  2  0  0  0  0
  3  2  1  0  0  0  0
  3  4  2  0  0  0  0
  4  5  1  0  0  0  0
  5  6  2  0  0  0  0
  5  9  1  0  0  0  0
  8  2  1  0  0  0  0
 10  3  1  0  0  0  0
 11 10  1  0  0  0  0
 12 10  1  0  0  0  0
 13 10  1  0  0  0  0
 13 17  1  0  0  0  0
 14 13  1  0  0  0  0
 15 14  1  0  0  0  0
 15 16  1  0  0  0  0
 16 17  1  0  0  0  0
M  END
>  <minimizedAffinity>
-4.21211576

>  <minimizedRMSD>
2.06851435

$$$$
