
 OpenBabel03252508263D

 37 41  0  0  1  0  0  0  0  0999 V2000
   46.3880   32.5000   45.8800 C   0  0  1  0  0  0  0  0  0  0  0  0
   46.9390   32.5920   47.2400 C   0  0  0  0  0  0  0  0  0  0  0  0
   45.5380   31.9410   46.9120 C   0  0  2  0  0  0  0  0  0  0  0  0
   47.1790   31.9240   45.2790 H   0  0  0  0  0  0  0  0  0  0  0  0
   46.9000   33.5160   47.8310 H   0  0  0  0  0  0  0  0  0  0  0  0
   47.5870   31.8210   47.6950 H   0  0  0  0  0  0  0  0  0  0  0  0
   44.8250   32.5580   47.5470 H   0  0  0  0  0  0  0  0  0  0  0  0
   45.3250   30.5130   47.1570 C   0  0  0  0  0  0  0  0  0  0  0  0
   45.2090   29.8870   48.3580 C   0  0  0  0  0  0  0  0  0  0  0  0
   45.1380   28.5130   48.5560 C   0  0  0  0  0  0  0  0  0  0  0  0
   45.1940   27.7140   47.4040 C   0  0  0  0  0  0  0  0  0  0  0  0
   45.3100   28.3350   46.1590 C   0  0  0  0  0  0  0  0  0  0  0  0
   45.2990   27.5060   45.0540 C   0  0  0  0  0  0  0  0  0  0  0  0
   45.3420   28.0780   43.7830 C   0  0  0  0  0  0  0  0  0  0  0  0
   45.3920   29.4490   43.6320 C   0  0  0  0  0  0  0  0  0  0  0  0
   45.4020   30.2220   44.7690 C   0  0  0  0  0  0  0  0  0  0  0  0
   45.3700   29.7000   46.0520 C   0  0  0  0  0  0  0  0  0  0  0  0
   45.1690   30.5500   49.2240 H   0  0  0  0  0  0  0  0  0  0  0  0
   45.0450   28.0950   49.5530 H   0  0  0  0  0  0  0  0  0  0  0  0
   45.1430   26.6490   47.5590 H   0  0  0  0  0  0  0  0  0  0  0  0
   45.2560   26.4270   45.1990 H   0  0  0  0  0  0  0  0  0  0  0  0
   45.3300   27.3280   42.9800 H   0  0  0  0  0  0  0  0  0  0  0  0
   45.4150   29.6910   42.5990 H   0  0  0  0  0  0  0  0  0  0  0  0
   45.3560   31.2080   44.4030 H   0  0  0  0  0  0  0  0  0  0  0  0
   44.5840   35.6110   45.0440 C   0  0  0  0  0  0  0  0  0  0  0  0
   45.1060   35.9200   43.7380 C   0  0  0  0  0  0  0  0  0  0  0  0
   46.0870   35.0360   43.1890 C   0  0  0  0  0  0  0  0  0  0  0  0
   46.4770   33.9710   43.9000 N   0  0  0  0  0  0  0  0  0  0  0  0
   45.9430   33.7220   45.1470 C   0  0  0  0  0  0  0  0  0  0  0  0
   45.0300   34.5170   45.6960 N   0  0  0  0  0  0  0  0  0  0  0  0
   43.8450   36.3000   45.4270 H   0  0  0  0  0  0  0  0  0  0  0  0
   44.7910   36.7680   43.1780 H   0  0  0  0  0  0  0  0  0  0  0  0
   46.6740   35.2780   41.8580 C   0  0  0  0  0  3  0  0  0  0  0  0
   48.1860   35.3510   41.9060 C   0  0  0  0  0  2  0  0  0  0  0  0
   48.6950   34.3200   40.9370 C   0  0  0  0  0  2  0  0  0  0  0  0
   47.5550   34.1240   39.9740 C   0  0  0  0  0  2  0  0  0  0  0  0
   46.3530   34.1620   40.8700 C   0  0  0  0  0  2  0  0  0  0  0  0
  1  4  1  6  0  0  0
  1  3  1  0  0  0  0
  1  2  1  0  0  0  0
  2  6  1  0  0  0  0
  2  5  1  0  0  0  0
  3  8  1  0  0  0  0
  3  2  1  0  0  0  0
  3  7  1  1  0  0  0
  8  9  1  0  0  0  0
  9 10  2  0  0  0  0
  9 18  1  0  0  0  0
 10 19  1  0  0  0  0
 11 20  1  0  0  0  0
 11 10  1  0  0  0  0
 12 11  2  0  0  0  0
 13 21  1  0  0  0  0
 13 12  1  0  0  0  0
 14 13  2  0  0  0  0
 15 14  1  0  0  0  0
 15 16  2  0  0  0  0
 16 17  1  0  0  0  0
 17 12  1  0  0  0  0
 17  8  2  0  0  0  0
 22 14  1  0  0  0  0
 23 15  1  0  0  0  0
 24 16  1  0  0  0  0
 25 31  1  0  0  0  0
 25 30  1  0  0  0  0
 26 25  2  0  0  0  0
 27 26  1  0  0  0  0
 27 28  2  0  0  0  0
 28 29  1  0  0  0  0
 29 30  2  0  0  0  0
 29  1  1  0  0  0  0
 32 26  1  0  0  0  0
 33 34  1  0  0  0  0
 33 27  1  0  0  0  0
 35 34  1  0  0  0  0
 36 37  1  0  0  0  0
 36 35  1  0  0  0  0
 37 33  1  0  0  0  0
M  END
>  <minimizedAffinity>
-5.91223335

>  <minimizedRMSD>
0.566473126

$$$$
