
 OpenBabel03252504073D

 15 16  0  0  0  0  0  0  0  0999 V2000
   48.0990   30.4340   48.7060 C   0  0  0  0  0  0  0  0  0  0  0  0
   47.6810   30.5270   47.3490 C   0  0  0  0  0  0  0  0  0  0  0  0
   48.5220   29.9280   46.4030 C   0  0  0  0  0  0  0  0  0  0  0  0
   49.6500   29.3100   46.8050 N   0  0  0  0  0  0  0  0  0  0  0  0
   50.0040   29.2480   48.1070 C   0  0  0  0  0  0  0  0  0  0  0  0
   49.2420   29.8010   49.0500 N   0  0  0  0  0  0  0  0  0  0  0  0
   48.2110   29.9970   45.3930 H   0  0  0  0  0  0  0  0  0  0  0  0
   50.9060   28.7560   48.4520 H   0  0  0  0  0  0  0  0  0  0  0  0
   46.4120   31.2400   47.0550 C   0  0  0  0  0  3  0  0  0  0  0  0
   45.7940   30.7060   45.7830 C   0  0  0  0  0  2  0  0  0  0  0  0
   46.0550   31.7390   44.7140 C   0  0  0  0  0  2  0  0  0  0  0  0
   46.4910   33.0100   45.4000 C   0  0  0  0  0  2  0  0  0  0  0  0
   46.6830   32.6930   46.8640 C   0  0  0  0  0  2  0  0  0  0  0  0
   47.3010   31.0090   49.6550 O   0  0  0  0  0  0  0  0  0  0  0  0
   47.3560   32.0240   49.8130 H   0  0  0  0  0  0  0  0  0  0  0  0
  1  6  1  0  0  0  0
  1 14  1  0  0  0  0
  2  1  2  0  0  0  0
  3  4  2  0  0  0  0
  3  2  1  0  0  0  0
  4  5  1  0  0  0  0
  5  8  1  0  0  0  0
  5  6  2  0  0  0  0
  7  3  1  0  0  0  0
  9  2  1  0  0  0  0
 10  9  1  0  0  0  0
 11 12  1  0  0  0  0
 11 10  1  0  0  0  0
 12 13  1  0  0  0  0
 13  9  1  0  0  0  0
 14 15  1  0  0  0  0
M  END
>  <minimizedAffinity>
-3.14363742

>  <minimizedRMSD>
6.55488443

$$$$
