
 OpenBabel03252503543D

 32 34  0  0  1  0  0  0  0  0999 V2000
   45.8970   32.9420   46.5360 N   0  0  0  0  0  0  0  0  0  0  0  0
   45.0860   32.9260   47.7220 C   0  0  0  0  0  0  0  0  0  0  0  0
   45.9550   32.3470   48.8330 C   0  0  0  0  0  0  0  0  0  0  0  0
   46.0610   30.8850   48.5540 C   0  0  0  0  0  0  0  0  0  0  0  0
   46.8300   30.7940   47.2550 C   0  0  0  0  0  0  0  0  0  0  0  0
   46.8930   31.9120   46.3770 C   0  0  1  0  0  0  0  0  0  0  0  0
   44.7910   33.9350   48.0530 H   0  0  0  0  0  0  0  0  0  0  0  0
   44.2140   32.2400   47.6310 H   0  0  0  0  0  0  0  0  0  0  0  0
   46.9350   32.8610   48.8860 H   0  0  0  0  0  0  0  0  0  0  0  0
   45.3560   32.4640   49.7470 H   0  0  0  0  0  0  0  0  0  0  0  0
   45.0090   30.5010   48.4620 H   0  0  0  0  0  0  0  0  0  0  0  0
   46.5130   30.3770   49.4010 H   0  0  0  0  0  0  0  0  0  0  0  0
   47.8930   30.5840   47.6350 H   0  0  0  0  0  0  0  0  0  0  0  0
   46.4400   29.8510   46.7860 H   0  0  0  0  0  0  0  0  0  0  0  0
   47.8800   32.4080   46.3410 H   0  0  0  0  0  0  0  0  0  0  0  0
   46.1670   34.7920   43.3510 C   0  0  0  0  0  0  0  0  0  0  0  0
   46.4470   33.8430   44.3380 C   0  0  0  0  0  0  0  0  0  0  0  0
   45.7420   33.8860   45.5250 C   0  0  0  0  0  0  0  0  0  0  0  0
   44.8040   34.8600   45.6900 N   0  0  0  0  0  0  0  0  0  0  0  0
   44.5430   35.7820   44.7220 C   0  0  0  0  0  0  0  0  0  0  0  0
   45.2230   35.7390   43.5660 N   0  0  0  0  0  0  0  0  0  0  0  0
   47.2390   33.0980   44.1560 H   0  0  0  0  0  0  0  0  0  0  0  0
   43.7840   36.5290   44.9200 H   0  0  0  0  0  0  0  0  0  0  0  0
   46.9150   34.6650   42.0550 C   0  0  0  0  0  0  0  0  0  0  0  0
   46.0500   34.6620   40.9660 F   0  0  0  0  0  0  0  0  0  0  0  0
   47.8040   35.7120   41.9950 F   0  0  0  0  0  0  0  0  0  0  0  0
   47.6410   33.4800   42.0510 F   0  0  0  0  0  0  0  0  0  0  0  0
   46.7240   31.2800   44.9640 C   0  0  0  0  0  0  0  0  0  0  0  0
   45.6490   30.2270   44.9140 C   0  0  0  0  0  0  0  0  0  0  0  0
   46.0570   29.5470   43.5900 C   0  0  0  0  0  0  0  0  0  0  0  0
   47.4620   29.1590   44.0030 C   0  0  0  0  0  0  0  0  0  0  0  0
   47.9480   30.4810   44.5610 C   0  0  0  0  0  0  0  0  0  0  0  0
  1  2  1  0  0  0  0
  2  7  1  0  0  0  0
  2  3  1  0  0  0  0
  3  9  1  0  0  0  0
  3 10  1  0  0  0  0
  4  3  1  0  0  0  0
  4 12  1  0  0  0  0
  5 13  1  0  0  0  0
  5  4  1  0  0  0  0
  6 15  1  1  0  0  0
  6  1  1  0  0  0  0
  6  5  1  0  0  0  0
  8  2  1  0  0  0  0
 11  4  1  0  0  0  0
 14  5  1  0  0  0  0
 16 21  2  0  0  0  0
 16 17  1  0  0  0  0
 17 18  2  0  0  0  0
 18 19  1  0  0  0  0
 18  1  1  0  0  0  0
 20 23  1  0  0  0  0
 20 19  2  0  0  0  0
 21 20  1  0  0  0  0
 22 17  1  0  0  0  0
 24 16  1  0  0  0  0
 25 24  1  0  0  0  0
 26 24  1  0  0  0  0
 27 24  1  0  0  0  0
 28  6  1  0  0  0  0
 29 28  1  0  0  0  0
 30 31  1  0  0  0  0
 30 29  1  0  0  0  0
 31 32  1  0  0  0  0
 32 28  1  0  0  0  0
M  END
>  <minimizedAffinity>
-5.57268047

>  <minimizedRMSD>
0.997119486

$$$$
