
 OpenBabel03242514273D

 24 26  0  0  0  0  0  0  0  0999 V2000
   48.7480   35.4850   40.8740 C   0  0  0  0  0  0  0  0  0  0  0  0
   48.3280   34.7940   39.7290 C   0  0  0  0  0  0  0  0  0  0  0  0
   47.3180   33.8030   39.8710 C   0  0  0  0  0  0  0  0  0  0  0  0
   46.8290   33.5970   41.1200 N   0  0  0  0  0  0  0  0  0  0  0  0
   47.2500   34.2720   42.1980 C   0  0  0  0  0  0  0  0  0  0  0  0
   48.2140   35.2240   42.0820 N   0  0  0  0  0  0  0  0  0  0  0  0
   49.5110   36.2200   40.7040 H   0  0  0  0  0  0  0  0  0  0  0  0
   48.6810   34.9220   38.7350 H   0  0  0  0  0  0  0  0  0  0  0  0
   44.9630   36.0590   43.1090 Cl  0  0  0  0  0  0  0  0  0  0  0  0
   45.6590   34.7740   44.0260 C   0  0  0  0  0  0  0  0  0  0  0  0
   46.6950   34.0180   43.5270 C   0  0  0  0  0  0  0  0  0  0  0  0
   47.1830   33.0160   44.3330 C   0  0  0  0  0  0  0  0  0  0  0  0
   46.7030   32.7260   45.5960 C   0  0  0  0  0  0  0  0  0  0  0  0
   45.6620   33.4990   46.0770 C   0  0  0  0  0  0  0  0  0  0  0  0
   45.0970   33.0810   47.6860 Cl  0  0  0  0  0  0  0  0  0  0  0  0
   45.1440   34.5090   45.3070 C   0  0  0  0  0  0  0  0  0  0  0  0
   47.9980   32.4210   43.9400 H   0  0  0  0  0  0  0  0  0  0  0  0
   47.1540   31.9160   46.1550 H   0  0  0  0  0  0  0  0  0  0  0  0
   44.3350   35.0870   45.7150 H   0  0  0  0  0  0  0  0  0  0  0  0
   46.8080   33.0200   38.7210 C   0  0  0  0  0  0  0  0  0  0  0  0
   45.2910   33.0490   38.6530 C   0  0  0  0  0  0  0  0  0  0  0  0
   45.0380   32.4760   37.2680 C   0  0  0  0  0  0  0  0  0  0  0  0
   46.2440   32.8480   36.4410 C   0  0  0  0  0  0  0  0  0  0  0  0
   47.1790   33.5950   37.3820 C   0  0  0  0  0  0  0  0  0  0  0  0
  1  6  1  0  0  0  0
  2  3  1  0  0  0  0
  2  1  2  0  0  0  0
  3  4  2  0  0  0  0
  4  5  1  0  0  0  0
  5 11  1  0  0  0  0
  6  5  2  0  0  0  0
  7  1  1  0  0  0  0
  8  2  1  0  0  0  0
  9 10  1  0  0  0  0
 10 16  1  0  0  0  0
 11 10  2  0  0  0  0
 11 12  1  0  0  0  0
 12 13  2  0  0  0  0
 13 14  1  0  0  0  0
 13 18  1  0  0  0  0
 14 15  1  0  0  0  0
 16 19  1  0  0  0  0
 16 14  2  0  0  0  0
 17 12  1  0  0  0  0
 20  3  1  0  0  0  0
 21 20  1  0  0  0  0
 22 21  1  0  0  0  0
 23 22  1  0  0  0  0
 23 24  1  0  0  0  0
 24 20  1  0  0  0  0
M  END
>  <minimizedAffinity>
-5.43951559

>  <minimizedRMSD>
0.417676479

$$$$
