
 OpenBabel03252509293D

 17 18  0  0  0  0  0  0  0  0999 V2000
   44.5370   36.0610   44.4610 C   0  0  0  0  0  0  0  0  0  0  0  0
   45.3620   35.8660   43.3260 C   0  0  0  0  0  0  0  0  0  0  0  0
   46.2230   34.7670   43.3560 C   0  0  0  0  0  0  0  0  0  0  0  0
   46.2290   33.9470   44.4560 N   0  0  0  0  0  0  0  0  0  0  0  0
   45.4100   34.1930   45.5110 C   0  0  0  0  0  0  0  0  0  0  0  0
   44.5750   35.2350   45.5150 N   0  0  0  0  0  0  0  0  0  0  0  0
   43.8630   36.8980   44.4720 H   0  0  0  0  0  0  0  0  0  0  0  0
   45.3100   36.5500   42.4900 H   0  0  0  0  0  0  0  0  0  0  0  0
   45.5030   33.4800   46.3190 H   0  0  0  0  0  0  0  0  0  0  0  0
   47.0800   34.5520   42.1920 C   0  0  0  0  0  0  0  0  0  0  0  0
   47.2630   35.4960   41.6560 H   0  0  0  0  0  0  0  0  0  0  0  0
   46.6560   33.7510   41.5350 H   0  0  0  0  0  0  0  0  0  0  0  0
   48.3980   34.0150   42.7070 C   0  0  0  0  0  3  0  0  0  0  0  0
   48.7100   32.6690   42.1080 C   0  0  0  0  0  2  0  0  0  0  0  0
   50.1440   32.7280   41.6150 C   0  0  0  0  0  2  0  0  0  0  0  0
   50.7070   33.8620   42.4830 C   0  0  0  0  0  2  0  0  0  0  0  0
   49.5690   34.8540   42.3020 C   0  0  0  0  0  2  0  0  0  0  0  0
  1  7  1  0  0  0  0
  1  6  1  0  0  0  0
  2  3  1  0  0  0  0
  2  1  2  0  0  0  0
  3  4  2  0  0  0  0
  4  5  1  0  0  0  0
  5  6  2  0  0  0  0
  5  9  1  0  0  0  0
  8  2  1  0  0  0  0
 10 13  1  0  0  0  0
 10  3  1  0  0  0  0
 11 10  1  0  0  0  0
 12 10  1  0  0  0  0
 14 13  1  0  0  0  0
 15 14  1  0  0  0  0
 15 16  1  0  0  0  0
 17 16  1  0  0  0  0
 17 13  1  0  0  0  0
M  END
>  <minimizedAffinity>
-4.42018318

>  <minimizedRMSD>
1.42288613

$$$$
