
 OpenBabel03242520433D

 35 38  0  0  1  0  0  0  0  0999 V2000
   38.5800   28.0690   36.7570 C   0  0  0  0  0  0  0  0  0  0  0  0
   37.4720   27.9750   35.9040 C   0  0  0  0  0  0  0  0  0  0  0  0
   36.6080   29.1040   35.8140 C   0  0  0  0  0  0  0  0  0  0  0  0
   36.8950   30.2170   36.5550 N   0  0  0  0  0  0  0  0  0  0  0  0
   37.9760   30.2510   37.3580 C   0  0  0  0  0  0  0  0  0  0  0  0
   38.8050   29.1830   37.4520 N   0  0  0  0  0  0  0  0  0  0  0  0
   38.1930   31.4290   38.0810 N   0  0  0  0  0  0  0  0  0  0  0  0
   37.2160   31.9070   39.0020 C   0  0  2  0  0  0  0  0  0  0  0  0
   37.4550   33.2870   39.5020 C   0  0  0  0  0  0  0  0  0  0  0  0
   38.7950   33.7280   39.5820 N   0  0  0  0  0  0  0  0  0  0  0  0
   39.7630   32.7350   39.2480 C   0  0  0  0  0  0  0  0  0  0  0  0
   39.4280   32.1700   37.8950 C   0  0  0  0  0  0  0  0  0  0  0  0
   39.1750   27.1810   36.7640 H   0  0  0  0  0  0  0  0  0  0  0  0
   37.1380   27.1810   35.2820 H   0  0  0  0  0  0  0  0  0  0  0  0
   35.7250   29.1450   35.1910 H   0  0  0  0  0  0  0  0  0  0  0  0
   36.2570   31.9920   38.4020 H   0  0  0  0  0  0  0  0  0  0  0  0
   36.8720   34.0570   38.9580 H   0  0  0  0  0  0  0  0  0  0  0  0
   37.0450   33.3120   40.5550 H   0  0  0  0  0  0  0  0  0  0  0  0
   39.0140   34.2490   40.4640 H   0  0  0  0  0  0  0  0  0  0  0  0
   40.7310   33.2940   39.0960 H   0  0  0  0  0  0  0  0  0  0  0  0
   39.9880   31.9870   40.0000 H   0  0  0  0  0  0  0  0  0  0  0  0
   39.3610   32.9650   37.1540 H   0  0  0  0  0  0  0  0  0  0  0  0
   40.2150   31.4140   37.6420 H   0  0  0  0  0  0  0  0  0  0  0  0
   36.9510   30.9380   40.0940 C   0  0  0  0  0  0  0  0  0  0  0  0
   35.8470   30.1660   40.4070 C   0  0  0  0  0  0  0  0  0  0  0  0
   36.0650   29.4180   41.4970 N   0  0  0  0  0  0  0  0  0  0  0  0
   37.3090   29.7070   41.8880 C   0  0  0  0  0  0  0  0  0  0  0  0
   37.8420   30.6150   41.0490 N   0  0  0  0  0  0  0  0  0  0  0  0
   34.9400   30.1750   39.8430 H   0  0  0  0  0  0  0  0  0  0  0  0
   35.3950   28.7470   41.9460 H   0  0  0  0  0  0  0  0  0  0  0  0
   37.9460   29.0780   43.0800 C   0  0  0  0  0  3  0  0  0  0  0  0
   37.3520   27.7530   43.4410 C   0  0  0  0  0  2  0  0  0  0  0  0
   38.4520   26.7290   43.2370 C   0  0  0  0  0  2  0  0  0  0  0  0
   39.7220   27.5240   43.4530 C   0  0  0  0  0  2  0  0  0  0  0  0
   39.3930   28.8100   42.7110 C   0  0  0  0  0  2  0  0  0  0  0  0
  1 13  1  0  0  0  0
  1  6  1  0  0  0  0
  2  1  2  0  0  0  0
  3  2  1  0  0  0  0
  3  4  2  0  0  0  0
  4  5  1  0  0  0  0
  5  6  2  0  0  0  0
  5  7  1  0  0  0  0
  7  8  1  0  0  0  0
  8 16  1  6  0  0  0
  8  9  1  0  0  0  0
  8 24  1  0  0  0  0
  9 10  1  0  0  0  0
  9 18  1  0  0  0  0
 10 19  1  0  0  0  0
 11 10  1  0  0  0  0
 11 21  1  0  0  0  0
 12  7  1  0  0  0  0
 12 11  1  0  0  0  0
 14  2  1  0  0  0  0
 15  3  1  0  0  0  0
 17  9  1  0  0  0  0
 20 11  1  0  0  0  0
 22 12  1  0  0  0  0
 23 12  1  0  0  0  0
 24 25  2  0  0  0  0
 24 28  1  0  0  0  0
 25 26  1  0  0  0  0
 26 27  1  0  0  0  0
 26 30  1  0  0  0  0
 27 31  1  0  0  0  0
 28 27  2  0  0  0  0
 29 25  1  0  0  0  0
 31 32  1  0  0  0  0
 33 32  1  0  0  0  0
 33 34  1  0  0  0  0
 35 31  1  0  0  0  0
 35 34  1  0  0  0  0
M  END
>  <minimizedAffinity>
-6.31533957

$$$$

 OpenBabel03242520433D

 35 38  0  0  1  0  0  0  0  0999 V2000
   38.9820   28.6570   37.1100 C   0  0  0  0  0  0  0  0  0  0  0  0
   37.6520   28.7480   36.6750 C   0  0  0  0  0  0  0  0  0  0  0  0
   36.9860   29.9970   36.8400 C   0  0  0  0  0  0  0  0  0  0  0  0
   37.6660   31.0390   37.4090 N   0  0  0  0  0  0  0  0  0  0  0  0
   38.9440   30.8930   37.8070 C   0  0  0  0  0  0  0  0  0  0  0  0
   39.5880   29.7100   37.6550 N   0  0  0  0  0  0  0  0  0  0  0  0
   39.5630   32.0090   38.3800 N   0  0  0  0  0  0  0  0  0  0  0  0
   39.0300   32.6130   39.5550 C   0  0  2  0  0  0  0  0  0  0  0  0
   39.6250   33.9300   39.9040 C   0  0  0  0  0  0  0  0  0  0  0  0
   40.9660   34.1610   39.5220 N   0  0  0  0  0  0  0  0  0  0  0  0
   41.6080   33.0400   38.9180 C   0  0  0  0  0  0  0  0  0  0  0  0
   40.7620   32.5590   37.7710 C   0  0  0  0  0  0  0  0  0  0  0  0
   39.4050   27.6890   36.9490 H   0  0  0  0  0  0  0  0  0  0  0  0
   37.0160   28.0270   36.2240 H   0  0  0  0  0  0  0  0  0  0  0  0
   35.9640   30.1840   36.5430 H   0  0  0  0  0  0  0  0  0  0  0  0
   37.9510   32.8530   39.3040 H   0  0  0  0  0  0  0  0  0  0  0  0
   39.0160   34.7900   39.5600 H   0  0  0  0  0  0  0  0  0  0  0  0
   39.5960   33.9960   41.0320 H   0  0  0  0  0  0  0  0  0  0  0  0
   41.5400   34.6260   40.2640 H   0  0  0  0  0  0  0  0  0  0  0  0
   42.5420   33.4480   38.4370 H   0  0  0  0  0  0  0  0  0  0  0  0
   41.9550   32.2510   39.5780 H   0  0  0  0  0  0  0  0  0  0  0  0
   40.5730   33.3690   37.0690 H   0  0  0  0  0  0  0  0  0  0  0  0
   41.2980   31.6970   37.2970 H   0  0  0  0  0  0  0  0  0  0  0  0
   39.0010   31.6730   40.7040 C   0  0  0  0  0  0  0  0  0  0  0  0
   39.8770   31.4570   41.7520 C   0  0  0  0  0  0  0  0  0  0  0  0
   39.4310   30.4960   42.5730 N   0  0  0  0  0  0  0  0  0  0  0  0
   38.2680   30.0930   42.0560 C   0  0  0  0  0  0  0  0  0  0  0  0
   38.0070   30.7970   40.9380 N   0  0  0  0  0  0  0  0  0  0  0  0
   40.7920   31.9940   41.8790 H   0  0  0  0  0  0  0  0  0  0  0  0
   39.9010   30.1390   43.4410 H   0  0  0  0  0  0  0  0  0  0  0  0
   37.4370   29.0230   42.6780 C   0  0  0  0  0  3  0  0  0  0  0  0
   36.5120   28.3530   41.7120 C   0  0  0  0  0  2  0  0  0  0  0  0
   36.9740   26.9110   41.6180 C   0  0  0  0  0  2  0  0  0  0  0  0
   37.6230   26.6580   42.9620 C   0  0  0  0  0  2  0  0  0  0  0  0
   38.3970   27.9520   43.1620 C   0  0  0  0  0  2  0  0  0  0  0  0
  1  6  1  0  0  0  0
  2  3  1  0  0  0  0
  2  1  2  0  0  0  0
  3  4  2  0  0  0  0
  4  5  1  0  0  0  0
  5  7  1  0  0  0  0
  6  5  2  0  0  0  0
  7  8  1  0  0  0  0
  8 16  1  6  0  0  0
  8  9  1  0  0  0  0
  8 24  1  0  0  0  0
  9 18  1  0  0  0  0
 10  9  1  0  0  0  0
 10 19  1  0  0  0  0
 11 10  1  0  0  0  0
 11 21  1  0  0  0  0
 12  7  1  0  0  0  0
 12 11  1  0  0  0  0
 13  1  1  0  0  0  0
 14  2  1  0  0  0  0
 15  3  1  0  0  0  0
 17  9  1  0  0  0  0
 20 11  1  0  0  0  0
 22 12  1  0  0  0  0
 23 12  1  0  0  0  0
 24 28  1  0  0  0  0
 24 25  2  0  0  0  0
 25 29  1  0  0  0  0
 25 26  1  0  0  0  0
 26 30  1  0  0  0  0
 27 26  1  0  0  0  0
 27 31  1  0  0  0  0
 28 27  2  0  0  0  0
 31 35  1  0  0  0  0
 32 31  1  0  0  0  0
 33 32  1  0  0  0  0
 33 34  1  0  0  0  0
 34 35  1  0  0  0  0
M  END
>  <minimizedAffinity>
-5.60955715

$$$$

 OpenBabel03242520433D

 35 38  0  0  1  0  0  0  0  0999 V2000
   39.7820   28.1630   36.8960 C   0  0  0  0  0  0  0  0  0  0  0  0
   38.8380   27.2690   36.3730 C   0  0  0  0  0  0  0  0  0  0  0  0
   37.4690   27.4820   36.7090 C   0  0  0  0  0  0  0  0  0  0  0  0
   37.1420   28.5360   37.5160 N   0  0  0  0  0  0  0  0  0  0  0  0
   38.0940   29.3640   37.9880 C   0  0  0  0  0  0  0  0  0  0  0  0
   39.3980   29.1710   37.6760 N   0  0  0  0  0  0  0  0  0  0  0  0
   37.6710   30.4150   38.8080 N   0  0  0  0  0  0  0  0  0  0  0  0
   36.9770   30.1550   40.0250 C   0  0  2  0  0  0  0  0  0  0  0  0
   36.3640   31.3520   40.6610 C   0  0  0  0  0  0  0  0  0  0  0  0
   36.9920   32.5990   40.4440 N   0  0  0  0  0  0  0  0  0  0  0  0
   38.2070   32.5250   39.7010 C   0  0  0  0  0  0  0  0  0  0  0  0
   37.9440   31.7870   38.4170 C   0  0  0  0  0  0  0  0  0  0  0  0
   40.7810   27.9320   36.5950 H   0  0  0  0  0  0  0  0  0  0  0  0
   38.9550   26.4210   35.7440 H   0  0  0  0  0  0  0  0  0  0  0  0
   36.6560   26.8580   36.3650 H   0  0  0  0  0  0  0  0  0  0  0  0
   36.0900   29.5120   39.7310 H   0  0  0  0  0  0  0  0  0  0  0  0
   35.2850   31.4650   40.4300 H   0  0  0  0  0  0  0  0  0  0  0  0
   36.3970   31.1640   41.7750 H   0  0  0  0  0  0  0  0  0  0  0  0
   37.0610   33.1900   41.3060 H   0  0  0  0  0  0  0  0  0  0  0  0
   38.4340   33.5840   39.3850 H   0  0  0  0  0  0  0  0  0  0  0  0
   39.0950   32.1940   40.2300 H   0  0  0  0  0  0  0  0  0  0  0  0
   37.1350   32.2610   37.8630 H   0  0  0  0  0  0  0  0  0  0  0  0
   38.9030   31.7660   37.8380 H   0  0  0  0  0  0  0  0  0  0  0  0
   37.7900   29.3530   40.9740 C   0  0  0  0  0  0  0  0  0  0  0  0
   38.9960   29.5980   41.6040 C   0  0  0  0  0  0  0  0  0  0  0  0
   39.3520   28.5770   42.3950 N   0  0  0  0  0  0  0  0  0  0  0  0
   38.3770   27.6730   42.2750 C   0  0  0  0  0  0  0  0  0  0  0  0
   37.4390   28.1350   41.4260 N   0  0  0  0  0  0  0  0  0  0  0  0
   39.5630   30.4940   41.4680 H   0  0  0  0  0  0  0  0  0  0  0  0
   40.2180   28.5060   42.9830 H   0  0  0  0  0  0  0  0  0  0  0  0
   38.3890   26.3720   43.0030 C   0  0  0  0  0  3  0  0  0  0  0  0
   37.6970   25.2710   42.2650 C   0  0  0  0  0  2  0  0  0  0  0  0
   38.7670   24.2490   41.9310 C   0  0  0  0  0  2  0  0  0  0  0  0
   39.7920   24.4380   43.0300 C   0  0  0  0  0  2  0  0  0  0  0  0
   39.8440   25.9550   43.1250 C   0  0  0  0  0  2  0  0  0  0  0  0
  1  6  1  0  0  0  0
  2  3  1  0  0  0  0
  2  1  2  0  0  0  0
  3  4  2  0  0  0  0
  4  5  1  0  0  0  0
  5  7  1  0  0  0  0
  6  5  2  0  0  0  0
  7  8  1  0  0  0  0
  8 16  1  6  0  0  0
  8  9  1  0  0  0  0
  8 24  1  0  0  0  0
  9 18  1  0  0  0  0
 10  9  1  0  0  0  0
 10 19  1  0  0  0  0
 11 21  1  0  0  0  0
 11 10  1  0  0  0  0
 12  7  1  0  0  0  0
 12 11  1  0  0  0  0
 13  1  1  0  0  0  0
 14  2  1  0  0  0  0
 15  3  1  0  0  0  0
 17  9  1  0  0  0  0
 20 11  1  0  0  0  0
 22 12  1  0  0  0  0
 23 12  1  0  0  0  0
 24 28  1  0  0  0  0
 24 25  2  0  0  0  0
 25 26  1  0  0  0  0
 26 30  1  0  0  0  0
 27 26  1  0  0  0  0
 27 31  1  0  0  0  0
 28 27  2  0  0  0  0
 29 25  1  0  0  0  0
 31 35  1  0  0  0  0
 32 31  1  0  0  0  0
 33 32  1  0  0  0  0
 33 34  1  0  0  0  0
 34 35  1  0  0  0  0
M  END
>  <minimizedAffinity>
-5.51108551

$$$$

 OpenBabel03242520433D

 35 38  0  0  1  0  0  0  0  0999 V2000
   35.4480   26.4040   37.8590 C   0  0  0  0  0  0  0  0  0  0  0  0
   34.3120   26.8800   37.1910 C   0  0  0  0  0  0  0  0  0  0  0  0
   34.3510   28.2110   36.6830 C   0  0  0  0  0  0  0  0  0  0  0  0
   35.4830   28.9560   36.8680 N   0  0  0  0  0  0  0  0  0  0  0  0
   36.5460   28.4450   37.5180 C   0  0  0  0  0  0  0  0  0  0  0  0
   36.5200   27.1810   38.0050 N   0  0  0  0  0  0  0  0  0  0  0  0
   37.6610   29.2770   37.6630 N   0  0  0  0  0  0  0  0  0  0  0  0
   37.5560   30.5210   38.3500 C   0  0  2  0  0  0  0  0  0  0  0  0
   38.7380   31.4130   38.2080 C   0  0  0  0  0  0  0  0  0  0  0  0
   39.9970   30.8010   38.0170 N   0  0  0  0  0  0  0  0  0  0  0  0
   39.9750   29.3770   38.0770 C   0  0  0  0  0  0  0  0  0  0  0  0
   38.9410   28.8680   37.1100 C   0  0  0  0  0  0  0  0  0  0  0  0
   35.3350   25.4000   38.2060 H   0  0  0  0  0  0  0  0  0  0  0  0
   33.3810   26.4130   36.9820 H   0  0  0  0  0  0  0  0  0  0  0  0
   33.5360   28.6830   36.1530 H   0  0  0  0  0  0  0  0  0  0  0  0
   36.7200   31.0810   37.8270 H   0  0  0  0  0  0  0  0  0  0  0  0
   38.6090   32.1870   37.4240 H   0  0  0  0  0  0  0  0  0  0  0  0
   38.8060   31.9960   39.1730 H   0  0  0  0  0  0  0  0  0  0  0  0
   40.7650   31.2350   38.5820 H   0  0  0  0  0  0  0  0  0  0  0  0
   40.9630   29.0400   37.6480 H   0  0  0  0  0  0  0  0  0  0  0  0
   39.9280   28.9210   39.0610 H   0  0  0  0  0  0  0  0  0  0  0  0
   39.1340   29.2470   36.1090 H   0  0  0  0  0  0  0  0  0  0  0  0
   38.9610   27.7480   37.1550 H   0  0  0  0  0  0  0  0  0  0  0  0
   37.1340   30.3470   39.7630 C   0  0  0  0  0  0  0  0  0  0  0  0
   36.1470   30.9510   40.5200 C   0  0  0  0  0  0  0  0  0  0  0  0
   36.1240   30.4660   41.7690 N   0  0  0  0  0  0  0  0  0  0  0  0
   37.0940   29.5500   41.8180 C   0  0  0  0  0  0  0  0  0  0  0  0
   37.7000   29.4760   40.6180 N   0  0  0  0  0  0  0  0  0  0  0  0
   35.4940   31.7090   40.1450 H   0  0  0  0  0  0  0  0  0  0  0  0
   35.4760   30.7510   42.5440 H   0  0  0  0  0  0  0  0  0  0  0  0
   37.4010   28.7660   43.0480 C   0  0  0  0  0  3  0  0  0  0  0  0
   36.7500   27.4190   43.0720 C   0  0  0  0  0  2  0  0  0  0  0  0
   37.8790   26.4050   43.0380 C   0  0  0  0  0  2  0  0  0  0  0  0
   39.0350   27.1420   43.6800 C   0  0  0  0  0  2  0  0  0  0  0  0
   38.8980   28.5160   43.0430 C   0  0  0  0  0  2  0  0  0  0  0  0
  1  6  1  0  0  0  0
  1 13  1  0  0  0  0
  2  1  2  0  0  0  0
  3  4  2  0  0  0  0
  3  2  1  0  0  0  0
  4  5  1  0  0  0  0
  5  7  1  0  0  0  0
  5  6  2  0  0  0  0
  7  8  1  0  0  0  0
  8 16  1  6  0  0  0
  8 24  1  0  0  0  0
  9  8  1  0  0  0  0
  9 18  1  0  0  0  0
 10 11  1  0  0  0  0
 10  9  1  0  0  0  0
 10 19  1  0  0  0  0
 11 21  1  0  0  0  0
 12 23  1  0  0  0  0
 12  7  1  0  0  0  0
 12 11  1  0  0  0  0
 14  2  1  0  0  0  0
 15  3  1  0  0  0  0
 17  9  1  0  0  0  0
 20 11  1  0  0  0  0
 22 12  1  0  0  0  0
 24 25  2  0  0  0  0
 24 28  1  0  0  0  0
 25 26  1  0  0  0  0
 26 27  1  0  0  0  0
 26 30  1  0  0  0  0
 27 31  1  0  0  0  0
 28 27  2  0  0  0  0
 29 25  1  0  0  0  0
 31 32  1  0  0  0  0
 33 32  1  0  0  0  0
 33 34  1  0  0  0  0
 35 31  1  0  0  0  0
 35 34  1  0  0  0  0
M  END
>  <minimizedAffinity>
-5.47829533

$$$$

 OpenBabel03242520433D

 35 38  0  0  1  0  0  0  0  0999 V2000
   37.8070   27.0700   41.2150 C   0  0  0  0  0  0  0  0  0  0  0  0
   38.2790   26.7590   42.4980 C   0  0  0  0  0  0  0  0  0  0  0  0
   38.6470   27.8420   43.3480 C   0  0  0  0  0  0  0  0  0  0  0  0
   38.5240   29.1220   42.8810 N   0  0  0  0  0  0  0  0  0  0  0  0
   38.0630   29.3600   41.6380 C   0  0  0  0  0  0  0  0  0  0  0  0
   37.7100   28.3380   40.8210 N   0  0  0  0  0  0  0  0  0  0  0  0
   37.9710   30.6980   41.2410 N   0  0  0  0  0  0  0  0  0  0  0  0
   39.1270   31.5300   41.2140 C   0  0  2  0  0  0  0  0  0  0  0  0
   38.8480   32.9790   41.0260 C   0  0  0  0  0  0  0  0  0  0  0  0
   37.6920   33.3300   40.2930 N   0  0  0  0  0  0  0  0  0  0  0  0
   36.9820   32.2210   39.7450 C   0  0  0  0  0  0  0  0  0  0  0  0
   36.6830   31.2450   40.8500 C   0  0  0  0  0  0  0  0  0  0  0  0
   37.5540   26.2020   40.6460 H   0  0  0  0  0  0  0  0  0  0  0  0
   38.4230   25.8230   42.9790 H   0  0  0  0  0  0  0  0  0  0  0  0
   39.0230   27.7230   44.3550 H   0  0  0  0  0  0  0  0  0  0  0  0
   39.5660   31.4650   42.2570 H   0  0  0  0  0  0  0  0  0  0  0  0
   38.8390   33.5490   41.9770 H   0  0  0  0  0  0  0  0  0  0  0  0
   39.7300   33.3940   40.4550 H   0  0  0  0  0  0  0  0  0  0  0  0
   37.8480   34.1090   39.6110 H   0  0  0  0  0  0  0  0  0  0  0  0
   35.9760   32.6280   39.4380 H   0  0  0  0  0  0  0  0  0  0  0  0
   37.3870   31.7670   38.8470 H   0  0  0  0  0  0  0  0  0  0  0  0
   36.1450   31.7370   41.6580 H   0  0  0  0  0  0  0  0  0  0  0  0
   36.1030   30.3980   40.4020 H   0  0  0  0  0  0  0  0  0  0  0  0
   40.1640   31.0190   40.2820 C   0  0  0  0  0  0  0  0  0  0  0  0
   41.1880   30.1040   40.4400 C   0  0  0  0  0  0  0  0  0  0  0  0
   41.8820   29.9450   39.3050 N   0  0  0  0  0  0  0  0  0  0  0  0
   41.3060   30.7560   38.4150 C   0  0  0  0  0  0  0  0  0  0  0  0
   40.2760   31.4000   38.9970 N   0  0  0  0  0  0  0  0  0  0  0  0
   41.3920   29.5960   41.3580 H   0  0  0  0  0  0  0  0  0  0  0  0
   42.7060   29.3130   39.1530 H   0  0  0  0  0  0  0  0  0  0  0  0
   41.7830   30.8770   37.0070 C   0  0  0  0  0  3  0  0  0  0  0  0
   43.0200   31.7070   36.8690 C   0  0  0  0  0  2  0  0  0  0  0  0
   44.1040   30.7680   36.3730 C   0  0  0  0  0  2  0  0  0  0  0  0
   43.3330   29.7050   35.6180 C   0  0  0  0  0  2  0  0  0  0  0  0
   42.1550   29.4780   36.5520 C   0  0  0  0  0  2  0  0  0  0  0  0
  1  2  1  0  0  0  0
  2 14  1  0  0  0  0
  2  3  2  0  0  0  0
  3 15  1  0  0  0  0
  4  3  1  0  0  0  0
  5  4  2  0  0  0  0
  6  1  2  0  0  0  0
  6  5  1  0  0  0  0
  7  5  1  0  0  0  0
  8  7  1  0  0  0  0
  8 16  1  1  0  0  0
  9  8  1  0  0  0  0
  9 17  1  0  0  0  0
 10  9  1  0  0  0  0
 11 10  1  0  0  0  0
 11 12  1  0  0  0  0
 12  7  1  0  0  0  0
 12 22  1  0  0  0  0
 13  1  1  0  0  0  0
 18  9  1  0  0  0  0
 19 10  1  0  0  0  0
 20 11  1  0  0  0  0
 21 11  1  0  0  0  0
 23 12  1  0  0  0  0
 24 25  2  0  0  0  0
 24  8  1  0  0  0  0
 25 29  1  0  0  0  0
 26 25  1  0  0  0  0
 27 28  2  0  0  0  0
 27 26  1  0  0  0  0
 28 24  1  0  0  0  0
 30 26  1  0  0  0  0
 31 27  1  0  0  0  0
 32 31  1  0  0  0  0
 33 32  1  0  0  0  0
 34 33  1  0  0  0  0
 34 35  1  0  0  0  0
 35 31  1  0  0  0  0
M  END
>  <minimizedAffinity>
-5.39813185

$$$$

 OpenBabel03242520433D

 35 38  0  0  1  0  0  0  0  0999 V2000
   36.1610   29.0120   38.0470 C   0  0  0  0  0  0  0  0  0  0  0  0
   34.8850   28.8850   38.6140 C   0  0  0  0  0  0  0  0  0  0  0  0
   34.7130   29.3180   39.9610 C   0  0  0  0  0  0  0  0  0  0  0  0
   35.7880   29.8310   40.6330 N   0  0  0  0  0  0  0  0  0  0  0  0
   36.9910   29.9280   40.0360 C   0  0  0  0  0  0  0  0  0  0  0  0
   37.1670   29.5210   38.7560 N   0  0  0  0  0  0  0  0  0  0  0  0
   38.0360   30.4630   40.7980 N   0  0  0  0  0  0  0  0  0  0  0  0
   38.4400   29.8430   42.0160 C   0  0  2  0  0  0  0  0  0  0  0  0
   39.3730   30.6500   42.8460 C   0  0  0  0  0  0  0  0  0  0  0  0
   40.2370   31.5440   42.1740 N   0  0  0  0  0  0  0  0  0  0  0  0
   40.1540   31.4850   40.7520 C   0  0  0  0  0  0  0  0  0  0  0  0
   38.7180   31.6620   40.3430 C   0  0  0  0  0  0  0  0  0  0  0  0
   36.2020   28.6660   37.0370 H   0  0  0  0  0  0  0  0  0  0  0  0
   33.9780   28.5090   38.2080 H   0  0  0  0  0  0  0  0  0  0  0  0
   33.7770   29.2680   40.4990 H   0  0  0  0  0  0  0  0  0  0  0  0
   37.4980   29.7750   42.6430 H   0  0  0  0  0  0  0  0  0  0  0  0
   38.8650   31.2070   43.6590 H   0  0  0  0  0  0  0  0  0  0  0  0
   40.0340   29.9070   43.3830 H   0  0  0  0  0  0  0  0  0  0  0  0
   41.2180   31.5360   42.5400 H   0  0  0  0  0  0  0  0  0  0  0  0
   40.6780   32.4120   40.3790 H   0  0  0  0  0  0  0  0  0  0  0  0
   40.6600   30.6610   40.2580 H   0  0  0  0  0  0  0  0  0  0  0  0
   38.3150   32.5860   40.7530 H   0  0  0  0  0  0  0  0  0  0  0  0
   38.6820   31.6400   39.2230 H   0  0  0  0  0  0  0  0  0  0  0  0
   38.9130   28.4520   41.8070 C   0  0  0  0  0  0  0  0  0  0  0  0
   40.0910   27.9360   41.2960 C   0  0  0  0  0  0  0  0  0  0  0  0
   40.0820   26.5960   41.3040 N   0  0  0  0  0  0  0  0  0  0  0  0
   38.9010   26.2470   41.8200 C   0  0  0  0  0  0  0  0  0  0  0  0
   38.2000   27.3560   42.1230 N   0  0  0  0  0  0  0  0  0  0  0  0
   40.8970   28.5410   40.9410 H   0  0  0  0  0  0  0  0  0  0  0  0
   40.8470   25.9590   40.9730 H   0  0  0  0  0  0  0  0  0  0  0  0
   38.4910   24.8260   42.0050 C   0  0  0  0  0  3  0  0  0  0  0  0
   37.0080   24.6390   42.0650 C   0  0  0  0  0  2  0  0  0  0  0  0
   36.6380   23.8120   40.8470 C   0  0  0  0  0  2  0  0  0  0  0  0
   37.8940   23.0150   40.5670 C   0  0  0  0  0  2  0  0  0  0  0  0
   38.9670   24.0710   40.7770 C   0  0  0  0  0  2  0  0  0  0  0  0
  1  2  2  0  0  0  0
  1  6  1  0  0  0  0
  2  3  1  0  0  0  0
  3 15  1  0  0  0  0
  3  4  2  0  0  0  0
  5  4  1  0  0  0  0
  5  7  1  0  0  0  0
  6  5  2  0  0  0  0
  7  8  1  0  0  0  0
  8 16  1  1  0  0  0
  8  9  1  0  0  0  0
  9 18  1  0  0  0  0
  9 17  1  0  0  0  0
 10 19  1  0  0  0  0
 10  9  1  0  0  0  0
 11 10  1  0  0  0  0
 12 11  1  0  0  0  0
 12 22  1  0  0  0  0
 12  7  1  0  0  0  0
 13  1  1  0  0  0  0
 14  2  1  0  0  0  0
 20 11  1  0  0  0  0
 21 11  1  0  0  0  0
 23 12  1  0  0  0  0
 24  8  1  0  0  0  0
 24 28  1  0  0  0  0
 25 26  1  0  0  0  0
 25 24  2  0  0  0  0
 26 27  1  0  0  0  0
 27 31  1  0  0  0  0
 27 28  2  0  0  0  0
 29 25  1  0  0  0  0
 30 26  1  0  0  0  0
 31 32  1  0  0  0  0
 33 32  1  0  0  0  0
 34 35  1  0  0  0  0
 34 33  1  0  0  0  0
 35 31  1  0  0  0  0
M  END
>  <minimizedAffinity>
-5.39219713

$$$$

 OpenBabel03242520433D

 35 38  0  0  1  0  0  0  0  0999 V2000
   41.6470   28.2550   41.4320 C   0  0  0  0  0  0  0  0  0  0  0  0
   42.0900   28.2850   42.7620 C   0  0  0  0  0  0  0  0  0  0  0  0
   41.4890   27.3750   43.6800 C   0  0  0  0  0  0  0  0  0  0  0  0
   40.5190   26.5240   43.2280 N   0  0  0  0  0  0  0  0  0  0  0  0
   40.1340   26.5400   41.9380 C   0  0  0  0  0  0  0  0  0  0  0  0
   40.6980   27.4000   41.0560 N   0  0  0  0  0  0  0  0  0  0  0  0
   39.1340   25.6370   41.5620 N   0  0  0  0  0  0  0  0  0  0  0  0
   37.8500   25.6760   42.1790 C   0  0  2  0  0  0  0  0  0  0  0  0
   36.9780   24.5090   41.8760 C   0  0  0  0  0  0  0  0  0  0  0  0
   37.1580   23.8670   40.6310 N   0  0  0  0  0  0  0  0  0  0  0  0
   38.1130   24.4930   39.7770 C   0  0  0  0  0  0  0  0  0  0  0  0
   39.4050   24.6500   40.5310 C   0  0  0  0  0  0  0  0  0  0  0  0
   42.1490   28.9660   40.8120 H   0  0  0  0  0  0  0  0  0  0  0  0
   42.8240   28.8870   43.2370 H   0  0  0  0  0  0  0  0  0  0  0  0
   41.7500   27.3090   44.7270 H   0  0  0  0  0  0  0  0  0  0  0  0
   38.0500   25.5910   43.2920 H   0  0  0  0  0  0  0  0  0  0  0  0
   36.9940   23.7340   42.6690 H   0  0  0  0  0  0  0  0  0  0  0  0
   35.9190   24.9020   41.8860 H   0  0  0  0  0  0  0  0  0  0  0  0
   36.2600   23.6220   40.1510 H   0  0  0  0  0  0  0  0  0  0  0  0
   38.3390   23.7390   38.9700 H   0  0  0  0  0  0  0  0  0  0  0  0
   37.7960   25.3850   39.2470 H   0  0  0  0  0  0  0  0  0  0  0  0
   39.7440   23.6890   40.9130 H   0  0  0  0  0  0  0  0  0  0  0  0
   40.1470   25.1190   39.8340 H   0  0  0  0  0  0  0  0  0  0  0  0
   37.1640   26.9750   41.9670 C   0  0  0  0  0  0  0  0  0  0  0  0
   36.8320   28.0040   42.8290 C   0  0  0  0  0  0  0  0  0  0  0  0
   36.2160   29.0040   42.1840 N   0  0  0  0  0  0  0  0  0  0  0  0
   36.1510   28.6210   40.9070 C   0  0  0  0  0  0  0  0  0  0  0  0
   36.7190   27.4080   40.7740 N   0  0  0  0  0  0  0  0  0  0  0  0
   37.0430   27.9900   43.8770 H   0  0  0  0  0  0  0  0  0  0  0  0
   35.8600   29.8990   42.6010 H   0  0  0  0  0  0  0  0  0  0  0  0
   35.5320   29.4630   39.8440 C   0  0  0  0  0  3  0  0  0  0  0  0
   36.5120   30.3470   39.1390 C   0  0  0  0  0  2  0  0  0  0  0  0
   36.5530   29.8670   37.7000 C   0  0  0  0  0  2  0  0  0  0  0  0
   35.1800   29.2640   37.4890 C   0  0  0  0  0  2  0  0  0  0  0  0
   34.9860   28.5100   38.7960 C   0  0  0  0  0  2  0  0  0  0  0  0
  1  2  1  0  0  0  0
  2 14  1  0  0  0  0
  2  3  2  0  0  0  0
  3 15  1  0  0  0  0
  4  3  1  0  0  0  0
  5  4  2  0  0  0  0
  6  1  2  0  0  0  0
  6  5  1  0  0  0  0
  7  5  1  0  0  0  0
  7  8  1  0  0  0  0
  8 16  1  1  0  0  0
  9 18  1  0  0  0  0
  9  8  1  0  0  0  0
  9 17  1  0  0  0  0
 10  9  1  0  0  0  0
 11 12  1  0  0  0  0
 11 10  1  0  0  0  0
 12 22  1  0  0  0  0
 12  7  1  0  0  0  0
 13  1  1  0  0  0  0
 19 10  1  0  0  0  0
 20 11  1  0  0  0  0
 21 11  1  0  0  0  0
 23 12  1  0  0  0  0
 24  8  1  0  0  0  0
 24 25  2  0  0  0  0
 25 29  1  0  0  0  0
 26 30  1  0  0  0  0
 26 25  1  0  0  0  0
 27 26  1  0  0  0  0
 28 27  2  0  0  0  0
 28 24  1  0  0  0  0
 31 27  1  0  0  0  0
 32 31  1  0  0  0  0
 33 32  1  0  0  0  0
 34 33  1  0  0  0  0
 34 35  1  0  0  0  0
 35 31  1  0  0  0  0
M  END
>  <minimizedAffinity>
-5.37214279

$$$$

 OpenBabel03242520433D

 35 38  0  0  1  0  0  0  0  0999 V2000
   39.3390   27.3740   42.2610 C   0  0  0  0  0  0  0  0  0  0  0  0
   38.6890   27.4070   43.5030 C   0  0  0  0  0  0  0  0  0  0  0  0
   37.6500   28.3670   43.6800 C   0  0  0  0  0  0  0  0  0  0  0  0
   37.3370   29.2020   42.6430 N   0  0  0  0  0  0  0  0  0  0  0  0
   37.9970   29.1230   41.4710 C   0  0  0  0  0  0  0  0  0  0  0  0
   38.9860   28.2160   41.2910 N   0  0  0  0  0  0  0  0  0  0  0  0
   37.6130   30.0170   40.4660 N   0  0  0  0  0  0  0  0  0  0  0  0
   37.6950   31.4250   40.6740 C   0  0  2  0  0  0  0  0  0  0  0  0
   37.0200   32.2480   39.6350 C   0  0  0  0  0  0  0  0  0  0  0  0
   36.9490   31.7170   38.3270 N   0  0  0  0  0  0  0  0  0  0  0  0
   37.6290   30.4750   38.1580 C   0  0  0  0  0  0  0  0  0  0  0  0
   37.1300   29.5060   39.1950 C   0  0  0  0  0  0  0  0  0  0  0  0
   40.1020   26.6270   42.2130 H   0  0  0  0  0  0  0  0  0  0  0  0
   38.8320   26.8250   44.3790 H   0  0  0  0  0  0  0  0  0  0  0  0
   37.0810   28.4840   44.5910 H   0  0  0  0  0  0  0  0  0  0  0  0
   37.0960   31.6220   41.6170 H   0  0  0  0  0  0  0  0  0  0  0  0
   36.0020   32.5750   39.9300 H   0  0  0  0  0  0  0  0  0  0  0  0
   37.6140   33.2060   39.5620 H   0  0  0  0  0  0  0  0  0  0  0  0
   37.1600   32.4180   37.5780 H   0  0  0  0  0  0  0  0  0  0  0  0
   37.2630   30.0610   37.1750 H   0  0  0  0  0  0  0  0  0  0  0  0
   38.7090   30.5080   38.0630 H   0  0  0  0  0  0  0  0  0  0  0  0
   36.0470   29.4090   39.1380 H   0  0  0  0  0  0  0  0  0  0  0  0
   37.6560   28.5320   39.0260 H   0  0  0  0  0  0  0  0  0  0  0  0
   39.0830   31.8720   40.9490 C   0  0  0  0  0  0  0  0  0  0  0  0
   39.9850   31.5500   41.9470 C   0  0  0  0  0  0  0  0  0  0  0  0
   41.1440   32.2020   41.7880 N   0  0  0  0  0  0  0  0  0  0  0  0
   40.9920   32.9440   40.6890 C   0  0  0  0  0  0  0  0  0  0  0  0
   39.7590   32.7480   40.1840 N   0  0  0  0  0  0  0  0  0  0  0  0
   39.7700   30.8660   42.7400 H   0  0  0  0  0  0  0  0  0  0  0  0
   41.9930   32.1390   42.4030 H   0  0  0  0  0  0  0  0  0  0  0  0
   42.0670   33.8310   40.1590 C   0  0  0  0  0  3  0  0  0  0  0  0
   43.4260   33.2070   40.2040 C   0  0  0  0  0  2  0  0  0  0  0  0
   43.8670   33.0520   38.7610 C   0  0  0  0  0  2  0  0  0  0  0  0
   43.1260   34.1610   38.0440 C   0  0  0  0  0  2  0  0  0  0  0  0
   41.7550   34.0660   38.6930 C   0  0  0  0  0  2  0  0  0  0  0  0
  1  2  1  0  0  0  0
  2  3  2  0  0  0  0
  2 14  1  0  0  0  0
  3 15  1  0  0  0  0
  4  3  1  0  0  0  0
  5  4  2  0  0  0  0
  6  5  1  0  0  0  0
  6  1  2  0  0  0  0
  7  8  1  0  0  0  0
  7  5  1  0  0  0  0
  8 24  1  0  0  0  0
  8 16  1  1  0  0  0
  9 17  1  0  0  0  0
  9  8  1  0  0  0  0
 10  9  1  0  0  0  0
 11 10  1  0  0  0  0
 11 12  1  0  0  0  0
 12  7  1  0  0  0  0
 13  1  1  0  0  0  0
 18  9  1  0  0  0  0
 19 10  1  0  0  0  0
 20 11  1  0  0  0  0
 21 11  1  0  0  0  0
 22 12  1  0  0  0  0
 23 12  1  0  0  0  0
 24 25  2  0  0  0  0
 25 29  1  0  0  0  0
 26 25  1  0  0  0  0
 26 30  1  0  0  0  0
 27 26  1  0  0  0  0
 28 27  2  0  0  0  0
 28 24  1  0  0  0  0
 31 32  1  0  0  0  0
 31 27  1  0  0  0  0
 33 32  1  0  0  0  0
 34 35  1  0  0  0  0
 34 33  1  0  0  0  0
 35 31  1  0  0  0  0
M  END
>  <minimizedAffinity>
-5.37173986

$$$$

 OpenBabel03242520433D

 35 38  0  0  1  0  0  0  0  0999 V2000
   40.5470   26.7210   41.2730 C   0  0  0  0  0  0  0  0  0  0  0  0
   41.4450   27.2900   42.1870 C   0  0  0  0  0  0  0  0  0  0  0  0
   41.0510   28.4950   42.8380 C   0  0  0  0  0  0  0  0  0  0  0  0
   39.8290   29.0360   42.5460 N   0  0  0  0  0  0  0  0  0  0  0  0
   39.0070   28.4430   41.6590 C   0  0  0  0  0  0  0  0  0  0  0  0
   39.3710   27.2980   41.0330 N   0  0  0  0  0  0  0  0  0  0  0  0
   37.7780   29.0660   41.4190 N   0  0  0  0  0  0  0  0  0  0  0  0
   37.7220   30.3990   40.9190 C   0  0  2  0  0  0  0  0  0  0  0  0
   36.3730   31.0220   40.9550 C   0  0  0  0  0  0  0  0  0  0  0  0
   35.2550   30.1650   40.8410 N   0  0  0  0  0  0  0  0  0  0  0  0
   35.5840   28.7960   40.6130 C   0  0  0  0  0  0  0  0  0  0  0  0
   36.5440   28.3450   41.6790 C   0  0  0  0  0  0  0  0  0  0  0  0
   40.9200   25.8220   40.8320 H   0  0  0  0  0  0  0  0  0  0  0  0
   42.4100   26.9780   42.5000 H   0  0  0  0  0  0  0  0  0  0  0  0
   41.6600   29.0230   43.5590 H   0  0  0  0  0  0  0  0  0  0  0  0
   38.3330   31.0160   41.6470 H   0  0  0  0  0  0  0  0  0  0  0  0
   36.2170   31.6750   41.8370 H   0  0  0  0  0  0  0  0  0  0  0  0
   36.3300   31.7250   40.0720 H   0  0  0  0  0  0  0  0  0  0  0  0
   34.5080   30.5310   40.2050 H   0  0  0  0  0  0  0  0  0  0  0  0
   34.6360   28.2190   40.8130 H   0  0  0  0  0  0  0  0  0  0  0  0
   35.8740   28.5160   39.6050 H   0  0  0  0  0  0  0  0  0  0  0  0
   36.1260   28.5220   42.6690 H   0  0  0  0  0  0  0  0  0  0  0  0
   36.7660   27.2620   41.4960 H   0  0  0  0  0  0  0  0  0  0  0  0
   38.3790   30.5290   39.5940 C   0  0  0  0  0  0  0  0  0  0  0  0
   38.2040   29.8560   38.3980 C   0  0  0  0  0  0  0  0  0  0  0  0
   39.0260   30.3240   37.4490 N   0  0  0  0  0  0  0  0  0  0  0  0
   39.7310   31.2970   38.0310 C   0  0  0  0  0  0  0  0  0  0  0  0
   39.3450   31.4230   39.3150 N   0  0  0  0  0  0  0  0  0  0  0  0
   37.5000   29.0640   38.2620 H   0  0  0  0  0  0  0  0  0  0  0  0
   39.0980   29.9900   36.4560 H   0  0  0  0  0  0  0  0  0  0  0  0
   40.7690   32.0850   37.3060 C   0  0  0  0  0  3  0  0  0  0  0  0
   41.3390   33.2040   38.1180 C   0  0  0  0  0  2  0  0  0  0  0  0
   42.8030   32.8670   38.3300 C   0  0  0  0  0  2  0  0  0  0  0  0
   43.1500   32.0200   37.1250 C   0  0  0  0  0  2  0  0  0  0  0  0
   41.9180   31.1340   37.0240 C   0  0  0  0  0  2  0  0  0  0  0  0
  1  2  1  0  0  0  0
  2 14  1  0  0  0  0
  2  3  2  0  0  0  0
  3 15  1  0  0  0  0
  4  3  1  0  0  0  0
  5  4  2  0  0  0  0
  6  1  2  0  0  0  0
  6  5  1  0  0  0  0
  7  5  1  0  0  0  0
  7 12  1  0  0  0  0
  8  9  1  0  0  0  0
  8  7  1  0  0  0  0
  8 16  1  1  0  0  0
  9 17  1  0  0  0  0
 10  9  1  0  0  0  0
 11 20  1  0  0  0  0
 11 10  1  0  0  0  0
 11 12  1  0  0  0  0
 12 22  1  0  0  0  0
 13  1  1  0  0  0  0
 18  9  1  0  0  0  0
 19 10  1  0  0  0  0
 21 11  1  0  0  0  0
 23 12  1  0  0  0  0
 24  8  1  0  0  0  0
 25 24  2  0  0  0  0
 26 27  1  0  0  0  0
 26 25  1  0  0  0  0
 27 28  2  0  0  0  0
 28 24  1  0  0  0  0
 29 25  1  0  0  0  0
 30 26  1  0  0  0  0
 31 27  1  0  0  0  0
 31 32  1  0  0  0  0
 32 33  1  0  0  0  0
 34 33  1  0  0  0  0
 35 34  1  0  0  0  0
 35 31  1  0  0  0  0
M  END
>  <minimizedAffinity>
-5.35875082

$$$$
