
 OpenBabel03252500023D

 33 36  0  0  0  0  0  0  0  0999 V2000
   36.4010   27.5150   39.4520 C   0  0  0  0  0  0  0  0  0  0  0  0
   35.7240   27.3710   38.2540 C   0  0  0  0  0  0  0  0  0  0  0  0
   35.3680   26.1580   37.6930 C   0  0  0  0  0  0  0  0  0  0  0  0
   35.6920   24.9920   38.3470 C   0  0  0  0  0  0  0  0  0  0  0  0
   36.3670   25.0960   39.5480 C   0  0  0  0  0  0  0  0  0  0  0  0
   36.6530   23.9810   40.2670 C   0  0  0  0  0  0  0  0  0  0  0  0
   37.2600   24.0310   41.4980 C   0  0  0  0  0  0  0  0  0  0  0  0
   37.5770   25.2900   41.9780 C   0  0  0  0  0  0  0  0  0  0  0  0
   37.2970   26.4220   41.2550 C   0  0  0  0  0  0  0  0  0  0  0  0
   36.6940   26.3330   40.0520 C   0  0  0  0  0  0  0  0  0  0  0  0
   35.4080   28.2070   37.6420 H   0  0  0  0  0  0  0  0  0  0  0  0
   34.8440   26.0480   36.7650 H   0  0  0  0  0  0  0  0  0  0  0  0
   35.4310   24.0330   37.9390 H   0  0  0  0  0  0  0  0  0  0  0  0
   36.3700   23.0330   39.8070 H   0  0  0  0  0  0  0  0  0  0  0  0
   37.4210   23.0660   41.9530 H   0  0  0  0  0  0  0  0  0  0  0  0
   38.0360   25.1390   42.9460 H   0  0  0  0  0  0  0  0  0  0  0  0
   36.2540   30.9170   41.0150 C   0  0  0  0  0  0  0  0  0  0  0  0
   35.8850   29.6130   40.7430 C   0  0  0  0  0  0  0  0  0  0  0  0
   36.6610   28.8400   39.8290 C   0  0  0  0  0  0  0  0  0  0  0  0
   37.6960   29.5320   39.3200 N   0  0  0  0  0  0  0  0  0  0  0  0
   38.0470   30.7640   39.5750 C   0  0  0  0  0  0  0  0  0  0  0  0
   37.3090   31.4560   40.4380 N   0  0  0  0  0  0  0  0  0  0  0  0
   35.6310   31.4430   41.7120 H   0  0  0  0  0  0  0  0  0  0  0  0
   35.0190   29.1020   41.1820 H   0  0  0  0  0  0  0  0  0  0  0  0
   39.2860   31.2230   38.8730 C   0  0  0  0  0  0  0  0  0  0  0  0
   39.3540   32.5880   38.7970 F   0  0  0  0  0  0  0  0  0  0  0  0
   39.3470   30.6400   37.6210 F   0  0  0  0  0  0  0  0  0  0  0  0
   40.4080   30.7000   39.5490 F   0  0  0  0  0  0  0  0  0  0  0  0
   37.8030   27.6380   41.9430 C   0  0  0  0  0  3  0  0  0  0  0  0
   39.2350   27.7390   41.5400 C   0  0  0  0  0  2  0  0  0  0  0  0
   40.0580   26.7590   42.3330 C   0  0  0  0  0  2  0  0  0  0  0  0
   39.4170   26.9790   43.6790 C   0  0  0  0  0  2  0  0  0  0  0  0
   38.0400   27.4050   43.4370 C   0  0  0  0  0  2  0  0  0  0  0  0
  1 19  1  0  0  0  0
  1 10  1  0  0  0  0
  2  1  2  0  0  0  0
  3  2  1  0  0  0  0
  3  4  2  0  0  0  0
  4  5  1  0  0  0  0
  5 10  2  0  0  0  0
  5  6  1  0  0  0  0
  6  7  2  0  0  0  0
  7 15  1  0  0  0  0
  7  8  1  0  0  0  0
  8 16  1  0  0  0  0
  9 29  1  0  0  0  0
  9  8  2  0  0  0  0
 10  9  1  0  0  0  0
 11  2  1  0  0  0  0
 12  3  1  0  0  0  0
 13  4  1  0  0  0  0
 14  6  1  0  0  0  0
 17 23  1  0  0  0  0
 18 17  1  0  0  0  0
 18 24  1  0  0  0  0
 19 18  2  0  0  0  0
 20 21  2  0  0  0  0
 20 19  1  0  0  0  0
 21 22  1  0  0  0  0
 22 17  2  0  0  0  0
 25 28  1  0  0  0  0
 25 21  1  0  0  0  0
 26 25  1  0  0  0  0
 27 25  1  0  0  0  0
 29 33  1  0  0  0  0
 30 29  1  0  0  0  0
 30 31  1  0  0  0  0
 31 32  1  0  0  0  0
 33 32  1  0  0  0  0
M  END
>  <minimizedAffinity>
-6.28588104

$$$$

 OpenBabel03252500023D

 33 36  0  0  0  0  0  0  0  0999 V2000
   36.6410   26.5800   39.8530 C   0  0  0  0  0  0  0  0  0  0  0  0
   36.5590   25.2000   39.9280 C   0  0  0  0  0  0  0  0  0  0  0  0
   36.7690   24.4620   41.0790 C   0  0  0  0  0  0  0  0  0  0  0  0
   37.0820   25.1120   42.2490 C   0  0  0  0  0  0  0  0  0  0  0  0
   37.1720   26.4900   42.2140 C   0  0  0  0  0  0  0  0  0  0  0  0
   37.4110   27.1860   43.3540 C   0  0  0  0  0  0  0  0  0  0  0  0
   37.4420   28.5590   43.3900 C   0  0  0  0  0  0  0  0  0  0  0  0
   37.2180   29.2120   42.1900 C   0  0  0  0  0  0  0  0  0  0  0  0
   36.9800   28.5150   41.0320 C   0  0  0  0  0  0  0  0  0  0  0  0
   36.9520   27.1670   41.0380 C   0  0  0  0  0  0  0  0  0  0  0  0
   36.3180   24.5690   39.0820 H   0  0  0  0  0  0  0  0  0  0  0  0
   36.7060   23.3930   41.1350 H   0  0  0  0  0  0  0  0  0  0  0  0
   37.2530   24.5680   43.1610 H   0  0  0  0  0  0  0  0  0  0  0  0
   37.5810   26.5880   44.2510 H   0  0  0  0  0  0  0  0  0  0  0  0
   37.6410   28.9740   44.3660 H   0  0  0  0  0  0  0  0  0  0  0  0
   37.2730   30.2700   42.4050 H   0  0  0  0  0  0  0  0  0  0  0  0
   36.9550   27.7860   36.3210 C   0  0  0  0  0  0  0  0  0  0  0  0
   37.3370   27.2180   37.5210 C   0  0  0  0  0  0  0  0  0  0  0  0
   36.3910   27.1200   38.5840 C   0  0  0  0  0  0  0  0  0  0  0  0
   35.1940   27.6360   38.2560 N   0  0  0  0  0  0  0  0  0  0  0  0
   34.8290   28.1740   37.1240 C   0  0  0  0  0  0  0  0  0  0  0  0
   35.7310   28.2430   36.1480 N   0  0  0  0  0  0  0  0  0  0  0  0
   37.7110   27.8280   35.5610 H   0  0  0  0  0  0  0  0  0  0  0  0
   38.3380   26.8210   37.7360 H   0  0  0  0  0  0  0  0  0  0  0  0
   33.3990   28.6120   37.0660 C   0  0  0  0  0  0  0  0  0  0  0  0
   32.9700   29.1140   38.2640 F   0  0  0  0  0  0  0  0  0  0  0  0
   32.6130   27.5550   36.6450 F   0  0  0  0  0  0  0  0  0  0  0  0
   33.2620   29.5690   36.0400 F   0  0  0  0  0  0  0  0  0  0  0  0
   36.8500   29.4340   39.8700 C   0  0  0  0  0  3  0  0  0  0  0  0
   38.2250   29.9640   39.6440 C   0  0  0  0  0  2  0  0  0  0  0  0
   38.5300   31.0360   40.6560 C   0  0  0  0  0  2  0  0  0  0  0  0
   37.2030   31.7500   40.6190 C   0  0  0  0  0  2  0  0  0  0  0  0
   36.1910   30.7620   40.2490 C   0  0  0  0  0  2  0  0  0  0  0  0
  1  2  2  0  0  0  0
  1 10  1  0  0  0  0
  2  3  1  0  0  0  0
  3 12  1  0  0  0  0
  3  4  2  0  0  0  0
  4 13  1  0  0  0  0
  5  4  1  0  0  0  0
  5  6  1  0  0  0  0
  6  7  2  0  0  0  0
  6 14  1  0  0  0  0
  7 15  1  0  0  0  0
  8 16  1  0  0  0  0
  8  7  1  0  0  0  0
  9 10  1  0  0  0  0
  9  8  2  0  0  0  0
 10  5  2  0  0  0  0
 11  2  1  0  0  0  0
 17 18  1  0  0  0  0
 18 24  1  0  0  0  0
 18 19  2  0  0  0  0
 19  1  1  0  0  0  0
 20 19  1  0  0  0  0
 21 20  2  0  0  0  0
 22 17  2  0  0  0  0
 22 21  1  0  0  0  0
 23 17  1  0  0  0  0
 25 21  1  0  0  0  0
 25 26  1  0  0  0  0
 27 25  1  0  0  0  0
 28 25  1  0  0  0  0
 29 33  1  0  0  0  0
 29  9  1  0  0  0  0
 30 29  1  0  0  0  0
 30 31  1  0  0  0  0
 32 31  1  0  0  0  0
 33 32  1  0  0  0  0
M  END
>  <minimizedAffinity>
-6.24063396

$$$$

 OpenBabel03252500023D

 33 36  0  0  0  0  0  0  0  0999 V2000
   39.5850   29.3840   41.9350 C   0  0  0  0  0  0  0  0  0  0  0  0
   40.5870   30.3320   42.0510 C   0  0  0  0  0  0  0  0  0  0  0  0
   41.7920   30.1270   42.6990 C   0  0  0  0  0  0  0  0  0  0  0  0
   42.0460   28.9060   43.2780 C   0  0  0  0  0  0  0  0  0  0  0  0
   41.0690   27.9340   43.1820 C   0  0  0  0  0  0  0  0  0  0  0  0
   41.2960   26.6900   43.6770 C   0  0  0  0  0  0  0  0  0  0  0  0
   40.3890   25.6670   43.5480 C   0  0  0  0  0  0  0  0  0  0  0  0
   39.2120   25.9660   42.8830 C   0  0  0  0  0  0  0  0  0  0  0  0
   38.9740   27.2220   42.3840 C   0  0  0  0  0  0  0  0  0  0  0  0
   39.8920   28.2000   42.5250 C   0  0  0  0  0  0  0  0  0  0  0  0
   40.5150   31.3310   41.6380 H   0  0  0  0  0  0  0  0  0  0  0  0
   42.5660   30.8630   42.7880 H   0  0  0  0  0  0  0  0  0  0  0  0
   42.9710   28.7140   43.7900 H   0  0  0  0  0  0  0  0  0  0  0  0
   42.2480   26.5480   44.1900 H   0  0  0  0  0  0  0  0  0  0  0  0
   40.7050   24.7350   43.9890 H   0  0  0  0  0  0  0  0  0  0  0  0
   38.6300   25.0550   42.8710 H   0  0  0  0  0  0  0  0  0  0  0  0
   36.1680   30.6160   41.0160 C   0  0  0  0  0  0  0  0  0  0  0  0
   37.2180   30.2320   41.8290 C   0  0  0  0  0  0  0  0  0  0  0  0
   38.4450   29.8090   41.2380 C   0  0  0  0  0  0  0  0  0  0  0  0
   38.4030   29.8310   39.8940 N   0  0  0  0  0  0  0  0  0  0  0  0
   37.4140   30.1930   39.1230 C   0  0  0  0  0  0  0  0  0  0  0  0
   36.2850   30.5910   39.7040 N   0  0  0  0  0  0  0  0  0  0  0  0
   35.2740   30.9250   41.5210 H   0  0  0  0  0  0  0  0  0  0  0  0
   37.1900   30.2240   42.9270 H   0  0  0  0  0  0  0  0  0  0  0  0
   37.7080   30.1470   37.6570 C   0  0  0  0  0  0  0  0  0  0  0  0
   38.9260   29.5780   37.3980 F   0  0  0  0  0  0  0  0  0  0  0  0
   37.6190   31.4220   37.1310 F   0  0  0  0  0  0  0  0  0  0  0  0
   36.6740   29.4380   37.0110 F   0  0  0  0  0  0  0  0  0  0  0  0
   37.6160   27.3130   41.7860 C   0  0  0  0  0  3  0  0  0  0  0  0
   36.7630   26.4330   42.6360 C   0  0  0  0  0  2  0  0  0  0  0  0
   36.9960   24.9920   42.2700 C   0  0  0  0  0  2  0  0  0  0  0  0
   37.0250   25.1520   40.7710 C   0  0  0  0  0  2  0  0  0  0  0  0
   37.4940   26.5070   40.4910 C   0  0  0  0  0  2  0  0  0  0  0  0
  1  2  2  0  0  0  0
  1 10  1  0  0  0  0
  2  3  1  0  0  0  0
  3 12  1  0  0  0  0
  3  4  2  0  0  0  0
  4 13  1  0  0  0  0
  5  4  1  0  0  0  0
  5  6  1  0  0  0  0
  6 14  1  0  0  0  0
  7  6  2  0  0  0  0
  7 15  1  0  0  0  0
  8  7  1  0  0  0  0
  9 10  1  0  0  0  0
  9  8  2  0  0  0  0
 10  5  2  0  0  0  0
 11  2  1  0  0  0  0
 16  8  1  0  0  0  0
 17 23  1  0  0  0  0
 17 18  1  0  0  0  0
 18 24  1  0  0  0  0
 19 18  2  0  0  0  0
 19  1  1  0  0  0  0
 20 19  1  0  0  0  0
 21 22  1  0  0  0  0
 21 20  2  0  0  0  0
 22 17  2  0  0  0  0
 25 21  1  0  0  0  0
 26 25  1  0  0  0  0
 27 25  1  0  0  0  0
 28 25  1  0  0  0  0
 29  9  1  0  0  0  0
 29 30  1  0  0  0  0
 31 30  1  0  0  0  0
 32 31  1  0  0  0  0
 33 32  1  0  0  0  0
 33 29  1  0  0  0  0
M  END
>  <minimizedAffinity>
-6.16289902

$$$$

 OpenBabel03252500023D

 33 36  0  0  0  0  0  0  0  0999 V2000
   37.3470   27.1860   39.1030 C   0  0  0  0  0  0  0  0  0  0  0  0
   36.6080   26.9170   37.9640 C   0  0  0  0  0  0  0  0  0  0  0  0
   35.8480   25.7780   37.7710 C   0  0  0  0  0  0  0  0  0  0  0  0
   35.7990   24.8250   38.7600 C   0  0  0  0  0  0  0  0  0  0  0  0
   36.5220   25.0590   39.9140 C   0  0  0  0  0  0  0  0  0  0  0  0
   36.4550   24.1840   40.9490 C   0  0  0  0  0  0  0  0  0  0  0  0
   37.0990   24.4000   42.1430 C   0  0  0  0  0  0  0  0  0  0  0  0
   37.8340   25.5690   42.2440 C   0  0  0  0  0  0  0  0  0  0  0  0
   37.9100   26.4570   41.2010 C   0  0  0  0  0  0  0  0  0  0  0  0
   37.2600   26.2120   40.0450 C   0  0  0  0  0  0  0  0  0  0  0  0
   36.5590   27.5850   37.1120 H   0  0  0  0  0  0  0  0  0  0  0  0
   35.2770   25.5720   36.8870 H   0  0  0  0  0  0  0  0  0  0  0  0
   35.2180   23.9280   38.6420 H   0  0  0  0  0  0  0  0  0  0  0  0
   35.8560   23.2880   40.7770 H   0  0  0  0  0  0  0  0  0  0  0  0
   36.9530   23.6200   42.8740 H   0  0  0  0  0  0  0  0  0  0  0  0
   38.2590   25.5760   43.2390 H   0  0  0  0  0  0  0  0  0  0  0  0
   39.9230   29.8590   38.5990 C   0  0  0  0  0  0  0  0  0  0  0  0
   39.3490   28.6040   38.5400 C   0  0  0  0  0  0  0  0  0  0  0  0
   38.0450   28.4020   39.0830 C   0  0  0  0  0  0  0  0  0  0  0  0
   37.5330   29.5230   39.6210 N   0  0  0  0  0  0  0  0  0  0  0  0
   38.0720   30.7100   39.6780 C   0  0  0  0  0  0  0  0  0  0  0  0
   39.2850   30.8690   39.1550 N   0  0  0  0  0  0  0  0  0  0  0  0
   40.9030   29.9460   38.1710 H   0  0  0  0  0  0  0  0  0  0  0  0
   39.8220   27.7180   38.0970 H   0  0  0  0  0  0  0  0  0  0  0  0
   37.2130   31.7630   40.3040 C   0  0  0  0  0  0  0  0  0  0  0  0
   36.2320   31.2210   41.0900 F   0  0  0  0  0  0  0  0  0  0  0  0
   36.6850   32.5710   39.3150 F   0  0  0  0  0  0  0  0  0  0  0  0
   38.0350   32.6310   41.0520 F   0  0  0  0  0  0  0  0  0  0  0  0
   38.8190   27.5880   41.5240 C   0  0  0  0  0  3  0  0  0  0  0  0
   40.1930   27.0180   41.4220 C   0  0  0  0  0  2  0  0  0  0  0  0
   40.5020   26.2140   42.6560 C   0  0  0  0  0  2  0  0  0  0  0  0
   39.9220   27.1570   43.6800 C   0  0  0  0  0  2  0  0  0  0  0  0
   38.8500   27.9000   43.0220 C   0  0  0  0  0  2  0  0  0  0  0  0
  1 10  1  0  0  0  0
  2  1  2  0  0  0  0
  3  2  1  0  0  0  0
  3  4  2  0  0  0  0
  4  5  1  0  0  0  0
  5 10  2  0  0  0  0
  5  6  1  0  0  0  0
  6  7  2  0  0  0  0
  7  8  1  0  0  0  0
  7 15  1  0  0  0  0
  8 16  1  0  0  0  0
  9 29  1  0  0  0  0
  9  8  2  0  0  0  0
 10  9  1  0  0  0  0
 11  2  1  0  0  0  0
 12  3  1  0  0  0  0
 13  4  1  0  0  0  0
 14  6  1  0  0  0  0
 17 22  1  0  0  0  0
 18 17  2  0  0  0  0
 18 19  1  0  0  0  0
 19  1  1  0  0  0  0
 19 20  2  0  0  0  0
 20 21  1  0  0  0  0
 21 25  1  0  0  0  0
 22 21  2  0  0  0  0
 23 17  1  0  0  0  0
 24 18  1  0  0  0  0
 25 28  1  0  0  0  0
 25 26  1  0  0  0  0
 27 25  1  0  0  0  0
 29 33  1  0  0  0  0
 30 29  1  0  0  0  0
 30 31  1  0  0  0  0
 31 32  1  0  0  0  0
 33 32  1  0  0  0  0
M  END
>  <minimizedAffinity>
-5.98089266

$$$$

 OpenBabel03252500023D

 33 36  0  0  0  0  0  0  0  0999 V2000
   36.5540   27.0970   40.0620 C   0  0  0  0  0  0  0  0  0  0  0  0
   36.4690   25.7170   40.1000 C   0  0  0  0  0  0  0  0  0  0  0  0
   36.9140   24.9300   41.1470 C   0  0  0  0  0  0  0  0  0  0  0  0
   37.4850   25.5290   42.2450 C   0  0  0  0  0  0  0  0  0  0  0  0
   37.5860   26.9070   42.2440 C   0  0  0  0  0  0  0  0  0  0  0  0
   38.0800   27.5540   43.3310 C   0  0  0  0  0  0  0  0  0  0  0  0
   38.1390   28.9240   43.4120 C   0  0  0  0  0  0  0  0  0  0  0  0
   37.6690   29.6270   42.3160 C   0  0  0  0  0  0  0  0  0  0  0  0
   37.1730   28.9800   41.2120 C   0  0  0  0  0  0  0  0  0  0  0  0
   37.1250   27.6330   41.1710 C   0  0  0  0  0  0  0  0  0  0  0  0
   36.0390   25.1230   39.3020 H   0  0  0  0  0  0  0  0  0  0  0  0
   36.8470   23.8600   41.1730 H   0  0  0  0  0  0  0  0  0  0  0  0
   37.8420   24.9470   43.0750 H   0  0  0  0  0  0  0  0  0  0  0  0
   38.4320   26.9180   44.1440 H   0  0  0  0  0  0  0  0  0  0  0  0
   38.5530   29.2970   44.3360 H   0  0  0  0  0  0  0  0  0  0  0  0
   37.7850   30.6750   42.5550 H   0  0  0  0  0  0  0  0  0  0  0  0
   34.3920   28.8690   37.5670 C   0  0  0  0  0  0  0  0  0  0  0  0
   34.7750   28.3350   38.7830 C   0  0  0  0  0  0  0  0  0  0  0  0
   36.0420   27.6910   38.9000 C   0  0  0  0  0  0  0  0  0  0  0  0
   36.7220   27.6800   37.7400 N   0  0  0  0  0  0  0  0  0  0  0  0
   36.3650   28.1840   36.5900 C   0  0  0  0  0  0  0  0  0  0  0  0
   35.1810   28.7860   36.5150 N   0  0  0  0  0  0  0  0  0  0  0  0
   33.4300   29.3410   37.5450 H   0  0  0  0  0  0  0  0  0  0  0  0
   34.1690   28.3630   39.6980 H   0  0  0  0  0  0  0  0  0  0  0  0
   37.3790   28.0460   35.4980 C   0  0  0  0  0  0  0  0  0  0  0  0
   37.1050   28.8670   34.4380 F   0  0  0  0  0  0  0  0  0  0  0  0
   37.4560   26.7210   35.1100 F   0  0  0  0  0  0  0  0  0  0  0  0
   38.6550   28.3200   36.0310 F   0  0  0  0  0  0  0  0  0  0  0  0
   36.8070   29.9470   40.1430 C   0  0  0  0  0  3  0  0  0  0  0  0
   38.0870   30.2430   39.4390 C   0  0  0  0  0  2  0  0  0  0  0  0
   38.9020   31.2130   40.2520 C   0  0  0  0  0  2  0  0  0  0  0  0
   37.7880   32.1430   40.6590 C   0  0  0  0  0  2  0  0  0  0  0  0
   36.5580   31.3540   40.6910 C   0  0  0  0  0  2  0  0  0  0  0  0
  1  2  2  0  0  0  0
  1 10  1  0  0  0  0
  2  3  1  0  0  0  0
  3 12  1  0  0  0  0
  3  4  2  0  0  0  0
  4 13  1  0  0  0  0
  5  4  1  0  0  0  0
  5  6  1  0  0  0  0
  6  7  2  0  0  0  0
  6 14  1  0  0  0  0
  7 15  1  0  0  0  0
  8 16  1  0  0  0  0
  8  7  1  0  0  0  0
  9  8  2  0  0  0  0
 10  9  1  0  0  0  0
 10  5  2  0  0  0  0
 11  2  1  0  0  0  0
 17 18  1  0  0  0  0
 18 19  2  0  0  0  0
 18 24  1  0  0  0  0
 19  1  1  0  0  0  0
 20 19  1  0  0  0  0
 21 20  2  0  0  0  0
 22 21  1  0  0  0  0
 22 17  2  0  0  0  0
 23 17  1  0  0  0  0
 25 28  1  0  0  0  0
 25 21  1  0  0  0  0
 26 25  1  0  0  0  0
 27 25  1  0  0  0  0
 29 33  1  0  0  0  0
 29  9  1  0  0  0  0
 30 29  1  0  0  0  0
 30 31  1  0  0  0  0
 31 32  1  0  0  0  0
 32 33  1  0  0  0  0
M  END
>  <minimizedAffinity>
-5.97968578

$$$$

 OpenBabel03252500023D

 33 36  0  0  0  0  0  0  0  0999 V2000
   37.4130   26.5980   41.0780 C   0  0  0  0  0  0  0  0  0  0  0  0
   36.7740   25.3980   40.8210 C   0  0  0  0  0  0  0  0  0  0  0  0
   37.1630   24.1740   41.3350 C   0  0  0  0  0  0  0  0  0  0  0  0
   38.2580   24.1090   42.1640 C   0  0  0  0  0  0  0  0  0  0  0  0
   38.9210   25.2880   42.4450 C   0  0  0  0  0  0  0  0  0  0  0  0
   39.9670   25.2910   43.3110 C   0  0  0  0  0  0  0  0  0  0  0  0
   40.6180   26.4430   43.6800 C   0  0  0  0  0  0  0  0  0  0  0  0
   40.1570   27.6190   43.1160 C   0  0  0  0  0  0  0  0  0  0  0  0
   39.1040   27.6240   42.2350 C   0  0  0  0  0  0  0  0  0  0  0  0
   38.4850   26.4730   41.9020 C   0  0  0  0  0  0  0  0  0  0  0  0
   35.9000   25.3110   40.1870 H   0  0  0  0  0  0  0  0  0  0  0  0
   36.6670   23.2460   41.1340 H   0  0  0  0  0  0  0  0  0  0  0  0
   38.5870   23.1740   42.5800 H   0  0  0  0  0  0  0  0  0  0  0  0
   40.2640   24.3160   43.7020 H   0  0  0  0  0  0  0  0  0  0  0  0
   41.4280   26.2910   44.3770 H   0  0  0  0  0  0  0  0  0  0  0  0
   40.7730   28.4110   43.5170 H   0  0  0  0  0  0  0  0  0  0  0  0
   35.3950   29.6520   40.2780 C   0  0  0  0  0  0  0  0  0  0  0  0
   35.8750   28.5890   41.0200 C   0  0  0  0  0  0  0  0  0  0  0  0
   36.8480   27.7170   40.4490 C   0  0  0  0  0  0  0  0  0  0  0  0
   37.1720   28.0620   39.1900 N   0  0  0  0  0  0  0  0  0  0  0  0
   36.7220   29.0650   38.4870 C   0  0  0  0  0  0  0  0  0  0  0  0
   35.8210   29.8650   39.0500 N   0  0  0  0  0  0  0  0  0  0  0  0
   34.6670   30.2710   40.7640 H   0  0  0  0  0  0  0  0  0  0  0  0
   35.5630   28.3490   42.0450 H   0  0  0  0  0  0  0  0  0  0  0  0
   37.3260   29.2000   37.1240 C   0  0  0  0  0  0  0  0  0  0  0  0
   38.6830   29.0230   37.1470 F   0  0  0  0  0  0  0  0  0  0  0  0
   36.9810   30.4280   36.5900 F   0  0  0  0  0  0  0  0  0  0  0  0
   36.7110   28.2680   36.2630 F   0  0  0  0  0  0  0  0  0  0  0  0
   38.8490   28.9910   41.7100 C   0  0  0  0  0  3  0  0  0  0  0  0
   39.9710   29.2530   40.7620 C   0  0  0  0  0  2  0  0  0  0  0  0
   41.2140   29.6110   41.5320 C   0  0  0  0  0  2  0  0  0  0  0  0
   40.5810   30.5230   42.5520 C   0  0  0  0  0  2  0  0  0  0  0  0
   39.1990   30.0800   42.7270 C   0  0  0  0  0  2  0  0  0  0  0  0
  1 10  1  0  0  0  0
  2  1  2  0  0  0  0
  2  3  1  0  0  0  0
  3  4  2  0  0  0  0
  4  5  1  0  0  0  0
  4 13  1  0  0  0  0
  5  6  1  0  0  0  0
  6  7  2  0  0  0  0
  6 14  1  0  0  0  0
  7 15  1  0  0  0  0
  8 16  1  0  0  0  0
  8  7  1  0  0  0  0
  9  8  2  0  0  0  0
 10  9  1  0  0  0  0
 10  5  2  0  0  0  0
 11  2  1  0  0  0  0
 12  3  1  0  0  0  0
 17 23  1  0  0  0  0
 17 18  1  0  0  0  0
 18 24  1  0  0  0  0
 19 18  2  0  0  0  0
 19  1  1  0  0  0  0
 20 19  1  0  0  0  0
 21 22  1  0  0  0  0
 21 20  2  0  0  0  0
 22 17  2  0  0  0  0
 25 26  1  0  0  0  0
 25 21  1  0  0  0  0
 27 25  1  0  0  0  0
 28 25  1  0  0  0  0
 29  9  1  0  0  0  0
 29 33  1  0  0  0  0
 30 31  1  0  0  0  0
 30 29  1  0  0  0  0
 31 32  1  0  0  0  0
 32 33  1  0  0  0  0
M  END
>  <minimizedAffinity>
-5.93924284

$$$$

 OpenBabel03252500023D

 33 36  0  0  0  0  0  0  0  0999 V2000
   37.4250   25.8700   41.2620 C   0  0  0  0  0  0  0  0  0  0  0  0
   37.8050   24.6690   41.8350 C   0  0  0  0  0  0  0  0  0  0  0  0
   37.5580   23.4230   41.2870 C   0  0  0  0  0  0  0  0  0  0  0  0
   36.8910   23.3350   40.0870 C   0  0  0  0  0  0  0  0  0  0  0  0
   36.4970   24.5140   39.4840 C   0  0  0  0  0  0  0  0  0  0  0  0
   35.8960   24.4880   38.2670 C   0  0  0  0  0  0  0  0  0  0  0  0
   35.5450   25.6310   37.5910 C   0  0  0  0  0  0  0  0  0  0  0  0
   35.8340   26.8310   38.2180 C   0  0  0  0  0  0  0  0  0  0  0  0
   36.4380   26.8660   39.4510 C   0  0  0  0  0  0  0  0  0  0  0  0
   36.7720   25.7210   40.0810 C   0  0  0  0  0  0  0  0  0  0  0  0
   38.3380   24.5970   42.7760 H   0  0  0  0  0  0  0  0  0  0  0  0
   37.8530   22.4940   41.7320 H   0  0  0  0  0  0  0  0  0  0  0  0
   36.6820   22.3830   39.6340 H   0  0  0  0  0  0  0  0  0  0  0  0
   35.7030   23.4970   37.8520 H   0  0  0  0  0  0  0  0  0  0  0  0
   35.0780   25.4560   36.6350 H   0  0  0  0  0  0  0  0  0  0  0  0
   35.5000   27.6120   37.5490 H   0  0  0  0  0  0  0  0  0  0  0  0
   37.4760   28.7350   43.6760 C   0  0  0  0  0  0  0  0  0  0  0  0
   37.0110   27.5950   43.0460 C   0  0  0  0  0  0  0  0  0  0  0  0
   37.7770   27.0120   41.9940 C   0  0  0  0  0  0  0  0  0  0  0  0
   38.9040   27.7000   41.7370 N   0  0  0  0  0  0  0  0  0  0  0  0
   39.3470   28.7750   42.3290 C   0  0  0  0  0  0  0  0  0  0  0  0
   38.6140   29.2910   43.3130 N   0  0  0  0  0  0  0  0  0  0  0  0
   36.8560   29.1220   44.4600 H   0  0  0  0  0  0  0  0  0  0  0  0
   36.0720   27.0820   43.2930 H   0  0  0  0  0  0  0  0  0  0  0  0
   40.6700   29.2690   41.8340 C   0  0  0  0  0  0  0  0  0  0  0  0
   41.3240   30.0140   42.7770 F   0  0  0  0  0  0  0  0  0  0  0  0
   40.4840   29.9790   40.6630 F   0  0  0  0  0  0  0  0  0  0  0  0
   41.4470   28.1600   41.4410 F   0  0  0  0  0  0  0  0  0  0  0  0
   36.5690   28.2610   39.9450 C   0  0  0  0  0  3  0  0  0  0  0  0
   35.1680   28.7410   40.1150 C   0  0  0  0  0  2  0  0  0  0  0  0
   34.5890   29.1060   38.7740 C   0  0  0  0  0  2  0  0  0  0  0  0
   35.7900   29.8180   38.2070 C   0  0  0  0  0  2  0  0  0  0  0  0
   36.9730   29.2360   38.8370 C   0  0  0  0  0  2  0  0  0  0  0  0
  1  2  1  0  0  0  0
  1 19  1  0  0  0  0
  2 11  1  0  0  0  0
  3 12  1  0  0  0  0
  3  2  2  0  0  0  0
  4  3  1  0  0  0  0
  5 10  1  0  0  0  0
  5  4  2  0  0  0  0
  6  5  1  0  0  0  0
  7  8  1  0  0  0  0
  7  6  2  0  0  0  0
  8  9  2  0  0  0  0
  9 29  1  0  0  0  0
  9 10  1  0  0  0  0
 10  1  2  0  0  0  0
 13  4  1  0  0  0  0
 14  6  1  0  0  0  0
 15  7  1  0  0  0  0
 16  8  1  0  0  0  0
 17 23  1  0  0  0  0
 18 24  1  0  0  0  0
 18 17  2  0  0  0  0
 19 18  1  0  0  0  0
 20 19  2  0  0  0  0
 20 21  1  0  0  0  0
 21 22  2  0  0  0  0
 22 17  1  0  0  0  0
 25 21  1  0  0  0  0
 25 26  1  0  0  0  0
 27 25  1  0  0  0  0
 28 25  1  0  0  0  0
 29 30  1  0  0  0  0
 31 30  1  0  0  0  0
 32 31  1  0  0  0  0
 32 33  1  0  0  0  0
 33 29  1  0  0  0  0
M  END
>  <minimizedAffinity>
-5.90718794

$$$$

 OpenBabel03252500023D

 33 36  0  0  0  0  0  0  0  0999 V2000
   37.6410   29.0700   41.3680 C   0  0  0  0  0  0  0  0  0  0  0  0
   37.9770   29.2860   42.6930 C   0  0  0  0  0  0  0  0  0  0  0  0
   37.9630   28.3140   43.6760 C   0  0  0  0  0  0  0  0  0  0  0  0
   37.5960   27.0300   43.3490 C   0  0  0  0  0  0  0  0  0  0  0  0
   37.2550   26.7750   42.0350 C   0  0  0  0  0  0  0  0  0  0  0  0
   36.9490   25.5110   41.6440 C   0  0  0  0  0  0  0  0  0  0  0  0
   36.6700   25.1880   40.3380 C   0  0  0  0  0  0  0  0  0  0  0  0
   36.7110   26.2270   39.4250 C   0  0  0  0  0  0  0  0  0  0  0  0
   37.0130   27.5090   39.8130 C   0  0  0  0  0  0  0  0  0  0  0  0
   37.2880   27.7860   41.1040 C   0  0  0  0  0  0  0  0  0  0  0  0
   38.2860   30.2490   43.0810 H   0  0  0  0  0  0  0  0  0  0  0  0
   38.2230   28.4840   44.7020 H   0  0  0  0  0  0  0  0  0  0  0  0
   37.5730   26.2510   44.0890 H   0  0  0  0  0  0  0  0  0  0  0  0
   36.9370   24.7580   42.4340 H   0  0  0  0  0  0  0  0  0  0  0  0
   36.4480   24.1450   40.1760 H   0  0  0  0  0  0  0  0  0  0  0  0
   36.4750   25.7950   38.4620 H   0  0  0  0  0  0  0  0  0  0  0  0
   36.9490   32.2860   39.5750 C   0  0  0  0  0  0  0  0  0  0  0  0
   36.7410   31.2300   40.4420 C   0  0  0  0  0  0  0  0  0  0  0  0
   37.7230   30.2000   40.5440 C   0  0  0  0  0  0  0  0  0  0  0  0
   38.7700   30.4060   39.7240 N   0  0  0  0  0  0  0  0  0  0  0  0
   38.9700   31.4020   38.9050 C   0  0  0  0  0  0  0  0  0  0  0  0
   38.0400   32.3510   38.8390 N   0  0  0  0  0  0  0  0  0  0  0  0
   36.1760   33.0280   39.5470 H   0  0  0  0  0  0  0  0  0  0  0  0
   35.8570   31.1080   41.0810 H   0  0  0  0  0  0  0  0  0  0  0  0
   40.2700   31.3570   38.1640 C   0  0  0  0  0  0  0  0  0  0  0  0
   41.3390   31.5510   38.9970 F   0  0  0  0  0  0  0  0  0  0  0  0
   40.2460   32.2860   37.1410 F   0  0  0  0  0  0  0  0  0  0  0  0
   40.3680   30.1180   37.4990 F   0  0  0  0  0  0  0  0  0  0  0  0
   36.9150   28.4530   38.6690 C   0  0  0  0  0  3  0  0  0  0  0  0
   35.4520   28.6130   38.4290 C   0  0  0  0  0  2  0  0  0  0  0  0
   34.9250   27.4150   37.6850 C   0  0  0  0  0  2  0  0  0  0  0  0
   36.0530   27.2600   36.6980 C   0  0  0  0  0  2  0  0  0  0  0  0
   37.2580   27.7890   37.3340 C   0  0  0  0  0  2  0  0  0  0  0  0
  1  2  1  0  0  0  0
  2 11  1  0  0  0  0
  2  3  2  0  0  0  0
  3 12  1  0  0  0  0
  4  3  1  0  0  0  0
  4 13  1  0  0  0  0
  5  4  2  0  0  0  0
  6  5  1  0  0  0  0
  6 14  1  0  0  0  0
  7  6  2  0  0  0  0
  8  9  2  0  0  0  0
  8  7  1  0  0  0  0
  9 10  1  0  0  0  0
 10  1  2  0  0  0  0
 10  5  1  0  0  0  0
 15  7  1  0  0  0  0
 16  8  1  0  0  0  0
 17 18  1  0  0  0  0
 18 19  2  0  0  0  0
 18 24  1  0  0  0  0
 19  1  1  0  0  0  0
 20 19  1  0  0  0  0
 21 20  2  0  0  0  0
 22 21  1  0  0  0  0
 22 17  2  0  0  0  0
 23 17  1  0  0  0  0
 25 21  1  0  0  0  0
 25 26  1  0  0  0  0
 27 25  1  0  0  0  0
 28 25  1  0  0  0  0
 29  9  1  0  0  0  0
 30 29  1  0  0  0  0
 31 30  1  0  0  0  0
 32 33  1  0  0  0  0
 32 31  1  0  0  0  0
 33 29  1  0  0  0  0
M  END
>  <minimizedAffinity>
-5.88451338

$$$$

 OpenBabel03252500023D

 33 36  0  0  0  0  0  0  0  0999 V2000
   39.8280   29.1990   41.8610 C   0  0  0  0  0  0  0  0  0  0  0  0
   40.9340   28.9740   42.6620 C   0  0  0  0  0  0  0  0  0  0  0  0
   41.1190   27.8520   43.4490 C   0  0  0  0  0  0  0  0  0  0  0  0
   40.1570   26.8700   43.4600 C   0  0  0  0  0  0  0  0  0  0  0  0
   39.0370   27.0590   42.6710 C   0  0  0  0  0  0  0  0  0  0  0  0
   38.0890   26.0910   42.5930 C   0  0  0  0  0  0  0  0  0  0  0  0
   36.9920   26.1970   41.7730 C   0  0  0  0  0  0  0  0  0  0  0  0
   36.8930   27.3550   41.0210 C   0  0  0  0  0  0  0  0  0  0  0  0
   37.8450   28.3400   41.0990 C   0  0  0  0  0  0  0  0  0  0  0  0
   38.9120   28.1980   41.9120 C   0  0  0  0  0  0  0  0  0  0  0  0
   41.7640   29.6660   42.7420 H   0  0  0  0  0  0  0  0  0  0  0  0
   41.9760   27.6790   44.0680 H   0  0  0  0  0  0  0  0  0  0  0  0
   40.2690   25.9860   44.0600 H   0  0  0  0  0  0  0  0  0  0  0  0
   38.2480   25.2160   43.2240 H   0  0  0  0  0  0  0  0  0  0  0  0
   36.3240   25.3500   41.8130 H   0  0  0  0  0  0  0  0  0  0  0  0
   35.9850   27.2640   40.4400 H   0  0  0  0  0  0  0  0  0  0  0  0
   39.4540   32.7780   40.8160 C   0  0  0  0  0  0  0  0  0  0  0  0
   39.3840   31.6660   41.6340 C   0  0  0  0  0  0  0  0  0  0  0  0
   39.8480   30.4070   41.1500 C   0  0  0  0  0  0  0  0  0  0  0  0
   40.3020   30.4780   39.8860 N   0  0  0  0  0  0  0  0  0  0  0  0
   40.3700   31.5260   39.1100 C   0  0  0  0  0  0  0  0  0  0  0  0
   39.9380   32.6870   39.5930 N   0  0  0  0  0  0  0  0  0  0  0  0
   39.0930   33.6940   41.2390 H   0  0  0  0  0  0  0  0  0  0  0  0
   38.9910   31.6660   42.6590 H   0  0  0  0  0  0  0  0  0  0  0  0
   40.9760   31.2750   37.7650 C   0  0  0  0  0  0  0  0  0  0  0  0
   40.6380   30.0430   37.2730 F   0  0  0  0  0  0  0  0  0  0  0  0
   42.3470   31.4330   37.8440 F   0  0  0  0  0  0  0  0  0  0  0  0
   40.5650   32.2980   36.8870 F   0  0  0  0  0  0  0  0  0  0  0  0
   37.4760   29.5110   40.2610 C   0  0  0  0  0  3  0  0  0  0  0  0
   36.1990   30.0140   40.8460 C   0  0  0  0  0  2  0  0  0  0  0  0
   35.0570   29.1390   40.4020 C   0  0  0  0  0  2  0  0  0  0  0  0
   35.4590   28.9770   38.9580 C   0  0  0  0  0  2  0  0  0  0  0  0
   36.9140   29.0980   38.8990 C   0  0  0  0  0  2  0  0  0  0  0  0
  1 10  2  0  0  0  0
  1  2  1  0  0  0  0
  2 11  1  0  0  0  0
  2  3  2  0  0  0  0
  3  4  1  0  0  0  0
  3 12  1  0  0  0  0
  4 13  1  0  0  0  0
  5  4  2  0  0  0  0
  6  5  1  0  0  0  0
  6 14  1  0  0  0  0
  7 15  1  0  0  0  0
  7  6  2  0  0  0  0
  8  9  2  0  0  0  0
  8  7  1  0  0  0  0
  9 10  1  0  0  0  0
 10  5  1  0  0  0  0
 16  8  1  0  0  0  0
 17 23  1  0  0  0  0
 17 18  1  0  0  0  0
 18 24  1  0  0  0  0
 19 18  2  0  0  0  0
 19  1  1  0  0  0  0
 20 19  1  0  0  0  0
 21 22  1  0  0  0  0
 21 20  2  0  0  0  0
 22 17  2  0  0  0  0
 25 27  1  0  0  0  0
 25 21  1  0  0  0  0
 26 25  1  0  0  0  0
 28 25  1  0  0  0  0
 29 30  1  0  0  0  0
 29  9  1  0  0  0  0
 31 30  1  0  0  0  0
 32 31  1  0  0  0  0
 33 32  1  0  0  0  0
 33 29  1  0  0  0  0
M  END
>  <minimizedAffinity>
-5.87379646

$$$$
