
 OpenBabel03252507213D

 40 43  0  0  1  0  0  0  0  0999 V2000
   39.0060   29.0390   40.4970 C   0  0  0  0  0  0  0  0  0  0  0  0
   39.5620   28.5160   39.4970 O   0  0  0  0  0  0  0  0  0  0  0  0
   38.4700   28.2960   41.6080 N   0  0  0  0  0  0  0  0  0  0  0  0
   38.6010   28.5390   43.0330 C   0  0  0  0  0  0  0  0  0  0  0  0
   37.2040   28.5340   43.6800 C   0  0  0  0  0  0  0  0  0  0  0  0
   36.5810   27.1650   43.5240 C   0  0  0  0  0  0  0  0  0  0  0  0
   37.4040   26.3690   42.5490 C   0  0  0  0  0  0  0  0  0  0  0  0
   37.6720   27.1490   41.2830 C   0  0  2  0  0  0  0  0  0  0  0  0
   38.8810   29.6340   43.1020 H   0  0  0  0  0  0  0  0  0  0  0  0
   39.3120   27.9060   43.5500 H   0  0  0  0  0  0  0  0  0  0  0  0
   37.3700   28.7970   44.7360 H   0  0  0  0  0  0  0  0  0  0  0  0
   36.5850   29.2530   43.1150 H   0  0  0  0  0  0  0  0  0  0  0  0
   36.5970   26.6100   44.4950 H   0  0  0  0  0  0  0  0  0  0  0  0
   35.5120   27.2200   43.2080 H   0  0  0  0  0  0  0  0  0  0  0  0
   38.3700   26.1450   43.0850 H   0  0  0  0  0  0  0  0  0  0  0  0
   36.9080   25.4170   42.4270 H   0  0  0  0  0  0  0  0  0  0  0  0
   36.6900   27.5360   40.9570 H   0  0  0  0  0  0  0  0  0  0  0  0
   40.0090   31.2140   41.0230 C   0  0  0  0  0  0  0  0  0  0  0  0
   38.9040   30.4800   40.5230 C   0  0  0  0  0  0  0  0  0  0  0  0
   37.7890   31.1510   40.0900 C   0  0  0  0  0  0  0  0  0  0  0  0
   37.7790   32.5000   40.1530 N   0  0  0  0  0  0  0  0  0  0  0  0
   38.8260   33.2180   40.6270 C   0  0  0  0  0  0  0  0  0  0  0  0
   39.9230   32.5590   41.0550 N   0  0  0  0  0  0  0  0  0  0  0  0
   40.8910   30.6930   41.3670 H   0  0  0  0  0  0  0  0  0  0  0  0
   38.7880   34.2990   40.6650 H   0  0  0  0  0  0  0  0  0  0  0  0
   36.6670   30.3860   39.5850 C   0  0  0  0  0  0  0  0  0  0  0  0
   35.6580   30.0120   40.4230 C   0  0  0  0  0  0  0  0  0  0  0  0
   34.6000   29.2860   39.9290 C   0  0  0  0  0  0  0  0  0  0  0  0
   34.5020   28.9100   38.6100 C   0  0  0  0  0  0  0  0  0  0  0  0
   35.5440   29.3110   37.8030 C   0  0  0  0  0  0  0  0  0  0  0  0
   36.5620   30.0180   38.3130 N   0  0  0  0  0  0  0  0  0  0  0  0
   35.5960   30.2280   41.4760 H   0  0  0  0  0  0  0  0  0  0  0  0
   33.7650   28.9650   40.5720 H   0  0  0  0  0  0  0  0  0  0  0  0
   33.6680   28.3390   38.2250 H   0  0  0  0  0  0  0  0  0  0  0  0
   35.4890   29.0240   36.7520 H   0  0  0  0  0  0  0  0  0  0  0  0
   38.1720   26.2680   40.1960 C   0  0  0  0  0  3  0  0  0  0  0  0
   38.5860   24.8950   40.5400 C   0  0  0  0  0  2  0  0  0  0  0  0
   38.6700   24.2420   39.1500 C   0  0  0  0  0  2  0  0  0  0  0  0
   37.8920   25.1590   38.2100 C   0  0  0  0  0  2  0  0  0  0  0  0
   37.0480   25.9510   39.2270 C   0  0  0  0  0  2  0  0  0  0  0  0
  1 19  1  0  0  0  0
  1  3  1  0  0  0  0
  2  1  2  0  0  0  0
  3  4  1  0  0  0  0
  4  9  1  0  0  0  0
  4 10  1  0  0  0  0
  4  5  1  0  0  0  0
  5 11  1  0  0  0  0
  6  5  1  0  0  0  0
  6 13  1  0  0  0  0
  7 15  1  0  0  0  0
  7  6  1  0  0  0  0
  8 17  1  6  0  0  0
  8  3  1  0  0  0  0
  8  7  1  0  0  0  0
 12  5  1  0  0  0  0
 14  6  1  0  0  0  0
 16  7  1  0  0  0  0
 18 23  1  0  0  0  0
 18 24  1  0  0  0  0
 19 18  2  0  0  0  0
 20 21  2  0  0  0  0
 20 19  1  0  0  0  0
 21 22  1  0  0  0  0
 22 25  1  0  0  0  0
 22 23  2  0  0  0  0
 26 20  1  0  0  0  0
 26 27  1  0  0  0  0
 27 32  1  0  0  0  0
 28 27  2  0  0  0  0
 28 33  1  0  0  0  0
 29 28  1  0  0  0  0
 30 31  1  0  0  0  0
 30 29  2  0  0  0  0
 31 26  2  0  0  0  0
 34 29  1  0  0  0  0
 35 30  1  0  0  0  0
 36 37  1  0  0  0  0
 36  8  1  0  0  0  0
 38 37  1  0  0  0  0
 39 38  1  0  0  0  0
 39 40  1  0  0  0  0
 40 36  1  0  0  0  0
M  END
>  <minimizedAffinity>
-6.03143978

$$$$

 OpenBabel03252507213D

 40 43  0  0  1  0  0  0  0  0999 V2000
   39.0980   29.2580   39.8600 C   0  0  0  0  0  0  0  0  0  0  0  0
   38.6850   28.2850   39.1790 O   0  0  0  0  0  0  0  0  0  0  0  0
   38.4400   30.5370   39.9310 N   0  0  0  0  0  0  0  0  0  0  0  0
   38.1560   31.3680   41.0860 C   0  0  0  0  0  0  0  0  0  0  0  0
   38.6670   32.7960   40.8220 C   0  0  0  0  0  0  0  0  0  0  0  0
   37.9130   33.3940   39.6560 C   0  0  0  0  0  0  0  0  0  0  0  0
   37.1360   32.3030   38.9740 C   0  0  0  0  0  0  0  0  0  0  0  0
   38.0050   31.1000   38.6860 C   0  0  2  0  0  0  0  0  0  0  0  0
   38.8850   31.0070   41.8730 H   0  0  0  0  0  0  0  0  0  0  0  0
   37.1330   31.3400   41.4390 H   0  0  0  0  0  0  0  0  0  0  0  0
   38.4890   33.3480   41.7590 H   0  0  0  0  0  0  0  0  0  0  0  0
   39.7280   32.7100   40.5300 H   0  0  0  0  0  0  0  0  0  0  0  0
   37.1710   34.1520   40.0100 H   0  0  0  0  0  0  0  0  0  0  0  0
   38.5890   33.9240   38.9420 H   0  0  0  0  0  0  0  0  0  0  0  0
   36.3100   32.0290   39.6920 H   0  0  0  0  0  0  0  0  0  0  0  0
   36.6470   32.7530   38.1220 H   0  0  0  0  0  0  0  0  0  0  0  0
   38.9090   31.4960   38.1900 H   0  0  0  0  0  0  0  0  0  0  0  0
   41.5150   29.6050   40.0890 C   0  0  0  0  0  0  0  0  0  0  0  0
   40.3130   29.0700   40.6180 C   0  0  0  0  0  0  0  0  0  0  0  0
   40.3440   28.3990   41.8140 C   0  0  0  0  0  0  0  0  0  0  0  0
   41.5250   28.2670   42.4540 N   0  0  0  0  0  0  0  0  0  0  0  0
   42.6830   28.7720   41.9640 C   0  0  0  0  0  0  0  0  0  0  0  0
   42.6560   29.4320   40.7870 N   0  0  0  0  0  0  0  0  0  0  0  0
   41.5000   30.1350   39.1470 H   0  0  0  0  0  0  0  0  0  0  0  0
   43.6150   28.6500   42.5000 H   0  0  0  0  0  0  0  0  0  0  0  0
   39.1080   27.8550   42.3400 C   0  0  0  0  0  0  0  0  0  0  0  0
   38.3380   28.5940   43.1880 C   0  0  0  0  0  0  0  0  0  0  0  0
   37.1680   28.0650   43.6790 C   0  0  0  0  0  0  0  0  0  0  0  0
   36.7240   26.8050   43.3550 C   0  0  0  0  0  0  0  0  0  0  0  0
   37.5340   26.0960   42.4940 C   0  0  0  0  0  0  0  0  0  0  0  0
   38.6690   26.6390   42.0330 N   0  0  0  0  0  0  0  0  0  0  0  0
   38.5550   29.5900   43.5350 H   0  0  0  0  0  0  0  0  0  0  0  0
   36.5180   28.6280   44.3660 H   0  0  0  0  0  0  0  0  0  0  0  0
   35.8030   26.3910   43.7420 H   0  0  0  0  0  0  0  0  0  0  0  0
   37.2030   25.0940   42.2220 H   0  0  0  0  0  0  0  0  0  0  0  0
   37.3530   30.1760   37.7210 C   0  0  0  0  0  3  0  0  0  0  0  0
   35.9610   29.7620   37.9770 C   0  0  0  0  0  2  0  0  0  0  0  0
   35.5690   29.1510   36.6220 C   0  0  0  0  0  2  0  0  0  0  0  0
   36.6010   29.6590   35.6190 C   0  0  0  0  0  2  0  0  0  0  0  0
   37.1610   30.8720   36.3860 C   0  0  0  0  0  2  0  0  0  0  0  0
  1  3  1  0  0  0  0
  1 19  1  0  0  0  0
  2  1  2  0  0  0  0
  3  4  1  0  0  0  0
  4 10  1  0  0  0  0
  4  9  1  0  0  0  0
  5  4  1  0  0  0  0
  5 11  1  0  0  0  0
  6 13  1  0  0  0  0
  6  5  1  0  0  0  0
  7  6  1  0  0  0  0
  7 15  1  0  0  0  0
  8 17  1  6  0  0  0
  8  7  1  0  0  0  0
  8  3  1  0  0  0  0
 12  5  1  0  0  0  0
 14  6  1  0  0  0  0
 16  7  1  0  0  0  0
 18 19  2  0  0  0  0
 18 23  1  0  0  0  0
 19 20  1  0  0  0  0
 20 26  1  0  0  0  0
 20 21  2  0  0  0  0
 22 21  1  0  0  0  0
 22 25  1  0  0  0  0
 23 22  2  0  0  0  0
 24 18  1  0  0  0  0
 26 27  1  0  0  0  0
 27 32  1  0  0  0  0
 27 28  2  0  0  0  0
 28 33  1  0  0  0  0
 29 28  1  0  0  0  0
 29 34  1  0  0  0  0
 30 29  2  0  0  0  0
 31 26  2  0  0  0  0
 31 30  1  0  0  0  0
 35 30  1  0  0  0  0
 36 37  1  0  0  0  0
 36  8  1  0  0  0  0
 38 37  1  0  0  0  0
 39 40  1  0  0  0  0
 39 38  1  0  0  0  0
 40 36  1  0  0  0  0
M  END
>  <minimizedAffinity>
-5.60169744

$$$$

 OpenBabel03252507213D

 40 43  0  0  1  0  0  0  0  0999 V2000
   39.5210   28.0600   39.7230 C   0  0  0  0  0  0  0  0  0  0  0  0
   39.6210   26.9940   39.0630 O   0  0  0  0  0  0  0  0  0  0  0  0
   39.1920   28.1190   41.1240 N   0  0  0  0  0  0  0  0  0  0  0  0
   39.7950   28.9060   42.1830 C   0  0  0  0  0  0  0  0  0  0  0  0
   38.6920   29.6660   42.9420 C   0  0  0  0  0  0  0  0  0  0  0  0
   37.7630   28.6750   43.6070 C   0  0  0  0  0  0  0  0  0  0  0  0
   38.0570   27.3030   43.0680 C   0  0  0  0  0  0  0  0  0  0  0  0
   38.0990   27.2980   41.5570 C   0  0  2  0  0  0  0  0  0  0  0  0
   40.3190   29.7490   41.6380 H   0  0  0  0  0  0  0  0  0  0  0  0
   40.4690   28.3670   42.8380 H   0  0  0  0  0  0  0  0  0  0  0  0
   39.2220   30.2950   43.6750 H   0  0  0  0  0  0  0  0  0  0  0  0
   38.1090   30.2240   42.1900 H   0  0  0  0  0  0  0  0  0  0  0  0
   37.9450   28.6400   44.7100 H   0  0  0  0  0  0  0  0  0  0  0  0
   36.6890   28.9480   43.4720 H   0  0  0  0  0  0  0  0  0  0  0  0
   39.0640   27.0240   43.4910 H   0  0  0  0  0  0  0  0  0  0  0  0
   37.3480   26.6290   43.5270 H   0  0  0  0  0  0  0  0  0  0  0  0
   37.1770   27.8100   41.2300 H   0  0  0  0  0  0  0  0  0  0  0  0
   41.0940   29.6370   38.6970 C   0  0  0  0  0  0  0  0  0  0  0  0
   39.7560   29.3010   39.0210 C   0  0  0  0  0  0  0  0  0  0  0  0
   38.7420   30.1540   38.6670 C   0  0  0  0  0  0  0  0  0  0  0  0
   39.0520   31.2950   38.0150 N   0  0  0  0  0  0  0  0  0  0  0  0
   40.3250   31.6320   37.6950 C   0  0  0  0  0  0  0  0  0  0  0  0
   41.3240   30.7940   38.0440 N   0  0  0  0  0  0  0  0  0  0  0  0
   41.8990   28.9710   38.9730 H   0  0  0  0  0  0  0  0  0  0  0  0
   40.5420   32.5530   37.1720 H   0  0  0  0  0  0  0  0  0  0  0  0
   37.3790   29.7980   39.0090 C   0  0  0  0  0  0  0  0  0  0  0  0
   36.6640   28.9630   38.2020 C   0  0  0  0  0  0  0  0  0  0  0  0
   35.3720   28.6350   38.5400 C   0  0  0  0  0  0  0  0  0  0  0  0
   34.7510   29.1120   39.6700 C   0  0  0  0  0  0  0  0  0  0  0  0
   35.5130   29.9510   40.4540 C   0  0  0  0  0  0  0  0  0  0  0  0
   36.7700   30.2530   40.0980 N   0  0  0  0  0  0  0  0  0  0  0  0
   37.0110   28.5150   37.2870 H   0  0  0  0  0  0  0  0  0  0  0  0
   34.7600   27.9650   37.9170 H   0  0  0  0  0  0  0  0  0  0  0  0
   33.7350   28.8520   39.9340 H   0  0  0  0  0  0  0  0  0  0  0  0
   35.0420   30.3420   41.3560 H   0  0  0  0  0  0  0  0  0  0  0  0
   38.0410   25.9150   41.0160 C   0  0  0  0  0  3  0  0  0  0  0  0
   38.0670   24.7880   41.9660 C   0  0  0  0  0  2  0  0  0  0  0  0
   37.6290   23.6190   41.0670 C   0  0  0  0  0  2  0  0  0  0  0  0
   36.9910   24.2550   39.8360 C   0  0  0  0  0  2  0  0  0  0  0  0
   36.6880   25.6660   40.3750 C   0  0  0  0  0  2  0  0  0  0  0  0
  1  3  1  0  0  0  0
  2  1  2  0  0  0  0
  3  8  1  0  0  0  0
  3  4  1  0  0  0  0
  4 10  1  0  0  0  0
  4  5  1  0  0  0  0
  5  6  1  0  0  0  0
  5 11  1  0  0  0  0
  6 13  1  0  0  0  0
  7 15  1  0  0  0  0
  7 16  1  0  0  0  0
  7  6  1  0  0  0  0
  8 17  1  6  0  0  0
  8  7  1  0  0  0  0
  9  4  1  0  0  0  0
 12  5  1  0  0  0  0
 14  6  1  0  0  0  0
 18 24  1  0  0  0  0
 18 19  1  0  0  0  0
 19  1  1  0  0  0  0
 20 26  1  0  0  0  0
 20 19  2  0  0  0  0
 21 20  1  0  0  0  0
 22 21  2  0  0  0  0
 22 23  1  0  0  0  0
 23 18  2  0  0  0  0
 25 22  1  0  0  0  0
 26 31  1  0  0  0  0
 27 28  1  0  0  0  0
 27 26  2  0  0  0  0
 28 29  2  0  0  0  0
 29 34  1  0  0  0  0
 29 30  1  0  0  0  0
 30 35  1  0  0  0  0
 31 30  2  0  0  0  0
 32 27  1  0  0  0  0
 33 28  1  0  0  0  0
 36  8  1  0  0  0  0
 36 37  1  0  0  0  0
 38 37  1  0  0  0  0
 39 40  1  0  0  0  0
 39 38  1  0  0  0  0
 40 36  1  0  0  0  0
M  END
>  <minimizedAffinity>
-5.56765652

$$$$

 OpenBabel03252507213D

 40 43  0  0  1  0  0  0  0  0999 V2000
   38.6210   30.7690   40.0700 C   0  0  0  0  0  0  0  0  0  0  0  0
   37.5110   31.2190   40.4530 O   0  0  0  0  0  0  0  0  0  0  0  0
   38.8220   30.0350   38.8470 N   0  0  0  0  0  0  0  0  0  0  0  0
   39.8640   30.1730   37.8470 C   0  0  0  0  0  0  0  0  0  0  0  0
   40.4910   28.7940   37.5730 C   0  0  0  0  0  0  0  0  0  0  0  0
   39.4440   27.8700   36.9920 C   0  0  0  0  0  0  0  0  0  0  0  0
   38.0940   28.5130   37.1480 C   0  0  0  0  0  0  0  0  0  0  0  0
   37.8710   29.0000   38.5610 C   0  0  2  0  0  0  0  0  0  0  0  0
   40.7030   30.7010   38.3920 H   0  0  0  0  0  0  0  0  0  0  0  0
   39.5760   30.6970   36.9430 H   0  0  0  0  0  0  0  0  0  0  0  0
   41.3160   28.9820   36.8690 H   0  0  0  0  0  0  0  0  0  0  0  0
   40.8010   28.3820   38.5490 H   0  0  0  0  0  0  0  0  0  0  0  0
   39.6110   27.7210   35.8960 H   0  0  0  0  0  0  0  0  0  0  0  0
   39.4710   26.8550   37.4570 H   0  0  0  0  0  0  0  0  0  0  0  0
   38.0900   29.3810   36.4280 H   0  0  0  0  0  0  0  0  0  0  0  0
   37.3680   27.8110   36.7660 H   0  0  0  0  0  0  0  0  0  0  0  0
   38.1320   28.1490   39.2150 H   0  0  0  0  0  0  0  0  0  0  0  0
   40.5880   32.1260   40.6230 C   0  0  0  0  0  0  0  0  0  0  0  0
   39.7650   31.0100   40.9200 C   0  0  0  0  0  0  0  0  0  0  0  0
   40.0780   30.2060   41.9860 C   0  0  0  0  0  0  0  0  0  0  0  0
   41.1680   30.5040   42.7250 N   0  0  0  0  0  0  0  0  0  0  0  0
   41.9650   31.5660   42.4570 C   0  0  0  0  0  0  0  0  0  0  0  0
   41.6590   32.3580   41.4090 N   0  0  0  0  0  0  0  0  0  0  0  0
   40.3490   32.7640   39.7850 H   0  0  0  0  0  0  0  0  0  0  0  0
   42.8320   31.7790   43.0690 H   0  0  0  0  0  0  0  0  0  0  0  0
   39.2290   29.0680   42.2740 C   0  0  0  0  0  0  0  0  0  0  0  0
   38.2340   29.1690   43.2010 C   0  0  0  0  0  0  0  0  0  0  0  0
   37.4370   28.0810   43.4630 C   0  0  0  0  0  0  0  0  0  0  0  0
   37.5910   26.8700   42.8290 C   0  0  0  0  0  0  0  0  0  0  0  0
   38.6090   26.8160   41.9010 C   0  0  0  0  0  0  0  0  0  0  0  0
   39.3690   27.8940   41.6670 N   0  0  0  0  0  0  0  0  0  0  0  0
   37.9940   30.0450   43.7790 H   0  0  0  0  0  0  0  0  0  0  0  0
   36.6220   28.1210   44.2030 H   0  0  0  0  0  0  0  0  0  0  0  0
   36.9620   26.0160   43.0360 H   0  0  0  0  0  0  0  0  0  0  0  0
   38.7510   25.8660   41.3840 H   0  0  0  0  0  0  0  0  0  0  0  0
   36.4410   29.3140   38.8100 C   0  0  0  0  0  3  0  0  0  0  0  0
   35.4660   29.0460   37.7360 C   0  0  0  0  0  2  0  0  0  0  0  0
   34.1340   29.1470   38.4970 C   0  0  0  0  0  2  0  0  0  0  0  0
   34.4880   29.0320   39.9770 C   0  0  0  0  0  2  0  0  0  0  0  0
   35.8860   28.3920   39.8810 C   0  0  0  0  0  2  0  0  0  0  0  0
  1  2  2  0  0  0  0
  1 19  1  0  0  0  0
  3  1  1  0  0  0  0
  4  9  1  0  0  0  0
  4  3  1  0  0  0  0
  5  4  1  0  0  0  0
  5 12  1  0  0  0  0
  6  7  1  0  0  0  0
  6 14  1  0  0  0  0
  6  5  1  0  0  0  0
  7  8  1  0  0  0  0
  8 36  1  0  0  0  0
  8  3  1  0  0  0  0
  8 17  1  1  0  0  0
 10  4  1  0  0  0  0
 11  5  1  0  0  0  0
 13  6  1  0  0  0  0
 15  7  1  0  0  0  0
 16  7  1  0  0  0  0
 18 19  2  0  0  0  0
 18 23  1  0  0  0  0
 19 20  1  0  0  0  0
 20 26  1  0  0  0  0
 20 21  2  0  0  0  0
 22 21  1  0  0  0  0
 22 25  1  0  0  0  0
 23 22  2  0  0  0  0
 24 18  1  0  0  0  0
 26 27  1  0  0  0  0
 27 28  2  0  0  0  0
 27 32  1  0  0  0  0
 28 33  1  0  0  0  0
 29 34  1  0  0  0  0
 29 28  1  0  0  0  0
 30 29  2  0  0  0  0
 31 30  1  0  0  0  0
 31 26  2  0  0  0  0
 35 30  1  0  0  0  0
 36 40  1  0  0  0  0
 37 38  1  0  0  0  0
 37 36  1  0  0  0  0
 38 39  1  0  0  0  0
 40 39  1  0  0  0  0
M  END
>  <minimizedAffinity>
-5.48428249

$$$$

 OpenBabel03252507213D

 40 43  0  0  1  0  0  0  0  0999 V2000
   38.4260   30.6970   39.5320 C   0  0  0  0  0  0  0  0  0  0  0  0
   37.9930   30.5500   38.3600 O   0  0  0  0  0  0  0  0  0  0  0  0
   38.1820   29.7730   40.6100 N   0  0  0  0  0  0  0  0  0  0  0  0
   39.1010   29.2410   41.5980 C   0  0  0  0  0  0  0  0  0  0  0  0
   38.5090   29.4450   43.0040 C   0  0  0  0  0  0  0  0  0  0  0  0
   37.2250   28.6570   43.1300 C   0  0  0  0  0  0  0  0  0  0  0  0
   36.8150   28.1820   41.7640 C   0  0  0  0  0  0  0  0  0  0  0  0
   36.8330   29.3080   40.7560 C   0  0  2  0  0  0  0  0  0  0  0  0
   39.9600   29.9780   41.6020 H   0  0  0  0  0  0  0  0  0  0  0  0
   39.4390   28.2270   41.4210 H   0  0  0  0  0  0  0  0  0  0  0  0
   39.2840   29.0910   43.7020 H   0  0  0  0  0  0  0  0  0  0  0  0
   38.2590   30.5160   43.0960 H   0  0  0  0  0  0  0  0  0  0  0  0
   37.3790   27.7460   43.7610 H   0  0  0  0  0  0  0  0  0  0  0  0
   36.4130   29.2470   43.6200 H   0  0  0  0  0  0  0  0  0  0  0  0
   37.5680   27.3910   41.4830 H   0  0  0  0  0  0  0  0  0  0  0  0
   35.8750   27.6630   41.8830 H   0  0  0  0  0  0  0  0  0  0  0  0
   36.2680   30.1350   41.2220 H   0  0  0  0  0  0  0  0  0  0  0  0
   38.5820   32.9780   40.4180 C   0  0  0  0  0  0  0  0  0  0  0  0
   39.2220   31.8720   39.8040 C   0  0  0  0  0  0  0  0  0  0  0  0
   40.5550   31.9530   39.4900 C   0  0  0  0  0  0  0  0  0  0  0  0
   41.2200   33.0920   39.7780 N   0  0  0  0  0  0  0  0  0  0  0  0
   40.6260   34.1590   40.3650 C   0  0  0  0  0  0  0  0  0  0  0  0
   39.3150   34.0810   40.6740 N   0  0  0  0  0  0  0  0  0  0  0  0
   37.5320   32.9230   40.6680 H   0  0  0  0  0  0  0  0  0  0  0  0
   41.1870   35.0580   40.5830 H   0  0  0  0  0  0  0  0  0  0  0  0
   41.1930   30.8150   38.8600 C   0  0  0  0  0  0  0  0  0  0  0  0
   41.8670   29.9010   39.6140 C   0  0  0  0  0  0  0  0  0  0  0  0
   42.4680   28.8260   39.0020 C   0  0  0  0  0  0  0  0  0  0  0  0
   42.4250   28.6200   37.6430 C   0  0  0  0  0  0  0  0  0  0  0  0
   41.7320   29.5690   36.9230 C   0  0  0  0  0  0  0  0  0  0  0  0
   41.1570   30.6060   37.5490 N   0  0  0  0  0  0  0  0  0  0  0  0
   41.9900   29.9290   40.6830 H   0  0  0  0  0  0  0  0  0  0  0  0
   43.0220   28.0650   39.5740 H   0  0  0  0  0  0  0  0  0  0  0  0
   42.8980   27.7730   37.1640 H   0  0  0  0  0  0  0  0  0  0  0  0
   41.6840   29.4270   35.8440 H   0  0  0  0  0  0  0  0  0  0  0  0
   36.1100   28.9370   39.5130 C   0  0  0  0  0  3  0  0  0  0  0  0
   36.1280   27.5260   39.0840 C   0  0  0  0  0  2  0  0  0  0  0  0
   35.0110   27.5120   38.0280 C   0  0  0  0  0  2  0  0  0  0  0  0
   34.1940   28.7780   38.2660 C   0  0  0  0  0  2  0  0  0  0  0  0
   34.6160   29.1160   39.7090 C   0  0  0  0  0  2  0  0  0  0  0  0
  1 19  1  0  0  0  0
  1  3  1  0  0  0  0
  2  1  2  0  0  0  0
  3  8  1  0  0  0  0
  3  4  1  0  0  0  0
  4  9  1  0  0  0  0
  4  5  1  0  0  0  0
  5 12  1  0  0  0  0
  5  6  1  0  0  0  0
  5 11  1  0  0  0  0
  6 14  1  0  0  0  0
  6 13  1  0  0  0  0
  7 16  1  0  0  0  0
  7  6  1  0  0  0  0
  8 17  1  1  0  0  0
  8  7  1  0  0  0  0
 10  4  1  0  0  0  0
 15  7  1  0  0  0  0
 18 24  1  0  0  0  0
 18 23  1  0  0  0  0
 19 18  2  0  0  0  0
 20 21  2  0  0  0  0
 20 19  1  0  0  0  0
 21 22  1  0  0  0  0
 22 25  1  0  0  0  0
 22 23  2  0  0  0  0
 26 20  1  0  0  0  0
 26 27  1  0  0  0  0
 27 32  1  0  0  0  0
 28 33  1  0  0  0  0
 28 27  2  0  0  0  0
 29 28  1  0  0  0  0
 30 31  1  0  0  0  0
 30 29  2  0  0  0  0
 31 26  2  0  0  0  0
 34 29  1  0  0  0  0
 35 30  1  0  0  0  0
 36 40  1  0  0  0  0
 36  8  1  0  0  0  0
 37 36  1  0  0  0  0
 38 39  1  0  0  0  0
 38 37  1  0  0  0  0
 39 40  1  0  0  0  0
M  END
>  <minimizedAffinity>
-5.41902685

$$$$

 OpenBabel03252507213D

 40 43  0  0  1  0  0  0  0  0999 V2000
   38.9220   28.1810   38.8900 C   0  0  0  0  0  0  0  0  0  0  0  0
   39.7720   29.0890   39.0760 O   0  0  0  0  0  0  0  0  0  0  0  0
   37.5650   28.4140   38.4670 N   0  0  0  0  0  0  0  0  0  0  0  0
   36.7810   27.7270   37.4570 C   0  0  0  0  0  0  0  0  0  0  0  0
   35.4330   27.2990   38.0650 C   0  0  0  0  0  0  0  0  0  0  0  0
   34.6490   28.5280   38.4690 C   0  0  0  0  0  0  0  0  0  0  0  0
   35.5610   29.7220   38.4100 C   0  0  0  0  0  0  0  0  0  0  0  0
   36.8600   29.4660   39.1390 C   0  0  2  0  0  0  0  0  0  0  0  0
   37.3020   26.7310   37.3320 H   0  0  0  0  0  0  0  0  0  0  0  0
   36.6760   28.2500   36.5140 H   0  0  0  0  0  0  0  0  0  0  0  0
   34.9250   26.7240   37.2750 H   0  0  0  0  0  0  0  0  0  0  0  0
   35.6600   26.7270   38.9810 H   0  0  0  0  0  0  0  0  0  0  0  0
   33.8130   28.7190   37.7510 H   0  0  0  0  0  0  0  0  0  0  0  0
   34.1820   28.4190   39.4770 H   0  0  0  0  0  0  0  0  0  0  0  0
   35.7530   29.8980   37.3120 H   0  0  0  0  0  0  0  0  0  0  0  0
   34.9840   30.5720   38.7460 H   0  0  0  0  0  0  0  0  0  0  0  0
   36.5730   29.0660   40.1280 H   0  0  0  0  0  0  0  0  0  0  0  0
   39.9540   26.1240   38.0420 C   0  0  0  0  0  0  0  0  0  0  0  0
   39.3440   26.8180   39.1170 C   0  0  0  0  0  0  0  0  0  0  0  0
   39.1750   26.1810   40.3200 C   0  0  0  0  0  0  0  0  0  0  0  0
   39.5970   24.9050   40.4430 N   0  0  0  0  0  0  0  0  0  0  0  0
   40.1820   24.2260   39.4270 C   0  0  0  0  0  0  0  0  0  0  0  0
   40.3500   24.8510   38.2420 N   0  0  0  0  0  0  0  0  0  0  0  0
   40.0910   26.6180   37.0900 H   0  0  0  0  0  0  0  0  0  0  0  0
   40.5110   23.2040   39.5560 H   0  0  0  0  0  0  0  0  0  0  0  0
   38.5470   26.9020   41.4090 C   0  0  0  0  0  0  0  0  0  0  0  0
   37.2150   26.7480   41.6570 C   0  0  0  0  0  0  0  0  0  0  0  0
   36.6330   27.4390   42.6930 C   0  0  0  0  0  0  0  0  0  0  0  0
   37.3350   28.2950   43.5090 C   0  0  0  0  0  0  0  0  0  0  0  0
   38.6770   28.4190   43.2190 C   0  0  0  0  0  0  0  0  0  0  0  0
   39.2160   27.7310   42.2020 N   0  0  0  0  0  0  0  0  0  0  0  0
   36.5360   26.1190   41.1060 H   0  0  0  0  0  0  0  0  0  0  0  0
   35.5610   27.3430   42.9280 H   0  0  0  0  0  0  0  0  0  0  0  0
   36.8750   28.8370   44.3230 H   0  0  0  0  0  0  0  0  0  0  0  0
   39.2550   29.0920   43.8520 H   0  0  0  0  0  0  0  0  0  0  0  0
   37.6050   30.7280   39.3820 C   0  0  0  0  0  3  0  0  0  0  0  0
   37.1130   31.9670   38.7520 C   0  0  0  0  0  2  0  0  0  0  0  0
   37.9020   33.0380   39.5250 C   0  0  0  0  0  2  0  0  0  0  0  0
   38.4240   32.3480   40.7810 C   0  0  0  0  0  2  0  0  0  0  0  0
   37.4850   31.1280   40.8410 C   0  0  0  0  0  2  0  0  0  0  0  0
  1  2  2  0  0  0  0
  1 19  1  0  0  0  0
  3  1  1  0  0  0  0
  3  8  1  0  0  0  0
  4  5  1  0  0  0  0
  4  3  1  0  0  0  0
  5  6  1  0  0  0  0
  5 12  1  0  0  0  0
  6 14  1  0  0  0  0
  7  6  1  0  0  0  0
  7 16  1  0  0  0  0
  7  8  1  0  0  0  0
  8 36  1  0  0  0  0
  8 17  1  1  0  0  0
  9  4  1  0  0  0  0
 10  4  1  0  0  0  0
 11  5  1  0  0  0  0
 13  6  1  0  0  0  0
 15  7  1  0  0  0  0
 18 23  2  0  0  0  0
 18 19  1  0  0  0  0
 19 20  2  0  0  0  0
 20 21  1  0  0  0  0
 20 26  1  0  0  0  0
 22 25  1  0  0  0  0
 22 21  2  0  0  0  0
 23 22  1  0  0  0  0
 24 18  1  0  0  0  0
 26 27  2  0  0  0  0
 26 31  1  0  0  0  0
 27 28  1  0  0  0  0
 28 33  1  0  0  0  0
 28 29  2  0  0  0  0
 29 34  1  0  0  0  0
 30 29  1  0  0  0  0
 30 35  1  0  0  0  0
 31 30  2  0  0  0  0
 32 27  1  0  0  0  0
 36 40  1  0  0  0  0
 37 36  1  0  0  0  0
 37 38  1  0  0  0  0
 38 39  1  0  0  0  0
 39 40  1  0  0  0  0
M  END
>  <minimizedAffinity>
-5.40156937

$$$$

 OpenBabel03252507213D

 40 43  0  0  1  0  0  0  0  0999 V2000
   39.6240   29.4070   41.5780 C   0  0  0  0  0  0  0  0  0  0  0  0
   39.3000   30.4160   42.2560 O   0  0  0  0  0  0  0  0  0  0  0  0
   40.0920   29.4580   40.2180 N   0  0  0  0  0  0  0  0  0  0  0  0
   41.2080   28.7690   39.5970 C   0  0  0  0  0  0  0  0  0  0  0  0
   40.7190   28.0600   38.3200 C   0  0  0  0  0  0  0  0  0  0  0  0
   40.2330   29.0910   37.3260 C   0  0  0  0  0  0  0  0  0  0  0  0
   40.1200   30.4180   38.0240 C   0  0  0  0  0  0  0  0  0  0  0  0
   39.3540   30.3000   39.3210 C   0  0  2  0  0  0  0  0  0  0  0  0
   41.4070   27.8910   40.2830 H   0  0  0  0  0  0  0  0  0  0  0  0
   42.0960   29.3680   39.4380 H   0  0  0  0  0  0  0  0  0  0  0  0
   41.5900   27.5000   37.9450 H   0  0  0  0  0  0  0  0  0  0  0  0
   39.8560   27.4360   38.6080 H   0  0  0  0  0  0  0  0  0  0  0  0
   40.9700   29.2200   36.4950 H   0  0  0  0  0  0  0  0  0  0  0  0
   39.2680   28.7960   36.8490 H   0  0  0  0  0  0  0  0  0  0  0  0
   41.1820   30.7430   38.2230 H   0  0  0  0  0  0  0  0  0  0  0  0
   39.7290   31.1190   37.3010 H   0  0  0  0  0  0  0  0  0  0  0  0
   38.4280   29.7510   39.0720 H   0  0  0  0  0  0  0  0  0  0  0  0
   40.5670   27.7120   43.0800 C   0  0  0  0  0  0  0  0  0  0  0  0
   39.5160   28.1150   42.2170 C   0  0  0  0  0  0  0  0  0  0  0  0
   38.4490   27.2770   42.0170 C   0  0  0  0  0  0  0  0  0  0  0  0
   38.4320   26.0860   42.6530 N   0  0  0  0  0  0  0  0  0  0  0  0
   39.4270   25.6840   43.4820 C   0  0  0  0  0  0  0  0  0  0  0  0
   40.4770   26.5070   43.6790 N   0  0  0  0  0  0  0  0  0  0  0  0
   41.4120   28.3660   43.2430 H   0  0  0  0  0  0  0  0  0  0  0  0
   39.3840   24.7230   43.9770 H   0  0  0  0  0  0  0  0  0  0  0  0
   37.3860   27.7020   41.1300 C   0  0  0  0  0  0  0  0  0  0  0  0
   37.3220   27.2220   39.8550 C   0  0  0  0  0  0  0  0  0  0  0  0
   36.3070   27.6350   39.0240 C   0  0  0  0  0  0  0  0  0  0  0  0
   35.3330   28.5220   39.4170 C   0  0  0  0  0  0  0  0  0  0  0  0
   35.4390   28.9790   40.7140 C   0  0  0  0  0  0  0  0  0  0  0  0
   36.4400   28.5580   41.4990 N   0  0  0  0  0  0  0  0  0  0  0  0
   38.0100   26.5280   39.4040 H   0  0  0  0  0  0  0  0  0  0  0  0
   36.2190   27.2720   37.9880 H   0  0  0  0  0  0  0  0  0  0  0  0
   34.5350   28.8450   38.7620 H   0  0  0  0  0  0  0  0  0  0  0  0
   34.6780   29.6840   41.0490 H   0  0  0  0  0  0  0  0  0  0  0  0
   38.9420   31.6320   39.8340 C   0  0  0  0  0  3  0  0  0  0  0  0
   39.8300   32.7840   39.5870 C   0  0  0  0  0  2  0  0  0  0  0  0
   38.9030   33.9630   39.9280 C   0  0  0  0  0  2  0  0  0  0  0  0
   37.4860   33.3990   39.9140 C   0  0  0  0  0  2  0  0  0  0  0  0
   37.7050   32.1120   39.0970 C   0  0  0  0  0  2  0  0  0  0  0  0
  1 19  1  0  0  0  0
  1  2  2  0  0  0  0
  3  1  1  0  0  0  0
  4  3  1  0  0  0  0
  4  9  1  0  0  0  0
  5 12  1  0  0  0  0
  5  4  1  0  0  0  0
  6  7  1  0  0  0  0
  6  5  1  0  0  0  0
  7 15  1  0  0  0  0
  7  8  1  0  0  0  0
  8 17  1  6  0  0  0
  8 36  1  0  0  0  0
  8  3  1  0  0  0  0
 10  4  1  0  0  0  0
 11  5  1  0  0  0  0
 13  6  1  0  0  0  0
 14  6  1  0  0  0  0
 16  7  1  0  0  0  0
 18 24  1  0  0  0  0
 18 23  1  0  0  0  0
 19 18  2  0  0  0  0
 20 19  1  0  0  0  0
 20 21  2  0  0  0  0
 21 22  1  0  0  0  0
 22 23  2  0  0  0  0
 22 25  1  0  0  0  0
 26 31  1  0  0  0  0
 26 20  1  0  0  0  0
 27 26  2  0  0  0  0
 28 29  2  0  0  0  0
 28 27  1  0  0  0  0
 29 30  1  0  0  0  0
 30 35  1  0  0  0  0
 30 31  2  0  0  0  0
 32 27  1  0  0  0  0
 33 28  1  0  0  0  0
 34 29  1  0  0  0  0
 37 36  1  0  0  0  0
 37 38  1  0  0  0  0
 39 38  1  0  0  0  0
 40 36  1  0  0  0  0
 40 39  1  0  0  0  0
M  END
>  <minimizedAffinity>
-5.33485889

$$$$

 OpenBabel03252507213D

 40 43  0  0  1  0  0  0  0  0999 V2000
   39.4770   29.7930   40.8190 C   0  0  0  0  0  0  0  0  0  0  0  0
   40.3960   29.0010   41.1490 O   0  0  0  0  0  0  0  0  0  0  0  0
   38.0740   29.5390   41.0210 N   0  0  0  0  0  0  0  0  0  0  0  0
   37.0390   30.4180   41.5330 C   0  0  0  0  0  0  0  0  0  0  0  0
   35.8490   30.4230   40.5570 C   0  0  0  0  0  0  0  0  0  0  0  0
   35.2500   29.0360   40.4840 C   0  0  0  0  0  0  0  0  0  0  0  0
   36.1870   28.0710   41.1550 C   0  0  0  0  0  0  0  0  0  0  0  0
   37.6040   28.2340   40.6550 C   0  0  2  0  0  0  0  0  0  0  0  0
   37.4610   31.4570   41.3850 H   0  0  0  0  0  0  0  0  0  0  0  0
   36.7470   30.2420   42.5610 H   0  0  0  0  0  0  0  0  0  0  0  0
   35.1400   31.1610   40.9650 H   0  0  0  0  0  0  0  0  0  0  0  0
   36.2510   30.6700   39.5600 H   0  0  0  0  0  0  0  0  0  0  0  0
   34.2810   28.9930   41.0420 H   0  0  0  0  0  0  0  0  0  0  0  0
   35.0250   28.7270   39.4350 H   0  0  0  0  0  0  0  0  0  0  0  0
   36.1280   28.3110   42.2560 H   0  0  0  0  0  0  0  0  0  0  0  0
   35.7530   27.0880   41.0460 H   0  0  0  0  0  0  0  0  0  0  0  0
   37.5340   28.2270   39.5530 H   0  0  0  0  0  0  0  0  0  0  0  0
   40.3560   32.0730   41.0330 C   0  0  0  0  0  0  0  0  0  0  0  0
   39.8650   31.0380   40.1970 C   0  0  0  0  0  0  0  0  0  0  0  0
   39.7720   31.2510   38.8450 C   0  0  0  0  0  0  0  0  0  0  0  0
   40.1550   32.4480   38.3490 N   0  0  0  0  0  0  0  0  0  0  0  0
   40.6270   33.4470   39.1330 C   0  0  0  0  0  0  0  0  0  0  0  0
   40.7180   33.2400   40.4630 N   0  0  0  0  0  0  0  0  0  0  0  0
   40.4310   31.9140   42.0990 H   0  0  0  0  0  0  0  0  0  0  0  0
   40.9250   34.3950   38.7050 H   0  0  0  0  0  0  0  0  0  0  0  0
   39.2650   30.1860   38.0040 C   0  0  0  0  0  0  0  0  0  0  0  0
   37.9800   30.2210   37.5500 C   0  0  0  0  0  0  0  0  0  0  0  0
   37.5130   29.2030   36.7530 C   0  0  0  0  0  0  0  0  0  0  0  0
   38.2870   28.1280   36.3830 C   0  0  0  0  0  0  0  0  0  0  0  0
   39.5780   28.1360   36.8660 C   0  0  0  0  0  0  0  0  0  0  0  0
   40.0040   29.1430   37.6410 N   0  0  0  0  0  0  0  0  0  0  0  0
   37.2570   30.9910   37.7560 H   0  0  0  0  0  0  0  0  0  0  0  0
   36.4830   29.1930   36.3650 H   0  0  0  0  0  0  0  0  0  0  0  0
   37.9180   27.3290   35.7560 H   0  0  0  0  0  0  0  0  0  0  0  0
   40.2120   27.2940   36.5860 H   0  0  0  0  0  0  0  0  0  0  0  0
   38.4540   27.0790   41.0430 C   0  0  0  0  0  3  0  0  0  0  0  0
   37.9530   26.1530   42.0750 C   0  0  0  0  0  2  0  0  0  0  0  0
   38.9120   24.9620   41.9110 C   0  0  0  0  0  2  0  0  0  0  0  0
   39.5690   25.1400   40.5450 C   0  0  0  0  0  2  0  0  0  0  0  0
   38.5750   26.1110   39.8800 C   0  0  0  0  0  2  0  0  0  0  0  0
  1  3  1  0  0  0  0
  1  2  2  0  0  0  0
  3  4  1  0  0  0  0
  4 10  1  0  0  0  0
  5 11  1  0  0  0  0
  5  4  1  0  0  0  0
  6  5  1  0  0  0  0
  6 13  1  0  0  0  0
  6  7  1  0  0  0  0
  7 15  1  0  0  0  0
  8 17  1  6  0  0  0
  8  3  1  0  0  0  0
  8 36  1  0  0  0  0
  8  7  1  0  0  0  0
  9  4  1  0  0  0  0
 12  5  1  0  0  0  0
 14  6  1  0  0  0  0
 16  7  1  0  0  0  0
 18 24  1  0  0  0  0
 19  1  1  0  0  0  0
 19 18  2  0  0  0  0
 20 19  1  0  0  0  0
 21 20  2  0  0  0  0
 21 22  1  0  0  0  0
 22 23  2  0  0  0  0
 23 18  1  0  0  0  0
 25 22  1  0  0  0  0
 26 20  1  0  0  0  0
 27 32  1  0  0  0  0
 27 26  2  0  0  0  0
 28 27  1  0  0  0  0
 29 28  2  0  0  0  0
 29 30  1  0  0  0  0
 30 31  2  0  0  0  0
 31 26  1  0  0  0  0
 33 28  1  0  0  0  0
 34 29  1  0  0  0  0
 35 30  1  0  0  0  0
 36 37  1  0  0  0  0
 38 37  1  0  0  0  0
 39 38  1  0  0  0  0
 40 39  1  0  0  0  0
 40 36  1  0  0  0  0
M  END
>  <minimizedAffinity>
-5.3143363

$$$$

 OpenBabel03252507213D

 40 43  0  0  1  0  0  0  0  0999 V2000
   39.1720   27.7950   40.0110 C   0  0  0  0  0  0  0  0  0  0  0  0
   40.4130   27.6160   39.9100 O   0  0  0  0  0  0  0  0  0  0  0  0
   38.4720   27.9420   41.2600 N   0  0  0  0  0  0  0  0  0  0  0  0
   37.4490   28.8990   41.6400 C   0  0  0  0  0  0  0  0  0  0  0  0
   36.2430   28.1460   42.2300 C   0  0  0  0  0  0  0  0  0  0  0  0
   36.6650   27.4290   43.4930 C   0  0  0  0  0  0  0  0  0  0  0  0
   38.1650   27.4550   43.5850 C   0  0  0  0  0  0  0  0  0  0  0  0
   38.8080   27.0050   42.2930 C   0  0  2  0  0  0  0  0  0  0  0  0
   37.0310   29.2630   40.6540 H   0  0  0  0  0  0  0  0  0  0  0  0
   37.7870   29.7180   42.2640 H   0  0  0  0  0  0  0  0  0  0  0  0
   35.4830   28.9180   42.4250 H   0  0  0  0  0  0  0  0  0  0  0  0
   35.9470   27.3810   41.4910 H   0  0  0  0  0  0  0  0  0  0  0  0
   36.2720   27.9570   44.3980 H   0  0  0  0  0  0  0  0  0  0  0  0
   36.2690   26.3860   43.5400 H   0  0  0  0  0  0  0  0  0  0  0  0
   38.4330   28.5280   43.8040 H   0  0  0  0  0  0  0  0  0  0  0  0
   38.4340   26.8980   44.4700 H   0  0  0  0  0  0  0  0  0  0  0  0
   38.3090   26.0560   42.0260 H   0  0  0  0  0  0  0  0  0  0  0  0
   38.4340   29.0680   38.0490 C   0  0  0  0  0  0  0  0  0  0  0  0
   38.4090   27.8570   38.7860 C   0  0  0  0  0  0  0  0  0  0  0  0
   37.6690   26.8000   38.3200 C   0  0  0  0  0  0  0  0  0  0  0  0
   36.9830   26.9470   37.1670 N   0  0  0  0  0  0  0  0  0  0  0  0
   36.9950   28.0970   36.4490 C   0  0  0  0  0  0  0  0  0  0  0  0
   37.7220   29.1380   36.9050 N   0  0  0  0  0  0  0  0  0  0  0  0
   39.0140   29.9060   38.4090 H   0  0  0  0  0  0  0  0  0  0  0  0
   36.4350   28.1840   35.5280 H   0  0  0  0  0  0  0  0  0  0  0  0
   37.6500   25.5710   39.0860 C   0  0  0  0  0  0  0  0  0  0  0  0
   36.5870   25.2760   39.8870 C   0  0  0  0  0  0  0  0  0  0  0  0
   36.5840   24.1060   40.6090 C   0  0  0  0  0  0  0  0  0  0  0  0
   37.6160   23.1980   40.5650 C   0  0  0  0  0  0  0  0  0  0  0  0
   38.6680   23.5390   39.7430 C   0  0  0  0  0  0  0  0  0  0  0  0
   38.6420   24.6880   39.0520 N   0  0  0  0  0  0  0  0  0  0  0  0
   35.7110   25.8860   40.0270 H   0  0  0  0  0  0  0  0  0  0  0  0
   35.7450   23.8300   41.2660 H   0  0  0  0  0  0  0  0  0  0  0  0
   37.6110   22.2780   41.1330 H   0  0  0  0  0  0  0  0  0  0  0  0
   39.4990   22.8350   39.6920 H   0  0  0  0  0  0  0  0  0  0  0  0
   40.2490   26.6980   42.4800 C   0  0  0  0  0  3  0  0  0  0  0  0
   40.9300   27.2260   43.6770 C   0  0  0  0  0  2  0  0  0  0  0  0
   42.2310   26.4060   43.6770 C   0  0  0  0  0  2  0  0  0  0  0  0
   41.9750   25.2160   42.7570 C   0  0  0  0  0  2  0  0  0  0  0  0
   40.4350   25.2120   42.7270 C   0  0  0  0  0  2  0  0  0  0  0  0
  1  3  1  0  0  0  0
  2  1  2  0  0  0  0
  3  4  1  0  0  0  0
  3  8  1  0  0  0  0
  4  5  1  0  0  0  0
  4 10  1  0  0  0  0
  5 11  1  0  0  0  0
  5  6  1  0  0  0  0
  6 14  1  0  0  0  0
  6  7  1  0  0  0  0
  6 13  1  0  0  0  0
  7 15  1  0  0  0  0
  7 16  1  0  0  0  0
  8 17  1  6  0  0  0
  8 36  1  0  0  0  0
  8  7  1  0  0  0  0
  9  4  1  0  0  0  0
 12  5  1  0  0  0  0
 18 24  1  0  0  0  0
 18 19  1  0  0  0  0
 19  1  1  0  0  0  0
 20 19  2  0  0  0  0
 20 26  1  0  0  0  0
 21 20  1  0  0  0  0
 22 23  1  0  0  0  0
 22 21  2  0  0  0  0
 23 18  2  0  0  0  0
 25 22  1  0  0  0  0
 26 27  1  0  0  0  0
 27 32  1  0  0  0  0
 27 28  2  0  0  0  0
 28 33  1  0  0  0  0
 29 28  1  0  0  0  0
 29 34  1  0  0  0  0
 30 29  2  0  0  0  0
 31 26  2  0  0  0  0
 31 30  1  0  0  0  0
 35 30  1  0  0  0  0
 36 40  1  0  0  0  0
 36 37  1  0  0  0  0
 37 38  1  0  0  0  0
 39 38  1  0  0  0  0
 40 39  1  0  0  0  0
M  END
>  <minimizedAffinity>
-5.289505

$$$$
