
 OpenBabel03242516573D

 24 26  0  0  1  0  0  0  0  0999 V2000
   46.6850   34.7830   42.0260 C   0  0  0  0  0  0  0  0  0  0  0  0
   47.9510   35.2970   41.9740 C   0  0  0  0  0  0  0  0  0  0  0  0
   48.6980   35.1680   40.8230 C   0  0  0  0  0  0  0  0  0  0  0  0
   48.1450   34.5190   39.7450 C   0  0  0  0  0  0  0  0  0  0  0  0
   46.8790   33.9880   39.7510 C   0  0  0  0  0  0  0  0  0  0  0  0
   46.1450   34.1380   40.9420 C   0  0  0  0  0  0  0  0  0  0  0  0
   48.3800   35.8100   42.8370 H   0  0  0  0  0  0  0  0  0  0  0  0
   49.6930   35.5940   40.8390 H   0  0  0  0  0  0  0  0  0  0  0  0
   48.7910   34.4580   38.8780 H   0  0  0  0  0  0  0  0  0  0  0  0
   46.4670   33.4910   38.9110 H   0  0  0  0  0  0  0  0  0  0  0  0
   44.4660   36.0860   44.8040 C   0  0  0  0  0  0  0  0  0  0  0  0
   45.1160   36.0260   43.5570 C   0  0  0  0  0  0  0  0  0  0  0  0
   45.9530   34.9590   43.2830 C   0  0  0  0  0  0  0  0  0  0  0  0
   46.0980   34.0170   44.2520 N   0  0  0  0  0  0  0  0  0  0  0  0
   45.4730   34.0750   45.4500 C   0  0  0  0  0  0  0  0  0  0  0  0
   44.6490   35.1200   45.7260 N   0  0  0  0  0  0  0  0  0  0  0  0
   43.8240   36.9550   44.9450 H   0  0  0  0  0  0  0  0  0  0  0  0
   45.0230   36.7530   42.7710 H   0  0  0  0  0  0  0  0  0  0  0  0
   45.6530   33.2760   46.1570 H   0  0  0  0  0  0  0  0  0  0  0  0
   44.7610   33.6000   41.0600 C   0  0  2  0  0  0  0  0  0  0  0  0
   44.6530   32.2720   40.3690 C   0  0  0  0  0  0  0  0  0  0  0  0
   43.6000   32.3780   39.3100 C   0  0  0  0  0  0  0  0  0  0  0  0
   43.0430   33.7610   39.3410 C   0  0  0  0  0  0  0  0  0  0  0  0
   43.7150   34.4950   40.4790 C   0  0  0  0  0  0  0  0  0  0  0  0
  1 13  1  0  0  0  0
  2  1  1  0  0  0  0
  2  7  1  0  0  0  0
  3  8  1  0  0  0  0
  3  2  2  0  0  0  0
  4  5  2  0  0  0  0
  4  3  1  0  0  0  0
  5  6  1  0  0  0  0
  6  1  2  0  0  0  0
  9  4  1  0  0  0  0
 10  5  1  0  0  0  0
 11 17  1  0  0  0  0
 11 16  1  0  0  0  0
 12 11  2  0  0  0  0
 13 12  1  0  0  0  0
 13 14  2  0  0  0  0
 14 15  1  0  0  0  0
 15 16  2  0  0  0  0
 15 19  1  0  0  0  0
 18 12  1  0  0  0  0
 20  6  1  6  0  0  0
 21 20  1  0  0  0  0
 22 23  1  0  0  0  0
 22 21  2  0  0  0  0
 23 24  2  0  0  0  0
 24 20  1  0  0  0  0
M  END
>  <minimizedAffinity>
-5.51850796

>  <minimizedRMSD>
1.47103238

$$$$
