
 OpenBabel03242512073D

 23 25  0  0  1  0  0  0  0  0999 V2000
   44.8210   33.9200   41.3790 C   0  0  1  0  0  0  0  0  0  0  0  0
   46.2920   34.3490   41.0450 C   0  0  0  0  0  0  0  0  0  0  0  0
   45.4110   35.0830   41.9840 C   0  0  2  0  0  0  0  0  0  0  0  0
   44.8540   32.8910   41.8250 H   0  0  0  0  0  0  0  0  0  0  0  0
   47.0400   33.6330   41.3900 H   0  0  0  0  0  0  0  0  0  0  0  0
   46.4770   34.7090   40.0200 H   0  0  0  0  0  0  0  0  0  0  0  0
   45.0550   36.0700   41.5280 H   0  0  0  0  0  0  0  0  0  0  0  0
   45.6350   35.2280   43.4400 C   0  0  0  0  0  0  0  0  0  0  0  0
   46.0500   33.9420   44.1320 C   0  0  0  0  0  0  0  0  0  0  0  0
   45.4850   34.0220   45.5310 C   0  0  0  0  0  0  0  0  0  0  0  0
   44.6650   35.2860   45.6210 C   0  0  0  0  0  0  0  0  0  0  0  0
   44.4590   35.7520   44.1830 C   0  0  0  0  0  0  0  0  0  0  0  0
   43.9160   34.0480   40.2050 C   0  0  0  0  0  0  0  0  0  0  0  0
   44.2720   33.5240   39.1490 O   0  0  0  0  0  0  0  0  0  0  0  0
   42.0290   35.1810   39.1250 C   0  0  0  0  0  0  0  0  0  0  0  0
   42.6560   34.7360   40.2500 C   0  0  0  0  0  0  0  0  0  0  0  0
   42.0250   34.9530   41.4900 C   0  0  0  0  0  0  0  0  0  0  0  0
   40.8330   35.5860   41.5310 N   0  0  0  0  0  0  0  0  0  0  0  0
   40.2280   36.0220   40.3850 C   0  0  0  0  0  0  0  0  0  0  0  0
   40.8270   35.8150   39.2230 N   0  0  0  0  0  0  0  0  0  0  0  0
   42.5490   34.9940   38.1960 H   0  0  0  0  0  0  0  0  0  0  0  0
   42.4860   34.6170   42.4060 H   0  0  0  0  0  0  0  0  0  0  0  0
   39.2770   36.5300   40.3910 H   0  0  0  0  0  0  0  0  0  0  0  0
  1  4  1  1  0  0  0
  1  3  1  0  0  0  0
  2  1  1  0  0  0  0
  2  5  1  0  0  0  0
  2  3  1  0  0  0  0
  3  7  1  6  0  0  0
  3  8  1  0  0  0  0
  6  2  1  0  0  0  0
  8  9  1  0  0  0  0
  8 12  1  0  0  0  0
  9 10  1  0  0  0  0
 10 11  1  0  0  0  0
 12 11  1  0  0  0  0
 13 16  1  0  0  0  0
 13  1  1  0  0  0  0
 14 13  2  0  0  0  0
 15 20  2  0  0  0  0
 15 16  1  0  0  0  0
 16 17  2  0  0  0  0
 17 18  1  0  0  0  0
 17 22  1  0  0  0  0
 19 23  1  0  0  0  0
 19 18  2  0  0  0  0
 20 19  1  0  0  0  0
 21 15  1  0  0  0  0
M  END
>  <minimizedAffinity>
-4.97231388

>  <minimizedRMSD>
5.41255999

$$$$
