
 OpenBabel03242519313D

 44 47  0  0  0  0  0  0  0  0999 V2000
   48.1250   33.6100   42.8300 C   0  0  0  0  0  0  0  0  0  0  0  0
   48.7920   34.8620   42.6700 C   0  0  0  0  0  0  0  0  0  0  0  0
   50.1660   34.8920   42.4090 C   0  0  0  0  0  0  0  0  0  0  0  0
   50.7990   33.6810   42.3220 N   0  0  0  0  0  0  0  0  0  0  0  0
   50.1190   32.5020   42.4830 C   0  0  0  0  0  0  0  0  0  0  0  0
   48.8210   32.4930   42.7280 N   0  0  0  0  0  0  0  0  0  0  0  0
   48.3440   35.8450   42.7300 H   0  0  0  0  0  0  0  0  0  0  0  0
   50.7020   35.8110   42.2840 H   0  0  0  0  0  0  0  0  0  0  0  0
   46.6930   33.7240   43.1020 C   0  0  0  0  0  0  0  0  0  0  0  0
   45.9860   34.6980   42.3090 C   0  0  0  0  0  0  0  0  0  0  0  0
   45.4770   35.8580   43.0620 C   0  0  0  0  0  0  0  0  0  0  0  0
   44.5850   35.4140   44.2210 C   0  0  0  0  0  0  0  0  0  0  0  0
   45.1160   34.2400   44.9690 C   0  0  0  0  0  0  0  0  0  0  0  0
   46.5850   33.9960   44.6400 C   0  0  0  0  0  0  0  0  0  0  0  0
   46.2500   32.6870   43.0340 H   0  0  0  0  0  0  0  0  0  0  0  0
   46.6540   35.0970   41.4920 H   0  0  0  0  0  0  0  0  0  0  0  0
   45.1270   34.2280   41.7780 H   0  0  0  0  0  0  0  0  0  0  0  0
   46.1870   36.5980   43.4170 H   0  0  0  0  0  0  0  0  0  0  0  0
   44.7730   36.4170   42.3780 H   0  0  0  0  0  0  0  0  0  0  0  0
   44.4740   36.3140   44.8760 H   0  0  0  0  0  0  0  0  0  0  0  0
   43.5560   35.1630   43.8480 H   0  0  0  0  0  0  0  0  0  0  0  0
   44.5810   33.3120   44.6690 H   0  0  0  0  0  0  0  0  0  0  0  0
   45.0780   34.3510   46.0690 H   0  0  0  0  0  0  0  0  0  0  0  0
   47.1140   34.9450   44.8700 H   0  0  0  0  0  0  0  0  0  0  0  0
   46.9330   33.1330   45.2100 H   0  0  0  0  0  0  0  0  0  0  0  0
   50.9640   31.3210   42.3600 C   0  0  0  0  0  0  0  0  0  0  0  0
   51.3060   30.8780   41.1400 N   0  0  0  0  0  0  0  0  0  0  0  0
   52.0870   29.7760   41.2740 C   0  0  0  0  0  0  0  0  0  0  0  0
   52.2190   29.5500   42.5970 N   0  0  0  0  0  0  0  0  0  0  0  0
   51.5400   30.4830   43.2840 N   0  0  0  0  0  0  0  0  0  0  0  0
   52.5390   29.1630   40.5070 H   0  0  0  0  0  0  0  0  0  0  0  0
   52.9610   28.5000   43.2500 C   0  0  0  0  0  0  0  0  0  0  0  0
   52.8700   27.6200   42.6370 H   0  0  0  0  0  0  0  0  0  0  0  0
   52.4710   28.2570   44.2260 H   0  0  0  0  0  0  0  0  0  0  0  0
   54.3510   28.9020   43.4450 C   0  0  0  0  0  0  0  0  0  0  0  0
   55.0060   29.5820   44.3610 C   0  0  0  0  0  0  0  0  0  0  0  0
   56.5030   29.8750   44.4560 C   0  0  0  0  0  0  0  0  0  0  0  0
   56.9910   28.8750   44.4880 H   0  0  0  0  0  0  0  0  0  0  0  0
   56.6280   30.4080   45.3930 H   0  0  0  0  0  0  0  0  0  0  0  0
   57.0330   30.6040   43.2580 C   0  0  0  0  0  0  0  0  0  0  0  0
   57.8180   29.6170   42.3820 C   0  0  0  0  0  0  0  0  0  0  0  0
   59.2480   29.7580   42.9130 C   0  0  0  0  0  0  0  0  0  0  0  0
   59.3620   31.2370   43.0490 C   0  0  0  0  0  0  0  0  0  0  0  0
   58.0290   31.6650   43.6000 C   0  0  0  0  0  0  0  0  0  0  0  0
  1  9  1  0  0  0  0
  2  7  1  0  0  0  0
  2  1  2  0  0  0  0
  3  2  1  0  0  0  0
  4  3  2  0  0  0  0
  4  5  1  0  0  0  0
  5  6  2  0  0  0  0
  6  1  1  0  0  0  0
  8  3  1  0  0  0  0
  9 14  1  0  0  0  0
 10 11  1  0  0  0  0
 10  9  1  0  0  0  0
 11 18  1  0  0  0  0
 11 12  1  0  0  0  0
 12 20  1  0  0  0  0
 12 13  1  0  0  0  0
 13 23  1  0  0  0  0
 14 24  1  0  0  0  0
 14 13  1  0  0  0  0
 14 25  1  0  0  0  0
 15  9  1  0  0  0  0
 16 10  1  0  0  0  0
 17 10  1  0  0  0  0
 19 11  1  0  0  0  0
 21 12  1  0  0  0  0
 22 13  1  0  0  0  0
 26  5  1  0  0  0  0
 26 30  2  0  0  0  0
 27 28  2  0  0  0  0
 27 26  1  0  0  0  0
 28 29  1  0  0  0  0
 29 32  1  0  0  0  0
 29 30  1  0  0  0  0
 31 28  1  0  0  0  0
 32 35  1  0  0  0  0
 32 34  1  0  0  0  0
 33 32  1  0  0  0  0
 35 36  2  0  0  0  0
 36 37  1  0  0  0  0
 37 38  1  0  0  0  0
 37 39  1  0  0  0  0
 40 44  1  0  0  0  0
 40 37  1  0  0  0  0
 41 42  1  0  0  0  0
 41 40  1  0  0  0  0
 42 43  1  0  0  0  0
 43 44  1  0  0  0  0
M  END
>  <minimizedAffinity>
-4.22627115

>  <minimizedRMSD>
1.49657571

$$$$
