
 OpenBabel03252504453D

 17 18  0  0  0  0  0  0  0  0999 V2000
   45.4410   34.6310   44.7350 C   0  0  0  0  0  0  0  0  0  0  0  0
   46.3590   34.3540   43.7000 C   0  0  0  0  0  0  0  0  0  0  0  0
   47.2220   33.2510   43.8870 C   0  0  0  0  0  0  0  0  0  0  0  0
   47.1140   32.5350   45.0360 N   0  0  0  0  0  0  0  0  0  0  0  0
   46.2010   32.8540   46.0030 C   0  0  0  0  0  0  0  0  0  0  0  0
   45.3740   33.9010   45.8400 N   0  0  0  0  0  0  0  0  0  0  0  0
   46.4190   34.9450   42.7980 H   0  0  0  0  0  0  0  0  0  0  0  0
   47.9400   33.0010   43.1210 H   0  0  0  0  0  0  0  0  0  0  0  0
   46.1660   32.0230   47.1970 C   0  0  0  0  0  0  0  0  0  0  0  0
   45.5750   30.6630   47.0110 C   0  0  0  0  0  0  0  0  0  0  0  0
   45.5670   30.1570   48.4430 C   0  0  0  0  0  0  0  0  0  0  0  0
   45.4120   31.3920   49.3100 C   0  0  0  0  0  0  0  0  0  0  0  0
   45.3240   32.5630   48.3320 C   0  0  0  0  0  0  0  0  0  0  0  0
   44.5310   35.8060   44.5250 C   0  0  0  0  0  0  0  0  0  0  0  0
   43.6780   35.6860   45.2370 H   0  0  0  0  0  0  0  0  0  0  0  0
   44.1890   35.7990   43.4700 H   0  0  0  0  0  0  0  0  0  0  0  0
   45.1280   36.7110   44.7430 H   0  0  0  0  0  0  0  0  0  0  0  0
  1  6  1  0  0  0  0
  2  3  1  0  0  0  0
  2  1  2  0  0  0  0
  3  4  2  0  0  0  0
  4  5  1  0  0  0  0
  5  9  1  0  0  0  0
  6  5  2  0  0  0  0
  7  2  1  0  0  0  0
  8  3  1  0  0  0  0
  9 13  1  0  0  0  0
 10  9  1  0  0  0  0
 10 11  1  0  0  0  0
 11 12  1  0  0  0  0
 13 12  1  0  0  0  0
 14  1  1  0  0  0  0
 14 17  1  0  0  0  0
 14 15  1  0  0  0  0
 16 14  1  0  0  0  0
M  END
>  <minimizedAffinity>
-4.39220762

>  <minimizedRMSD>
1.72792733

$$$$
