
 OpenBabel03252508543D

 39 42  0  0  1  0  0  0  0  0999 V2000
   43.3080   34.5040   40.7710 C   0  0  0  0  0  0  0  0  0  0  0  0
   43.2830   35.7200   40.4320 O   0  0  0  0  0  0  0  0  0  0  0  0
   41.9310   34.1260   40.4800 N   0  0  0  0  0  0  0  0  0  0  0  0
   41.5430   34.3110   39.0870 C   0  0  0  0  0  0  0  0  0  0  0  0
   40.7740   35.6250   39.0600 C   0  0  0  0  0  0  0  0  0  0  0  0
   40.0010   35.7110   40.3760 C   0  0  0  0  0  0  0  0  0  0  0  0
   39.6280   34.3310   40.8840 C   0  0  0  0  0  0  0  0  0  0  0  0
   40.9070   33.6040   41.3560 C   0  0  1  0  0  0  0  0  0  0  0  0
   42.4040   34.3070   38.4030 H   0  0  0  0  0  0  0  0  0  0  0  0
   40.8530   33.4680   38.7990 H   0  0  0  0  0  0  0  0  0  0  0  0
   40.0910   35.6880   38.1960 H   0  0  0  0  0  0  0  0  0  0  0  0
   41.5110   36.4620   39.0340 H   0  0  0  0  0  0  0  0  0  0  0  0
   39.0690   36.2380   40.1450 H   0  0  0  0  0  0  0  0  0  0  0  0
   40.5380   36.3120   41.1400 H   0  0  0  0  0  0  0  0  0  0  0  0
   39.1380   33.8000   40.0560 H   0  0  0  0  0  0  0  0  0  0  0  0
   38.9670   34.5190   41.7650 H   0  0  0  0  0  0  0  0  0  0  0  0
   41.0660   33.8980   42.4020 H   0  0  0  0  0  0  0  0  0  0  0  0
   40.6120   32.1440   41.1810 C   0  0  0  0  0  3  0  0  0  0  0  0
   40.6770   31.3160   42.4130 C   0  0  0  0  0  2  0  0  0  0  0  0
   39.8540   30.0800   42.0190 C   0  0  0  0  0  2  0  0  0  0  0  0
   38.6270   30.7710   41.4460 C   0  0  0  0  0  2  0  0  0  0  0  0
   39.1290   32.0550   40.8180 C   0  0  0  0  0  2  0  0  0  0  0  0
   44.3600   33.7750   41.2700 O   0  0  0  0  0  0  0  0  0  0  0  0
   45.6940   34.0660   41.1160 C   0  0  0  0  0  0  0  0  0  0  0  0
   46.3530   34.6920   42.1920 C   0  0  0  0  0  0  0  0  0  0  0  0
   47.7090   34.9760   42.0040 C   0  0  0  0  0  0  0  0  0  0  0  0
   48.3100   34.6470   40.8290 N   0  0  0  0  0  0  0  0  0  0  0  0
   47.6360   34.0550   39.8430 C   0  0  0  0  0  0  0  0  0  0  0  0
   46.3270   33.7650   39.9860 N   0  0  0  0  0  0  0  0  0  0  0  0
   48.2210   35.4600   42.8380 H   0  0  0  0  0  0  0  0  0  0  0  0
   48.1010   33.7870   38.9000 H   0  0  0  0  0  0  0  0  0  0  0  0
   45.6340   35.0020   43.3990 C   0  0  0  0  0  0  0  0  0  0  0  0
   45.0240   36.2380   43.6220 C   0  0  0  0  0  0  0  0  0  0  0  0
   44.4610   36.1080   44.8720 C   0  0  0  0  0  0  0  0  0  0  0  0
   44.7050   34.8860   45.3750 N   0  0  0  0  0  0  0  0  0  0  0  0
   45.4080   34.2480   44.4720 N   0  0  0  0  0  0  0  0  0  0  0  0
   44.9990   37.0970   42.9720 H   0  0  0  0  0  0  0  0  0  0  0  0
   43.9020   36.9220   45.3400 H   0  0  0  0  0  0  0  0  0  0  0  0
   44.3520   34.5960   46.3300 H   0  0  0  0  0  0  0  0  0  0  0  0
  1 23  1  0  0  0  0
  2  1  2  0  0  0  0
  3  1  1  0  0  0  0
  3  8  1  0  0  0  0
  4  3  1  0  0  0  0
  5  4  1  0  0  0  0
  5  6  1  0  0  0  0
  6  7  1  0  0  0  0
  6 14  1  0  0  0  0
  7  8  1  0  0  0  0
  7 16  1  0  0  0  0
  8 17  1  1  0  0  0
  9  4  1  0  0  0  0
 10  4  1  0  0  0  0
 11  5  1  0  0  0  0
 12  5  1  0  0  0  0
 13  6  1  0  0  0  0
 15  7  1  0  0  0  0
 18  8  1  0  0  0  0
 18 19  1  0  0  0  0
 20 19  1  0  0  0  0
 21 20  1  0  0  0  0
 22 18  1  0  0  0  0
 22 21  1  0  0  0  0
 24 23  1  0  0  0  0
 24 25  1  0  0  0  0
 25 32  1  0  0  0  0
 26 25  2  0  0  0  0
 26 30  1  0  0  0  0
 27 26  1  0  0  0  0
 28 29  1  0  0  0  0
 28 27  2  0  0  0  0
 29 24  2  0  0  0  0
 31 28  1  0  0  0  0
 32 33  1  0  0  0  0
 32 36  2  0  0  0  0
 33 34  2  0  0  0  0
 34 38  1  0  0  0  0
 34 35  1  0  0  0  0
 35 39  1  0  0  0  0
 36 35  1  0  0  0  0
 37 33  1  0  0  0  0
M  END
>  <minimizedAffinity>
-6.78717947

>  <minimizedRMSD>
0.365602821

$$$$
