
 OpenBabel03242519333D

 44 47  0  0  0  0  0  0  0  0999 V2000
   41.1510   34.5990   40.5170 C   0  0  0  0  0  0  0  0  0  0  0  0
   40.5760   35.8990   40.3910 C   0  0  0  0  0  0  0  0  0  0  0  0
   39.2130   36.0350   40.1070 C   0  0  0  0  0  0  0  0  0  0  0  0
   38.5000   34.8750   39.9630 N   0  0  0  0  0  0  0  0  0  0  0  0
   39.0930   33.6460   40.0920 C   0  0  0  0  0  0  0  0  0  0  0  0
   40.3820   33.5370   40.3620 N   0  0  0  0  0  0  0  0  0  0  0  0
   41.0900   36.8460   40.4930 H   0  0  0  0  0  0  0  0  0  0  0  0
   38.7460   36.9920   40.0040 H   0  0  0  0  0  0  0  0  0  0  0  0
   42.5830   34.6030   40.8120 C   0  0  0  0  0  0  0  0  0  0  0  0
   43.1690   33.3090   41.0580 C   0  0  0  0  0  0  0  0  0  0  0  0
   43.6290   33.0900   42.4410 C   0  0  0  0  0  0  0  0  0  0  0  0
   44.6150   34.1750   42.8720 C   0  0  0  0  0  0  0  0  0  0  0  0
   44.2170   35.5480   42.4490 C   0  0  0  0  0  0  0  0  0  0  0  0
   42.7550   35.5880   42.0170 C   0  0  0  0  0  0  0  0  0  0  0  0
   43.1000   35.1760   39.9870 H   0  0  0  0  0  0  0  0  0  0  0  0
   42.4280   32.4930   40.8190 H   0  0  0  0  0  0  0  0  0  0  0  0
   44.0310   33.1280   40.3760 H   0  0  0  0  0  0  0  0  0  0  0  0
   42.8850   32.9500   43.2190 H   0  0  0  0  0  0  0  0  0  0  0  0
   44.2500   32.1470   42.4410 H   0  0  0  0  0  0  0  0  0  0  0  0
   44.6930   34.0860   43.9840 H   0  0  0  0  0  0  0  0  0  0  0  0
   45.6380   33.9590   42.4630 H   0  0  0  0  0  0  0  0  0  0  0  0
   44.8040   35.8670   41.5590 H   0  0  0  0  0  0  0  0  0  0  0  0
   44.3070   36.3100   43.2450 H   0  0  0  0  0  0  0  0  0  0  0  0
   42.1690   35.2020   42.8770 H   0  0  0  0  0  0  0  0  0  0  0  0
   42.5050   36.6080   41.7190 H   0  0  0  0  0  0  0  0  0  0  0  0
   38.1730   32.5320   39.9000 C   0  0  0  0  0  0  0  0  0  0  0  0
   37.8010   32.1900   38.6560 N   0  0  0  0  0  0  0  0  0  0  0  0
   36.9470   31.1380   38.7260 C   0  0  0  0  0  0  0  0  0  0  0  0
   36.8010   30.8390   40.0320 N   0  0  0  0  0  0  0  0  0  0  0  0
   37.5410   31.6800   40.7730 N   0  0  0  0  0  0  0  0  0  0  0  0
   36.4530   30.6060   37.9250 H   0  0  0  0  0  0  0  0  0  0  0  0
   36.0010   29.7940   40.6220 C   0  0  0  0  0  0  0  0  0  0  0  0
   35.7140   29.1280   39.8260 H   0  0  0  0  0  0  0  0  0  0  0  0
   35.0530   30.2380   41.0190 H   0  0  0  0  0  0  0  0  0  0  0  0
   36.7460   29.1140   41.6770 C   0  0  0  0  0  3  0  0  0  0  0  0
   36.5740   28.0180   42.3830 C   0  0  0  0  0  3  0  0  0  0  0  0
   37.4930   27.3940   43.4330 C   0  0  0  0  0  0  0  0  0  0  0  0
   36.9800   26.4570   43.7440 H   0  0  0  0  0  0  0  0  0  0  0  0
   37.5280   28.1160   44.2420 H   0  0  0  0  0  0  0  0  0  0  0  0
   38.8370   27.0190   42.8840 C   0  0  0  0  0  3  0  0  0  0  0  0
   38.6440   26.0070   41.7440 C   0  0  0  0  0  2  0  0  0  0  0  0
   38.7310   24.6600   42.4700 C   0  0  0  0  0  2  0  0  0  0  0  0
   39.8920   24.8930   43.3750 C   0  0  0  0  0  2  0  0  0  0  0  0
   39.7020   26.3020   43.8690 C   0  0  0  0  0  2  0  0  0  0  0  0
  1  9  1  0  0  0  0
  2  7  1  0  0  0  0
  2  1  1  0  0  0  0
  3  2  2  0  0  0  0
  4  5  2  0  0  0  0
  4  3  1  0  0  0  0
  5  6  1  0  0  0  0
  6  1  2  0  0  0  0
  8  3  1  0  0  0  0
  9 10  1  0  0  0  0
  9 14  1  0  0  0  0
 10 11  1  0  0  0  0
 11 19  1  0  0  0  0
 11 12  1  0  0  0  0
 11 18  1  0  0  0  0
 12 20  1  0  0  0  0
 13 12  1  0  0  0  0
 13 23  1  0  0  0  0
 14 13  1  0  0  0  0
 14 24  1  0  0  0  0
 15  9  1  0  0  0  0
 16 10  1  0  0  0  0
 17 10  1  0  0  0  0
 21 12  1  0  0  0  0
 22 13  1  0  0  0  0
 25 14  1  0  0  0  0
 26  5  1  0  0  0  0
 26 30  2  0  0  0  0
 27 28  2  0  0  0  0
 27 26  1  0  0  0  0
 28 29  1  0  0  0  0
 29 32  1  0  0  0  0
 29 30  1  0  0  0  0
 31 28  1  0  0  0  0
 32 34  1  0  0  0  0
 32 35  1  0  0  0  0
 33 32  1  0  0  0  0
 35 36  2  0  0  0  0
 36 37  1  0  0  0  0
 37 38  1  0  0  0  0
 37 39  1  0  0  0  0
 40 37  1  0  0  0  0
 40 44  1  0  0  0  0
 41 42  1  0  0  0  0
 41 40  1  0  0  0  0
 42 43  1  0  0  0  0
 43 44  1  0  0  0  0
M  END
>  <minimizedAffinity>
-6.58293915

$$$$

 OpenBabel03242519333D

 44 47  0  0  0  0  0  0  0  0999 V2000
   40.8450   34.2270   39.2690 C   0  0  0  0  0  0  0  0  0  0  0  0
   40.4350   35.3210   40.0880 C   0  0  0  0  0  0  0  0  0  0  0  0
   39.1810   35.2950   40.7090 C   0  0  0  0  0  0  0  0  0  0  0  0
   38.4080   34.1880   40.4810 N   0  0  0  0  0  0  0  0  0  0  0  0
   38.8420   33.1600   39.6850 C   0  0  0  0  0  0  0  0  0  0  0  0
   40.0300   33.2010   39.1080 N   0  0  0  0  0  0  0  0  0  0  0  0
   41.0020   36.2170   40.3010 H   0  0  0  0  0  0  0  0  0  0  0  0
   38.8380   36.0970   41.3300 H   0  0  0  0  0  0  0  0  0  0  0  0
   42.1740   34.3840   38.6790 C   0  0  0  0  0  0  0  0  0  0  0  0
   42.3520   33.7860   37.3800 C   0  0  0  0  0  0  0  0  0  0  0  0
   43.2750   32.6380   37.3470 C   0  0  0  0  0  0  0  0  0  0  0  0
   44.6430   33.0150   37.9150 C   0  0  0  0  0  0  0  0  0  0  0  0
   44.5700   33.8530   39.1450 C   0  0  0  0  0  0  0  0  0  0  0  0
   43.1700   33.8240   39.7490 C   0  0  0  0  0  0  0  0  0  0  0  0
   42.4290   35.4850   38.7020 H   0  0  0  0  0  0  0  0  0  0  0  0
   41.3610   33.4290   36.9750 H   0  0  0  0  0  0  0  0  0  0  0  0
   42.7130   34.5390   36.6430 H   0  0  0  0  0  0  0  0  0  0  0  0
   42.9510   31.6990   37.7850 H   0  0  0  0  0  0  0  0  0  0  0  0
   43.4870   32.4110   36.2620 H   0  0  0  0  0  0  0  0  0  0  0  0
   45.1700   32.0460   38.0980 H   0  0  0  0  0  0  0  0  0  0  0  0
   45.2480   33.5650   37.1450 H   0  0  0  0  0  0  0  0  0  0  0  0
   44.7720   34.9200   38.9030 H   0  0  0  0  0  0  0  0  0  0  0  0
   45.2450   33.5230   39.9570 H   0  0  0  0  0  0  0  0  0  0  0  0
   42.9340   32.7530   39.9260 H   0  0  0  0  0  0  0  0  0  0  0  0
   43.1620   34.4450   40.6460 H   0  0  0  0  0  0  0  0  0  0  0  0
   37.8780   32.0740   39.5600 C   0  0  0  0  0  0  0  0  0  0  0  0
   37.6030   31.5730   38.3460 N   0  0  0  0  0  0  0  0  0  0  0  0
   36.6840   30.5830   38.4760 C   0  0  0  0  0  0  0  0  0  0  0  0
   36.4000   30.4840   39.7900 N   0  0  0  0  0  0  0  0  0  0  0  0
   37.1180   31.3880   40.4770 N   0  0  0  0  0  0  0  0  0  0  0  0
   36.2350   29.9640   37.7120 H   0  0  0  0  0  0  0  0  0  0  0  0
   35.4870   29.5740   40.4370 C   0  0  0  0  0  0  0  0  0  0  0  0
   34.7640   29.2730   39.6990 H   0  0  0  0  0  0  0  0  0  0  0  0
   34.9190   30.1250   41.2290 H   0  0  0  0  0  0  0  0  0  0  0  0
   36.2120   28.4400   41.0030 C   0  0  0  0  0  3  0  0  0  0  0  0
   36.5370   28.0520   42.2170 C   0  0  0  0  0  3  0  0  0  0  0  0
   37.2640   26.7820   42.6600 C   0  0  0  0  0  0  0  0  0  0  0  0
   36.8420   25.9730   42.0240 H   0  0  0  0  0  0  0  0  0  0  0  0
   36.9930   26.6510   43.7030 H   0  0  0  0  0  0  0  0  0  0  0  0
   38.7410   26.8370   42.4110 C   0  0  0  0  0  3  0  0  0  0  0  0
   39.1980   25.4910   41.8300 C   0  0  0  0  0  2  0  0  0  0  0  0
   39.5910   24.6990   43.0820 C   0  0  0  0  0  2  0  0  0  0  0  0
   40.3430   25.7300   43.8520 C   0  0  0  0  0  2  0  0  0  0  0  0
   39.5490   26.9940   43.6580 C   0  0  0  0  0  2  0  0  0  0  0  0
  1  2  1  0  0  0  0
  2  7  1  0  0  0  0
  2  3  2  0  0  0  0
  3  8  1  0  0  0  0
  4  3  1  0  0  0  0
  5  4  2  0  0  0  0
  6  1  2  0  0  0  0
  6  5  1  0  0  0  0
  9 15  1  0  0  0  0
  9  1  1  0  0  0  0
  9 14  1  0  0  0  0
 10  9  1  0  0  0  0
 11 10  1  0  0  0  0
 11 18  1  0  0  0  0
 11 12  1  0  0  0  0
 12 20  1  0  0  0  0
 12 13  1  0  0  0  0
 13 14  1  0  0  0  0
 13 23  1  0  0  0  0
 14 24  1  0  0  0  0
 14 25  1  0  0  0  0
 16 10  1  0  0  0  0
 17 10  1  0  0  0  0
 19 11  1  0  0  0  0
 21 12  1  0  0  0  0
 22 13  1  0  0  0  0
 26  5  1  0  0  0  0
 26 30  2  0  0  0  0
 27 28  2  0  0  0  0
 27 26  1  0  0  0  0
 28 29  1  0  0  0  0
 29 32  1  0  0  0  0
 29 30  1  0  0  0  0
 31 28  1  0  0  0  0
 32 35  1  0  0  0  0
 32 34  1  0  0  0  0
 33 32  1  0  0  0  0
 35 36  2  0  0  0  0
 36 37  1  0  0  0  0
 37 39  1  0  0  0  0
 38 37  1  0  0  0  0
 40 37  1  0  0  0  0
 40 44  1  0  0  0  0
 41 40  1  0  0  0  0
 41 42  1  0  0  0  0
 42 43  1  0  0  0  0
 44 43  1  0  0  0  0
M  END
>  <minimizedAffinity>
-6.36042452

$$$$

 OpenBabel03242519333D

 44 47  0  0  0  0  0  0  0  0999 V2000
   38.2860   28.3860   42.4780 C   0  0  0  0  0  0  0  0  0  0  0  0
   37.0090   27.8180   42.1900 C   0  0  0  0  0  0  0  0  0  0  0  0
   36.0750   28.5460   41.4440 C   0  0  0  0  0  0  0  0  0  0  0  0
   36.4600   29.7920   41.0290 N   0  0  0  0  0  0  0  0  0  0  0  0
   37.6980   30.2990   41.3300 C   0  0  0  0  0  0  0  0  0  0  0  0
   38.5680   29.5970   42.0350 N   0  0  0  0  0  0  0  0  0  0  0  0
   36.6530   26.8430   42.4910 H   0  0  0  0  0  0  0  0  0  0  0  0
   35.1070   28.1540   41.2070 H   0  0  0  0  0  0  0  0  0  0  0  0
   39.1620   27.5220   43.2670 C   0  0  0  0  0  0  0  0  0  0  0  0
   40.5610   27.8710   43.2480 C   0  0  0  0  0  0  0  0  0  0  0  0
   41.4330   26.9000   42.5640 C   0  0  0  0  0  0  0  0  0  0  0  0
   41.2760   25.5030   43.1630 C   0  0  0  0  0  0  0  0  0  0  0  0
   39.8620   25.1300   43.4510 C   0  0  0  0  0  0  0  0  0  0  0  0
   38.8910   26.0700   42.7460 C   0  0  0  0  0  0  0  0  0  0  0  0
   38.7330   27.4610   44.3100 H   0  0  0  0  0  0  0  0  0  0  0  0
   40.7070   28.8680   42.7390 H   0  0  0  0  0  0  0  0  0  0  0  0
   40.9480   28.0130   44.2820 H   0  0  0  0  0  0  0  0  0  0  0  0
   41.3890   26.8350   41.4820 H   0  0  0  0  0  0  0  0  0  0  0  0
   42.5000   27.1800   42.8090 H   0  0  0  0  0  0  0  0  0  0  0  0
   41.7510   24.8060   42.4280 H   0  0  0  0  0  0  0  0  0  0  0  0
   41.8680   25.4150   44.1130 H   0  0  0  0  0  0  0  0  0  0  0  0
   39.6460   25.2320   44.5380 H   0  0  0  0  0  0  0  0  0  0  0  0
   39.5840   24.1150   43.1120 H   0  0  0  0  0  0  0  0  0  0  0  0
   39.1500   26.0280   41.6670 H   0  0  0  0  0  0  0  0  0  0  0  0
   37.8700   25.7620   42.9800 H   0  0  0  0  0  0  0  0  0  0  0  0
   37.9200   31.6410   40.8060 C   0  0  0  0  0  0  0  0  0  0  0  0
   37.0170   32.1820   39.9740 N   0  0  0  0  0  0  0  0  0  0  0  0
   37.4340   33.4240   39.6180 C   0  0  0  0  0  0  0  0  0  0  0  0
   38.6080   33.6360   40.2470 N   0  0  0  0  0  0  0  0  0  0  0  0
   38.9290   32.5570   40.9810 N   0  0  0  0  0  0  0  0  0  0  0  0
   36.9600   34.1420   38.9650 H   0  0  0  0  0  0  0  0  0  0  0  0
   39.4450   34.8090   40.1970 C   0  0  0  0  0  0  0  0  0  0  0  0
   38.9850   35.5540   40.8230 H   0  0  0  0  0  0  0  0  0  0  0  0
   39.4360   35.2220   39.1570 H   0  0  0  0  0  0  0  0  0  0  0  0
   40.8040   34.4860   40.6220 C   0  0  0  0  0  3  0  0  0  0  0  0
   42.0000   34.5910   40.0850 C   0  0  0  0  0  3  0  0  0  0  0  0
   43.3620   34.2560   40.6920 C   0  0  0  0  0  0  0  0  0  0  0  0
   44.0640   34.9980   40.2520 H   0  0  0  0  0  0  0  0  0  0  0  0
   43.5820   33.2490   40.3530 H   0  0  0  0  0  0  0  0  0  0  0  0
   43.3940   34.4230   42.1820 C   0  0  0  0  0  3  0  0  0  0  0  0
   43.6310   35.9050   42.5110 C   0  0  0  0  0  2  0  0  0  0  0  0
   45.1580   35.9860   42.6190 C   0  0  0  0  0  2  0  0  0  0  0  0
   45.4580   34.7570   43.4060 C   0  0  0  0  0  2  0  0  0  0  0  0
   44.5360   33.7140   42.8350 C   0  0  0  0  0  2  0  0  0  0  0  0
  1  9  1  0  0  0  0
  2  1  1  0  0  0  0
  2  7  1  0  0  0  0
  3  2  2  0  0  0  0
  4  5  2  0  0  0  0
  4  3  1  0  0  0  0
  5  6  1  0  0  0  0
  6  1  2  0  0  0  0
  8  3  1  0  0  0  0
  9 15  1  0  0  0  0
 10  9  1  0  0  0  0
 10 17  1  0  0  0  0
 11 19  1  0  0  0  0
 11 12  1  0  0  0  0
 11 10  1  0  0  0  0
 12 13  1  0  0  0  0
 12 21  1  0  0  0  0
 13 22  1  0  0  0  0
 14 25  1  0  0  0  0
 14  9  1  0  0  0  0
 14 13  1  0  0  0  0
 16 10  1  0  0  0  0
 18 11  1  0  0  0  0
 20 12  1  0  0  0  0
 23 13  1  0  0  0  0
 24 14  1  0  0  0  0
 26 30  2  0  0  0  0
 26  5  1  0  0  0  0
 27 26  1  0  0  0  0
 28 27  2  0  0  0  0
 28 29  1  0  0  0  0
 29 30  1  0  0  0  0
 31 28  1  0  0  0  0
 32 29  1  0  0  0  0
 32 35  1  0  0  0  0
 32 33  1  0  0  0  0
 34 32  1  0  0  0  0
 36 35  2  0  0  0  0
 36 37  1  0  0  0  0
 37 40  1  0  0  0  0
 38 37  1  0  0  0  0
 39 37  1  0  0  0  0
 40 41  1  0  0  0  0
 40 44  1  0  0  0  0
 41 42  1  0  0  0  0
 42 43  1  0  0  0  0
 44 43  1  0  0  0  0
M  END
>  <minimizedAffinity>
-6.28661776

$$$$

 OpenBabel03242519333D

 44 47  0  0  0  0  0  0  0  0999 V2000
   41.1300   34.4120   39.2930 C   0  0  0  0  0  0  0  0  0  0  0  0
   40.6350   35.6970   39.6660 C   0  0  0  0  0  0  0  0  0  0  0  0
   39.4340   35.8020   40.3770 C   0  0  0  0  0  0  0  0  0  0  0  0
   38.7950   34.6290   40.6750 N   0  0  0  0  0  0  0  0  0  0  0  0
   39.3070   33.4150   40.2960 C   0  0  0  0  0  0  0  0  0  0  0  0
   40.4430   33.3350   39.6250 N   0  0  0  0  0  0  0  0  0  0  0  0
   41.0960   36.6530   39.4570 H   0  0  0  0  0  0  0  0  0  0  0  0
   39.0300   36.7480   40.6750 H   0  0  0  0  0  0  0  0  0  0  0  0
   42.3900   34.4470   38.5520 C   0  0  0  0  0  0  0  0  0  0  0  0
   42.4030   33.7090   37.3140 C   0  0  0  0  0  0  0  0  0  0  0  0
   43.2780   32.5230   37.3090 C   0  0  0  0  0  0  0  0  0  0  0  0
   44.7120   32.8950   37.6830 C   0  0  0  0  0  0  0  0  0  0  0  0
   44.8040   33.8590   38.8160 C   0  0  0  0  0  0  0  0  0  0  0  0
   43.4790   33.9570   39.5640 C   0  0  0  0  0  0  0  0  0  0  0  0
   42.6830   35.5310   38.4270 H   0  0  0  0  0  0  0  0  0  0  0  0
   41.3620   33.3570   37.0580 H   0  0  0  0  0  0  0  0  0  0  0  0
   42.7050   34.3630   36.4650 H   0  0  0  0  0  0  0  0  0  0  0  0
   42.9730   31.6500   37.8770 H   0  0  0  0  0  0  0  0  0  0  0  0
   43.3610   32.1740   36.2380 H   0  0  0  0  0  0  0  0  0  0  0  0
   45.2230   31.9270   37.9140 H   0  0  0  0  0  0  0  0  0  0  0  0
   45.2460   33.3340   36.7980 H   0  0  0  0  0  0  0  0  0  0  0  0
   45.0140   34.8850   38.4390 H   0  0  0  0  0  0  0  0  0  0  0  0
   45.5530   33.5860   39.5820 H   0  0  0  0  0  0  0  0  0  0  0  0
   43.2280   32.9220   39.8810 H   0  0  0  0  0  0  0  0  0  0  0  0
   43.5910   34.6680   40.3840 H   0  0  0  0  0  0  0  0  0  0  0  0
   38.4820   32.2840   40.7000 C   0  0  0  0  0  0  0  0  0  0  0  0
   37.2080   32.2140   40.2840 N   0  0  0  0  0  0  0  0  0  0  0  0
   36.6420   31.0860   40.7830 C   0  0  0  0  0  0  0  0  0  0  0  0
   37.5910   30.4630   41.5110 N   0  0  0  0  0  0  0  0  0  0  0  0
   38.7280   31.1780   41.4770 N   0  0  0  0  0  0  0  0  0  0  0  0
   35.6360   30.7120   40.6530 H   0  0  0  0  0  0  0  0  0  0  0  0
   37.4830   29.2220   42.2370 C   0  0  0  0  0  0  0  0  0  0  0  0
   36.5420   29.2400   42.7590 H   0  0  0  0  0  0  0  0  0  0  0  0
   38.2790   29.1860   43.0230 H   0  0  0  0  0  0  0  0  0  0  0  0
   37.5930   28.0870   41.3250 C   0  0  0  0  0  3  0  0  0  0  0  0
   36.7490   27.2160   40.8130 C   0  0  0  0  0  3  0  0  0  0  0  0
   37.0130   26.0980   39.8050 C   0  0  0  0  0  0  0  0  0  0  0  0
   38.1210   26.0390   39.7230 H   0  0  0  0  0  0  0  0  0  0  0  0
   36.5630   26.4410   38.8790 H   0  0  0  0  0  0  0  0  0  0  0  0
   36.5170   24.7620   40.2710 C   0  0  0  0  0  3  0  0  0  0  0  0
   36.8450   24.6040   41.7640 C   0  0  0  0  0  2  0  0  0  0  0  0
   38.2150   23.9180   41.7370 C   0  0  0  0  0  2  0  0  0  0  0  0
   38.0070   22.8940   40.6750 C   0  0  0  0  0  2  0  0  0  0  0  0
   37.2090   23.6100   39.6180 C   0  0  0  0  0  2  0  0  0  0  0  0
  1  6  2  0  0  0  0
  1  2  1  0  0  0  0
  2  3  2  0  0  0  0
  3  4  1  0  0  0  0
  3  8  1  0  0  0  0
  5  4  2  0  0  0  0
  5 26  1  0  0  0  0
  6  5  1  0  0  0  0
  7  2  1  0  0  0  0
  9  1  1  0  0  0  0
  9 14  1  0  0  0  0
 10  9  1  0  0  0  0
 11 10  1  0  0  0  0
 11 12  1  0  0  0  0
 11 18  1  0  0  0  0
 12 20  1  0  0  0  0
 12 13  1  0  0  0  0
 13 14  1  0  0  0  0
 13 23  1  0  0  0  0
 14 24  1  0  0  0  0
 14 25  1  0  0  0  0
 15  9  1  0  0  0  0
 16 10  1  0  0  0  0
 17 10  1  0  0  0  0
 19 11  1  0  0  0  0
 21 12  1  0  0  0  0
 22 13  1  0  0  0  0
 26 30  2  0  0  0  0
 27 26  1  0  0  0  0
 27 28  2  0  0  0  0
 28 29  1  0  0  0  0
 29 32  1  0  0  0  0
 30 29  1  0  0  0  0
 31 28  1  0  0  0  0
 32 33  1  0  0  0  0
 32 34  1  0  0  0  0
 35 32  1  0  0  0  0
 36 35  2  0  0  0  0
 37 40  1  0  0  0  0
 37 36  1  0  0  0  0
 38 37  1  0  0  0  0
 39 37  1  0  0  0  0
 40 41  1  0  0  0  0
 42 41  1  0  0  0  0
 43 42  1  0  0  0  0
 44 40  1  0  0  0  0
 44 43  1  0  0  0  0
M  END
>  <minimizedAffinity>
-6.24779415

$$$$

 OpenBabel03242519333D

 44 47  0  0  0  0  0  0  0  0999 V2000
   38.7240   32.3640   40.3680 C   0  0  0  0  0  0  0  0  0  0  0  0
   37.3030   32.2850   40.2820 C   0  0  0  0  0  0  0  0  0  0  0  0
   36.6290   31.1940   40.8420 C   0  0  0  0  0  0  0  0  0  0  0  0
   37.4050   30.2450   41.4530 N   0  0  0  0  0  0  0  0  0  0  0  0
   38.7690   30.3600   41.5120 C   0  0  0  0  0  0  0  0  0  0  0  0
   39.3880   31.3990   40.9780 N   0  0  0  0  0  0  0  0  0  0  0  0
   36.6430   33.0020   39.8130 H   0  0  0  0  0  0  0  0  0  0  0  0
   35.5640   31.0990   40.7980 H   0  0  0  0  0  0  0  0  0  0  0  0
   39.2980   33.5530   39.7390 C   0  0  0  0  0  0  0  0  0  0  0  0
   40.7340   33.5570   39.6130 C   0  0  0  0  0  0  0  0  0  0  0  0
   41.4260   34.5580   40.4440 C   0  0  0  0  0  0  0  0  0  0  0  0
   40.8970   35.9650   40.1670 C   0  0  0  0  0  0  0  0  0  0  0  0
   39.4140   36.0310   40.0360 C   0  0  0  0  0  0  0  0  0  0  0  0
   38.7570   34.7630   40.5720 C   0  0  0  0  0  0  0  0  0  0  0  0
   38.7640   33.7110   38.7560 H   0  0  0  0  0  0  0  0  0  0  0  0
   41.1530   32.5460   39.8890 H   0  0  0  0  0  0  0  0  0  0  0  0
   41.0380   33.7190   38.5540 H   0  0  0  0  0  0  0  0  0  0  0  0
   41.4760   34.3970   41.5160 H   0  0  0  0  0  0  0  0  0  0  0  0
   42.4990   34.6000   40.0920 H   0  0  0  0  0  0  0  0  0  0  0  0
   41.2720   36.5980   41.0090 H   0  0  0  0  0  0  0  0  0  0  0  0
   41.3560   36.3770   39.2290 H   0  0  0  0  0  0  0  0  0  0  0  0
   39.1190   36.0940   38.9650 H   0  0  0  0  0  0  0  0  0  0  0  0
   38.9470   36.8610   40.5980 H   0  0  0  0  0  0  0  0  0  0  0  0
   39.1050   34.6550   41.6210 H   0  0  0  0  0  0  0  0  0  0  0  0
   37.6750   34.8540   40.4610 H   0  0  0  0  0  0  0  0  0  0  0  0
   39.4180   29.2500   42.1970 C   0  0  0  0  0  0  0  0  0  0  0  0
   40.7290   29.3230   42.4770 N   0  0  0  0  0  0  0  0  0  0  0  0
   41.1080   28.1840   43.1090 C   0  0  0  0  0  0  0  0  0  0  0  0
   40.0090   27.4100   43.2110 N   0  0  0  0  0  0  0  0  0  0  0  0
   38.9600   28.0400   42.6590 N   0  0  0  0  0  0  0  0  0  0  0  0
   42.0840   27.9000   43.4780 H   0  0  0  0  0  0  0  0  0  0  0  0
   39.8940   26.1030   43.8110 C   0  0  0  0  0  0  0  0  0  0  0  0
   39.1730   26.1820   44.6060 H   0  0  0  0  0  0  0  0  0  0  0  0
   40.8670   25.8340   44.2940 H   0  0  0  0  0  0  0  0  0  0  0  0
   39.5130   25.1130   42.8080 C   0  0  0  0  0  3  0  0  0  0  0  0
   38.3800   24.5730   42.4140 C   0  0  0  0  0  3  0  0  0  0  0  0
   38.1310   23.5710   41.2860 C   0  0  0  0  0  0  0  0  0  0  0  0
   38.1000   22.5780   41.7850 H   0  0  0  0  0  0  0  0  0  0  0  0
   38.9920   23.6620   40.6320 H   0  0  0  0  0  0  0  0  0  0  0  0
   36.8140   23.7790   40.6010 C   0  0  0  0  0  3  0  0  0  0  0  0
   36.8090   22.9900   39.2830 C   0  0  0  0  0  2  0  0  0  0  0  0
   37.3280   24.0180   38.2720 C   0  0  0  0  0  2  0  0  0  0  0  0
   36.5660   25.2330   38.6780 C   0  0  0  0  0  2  0  0  0  0  0  0
   36.5770   25.1940   40.1830 C   0  0  0  0  0  2  0  0  0  0  0  0
  1  6  1  0  0  0  0
  2  1  2  0  0  0  0
  2  3  1  0  0  0  0
  3  4  2  0  0  0  0
  4  5  1  0  0  0  0
  5 26  1  0  0  0  0
  6  5  2  0  0  0  0
  7  2  1  0  0  0  0
  8  3  1  0  0  0  0
  9  1  1  0  0  0  0
  9 14  1  0  0  0  0
 10  9  1  0  0  0  0
 10 16  1  0  0  0  0
 10 11  1  0  0  0  0
 11 18  1  0  0  0  0
 12 11  1  0  0  0  0
 12 20  1  0  0  0  0
 13 12  1  0  0  0  0
 13 14  1  0  0  0  0
 13 23  1  0  0  0  0
 14 24  1  0  0  0  0
 15  9  1  0  0  0  0
 17 10  1  0  0  0  0
 19 11  1  0  0  0  0
 21 12  1  0  0  0  0
 22 13  1  0  0  0  0
 25 14  1  0  0  0  0
 26 27  1  0  0  0  0
 26 30  2  0  0  0  0
 27 28  2  0  0  0  0
 28 29  1  0  0  0  0
 28 31  1  0  0  0  0
 29 32  1  0  0  0  0
 30 29  1  0  0  0  0
 32 34  1  0  0  0  0
 32 33  1  0  0  0  0
 35 32  1  0  0  0  0
 36 35  2  0  0  0  0
 37 38  1  0  0  0  0
 37 36  1  0  0  0  0
 39 37  1  0  0  0  0
 40 37  1  0  0  0  0
 41 40  1  0  0  0  0
 42 43  1  0  0  0  0
 42 41  1  0  0  0  0
 43 44  1  0  0  0  0
 44 40  1  0  0  0  0
M  END
>  <minimizedAffinity>
-5.95345497

$$$$

 OpenBabel03242519333D

 44 47  0  0  0  0  0  0  0  0999 V2000
   40.1800   32.7760   40.1600 C   0  0  0  0  0  0  0  0  0  0  0  0
   40.9030   33.9970   40.0070 C   0  0  0  0  0  0  0  0  0  0  0  0
   42.0870   34.2010   40.7240 C   0  0  0  0  0  0  0  0  0  0  0  0
   42.4850   33.1840   41.5500 N   0  0  0  0  0  0  0  0  0  0  0  0
   41.7590   32.0270   41.6680 C   0  0  0  0  0  0  0  0  0  0  0  0
   40.6430   31.8520   40.9820 N   0  0  0  0  0  0  0  0  0  0  0  0
   40.6360   34.8310   39.3720 H   0  0  0  0  0  0  0  0  0  0  0  0
   42.6570   35.1030   40.6360 H   0  0  0  0  0  0  0  0  0  0  0  0
   38.9610   32.6960   39.3570 C   0  0  0  0  0  0  0  0  0  0  0  0
   37.7260   32.7190   40.1000 C   0  0  0  0  0  0  0  0  0  0  0  0
   36.9580   31.4620   40.0640 C   0  0  0  0  0  0  0  0  0  0  0  0
   36.6680   31.0340   38.6260 C   0  0  0  0  0  0  0  0  0  0  0  0
   37.8290   31.2010   37.7060 C   0  0  0  0  0  0  0  0  0  0  0  0
   39.1240   31.4050   38.4860 C   0  0  0  0  0  0  0  0  0  0  0  0
   39.0200   33.5000   38.5660 H   0  0  0  0  0  0  0  0  0  0  0  0
   37.9260   32.9580   41.1840 H   0  0  0  0  0  0  0  0  0  0  0  0
   37.0620   33.5380   39.7400 H   0  0  0  0  0  0  0  0  0  0  0  0
   37.3310   30.6110   40.6250 H   0  0  0  0  0  0  0  0  0  0  0  0
   35.9360   31.6830   40.4910 H   0  0  0  0  0  0  0  0  0  0  0  0
   36.3350   29.9680   38.6910 H   0  0  0  0  0  0  0  0  0  0  0  0
   35.8000   31.6140   38.2130 H   0  0  0  0  0  0  0  0  0  0  0  0
   37.7040   32.1140   37.0830 H   0  0  0  0  0  0  0  0  0  0  0  0
   38.0170   30.3290   37.0520 H   0  0  0  0  0  0  0  0  0  0  0  0
   39.2170   30.5310   39.1630 H   0  0  0  0  0  0  0  0  0  0  0  0
   39.9460   31.5200   37.7770 H   0  0  0  0  0  0  0  0  0  0  0  0
   42.3400   31.0680   42.5980 C   0  0  0  0  0  0  0  0  0  0  0  0
   43.1950   31.4950   43.5390 N   0  0  0  0  0  0  0  0  0  0  0  0
   43.6030   30.4340   44.2790 C   0  0  0  0  0  0  0  0  0  0  0  0
   42.9830   29.3470   43.7760 N   0  0  0  0  0  0  0  0  0  0  0  0
   42.2040   29.7080   42.7440 N   0  0  0  0  0  0  0  0  0  0  0  0
   44.2870   30.4070   45.1160 H   0  0  0  0  0  0  0  0  0  0  0  0
   43.0830   27.9790   44.2240 C   0  0  0  0  0  0  0  0  0  0  0  0
   43.1360   28.0000   45.2980 H   0  0  0  0  0  0  0  0  0  0  0  0
   44.0530   27.5470   43.8690 H   0  0  0  0  0  0  0  0  0  0  0  0
   41.9500   27.1980   43.7360 C   0  0  0  0  0  3  0  0  0  0  0  0
   40.7610   26.8880   44.2050 C   0  0  0  0  0  3  0  0  0  0  0  0
   39.6400   26.0930   43.5360 C   0  0  0  0  0  0  0  0  0  0  0  0
   39.0240   25.7000   44.3760 H   0  0  0  0  0  0  0  0  0  0  0  0
   40.1410   25.2930   43.0010 H   0  0  0  0  0  0  0  0  0  0  0  0
   38.7520   26.9440   42.6780 C   0  0  0  0  0  3  0  0  0  0  0  0
   38.5080   28.2830   43.3890 C   0  0  0  0  0  2  0  0  0  0  0  0
   37.2260   28.0130   44.1860 C   0  0  0  0  0  2  0  0  0  0  0  0
   36.4060   27.2860   43.1770 C   0  0  0  0  0  2  0  0  0  0  0  0
   37.3840   26.3730   42.4890 C   0  0  0  0  0  2  0  0  0  0  0  0
  1  6  1  0  0  0  0
  2  1  2  0  0  0  0
  2  3  1  0  0  0  0
  3  4  2  0  0  0  0
  4  5  1  0  0  0  0
  5 26  1  0  0  0  0
  6  5  2  0  0  0  0
  7  2  1  0  0  0  0
  8  3  1  0  0  0  0
  9 10  1  0  0  0  0
  9  1  1  0  0  0  0
 10 16  1  0  0  0  0
 11 10  1  0  0  0  0
 11 19  1  0  0  0  0
 11 18  1  0  0  0  0
 12 20  1  0  0  0  0
 12 11  1  0  0  0  0
 13 14  1  0  0  0  0
 13 12  1  0  0  0  0
 14 24  1  0  0  0  0
 14  9  1  0  0  0  0
 15  9  1  0  0  0  0
 17 10  1  0  0  0  0
 21 12  1  0  0  0  0
 22 13  1  0  0  0  0
 23 13  1  0  0  0  0
 25 14  1  0  0  0  0
 26 30  2  0  0  0  0
 26 27  1  0  0  0  0
 27 28  2  0  0  0  0
 28 31  1  0  0  0  0
 29 32  1  0  0  0  0
 29 28  1  0  0  0  0
 30 29  1  0  0  0  0
 32 33  1  0  0  0  0
 34 32  1  0  0  0  0
 35 36  2  0  0  0  0
 35 32  1  0  0  0  0
 37 36  1  0  0  0  0
 37 38  1  0  0  0  0
 39 37  1  0  0  0  0
 40 41  1  0  0  0  0
 40 37  1  0  0  0  0
 41 42  1  0  0  0  0
 43 42  1  0  0  0  0
 44 40  1  0  0  0  0
 44 43  1  0  0  0  0
M  END
>  <minimizedAffinity>
-5.91426373

$$$$

 OpenBabel03242519333D

 44 47  0  0  0  0  0  0  0  0999 V2000
   41.2510   34.4730   40.4300 C   0  0  0  0  0  0  0  0  0  0  0  0
   40.5990   35.7110   40.1460 C   0  0  0  0  0  0  0  0  0  0  0  0
   39.2020   35.7670   40.0880 C   0  0  0  0  0  0  0  0  0  0  0  0
   38.5340   34.5930   40.3150 N   0  0  0  0  0  0  0  0  0  0  0  0
   39.2000   33.4260   40.5840 C   0  0  0  0  0  0  0  0  0  0  0  0
   40.5200   33.3930   40.6350 N   0  0  0  0  0  0  0  0  0  0  0  0
   41.0760   36.6640   39.9590 H   0  0  0  0  0  0  0  0  0  0  0  0
   38.6780   36.6750   39.8770 H   0  0  0  0  0  0  0  0  0  0  0  0
   42.7100   34.5560   40.4570 C   0  0  0  0  0  0  0  0  0  0  0  0
   43.4070   33.3180   40.2150 C   0  0  0  0  0  0  0  0  0  0  0  0
   44.1460   32.7860   41.3740 C   0  0  0  0  0  0  0  0  0  0  0  0
   45.1340   33.8170   41.9170 C   0  0  0  0  0  0  0  0  0  0  0  0
   44.5820   35.2000   41.9820 C   0  0  0  0  0  0  0  0  0  0  0  0
   43.0630   35.1930   41.8440 C   0  0  0  0  0  0  0  0  0  0  0  0
   43.0180   35.3850   39.7540 H   0  0  0  0  0  0  0  0  0  0  0  0
   42.6810   32.5190   39.8860 H   0  0  0  0  0  0  0  0  0  0  0  0
   44.1240   33.4250   39.3700 H   0  0  0  0  0  0  0  0  0  0  0  0
   43.5820   32.3590   42.1970 H   0  0  0  0  0  0  0  0  0  0  0  0
   44.8070   31.9520   40.9940 H   0  0  0  0  0  0  0  0  0  0  0  0
   45.4380   33.4400   42.9260 H   0  0  0  0  0  0  0  0  0  0  0  0
   46.0650   33.8340   41.2900 H   0  0  0  0  0  0  0  0  0  0  0  0
   44.9600   35.8100   41.1320 H   0  0  0  0  0  0  0  0  0  0  0  0
   44.7860   35.7240   42.9340 H   0  0  0  0  0  0  0  0  0  0  0  0
   42.6840   34.5250   42.6460 H   0  0  0  0  0  0  0  0  0  0  0  0
   42.7010   36.2210   41.8990 H   0  0  0  0  0  0  0  0  0  0  0  0
   38.3170   32.2860   40.7910 C   0  0  0  0  0  0  0  0  0  0  0  0
   37.1410   32.2360   40.1460 N   0  0  0  0  0  0  0  0  0  0  0  0
   36.4960   31.0950   40.4950 C   0  0  0  0  0  0  0  0  0  0  0  0
   37.2950   30.4440   41.3640 N   0  0  0  0  0  0  0  0  0  0  0  0
   38.4170   31.1540   41.5640 N   0  0  0  0  0  0  0  0  0  0  0  0
   35.5310   30.7300   40.1700 H   0  0  0  0  0  0  0  0  0  0  0  0
   37.0580   29.1790   42.0150 C   0  0  0  0  0  0  0  0  0  0  0  0
   36.0060   28.9680   41.9230 H   0  0  0  0  0  0  0  0  0  0  0  0
   37.2630   29.2860   43.1110 H   0  0  0  0  0  0  0  0  0  0  0  0
   37.8900   28.1360   41.4230 C   0  0  0  0  0  3  0  0  0  0  0  0
   38.4830   27.0500   41.8700 C   0  0  0  0  0  3  0  0  0  0  0  0
   39.2880   26.0060   41.0980 C   0  0  0  0  0  0  0  0  0  0  0  0
   40.3120   26.0540   41.5310 H   0  0  0  0  0  0  0  0  0  0  0  0
   39.2750   26.3440   40.0670 H   0  0  0  0  0  0  0  0  0  0  0  0
   38.7760   24.6100   41.2940 C   0  0  0  0  0  3  0  0  0  0  0  0
   38.5200   23.9770   39.9180 C   0  0  0  0  0  2  0  0  0  0  0  0
   37.0490   24.3200   39.6570 C   0  0  0  0  0  2  0  0  0  0  0  0
   36.4440   24.0300   40.9870 C   0  0  0  0  0  2  0  0  0  0  0  0
   37.4480   24.5550   41.9770 C   0  0  0  0  0  2  0  0  0  0  0  0
  1  9  1  0  0  0  0
  1  6  1  0  0  0  0
  2  1  2  0  0  0  0
  3  2  1  0  0  0  0
  3  4  2  0  0  0  0
  4  5  1  0  0  0  0
  5  6  2  0  0  0  0
  5 26  1  0  0  0  0
  7  2  1  0  0  0  0
  8  3  1  0  0  0  0
  9 14  1  0  0  0  0
 10  9  1  0  0  0  0
 10 11  1  0  0  0  0
 11 12  1  0  0  0  0
 11 18  1  0  0  0  0
 12 13  1  0  0  0  0
 12 20  1  0  0  0  0
 13 23  1  0  0  0  0
 14 25  1  0  0  0  0
 14 13  1  0  0  0  0
 14 24  1  0  0  0  0
 15  9  1  0  0  0  0
 16 10  1  0  0  0  0
 17 10  1  0  0  0  0
 19 11  1  0  0  0  0
 21 12  1  0  0  0  0
 22 13  1  0  0  0  0
 26 30  2  0  0  0  0
 27 28  2  0  0  0  0
 27 26  1  0  0  0  0
 28 29  1  0  0  0  0
 29 30  1  0  0  0  0
 29 32  1  0  0  0  0
 31 28  1  0  0  0  0
 32 34  1  0  0  0  0
 33 32  1  0  0  0  0
 35 36  2  0  0  0  0
 35 32  1  0  0  0  0
 37 40  1  0  0  0  0
 37 38  1  0  0  0  0
 37 36  1  0  0  0  0
 39 37  1  0  0  0  0
 40 44  1  0  0  0  0
 41 40  1  0  0  0  0
 42 41  1  0  0  0  0
 42 43  1  0  0  0  0
 43 44  1  0  0  0  0
M  END
>  <minimizedAffinity>
-5.84192038

$$$$

 OpenBabel03242519333D

 44 47  0  0  0  0  0  0  0  0999 V2000
   37.1340   27.1360   41.4190 C   0  0  0  0  0  0  0  0  0  0  0  0
   37.2500   27.1170   42.8410 C   0  0  0  0  0  0  0  0  0  0  0  0
   37.4480   28.3120   43.5410 C   0  0  0  0  0  0  0  0  0  0  0  0
   37.5200   29.4550   42.7910 N   0  0  0  0  0  0  0  0  0  0  0  0
   37.4040   29.4270   41.4250 C   0  0  0  0  0  0  0  0  0  0  0  0
   37.2160   28.2890   40.7810 N   0  0  0  0  0  0  0  0  0  0  0  0
   37.2020   26.2470   43.4820 H   0  0  0  0  0  0  0  0  0  0  0  0
   37.5410   28.3390   44.6070 H   0  0  0  0  0  0  0  0  0  0  0  0
   36.9330   25.8190   40.8170 C   0  0  0  0  0  0  0  0  0  0  0  0
   36.9190   24.7100   41.7370 C   0  0  0  0  0  0  0  0  0  0  0  0
   38.0590   23.7850   41.6100 C   0  0  0  0  0  0  0  0  0  0  0  0
   38.1770   23.2490   40.1840 C   0  0  0  0  0  0  0  0  0  0  0  0
   37.9650   24.2860   39.1350 C   0  0  0  0  0  0  0  0  0  0  0  0
   38.0480   25.6900   39.7240 C   0  0  0  0  0  0  0  0  0  0  0  0
   36.0060   25.8760   40.1730 H   0  0  0  0  0  0  0  0  0  0  0  0
   36.9100   25.0850   42.8010 H   0  0  0  0  0  0  0  0  0  0  0  0
   35.9820   24.1180   41.6300 H   0  0  0  0  0  0  0  0  0  0  0  0
   39.0350   24.1150   41.9530 H   0  0  0  0  0  0  0  0  0  0  0  0
   37.8150   22.8680   42.2240 H   0  0  0  0  0  0  0  0  0  0  0  0
   39.1960   22.7900   40.1200 H   0  0  0  0  0  0  0  0  0  0  0  0
   37.4420   22.4170   40.0170 H   0  0  0  0  0  0  0  0  0  0  0  0
   36.9430   24.1990   38.7030 H   0  0  0  0  0  0  0  0  0  0  0  0
   38.7140   24.2660   38.3220 H   0  0  0  0  0  0  0  0  0  0  0  0
   39.0390   25.7570   40.2210 H   0  0  0  0  0  0  0  0  0  0  0  0
   37.8900   26.4160   38.9250 H   0  0  0  0  0  0  0  0  0  0  0  0
   37.5120   30.7410   40.8050 C   0  0  0  0  0  0  0  0  0  0  0  0
   36.8440   30.9910   39.6680 N   0  0  0  0  0  0  0  0  0  0  0  0
   37.0970   32.2670   39.2800 C   0  0  0  0  0  0  0  0  0  0  0  0
   37.9310   32.7960   40.1980 N   0  0  0  0  0  0  0  0  0  0  0  0
   38.2020   31.8810   41.1430 N   0  0  0  0  0  0  0  0  0  0  0  0
   36.7300   32.8030   38.4160 H   0  0  0  0  0  0  0  0  0  0  0  0
   38.4850   34.1270   40.2340 C   0  0  0  0  0  0  0  0  0  0  0  0
   38.1290   34.5940   41.1370 H   0  0  0  0  0  0  0  0  0  0  0  0
   38.0640   34.7230   39.3850 H   0  0  0  0  0  0  0  0  0  0  0  0
   39.9420   34.0760   40.1710 C   0  0  0  0  0  3  0  0  0  0  0  0
   40.8520   34.4420   39.2930 C   0  0  0  0  0  3  0  0  0  0  0  0
   42.3750   34.3740   39.3990 C   0  0  0  0  0  0  0  0  0  0  0  0
   42.5830   33.4300   39.9500 H   0  0  0  0  0  0  0  0  0  0  0  0
   42.6570   35.2450   39.9800 H   0  0  0  0  0  0  0  0  0  0  0  0
   43.0490   34.2810   38.0630 C   0  0  0  0  0  3  0  0  0  0  0  0
   42.3020   33.2550   37.1980 C   0  0  0  0  0  2  0  0  0  0  0  0
   43.0490   31.9520   37.4980 C   0  0  0  0  0  2  0  0  0  0  0  0
   44.4650   32.4130   37.4510 C   0  0  0  0  0  2  0  0  0  0  0  0
   44.4450   33.7520   38.1370 C   0  0  0  0  0  2  0  0  0  0  0  0
  1  2  1  0  0  0  0
  2  7  1  0  0  0  0
  2  3  2  0  0  0  0
  3  8  1  0  0  0  0
  4  3  1  0  0  0  0
  5  4  2  0  0  0  0
  6  1  2  0  0  0  0
  6  5  1  0  0  0  0
  9  1  1  0  0  0  0
  9 10  1  0  0  0  0
 10 16  1  0  0  0  0
 11 10  1  0  0  0  0
 11 18  1  0  0  0  0
 11 19  1  0  0  0  0
 12 11  1  0  0  0  0
 13 14  1  0  0  0  0
 13 12  1  0  0  0  0
 14 24  1  0  0  0  0
 14  9  1  0  0  0  0
 15  9  1  0  0  0  0
 17 10  1  0  0  0  0
 20 12  1  0  0  0  0
 21 12  1  0  0  0  0
 22 13  1  0  0  0  0
 23 13  1  0  0  0  0
 25 14  1  0  0  0  0
 26 30  2  0  0  0  0
 26  5  1  0  0  0  0
 27 26  1  0  0  0  0
 28 27  2  0  0  0  0
 28 29  1  0  0  0  0
 29 32  1  0  0  0  0
 29 30  1  0  0  0  0
 31 28  1  0  0  0  0
 32 33  1  0  0  0  0
 34 32  1  0  0  0  0
 35 32  1  0  0  0  0
 36 37  1  0  0  0  0
 36 35  2  0  0  0  0
 37 38  1  0  0  0  0
 37 39  1  0  0  0  0
 40 44  1  0  0  0  0
 40 37  1  0  0  0  0
 41 42  1  0  0  0  0
 41 40  1  0  0  0  0
 43 42  1  0  0  0  0
 43 44  1  0  0  0  0
M  END
>  <minimizedAffinity>
-5.77210426

$$$$

 OpenBabel03242519333D

 44 47  0  0  0  0  0  0  0  0999 V2000
   38.1150   28.3900   42.3860 C   0  0  0  0  0  0  0  0  0  0  0  0
   36.8690   27.8040   42.0120 C   0  0  0  0  0  0  0  0  0  0  0  0
   35.9600   28.5320   41.2360 C   0  0  0  0  0  0  0  0  0  0  0  0
   36.3400   29.7970   40.8760 N   0  0  0  0  0  0  0  0  0  0  0  0
   37.5470   30.3220   41.2580 C   0  0  0  0  0  0  0  0  0  0  0  0
   38.3930   29.6190   41.9910 N   0  0  0  0  0  0  0  0  0  0  0  0
   36.5190   26.8130   42.2680 H   0  0  0  0  0  0  0  0  0  0  0  0
   35.0160   28.1270   40.9360 H   0  0  0  0  0  0  0  0  0  0  0  0
   38.9660   27.5230   43.1990 C   0  0  0  0  0  0  0  0  0  0  0  0
   40.3580   27.8960   43.2560 C   0  0  0  0  0  0  0  0  0  0  0  0
   41.2790   26.9530   42.5960 C   0  0  0  0  0  0  0  0  0  0  0  0
   41.1160   25.5410   43.1570 C   0  0  0  0  0  0  0  0  0  0  0  0
   39.6970   25.1400   43.3660 C   0  0  0  0  0  0  0  0  0  0  0  0
   38.7450   26.0790   42.6340 C   0  0  0  0  0  0  0  0  0  0  0  0
   38.4870   27.4320   44.2180 H   0  0  0  0  0  0  0  0  0  0  0  0
   40.5120   28.9050   42.7760 H   0  0  0  0  0  0  0  0  0  0  0  0
   40.6910   28.0210   44.3110 H   0  0  0  0  0  0  0  0  0  0  0  0
   41.2890   26.9110   41.5120 H   0  0  0  0  0  0  0  0  0  0  0  0
   42.3270   27.2450   42.8990 H   0  0  0  0  0  0  0  0  0  0  0  0
   41.6390   24.8680   42.4310 H   0  0  0  0  0  0  0  0  0  0  0  0
   41.6630   25.4420   44.1330 H   0  0  0  0  0  0  0  0  0  0  0  0
   39.4260   25.2150   44.4430 H   0  0  0  0  0  0  0  0  0  0  0  0
   39.4530   24.1280   42.9930 H   0  0  0  0  0  0  0  0  0  0  0  0
   39.0570   26.0650   41.5680 H   0  0  0  0  0  0  0  0  0  0  0  0
   37.7200   25.7490   42.8110 H   0  0  0  0  0  0  0  0  0  0  0  0
   37.7670   31.6820   40.7830 C   0  0  0  0  0  0  0  0  0  0  0  0
   37.0070   32.1640   39.7880 N   0  0  0  0  0  0  0  0  0  0  0  0
   37.3920   33.4370   39.5160 C   0  0  0  0  0  0  0  0  0  0  0  0
   38.4020   33.7280   40.3620 N   0  0  0  0  0  0  0  0  0  0  0  0
   38.6520   32.6680   41.1490 N   0  0  0  0  0  0  0  0  0  0  0  0
   37.0030   34.1260   38.7800 H   0  0  0  0  0  0  0  0  0  0  0  0
   39.1430   34.9600   40.4720 C   0  0  0  0  0  0  0  0  0  0  0  0
   39.3090   35.1370   41.5210 H   0  0  0  0  0  0  0  0  0  0  0  0
   38.5070   35.8050   40.1070 H   0  0  0  0  0  0  0  0  0  0  0  0
   40.3900   34.8750   39.7170 C   0  0  0  0  0  3  0  0  0  0  0  0
   41.4050   34.0390   39.6830 C   0  0  0  0  0  3  0  0  0  0  0  0
   42.6350   34.0540   38.7770 C   0  0  0  0  0  0  0  0  0  0  0  0
   43.3340   34.7770   39.2520 H   0  0  0  0  0  0  0  0  0  0  0  0
   42.2770   34.4170   37.8190 H   0  0  0  0  0  0  0  0  0  0  0  0
   43.3280   32.7260   38.7100 C   0  0  0  0  0  3  0  0  0  0  0  0
   43.4530   32.3030   37.2390 C   0  0  0  0  0  2  0  0  0  0  0  0
   42.1790   31.4800   37.0160 C   0  0  0  0  0  2  0  0  0  0  0  0
   42.1400   30.6630   38.2610 C   0  0  0  0  0  2  0  0  0  0  0  0
   42.5540   31.6180   39.3480 C   0  0  0  0  0  2  0  0  0  0  0  0
  1  9  1  0  0  0  0
  2  7  1  0  0  0  0
  2  1  1  0  0  0  0
  3  2  2  0  0  0  0
  4  3  1  0  0  0  0
  4  5  2  0  0  0  0
  5  6  1  0  0  0  0
  6  1  2  0  0  0  0
  8  3  1  0  0  0  0
  9 10  1  0  0  0  0
  9 15  1  0  0  0  0
 10 17  1  0  0  0  0
 11 19  1  0  0  0  0
 11 12  1  0  0  0  0
 11 10  1  0  0  0  0
 12 13  1  0  0  0  0
 12 21  1  0  0  0  0
 13 22  1  0  0  0  0
 14 25  1  0  0  0  0
 14  9  1  0  0  0  0
 14 13  1  0  0  0  0
 16 10  1  0  0  0  0
 18 11  1  0  0  0  0
 20 12  1  0  0  0  0
 23 13  1  0  0  0  0
 24 14  1  0  0  0  0
 26 30  2  0  0  0  0
 26  5  1  0  0  0  0
 27 26  1  0  0  0  0
 28 27  2  0  0  0  0
 28 29  1  0  0  0  0
 29 32  1  0  0  0  0
 29 30  1  0  0  0  0
 31 28  1  0  0  0  0
 32 33  1  0  0  0  0
 34 32  1  0  0  0  0
 35 32  1  0  0  0  0
 36 35  2  0  0  0  0
 37 38  1  0  0  0  0
 37 36  1  0  0  0  0
 39 37  1  0  0  0  0
 40 37  1  0  0  0  0
 40 44  1  0  0  0  0
 41 40  1  0  0  0  0
 42 41  1  0  0  0  0
 42 43  1  0  0  0  0
 43 44  1  0  0  0  0
M  END
>  <minimizedAffinity>
-5.77037907

$$$$
