
 OpenBabel03252509293D

 17 18  0  0  0  0  0  0  0  0999 V2000
   44.5370   36.0610   44.4620 C   0  0  0  0  0  0  0  0  0  0  0  0
   45.3620   35.8660   43.3270 C   0  0  0  0  0  0  0  0  0  0  0  0
   46.2220   34.7670   43.3560 C   0  0  0  0  0  0  0  0  0  0  0  0
   46.2280   33.9470   44.4570 N   0  0  0  0  0  0  0  0  0  0  0  0
   45.4090   34.1930   45.5110 C   0  0  0  0  0  0  0  0  0  0  0  0
   44.5750   35.2350   45.5160 N   0  0  0  0  0  0  0  0  0  0  0  0
   43.8620   36.8990   44.4730 H   0  0  0  0  0  0  0  0  0  0  0  0
   45.3100   36.5500   42.4910 H   0  0  0  0  0  0  0  0  0  0  0  0
   45.5020   33.4800   46.3200 H   0  0  0  0  0  0  0  0  0  0  0  0
   47.0790   34.5520   42.1920 C   0  0  0  0  0  0  0  0  0  0  0  0
   47.2620   35.4960   41.6560 H   0  0  0  0  0  0  0  0  0  0  0  0
   46.6550   33.7500   41.5360 H   0  0  0  0  0  0  0  0  0  0  0  0
   48.3980   34.0160   42.7080 C   0  0  0  0  0  3  0  0  0  0  0  0
   48.7090   32.6690   42.1090 C   0  0  0  0  0  2  0  0  0  0  0  0
   50.1440   32.7290   41.6160 C   0  0  0  0  0  2  0  0  0  0  0  0
   50.7070   33.8630   42.4840 C   0  0  0  0  0  2  0  0  0  0  0  0
   49.5670   34.8540   42.3020 C   0  0  0  0  0  2  0  0  0  0  0  0
  1  7  1  0  0  0  0
  1  6  1  0  0  0  0
  2  3  1  0  0  0  0
  2  1  2  0  0  0  0
  3  4  2  0  0  0  0
  4  5  1  0  0  0  0
  5  6  2  0  0  0  0
  5  9  1  0  0  0  0
  8  2  1  0  0  0  0
 10 13  1  0  0  0  0
 10  3  1  0  0  0  0
 11 10  1  0  0  0  0
 12 10  1  0  0  0  0
 14 13  1  0  0  0  0
 15 14  1  0  0  0  0
 15 16  1  0  0  0  0
 17 16  1  0  0  0  0
 17 13  1  0  0  0  0
M  END
>  <minimizedAffinity>
-4.41983271

>  <minimizedRMSD>
1.65199375

$$$$
