
 OpenBabel03252504243D

 17 18  0  0  0  0  0  0  0  0999 V2000
   44.2920   35.7600   43.1060 C   0  0  0  0  0  0  0  0  0  0  0  0
   44.4140   34.5740   42.3940 C   0  0  0  0  0  0  0  0  0  0  0  0
   44.9010   33.4580   43.0780 C   0  0  0  0  0  0  0  0  0  0  0  0
   45.2210   33.6060   44.3820 N   0  0  0  0  0  0  0  0  0  0  0  0
   45.0940   34.7670   45.0490 C   0  0  0  0  0  0  0  0  0  0  0  0
   44.6240   35.8770   44.4220 N   0  0  0  0  0  0  0  0  0  0  0  0
   43.9250   36.6890   42.6740 H   0  0  0  0  0  0  0  0  0  0  0  0
   44.9780   32.5700   42.4960 H   0  0  0  0  0  0  0  0  0  0  0  0
   45.3550   34.8500   46.0800 H   0  0  0  0  0  0  0  0  0  0  0  0
   44.0070   34.6360   40.9810 C   0  0  0  0  0  0  0  0  0  0  0  0
   44.6780   35.2590   40.4050 H   0  0  0  0  0  0  0  0  0  0  0  0
   44.0290   33.6100   40.5280 H   0  0  0  0  0  0  0  0  0  0  0  0
   42.6100   35.1850   40.8740 C   0  0  0  0  0  3  0  0  0  0  0  0
   41.5600   34.1910   41.3310 C   0  0  0  0  0  2  0  0  0  0  0  0
   40.3000   34.9440   40.9260 C   0  0  0  0  0  2  0  0  0  0  0  0
   40.6510   35.3930   39.5220 C   0  0  0  0  0  2  0  0  0  0  0  0
   42.1810   35.3970   39.4450 C   0  0  0  0  0  2  0  0  0  0  0  0
  1  6  1  0  0  0  0
  2  3  1  0  0  0  0
  2  1  2  0  0  0  0
  3  4  2  0  0  0  0
  4  5  1  0  0  0  0
  5  9  1  0  0  0  0
  6  5  2  0  0  0  0
  7  1  1  0  0  0  0
  8  3  1  0  0  0  0
 10  2  1  0  0  0  0
 11 10  1  0  0  0  0
 12 10  1  0  0  0  0
 13 10  1  0  0  0  0
 13 14  1  0  0  0  0
 15 14  1  0  0  0  0
 16 15  1  0  0  0  0
 17 16  1  0  0  0  0
 17 13  1  0  0  0  0
M  END
>  <minimizedAffinity>
-3.88148499

>  <minimizedRMSD>
1.11454928

$$$$
