
 OpenBabel03242512073D

 23 25  0  0  1  0  0  0  0  0999 V2000
   37.4460   27.9540   42.0790 C   0  0  1  0  0  0  0  0  0  0  0  0
   37.0280   27.7990   43.5830 C   0  0  0  0  0  0  0  0  0  0  0  0
   36.7110   26.8040   42.5320 C   0  0  2  0  0  0  0  0  0  0  0  0
   38.5660   28.0100   42.0360 H   0  0  0  0  0  0  0  0  0  0  0  0
   37.8780   27.6810   44.2580 H   0  0  0  0  0  0  0  0  0  0  0  0
   36.2740   28.5100   43.9570 H   0  0  0  0  0  0  0  0  0  0  0  0
   35.6010   26.8320   42.2610 H   0  0  0  0  0  0  0  0  0  0  0  0
   37.2320   25.4200   42.4710 C   0  0  0  0  0  3  0  0  0  0  0  0
   38.7470   25.3290   42.4920 C   0  0  0  0  0  2  0  0  0  0  0  0
   39.1010   24.1090   41.6730 C   0  0  0  0  0  2  0  0  0  0  0  0
   37.8200   23.5580   41.0970 C   0  0  0  0  0  2  0  0  0  0  0  0
   36.7750   24.6540   41.2820 C   0  0  0  0  0  2  0  0  0  0  0  0
   36.7520   29.0900   41.4150 C   0  0  0  0  0  0  0  0  0  0  0  0
   35.5810   28.9230   41.0740 O   0  0  0  0  0  0  0  0  0  0  0  0
   36.7480   31.3570   40.4810 C   0  0  0  0  0  0  0  0  0  0  0  0
   37.3750   30.3590   41.1660 C   0  0  0  0  0  0  0  0  0  0  0  0
   38.6730   30.6070   41.6540 C   0  0  0  0  0  0  0  0  0  0  0  0
   39.2530   31.8050   41.4340 N   0  0  0  0  0  0  0  0  0  0  0  0
   38.5980   32.7870   40.7420 C   0  0  0  0  0  0  0  0  0  0  0  0
   37.3780   32.5480   40.2860 N   0  0  0  0  0  0  0  0  0  0  0  0
   35.7540   31.1250   40.1240 H   0  0  0  0  0  0  0  0  0  0  0  0
   39.2060   29.8450   42.2020 H   0  0  0  0  0  0  0  0  0  0  0  0
   39.0390   33.7520   40.5530 H   0  0  0  0  0  0  0  0  0  0  0  0
  1  4  1  6  0  0  0
  1  3  1  0  0  0  0
  1  2  1  0  0  0  0
  2  6  1  0  0  0  0
  2  5  1  0  0  0  0
  3  7  1  6  0  0  0
  3  2  1  0  0  0  0
  8  9  1  0  0  0  0
  8  3  1  0  0  0  0
 10  9  1  0  0  0  0
 11 12  1  0  0  0  0
 11 10  1  0  0  0  0
 12  8  1  0  0  0  0
 13  1  1  0  0  0  0
 14 13  2  0  0  0  0
 15 16  1  0  0  0  0
 16 13  1  0  0  0  0
 16 17  2  0  0  0  0
 17 22  1  0  0  0  0
 18 17  1  0  0  0  0
 19 18  2  0  0  0  0
 20 15  2  0  0  0  0
 20 19  1  0  0  0  0
 21 15  1  0  0  0  0
 23 19  1  0  0  0  0
M  END
>  <minimizedAffinity>
-4.92418194

$$$$

 OpenBabel03242512073D

 23 25  0  0  1  0  0  0  0  0999 V2000
   37.3380   28.8200   41.3570 C   0  0  1  0  0  0  0  0  0  0  0  0
   35.8260   28.5400   41.0470 C   0  0  0  0  0  0  0  0  0  0  0  0
   36.3800   29.8910   41.3020 C   0  0  2  0  0  0  0  0  0  0  0  0
   37.9420   28.4670   40.4800 H   0  0  0  0  0  0  0  0  0  0  0  0
   35.6550   28.1630   40.0370 H   0  0  0  0  0  0  0  0  0  0  0  0
   35.2630   27.9880   41.8170 H   0  0  0  0  0  0  0  0  0  0  0  0
   36.0630   30.2770   42.3310 H   0  0  0  0  0  0  0  0  0  0  0  0
   36.4390   30.9960   40.3200 C   0  0  0  0  0  3  0  0  0  0  0  0
   36.5860   30.5370   38.8810 C   0  0  0  0  0  2  0  0  0  0  0  0
   37.3860   31.6110   38.1820 C   0  0  0  0  0  2  0  0  0  0  0  0
   37.7890   32.6290   39.2200 C   0  0  0  0  0  2  0  0  0  0  0  0
   37.5340   31.9700   40.5720 C   0  0  0  0  0  2  0  0  0  0  0  0
   37.7620   28.2430   42.6620 C   0  0  0  0  0  0  0  0  0  0  0  0
   37.5530   28.9080   43.6760 O   0  0  0  0  0  0  0  0  0  0  0  0
   37.9040   25.8470   42.1630 C   0  0  0  0  0  0  0  0  0  0  0  0
   38.3880   26.9570   42.7900 C   0  0  0  0  0  0  0  0  0  0  0  0
   39.5510   26.8210   43.5710 C   0  0  0  0  0  0  0  0  0  0  0  0
   40.1480   25.6150   43.6790 N   0  0  0  0  0  0  0  0  0  0  0  0
   39.6390   24.5190   43.0390 C   0  0  0  0  0  0  0  0  0  0  0  0
   38.5450   24.6530   42.3050 N   0  0  0  0  0  0  0  0  0  0  0  0
   37.0100   25.9950   41.5740 H   0  0  0  0  0  0  0  0  0  0  0  0
   39.9680   27.6740   44.0850 H   0  0  0  0  0  0  0  0  0  0  0  0
   40.0960   23.5450   43.1090 H   0  0  0  0  0  0  0  0  0  0  0  0
  1  4  1  6  0  0  0
  1 13  1  0  0  0  0
  2  3  1  0  0  0  0
  2  1  1  0  0  0  0
  2  6  1  0  0  0  0
  3  1  1  0  0  0  0
  3  7  1  1  0  0  0
  5  2  1  0  0  0  0
  8 12  1  0  0  0  0
  8  3  1  0  0  0  0
  9  8  1  0  0  0  0
 10  9  1  0  0  0  0
 10 11  1  0  0  0  0
 11 12  1  0  0  0  0
 13 16  1  0  0  0  0
 13 14  2  0  0  0  0
 15 20  2  0  0  0  0
 15 16  1  0  0  0  0
 16 17  2  0  0  0  0
 17 18  1  0  0  0  0
 17 22  1  0  0  0  0
 19 23  1  0  0  0  0
 19 18  2  0  0  0  0
 20 19  1  0  0  0  0
 21 15  1  0  0  0  0
M  END
>  <minimizedAffinity>
-4.90576363

$$$$

 OpenBabel03242512073D

 23 25  0  0  1  0  0  0  0  0999 V2000
   37.9820   27.6560   42.9720 C   0  0  1  0  0  0  0  0  0  0  0  0
   36.5830   27.4430   43.6480 C   0  0  0  0  0  0  0  0  0  0  0  0
   36.9860   26.8130   42.3680 C   0  0  2  0  0  0  0  0  0  0  0  0
   38.7690   27.2930   43.6850 H   0  0  0  0  0  0  0  0  0  0  0  0
   36.6390   26.9130   44.6000 H   0  0  0  0  0  0  0  0  0  0  0  0
   35.9160   28.3200   43.6790 H   0  0  0  0  0  0  0  0  0  0  0  0
   36.4480   27.2980   41.4840 H   0  0  0  0  0  0  0  0  0  0  0  0
   37.1660   25.3620   42.1430 C   0  0  0  0  0  3  0  0  0  0  0  0
   38.5950   24.8810   42.3220 C   0  0  0  0  0  2  0  0  0  0  0  0
   38.7680   23.7270   41.3610 C   0  0  0  0  0  2  0  0  0  0  0  0
   37.4960   23.6050   40.5600 C   0  0  0  0  0  2  0  0  0  0  0  0
   36.7250   24.8990   40.8000 C   0  0  0  0  0  2  0  0  0  0  0  0
   38.1780   29.0570   42.5090 C   0  0  0  0  0  0  0  0  0  0  0  0
   38.7990   29.8210   43.2470 O   0  0  0  0  0  0  0  0  0  0  0  0
   36.6270   30.3950   41.1620 C   0  0  0  0  0  0  0  0  0  0  0  0
   37.6900   29.5470   41.2510 C   0  0  0  0  0  0  0  0  0  0  0  0
   38.3310   29.1640   40.0570 C   0  0  0  0  0  0  0  0  0  0  0  0
   37.8830   29.6370   38.8750 N   0  0  0  0  0  0  0  0  0  0  0  0
   36.8130   30.4860   38.8180 C   0  0  0  0  0  0  0  0  0  0  0  0
   36.2150   30.8430   39.9440 N   0  0  0  0  0  0  0  0  0  0  0  0
   36.1640   30.6640   42.1020 H   0  0  0  0  0  0  0  0  0  0  0  0
   39.1770   28.4940   40.0810 H   0  0  0  0  0  0  0  0  0  0  0  0
   36.4350   30.8780   37.8870 H   0  0  0  0  0  0  0  0  0  0  0  0
  1  2  1  0  0  0  0
  1  4  1  1  0  0  0
  2  6  1  0  0  0  0
  2  5  1  0  0  0  0
  3  7  1  6  0  0  0
  3  1  1  0  0  0  0
  3  2  1  0  0  0  0
  8  9  1  0  0  0  0
  8  3  1  0  0  0  0
 10  9  1  0  0  0  0
 11 12  1  0  0  0  0
 11 10  1  0  0  0  0
 12  8  1  0  0  0  0
 13  1  1  0  0  0  0
 13 14  2  0  0  0  0
 15 16  1  0  0  0  0
 15 21  1  0  0  0  0
 16 13  1  0  0  0  0
 17 22  1  0  0  0  0
 17 16  2  0  0  0  0
 18 17  1  0  0  0  0
 19 18  2  0  0  0  0
 19 20  1  0  0  0  0
 20 15  2  0  0  0  0
 23 19  1  0  0  0  0
M  END
>  <minimizedAffinity>
-4.67001247

$$$$

 OpenBabel03242512073D

 23 25  0  0  1  0  0  0  0  0999 V2000
   36.8210   31.5990   40.5560 C   0  0  1  0  0  0  0  0  0  0  0  0
   36.3720   30.4040   39.6450 C   0  0  0  0  0  0  0  0  0  0  0  0
   37.2970   30.2630   40.7930 C   0  0  2  0  0  0  0  0  0  0  0  0
   35.9030   32.0350   41.0310 H   0  0  0  0  0  0  0  0  0  0  0  0
   35.3070   30.1760   39.7240 H   0  0  0  0  0  0  0  0  0  0  0  0
   36.7350   30.4190   38.6040 H   0  0  0  0  0  0  0  0  0  0  0  0
   38.3700   30.0870   40.4380 H   0  0  0  0  0  0  0  0  0  0  0  0
   37.0220   29.5000   42.0310 C   0  0  0  0  0  3  0  0  0  0  0  0
   38.2440   29.2810   42.9070 C   0  0  0  0  0  2  0  0  0  0  0  0
   38.0300   27.9520   43.5930 C   0  0  0  0  0  2  0  0  0  0  0  0
   36.7560   27.3560   43.0480 C   0  0  0  0  0  2  0  0  0  0  0  0
   36.4210   28.1610   41.7950 C   0  0  0  0  0  2  0  0  0  0  0  0
   37.6560   32.5870   39.8210 C   0  0  0  0  0  0  0  0  0  0  0  0
   37.0860   33.5540   39.3170 O   0  0  0  0  0  0  0  0  0  0  0  0
   39.6710   32.0550   38.5290 C   0  0  0  0  0  0  0  0  0  0  0  0
   39.0810   32.4700   39.6860 C   0  0  0  0  0  0  0  0  0  0  0  0
   39.9150   32.8080   40.7690 C   0  0  0  0  0  0  0  0  0  0  0  0
   41.2550   32.7140   40.6370 N   0  0  0  0  0  0  0  0  0  0  0  0
   41.8180   32.2930   39.4630 C   0  0  0  0  0  0  0  0  0  0  0  0
   41.0280   31.9770   38.4490 N   0  0  0  0  0  0  0  0  0  0  0  0
   38.9940   31.8050   37.7240 H   0  0  0  0  0  0  0  0  0  0  0  0
   39.4900   33.1420   41.7030 H   0  0  0  0  0  0  0  0  0  0  0  0
   42.8840   32.2090   39.3320 H   0  0  0  0  0  0  0  0  0  0  0  0
  1  3  1  0  0  0  0
  1  4  1  1  0  0  0
  2  5  1  0  0  0  0
  2  1  1  0  0  0  0
  2  3  1  0  0  0  0
  3  7  1  6  0  0  0
  3  8  1  0  0  0  0
  6  2  1  0  0  0  0
  8  9  1  0  0  0  0
  9 10  1  0  0  0  0
 11 10  1  0  0  0  0
 12  8  1  0  0  0  0
 12 11  1  0  0  0  0
 13  1  1  0  0  0  0
 14 13  2  0  0  0  0
 15 16  1  0  0  0  0
 16 13  1  0  0  0  0
 16 17  2  0  0  0  0
 17 22  1  0  0  0  0
 18 17  1  0  0  0  0
 19 18  2  0  0  0  0
 20 15  2  0  0  0  0
 20 19  1  0  0  0  0
 21 15  1  0  0  0  0
 23 19  1  0  0  0  0
M  END
>  <minimizedAffinity>
-4.63837957

$$$$

 OpenBabel03242512073D

 23 25  0  0  1  0  0  0  0  0999 V2000
   36.9270   30.0080   39.1130 C   0  0  1  0  0  0  0  0  0  0  0  0
   37.7010   28.6630   38.8830 C   0  0  0  0  0  0  0  0  0  0  0  0
   37.6530   29.3750   40.1810 C   0  0  2  0  0  0  0  0  0  0  0  0
   35.8430   29.8250   38.8910 H   0  0  0  0  0  0  0  0  0  0  0  0
   37.0450   27.8200   38.6570 H   0  0  0  0  0  0  0  0  0  0  0  0
   38.5840   28.7120   38.2250 H   0  0  0  0  0  0  0  0  0  0  0  0
   38.6550   29.8740   40.4140 H   0  0  0  0  0  0  0  0  0  0  0  0
   37.0170   28.8690   41.4180 C   0  0  0  0  0  3  0  0  0  0  0  0
   37.7210   29.2960   42.6940 C   0  0  0  0  0  2  0  0  0  0  0  0
   37.5130   28.1700   43.6800 C   0  0  0  0  0  2  0  0  0  0  0  0
   36.7900   27.0590   42.9580 C   0  0  0  0  0  2  0  0  0  0  0  0
   36.8960   27.3880   41.4730 C   0  0  0  0  0  2  0  0  0  0  0  0
   37.5230   31.1390   38.3510 C   0  0  0  0  0  0  0  0  0  0  0  0
   37.3370   31.1700   37.1350 O   0  0  0  0  0  0  0  0  0  0  0  0
   37.7030   33.1870   39.6880 C   0  0  0  0  0  0  0  0  0  0  0  0
   38.2870   32.1890   38.9660 C   0  0  0  0  0  0  0  0  0  0  0  0
   39.6890   32.1940   38.8440 C   0  0  0  0  0  0  0  0  0  0  0  0
   40.4080   33.1720   39.4340 N   0  0  0  0  0  0  0  0  0  0  0  0
   39.7950   34.1610   40.1520 C   0  0  0  0  0  0  0  0  0  0  0  0
   38.4750   34.1500   40.2630 N   0  0  0  0  0  0  0  0  0  0  0  0
   36.6250   33.1450   39.7560 H   0  0  0  0  0  0  0  0  0  0  0  0
   40.1930   31.4230   38.2810 H   0  0  0  0  0  0  0  0  0  0  0  0
   40.3460   34.9530   40.6320 H   0  0  0  0  0  0  0  0  0  0  0  0
  1  4  1  1  0  0  0
  1  3  1  0  0  0  0
  2  1  1  0  0  0  0
  2  3  1  0  0  0  0
  3  7  1  1  0  0  0
  3  8  1  0  0  0  0
  5  2  1  0  0  0  0
  6  2  1  0  0  0  0
  8 12  1  0  0  0  0
  8  9  1  0  0  0  0
  9 10  1  0  0  0  0
 11 10  1  0  0  0  0
 12 11  1  0  0  0  0
 13 16  1  0  0  0  0
 13  1  1  0  0  0  0
 14 13  2  0  0  0  0
 15 21  1  0  0  0  0
 15 20  1  0  0  0  0
 16 15  2  0  0  0  0
 17 16  1  0  0  0  0
 17 18  2  0  0  0  0
 18 19  1  0  0  0  0
 19 20  2  0  0  0  0
 19 23  1  0  0  0  0
 22 17  1  0  0  0  0
M  END
>  <minimizedAffinity>
-4.57871056

$$$$

 OpenBabel03242512073D

 23 25  0  0  1  0  0  0  0  0999 V2000
   37.6730   28.9030   41.5360 C   0  0  1  0  0  0  0  0  0  0  0  0
   36.2540   28.2570   41.7120 C   0  0  0  0  0  0  0  0  0  0  0  0
   37.5050   27.4750   41.5690 C   0  0  2  0  0  0  0  0  0  0  0  0
   37.8790   29.5350   42.4400 H   0  0  0  0  0  0  0  0  0  0  0  0
   35.8040   28.4610   42.6850 H   0  0  0  0  0  0  0  0  0  0  0  0
   35.5510   28.3870   40.8730 H   0  0  0  0  0  0  0  0  0  0  0  0
   37.5650   26.9810   40.5390 H   0  0  0  0  0  0  0  0  0  0  0  0
   38.0970   26.6010   42.6060 C   0  0  0  0  0  3  0  0  0  0  0  0
   39.2940   27.2090   43.3160 C   0  0  0  0  0  2  0  0  0  0  0  0
   40.1930   26.0500   43.6800 C   0  0  0  0  0  2  0  0  0  0  0  0
   39.5820   24.7990   43.1000 C   0  0  0  0  0  2  0  0  0  0  0  0
   38.5300   25.2720   42.1020 C   0  0  0  0  0  2  0  0  0  0  0  0
   37.8080   29.6250   40.2430 C   0  0  0  0  0  0  0  0  0  0  0  0
   37.8540   28.9510   39.2140 O   0  0  0  0  0  0  0  0  0  0  0  0
   37.0980   31.7620   39.2710 C   0  0  0  0  0  0  0  0  0  0  0  0
   37.8750   31.0560   40.1410 C   0  0  0  0  0  0  0  0  0  0  0  0
   38.7550   31.7740   40.9730 C   0  0  0  0  0  0  0  0  0  0  0  0
   38.8060   33.1200   40.8890 N   0  0  0  0  0  0  0  0  0  0  0  0
   38.0150   33.8010   40.0050 C   0  0  0  0  0  0  0  0  0  0  0  0
   37.1890   33.1200   39.2260 N   0  0  0  0  0  0  0  0  0  0  0  0
   36.4370   31.1710   38.6510 H   0  0  0  0  0  0  0  0  0  0  0  0
   39.3880   31.2560   41.6770 H   0  0  0  0  0  0  0  0  0  0  0  0
   38.0370   34.8750   39.9190 H   0  0  0  0  0  0  0  0  0  0  0  0
  1  3  1  0  0  0  0
  1  2  1  0  0  0  0
  1  4  1  1  0  0  0
  2  5  1  0  0  0  0
  3  7  1  6  0  0  0
  3  2  1  0  0  0  0
  3  8  1  0  0  0  0
  6  2  1  0  0  0  0
  8  9  1  0  0  0  0
  9 10  1  0  0  0  0
 11 10  1  0  0  0  0
 12  8  1  0  0  0  0
 12 11  1  0  0  0  0
 13  1  1  0  0  0  0
 14 13  2  0  0  0  0
 15 16  1  0  0  0  0
 16 13  1  0  0  0  0
 16 17  2  0  0  0  0
 17 22  1  0  0  0  0
 18 17  1  0  0  0  0
 19 18  2  0  0  0  0
 20 15  2  0  0  0  0
 20 19  1  0  0  0  0
 21 15  1  0  0  0  0
 23 19  1  0  0  0  0
M  END
>  <minimizedAffinity>
-4.56381035

$$$$

 OpenBabel03242512073D

 23 25  0  0  1  0  0  0  0  0999 V2000
   37.4200   28.9270   40.4910 C   0  0  1  0  0  0  0  0  0  0  0  0
   35.9970   28.6500   41.0890 C   0  0  0  0  0  0  0  0  0  0  0  0
   36.7180   27.7060   40.2030 C   0  0  2  0  0  0  0  0  0  0  0  0
   38.1340   29.0590   41.3460 H   0  0  0  0  0  0  0  0  0  0  0  0
   35.9980   28.5440   42.1760 H   0  0  0  0  0  0  0  0  0  0  0  0
   35.1770   29.2850   40.7170 H   0  0  0  0  0  0  0  0  0  0  0  0
   36.2480   27.6800   39.1610 H   0  0  0  0  0  0  0  0  0  0  0  0
   37.2090   26.3650   40.5920 C   0  0  0  0  0  3  0  0  0  0  0  0
   36.5180   25.2210   39.8720 C   0  0  0  0  0  2  0  0  0  0  0  0
   36.5060   24.0650   40.8450 C   0  0  0  0  0  2  0  0  0  0  0  0
   37.0850   24.5580   42.1480 C   0  0  0  0  0  2  0  0  0  0  0  0
   37.1010   26.0800   42.0470 C   0  0  0  0  0  2  0  0  0  0  0  0
   37.4140   30.0560   39.5220 C   0  0  0  0  0  0  0  0  0  0  0  0
   37.0520   29.8190   38.3700 O   0  0  0  0  0  0  0  0  0  0  0  0
   38.8350   31.6630   40.7110 C   0  0  0  0  0  0  0  0  0  0  0  0
   37.7960   31.3970   39.8700 C   0  0  0  0  0  0  0  0  0  0  0  0
   37.0960   32.4870   39.3180 C   0  0  0  0  0  0  0  0  0  0  0  0
   37.4650   33.7460   39.6320 N   0  0  0  0  0  0  0  0  0  0  0  0
   38.5120   33.9820   40.4810 C   0  0  0  0  0  0  0  0  0  0  0  0
   39.1660   32.9530   40.9950 N   0  0  0  0  0  0  0  0  0  0  0  0
   39.3450   30.7970   41.1110 H   0  0  0  0  0  0  0  0  0  0  0  0
   36.2670   32.3220   38.6480 H   0  0  0  0  0  0  0  0  0  0  0  0
   38.8260   34.9780   40.7470 H   0  0  0  0  0  0  0  0  0  0  0  0
  1  2  1  0  0  0  0
  1  4  1  1  0  0  0
  2  5  1  0  0  0  0
  3  7  1  6  0  0  0
  3  1  1  0  0  0  0
  3  8  1  0  0  0  0
  3  2  1  0  0  0  0
  6  2  1  0  0  0  0
  8 12  1  0  0  0  0
  9  8  1  0  0  0  0
  9 10  1  0  0  0  0
 10 11  1  0  0  0  0
 12 11  1  0  0  0  0
 13 16  1  0  0  0  0
 13  1  1  0  0  0  0
 14 13  2  0  0  0  0
 15 20  1  0  0  0  0
 15 21  1  0  0  0  0
 16 15  2  0  0  0  0
 17 18  2  0  0  0  0
 17 16  1  0  0  0  0
 18 19  1  0  0  0  0
 19 23  1  0  0  0  0
 19 20  2  0  0  0  0
 22 17  1  0  0  0  0
M  END
>  <minimizedAffinity>
-4.53560638

$$$$

 OpenBabel03242512073D

 23 25  0  0  1  0  0  0  0  0999 V2000
   37.8550   29.8210   40.9980 C   0  0  1  0  0  0  0  0  0  0  0  0
   38.2480   29.6320   42.5040 C   0  0  0  0  0  0  0  0  0  0  0  0
   36.9720   29.1580   41.9190 C   0  0  2  0  0  0  0  0  0  0  0  0
   38.6240   29.2970   40.3710 H   0  0  0  0  0  0  0  0  0  0  0  0
   39.1040   28.9690   42.6470 H   0  0  0  0  0  0  0  0  0  0  0  0
   38.3030   30.5480   43.1150 H   0  0  0  0  0  0  0  0  0  0  0  0
   36.0960   29.8060   42.2640 H   0  0  0  0  0  0  0  0  0  0  0  0
   36.5590   27.7430   41.7860 C   0  0  0  0  0  3  0  0  0  0  0  0
   37.1340   26.8280   42.8530 C   0  0  0  0  0  2  0  0  0  0  0  0
   37.3110   25.4800   42.1930 C   0  0  0  0  0  2  0  0  0  0  0  0
   36.9440   25.6330   40.7380 C   0  0  0  0  0  2  0  0  0  0  0  0
   36.9010   27.1340   40.4730 C   0  0  0  0  0  2  0  0  0  0  0  0
   37.6510   31.2520   40.6430 C   0  0  0  0  0  0  0  0  0  0  0  0
   36.5160   31.7130   40.7570 O   0  0  0  0  0  0  0  0  0  0  0  0
   39.5150   31.7850   39.1420 C   0  0  0  0  0  0  0  0  0  0  0  0
   38.7100   32.1110   40.1920 C   0  0  0  0  0  0  0  0  0  0  0  0
   38.9270   33.3460   40.8330 C   0  0  0  0  0  0  0  0  0  0  0  0
   39.9120   34.1610   40.3990 N   0  0  0  0  0  0  0  0  0  0  0  0
   40.7050   33.8060   39.3430 C   0  0  0  0  0  0  0  0  0  0  0  0
   40.4950   32.6430   38.7440 N   0  0  0  0  0  0  0  0  0  0  0  0
   39.3140   30.8290   38.6790 H   0  0  0  0  0  0  0  0  0  0  0  0
   38.3130   33.6450   41.6680 H   0  0  0  0  0  0  0  0  0  0  0  0
   41.4970   34.4380   38.9770 H   0  0  0  0  0  0  0  0  0  0  0  0
  1  4  1  6  0  0  0
  1  3  1  0  0  0  0
  1  2  1  0  0  0  0
  2  5  1  0  0  0  0
  2  6  1  0  0  0  0
  3  7  1  1  0  0  0
  3  2  1  0  0  0  0
  8  3  1  0  0  0  0
  8  9  1  0  0  0  0
 10  9  1  0  0  0  0
 11 10  1  0  0  0  0
 12 11  1  0  0  0  0
 12  8  1  0  0  0  0
 13 14  2  0  0  0  0
 13  1  1  0  0  0  0
 15 16  1  0  0  0  0
 16 13  1  0  0  0  0
 16 17  2  0  0  0  0
 17 22  1  0  0  0  0
 18 17  1  0  0  0  0
 19 18  2  0  0  0  0
 20 15  2  0  0  0  0
 20 19  1  0  0  0  0
 21 15  1  0  0  0  0
 23 19  1  0  0  0  0
M  END
>  <minimizedAffinity>
-4.48774147

$$$$

 OpenBabel03242512073D

 23 25  0  0  1  0  0  0  0  0999 V2000
   37.3460   26.4990   41.4330 C   0  0  1  0  0  0  0  0  0  0  0  0
   38.6710   25.9630   42.0770 C   0  0  0  0  0  0  0  0  0  0  0  0
   37.3860   25.2250   42.0990 C   0  0  2  0  0  0  0  0  0  0  0  0
   37.5280   26.6440   40.3360 H   0  0  0  0  0  0  0  0  0  0  0  0
   39.4520   25.7500   41.3440 H   0  0  0  0  0  0  0  0  0  0  0  0
   39.0430   26.5090   42.9590 H   0  0  0  0  0  0  0  0  0  0  0  0
   36.9230   25.2380   43.1440 H   0  0  0  0  0  0  0  0  0  0  0  0
   37.1230   23.9360   41.4220 C   0  0  0  0  0  3  0  0  0  0  0  0
   38.3650   23.2670   40.8600 C   0  0  0  0  0  2  0  0  0  0  0  0
   37.9110   22.5150   39.6310 C   0  0  0  0  0  2  0  0  0  0  0  0
   36.4490   22.8240   39.4190 C   0  0  0  0  0  2  0  0  0  0  0  0
   36.1460   24.0280   40.3050 C   0  0  0  0  0  2  0  0  0  0  0  0
   36.8280   27.7070   42.1300 C   0  0  0  0  0  0  0  0  0  0  0  0
   36.2420   27.5430   43.2000 O   0  0  0  0  0  0  0  0  0  0  0  0
   38.1360   29.7560   41.8080 C   0  0  0  0  0  0  0  0  0  0  0  0
   36.9900   29.0410   41.6230 C   0  0  0  0  0  0  0  0  0  0  0  0
   35.9470   29.6420   40.8930 C   0  0  0  0  0  0  0  0  0  0  0  0
   36.1050   30.8890   40.4030 N   0  0  0  0  0  0  0  0  0  0  0  0
   37.2670   31.5830   40.6050 C   0  0  0  0  0  0  0  0  0  0  0  0
   38.2440   31.0120   41.2930 N   0  0  0  0  0  0  0  0  0  0  0  0
   38.9110   29.2580   42.3740 H   0  0  0  0  0  0  0  0  0  0  0  0
   35.0220   29.1120   40.7230 H   0  0  0  0  0  0  0  0  0  0  0  0
   37.4180   32.5790   40.2250 H   0  0  0  0  0  0  0  0  0  0  0  0
  1  4  1  6  0  0  0
  1  2  1  0  0  0  0
  1  3  1  0  0  0  0
  1 13  1  0  0  0  0
  2  3  1  0  0  0  0
  2  6  1  0  0  0  0
  3  7  1  1  0  0  0
  5  2  1  0  0  0  0
  8  3  1  0  0  0  0
  9  8  1  0  0  0  0
 10  9  1  0  0  0  0
 11 10  1  0  0  0  0
 11 12  1  0  0  0  0
 12  8  1  0  0  0  0
 13 14  2  0  0  0  0
 15 21  1  0  0  0  0
 16 15  1  0  0  0  0
 16 13  1  0  0  0  0
 17 16  2  0  0  0  0
 18 19  2  0  0  0  0
 18 17  1  0  0  0  0
 19 20  1  0  0  0  0
 20 15  2  0  0  0  0
 22 17  1  0  0  0  0
 23 19  1  0  0  0  0
M  END
>  <minimizedAffinity>
-4.47233772

$$$$
