
 OpenBabel03252507523D

 27 29  0  0  1  0  0  0  0  0999 V2000
   46.8450   34.9210   42.1540 C   0  0  2  0  0  0  0  0  0  0  0  0
   46.2950   34.0370   41.0900 C   0  0  0  0  0  0  0  0  0  0  0  0
   47.4960   33.9360   40.1600 C   0  0  0  0  0  0  0  0  0  0  0  0
   48.7020   34.1430   41.0270 C   0  0  1  0  0  0  0  0  0  0  0  0
   48.1710   34.2090   42.4580 C   0  0  0  0  0  0  0  0  0  0  0  0
   47.1200   35.9000   41.7450 H   0  0  0  0  0  0  0  0  0  0  0  0
   45.9460   33.0710   41.4490 H   0  0  0  0  0  0  0  0  0  0  0  0
   45.5070   34.6030   40.5280 H   0  0  0  0  0  0  0  0  0  0  0  0
   47.4200   34.6590   39.3220 H   0  0  0  0  0  0  0  0  0  0  0  0
   47.4950   32.8940   39.7790 H   0  0  0  0  0  0  0  0  0  0  0  0
   49.1880   35.1000   40.7590 H   0  0  0  0  0  0  0  0  0  0  0  0
   48.0150   33.2030   42.8440 H   0  0  0  0  0  0  0  0  0  0  0  0
   48.7330   34.8830   43.1040 H   0  0  0  0  0  0  0  0  0  0  0  0
   44.4050   36.0980   44.7780 C   0  0  0  0  0  0  0  0  0  0  0  0
   45.1220   36.0960   43.5860 C   0  0  0  0  0  0  0  0  0  0  0  0
   46.0240   35.0640   43.3670 C   0  0  0  0  0  0  0  0  0  0  0  0
   46.1550   34.1000   44.3450 N   0  0  0  0  0  0  0  0  0  0  0  0
   45.4450   34.1340   45.4850 C   0  0  0  0  0  0  0  0  0  0  0  0
   44.5730   35.1210   45.7140 N   0  0  0  0  0  0  0  0  0  0  0  0
   43.7230   36.9530   44.8530 H   0  0  0  0  0  0  0  0  0  0  0  0
   45.0130   36.8560   42.8230 H   0  0  0  0  0  0  0  0  0  0  0  0
   45.5660   33.3670   46.2360 H   0  0  0  0  0  0  0  0  0  0  0  0
   49.6650   32.9790   40.9650 C   0  0  0  0  0  3  0  0  0  0  0  0
   49.5480   32.0660   42.1370 C   0  0  0  0  0  2  0  0  0  0  0  0
   48.8340   30.8160   41.6520 C   0  0  0  0  0  2  0  0  0  0  0  0
   49.4730   30.6550   40.2680 C   0  0  0  0  0  2  0  0  0  0  0  0
   49.4110   32.0990   39.7710 C   0  0  0  0  0  2  0  0  0  0  0  0
  1  6  1  6  0  0  0
  1  5  1  0  0  0  0
  1 16  1  0  0  0  0
  2  7  1  0  0  0  0
  2  1  1  0  0  0  0
  3  4  1  0  0  0  0
  3  2  1  0  0  0  0
  4 11  1  6  0  0  0
  4  5  1  0  0  0  0
  5 12  1  0  0  0  0
  5 13  1  0  0  0  0
  8  2  1  0  0  0  0
  9  3  1  0  0  0  0
 10  3  1  0  0  0  0
 14 20  1  0  0  0  0
 14 19  1  0  0  0  0
 15 14  2  0  0  0  0
 16 15  1  0  0  0  0
 16 17  2  0  0  0  0
 17 18  1  0  0  0  0
 18 19  2  0  0  0  0
 18 22  1  0  0  0  0
 21 15  1  0  0  0  0
 23  4  1  0  0  0  0
 23 24  1  0  0  0  0
 25 24  1  0  0  0  0
 26 25  1  0  0  0  0
 27 26  1  0  0  0  0
 27 23  1  0  0  0  0
M  END
>  <minimizedAffinity>
-4.5162034

>  <minimizedRMSD>
1.9786135

$$$$
