
 OpenBabel03252509213D

 21 23  0  0  0  0  0  0  0  0999 V2000
   45.4190   33.6750   45.9680 C   0  0  0  0  0  0  0  0  0  0  0  0
   45.8350   33.5630   44.5810 C   0  0  0  0  0  0  0  0  0  0  0  0
   46.8850   32.6640   44.4670 C   0  0  0  0  0  0  0  0  0  0  0  0
   47.4190   31.9940   45.5600 N   0  0  0  0  0  0  0  0  0  0  0  0
   46.9660   32.1610   46.8070 C   0  0  0  0  0  0  0  0  0  0  0  0
   45.9530   33.0120   47.0160 N   0  0  0  0  0  0  0  0  0  0  0  0
   44.6100   34.3330   46.2590 H   0  0  0  0  0  0  0  0  0  0  0  0
   47.5420   31.5340   47.4590 H   0  0  0  0  0  0  0  0  0  0  0  0
   47.3770   32.3580   43.0750 C   0  0  0  0  0  0  0  0  0  0  0  0
   48.6640   33.1480   42.7640 C   0  0  0  0  0  0  0  0  0  0  0  0
   48.5990   31.6160   42.9500 C   0  0  0  0  0  0  0  0  0  0  0  0
   46.6720   32.4670   42.2570 H   0  0  0  0  0  0  0  0  0  0  0  0
   48.8630   33.4910   41.7530 H   0  0  0  0  0  0  0  0  0  0  0  0
   49.1110   33.6770   43.5900 H   0  0  0  0  0  0  0  0  0  0  0  0
   49.1020   31.2090   43.8670 H   0  0  0  0  0  0  0  0  0  0  0  0
   48.9010   31.0270   42.0610 H   0  0  0  0  0  0  0  0  0  0  0  0
   45.1700   34.3010   43.5700 C   0  0  0  0  0  3  0  0  0  0  0  0
   45.7580   35.5270   42.9590 C   0  0  0  0  0  2  0  0  0  0  0  0
   44.5320   36.0640   42.2340 C   0  0  0  0  0  2  0  0  0  0  0  0
   43.6070   34.8860   41.9940 C   0  0  0  0  0  2  0  0  0  0  0  0
   44.4250   33.6580   42.4670 C   0  0  0  0  0  2  0  0  0  0  0  0
  1  7  1  0  0  0  0
  1  6  1  0  0  0  0
  2  1  2  0  0  0  0
  3  2  1  0  0  0  0
  3  4  2  0  0  0  0
  4  5  1  0  0  0  0
  5  6  2  0  0  0  0
  5  8  1  0  0  0  0
  9  3  1  0  0  0  0
 10 11  1  0  0  0  0
 10  9  1  0  0  0  0
 10 14  1  0  0  0  0
 11  9  1  0  0  0  0
 11 15  1  0  0  0  0
 12  9  1  0  0  0  0
 13 10  1  0  0  0  0
 16 11  1  0  0  0  0
 17  2  1  0  0  0  0
 18 17  1  0  0  0  0
 19 18  1  0  0  0  0
 20 19  1  0  0  0  0
 20 21  1  0  0  0  0
 21 17  1  0  0  0  0
M  END
>  <minimizedAffinity>
-3.55261135

>  <minimizedRMSD>
2.91794038

$$$$
