
 OpenBabel03252501283D

 38 42  0  0  0  0  0  0  0  0999 V2000
   37.5100   30.4800   41.1650 C   0  0  0  0  0  0  0  0  0  0  0  0
   36.4940   31.1250   40.4790 C   0  0  0  0  0  0  0  0  0  0  0  0
   36.9730   32.3020   39.9850 C   0  0  0  0  0  0  0  0  0  0  0  0
   38.2680   32.3700   40.3670 N   0  0  0  0  0  0  0  0  0  0  0  0
   38.5750   31.2840   41.0660 N   0  0  0  0  0  0  0  0  0  0  0  0
   35.4750   30.7560   40.3520 H   0  0  0  0  0  0  0  0  0  0  0  0
   36.4870   33.0740   39.4010 H   0  0  0  0  0  0  0  0  0  0  0  0
   40.7550   31.9890   39.0820 F   0  0  0  0  0  0  0  0  0  0  0  0
   40.3990   33.2080   39.4820 C   0  0  0  0  0  0  0  0  0  0  0  0
   39.1900   33.3870   40.1050 C   0  0  0  0  0  0  0  0  0  0  0  0
   38.8060   34.6710   40.5300 C   0  0  0  0  0  0  0  0  0  0  0  0
   39.5980   35.7640   40.3450 C   0  0  0  0  0  0  0  0  0  0  0  0
   40.8110   35.5590   39.7160 C   0  0  0  0  0  0  0  0  0  0  0  0
   41.2140   34.2980   39.2860 C   0  0  0  0  0  0  0  0  0  0  0  0
   37.8560   34.8450   41.0260 H   0  0  0  0  0  0  0  0  0  0  0  0
   39.3250   36.7620   40.6640 H   0  0  0  0  0  0  0  0  0  0  0  0
   41.4700   36.4030   39.5500 H   0  0  0  0  0  0  0  0  0  0  0  0
   42.5120   34.1930   38.6320 C   0  0  0  0  0  0  0  0  0  0  0  0
   42.8650   34.1650   37.3040 C   0  0  0  0  0  0  0  0  0  0  0  0
   44.2120   34.0570   37.1820 N   0  0  0  0  0  0  0  0  0  0  0  0
   44.7010   34.0160   38.4240 C   0  0  0  0  0  0  0  0  0  0  0  0
   43.6860   34.0980   39.2920 N   0  0  0  0  0  0  0  0  0  0  0  0
   42.0690   34.2290   36.5480 H   0  0  0  0  0  0  0  0  0  0  0  0
   44.6120   34.0240   36.2250 H   0  0  0  0  0  0  0  0  0  0  0  0
   45.7470   33.9330   38.6020 H   0  0  0  0  0  0  0  0  0  0  0  0
   37.3830   27.9580   43.8090 C   0  0  0  0  0  0  0  0  0  0  0  0
   37.1830   26.7650   43.0850 C   0  0  0  0  0  0  0  0  0  0  0  0
   37.0950   26.8530   41.6900 C   0  0  0  0  0  0  0  0  0  0  0  0
   37.2070   28.0700   41.1410 N   0  0  0  0  0  0  0  0  0  0  0  0
   37.3990   29.2090   41.8310 C   0  0  0  0  0  0  0  0  0  0  0  0
   37.4880   29.1540   43.1870 N   0  0  0  0  0  0  0  0  0  0  0  0
   37.4430   27.8410   44.8700 H   0  0  0  0  0  0  0  0  0  0  0  0
   37.0930   25.7970   43.5260 H   0  0  0  0  0  0  0  0  0  0  0  0
   36.8850   25.6860   40.7910 C   0  0  0  0  0  3  0  0  0  0  0  0
   36.8800   24.4430   41.6390 C   0  0  0  0  0  2  0  0  0  0  0  0
   38.1050   23.6430   41.2310 C   0  0  0  0  0  2  0  0  0  0  0  0
   39.0620   24.6480   40.6020 C   0  0  0  0  0  2  0  0  0  0  0  0
   38.0880   25.5310   39.8520 C   0  0  0  0  0  2  0  0  0  0  0  0
  1 30  1  0  0  0  0
  2  1  1  0  0  0  0
  3  4  1  0  0  0  0
  3  2  2  0  0  0  0
  4  5  1  0  0  0  0
  5  1  2  0  0  0  0
  6  2  1  0  0  0  0
  7  3  1  0  0  0  0
  8  9  1  0  0  0  0
  9 10  1  0  0  0  0
 10  4  1  0  0  0  0
 10 11  2  0  0  0  0
 11 15  1  0  0  0  0
 12 11  1  0  0  0  0
 12 16  1  0  0  0  0
 13 12  2  0  0  0  0
 14  9  2  0  0  0  0
 14 13  1  0  0  0  0
 17 13  1  0  0  0  0
 18 14  1  0  0  0  0
 18 22  1  0  0  0  0
 19 18  2  0  0  0  0
 20 19  1  0  0  0  0
 20 21  1  0  0  0  0
 21 25  1  0  0  0  0
 21 22  2  0  0  0  0
 23 19  1  0  0  0  0
 24 20  1  0  0  0  0
 26 32  1  0  0  0  0
 27 33  1  0  0  0  0
 27 26  2  0  0  0  0
 28 27  1  0  0  0  0
 29 28  2  0  0  0  0
 29 30  1  0  0  0  0
 30 31  2  0  0  0  0
 31 26  1  0  0  0  0
 34 35  1  0  0  0  0
 34 28  1  0  0  0  0
 36 35  1  0  0  0  0
 37 36  1  0  0  0  0
 38 37  1  0  0  0  0
 38 34  1  0  0  0  0
M  END
>  <minimizedAffinity>
-7.69996309

$$$$

 OpenBabel03252501283D

 38 42  0  0  0  0  0  0  0  0999 V2000
   37.6830   30.4860   41.3410 C   0  0  0  0  0  0  0  0  0  0  0  0
   36.6240   31.1170   40.7100 C   0  0  0  0  0  0  0  0  0  0  0  0
   37.0630   32.2950   40.1820 C   0  0  0  0  0  0  0  0  0  0  0  0
   38.3760   32.3770   40.4900 N   0  0  0  0  0  0  0  0  0  0  0  0
   38.7330   31.2990   41.1770 N   0  0  0  0  0  0  0  0  0  0  0  0
   35.6030   30.7380   40.6430 H   0  0  0  0  0  0  0  0  0  0  0  0
   36.5380   33.0590   39.6220 H   0  0  0  0  0  0  0  0  0  0  0  0
   40.8660   31.9900   39.2120 F   0  0  0  0  0  0  0  0  0  0  0  0
   40.4820   33.2190   39.5510 C   0  0  0  0  0  0  0  0  0  0  0  0
   39.2720   33.4010   40.1710 C   0  0  0  0  0  0  0  0  0  0  0  0
   38.8590   34.6960   40.5310 C   0  0  0  0  0  0  0  0  0  0  0  0
   39.6240   35.7970   40.2850 C   0  0  0  0  0  0  0  0  0  0  0  0
   40.8380   35.5880   39.6600 C   0  0  0  0  0  0  0  0  0  0  0  0
   41.2700   34.3160   39.2940 C   0  0  0  0  0  0  0  0  0  0  0  0
   37.9080   34.8730   41.0230 H   0  0  0  0  0  0  0  0  0  0  0  0
   39.3280   36.8030   40.5530 H   0  0  0  0  0  0  0  0  0  0  0  0
   41.4760   36.4380   39.4470 H   0  0  0  0  0  0  0  0  0  0  0  0
   42.5670   34.2090   38.6390 C   0  0  0  0  0  0  0  0  0  0  0  0
   42.9180   34.1820   37.3110 C   0  0  0  0  0  0  0  0  0  0  0  0
   44.2650   34.0700   37.1870 N   0  0  0  0  0  0  0  0  0  0  0  0
   44.7550   34.0270   38.4290 C   0  0  0  0  0  0  0  0  0  0  0  0
   43.7410   34.1100   39.2970 N   0  0  0  0  0  0  0  0  0  0  0  0
   42.1220   34.2490   36.5550 H   0  0  0  0  0  0  0  0  0  0  0  0
   44.6640   34.0380   36.2300 H   0  0  0  0  0  0  0  0  0  0  0  0
   45.8010   33.9400   38.6050 H   0  0  0  0  0  0  0  0  0  0  0  0
   36.3900   27.3490   42.7030 C   0  0  0  0  0  0  0  0  0  0  0  0
   37.5270   26.7930   43.3240 C   0  0  0  0  0  0  0  0  0  0  0  0
   38.7250   27.5140   43.2610 C   0  0  0  0  0  0  0  0  0  0  0  0
   38.7050   28.6860   42.6120 N   0  0  0  0  0  0  0  0  0  0  0  0
   37.6220   29.2180   42.0200 C   0  0  0  0  0  0  0  0  0  0  0  0
   36.4430   28.5390   42.0640 N   0  0  0  0  0  0  0  0  0  0  0  0
   35.4990   26.7630   42.7770 H   0  0  0  0  0  0  0  0  0  0  0  0
   37.5390   25.8580   43.8400 H   0  0  0  0  0  0  0  0  0  0  0  0
   40.0070   27.0600   43.8660 C   0  0  0  0  0  3  0  0  0  0  0  0
   41.1300   27.7500   43.1430 C   0  0  0  0  0  2  0  0  0  0  0  0
   41.9020   26.6610   42.4170 C   0  0  0  0  0  2  0  0  0  0  0  0
   40.9300   25.4980   42.2670 C   0  0  0  0  0  2  0  0  0  0  0  0
   40.2070   25.5640   43.5940 C   0  0  0  0  0  2  0  0  0  0  0  0
  1 30  1  0  0  0  0
  2  1  1  0  0  0  0
  3  4  1  0  0  0  0
  3  2  2  0  0  0  0
  4  5  1  0  0  0  0
  5  1  2  0  0  0  0
  6  2  1  0  0  0  0
  7  3  1  0  0  0  0
  8  9  1  0  0  0  0
  9 10  1  0  0  0  0
 10  4  1  0  0  0  0
 10 11  2  0  0  0  0
 11 15  1  0  0  0  0
 12 11  1  0  0  0  0
 12 16  1  0  0  0  0
 13 12  2  0  0  0  0
 14  9  2  0  0  0  0
 14 13  1  0  0  0  0
 17 13  1  0  0  0  0
 18 14  1  0  0  0  0
 18 22  1  0  0  0  0
 19 18  2  0  0  0  0
 20 19  1  0  0  0  0
 20 21  1  0  0  0  0
 21 25  1  0  0  0  0
 21 22  2  0  0  0  0
 23 19  1  0  0  0  0
 24 20  1  0  0  0  0
 26 32  1  0  0  0  0
 26 27  1  0  0  0  0
 27 33  1  0  0  0  0
 28 27  2  0  0  0  0
 28 34  1  0  0  0  0
 29 28  1  0  0  0  0
 30 31  1  0  0  0  0
 30 29  2  0  0  0  0
 31 26  2  0  0  0  0
 35 34  1  0  0  0  0
 36 35  1  0  0  0  0
 37 36  1  0  0  0  0
 37 38  1  0  0  0  0
 38 34  1  0  0  0  0
M  END
>  <minimizedAffinity>
-7.36632204

$$$$

 OpenBabel03252501283D

 38 42  0  0  0  0  0  0  0  0999 V2000
   37.4670   30.4040   41.1500 C   0  0  0  0  0  0  0  0  0  0  0  0
   36.5030   31.0160   40.3670 C   0  0  0  0  0  0  0  0  0  0  0  0
   36.9570   32.2440   39.9870 C   0  0  0  0  0  0  0  0  0  0  0  0
   38.1850   32.3750   40.5360 N   0  0  0  0  0  0  0  0  0  0  0  0
   38.4770   31.2780   41.2230 N   0  0  0  0  0  0  0  0  0  0  0  0
   35.5370   30.5890   40.0940 H   0  0  0  0  0  0  0  0  0  0  0  0
   36.4960   33.0120   39.3780 H   0  0  0  0  0  0  0  0  0  0  0  0
   40.9880   32.2120   40.8540 F   0  0  0  0  0  0  0  0  0  0  0  0
   40.4210   33.3890   40.5910 C   0  0  0  0  0  0  0  0  0  0  0  0
   39.0600   33.4610   40.4370 C   0  0  0  0  0  0  0  0  0  0  0  0
   38.4540   34.6990   40.1590 C   0  0  0  0  0  0  0  0  0  0  0  0
   39.1740   35.8490   40.0330 C   0  0  0  0  0  0  0  0  0  0  0  0
   40.5420   35.7500   40.1920 C   0  0  0  0  0  0  0  0  0  0  0  0
   41.1670   34.5370   40.4680 C   0  0  0  0  0  0  0  0  0  0  0  0
   37.3790   34.7890   40.0320 H   0  0  0  0  0  0  0  0  0  0  0  0
   38.7300   36.8130   39.8190 H   0  0  0  0  0  0  0  0  0  0  0  0
   41.1510   36.6420   40.1000 H   0  0  0  0  0  0  0  0  0  0  0  0
   42.6160   34.5450   40.6160 C   0  0  0  0  0  0  0  0  0  0  0  0
   43.4280   35.0230   41.6170 C   0  0  0  0  0  0  0  0  0  0  0  0
   44.7300   34.8010   41.3060 N   0  0  0  0  0  0  0  0  0  0  0  0
   44.7360   34.1910   40.1180 C   0  0  0  0  0  0  0  0  0  0  0  0
   43.4730   34.0370   39.7050 N   0  0  0  0  0  0  0  0  0  0  0  0
   42.9590   35.4960   42.4920 H   0  0  0  0  0  0  0  0  0  0  0  0
   45.4510   35.1170   41.9830 H   0  0  0  0  0  0  0  0  0  0  0  0
   45.6480   33.9060   39.6500 H   0  0  0  0  0  0  0  0  0  0  0  0
   37.3240   27.7390   43.6500 C   0  0  0  0  0  0  0  0  0  0  0  0
   37.1580   26.5850   42.8570 C   0  0  0  0  0  0  0  0  0  0  0  0
   37.0970   26.7480   41.4680 C   0  0  0  0  0  0  0  0  0  0  0  0
   37.2020   27.9950   40.9890 N   0  0  0  0  0  0  0  0  0  0  0  0
   37.3620   29.0970   41.7430 C   0  0  0  0  0  0  0  0  0  0  0  0
   37.4240   28.9690   43.0970 N   0  0  0  0  0  0  0  0  0  0  0  0
   37.3650   27.5650   44.7040 H   0  0  0  0  0  0  0  0  0  0  0  0
   37.0740   25.5920   43.2430 H   0  0  0  0  0  0  0  0  0  0  0  0
   36.9240   25.6290   40.5020 C   0  0  0  0  0  3  0  0  0  0  0  0
   36.7760   24.3560   41.2910 C   0  0  0  0  0  2  0  0  0  0  0  0
   37.9970   23.5110   40.9690 C   0  0  0  0  0  2  0  0  0  0  0  0
   39.0580   24.4900   40.4810 C   0  0  0  0  0  2  0  0  0  0  0  0
   38.2060   25.4500   39.6800 C   0  0  0  0  0  2  0  0  0  0  0  0
  1  5  2  0  0  0  0
  1 30  1  0  0  0  0
  2  1  1  0  0  0  0
  3  2  2  0  0  0  0
  3  4  1  0  0  0  0
  4  5  1  0  0  0  0
  6  2  1  0  0  0  0
  7  3  1  0  0  0  0
  9  8  1  0  0  0  0
 10  4  1  0  0  0  0
 10  9  2  0  0  0  0
 11 10  1  0  0  0  0
 12 11  2  0  0  0  0
 12 13  1  0  0  0  0
 13 14  2  0  0  0  0
 14  9  1  0  0  0  0
 14 18  1  0  0  0  0
 15 11  1  0  0  0  0
 16 12  1  0  0  0  0
 17 13  1  0  0  0  0
 18 19  2  0  0  0  0
 19 23  1  0  0  0  0
 20 19  1  0  0  0  0
 20 24  1  0  0  0  0
 21 20  1  0  0  0  0
 22 21  2  0  0  0  0
 22 18  1  0  0  0  0
 25 21  1  0  0  0  0
 26 32  1  0  0  0  0
 27 33  1  0  0  0  0
 27 26  2  0  0  0  0
 28 27  1  0  0  0  0
 29 28  2  0  0  0  0
 29 30  1  0  0  0  0
 30 31  2  0  0  0  0
 31 26  1  0  0  0  0
 34 35  1  0  0  0  0
 34 28  1  0  0  0  0
 36 35  1  0  0  0  0
 37 36  1  0  0  0  0
 38 37  1  0  0  0  0
 38 34  1  0  0  0  0
M  END
>  <minimizedAffinity>
-7.34588528

$$$$

 OpenBabel03252501283D

 38 42  0  0  0  0  0  0  0  0999 V2000
   38.4630   32.2460   40.7250 C   0  0  0  0  0  0  0  0  0  0  0  0
   37.1500   32.0050   40.3540 C   0  0  0  0  0  0  0  0  0  0  0  0
   36.7990   30.7530   40.7640 C   0  0  0  0  0  0  0  0  0  0  0  0
   37.8880   30.2400   41.3770 N   0  0  0  0  0  0  0  0  0  0  0  0
   38.8690   31.1340   41.3480 N   0  0  0  0  0  0  0  0  0  0  0  0
   36.4990   32.7000   39.8220 H   0  0  0  0  0  0  0  0  0  0  0  0
   35.8670   30.2100   40.6610 H   0  0  0  0  0  0  0  0  0  0  0  0
   40.3530   28.9070   41.7410 F   0  0  0  0  0  0  0  0  0  0  0  0
   39.2230   28.3290   42.1470 C   0  0  0  0  0  0  0  0  0  0  0  0
   38.0310   28.9810   41.9680 C   0  0  0  0  0  0  0  0  0  0  0  0
   36.8340   28.3780   42.3940 C   0  0  0  0  0  0  0  0  0  0  0  0
   36.8100   27.1520   42.9880 C   0  0  0  0  0  0  0  0  0  0  0  0
   38.0240   26.5150   43.1570 C   0  0  0  0  0  0  0  0  0  0  0  0
   39.2230   27.0910   42.7440 C   0  0  0  0  0  0  0  0  0  0  0  0
   35.8740   28.8680   42.2670 H   0  0  0  0  0  0  0  0  0  0  0  0
   35.9030   26.6670   43.3240 H   0  0  0  0  0  0  0  0  0  0  0  0
   38.0480   25.5380   43.6250 H   0  0  0  0  0  0  0  0  0  0  0  0
   40.4460   26.3330   42.9710 C   0  0  0  0  0  0  0  0  0  0  0  0
   40.9340   25.1910   42.3820 C   0  0  0  0  0  0  0  0  0  0  0  0
   42.1280   24.8570   42.9330 N   0  0  0  0  0  0  0  0  0  0  0  0
   42.3880   25.7810   43.8620 C   0  0  0  0  0  0  0  0  0  0  0  0
   41.3830   26.6640   43.8850 N   0  0  0  0  0  0  0  0  0  0  0  0
   40.3400   24.7150   41.5890 H   0  0  0  0  0  0  0  0  0  0  0  0
   42.6080   24.0080   42.5760 H   0  0  0  0  0  0  0  0  0  0  0  0
   43.2780   25.7440   44.4420 H   0  0  0  0  0  0  0  0  0  0  0  0
   39.2190   35.7640   40.0710 C   0  0  0  0  0  0  0  0  0  0  0  0
   40.6250   35.7630   39.9850 C   0  0  0  0  0  0  0  0  0  0  0  0
   41.2910   34.5430   40.1550 C   0  0  0  0  0  0  0  0  0  0  0  0
   40.5400   33.4590   40.3880 N   0  0  0  0  0  0  0  0  0  0  0  0
   39.1980   33.4570   40.4700 C   0  0  0  0  0  0  0  0  0  0  0  0
   38.5240   34.6280   40.3100 N   0  0  0  0  0  0  0  0  0  0  0  0
   38.7540   36.7170   39.9360 H   0  0  0  0  0  0  0  0  0  0  0  0
   41.2210   36.6300   39.7990 H   0  0  0  0  0  0  0  0  0  0  0  0
   42.7700   34.3830   40.0920 C   0  0  0  0  0  3  0  0  0  0  0  0
   43.0700   32.9160   39.9480 C   0  0  0  0  0  2  0  0  0  0  0  0
   43.7860   32.5010   41.2220 C   0  0  0  0  0  2  0  0  0  0  0  0
   43.3960   33.5360   42.2700 C   0  0  0  0  0  2  0  0  0  0  0  0
   43.3940   34.7960   41.4310 C   0  0  0  0  0  2  0  0  0  0  0  0
  1  5  2  0  0  0  0
  2  1  1  0  0  0  0
  2  3  2  0  0  0  0
  3  4  1  0  0  0  0
  4 10  1  0  0  0  0
  5  4  1  0  0  0  0
  6  2  1  0  0  0  0
  7  3  1  0  0  0  0
  8  9  1  0  0  0  0
  9 14  1  0  0  0  0
 10  9  2  0  0  0  0
 10 11  1  0  0  0  0
 11 12  2  0  0  0  0
 12 13  1  0  0  0  0
 12 16  1  0  0  0  0
 13 17  1  0  0  0  0
 14 18  1  0  0  0  0
 14 13  2  0  0  0  0
 15 11  1  0  0  0  0
 18 22  1  0  0  0  0
 19 20  1  0  0  0  0
 19 18  2  0  0  0  0
 20 21  1  0  0  0  0
 21 22  2  0  0  0  0
 21 25  1  0  0  0  0
 23 19  1  0  0  0  0
 24 20  1  0  0  0  0
 26 31  1  0  0  0  0
 27 26  2  0  0  0  0
 27 28  1  0  0  0  0
 28 29  2  0  0  0  0
 29 30  1  0  0  0  0
 30  1  1  0  0  0  0
 31 30  2  0  0  0  0
 32 26  1  0  0  0  0
 33 27  1  0  0  0  0
 34 28  1  0  0  0  0
 34 38  1  0  0  0  0
 35 34  1  0  0  0  0
 35 36  1  0  0  0  0
 36 37  1  0  0  0  0
 38 37  1  0  0  0  0
M  END
>  <minimizedAffinity>
-7.10369492

$$$$

 OpenBabel03252501283D

 38 42  0  0  0  0  0  0  0  0999 V2000
   38.2000   32.1140   40.5580 C   0  0  0  0  0  0  0  0  0  0  0  0
   36.9710   31.8920   39.9590 C   0  0  0  0  0  0  0  0  0  0  0  0
   36.4890   30.6870   40.3750 C   0  0  0  0  0  0  0  0  0  0  0  0
   37.4170   30.1830   41.2190 N   0  0  0  0  0  0  0  0  0  0  0  0
   38.4270   31.0380   41.3200 N   0  0  0  0  0  0  0  0  0  0  0  0
   36.4670   32.5670   39.2670 H   0  0  0  0  0  0  0  0  0  0  0  0
   35.5690   30.1700   40.1310 H   0  0  0  0  0  0  0  0  0  0  0  0
   37.5450   27.6400   39.9930 F   0  0  0  0  0  0  0  0  0  0  0  0
   37.4450   27.7300   41.3180 C   0  0  0  0  0  0  0  0  0  0  0  0
   37.3840   28.9670   41.9070 C   0  0  0  0  0  0  0  0  0  0  0  0
   37.2800   29.0700   43.3060 C   0  0  0  0  0  0  0  0  0  0  0  0
   37.2370   27.9740   44.1140 C   0  0  0  0  0  0  0  0  0  0  0  0
   37.3000   26.7390   43.4970 C   0  0  0  0  0  0  0  0  0  0  0  0
   37.4030   26.6100   42.1150 C   0  0  0  0  0  0  0  0  0  0  0  0
   37.2290   30.0340   43.8020 H   0  0  0  0  0  0  0  0  0  0  0  0
   37.1570   28.0280   45.1920 H   0  0  0  0  0  0  0  0  0  0  0  0
   37.2690   25.8430   44.1050 H   0  0  0  0  0  0  0  0  0  0  0  0
   37.4640   25.2610   41.5680 C   0  0  0  0  0  0  0  0  0  0  0  0
   38.3040   24.2070   41.8340 C   0  0  0  0  0  0  0  0  0  0  0  0
   37.9690   23.1390   41.0670 N   0  0  0  0  0  0  0  0  0  0  0  0
   36.9270   23.5210   40.3230 C   0  0  0  0  0  0  0  0  0  0  0  0
   36.6240   24.7890   40.6230 N   0  0  0  0  0  0  0  0  0  0  0  0
   39.0950   24.3420   42.5860 H   0  0  0  0  0  0  0  0  0  0  0  0
   38.5290   22.2710   41.1700 H   0  0  0  0  0  0  0  0  0  0  0  0
   36.4710   22.8550   39.6300 H   0  0  0  0  0  0  0  0  0  0  0  0
   39.2310   35.5970   40.1380 C   0  0  0  0  0  0  0  0  0  0  0  0
   40.6300   35.4890   40.0120 C   0  0  0  0  0  0  0  0  0  0  0  0
   41.1960   34.2100   40.0750 C   0  0  0  0  0  0  0  0  0  0  0  0
   40.3630   33.1760   40.2510 N   0  0  0  0  0  0  0  0  0  0  0  0
   39.0280   33.2770   40.3710 C   0  0  0  0  0  0  0  0  0  0  0  0
   38.4500   34.5080   40.3140 N   0  0  0  0  0  0  0  0  0  0  0  0
   38.8440   36.5930   40.0830 H   0  0  0  0  0  0  0  0  0  0  0  0
   41.2910   36.3170   39.8720 H   0  0  0  0  0  0  0  0  0  0  0  0
   42.6550   33.9350   39.9590 C   0  0  0  0  0  3  0  0  0  0  0  0
   42.8580   32.4520   40.1050 C   0  0  0  0  0  2  0  0  0  0  0  0
   43.6400   32.2540   41.3920 C   0  0  0  0  0  2  0  0  0  0  0  0
   43.3880   33.5060   42.2230 C   0  0  0  0  0  2  0  0  0  0  0  0
   43.3980   34.5660   41.1430 C   0  0  0  0  0  2  0  0  0  0  0  0
  1  5  2  0  0  0  0
  2  3  2  0  0  0  0
  2  1  1  0  0  0  0
  3  4  1  0  0  0  0
  4  5  1  0  0  0  0
  4 10  1  0  0  0  0
  6  2  1  0  0  0  0
  7  3  1  0  0  0  0
  8  9  1  0  0  0  0
  9 10  2  0  0  0  0
  9 14  1  0  0  0  0
 10 11  1  0  0  0  0
 11 15  1  0  0  0  0
 11 12  2  0  0  0  0
 12 16  1  0  0  0  0
 13 17  1  0  0  0  0
 13 12  1  0  0  0  0
 14 13  2  0  0  0  0
 18 19  2  0  0  0  0
 18 14  1  0  0  0  0
 19 23  1  0  0  0  0
 20 24  1  0  0  0  0
 20 19  1  0  0  0  0
 21 22  2  0  0  0  0
 21 20  1  0  0  0  0
 22 18  1  0  0  0  0
 25 21  1  0  0  0  0
 26 31  1  0  0  0  0
 27 28  1  0  0  0  0
 27 26  2  0  0  0  0
 28 29  2  0  0  0  0
 29 30  1  0  0  0  0
 30  1  1  0  0  0  0
 31 30  2  0  0  0  0
 32 26  1  0  0  0  0
 33 27  1  0  0  0  0
 34 28  1  0  0  0  0
 34 35  1  0  0  0  0
 34 38  1  0  0  0  0
 35 36  1  0  0  0  0
 36 37  1  0  0  0  0
 38 37  1  0  0  0  0
M  END
>  <minimizedAffinity>
-6.92826271

$$$$

 OpenBabel03252501283D

 38 42  0  0  0  0  0  0  0  0999 V2000
   37.2490   29.2190   39.0540 C   0  0  0  0  0  0  0  0  0  0  0  0
   36.5500   29.8670   38.0480 C   0  0  0  0  0  0  0  0  0  0  0  0
   36.9880   31.1550   37.9670 C   0  0  0  0  0  0  0  0  0  0  0  0
   37.9430   31.2880   38.9140 N   0  0  0  0  0  0  0  0  0  0  0  0
   38.0900   30.1330   39.5520 N   0  0  0  0  0  0  0  0  0  0  0  0
   35.7760   29.4230   37.4210 H   0  0  0  0  0  0  0  0  0  0  0  0
   36.6880   31.9650   37.3130 H   0  0  0  0  0  0  0  0  0  0  0  0
   40.6600   31.6540   38.2320 F   0  0  0  0  0  0  0  0  0  0  0  0
   40.0120   32.6080   38.8990 C   0  0  0  0  0  0  0  0  0  0  0  0
   38.6940   32.4250   39.2270 C   0  0  0  0  0  0  0  0  0  0  0  0
   38.0030   33.4270   39.9290 C   0  0  0  0  0  0  0  0  0  0  0  0
   38.5990   34.5940   40.3050 C   0  0  0  0  0  0  0  0  0  0  0  0
   39.9280   34.7550   39.9630 C   0  0  0  0  0  0  0  0  0  0  0  0
   40.6340   33.7780   39.2670 C   0  0  0  0  0  0  0  0  0  0  0  0
   36.9590   33.3120   40.2040 H   0  0  0  0  0  0  0  0  0  0  0  0
   38.0890   35.3800   40.8460 H   0  0  0  0  0  0  0  0  0  0  0  0
   40.4380   35.6690   40.2430 H   0  0  0  0  0  0  0  0  0  0  0  0
   42.0310   34.0500   38.9570 C   0  0  0  0  0  0  0  0  0  0  0  0
   42.6180   34.7240   37.9130 C   0  0  0  0  0  0  0  0  0  0  0  0
   43.9680   34.7170   38.0550 N   0  0  0  0  0  0  0  0  0  0  0  0
   44.2260   34.0440   39.1790 C   0  0  0  0  0  0  0  0  0  0  0  0
   43.0690   33.6450   39.7190 N   0  0  0  0  0  0  0  0  0  0  0  0
   41.9710   35.1590   37.1380 H   0  0  0  0  0  0  0  0  0  0  0  0
   44.5350   35.1950   37.3280 H   0  0  0  0  0  0  0  0  0  0  0  0
   45.2240   33.8980   39.5160 H   0  0  0  0  0  0  0  0  0  0  0  0
   36.4660   25.6500   38.9080 C   0  0  0  0  0  0  0  0  0  0  0  0
   36.7480   25.2210   40.2200 C   0  0  0  0  0  0  0  0  0  0  0  0
   37.2060   26.1750   41.1370 C   0  0  0  0  0  0  0  0  0  0  0  0
   37.3440   27.4340   40.6980 N   0  0  0  0  0  0  0  0  0  0  0  0
   37.0750   27.8450   39.4470 C   0  0  0  0  0  0  0  0  0  0  0  0
   36.6280   26.9400   38.5340 N   0  0  0  0  0  0  0  0  0  0  0  0
   36.1190   24.8870   38.2440 H   0  0  0  0  0  0  0  0  0  0  0  0
   36.6370   24.2170   40.5660 H   0  0  0  0  0  0  0  0  0  0  0  0
   37.5450   25.8770   42.5550 C   0  0  0  0  0  3  0  0  0  0  0  0
   38.0920   27.1340   43.1740 C   0  0  0  0  0  2  0  0  0  0  0  0
   39.5480   26.8480   43.5030 C   0  0  0  0  0  2  0  0  0  0  0  0
   39.9570   25.6970   42.5930 C   0  0  0  0  0  2  0  0  0  0  0  0
   38.6940   24.8630   42.6110 C   0  0  0  0  0  2  0  0  0  0  0  0
  1 30  1  0  0  0  0
  1  5  2  0  0  0  0
  2  1  1  0  0  0  0
  3  2  2  0  0  0  0
  3  4  1  0  0  0  0
  4 10  1  0  0  0  0
  4  5  1  0  0  0  0
  6  2  1  0  0  0  0
  7  3  1  0  0  0  0
  8  9  1  0  0  0  0
  9 10  2  0  0  0  0
  9 14  1  0  0  0  0
 10 11  1  0  0  0  0
 11 15  1  0  0  0  0
 11 12  2  0  0  0  0
 12 16  1  0  0  0  0
 13 17  1  0  0  0  0
 13 12  1  0  0  0  0
 14 13  2  0  0  0  0
 18 14  1  0  0  0  0
 18 22  1  0  0  0  0
 19 20  1  0  0  0  0
 19 18  2  0  0  0  0
 20 21  1  0  0  0  0
 21 25  1  0  0  0  0
 21 22  2  0  0  0  0
 23 19  1  0  0  0  0
 24 20  1  0  0  0  0
 26 27  1  0  0  0  0
 27 33  1  0  0  0  0
 27 28  2  0  0  0  0
 28 34  1  0  0  0  0
 29 28  1  0  0  0  0
 30 29  2  0  0  0  0
 31 26  2  0  0  0  0
 31 30  1  0  0  0  0
 32 26  1  0  0  0  0
 34 38  1  0  0  0  0
 34 35  1  0  0  0  0
 35 36  1  0  0  0  0
 37 38  1  0  0  0  0
 37 36  1  0  0  0  0
M  END
>  <minimizedAffinity>
-6.70835018

$$$$

 OpenBabel03252501283D

 38 42  0  0  0  0  0  0  0  0999 V2000
   37.9390   27.5010   41.9100 C   0  0  0  0  0  0  0  0  0  0  0  0
   37.9120   28.0700   43.1720 C   0  0  0  0  0  0  0  0  0  0  0  0
   37.9770   29.4260   43.0470 C   0  0  0  0  0  0  0  0  0  0  0  0
   38.0440   29.6770   41.7210 N   0  0  0  0  0  0  0  0  0  0  0  0
   38.0200   28.5290   41.0560 N   0  0  0  0  0  0  0  0  0  0  0  0
   37.8480   27.5270   44.1160 H   0  0  0  0  0  0  0  0  0  0  0  0
   37.9810   30.2070   43.7970 H   0  0  0  0  0  0  0  0  0  0  0  0
   40.2690   31.4130   41.8670 F   0  0  0  0  0  0  0  0  0  0  0  0
   39.2020   31.7650   41.1500 C   0  0  0  0  0  0  0  0  0  0  0  0
   38.1260   30.9180   41.0830 C   0  0  0  0  0  0  0  0  0  0  0  0
   36.9970   31.2820   40.3280 C   0  0  0  0  0  0  0  0  0  0  0  0
   36.9270   32.4610   39.6480 C   0  0  0  0  0  0  0  0  0  0  0  0
   38.0240   33.2970   39.7310 C   0  0  0  0  0  0  0  0  0  0  0  0
   39.1530   32.9600   40.4720 C   0  0  0  0  0  0  0  0  0  0  0  0
   36.1290   30.6340   40.2550 H   0  0  0  0  0  0  0  0  0  0  0  0
   36.0700   32.7640   39.0610 H   0  0  0  0  0  0  0  0  0  0  0  0
   38.0070   34.2450   39.2060 H   0  0  0  0  0  0  0  0  0  0  0  0
   40.2540   33.9140   40.4920 C   0  0  0  0  0  0  0  0  0  0  0  0
   41.5990   33.7600   40.2550 C   0  0  0  0  0  0  0  0  0  0  0  0
   42.2360   34.9500   40.3920 N   0  0  0  0  0  0  0  0  0  0  0  0
   41.2980   35.8450   40.7140 C   0  0  0  0  0  0  0  0  0  0  0  0
   40.1130   35.2270   40.7740 N   0  0  0  0  0  0  0  0  0  0  0  0
   41.9760   32.7590   40.0000 H   0  0  0  0  0  0  0  0  0  0  0  0
   43.2620   34.9720   40.2400 H   0  0  0  0  0  0  0  0  0  0  0  0
   41.5450   36.8670   40.8770 H   0  0  0  0  0  0  0  0  0  0  0  0
   38.7860   23.9440   41.8730 C   0  0  0  0  0  0  0  0  0  0  0  0
   37.7740   23.3970   41.0590 C   0  0  0  0  0  0  0  0  0  0  0  0
   36.8120   24.2700   40.5350 C   0  0  0  0  0  0  0  0  0  0  0  0
   36.9240   25.5680   40.8460 N   0  0  0  0  0  0  0  0  0  0  0  0
   37.8890   26.0920   41.6220 C   0  0  0  0  0  0  0  0  0  0  0  0
   38.8370   25.2680   42.1460 N   0  0  0  0  0  0  0  0  0  0  0  0
   39.4960   23.2410   42.2510 H   0  0  0  0  0  0  0  0  0  0  0  0
   37.6880   22.3610   40.8140 H   0  0  0  0  0  0  0  0  0  0  0  0
   35.6850   23.8430   39.6610 C   0  0  0  0  0  3  0  0  0  0  0  0
   35.9630   22.4390   39.2000 C   0  0  0  0  0  2  0  0  0  0  0  0
   36.1710   22.5170   37.6970 C   0  0  0  0  0  2  0  0  0  0  0  0
   36.5640   23.9610   37.4100 C   0  0  0  0  0  2  0  0  0  0  0  0
   35.6680   24.6940   38.3850 C   0  0  0  0  0  2  0  0  0  0  0  0
  1  2  1  0  0  0  0
  2  6  1  0  0  0  0
  3  2  2  0  0  0  0
  3  7  1  0  0  0  0
  4  3  1  0  0  0  0
  5  4  1  0  0  0  0
  5  1  2  0  0  0  0
  9  8  1  0  0  0  0
 10  9  1  0  0  0  0
 10  4  1  0  0  0  0
 11 10  2  0  0  0  0
 12 13  2  0  0  0  0
 12 11  1  0  0  0  0
 13 14  1  0  0  0  0
 14 18  1  0  0  0  0
 14  9  2  0  0  0  0
 15 11  1  0  0  0  0
 16 12  1  0  0  0  0
 17 13  1  0  0  0  0
 18 22  1  0  0  0  0
 19 20  1  0  0  0  0
 19 18  2  0  0  0  0
 20 21  1  0  0  0  0
 21 22  2  0  0  0  0
 21 25  1  0  0  0  0
 23 19  1  0  0  0  0
 24 20  1  0  0  0  0
 26 31  1  0  0  0  0
 26 32  1  0  0  0  0
 27 26  2  0  0  0  0
 28 29  2  0  0  0  0
 28 27  1  0  0  0  0
 29 30  1  0  0  0  0
 30  1  1  0  0  0  0
 30 31  2  0  0  0  0
 33 27  1  0  0  0  0
 34 28  1  0  0  0  0
 35 34  1  0  0  0  0
 36 35  1  0  0  0  0
 37 36  1  0  0  0  0
 37 38  1  0  0  0  0
 38 34  1  0  0  0  0
M  END
>  <minimizedAffinity>
-6.40012741

$$$$

 OpenBabel03252501283D

 38 42  0  0  0  0  0  0  0  0999 V2000
   35.0720   28.0140   38.0540 C   0  0  0  0  0  0  0  0  0  0  0  0
   34.5470   26.9880   37.2850 C   0  0  0  0  0  0  0  0  0  0  0  0
   33.3690   27.4040   36.7400 C   0  0  0  0  0  0  0  0  0  0  0  0
   33.1810   28.6700   37.1740 N   0  0  0  0  0  0  0  0  0  0  0  0
   34.1970   29.0210   37.9520 N   0  0  0  0  0  0  0  0  0  0  0  0
   34.9990   26.0070   37.1360 H   0  0  0  0  0  0  0  0  0  0  0  0
   32.6710   26.8930   36.0870 H   0  0  0  0  0  0  0  0  0  0  0  0
   32.5470   29.6450   34.5990 F   0  0  0  0  0  0  0  0  0  0  0  0
   31.8020   30.0050   35.6430 C   0  0  0  0  0  0  0  0  0  0  0  0
   32.1150   29.5280   36.8900 C   0  0  0  0  0  0  0  0  0  0  0  0
   31.3330   29.9020   37.9970 C   0  0  0  0  0  0  0  0  0  0  0  0
   30.2590   30.7330   37.8810 C   0  0  0  0  0  0  0  0  0  0  0  0
   29.9640   31.2000   36.6140 C   0  0  0  0  0  0  0  0  0  0  0  0
   30.7220   30.8440   35.5020 C   0  0  0  0  0  0  0  0  0  0  0  0
   31.5550   29.5430   38.9970 H   0  0  0  0  0  0  0  0  0  0  0  0
   29.6430   31.0360   38.7170 H   0  0  0  0  0  0  0  0  0  0  0  0
   29.1180   31.8640   36.4790 H   0  0  0  0  0  0  0  0  0  0  0  0
   30.3230   31.3930   34.2130 C   0  0  0  0  0  0  0  0  0  0  0  0
   30.3910   32.6680   33.7040 C   0  0  0  0  0  0  0  0  0  0  0  0
   29.8920   32.6930   32.4430 N   0  0  0  0  0  0  0  0  0  0  0  0
   29.5120   31.4440   32.1620 C   0  0  0  0  0  0  0  0  0  0  0  0
   29.7700   30.6660   33.2190 N   0  0  0  0  0  0  0  0  0  0  0  0
   30.8120   33.4640   34.3360 H   0  0  0  0  0  0  0  0  0  0  0  0
   29.8840   33.6020   31.9420 H   0  0  0  0  0  0  0  0  0  0  0  0
   29.0840   31.1970   31.2200 H   0  0  0  0  0  0  0  0  0  0  0  0
   38.5840   28.4740   38.9610 C   0  0  0  0  0  0  0  0  0  0  0  0
   38.6580   27.8530   40.2240 C   0  0  0  0  0  0  0  0  0  0  0  0
   37.4890   27.2830   40.7430 C   0  0  0  0  0  0  0  0  0  0  0  0
   36.3780   27.3700   39.9980 N   0  0  0  0  0  0  0  0  0  0  0  0
   36.3060   27.9620   38.7930 C   0  0  0  0  0  0  0  0  0  0  0  0
   37.4270   28.5250   38.2640 N   0  0  0  0  0  0  0  0  0  0  0  0
   39.5010   28.8940   38.6070 H   0  0  0  0  0  0  0  0  0  0  0  0
   39.5450   27.7860   40.8150 H   0  0  0  0  0  0  0  0  0  0  0  0
   37.4080   26.5940   42.0600 C   0  0  0  0  0  3  0  0  0  0  0  0
   36.3970   27.3240   42.9020 C   0  0  0  0  0  2  0  0  0  0  0  0
   37.1670   27.9320   44.0610 C   0  0  0  0  0  2  0  0  0  0  0  0
   38.6120   28.0310   43.5880 C   0  0  0  0  0  2  0  0  0  0  0  0
   38.7400   26.7420   42.8060 C   0  0  0  0  0  2  0  0  0  0  0  0
  1 30  1  0  0  0  0
  2  1  1  0  0  0  0
  3  4  1  0  0  0  0
  3  2  2  0  0  0  0
  4  5  1  0  0  0  0
  5  1  2  0  0  0  0
  6  2  1  0  0  0  0
  7  3  1  0  0  0  0
  8  9  1  0  0  0  0
  9 10  1  0  0  0  0
 10  4  1  0  0  0  0
 10 11  2  0  0  0  0
 11 15  1  0  0  0  0
 12 11  1  0  0  0  0
 12 16  1  0  0  0  0
 13 12  2  0  0  0  0
 14  9  2  0  0  0  0
 14 13  1  0  0  0  0
 17 13  1  0  0  0  0
 18 14  1  0  0  0  0
 19 18  2  0  0  0  0
 19 23  1  0  0  0  0
 20 19  1  0  0  0  0
 21 20  1  0  0  0  0
 21 22  2  0  0  0  0
 22 18  1  0  0  0  0
 24 20  1  0  0  0  0
 25 21  1  0  0  0  0
 26 27  1  0  0  0  0
 27 28  2  0  0  0  0
 27 33  1  0  0  0  0
 28 34  1  0  0  0  0
 29 28  1  0  0  0  0
 30 29  2  0  0  0  0
 31 30  1  0  0  0  0
 31 26  2  0  0  0  0
 32 26  1  0  0  0  0
 34 38  1  0  0  0  0
 34 35  1  0  0  0  0
 35 36  1  0  0  0  0
 37 36  1  0  0  0  0
 38 37  1  0  0  0  0
M  END
>  <minimizedAffinity>
-6.36525059

$$$$

 OpenBabel03252501283D

 38 42  0  0  0  0  0  0  0  0999 V2000
   37.9990   30.2710   39.3560 C   0  0  0  0  0  0  0  0  0  0  0  0
   37.2320   31.3680   38.9990 C   0  0  0  0  0  0  0  0  0  0  0  0
   38.0410   32.4610   38.9070 C   0  0  0  0  0  0  0  0  0  0  0  0
   39.2880   32.0310   39.2050 N   0  0  0  0  0  0  0  0  0  0  0  0
   39.2510   30.7310   39.4690 N   0  0  0  0  0  0  0  0  0  0  0  0
   36.1560   31.3630   38.8200 H   0  0  0  0  0  0  0  0  0  0  0  0
   37.8150   33.4900   38.6550 H   0  0  0  0  0  0  0  0  0  0  0  0
   40.6030   32.8210   41.5780 F   0  0  0  0  0  0  0  0  0  0  0  0
   41.1110   33.1640   40.3950 C   0  0  0  0  0  0  0  0  0  0  0  0
   40.4680   32.7780   39.2470 C   0  0  0  0  0  0  0  0  0  0  0  0
   40.9990   33.1360   37.9960 C   0  0  0  0  0  0  0  0  0  0  0  0
   42.1440   33.8630   37.8730 C   0  0  0  0  0  0  0  0  0  0  0  0
   42.7740   34.2410   39.0430 C   0  0  0  0  0  0  0  0  0  0  0  0
   42.2690   33.8990   40.2950 C   0  0  0  0  0  0  0  0  0  0  0  0
   40.5140   32.8460   37.0690 H   0  0  0  0  0  0  0  0  0  0  0  0
   42.5720   34.1520   36.9210 H   0  0  0  0  0  0  0  0  0  0  0  0
   43.6880   34.8210   38.9890 H   0  0  0  0  0  0  0  0  0  0  0  0
   43.0120   34.3480   41.4650 C   0  0  0  0  0  0  0  0  0  0  0  0
   42.9690   35.5210   42.1780 C   0  0  0  0  0  0  0  0  0  0  0  0
   43.8590   35.4780   43.2010 N   0  0  0  0  0  0  0  0  0  0  0  0
   44.4580   34.2870   43.1300 C   0  0  0  0  0  0  0  0  0  0  0  0
   43.9520   33.6100   42.0930 N   0  0  0  0  0  0  0  0  0  0  0  0
   42.2660   36.3040   41.8580 H   0  0  0  0  0  0  0  0  0  0  0  0
   43.9270   36.3080   43.8210 H   0  0  0  0  0  0  0  0  0  0  0  0
   45.2070   34.0040   43.8310 H   0  0  0  0  0  0  0  0  0  0  0  0
   36.5970   26.9640   38.6740 C   0  0  0  0  0  0  0  0  0  0  0  0
   36.5770   26.3710   39.9530 C   0  0  0  0  0  0  0  0  0  0  0  0
   37.0500   27.1260   41.0320 C   0  0  0  0  0  0  0  0  0  0  0  0
   37.4910   28.3640   40.7710 N   0  0  0  0  0  0  0  0  0  0  0  0
   37.5100   28.9320   39.5530 C   0  0  0  0  0  0  0  0  0  0  0  0
   37.0560   28.2210   38.4850 N   0  0  0  0  0  0  0  0  0  0  0  0
   36.2260   26.3500   37.8820 H   0  0  0  0  0  0  0  0  0  0  0  0
   36.2260   25.3820   40.1560 H   0  0  0  0  0  0  0  0  0  0  0  0
   37.0930   26.6380   42.4380 C   0  0  0  0  0  3  0  0  0  0  0  0
   37.9190   27.6080   43.2380 C   0  0  0  0  0  2  0  0  0  0  0  0
   39.1580   26.8480   43.6810 C   0  0  0  0  0  2  0  0  0  0  0  0
   39.3030   25.6910   42.7000 C   0  0  0  0  0  2  0  0  0  0  0  0
   37.8530   25.3070   42.5030 C   0  0  0  0  0  2  0  0  0  0  0  0
  1  5  2  0  0  0  0
  1 30  1  0  0  0  0
  2  1  1  0  0  0  0
  3  2  2  0  0  0  0
  3  4  1  0  0  0  0
  4 10  1  0  0  0  0
  4  5  1  0  0  0  0
  6  2  1  0  0  0  0
  7  3  1  0  0  0  0
  9  8  1  0  0  0  0
 10  9  2  0  0  0  0
 11 10  1  0  0  0  0
 12 11  2  0  0  0  0
 12 13  1  0  0  0  0
 13 14  2  0  0  0  0
 14  9  1  0  0  0  0
 14 18  1  0  0  0  0
 15 11  1  0  0  0  0
 16 12  1  0  0  0  0
 17 13  1  0  0  0  0
 18 22  1  0  0  0  0
 18 19  2  0  0  0  0
 19 20  1  0  0  0  0
 20 24  1  0  0  0  0
 21 20  1  0  0  0  0
 21 25  1  0  0  0  0
 22 21  2  0  0  0  0
 23 19  1  0  0  0  0
 26 27  1  0  0  0  0
 27 33  1  0  0  0  0
 27 28  2  0  0  0  0
 28 34  1  0  0  0  0
 29 28  1  0  0  0  0
 30 29  2  0  0  0  0
 31 26  2  0  0  0  0
 31 30  1  0  0  0  0
 32 26  1  0  0  0  0
 34 38  1  0  0  0  0
 34 35  1  0  0  0  0
 35 36  1  0  0  0  0
 37 36  1  0  0  0  0
 38 37  1  0  0  0  0
M  END
>  <minimizedAffinity>
-6.32299662

$$$$
