
 OpenBabel03252504513D

 30 32  0  0  0  0  0  0  0  0999 V2000
   46.8460   34.6670   42.8670 C   0  0  0  0  0  0  0  0  0  0  0  0
   47.9460   34.1940   42.1370 C   0  0  0  0  0  0  0  0  0  0  0  0
   48.5900   33.0450   42.6220 C   0  0  0  0  0  0  0  0  0  0  0  0
   48.1000   32.4760   43.7590 N   0  0  0  0  0  0  0  0  0  0  0  0
   47.0520   32.9540   44.4250 C   0  0  0  0  0  0  0  0  0  0  0  0
   46.4260   34.0510   43.9760 N   0  0  0  0  0  0  0  0  0  0  0  0
   46.2930   35.5500   42.5570 H   0  0  0  0  0  0  0  0  0  0  0  0
   49.4400   32.6380   42.1040 H   0  0  0  0  0  0  0  0  0  0  0  0
   45.5970   30.3090   43.9930 Cl  0  0  0  0  0  0  0  0  0  0  0  0
   45.9120   31.0890   45.5440 C   0  0  0  0  0  0  0  0  0  0  0  0
   46.5810   32.2920   45.6400 C   0  0  0  0  0  0  0  0  0  0  0  0
   46.8110   32.8760   46.8670 C   0  0  0  0  0  0  0  0  0  0  0  0
   46.3690   32.2560   48.0240 C   0  0  0  0  0  0  0  0  0  0  0  0
   45.7070   31.0620   47.8870 C   0  0  0  0  0  0  0  0  0  0  0  0
   45.1490   30.2800   49.3530 Cl  0  0  0  0  0  0  0  0  0  0  0  0
   45.4610   30.4530   46.6880 C   0  0  0  0  0  0  0  0  0  0  0  0
   47.3360   33.8240   46.9650 H   0  0  0  0  0  0  0  0  0  0  0  0
   46.5520   32.7200   48.9850 H   0  0  0  0  0  0  0  0  0  0  0  0
   44.9410   29.5170   46.6120 H   0  0  0  0  0  0  0  0  0  0  0  0
   48.3820   34.8840   40.9320 C   0  0  0  0  0  0  0  0  0  0  0  0
   48.2470   35.9640   41.0700 H   0  0  0  0  0  0  0  0  0  0  0  0
   49.4390   34.6870   40.6690 H   0  0  0  0  0  0  0  0  0  0  0  0
   47.5430   34.3620   39.7690 C   0  0  0  0  0  0  0  0  0  0  0  0
   46.8660   33.5680   40.0830 H   0  0  0  0  0  0  0  0  0  0  0  0
   46.9030   35.1800   39.3770 H   0  0  0  0  0  0  0  0  0  0  0  0
   48.4930   33.9880   38.6660 C   0  0  0  0  0  0  0  0  0  0  0  0
   48.8740   32.5230   38.6730 C   0  0  0  0  0  0  0  0  0  0  0  0
   49.5810   32.4180   37.3150 C   0  0  0  0  0  0  0  0  0  0  0  0
   48.6750   33.2000   36.4150 C   0  0  0  0  0  0  0  0  0  0  0  0
   47.8770   34.1370   37.2950 C   0  0  0  0  0  0  0  0  0  0  0  0
  1  6  1  0  0  0  0
  2  3  1  0  0  0  0
  2  1  2  0  0  0  0
  3  4  2  0  0  0  0
  4  5  1  0  0  0  0
  5 11  1  0  0  0  0
  6  5  2  0  0  0  0
  7  1  1  0  0  0  0
  8  3  1  0  0  0  0
  9 10  1  0  0  0  0
 10 11  2  0  0  0  0
 10 16  1  0  0  0  0
 11 12  1  0  0  0  0
 12 17  1  0  0  0  0
 12 13  2  0  0  0  0
 13 18  1  0  0  0  0
 14 13  1  0  0  0  0
 14 15  1  0  0  0  0
 16 14  2  0  0  0  0
 19 16  1  0  0  0  0
 20 21  1  0  0  0  0
 20  2  1  0  0  0  0
 22 20  1  0  0  0  0
 23 24  1  0  0  0  0
 23 20  1  0  0  0  0
 25 23  1  0  0  0  0
 26 27  1  0  0  0  0
 26 23  1  0  0  0  0
 28 27  1  0  0  0  0
 29 30  1  0  0  0  0
 29 28  1  0  0  0  0
 30 26  1  0  0  0  0
M  END
>  <minimizedAffinity>
-4.96192837

>  <minimizedRMSD>
1.21666646

$$$$
