
 OpenBabel03242517503D

 15 16  0  0  0  0  0  0  0  0999 V2000
   44.5520   35.9730   44.5440 C   0  0  0  0  0  0  0  0  0  0  0  0
   45.2830   35.7700   43.3620 C   0  0  0  0  0  0  0  0  0  0  0  0
   46.1350   34.6630   43.3200 C   0  0  0  0  0  0  0  0  0  0  0  0
   46.2010   33.8630   44.4150 N   0  0  0  0  0  0  0  0  0  0  0  0
   45.4870   34.0930   45.5230 C   0  0  0  0  0  0  0  0  0  0  0  0
   44.6690   35.1440   45.5800 N   0  0  0  0  0  0  0  0  0  0  0  0
   43.9270   36.8340   44.5000 H   0  0  0  0  0  0  0  0  0  0  0  0
   45.2970   36.3350   42.4620 H   0  0  0  0  0  0  0  0  0  0  0  0
   46.7800   34.3210   42.5260 H   0  0  0  0  0  0  0  0  0  0  0  0
   45.5510   33.2720   46.6540 O   0  0  0  0  0  0  0  0  0  0  0  0
   46.5890   32.2990   46.6570 C   0  0  0  0  0  0  0  0  0  0  0  0
   47.4180   32.4270   47.9310 C   0  0  0  0  0  0  0  0  0  0  0  0
   46.7580   31.3680   48.8190 C   0  0  0  0  0  0  0  0  0  0  0  0
   46.6640   30.2290   47.8060 C   0  0  0  0  0  0  0  0  0  0  0  0
   45.9420   30.9480   46.6810 C   0  0  0  0  0  0  0  0  0  0  0  0
  1  6  1  0  0  0  0
  2  1  2  0  0  0  0
  3  2  1  0  0  0  0
  3  4  2  0  0  0  0
  4  5  1  0  0  0  0
  5  6  2  0  0  0  0
  5 10  1  0  0  0  0
  7  1  1  0  0  0  0
  8  2  1  0  0  0  0
  9  3  1  0  0  0  0
 10 11  1  0  0  0  0
 11 15  1  0  0  0  0
 11 12  1  0  0  0  0
 12 13  1  0  0  0  0
 14 13  1  0  0  0  0
 15 14  1  0  0  0  0
M  END
>  <minimizedAffinity>
-4.20497894

>  <minimizedRMSD>
1.65425074

$$$$
