
 OpenBabel03252504513D

 30 32  0  0  0  0  0  0  0  0999 V2000
   47.7180   34.2150   43.0750 C   0  0  0  0  0  0  0  0  0  0  0  0
   46.9860   33.2150   43.7320 C   0  0  0  0  0  0  0  0  0  0  0  0
   46.5320   32.1370   42.9550 C   0  0  0  0  0  0  0  0  0  0  0  0
   46.8370   32.1420   41.6270 N   0  0  0  0  0  0  0  0  0  0  0  0
   47.5350   33.1100   41.0380 C   0  0  0  0  0  0  0  0  0  0  0  0
   47.9750   34.1460   41.7660 N   0  0  0  0  0  0  0  0  0  0  0  0
   48.1040   35.0800   43.6070 H   0  0  0  0  0  0  0  0  0  0  0  0
   45.9650   31.3430   43.4050 H   0  0  0  0  0  0  0  0  0  0  0  0
   50.1860   31.7990   40.2930 Cl  0  0  0  0  0  0  0  0  0  0  0  0
   49.0010   32.4740   39.1730 C   0  0  0  0  0  0  0  0  0  0  0  0
   47.8240   33.0490   39.6070 C   0  0  0  0  0  0  0  0  0  0  0  0
   46.9180   33.5670   38.7060 C   0  0  0  0  0  0  0  0  0  0  0  0
   47.1830   33.5150   37.3480 C   0  0  0  0  0  0  0  0  0  0  0  0
   48.3630   32.9350   36.9570 C   0  0  0  0  0  0  0  0  0  0  0  0
   48.6960   32.8690   35.2370 Cl  0  0  0  0  0  0  0  0  0  0  0  0
   49.2850   32.4110   37.8200 C   0  0  0  0  0  0  0  0  0  0  0  0
   45.9850   34.0260   39.0260 H   0  0  0  0  0  0  0  0  0  0  0  0
   46.4680   33.9240   36.6450 H   0  0  0  0  0  0  0  0  0  0  0  0
   50.2010   31.9630   37.4840 H   0  0  0  0  0  0  0  0  0  0  0  0
   46.7200   33.3150   45.1600 C   0  0  0  0  0  0  0  0  0  0  0  0
   47.6660   33.4870   45.6880 H   0  0  0  0  0  0  0  0  0  0  0  0
   46.0110   34.1240   45.4210 H   0  0  0  0  0  0  0  0  0  0  0  0
   46.0650   32.0090   45.6020 C   0  0  0  0  0  0  0  0  0  0  0  0
   45.1060   31.8490   45.1090 H   0  0  0  0  0  0  0  0  0  0  0  0
   46.7100   31.1540   45.3120 H   0  0  0  0  0  0  0  0  0  0  0  0
   46.0120   32.0220   47.1040 C   0  0  0  0  0  3  0  0  0  0  0  0
   45.2570   30.8480   47.6890 C   0  0  0  0  0  2  0  0  0  0  0  0
   45.6240   30.9990   49.1720 C   0  0  0  0  0  2  0  0  0  0  0  0
   47.0910   31.3000   49.1140 C   0  0  0  0  0  2  0  0  0  0  0  0
   47.3740   31.8520   47.7340 C   0  0  0  0  0  2  0  0  0  0  0  0
  1  7  1  0  0  0  0
  1  2  1  0  0  0  0
  2 20  1  0  0  0  0
  3  8  1  0  0  0  0
  3  2  2  0  0  0  0
  4  3  1  0  0  0  0
  5  4  2  0  0  0  0
  5  6  1  0  0  0  0
  6  1  2  0  0  0  0
 10 11  1  0  0  0  0
 10  9  1  0  0  0  0
 11  5  1  0  0  0  0
 12 17  1  0  0  0  0
 12 11  2  0  0  0  0
 13 12  1  0  0  0  0
 14 13  2  0  0  0  0
 14 16  1  0  0  0  0
 15 14  1  0  0  0  0
 16 10  2  0  0  0  0
 18 13  1  0  0  0  0
 19 16  1  0  0  0  0
 20 22  1  0  0  0  0
 20 23  1  0  0  0  0
 20 21  1  0  0  0  0
 23 26  1  0  0  0  0
 24 23  1  0  0  0  0
 25 23  1  0  0  0  0
 26 27  1  0  0  0  0
 26 30  1  0  0  0  0
 27 28  1  0  0  0  0
 29 28  1  0  0  0  0
 30 29  1  0  0  0  0
M  END
>  <minimizedAffinity>
-4.67791986

>  <minimizedRMSD>
8.47841454

$$$$
