
 OpenBabel03242518363D

 31 34  0  0  1  0  0  0  0  0999 V2000
   47.4170   33.7960   39.7600 C   0  0  0  0  0  0  0  0  0  0  0  0
   48.3440   34.5920   39.0960 C   0  0  0  0  0  0  0  0  0  0  0  0
   48.2370   34.3640   37.7290 C   0  0  0  0  0  0  0  0  0  0  0  0
   47.2370   33.4290   37.6350 C   0  0  0  0  0  0  0  0  0  0  0  0
   46.7690   33.1060   38.8240 O   0  0  0  0  0  0  0  0  0  0  0  0
   49.0170   35.2650   39.6210 H   0  0  0  0  0  0  0  0  0  0  0  0
   48.8240   34.8360   36.9530 H   0  0  0  0  0  0  0  0  0  0  0  0
   46.7520   32.8660   36.3670 C   0  0  2  0  0  0  0  0  0  0  0  0
   46.5480   31.4140   36.2350 C   0  0  0  0  0  0  0  0  0  0  0  0
   47.7800   32.0070   35.6250 C   0  0  1  0  0  0  0  0  0  0  0  0
   46.1970   33.5990   35.7500 H   0  0  0  0  0  0  0  0  0  0  0  0
   45.7590   31.0470   35.5420 H   0  0  0  0  0  0  0  0  0  0  0  0
   46.6350   30.8050   37.1550 H   0  0  0  0  0  0  0  0  0  0  0  0
   48.7210   31.7730   36.1500 H   0  0  0  0  0  0  0  0  0  0  0  0
   47.8730   32.0880   34.1470 C   0  0  0  0  0  0  0  0  0  0  0  0
   49.0330   32.8880   33.6380 C   0  0  0  0  0  0  0  0  0  0  0  0
   49.1850   32.4290   32.1900 C   0  0  0  0  0  0  0  0  0  0  0  0
   48.2540   31.2530   32.0070 C   0  0  0  0  0  0  0  0  0  0  0  0
   48.0010   30.7800   33.4440 C   0  0  0  0  0  0  0  0  0  0  0  0
   47.1290   33.6610   41.1290 O   0  0  0  0  0  0  0  0  0  0  0  0
   47.3080   34.7640   41.9980 C   0  0  0  0  0  0  0  0  0  0  0  0
   48.2210   35.5650   41.6800 O   0  0  0  0  0  0  0  0  0  0  0  0
   46.4380   34.8270   43.1160 C   0  0  0  0  0  0  0  0  0  0  0  0
   45.5520   35.8690   43.0990 C   0  0  0  0  0  0  0  0  0  0  0  0
   44.6660   35.9920   44.1690 C   0  0  0  0  0  0  0  0  0  0  0  0
   44.7250   35.0770   45.1690 N   0  0  0  0  0  0  0  0  0  0  0  0
   45.6030   34.0760   45.1490 C   0  0  0  0  0  0  0  0  0  0  0  0
   46.4460   33.9710   44.1170 N   0  0  0  0  0  0  0  0  0  0  0  0
   45.4260   36.6500   42.3480 H   0  0  0  0  0  0  0  0  0  0  0  0
   43.9330   36.7800   44.2400 H   0  0  0  0  0  0  0  0  0  0  0  0
   45.7230   33.3040   45.8990 H   0  0  0  0  0  0  0  0  0  0  0  0
  1 20  1  0  0  0  0
  2  6  1  0  0  0  0
  2  1  2  0  0  0  0
  3  2  1  0  0  0  0
  4  3  2  0  0  0  0
  4  5  1  0  0  0  0
  5  1  1  0  0  0  0
  7  3  1  0  0  0  0
  8 11  1  6  0  0  0
  8  4  1  0  0  0  0
  9  8  1  0  0  0  0
  9 13  1  0  0  0  0
 10 14  1  1  0  0  0
 10  9  1  0  0  0  0
 10  8  1  0  0  0  0
 12  9  1  0  0  0  0
 15 10  1  0  0  0  0
 16 15  1  0  0  0  0
 17 16  1  0  0  0  0
 18 17  1  0  0  0  0
 18 19  1  0  0  0  0
 19 15  1  0  0  0  0
 20 21  1  0  0  0  0
 21 23  1  0  0  0  0
 22 21  2  0  0  0  0
 23 28  1  0  0  0  0
 24 23  2  0  0  0  0
 24 25  1  0  0  0  0
 25 30  1  0  0  0  0
 25 26  2  0  0  0  0
 27 26  1  0  0  0  0
 27 31  1  0  0  0  0
 28 27  2  0  0  0  0
 29 24  1  0  0  0  0
M  END
>  <minimizedAffinity>
-5.31518412

>  <minimizedRMSD>
1.48913622

$$$$
