
 OpenBabel03252508153D

 33 36  0  0  1  0  0  0  0  0999 V2000
   47.2440   31.2240   46.6600 C   0  0  0  0  0  0  0  0  0  0  0  0
   48.3520   31.1530   46.6140 H   0  0  0  0  0  0  0  0  0  0  0  0
   46.7970   30.2670   46.3890 H   0  0  0  0  0  0  0  0  0  0  0  0
   46.7530   31.6260   48.0300 C   0  0  1  0  0  0  0  0  0  0  0  0
   46.2330   30.5390   48.9000 C   0  0  0  0  0  0  0  0  0  0  0  0
   47.4890   31.1820   49.2390 C   0  0  1  0  0  0  0  0  0  0  0  0
   46.3400   32.6590   48.1080 H   0  0  0  0  0  0  0  0  0  0  0  0
   45.3310   30.6810   49.5260 H   0  0  0  0  0  0  0  0  0  0  0  0
   46.3010   29.4950   48.4910 H   0  0  0  0  0  0  0  0  0  0  0  0
   47.4380   31.8420   50.1590 H   0  0  0  0  0  0  0  0  0  0  0  0
   48.8210   30.5690   49.0440 C   0  0  0  0  0  0  0  0  0  0  0  0
   49.6070   30.2950   50.3560 C   0  0  0  0  0  0  0  0  0  0  0  0
   50.0360   31.4050   49.4890 C   0  0  0  0  0  0  0  0  0  0  0  0
   48.9760   29.8120   48.2570 H   0  0  0  0  0  0  0  0  0  0  0  0
   50.1700   29.3520   50.3940 H   0  0  0  0  0  0  0  0  0  0  0  0
   49.0930   30.5440   51.3040 H   0  0  0  0  0  0  0  0  0  0  0  0
   50.9420   31.2110   48.8560 H   0  0  0  0  0  0  0  0  0  0  0  0
   49.8710   32.4560   49.7580 H   0  0  0  0  0  0  0  0  0  0  0  0
   46.0040   33.1330   46.0110 C   0  0  0  0  0  0  0  0  0  0  0  0
   46.9130   32.3120   45.6520 C   0  0  0  0  0  0  0  0  0  0  0  0
   44.4230   36.1290   44.5620 C   0  0  0  0  0  0  0  0  0  0  0  0
   44.9810   36.2040   43.2910 C   0  0  0  0  0  0  0  0  0  0  0  0
   45.8960   35.2210   42.9550 C   0  0  0  0  0  0  0  0  0  0  0  0
   46.1650   34.2900   43.8710 N   0  0  0  0  0  0  0  0  0  0  0  0
   45.6370   34.2120   45.0840 C   0  0  0  0  0  0  0  0  0  0  0  0
   44.7620   35.1520   45.4100 N   0  0  0  0  0  0  0  0  0  0  0  0
   43.7090   36.9020   44.8170 H   0  0  0  0  0  0  0  0  0  0  0  0
   44.7750   36.9470   42.5410 H   0  0  0  0  0  0  0  0  0  0  0  0
   46.6070   35.1050   41.6670 C   0  0  0  0  0  0  0  0  0  0  0  0
   46.5450   33.7450   41.0410 C   0  0  0  0  0  0  0  0  0  0  0  0
   47.6210   33.8510   39.9540 C   0  0  0  0  0  0  0  0  0  0  0  0
   48.5590   34.9550   40.3990 C   0  0  0  0  0  0  0  0  0  0  0  0
   48.0960   35.3220   41.8070 C   0  0  0  0  0  0  0  0  0  0  0  0
  1  4  1  0  0  0  0
  2  1  1  0  0  0  0
  3  1  1  0  0  0  0
  4  7  1  1  0  0  0
  4  5  1  0  0  0  0
  4  6  1  0  0  0  0
  5  6  1  0  0  0  0
  5  8  1  0  0  0  0
  6 10  1  1  0  0  0
  9  5  1  0  0  0  0
 11  6  1  0  0  0  0
 11 13  1  0  0  0  0
 11 12  1  0  0  0  0
 12 15  1  0  0  0  0
 12 16  1  0  0  0  0
 13 18  1  0  0  0  0
 13 12  1  0  0  0  0
 14 11  1  0  0  0  0
 17 13  1  0  0  0  0
 20 19  2  0  0  0  0
 20  1  1  0  0  0  0
 21 27  1  0  0  0  0
 21 26  1  0  0  0  0
 22 21  2  0  0  0  0
 23 22  1  0  0  0  0
 23 24  2  0  0  0  0
 24 25  1  0  0  0  0
 25 26  2  0  0  0  0
 25 19  1  0  0  0  0
 28 22  1  0  0  0  0
 29 33  1  0  0  0  0
 29 23  1  0  0  0  0
 30 29  1  0  0  0  0
 31 32  1  0  0  0  0
 31 30  1  0  0  0  0
 32 33  1  0  0  0  0
M  END
>  <minimizedAffinity>
-5.86671925

>  <minimizedRMSD>
0.465701133

$$$$
