
 OpenBabel03242514063D

 39 42  0  0  1  0  0  0  0  0999 V2000
   46.6780   33.0450   38.8010 C   0  0  1  0  0  0  0  0  0  0  0  0
   45.1820   33.2060   38.5860 C   0  0  0  0  0  0  0  0  0  0  0  0
   44.7710   32.0620   37.6620 C   0  0  0  0  0  0  0  0  0  0  0  0
   45.3450   32.4920   36.3000 C   0  0  0  0  0  0  0  0  0  0  0  0
   46.8440   32.3850   36.4320 C   0  0  0  0  0  0  0  0  0  0  0  0
   47.4810   33.1070   37.5810 C   0  0  2  0  0  0  0  0  0  0  0  0
   46.7540   31.9900   39.2310 H   0  0  0  0  0  0  0  0  0  0  0  0
   44.7030   32.9730   39.5650 H   0  0  0  0  0  0  0  0  0  0  0  0
   44.9270   34.1870   38.1820 H   0  0  0  0  0  0  0  0  0  0  0  0
   45.2450   31.1370   37.9890 H   0  0  0  0  0  0  0  0  0  0  0  0
   43.6740   32.0470   37.5950 H   0  0  0  0  0  0  0  0  0  0  0  0
   45.0510   31.8420   35.4830 H   0  0  0  0  0  0  0  0  0  0  0  0
   45.0930   33.5630   36.1940 H   0  0  0  0  0  0  0  0  0  0  0  0
   47.3320   32.5830   35.4680 H   0  0  0  0  0  0  0  0  0  0  0  0
   46.9520   31.2820   36.6970 H   0  0  0  0  0  0  0  0  0  0  0  0
   47.6470   34.1560   37.2670 H   0  0  0  0  0  0  0  0  0  0  0  0
   46.9360   34.7000   42.0780 C   0  0  0  0  0  0  0  0  0  0  0  0
   48.0750   35.4510   41.9130 C   0  0  0  0  0  0  0  0  0  0  0  0
   48.8180   35.4900   40.7520 C   0  0  0  0  0  0  0  0  0  0  0  0
   48.3040   34.6870   39.7400 C   0  0  0  0  0  0  0  0  0  0  0  0
   47.1540   33.9120   39.8820 C   0  0  0  0  0  0  0  0  0  0  0  0
   46.4750   33.9270   41.0610 N   0  0  0  0  0  0  0  0  0  0  0  0
   48.3850   36.0370   42.7680 H   0  0  0  0  0  0  0  0  0  0  0  0
   49.6950   36.0840   40.6640 H   0  0  0  0  0  0  0  0  0  0  0  0
   48.8980   34.7700   38.8280 H   0  0  0  0  0  0  0  0  0  0  0  0
   45.6210   33.9670   45.4120 C   0  0  0  0  0  0  0  0  0  0  0  0
   44.7050   34.9790   45.6490 C   0  0  0  0  0  0  0  0  0  0  0  0
   44.5470   35.9210   44.6390 C   0  0  0  0  0  0  0  0  0  0  0  0
   45.2920   35.7920   43.4950 N   0  0  0  0  0  0  0  0  0  0  0  0
   46.1770   34.7720   43.3240 C   0  0  0  0  0  0  0  0  0  0  0  0
   46.3380   33.8790   44.2620 N   0  0  0  0  0  0  0  0  0  0  0  0
   45.7520   33.2210   46.2010 H   0  0  0  0  0  0  0  0  0  0  0  0
   44.1220   35.0810   46.5400 H   0  0  0  0  0  0  0  0  0  0  0  0
   43.8610   36.7710   44.6890 H   0  0  0  0  0  0  0  0  0  0  0  0
   48.8350   32.4480   37.7040 C   0  0  0  0  0  0  0  0  0  0  0  0
   49.3760   31.9190   36.3850 C   0  0  0  0  0  0  0  0  0  0  0  0
   50.6580   31.2610   36.9280 C   0  0  0  0  0  0  0  0  0  0  0  0
   50.3090   30.8210   38.3610 C   0  0  0  0  0  0  0  0  0  0  0  0
   48.7690   31.0500   38.3690 C   0  0  0  0  0  0  0  0  0  0  0  0
  1  7  1  1  0  0  0
  1 21  1  0  0  0  0
  2  1  1  0  0  0  0
  2  8  1  0  0  0  0
  3 10  1  0  0  0  0
  3  2  1  0  0  0  0
  4  5  1  0  0  0  0
  4  3  1  0  0  0  0
  5 15  1  0  0  0  0
  5  6  1  0  0  0  0
  6 16  1  6  0  0  0
  6 35  1  0  0  0  0
  6  1  1  0  0  0  0
  9  2  1  0  0  0  0
 11  3  1  0  0  0  0
 12  4  1  0  0  0  0
 13  4  1  0  0  0  0
 14  5  1  0  0  0  0
 17 30  1  0  0  0  0
 18 17  1  0  0  0  0
 18 23  1  0  0  0  0
 19 18  2  0  0  0  0
 20 21  2  0  0  0  0
 20 19  1  0  0  0  0
 21 22  1  0  0  0  0
 22 17  2  0  0  0  0
 24 19  1  0  0  0  0
 25 20  1  0  0  0  0
 26 27  1  0  0  0  0
 26 32  1  0  0  0  0
 27 33  1  0  0  0  0
 28 34  1  0  0  0  0
 28 27  2  0  0  0  0
 29 28  1  0  0  0  0
 30 29  2  0  0  0  0
 30 31  1  0  0  0  0
 31 26  2  0  0  0  0
 35 39  1  0  0  0  0
 36 37  1  0  0  0  0
 36 35  1  0  0  0  0
 37 38  1  0  0  0  0
 38 39  1  0  0  0  0
M  END
>  <minimizedAffinity>
-5.72011995

>  <minimizedRMSD>
0.464565665

$$$$
