
 OpenBabel03252508163D

 33 36  0  0  1  0  0  0  0  0999 V2000
   39.3160   26.8370   43.5480 C   0  0  0  0  0  0  0  0  0  0  0  0
   38.2890   26.6130   43.9090 H   0  0  0  0  0  0  0  0  0  0  0  0
   39.9750   27.0280   44.3950 H   0  0  0  0  0  0  0  0  0  0  0  0
   39.8900   25.7120   42.7220 C   0  0  1  0  0  0  0  0  0  0  0  0
   39.7780   24.3420   43.2870 C   0  0  0  0  0  0  0  0  0  0  0  0
   38.9870   24.6980   42.1230 C   0  0  1  0  0  0  0  0  0  0  0  0
   40.7540   25.9850   42.0710 H   0  0  0  0  0  0  0  0  0  0  0  0
   40.6090   23.6150   43.2110 H   0  0  0  0  0  0  0  0  0  0  0  0
   39.2200   24.2450   44.2580 H   0  0  0  0  0  0  0  0  0  0  0  0
   39.3220   24.1960   41.1640 H   0  0  0  0  0  0  0  0  0  0  0  0
   37.5340   24.9730   42.1520 C   0  0  0  0  0  0  0  0  0  0  0  0
   36.6940   24.1280   41.1540 C   0  0  0  0  0  0  0  0  0  0  0  0
   36.9170   25.5560   40.8650 C   0  0  0  0  0  0  0  0  0  0  0  0
   37.0250   25.1820   43.1080 H   0  0  0  0  0  0  0  0  0  0  0  0
   35.7240   23.7670   41.5230 H   0  0  0  0  0  0  0  0  0  0  0  0
   37.2450   23.3830   40.5480 H   0  0  0  0  0  0  0  0  0  0  0  0
   36.0530   26.2390   41.0770 H   0  0  0  0  0  0  0  0  0  0  0  0
   37.5960   25.8940   40.0720 H   0  0  0  0  0  0  0  0  0  0  0  0
   37.9790   28.6220   42.7520 C   0  0  0  0  0  3  0  0  0  0  0  0
   39.1290   28.0720   42.6830 C   0  0  0  0  0  3  0  0  0  0  0  0
   36.3280   31.1640   40.6590 C   0  0  0  0  0  0  0  0  0  0  0  0
   37.3380   32.0880   40.4190 C   0  0  0  0  0  0  0  0  0  0  0  0
   38.5720   31.8200   40.9860 C   0  0  0  0  0  0  0  0  0  0  0  0
   38.6900   30.7060   41.7090 N   0  0  0  0  0  0  0  0  0  0  0  0
   37.7320   29.8210   41.9420 C   0  0  0  0  0  0  0  0  0  0  0  0
   36.5490   30.0750   41.4030 N   0  0  0  0  0  0  0  0  0  0  0  0
   35.3650   31.3810   40.2130 H   0  0  0  0  0  0  0  0  0  0  0  0
   37.2600   32.9900   39.8380 H   0  0  0  0  0  0  0  0  0  0  0  0
   39.7800   32.6590   40.8620 C   0  0  0  0  0  3  0  0  0  0  0  0
   39.9440   33.3220   39.5270 C   0  0  0  0  0  2  0  0  0  0  0  0
   41.3980   33.8050   39.5940 C   0  0  0  0  0  2  0  0  0  0  0  0
   42.0840   32.9270   40.6200 C   0  0  0  0  0  2  0  0  0  0  0  0
   41.0560   31.8570   40.9760 C   0  0  0  0  0  2  0  0  0  0  0  0
  1  2  1  0  0  0  0
  1  3  1  0  0  0  0
  4  7  1  6  0  0  0
  4  5  1  0  0  0  0
  4  1  1  0  0  0  0
  5  9  1  0  0  0  0
  6 10  1  6  0  0  0
  6 11  1  0  0  0  0
  6  4  1  0  0  0  0
  6  5  1  0  0  0  0
  8  5  1  0  0  0  0
 11 14  1  0  0  0  0
 12 15  1  0  0  0  0
 12 11  1  0  0  0  0
 13 17  1  0  0  0  0
 13 12  1  0  0  0  0
 13 11  1  0  0  0  0
 16 12  1  0  0  0  0
 18 13  1  0  0  0  0
 20 19  2  0  0  0  0
 20  1  1  0  0  0  0
 21 26  1  0  0  0  0
 22 21  2  0  0  0  0
 22 23  1  0  0  0  0
 23 24  2  0  0  0  0
 24 25  1  0  0  0  0
 25 19  1  0  0  0  0
 26 25  2  0  0  0  0
 27 21  1  0  0  0  0
 28 22  1  0  0  0  0
 29 33  1  0  0  0  0
 29 23  1  0  0  0  0
 30 31  1  0  0  0  0
 30 29  1  0  0  0  0
 31 32  1  0  0  0  0
 32 33  1  0  0  0  0
M  END
>  <minimizedAffinity>
-5.21587896

$$$$

 OpenBabel03252508163D

 33 36  0  0  1  0  0  0  0  0999 V2000
   35.6520   29.5950   40.5310 C   0  0  0  0  0  0  0  0  0  0  0  0
   35.2600   29.3810   41.5480 H   0  0  0  0  0  0  0  0  0  0  0  0
   35.9460   30.6420   40.4560 H   0  0  0  0  0  0  0  0  0  0  0  0
   36.8370   28.7260   40.1810 C   0  0  1  0  0  0  0  0  0  0  0  0
   38.1830   29.3380   40.3300 C   0  0  0  0  0  0  0  0  0  0  0  0
   37.7730   28.2890   41.2440 C   0  0  1  0  0  0  0  0  0  0  0  0
   36.6510   27.9530   39.3980 H   0  0  0  0  0  0  0  0  0  0  0  0
   38.9830   29.1660   39.5840 H   0  0  0  0  0  0  0  0  0  0  0  0
   38.2150   30.3810   40.7480 H   0  0  0  0  0  0  0  0  0  0  0  0
   38.3180   27.3050   41.0950 H   0  0  0  0  0  0  0  0  0  0  0  0
   37.3690   28.5150   42.6490 C   0  0  0  0  0  0  0  0  0  0  0  0
   38.0320   27.5560   43.6770 C   0  0  0  0  0  0  0  0  0  0  0  0
   36.6100   27.3650   43.3410 C   0  0  0  0  0  0  0  0  0  0  0  0
   37.2070   29.5390   43.0250 H   0  0  0  0  0  0  0  0  0  0  0  0
   38.3360   28.0070   44.6320 H   0  0  0  0  0  0  0  0  0  0  0  0
   38.7640   26.8280   43.2770 H   0  0  0  0  0  0  0  0  0  0  0  0
   35.8730   27.7370   44.1010 H   0  0  0  0  0  0  0  0  0  0  0  0
   36.2620   26.5290   42.7230 H   0  0  0  0  0  0  0  0  0  0  0  0
   34.7950   28.8520   38.4530 C   0  0  0  0  0  3  0  0  0  0  0  0
   34.4810   29.2650   39.6200 C   0  0  0  0  0  3  0  0  0  0  0  0
   32.7330   27.0910   35.9590 C   0  0  0  0  0  0  0  0  0  0  0  0
   31.6480   27.9410   35.7800 C   0  0  0  0  0  0  0  0  0  0  0  0
   31.6440   29.1080   36.5260 C   0  0  0  0  0  0  0  0  0  0  0  0
   32.6740   29.3190   37.3470 N   0  0  0  0  0  0  0  0  0  0  0  0
   33.7100   28.5130   37.5220 C   0  0  0  0  0  0  0  0  0  0  0  0
   33.7170   27.3940   36.8120 N   0  0  0  0  0  0  0  0  0  0  0  0
   32.7280   26.1800   35.3730 H   0  0  0  0  0  0  0  0  0  0  0  0
   30.8110   27.7880   35.1230 H   0  0  0  0  0  0  0  0  0  0  0  0
   30.5990   30.1500   36.4950 C   0  0  0  0  0  3  0  0  0  0  0  0
   30.9180   31.3260   35.6230 C   0  0  0  0  0  2  0  0  0  0  0  0
   29.8550   32.3400   36.0630 C   0  0  0  0  0  2  0  0  0  0  0  0
   29.4330   31.9250   37.4580 C   0  0  0  0  0  2  0  0  0  0  0  0
   30.3920   30.8020   37.8420 C   0  0  0  0  0  2  0  0  0  0  0  0
  1  2  1  0  0  0  0
  3  1  1  0  0  0  0
  4  7  1  6  0  0  0
  4  5  1  0  0  0  0
  4  1  1  0  0  0  0
  4  6  1  0  0  0  0
  5  9  1  0  0  0  0
  5  6  1  0  0  0  0
  6 10  1  6  0  0  0
  6 11  1  0  0  0  0
  8  5  1  0  0  0  0
 11 14  1  0  0  0  0
 11 13  1  0  0  0  0
 11 12  1  0  0  0  0
 12 15  1  0  0  0  0
 13 12  1  0  0  0  0
 13 17  1  0  0  0  0
 16 12  1  0  0  0  0
 18 13  1  0  0  0  0
 19 20  2  0  0  0  0
 20  1  1  0  0  0  0
 21 26  1  0  0  0  0
 22 21  2  0  0  0  0
 22 23  1  0  0  0  0
 23 24  2  0  0  0  0
 24 25  1  0  0  0  0
 25 19  1  0  0  0  0
 26 25  2  0  0  0  0
 27 21  1  0  0  0  0
 28 22  1  0  0  0  0
 29 23  1  0  0  0  0
 29 33  1  0  0  0  0
 30 31  1  0  0  0  0
 30 29  1  0  0  0  0
 31 32  1  0  0  0  0
 32 33  1  0  0  0  0
M  END
>  <minimizedAffinity>
-5.06134605

$$$$

 OpenBabel03252508163D

 33 36  0  0  1  0  0  0  0  0999 V2000
   36.6680   31.2210   40.7790 C   0  0  0  0  0  0  0  0  0  0  0  0
   37.0270   31.8040   41.6550 H   0  0  0  0  0  0  0  0  0  0  0  0
   35.5790   31.2380   40.7410 H   0  0  0  0  0  0  0  0  0  0  0  0
   37.2140   31.7530   39.4760 C   0  0  1  0  0  0  0  0  0  0  0  0
   37.0890   33.2150   39.2440 C   0  0  0  0  0  0  0  0  0  0  0  0
   38.4010   32.6410   39.4780 C   0  0  1  0  0  0  0  0  0  0  0  0
   37.1850   31.0400   38.6170 H   0  0  0  0  0  0  0  0  0  0  0  0
   36.8130   33.6230   38.2530 H   0  0  0  0  0  0  0  0  0  0  0  0
   36.6520   33.8190   40.0850 H   0  0  0  0  0  0  0  0  0  0  0  0
   39.0710   32.6270   38.5630 H   0  0  0  0  0  0  0  0  0  0  0  0
   39.1580   32.7700   40.7430 C   0  0  0  0  0  0  0  0  0  0  0  0
   40.6060   33.3090   40.5800 C   0  0  0  0  0  0  0  0  0  0  0  0
   40.4090   31.8830   40.8910 C   0  0  0  0  0  0  0  0  0  0  0  0
   38.6510   33.1050   41.6630 H   0  0  0  0  0  0  0  0  0  0  0  0
   40.9470   34.0180   41.3470 H   0  0  0  0  0  0  0  0  0  0  0  0
   40.9230   33.5790   39.5540 H   0  0  0  0  0  0  0  0  0  0  0  0
   40.5960   31.5840   41.9560 H   0  0  0  0  0  0  0  0  0  0  0  0
   40.5750   31.0930   40.1480 H   0  0  0  0  0  0  0  0  0  0  0  0
   37.6970   29.6300   42.1990 C   0  0  0  0  0  3  0  0  0  0  0  0
   37.2070   29.8240   41.0350 C   0  0  0  0  0  3  0  0  0  0  0  0
   39.7850   26.9230   43.5710 C   0  0  0  0  0  0  0  0  0  0  0  0
   39.2010   25.7730   43.0540 C   0  0  0  0  0  0  0  0  0  0  0  0
   38.0930   25.9490   42.2430 C   0  0  0  0  0  0  0  0  0  0  0  0
   37.6810   27.1990   42.0250 N   0  0  0  0  0  0  0  0  0  0  0  0
   38.2330   28.3000   42.5130 C   0  0  0  0  0  0  0  0  0  0  0  0
   39.2930   28.1350   43.2920 N   0  0  0  0  0  0  0  0  0  0  0  0
   40.6500   26.7770   44.2050 H   0  0  0  0  0  0  0  0  0  0  0  0
   39.5200   24.7590   43.2190 H   0  0  0  0  0  0  0  0  0  0  0  0
   37.3190   24.8750   41.5900 C   0  0  0  0  0  3  0  0  0  0  0  0
   38.1300   23.6800   41.1880 C   0  0  0  0  0  2  0  0  0  0  0  0
   37.1560   22.9380   40.2650 C   0  0  0  0  0  2  0  0  0  0  0  0
   36.1740   23.9790   39.7670 C   0  0  0  0  0  2  0  0  0  0  0  0
   36.7210   25.3110   40.2730 C   0  0  0  0  0  2  0  0  0  0  0  0
  1 20  1  0  0  0  0
  1  2  1  0  0  0  0
  3  1  1  0  0  0  0
  4  7  1  6  0  0  0
  4  6  1  0  0  0  0
  4  1  1  0  0  0  0
  5  4  1  0  0  0  0
  5  6  1  0  0  0  0
  5  9  1  0  0  0  0
  6 10  1  6  0  0  0
  6 11  1  0  0  0  0
  8  5  1  0  0  0  0
 11 13  1  0  0  0  0
 11 14  1  0  0  0  0
 12 11  1  0  0  0  0
 12 13  1  0  0  0  0
 12 15  1  0  0  0  0
 13 17  1  0  0  0  0
 16 12  1  0  0  0  0
 18 13  1  0  0  0  0
 19 25  1  0  0  0  0
 20 19  2  0  0  0  0
 21 27  1  0  0  0  0
 22 28  1  0  0  0  0
 22 21  2  0  0  0  0
 23 22  1  0  0  0  0
 24 23  2  0  0  0  0
 24 25  1  0  0  0  0
 25 26  2  0  0  0  0
 26 21  1  0  0  0  0
 29 23  1  0  0  0  0
 30 29  1  0  0  0  0
 31 30  1  0  0  0  0
 32 31  1  0  0  0  0
 32 33  1  0  0  0  0
 33 29  1  0  0  0  0
M  END
>  <minimizedAffinity>
-5.04799891

$$$$

 OpenBabel03252508163D

 33 36  0  0  1  0  0  0  0  0999 V2000
   38.7660   27.0160   43.6800 C   0  0  0  0  0  0  0  0  0  0  0  0
   37.9050   26.4270   44.0610 H   0  0  0  0  0  0  0  0  0  0  0  0
   39.3430   27.4170   44.5130 H   0  0  0  0  0  0  0  0  0  0  0  0
   39.6780   26.1920   42.8030 C   0  0  1  0  0  0  0  0  0  0  0  0
   40.0350   24.8370   43.2950 C   0  0  0  0  0  0  0  0  0  0  0  0
   39.1630   24.9680   42.1430 C   0  0  1  0  0  0  0  0  0  0  0  0
   40.3970   26.7730   42.1760 H   0  0  0  0  0  0  0  0  0  0  0  0
   41.0610   24.4340   43.1910 H   0  0  0  0  0  0  0  0  0  0  0  0
   39.5490   24.5090   44.2540 H   0  0  0  0  0  0  0  0  0  0  0  0
   39.6400   24.6570   41.1620 H   0  0  0  0  0  0  0  0  0  0  0  0
   37.7010   24.7390   42.1690 C   0  0  0  0  0  0  0  0  0  0  0  0
   37.1810   23.7490   41.0910 C   0  0  0  0  0  0  0  0  0  0  0  0
   36.9110   25.1880   40.9250 C   0  0  0  0  0  0  0  0  0  0  0  0
   37.1640   24.6850   43.1300 H   0  0  0  0  0  0  0  0  0  0  0  0
   36.3920   23.0550   41.4120 H   0  0  0  0  0  0  0  0  0  0  0  0
   37.9420   23.2840   40.4350 H   0  0  0  0  0  0  0  0  0  0  0  0
   35.8710   25.5240   41.1790 H   0  0  0  0  0  0  0  0  0  0  0  0
   37.4280   25.7990   40.1750 H   0  0  0  0  0  0  0  0  0  0  0  0
   38.9060   28.7990   42.1290 C   0  0  0  0  0  3  0  0  0  0  0  0
   38.1130   28.1160   42.8590 C   0  0  0  0  0  3  0  0  0  0  0  0
   38.2150   32.1160   40.6820 C   0  0  0  0  0  0  0  0  0  0  0  0
   37.2230   31.8570   39.7430 C   0  0  0  0  0  0  0  0  0  0  0  0
   36.8100   30.5410   39.6220 C   0  0  0  0  0  0  0  0  0  0  0  0
   37.3940   29.6370   40.4110 N   0  0  0  0  0  0  0  0  0  0  0  0
   38.3390   29.8770   41.3070 C   0  0  0  0  0  0  0  0  0  0  0  0
   38.7380   31.1350   41.4250 N   0  0  0  0  0  0  0  0  0  0  0  0
   38.5320   33.1470   40.7700 H   0  0  0  0  0  0  0  0  0  0  0  0
   36.7420   32.5730   39.1010 H   0  0  0  0  0  0  0  0  0  0  0  0
   35.7760   30.0410   38.6960 C   0  0  0  0  0  3  0  0  0  0  0  0
   35.1380   28.7510   39.1120 C   0  0  0  0  0  2  0  0  0  0  0  0
   34.4040   28.3360   37.8310 C   0  0  0  0  0  2  0  0  0  0  0  0
   35.1140   29.0430   36.6940 C   0  0  0  0  0  2  0  0  0  0  0  0
   36.3370   29.6930   37.3360 C   0  0  0  0  0  2  0  0  0  0  0  0
  1  2  1  0  0  0  0
  1  3  1  0  0  0  0
  4  7  1  6  0  0  0
  4  5  1  0  0  0  0
  4  1  1  0  0  0  0
  5  9  1  0  0  0  0
  6 10  1  6  0  0  0
  6 11  1  0  0  0  0
  6  4  1  0  0  0  0
  6  5  1  0  0  0  0
  8  5  1  0  0  0  0
 11 14  1  0  0  0  0
 12 15  1  0  0  0  0
 12 11  1  0  0  0  0
 13 12  1  0  0  0  0
 13 17  1  0  0  0  0
 13 11  1  0  0  0  0
 16 12  1  0  0  0  0
 18 13  1  0  0  0  0
 19 20  2  0  0  0  0
 20  1  1  0  0  0  0
 21 27  1  0  0  0  0
 21 26  1  0  0  0  0
 22 21  2  0  0  0  0
 23 22  1  0  0  0  0
 23 24  2  0  0  0  0
 24 25  1  0  0  0  0
 25 26  2  0  0  0  0
 25 19  1  0  0  0  0
 28 22  1  0  0  0  0
 29 30  1  0  0  0  0
 29 23  1  0  0  0  0
 31 30  1  0  0  0  0
 32 33  1  0  0  0  0
 32 31  1  0  0  0  0
 33 29  1  0  0  0  0
M  END
>  <minimizedAffinity>
-5.00101566

$$$$

 OpenBabel03252508163D

 33 36  0  0  1  0  0  0  0  0999 V2000
   35.5100   29.3000   36.7490 C   0  0  0  0  0  0  0  0  0  0  0  0
   35.1560   30.2820   36.3680 H   0  0  0  0  0  0  0  0  0  0  0  0
   34.6640   28.6300   36.8950 H   0  0  0  0  0  0  0  0  0  0  0  0
   36.4990   28.6470   35.8140 C   0  0  1  0  0  0  0  0  0  0  0  0
   35.9360   27.8480   34.6950 C   0  0  0  0  0  0  0  0  0  0  0  0
   36.6010   29.1050   34.4070 C   0  0  1  0  0  0  0  0  0  0  0  0
   37.4800   28.3690   36.2690 H   0  0  0  0  0  0  0  0  0  0  0  0
   36.3840   26.8820   34.3910 H   0  0  0  0  0  0  0  0  0  0  0  0
   34.8170   27.8420   34.5990 H   0  0  0  0  0  0  0  0  0  0  0  0
   37.6020   28.9910   33.8870 H   0  0  0  0  0  0  0  0  0  0  0  0
   35.9020   30.3560   34.0410 C   0  0  0  0  0  0  0  0  0  0  0  0
   36.4640   31.0680   32.7800 C   0  0  0  0  0  0  0  0  0  0  0  0
   36.7320   31.6530   34.1050 C   0  0  0  0  0  0  0  0  0  0  0  0
   34.8080   30.4380   34.1570 H   0  0  0  0  0  0  0  0  0  0  0  0
   35.7210   31.5100   32.1020 H   0  0  0  0  0  0  0  0  0  0  0  0
   37.2990   30.5640   32.2560 H   0  0  0  0  0  0  0  0  0  0  0  0
   36.1090   32.5450   34.3820 H   0  0  0  0  0  0  0  0  0  0  0  0
   37.7220   31.6120   34.5750 H   0  0  0  0  0  0  0  0  0  0  0  0
   37.2100   30.4150   37.9620 C   0  0  0  0  0  3  0  0  0  0  0  0
   36.1920   29.6520   38.0610 C   0  0  0  0  0  3  0  0  0  0  0  0
   39.3390   32.2080   40.3750 C   0  0  0  0  0  0  0  0  0  0  0  0
   39.2230   31.4480   41.5330 C   0  0  0  0  0  0  0  0  0  0  0  0
   38.4090   30.3300   41.4640 C   0  0  0  0  0  0  0  0  0  0  0  0
   37.8090   30.0760   40.3000 N   0  0  0  0  0  0  0  0  0  0  0  0
   37.9150   30.7960   39.1930 C   0  0  0  0  0  0  0  0  0  0  0  0
   38.6920   31.8680   39.2560 N   0  0  0  0  0  0  0  0  0  0  0  0
   39.9770   33.0810   40.4380 H   0  0  0  0  0  0  0  0  0  0  0  0
   39.7000   31.6380   42.4780 H   0  0  0  0  0  0  0  0  0  0  0  0
   38.1430   29.3850   42.5650 C   0  0  0  0  0  3  0  0  0  0  0  0
   39.1850   28.3220   42.7390 C   0  0  0  0  0  2  0  0  0  0  0  0
   38.4760   27.3400   43.6790 C   0  0  0  0  0  2  0  0  0  0  0  0
   36.9920   27.5850   43.5010 C   0  0  0  0  0  2  0  0  0  0  0  0
   36.8920   28.5680   42.3380 C   0  0  0  0  0  2  0  0  0  0  0  0
  1  3  1  0  0  0  0
  1 20  1  0  0  0  0
  2  1  1  0  0  0  0
  4  7  1  1  0  0  0
  4  1  1  0  0  0  0
  5  4  1  0  0  0  0
  6 10  1  6  0  0  0
  6  5  1  0  0  0  0
  6  4  1  0  0  0  0
  8  5  1  0  0  0  0
  9  5  1  0  0  0  0
 11 13  1  0  0  0  0
 11 14  1  0  0  0  0
 11  6  1  0  0  0  0
 12 11  1  0  0  0  0
 12 13  1  0  0  0  0
 13 17  1  0  0  0  0
 13 18  1  0  0  0  0
 15 12  1  0  0  0  0
 16 12  1  0  0  0  0
 19 20  2  0  0  0  0
 19 25  1  0  0  0  0
 21 27  1  0  0  0  0
 21 22  1  0  0  0  0
 22 28  1  0  0  0  0
 23 22  2  0  0  0  0
 23 29  1  0  0  0  0
 24 23  1  0  0  0  0
 25 26  1  0  0  0  0
 25 24  2  0  0  0  0
 26 21  2  0  0  0  0
 29 30  1  0  0  0  0
 30 31  1  0  0  0  0
 32 31  1  0  0  0  0
 33 29  1  0  0  0  0
 33 32  1  0  0  0  0
M  END
>  <minimizedAffinity>
-4.93648052

$$$$

 OpenBabel03252508163D

 33 36  0  0  1  0  0  0  0  0999 V2000
   33.6050   28.1950   37.1440 C   0  0  0  0  0  0  0  0  0  0  0  0
   32.6700   27.8830   37.6570 H   0  0  0  0  0  0  0  0  0  0  0  0
   34.1020   27.3270   36.7110 H   0  0  0  0  0  0  0  0  0  0  0  0
   33.3470   29.2080   36.0540 C   0  0  1  0  0  0  0  0  0  0  0  0
   32.5370   28.7520   34.8950 C   0  0  0  0  0  0  0  0  0  0  0  0
   31.9720   29.7130   35.8230 C   0  0  1  0  0  0  0  0  0  0  0  0
   34.1400   29.9810   35.9190 H   0  0  0  0  0  0  0  0  0  0  0  0
   32.7940   29.0420   33.8580 H   0  0  0  0  0  0  0  0  0  0  0  0
   32.1290   27.7060   34.9500 H   0  0  0  0  0  0  0  0  0  0  0  0
   31.8600   30.7580   35.3970 H   0  0  0  0  0  0  0  0  0  0  0  0
   30.9450   29.3920   36.8390 C   0  0  0  0  0  0  0  0  0  0  0  0
   29.7020   30.3240   36.8210 C   0  0  0  0  0  0  0  0  0  0  0  0
   30.6800   30.4630   37.9140 C   0  0  0  0  0  0  0  0  0  0  0  0
   30.7200   28.3420   37.0900 H   0  0  0  0  0  0  0  0  0  0  0  0
   28.7310   29.8380   36.9850 H   0  0  0  0  0  0  0  0  0  0  0  0
   29.6810   31.1080   36.0390 H   0  0  0  0  0  0  0  0  0  0  0  0
   30.3820   30.0150   38.8980 H   0  0  0  0  0  0  0  0  0  0  0  0
   31.3700   31.3140   37.9780 H   0  0  0  0  0  0  0  0  0  0  0  0
   35.4420   29.5020   37.8680 C   0  0  0  0  0  3  0  0  0  0  0  0
   34.4280   28.8280   38.2540 C   0  0  0  0  0  3  0  0  0  0  0  0
   37.6410   31.8870   39.6130 C   0  0  0  0  0  0  0  0  0  0  0  0
   37.8520   31.2860   40.8480 C   0  0  0  0  0  0  0  0  0  0  0  0
   37.2290   30.0680   41.0600 C   0  0  0  0  0  0  0  0  0  0  0  0
   36.4840   29.5750   40.0700 N   0  0  0  0  0  0  0  0  0  0  0  0
   36.2790   30.1430   38.8900 C   0  0  0  0  0  0  0  0  0  0  0  0
   36.8730   31.3090   38.6840 N   0  0  0  0  0  0  0  0  0  0  0  0
   38.1320   32.8390   39.4550 H   0  0  0  0  0  0  0  0  0  0  0  0
   38.4490   31.6680   41.6560 H   0  0  0  0  0  0  0  0  0  0  0  0
   37.3140   29.2560   42.2900 C   0  0  0  0  0  3  0  0  0  0  0  0
   38.6700   28.6800   42.5640 C   0  0  0  0  0  2  0  0  0  0  0  0
   38.3580   27.6510   43.6570 C   0  0  0  0  0  2  0  0  0  0  0  0
   36.8890   27.3130   43.5080 C   0  0  0  0  0  2  0  0  0  0  0  0
   36.4500   28.0180   42.2270 C   0  0  0  0  0  2  0  0  0  0  0  0
  1  2  1  0  0  0  0
  1 20  1  0  0  0  0
  3  1  1  0  0  0  0
  4  7  1  6  0  0  0
  4  1  1  0  0  0  0
  5  9  1  0  0  0  0
  5  6  1  0  0  0  0
  5  4  1  0  0  0  0
  6 10  1  6  0  0  0
  6  4  1  0  0  0  0
  6 11  1  0  0  0  0
  8  5  1  0  0  0  0
 11 14  1  0  0  0  0
 11 13  1  0  0  0  0
 12 11  1  0  0  0  0
 12 15  1  0  0  0  0
 12 13  1  0  0  0  0
 13 18  1  0  0  0  0
 13 17  1  0  0  0  0
 16 12  1  0  0  0  0
 19 20  2  0  0  0  0
 19 25  1  0  0  0  0
 21 22  1  0  0  0  0
 22 23  2  0  0  0  0
 22 28  1  0  0  0  0
 23 29  1  0  0  0  0
 24 23  1  0  0  0  0
 25 24  2  0  0  0  0
 26 25  1  0  0  0  0
 26 21  2  0  0  0  0
 27 21  1  0  0  0  0
 29 30  1  0  0  0  0
 30 31  1  0  0  0  0
 32 31  1  0  0  0  0
 33 29  1  0  0  0  0
 33 32  1  0  0  0  0
M  END
>  <minimizedAffinity>
-4.92494297

$$$$

 OpenBabel03252508163D

 33 36  0  0  1  0  0  0  0  0999 V2000
   34.0530   29.0100   38.9650 C   0  0  0  0  0  0  0  0  0  0  0  0
   33.3210   29.8230   39.1600 H   0  0  0  0  0  0  0  0  0  0  0  0
   33.7110   28.0820   39.4220 H   0  0  0  0  0  0  0  0  0  0  0  0
   34.2710   28.7800   37.4880 C   0  0  1  0  0  0  0  0  0  0  0  0
   33.5950   27.6010   36.8870 C   0  0  0  0  0  0  0  0  0  0  0  0
   33.1410   28.9340   36.5400 C   0  0  1  0  0  0  0  0  0  0  0  0
   35.2490   29.1360   37.0860 H   0  0  0  0  0  0  0  0  0  0  0  0
   34.1040   26.9590   36.1430 H   0  0  0  0  0  0  0  0  0  0  0  0
   32.9260   27.0070   37.5680 H   0  0  0  0  0  0  0  0  0  0  0  0
   33.3840   29.2440   35.4770 H   0  0  0  0  0  0  0  0  0  0  0  0
   31.8980   29.5540   37.0510 C   0  0  0  0  0  0  0  0  0  0  0  0
   30.6420   29.3080   36.1700 C   0  0  0  0  0  0  0  0  0  0  0  0
   31.2600   30.6450   36.1700 C   0  0  0  0  0  0  0  0  0  0  0  0
   31.6930   29.5800   38.1340 H   0  0  0  0  0  0  0  0  0  0  0  0
   29.7040   29.1150   36.7080 H   0  0  0  0  0  0  0  0  0  0  0  0
   30.7800   28.6710   35.2750 H   0  0  0  0  0  0  0  0  0  0  0  0
   30.7330   31.4290   36.7760 H   0  0  0  0  0  0  0  0  0  0  0  0
   31.8360   31.0250   35.3160 H   0  0  0  0  0  0  0  0  0  0  0  0
   35.6500   28.9720   40.7120 C   0  0  0  0  0  3  0  0  0  0  0  0
   35.3330   29.5210   39.6040 C   0  0  0  0  0  3  0  0  0  0  0  0
   38.3950   29.3090   43.1440 C   0  0  0  0  0  0  0  0  0  0  0  0
   39.1880   30.3120   42.5980 C   0  0  0  0  0  0  0  0  0  0  0  0
   38.7640   30.8530   41.3960 C   0  0  0  0  0  0  0  0  0  0  0  0
   37.6380   30.3730   40.8670 N   0  0  0  0  0  0  0  0  0  0  0  0
   36.8780   29.4180   41.3820 C   0  0  0  0  0  0  0  0  0  0  0  0
   37.2810   28.8960   42.5320 N   0  0  0  0  0  0  0  0  0  0  0  0
   38.7340   28.8910   44.0840 H   0  0  0  0  0  0  0  0  0  0  0  0
   40.0970   30.7100   43.0110 H   0  0  0  0  0  0  0  0  0  0  0  0
   39.4460   31.9220   40.6410 C   0  0  0  0  0  3  0  0  0  0  0  0
   40.8250   32.2470   41.1300 C   0  0  0  0  0  2  0  0  0  0  0  0
   41.1100   33.5690   40.4080 C   0  0  0  0  0  2  0  0  0  0  0  0
   39.7570   34.1610   40.0680 C   0  0  0  0  0  2  0  0  0  0  0  0
   38.7440   33.2550   40.7620 C   0  0  0  0  0  2  0  0  0  0  0  0
  1  2  1  0  0  0  0
  1  3  1  0  0  0  0
  1 20  1  0  0  0  0
  4  7  1  6  0  0  0
  4  1  1  0  0  0  0
  5  4  1  0  0  0  0
  5  9  1  0  0  0  0
  6 10  1  6  0  0  0
  6  5  1  0  0  0  0
  6 11  1  0  0  0  0
  6  4  1  0  0  0  0
  8  5  1  0  0  0  0
 11 14  1  0  0  0  0
 12 13  1  0  0  0  0
 12 15  1  0  0  0  0
 12 11  1  0  0  0  0
 13 17  1  0  0  0  0
 13 11  1  0  0  0  0
 16 12  1  0  0  0  0
 18 13  1  0  0  0  0
 19 25  1  0  0  0  0
 20 19  2  0  0  0  0
 21 27  1  0  0  0  0
 22 28  1  0  0  0  0
 22 21  1  0  0  0  0
 23 22  2  0  0  0  0
 24 25  2  0  0  0  0
 24 23  1  0  0  0  0
 25 26  1  0  0  0  0
 26 21  2  0  0  0  0
 29 33  1  0  0  0  0
 29 30  1  0  0  0  0
 29 23  1  0  0  0  0
 31 30  1  0  0  0  0
 32 31  1  0  0  0  0
 32 33  1  0  0  0  0
M  END
>  <minimizedAffinity>
-4.90674019

$$$$

 OpenBabel03252508163D

 33 36  0  0  1  0  0  0  0  0999 V2000
   33.4010   28.0590   37.1070 C   0  0  0  0  0  0  0  0  0  0  0  0
   32.4980   27.8420   37.7160 H   0  0  0  0  0  0  0  0  0  0  0  0
   33.5860   27.2430   36.4090 H   0  0  0  0  0  0  0  0  0  0  0  0
   33.2710   29.3480   36.3320 C   0  0  1  0  0  0  0  0  0  0  0  0
   32.5100   29.2890   35.0570 C   0  0  0  0  0  0  0  0  0  0  0  0
   31.9450   29.9970   36.1910 C   0  0  1  0  0  0  0  0  0  0  0  0
   34.1150   30.0690   36.4530 H   0  0  0  0  0  0  0  0  0  0  0  0
   32.8480   29.8340   34.1550 H   0  0  0  0  0  0  0  0  0  0  0  0
   32.0400   28.3010   34.8000 H   0  0  0  0  0  0  0  0  0  0  0  0
   31.9200   31.1240   36.0680 H   0  0  0  0  0  0  0  0  0  0  0  0
   30.8390   29.4840   37.0300 C   0  0  0  0  0  0  0  0  0  0  0  0
   29.7300   30.5260   37.3460 C   0  0  0  0  0  0  0  0  0  0  0  0
   30.6670   30.1370   38.4150 C   0  0  0  0  0  0  0  0  0  0  0  0
   30.4690   28.4550   36.8950 H   0  0  0  0  0  0  0  0  0  0  0  0
   28.6970   30.1510   37.3310 H   0  0  0  0  0  0  0  0  0  0  0  0
   29.8460   31.5290   36.8920 H   0  0  0  0  0  0  0  0  0  0  0  0
   30.2680   29.4180   39.1780 H   0  0  0  0  0  0  0  0  0  0  0  0
   31.4570   30.8080   38.7740 H   0  0  0  0  0  0  0  0  0  0  0  0
   34.3080   29.0580   39.0520 C   0  0  0  0  0  3  0  0  0  0  0  0
   34.5080   28.1860   38.1410 C   0  0  0  0  0  3  0  0  0  0  0  0
   36.7270   30.5810   41.3760 C   0  0  0  0  0  0  0  0  0  0  0  0
   37.2840   29.4850   42.0240 C   0  0  0  0  0  0  0  0  0  0  0  0
   36.8140   28.2370   41.6510 C   0  0  0  0  0  0  0  0  0  0  0  0
   35.8730   28.1900   40.7070 N   0  0  0  0  0  0  0  0  0  0  0  0
   35.3380   29.2300   40.0850 C   0  0  0  0  0  0  0  0  0  0  0  0
   35.7850   30.4260   40.4400 N   0  0  0  0  0  0  0  0  0  0  0  0
   37.1010   31.5530   41.6730 H   0  0  0  0  0  0  0  0  0  0  0  0
   38.0430   29.5050   42.7860 H   0  0  0  0  0  0  0  0  0  0  0  0
   37.2610   26.9440   42.2050 C   0  0  0  0  0  3  0  0  0  0  0  0
   38.7330   26.8560   42.4700 C   0  0  0  0  0  2  0  0  0  0  0  0
   38.9220   25.3500   42.6890 C   0  0  0  0  0  2  0  0  0  0  0  0
   37.7580   24.6760   41.9910 C   0  0  0  0  0  2  0  0  0  0  0  0
   37.0420   25.7970   41.2440 C   0  0  0  0  0  2  0  0  0  0  0  0
  1  2  1  0  0  0  0
  1 20  1  0  0  0  0
  3  1  1  0  0  0  0
  4  7  1  1  0  0  0
  4  1  1  0  0  0  0
  5  6  1  0  0  0  0
  5  4  1  0  0  0  0
  6 10  1  6  0  0  0
  6  4  1  0  0  0  0
  6 11  1  0  0  0  0
  8  5  1  0  0  0  0
  9  5  1  0  0  0  0
 11 12  1  0  0  0  0
 11 13  1  0  0  0  0
 12 13  1  0  0  0  0
 13 18  1  0  0  0  0
 13 17  1  0  0  0  0
 14 11  1  0  0  0  0
 15 12  1  0  0  0  0
 16 12  1  0  0  0  0
 19 25  1  0  0  0  0
 20 19  2  0  0  0  0
 21 27  1  0  0  0  0
 21 22  1  0  0  0  0
 22 28  1  0  0  0  0
 23 22  2  0  0  0  0
 23 29  1  0  0  0  0
 24 23  1  0  0  0  0
 25 26  1  0  0  0  0
 25 24  2  0  0  0  0
 26 21  2  0  0  0  0
 29 30  1  0  0  0  0
 30 31  1  0  0  0  0
 32 31  1  0  0  0  0
 33 32  1  0  0  0  0
 33 29  1  0  0  0  0
M  END
>  <minimizedAffinity>
-4.88311434

$$$$

 OpenBabel03252508163D

 33 36  0  0  1  0  0  0  0  0999 V2000
   34.5300   29.2380   38.6170 C   0  0  0  0  0  0  0  0  0  0  0  0
   35.1390   30.0720   38.2060 H   0  0  0  0  0  0  0  0  0  0  0  0
   33.6760   29.6350   39.1670 H   0  0  0  0  0  0  0  0  0  0  0  0
   34.0300   28.3080   37.5380 C   0  0  1  0  0  0  0  0  0  0  0  0
   33.2280   28.9190   36.4460 C   0  0  0  0  0  0  0  0  0  0  0  0
   34.5610   28.4240   36.1580 C   0  0  1  0  0  0  0  0  0  0  0  0
   33.8370   27.2570   37.8600 H   0  0  0  0  0  0  0  0  0  0  0  0
   32.3310   28.4180   36.0360 H   0  0  0  0  0  0  0  0  0  0  0  0
   33.1080   30.0360   36.4790 H   0  0  0  0  0  0  0  0  0  0  0  0
   34.5780   27.4860   35.5200 H   0  0  0  0  0  0  0  0  0  0  0  0
   35.7470   29.2840   35.9490 C   0  0  0  0  0  0  0  0  0  0  0  0
   36.5330   28.9980   34.6400 C   0  0  0  0  0  0  0  0  0  0  0  0
   37.1150   28.5770   35.9260 C   0  0  0  0  0  0  0  0  0  0  0  0
   35.7210   30.3480   36.2380 H   0  0  0  0  0  0  0  0  0  0  0  0
   36.9150   29.8770   34.1030 H   0  0  0  0  0  0  0  0  0  0  0  0
   36.1210   28.2150   33.9740 H   0  0  0  0  0  0  0  0  0  0  0  0
   37.9380   29.2250   36.3280 H   0  0  0  0  0  0  0  0  0  0  0  0
   37.1600   27.5240   36.2320 H   0  0  0  0  0  0  0  0  0  0  0  0
   35.6980   29.0400   40.6670 C   0  0  0  0  0  3  0  0  0  0  0  0
   35.5000   28.5020   39.5260 C   0  0  0  0  0  3  0  0  0  0  0  0
   37.9210   28.3780   43.5280 C   0  0  0  0  0  0  0  0  0  0  0  0
   38.3720   27.0840   43.2940 C   0  0  0  0  0  0  0  0  0  0  0  0
   37.8980   26.4590   42.1520 C   0  0  0  0  0  0  0  0  0  0  0  0
   37.0560   27.1460   41.3780 N   0  0  0  0  0  0  0  0  0  0  0  0
   36.6230   28.3790   41.5960 C   0  0  0  0  0  0  0  0  0  0  0  0
   37.0730   28.9790   42.6880 N   0  0  0  0  0  0  0  0  0  0  0  0
   38.2960   28.8590   44.4230 H   0  0  0  0  0  0  0  0  0  0  0  0
   39.0500   26.5170   43.9060 H   0  0  0  0  0  0  0  0  0  0  0  0
   38.2420   25.0950   41.7080 C   0  0  0  0  0  3  0  0  0  0  0  0
   38.9640   25.0300   40.3960 C   0  0  0  0  0  2  0  0  0  0  0  0
   38.8650   23.5370   40.0580 C   0  0  0  0  0  2  0  0  0  0  0  0
   37.6720   23.0110   40.8290 C   0  0  0  0  0  2  0  0  0  0  0  0
   37.0190   24.2480   41.4390 C   0  0  0  0  0  2  0  0  0  0  0  0
  1  3  1  0  0  0  0
  1 20  1  0  0  0  0
  2  1  1  0  0  0  0
  4  7  1  1  0  0  0
  4  1  1  0  0  0  0
  5  9  1  0  0  0  0
  5  4  1  0  0  0  0
  6 10  1  6  0  0  0
  6  5  1  0  0  0  0
  6  4  1  0  0  0  0
  8  5  1  0  0  0  0
 11  6  1  0  0  0  0
 11 14  1  0  0  0  0
 12 13  1  0  0  0  0
 12 11  1  0  0  0  0
 13 11  1  0  0  0  0
 13 18  1  0  0  0  0
 13 17  1  0  0  0  0
 15 12  1  0  0  0  0
 16 12  1  0  0  0  0
 19 25  1  0  0  0  0
 20 19  2  0  0  0  0
 21 27  1  0  0  0  0
 22 21  1  0  0  0  0
 22 28  1  0  0  0  0
 23 22  2  0  0  0  0
 24 25  2  0  0  0  0
 24 23  1  0  0  0  0
 25 26  1  0  0  0  0
 26 21  2  0  0  0  0
 29 23  1  0  0  0  0
 30 29  1  0  0  0  0
 31 30  1  0  0  0  0
 31 32  1  0  0  0  0
 32 33  1  0  0  0  0
 33 29  1  0  0  0  0
M  END
>  <minimizedAffinity>
-4.80227804

$$$$
