
 OpenBabel03242514143D

 30 32  0  0  0  0  0  0  0  0999 V2000
   36.7070   28.9240   40.5650 C   0  0  0  0  0  0  0  0  0  0  0  0
   36.9290   28.1780   39.4070 C   0  0  0  0  0  0  0  0  0  0  0  0
   36.2740   28.6830   38.1960 C   0  0  0  0  0  0  0  0  0  0  0  0
   34.7530   28.8710   38.3260 C   0  0  0  0  0  0  0  0  0  0  0  0
   34.3240   29.1260   39.7450 C   0  0  0  0  0  0  0  0  0  0  0  0
   35.4530   29.8230   40.4570 C   0  0  0  0  0  0  0  0  0  0  0  0
   36.3740   28.3110   41.4380 H   0  0  0  0  0  0  0  0  0  0  0  0
   36.2370   27.2580   39.5510 H   0  0  0  0  0  0  0  0  0  0  0  0
   37.8120   27.5340   39.2730 H   0  0  0  0  0  0  0  0  0  0  0  0
   36.3420   27.7880   37.4130 H   0  0  0  0  0  0  0  0  0  0  0  0
   36.5990   29.5120   37.6050 H   0  0  0  0  0  0  0  0  0  0  0  0
   34.4240   29.7580   37.7470 H   0  0  0  0  0  0  0  0  0  0  0  0
   34.2270   28.0140   37.8700 H   0  0  0  0  0  0  0  0  0  0  0  0
   34.0660   28.1560   40.2330 H   0  0  0  0  0  0  0  0  0  0  0  0
   33.4490   29.7670   39.8310 H   0  0  0  0  0  0  0  0  0  0  0  0
   35.0970   30.1190   41.4610 H   0  0  0  0  0  0  0  0  0  0  0  0
   35.6700   30.7570   39.9130 H   0  0  0  0  0  0  0  0  0  0  0  0
   37.7570   29.7460   41.1640 C   0  0  0  0  0  0  0  0  0  0  0  0
   38.1160   29.3400   42.4710 C   0  0  0  0  0  0  0  0  0  0  0  0
   39.1480   30.0810   42.9130 C   0  0  0  0  0  0  0  0  0  0  0  0
   39.7410   31.0670   42.1930 N   0  0  0  0  0  0  0  0  0  0  0  0
   39.3800   31.4250   40.9720 C   0  0  0  0  0  0  0  0  0  0  0  0
   38.3720   30.7440   40.4680 N   0  0  0  0  0  0  0  0  0  0  0  0
   39.6900   30.0880   43.8270 H   0  0  0  0  0  0  0  0  0  0  0  0
   39.7480   32.1680   40.2990 H   0  0  0  0  0  0  0  0  0  0  0  0
   37.8090   28.3430   43.4480 C   0  0  0  0  0  3  0  0  0  0  0  0
   36.6090   27.4270   43.0800 C   0  0  0  0  0  2  0  0  0  0  0  0
   37.1280   26.1920   42.4590 C   0  0  0  0  0  2  0  0  0  0  0  0
   38.6370   26.2900   42.4920 C   0  0  0  0  0  2  0  0  0  0  0  0
   38.7810   27.2250   43.6800 C   0  0  0  0  0  2  0  0  0  0  0  0
  1 18  1  0  0  0  0
  1  7  1  0  0  0  0
  2  8  1  0  0  0  0
  2  1  1  0  0  0  0
  3  4  1  0  0  0  0
  3  2  1  0  0  0  0
  4  5  1  0  0  0  0
  5 15  1  0  0  0  0
  5 14  1  0  0  0  0
  5  6  1  0  0  0  0
  6  1  1  0  0  0  0
  6 16  1  0  0  0  0
  9  2  1  0  0  0  0
 10  3  1  0  0  0  0
 11  3  1  0  0  0  0
 12  4  1  0  0  0  0
 13  4  1  0  0  0  0
 17  6  1  0  0  0  0
 18 19  1  0  0  0  0
 19 20  2  0  0  0  0
 19 26  1  0  0  0  0
 20 24  1  0  0  0  0
 21 20  1  0  0  0  0
 22 21  2  0  0  0  0
 23 22  1  0  0  0  0
 23 18  2  0  0  0  0
 25 22  1  0  0  0  0
 26 30  1  0  0  0  0
 27 26  1  0  0  0  0
 28 29  1  0  0  0  0
 28 27  1  0  0  0  0
 29 30  1  0  0  0  0
M  END
>  <minimizedAffinity>
-5.34101439

$$$$

 OpenBabel03242514143D

 30 32  0  0  0  0  0  0  0  0999 V2000
   37.8570   29.2710   42.1660 C   0  0  0  0  0  0  0  0  0  0  0  0
   37.6530   28.7860   43.4580 C   0  0  0  0  0  0  0  0  0  0  0  0
   38.0520   27.3920   43.6790 C   0  0  0  0  0  0  0  0  0  0  0  0
   37.4090   26.3840   42.7110 C   0  0  0  0  0  0  0  0  0  0  0  0
   37.0360   27.0080   41.3940 C   0  0  0  0  0  0  0  0  0  0  0  0
   37.9960   28.1370   41.1240 C   0  0  0  0  0  0  0  0  0  0  0  0
   36.9590   29.7680   41.7250 H   0  0  0  0  0  0  0  0  0  0  0  0
   36.5090   28.5960   43.4880 H   0  0  0  0  0  0  0  0  0  0  0  0
   37.6010   29.4420   44.3400 H   0  0  0  0  0  0  0  0  0  0  0  0
   37.5500   27.0880   44.7150 H   0  0  0  0  0  0  0  0  0  0  0  0
   39.0520   27.0380   43.8110 H   0  0  0  0  0  0  0  0  0  0  0  0
   38.1240   25.5710   42.4690 H   0  0  0  0  0  0  0  0  0  0  0  0
   36.5540   25.8840   43.2010 H   0  0  0  0  0  0  0  0  0  0  0  0
   35.9810   27.3670   41.4400 H   0  0  0  0  0  0  0  0  0  0  0  0
   37.1030   26.3240   40.5500 H   0  0  0  0  0  0  0  0  0  0  0  0
   37.8020   28.5170   40.1040 H   0  0  0  0  0  0  0  0  0  0  0  0
   39.0160   27.7180   41.1140 H   0  0  0  0  0  0  0  0  0  0  0  0
   38.9100   30.2410   41.8660 C   0  0  0  0  0  0  0  0  0  0  0  0
   38.4600   31.3450   41.1040 C   0  0  0  0  0  0  0  0  0  0  0  0
   39.4580   32.2340   40.9520 C   0  0  0  0  0  0  0  0  0  0  0  0
   40.7040   32.0740   41.4660 N   0  0  0  0  0  0  0  0  0  0  0  0
   41.0950   31.0270   42.1740 C   0  0  0  0  0  0  0  0  0  0  0  0
   40.1710   30.1090   42.3660 N   0  0  0  0  0  0  0  0  0  0  0  0
   39.5200   33.1670   40.4490 H   0  0  0  0  0  0  0  0  0  0  0  0
   42.0260   30.7720   42.6320 H   0  0  0  0  0  0  0  0  0  0  0  0
   37.2710   31.8770   40.5140 C   0  0  0  0  0  3  0  0  0  0  0  0
   37.5190   32.8180   39.3020 C   0  0  0  0  0  2  0  0  0  0  0  0
   37.3930   32.0310   38.0590 C   0  0  0  0  0  2  0  0  0  0  0  0
   37.0050   30.6280   38.4690 C   0  0  0  0  0  2  0  0  0  0  0  0
   36.3370   30.9520   39.7930 C   0  0  0  0  0  2  0  0  0  0  0  0
  1  2  1  0  0  0  0
  2  8  1  0  0  0  0
  2  3  1  0  0  0  0
  2  9  1  0  0  0  0
  3 11  1  0  0  0  0
  3 10  1  0  0  0  0
  4 13  1  0  0  0  0
  4  3  1  0  0  0  0
  5 14  1  0  0  0  0
  5  4  1  0  0  0  0
  6  5  1  0  0  0  0
  6  1  1  0  0  0  0
  7  1  1  0  0  0  0
 12  4  1  0  0  0  0
 15  5  1  0  0  0  0
 16  6  1  0  0  0  0
 17  6  1  0  0  0  0
 18  1  1  0  0  0  0
 18 23  1  0  0  0  0
 19 18  2  0  0  0  0
 20 19  1  0  0  0  0
 20 21  2  0  0  0  0
 21 22  1  0  0  0  0
 22 23  2  0  0  0  0
 22 25  1  0  0  0  0
 24 20  1  0  0  0  0
 26 19  1  0  0  0  0
 27 26  1  0  0  0  0
 28 29  1  0  0  0  0
 28 27  1  0  0  0  0
 29 30  1  0  0  0  0
 30 26  1  0  0  0  0
M  END
>  <minimizedAffinity>
-5.13522863

$$$$

 OpenBabel03242514143D

 30 32  0  0  0  0  0  0  0  0999 V2000
   37.1190   27.1100   41.5600 C   0  0  0  0  0  0  0  0  0  0  0  0
   36.7270   26.1500   42.4940 C   0  0  0  0  0  0  0  0  0  0  0  0
   37.1360   24.7740   42.1940 C   0  0  0  0  0  0  0  0  0  0  0  0
   36.6940   24.2650   40.8110 C   0  0  0  0  0  0  0  0  0  0  0  0
   36.5160   25.3810   39.8170 C   0  0  0  0  0  0  0  0  0  0  0  0
   37.4640   26.4910   40.1860 C   0  0  0  0  0  0  0  0  0  0  0  0
   36.2860   27.7710   41.2190 H   0  0  0  0  0  0  0  0  0  0  0  0
   35.6010   26.0010   42.2600 H   0  0  0  0  0  0  0  0  0  0  0  0
   36.5100   26.3940   43.5450 H   0  0  0  0  0  0  0  0  0  0  0  0
   36.4860   24.0930   42.9230 H   0  0  0  0  0  0  0  0  0  0  0  0
   38.1150   24.3650   42.3310 H   0  0  0  0  0  0  0  0  0  0  0  0
   37.4680   23.5970   40.3800 H   0  0  0  0  0  0  0  0  0  0  0  0
   35.7910   23.6370   40.9120 H   0  0  0  0  0  0  0  0  0  0  0  0
   35.4540   25.7240   39.8340 H   0  0  0  0  0  0  0  0  0  0  0  0
   36.7420   25.0950   38.7920 H   0  0  0  0  0  0  0  0  0  0  0  0
   37.4230   27.2570   39.3910 H   0  0  0  0  0  0  0  0  0  0  0  0
   38.4870   26.0790   40.1720 H   0  0  0  0  0  0  0  0  0  0  0  0
   38.1700   28.0840   41.8530 C   0  0  0  0  0  0  0  0  0  0  0  0
   37.7560   29.4270   41.6890 C   0  0  0  0  0  0  0  0  0  0  0  0
   38.7430   30.2590   42.0670 C   0  0  0  0  0  0  0  0  0  0  0  0
   39.9490   29.8470   42.5340 N   0  0  0  0  0  0  0  0  0  0  0  0
   40.3060   28.5810   42.6740 C   0  0  0  0  0  0  0  0  0  0  0  0
   39.3910   27.7030   42.3230 N   0  0  0  0  0  0  0  0  0  0  0  0
   38.8230   31.3180   42.0860 H   0  0  0  0  0  0  0  0  0  0  0  0
   41.2040   28.1190   43.0210 H   0  0  0  0  0  0  0  0  0  0  0  0
   36.6050   30.2000   41.3400 C   0  0  0  0  0  3  0  0  0  0  0  0
   36.9230   31.5360   40.6130 C   0  0  0  0  0  2  0  0  0  0  0  0
   36.8160   31.3210   39.1560 C   0  0  0  0  0  2  0  0  0  0  0  0
   36.3710   29.8880   38.9600 C   0  0  0  0  0  2  0  0  0  0  0  0
   35.6680   29.6820   40.2900 C   0  0  0  0  0  2  0  0  0  0  0  0
  1 18  1  0  0  0  0
  1  2  1  0  0  0  0
  2  9  1  0  0  0  0
  3 11  1  0  0  0  0
  3  2  1  0  0  0  0
  3 10  1  0  0  0  0
  4 13  1  0  0  0  0
  4  3  1  0  0  0  0
  5 14  1  0  0  0  0
  5  6  1  0  0  0  0
  5  4  1  0  0  0  0
  6  1  1  0  0  0  0
  7  1  1  0  0  0  0
  8  2  1  0  0  0  0
 12  4  1  0  0  0  0
 15  5  1  0  0  0  0
 16  6  1  0  0  0  0
 17  6  1  0  0  0  0
 18 23  1  0  0  0  0
 19 18  2  0  0  0  0
 19 20  1  0  0  0  0
 20 24  1  0  0  0  0
 20 21  2  0  0  0  0
 21 22  1  0  0  0  0
 22 25  1  0  0  0  0
 23 22  2  0  0  0  0
 26 19  1  0  0  0  0
 27 26  1  0  0  0  0
 28 27  1  0  0  0  0
 29 28  1  0  0  0  0
 29 30  1  0  0  0  0
 30 26  1  0  0  0  0
M  END
>  <minimizedAffinity>
-5.08516788

$$$$

 OpenBabel03242514143D

 30 32  0  0  0  0  0  0  0  0999 V2000
   37.0420   26.1240   41.3360 C   0  0  0  0  0  0  0  0  0  0  0  0
   36.8530   24.9460   42.0590 C   0  0  0  0  0  0  0  0  0  0  0  0
   37.5780   23.7740   41.5570 C   0  0  0  0  0  0  0  0  0  0  0  0
   37.3100   23.4440   40.0790 C   0  0  0  0  0  0  0  0  0  0  0  0
   36.9110   24.6570   39.2820 C   0  0  0  0  0  0  0  0  0  0  0  0
   37.5650   25.8620   39.9040 C   0  0  0  0  0  0  0  0  0  0  0  0
   36.0910   26.6360   41.0530 H   0  0  0  0  0  0  0  0  0  0  0  0
   35.8000   24.5970   41.7200 H   0  0  0  0  0  0  0  0  0  0  0  0
   36.5520   24.9380   43.1180 H   0  0  0  0  0  0  0  0  0  0  0  0
   37.0790   22.8440   42.1080 H   0  0  0  0  0  0  0  0  0  0  0  0
   38.6190   23.5740   41.6930 H   0  0  0  0  0  0  0  0  0  0  0  0
   38.2310   23.0560   39.5970 H   0  0  0  0  0  0  0  0  0  0  0  0
   36.5730   22.6240   40.0030 H   0  0  0  0  0  0  0  0  0  0  0  0
   35.7980   24.7470   39.2790 H   0  0  0  0  0  0  0  0  0  0  0  0
   37.2300   24.6220   38.2420 H   0  0  0  0  0  0  0  0  0  0  0  0
   37.3730   26.7330   39.2520 H   0  0  0  0  0  0  0  0  0  0  0  0
   38.6550   25.6960   39.8950 H   0  0  0  0  0  0  0  0  0  0  0  0
   37.8300   27.2360   41.8680 C   0  0  0  0  0  0  0  0  0  0  0  0
   37.2090   28.4960   41.7050 C   0  0  0  0  0  0  0  0  0  0  0  0
   37.9460   29.4500   42.3020 C   0  0  0  0  0  0  0  0  0  0  0  0
   39.1100   29.2130   42.9590 N   0  0  0  0  0  0  0  0  0  0  0  0
   39.6670   28.0200   43.0920 C   0  0  0  0  0  0  0  0  0  0  0  0
   39.0020   27.0310   42.5320 N   0  0  0  0  0  0  0  0  0  0  0  0
   37.8260   30.5010   42.3940 H   0  0  0  0  0  0  0  0  0  0  0  0
   40.5620   27.6900   43.5720 H   0  0  0  0  0  0  0  0  0  0  0  0
   36.0120   29.0880   41.1950 C   0  0  0  0  0  3  0  0  0  0  0  0
   36.1270   30.6040   40.8760 C   0  0  0  0  0  2  0  0  0  0  0  0
   36.4310   30.7650   39.4400 C   0  0  0  0  0  2  0  0  0  0  0  0
   36.4420   29.3770   38.8390 C   0  0  0  0  0  2  0  0  0  0  0  0
   35.5240   28.6890   39.8340 C   0  0  0  0  0  2  0  0  0  0  0  0
  1 18  1  0  0  0  0
  1  2  1  0  0  0  0
  2  9  1  0  0  0  0
  3 11  1  0  0  0  0
  3  2  1  0  0  0  0
  3 10  1  0  0  0  0
  4  3  1  0  0  0  0
  5  6  1  0  0  0  0
  5  4  1  0  0  0  0
  6  1  1  0  0  0  0
  7  1  1  0  0  0  0
  8  2  1  0  0  0  0
 12  4  1  0  0  0  0
 13  4  1  0  0  0  0
 14  5  1  0  0  0  0
 15  5  1  0  0  0  0
 16  6  1  0  0  0  0
 17  6  1  0  0  0  0
 18 23  1  0  0  0  0
 19 18  2  0  0  0  0
 19 20  1  0  0  0  0
 20 24  1  0  0  0  0
 20 21  2  0  0  0  0
 21 22  1  0  0  0  0
 22 25  1  0  0  0  0
 23 22  2  0  0  0  0
 26 19  1  0  0  0  0
 27 26  1  0  0  0  0
 28 27  1  0  0  0  0
 29 28  1  0  0  0  0
 29 30  1  0  0  0  0
 30 26  1  0  0  0  0
M  END
>  <minimizedAffinity>
-4.98448086

$$$$

 OpenBabel03242514143D

 30 32  0  0  0  0  0  0  0  0999 V2000
   37.4740   30.6780   40.7020 C   0  0  0  0  0  0  0  0  0  0  0  0
   36.7240   31.8290   40.4600 C   0  0  0  0  0  0  0  0  0  0  0  0
   37.4220   32.8950   39.7330 C   0  0  0  0  0  0  0  0  0  0  0  0
   38.7440   33.3450   40.3760 C   0  0  0  0  0  0  0  0  0  0  0  0
   39.3830   32.2590   41.1990 C   0  0  0  0  0  0  0  0  0  0  0  0
   38.9960   30.9320   40.6020 C   0  0  0  0  0  0  0  0  0  0  0  0
   37.4510   30.3420   41.7670 H   0  0  0  0  0  0  0  0  0  0  0  0
   36.7200   32.3610   41.4900 H   0  0  0  0  0  0  0  0  0  0  0  0
   35.6240   31.8270   40.4190 H   0  0  0  0  0  0  0  0  0  0  0  0
   36.7410   33.8610   39.8750 H   0  0  0  0  0  0  0  0  0  0  0  0
   37.6130   32.9170   38.6810 H   0  0  0  0  0  0  0  0  0  0  0  0
   39.4850   33.6070   39.5940 H   0  0  0  0  0  0  0  0  0  0  0  0
   38.5860   34.2760   40.9500 H   0  0  0  0  0  0  0  0  0  0  0  0
   39.0430   32.3490   42.2580 H   0  0  0  0  0  0  0  0  0  0  0  0
   40.4710   32.2990   41.2100 H   0  0  0  0  0  0  0  0  0  0  0  0
   39.5600   30.1400   41.1270 H   0  0  0  0  0  0  0  0  0  0  0  0
   39.3410   30.9200   39.5540 H   0  0  0  0  0  0  0  0  0  0  0  0
   37.2140   29.4260   39.9920 C   0  0  0  0  0  0  0  0  0  0  0  0
   36.9090   28.3440   40.8490 C   0  0  0  0  0  0  0  0  0  0  0  0
   36.5900   27.2580   40.1200 C   0  0  0  0  0  0  0  0  0  0  0  0
   36.5710   27.2320   38.7630 N   0  0  0  0  0  0  0  0  0  0  0  0
   36.8640   28.2640   37.9880 C   0  0  0  0  0  0  0  0  0  0  0  0
   37.1880   29.3670   38.6300 N   0  0  0  0  0  0  0  0  0  0  0  0
   36.3150   26.2680   40.3860 H   0  0  0  0  0  0  0  0  0  0  0  0
   36.8910   28.3850   36.9280 H   0  0  0  0  0  0  0  0  0  0  0  0
   36.7370   28.0370   42.2350 C   0  0  0  0  0  3  0  0  0  0  0  0
   37.2190   26.6190   42.6460 C   0  0  0  0  0  2  0  0  0  0  0  0
   38.5950   26.7210   43.1740 C   0  0  0  0  0  2  0  0  0  0  0  0
   38.9580   28.1890   43.1630 C   0  0  0  0  0  2  0  0  0  0  0  0
   37.5590   28.7720   43.2510 C   0  0  0  0  0  2  0  0  0  0  0  0
  1  7  1  0  0  0  0
  2  1  1  0  0  0  0
  2  8  1  0  0  0  0
  3 10  1  0  0  0  0
  3  4  1  0  0  0  0
  3  2  1  0  0  0  0
  4 13  1  0  0  0  0
  4  5  1  0  0  0  0
  5 15  1  0  0  0  0
  5 14  1  0  0  0  0
  6  1  1  0  0  0  0
  6 16  1  0  0  0  0
  6  5  1  0  0  0  0
  9  2  1  0  0  0  0
 11  3  1  0  0  0  0
 12  4  1  0  0  0  0
 17  6  1  0  0  0  0
 18  1  1  0  0  0  0
 18 19  1  0  0  0  0
 19 26  1  0  0  0  0
 20 24  1  0  0  0  0
 20 19  2  0  0  0  0
 21 20  1  0  0  0  0
 22 23  1  0  0  0  0
 22 21  2  0  0  0  0
 23 18  2  0  0  0  0
 25 22  1  0  0  0  0
 26 27  1  0  0  0  0
 26 30  1  0  0  0  0
 27 28  1  0  0  0  0
 29 28  1  0  0  0  0
 29 30  1  0  0  0  0
M  END
>  <minimizedAffinity>
-4.94766569

$$$$

 OpenBabel03242514143D

 30 32  0  0  0  0  0  0  0  0999 V2000
   36.8210   28.1590   40.3720 C   0  0  0  0  0  0  0  0  0  0  0  0
   35.5560   28.7270   40.2140 C   0  0  0  0  0  0  0  0  0  0  0  0
   35.1980   29.0970   38.8410 C   0  0  0  0  0  0  0  0  0  0  0  0
   36.2020   30.0350   38.1520 C   0  0  0  0  0  0  0  0  0  0  0  0
   37.5950   29.8930   38.7030 C   0  0  0  0  0  0  0  0  0  0  0  0
   37.7640   28.4770   39.1880 C   0  0  0  0  0  0  0  0  0  0  0  0
   37.4310   28.6350   41.1770 H   0  0  0  0  0  0  0  0  0  0  0  0
   35.7050   29.8090   40.6020 H   0  0  0  0  0  0  0  0  0  0  0  0
   34.7310   28.5500   40.9210 H   0  0  0  0  0  0  0  0  0  0  0  0
   34.2440   29.8010   38.9510 H   0  0  0  0  0  0  0  0  0  0  0  0
   34.8840   28.4260   38.0710 H   0  0  0  0  0  0  0  0  0  0  0  0
   36.2790   29.7930   37.0720 H   0  0  0  0  0  0  0  0  0  0  0  0
   35.8340   31.0760   38.1900 H   0  0  0  0  0  0  0  0  0  0  0  0
   37.7430   30.6310   39.5280 H   0  0  0  0  0  0  0  0  0  0  0  0
   38.3780   30.0750   37.9700 H   0  0  0  0  0  0  0  0  0  0  0  0
   38.8200   28.3370   39.4800 H   0  0  0  0  0  0  0  0  0  0  0  0
   37.5830   27.8050   38.3330 H   0  0  0  0  0  0  0  0  0  0  0  0
   36.9950   26.7380   40.6700 C   0  0  0  0  0  0  0  0  0  0  0  0
   37.5530   26.4930   41.9470 C   0  0  0  0  0  0  0  0  0  0  0  0
   37.5920   25.1690   42.1830 C   0  0  0  0  0  0  0  0  0  0  0  0
   37.1540   24.2270   41.3100 N   0  0  0  0  0  0  0  0  0  0  0  0
   36.6380   24.4890   40.1200 C   0  0  0  0  0  0  0  0  0  0  0  0
   36.5670   25.7680   39.8140 N   0  0  0  0  0  0  0  0  0  0  0  0
   37.9390   24.5950   43.0060 H   0  0  0  0  0  0  0  0  0  0  0  0
   36.2600   23.8610   39.3430 H   0  0  0  0  0  0  0  0  0  0  0  0
   38.0080   27.1850   43.1120 C   0  0  0  0  0  3  0  0  0  0  0  0
   39.3600   26.6730   43.6800 C   0  0  0  0  0  2  0  0  0  0  0  0
   40.4480   27.5190   43.1500 C   0  0  0  0  0  2  0  0  0  0  0  0
   39.7940   28.5960   42.3130 C   0  0  0  0  0  2  0  0  0  0  0  0
   38.4340   28.6180   42.9890 C   0  0  0  0  0  2  0  0  0  0  0  0
  1 18  1  0  0  0  0
  1  7  1  0  0  0  0
  2  1  1  0  0  0  0
  2  8  1  0  0  0  0
  2  9  1  0  0  0  0
  3 10  1  0  0  0  0
  3  2  1  0  0  0  0
  4 13  1  0  0  0  0
  4  5  1  0  0  0  0
  4  3  1  0  0  0  0
  5  6  1  0  0  0  0
  5 14  1  0  0  0  0
  6 16  1  0  0  0  0
  6  1  1  0  0  0  0
 11  3  1  0  0  0  0
 12  4  1  0  0  0  0
 15  5  1  0  0  0  0
 17  6  1  0  0  0  0
 18 19  1  0  0  0  0
 19 20  2  0  0  0  0
 19 26  1  0  0  0  0
 20 24  1  0  0  0  0
 21 20  1  0  0  0  0
 22 21  2  0  0  0  0
 23 22  1  0  0  0  0
 23 18  2  0  0  0  0
 25 22  1  0  0  0  0
 26 27  1  0  0  0  0
 28 27  1  0  0  0  0
 29 30  1  0  0  0  0
 29 28  1  0  0  0  0
 30 26  1  0  0  0  0
M  END
>  <minimizedAffinity>
-4.8664608

$$$$

 OpenBabel03242514143D

 30 32  0  0  0  0  0  0  0  0999 V2000
   36.4750   27.8970   40.0870 C   0  0  0  0  0  0  0  0  0  0  0  0
   37.1640   27.9960   38.8770 C   0  0  0  0  0  0  0  0  0  0  0  0
   36.9010   29.2120   38.0990 C   0  0  0  0  0  0  0  0  0  0  0  0
   35.4150   29.4640   37.7940 C   0  0  0  0  0  0  0  0  0  0  0  0
   34.5040   28.8450   38.8200 C   0  0  0  0  0  0  0  0  0  0  0  0
   35.2330   28.8170   40.1370 C   0  0  0  0  0  0  0  0  0  0  0  0
   35.9430   26.9240   40.2230 H   0  0  0  0  0  0  0  0  0  0  0  0
   36.5800   27.2740   38.1830 H   0  0  0  0  0  0  0  0  0  0  0  0
   38.1110   27.4690   38.6850 H   0  0  0  0  0  0  0  0  0  0  0  0
   37.3370   28.9840   37.0150 H   0  0  0  0  0  0  0  0  0  0  0  0
   37.3040   30.1820   38.2950 H   0  0  0  0  0  0  0  0  0  0  0  0
   35.1960   30.5510   37.8120 H   0  0  0  0  0  0  0  0  0  0  0  0
   35.1810   29.1370   36.7650 H   0  0  0  0  0  0  0  0  0  0  0  0
   34.2150   27.8200   38.4870 H   0  0  0  0  0  0  0  0  0  0  0  0
   33.5810   29.4000   38.9780 H   0  0  0  0  0  0  0  0  0  0  0  0
   34.5260   28.4770   40.9150 H   0  0  0  0  0  0  0  0  0  0  0  0
   35.5070   29.8550   40.3930 H   0  0  0  0  0  0  0  0  0  0  0  0
   37.1540   28.0460   41.3740 C   0  0  0  0  0  0  0  0  0  0  0  0
   37.2960   26.8290   42.0800 C   0  0  0  0  0  0  0  0  0  0  0  0
   38.0110   27.0320   43.2020 C   0  0  0  0  0  0  0  0  0  0  0  0
   38.5120   28.2360   43.5780 N   0  0  0  0  0  0  0  0  0  0  0  0
   38.3600   29.3580   42.8940 C   0  0  0  0  0  0  0  0  0  0  0  0
   37.6680   29.2410   41.7790 N   0  0  0  0  0  0  0  0  0  0  0  0
   38.3210   26.3850   43.9860 H   0  0  0  0  0  0  0  0  0  0  0  0
   38.6910   30.3590   43.0650 H   0  0  0  0  0  0  0  0  0  0  0  0
   37.0120   25.4330   41.9590 C   0  0  0  0  0  3  0  0  0  0  0  0
   36.7190   24.9590   40.5090 C   0  0  0  0  0  2  0  0  0  0  0  0
   37.9650   24.4230   39.9240 C   0  0  0  0  0  2  0  0  0  0  0  0
   39.0180   24.4920   41.0070 C   0  0  0  0  0  2  0  0  0  0  0  0
   38.1060   24.4410   42.2200 C   0  0  0  0  0  2  0  0  0  0  0  0
  1  6  1  0  0  0  0
  1  7  1  0  0  0  0
  1 18  1  0  0  0  0
  2  1  1  0  0  0  0
  3 11  1  0  0  0  0
  3  2  1  0  0  0  0
  4 12  1  0  0  0  0
  4  3  1  0  0  0  0
  4  5  1  0  0  0  0
  5 15  1  0  0  0  0
  5  6  1  0  0  0  0
  6 17  1  0  0  0  0
  6 16  1  0  0  0  0
  8  2  1  0  0  0  0
  9  2  1  0  0  0  0
 10  3  1  0  0  0  0
 13  4  1  0  0  0  0
 14  5  1  0  0  0  0
 18 23  2  0  0  0  0
 18 19  1  0  0  0  0
 19 20  2  0  0  0  0
 20 21  1  0  0  0  0
 20 24  1  0  0  0  0
 22 25  1  0  0  0  0
 22 21  2  0  0  0  0
 23 22  1  0  0  0  0
 26 19  1  0  0  0  0
 26 30  1  0  0  0  0
 27 26  1  0  0  0  0
 28 27  1  0  0  0  0
 28 29  1  0  0  0  0
 29 30  1  0  0  0  0
M  END
>  <minimizedAffinity>
-4.82936239

$$$$

 OpenBabel03242514143D

 30 32  0  0  0  0  0  0  0  0999 V2000
   37.7260   25.0460   41.3260 C   0  0  0  0  0  0  0  0  0  0  0  0
   37.2120   23.7520   41.4220 C   0  0  0  0  0  0  0  0  0  0  0  0
   37.4500   22.8910   40.2580 C   0  0  0  0  0  0  0  0  0  0  0  0
   36.9580   23.4740   38.9230 C   0  0  0  0  0  0  0  0  0  0  0  0
   36.9250   24.9790   38.9290 C   0  0  0  0  0  0  0  0  0  0  0  0
   38.0010   25.4660   39.8630 C   0  0  0  0  0  0  0  0  0  0  0  0
   36.9830   25.8440   41.5710 H   0  0  0  0  0  0  0  0  0  0  0  0
   36.0780   23.9060   41.2350 H   0  0  0  0  0  0  0  0  0  0  0  0
   37.0200   23.2560   42.3850 H   0  0  0  0  0  0  0  0  0  0  0  0
   36.7160   21.9660   40.4040 H   0  0  0  0  0  0  0  0  0  0  0  0
   38.3690   22.4030   40.0160 H   0  0  0  0  0  0  0  0  0  0  0  0
   37.6460   23.1910   38.1000 H   0  0  0  0  0  0  0  0  0  0  0  0
   35.9830   23.0290   38.6530 H   0  0  0  0  0  0  0  0  0  0  0  0
   35.9140   25.3250   39.2490 H   0  0  0  0  0  0  0  0  0  0  0  0
   37.1220   25.4260   37.9560 H   0  0  0  0  0  0  0  0  0  0  0  0
   38.0600   26.5660   39.7770 H   0  0  0  0  0  0  0  0  0  0  0  0
   38.9660   25.0710   39.5030 H   0  0  0  0  0  0  0  0  0  0  0  0
   38.8870   25.4730   42.1060 C   0  0  0  0  0  0  0  0  0  0  0  0
   38.6340   26.5980   42.9250 C   0  0  0  0  0  0  0  0  0  0  0  0
   39.7150   26.8690   43.6780 C   0  0  0  0  0  0  0  0  0  0  0  0
   40.8670   26.1510   43.6410 N   0  0  0  0  0  0  0  0  0  0  0  0
   41.0730   25.1030   42.8610 C   0  0  0  0  0  0  0  0  0  0  0  0
   40.0570   24.7750   42.0900 N   0  0  0  0  0  0  0  0  0  0  0  0
   39.9210   27.6220   44.3980 H   0  0  0  0  0  0  0  0  0  0  0  0
   41.9120   24.4560   42.7280 H   0  0  0  0  0  0  0  0  0  0  0  0
   37.5810   27.4950   43.2880 C   0  0  0  0  0  3  0  0  0  0  0  0
   38.0260   28.9710   43.4740 C   0  0  0  0  0  2  0  0  0  0  0  0
   37.7760   29.7040   42.2160 C   0  0  0  0  0  2  0  0  0  0  0  0
   37.1180   28.7270   41.2670 C   0  0  0  0  0  2  0  0  0  0  0  0
   36.5000   27.7920   42.2910 C   0  0  0  0  0  2  0  0  0  0  0  0
  1  2  1  0  0  0  0
  1  7  1  0  0  0  0
  1 18  1  0  0  0  0
  2  9  1  0  0  0  0
  3 10  1  0  0  0  0
  3  2  1  0  0  0  0
  4  5  1  0  0  0  0
  4  3  1  0  0  0  0
  5 14  1  0  0  0  0
  5  6  1  0  0  0  0
  6  1  1  0  0  0  0
  8  2  1  0  0  0  0
 11  3  1  0  0  0  0
 12  4  1  0  0  0  0
 13  4  1  0  0  0  0
 15  5  1  0  0  0  0
 16  6  1  0  0  0  0
 17  6  1  0  0  0  0
 18 19  1  0  0  0  0
 19 26  1  0  0  0  0
 19 20  2  0  0  0  0
 20 24  1  0  0  0  0
 21 20  1  0  0  0  0
 22 21  2  0  0  0  0
 23 18  2  0  0  0  0
 23 22  1  0  0  0  0
 25 22  1  0  0  0  0
 26 27  1  0  0  0  0
 28 27  1  0  0  0  0
 29 28  1  0  0  0  0
 29 30  1  0  0  0  0
 30 26  1  0  0  0  0
M  END
>  <minimizedAffinity>
-4.81641531

$$$$

 OpenBabel03242514143D

 30 32  0  0  0  0  0  0  0  0999 V2000
   37.7530   25.8000   40.7650 C   0  0  0  0  0  0  0  0  0  0  0  0
   38.9010   25.5700   40.0050 C   0  0  0  0  0  0  0  0  0  0  0  0
   38.8470   24.4040   39.1170 C   0  0  0  0  0  0  0  0  0  0  0  0
   38.5020   23.0820   39.8220 C   0  0  0  0  0  0  0  0  0  0  0  0
   37.6900   23.2910   41.0720 C   0  0  0  0  0  0  0  0  0  0  0  0
   36.8670   24.5390   40.8920 C   0  0  0  0  0  0  0  0  0  0  0  0
   37.9570   25.9460   41.8540 H   0  0  0  0  0  0  0  0  0  0  0  0
   39.6370   25.1090   40.7740 H   0  0  0  0  0  0  0  0  0  0  0  0
   39.6150   26.3670   39.7480 H   0  0  0  0  0  0  0  0  0  0  0  0
   39.9750   24.2160   38.7860 H   0  0  0  0  0  0  0  0  0  0  0  0
   38.3350   24.3520   38.1800 H   0  0  0  0  0  0  0  0  0  0  0  0
   37.8800   22.4430   39.1620 H   0  0  0  0  0  0  0  0  0  0  0  0
   39.4230   22.5010   40.0060 H   0  0  0  0  0  0  0  0  0  0  0  0
   38.3760   23.3730   41.9490 H   0  0  0  0  0  0  0  0  0  0  0  0
   36.9970   22.4800   41.2860 H   0  0  0  0  0  0  0  0  0  0  0  0
   36.1820   24.6270   41.7540 H   0  0  0  0  0  0  0  0  0  0  0  0
   36.2320   24.3980   40.0000 H   0  0  0  0  0  0  0  0  0  0  0  0
   36.8510   26.9150   40.4800 C   0  0  0  0  0  0  0  0  0  0  0  0
   36.6980   27.8080   41.5660 C   0  0  0  0  0  0  0  0  0  0  0  0
   35.9340   28.8520   41.1960 C   0  0  0  0  0  0  0  0  0  0  0  0
   35.4010   29.0030   39.9560 N   0  0  0  0  0  0  0  0  0  0  0  0
   35.5620   28.1460   38.9610 C   0  0  0  0  0  0  0  0  0  0  0  0
   36.3000   27.0940   39.2470 N   0  0  0  0  0  0  0  0  0  0  0  0
   35.5890   29.7120   41.7150 H   0  0  0  0  0  0  0  0  0  0  0  0
   35.2080   28.1360   37.9530 H   0  0  0  0  0  0  0  0  0  0  0  0
   37.1570   28.0210   42.9030 C   0  0  0  0  0  3  0  0  0  0  0  0
   38.2440   27.0190   43.3790 C   0  0  0  0  0  2  0  0  0  0  0  0
   39.5730   27.6280   43.1730 C   0  0  0  0  0  2  0  0  0  0  0  0
   39.3340   29.0230   42.6370 C   0  0  0  0  0  2  0  0  0  0  0  0
   37.9490   29.2560   43.2130 C   0  0  0  0  0  2  0  0  0  0  0  0
  1  6  1  0  0  0  0
  1  7  1  0  0  0  0
  2  1  1  0  0  0  0
  2  8  1  0  0  0  0
  3  4  1  0  0  0  0
  3  2  1  0  0  0  0
  4 13  1  0  0  0  0
  4  5  1  0  0  0  0
  5 15  1  0  0  0  0
  5 14  1  0  0  0  0
  6  5  1  0  0  0  0
  6 16  1  0  0  0  0
  9  2  1  0  0  0  0
 10  3  1  0  0  0  0
 11  3  1  0  0  0  0
 12  4  1  0  0  0  0
 17  6  1  0  0  0  0
 18  1  1  0  0  0  0
 18 19  1  0  0  0  0
 19 26  1  0  0  0  0
 20 19  2  0  0  0  0
 20 24  1  0  0  0  0
 21 20  1  0  0  0  0
 22 23  1  0  0  0  0
 22 21  2  0  0  0  0
 23 18  2  0  0  0  0
 25 22  1  0  0  0  0
 26 30  1  0  0  0  0
 26 27  1  0  0  0  0
 28 27  1  0  0  0  0
 29 28  1  0  0  0  0
 29 30  1  0  0  0  0
M  END
>  <minimizedAffinity>
-4.78765821

$$$$
