
 OpenBabel03252507583D

 23 25  0  0  1  0  0  0  0  0999 V2000
   47.0210   32.3410   45.6050 C   0  0  1  0  0  0  0  0  0  0  0  0
   47.0240   32.6250   47.0740 C   0  0  0  0  0  0  0  0  0  0  0  0
   45.8950   31.8660   46.4680 C   0  0  2  0  0  0  0  0  0  0  0  0
   47.7810   31.6330   45.2250 H   0  0  0  0  0  0  0  0  0  0  0  0
   47.7920   32.0810   47.6570 H   0  0  0  0  0  0  0  0  0  0  0  0
   46.9590   33.6900   47.3240 H   0  0  0  0  0  0  0  0  0  0  0  0
   44.9210   32.4250   46.4450 H   0  0  0  0  0  0  0  0  0  0  0  0
   47.0740   34.6860   42.7800 C   0  0  0  0  0  0  0  0  0  0  0  0
   45.8680   35.4060   42.9390 C   0  0  0  0  0  0  0  0  0  0  0  0
   45.0280   35.0730   44.0310 C   0  0  0  0  0  0  0  0  0  0  0  0
   45.4450   34.0740   44.8560 N   0  0  0  0  0  0  0  0  0  0  0  0
   46.6230   33.4200   44.6410 C   0  0  0  0  0  0  0  0  0  0  0  0
   47.4240   33.7150   43.6270 N   0  0  0  0  0  0  0  0  0  0  0  0
   45.5390   36.2000   42.2810 H   0  0  0  0  0  0  0  0  0  0  0  0
   44.0940   35.5890   44.2050 H   0  0  0  0  0  0  0  0  0  0  0  0
   47.8380   35.1100   41.6580 C   0  0  0  0  0  0  0  0  0  0  0  0
   48.8450   35.8820   41.7080 O   0  0  0  0  0  0  0  0  0  0  0  0
   47.7040   34.8620   40.5950 H   0  0  0  0  0  0  0  0  0  0  0  0
   45.7680   30.4470   46.8910 C   0  0  0  0  0  3  0  0  0  0  0  0
   45.0360   29.5800   45.8980 C   0  0  0  0  0  2  0  0  0  0  0  0
   44.8370   28.3000   46.7120 C   0  0  0  0  0  2  0  0  0  0  0  0
   45.0600   28.6580   48.1580 C   0  0  0  0  0  2  0  0  0  0  0  0
   45.0080   30.1930   48.1490 C   0  0  0  0  0  2  0  0  0  0  0  0
  1  4  1  6  0  0  0
  1  3  1  0  0  0  0
  1  2  1  0  0  0  0
  2  6  1  0  0  0  0
  2  5  1  0  0  0  0
  3  7  1  6  0  0  0
  3 19  1  0  0  0  0
  3  2  1  0  0  0  0
  8  9  2  0  0  0  0
  8 13  1  0  0  0  0
  9 10  1  0  0  0  0
 10 15  1  0  0  0  0
 10 11  2  0  0  0  0
 12 11  1  0  0  0  0
 12  1  1  0  0  0  0
 13 12  2  0  0  0  0
 14  9  1  0  0  0  0
 16 17  2  0  0  0  0
 16  8  1  0  0  0  0
 18 16  1  0  0  0  0
 19 23  1  0  0  0  0
 20 21  1  0  0  0  0
 20 19  1  0  0  0  0
 21 22  1  0  0  0  0
 23 22  1  0  0  0  0
M  END
>  <minimizedAffinity>
-4.52177048

>  <minimizedRMSD>
1.54728127

$$$$
