
 OpenBabel03252500503D

 25 27  0  0  0  0  0  0  0  0999 V2000
   44.8640   35.0370   44.4400 C   0  0  0  0  0  0  0  0  0  0  0  0
   44.8500   34.2930   43.2650 C   0  0  0  0  0  0  0  0  0  0  0  0
   45.2480   32.9430   43.2770 C   0  0  0  0  0  0  0  0  0  0  0  0
   45.6410   32.4130   44.4770 N   0  0  0  0  0  0  0  0  0  0  0  0
   45.6480   33.1410   45.5900 C   0  0  0  0  0  0  0  0  0  0  0  0
   45.2610   34.4450   45.5730 N   0  0  0  0  0  0  0  0  0  0  0  0
   44.5700   36.0770   44.4950 H   0  0  0  0  0  0  0  0  0  0  0  0
   45.2440   32.3500   42.3790 H   0  0  0  0  0  0  0  0  0  0  0  0
   46.0640   32.5740   46.8580 C   0  0  0  0  0  0  0  0  0  0  0  0
   47.3120   32.0520   47.0430 C   0  0  0  0  0  0  0  0  0  0  0  0
   47.7400   31.5090   48.2270 C   0  0  0  0  0  0  0  0  0  0  0  0
   46.8520   31.5050   49.2480 N   0  0  0  0  0  0  0  0  0  0  0  0
   45.6330   32.0160   49.0600 C   0  0  0  0  0  0  0  0  0  0  0  0
   45.1920   32.5530   47.9120 N   0  0  0  0  0  0  0  0  0  0  0  0
   47.9960   32.0770   46.1960 H   0  0  0  0  0  0  0  0  0  0  0  0
   48.7510   31.1190   48.2800 H   0  0  0  0  0  0  0  0  0  0  0  0
   44.9490   31.9940   49.9040 H   0  0  0  0  0  0  0  0  0  0  0  0
   44.4200   34.9290   42.0400 C   0  0  0  0  0  0  0  0  0  0  0  0
   45.2060   34.9370   41.0790 O   0  0  0  0  0  0  0  0  0  0  0  0
   43.2320   35.5760   41.6950 O   0  0  0  0  0  0  0  0  0  0  0  0
   42.4310   35.2310   40.6230 C   0  0  0  0  0  0  0  0  0  0  0  0
   42.1220   33.7710   40.5010 C   0  0  0  0  0  0  0  0  0  0  0  0
   40.8980   33.5080   41.3480 C   0  0  0  0  0  0  0  0  0  0  0  0
   40.1070   34.7680   41.2050 C   0  0  0  0  0  0  0  0  0  0  0  0
   41.0630   35.8660   40.8880 C   0  0  0  0  0  0  0  0  0  0  0  0
  1  7  1  0  0  0  0
  1  6  1  0  0  0  0
  2  3  1  0  0  0  0
  2  1  2  0  0  0  0
  3  4  2  0  0  0  0
  4  5  1  0  0  0  0
  5  9  1  0  0  0  0
  6  5  2  0  0  0  0
  8  3  1  0  0  0  0
  9 10  2  0  0  0  0
  9 14  1  0  0  0  0
 10 11  1  0  0  0  0
 11 16  1  0  0  0  0
 11 12  2  0  0  0  0
 13 12  1  0  0  0  0
 13 17  1  0  0  0  0
 14 13  2  0  0  0  0
 15 10  1  0  0  0  0
 18  2  1  0  0  0  0
 19 18  2  0  0  0  0
 20 18  1  0  0  0  0
 21 25  1  0  0  0  0
 21 20  1  0  0  0  0
 22 21  1  0  0  0  0
 22 23  1  0  0  0  0
 24 23  1  0  0  0  0
 25 24  1  0  0  0  0
M  END
>  <minimizedAffinity>
-5.18707752

>  <minimizedRMSD>
2.45492315

$$$$
