
 OpenBabel03252504253D

 17 18  0  0  0  0  0  0  0  0999 V2000
   44.1230   35.8410   43.6620 C   0  0  0  0  0  0  0  0  0  0  0  0
   44.1030   34.9550   42.5920 C   0  0  0  0  0  0  0  0  0  0  0  0
   44.7190   33.7140   42.7710 C   0  0  0  0  0  0  0  0  0  0  0  0
   45.2940   33.4610   43.9670 N   0  0  0  0  0  0  0  0  0  0  0  0
   45.3000   34.3380   44.9870 C   0  0  0  0  0  0  0  0  0  0  0  0
   44.7110   35.5550   44.8560 N   0  0  0  0  0  0  0  0  0  0  0  0
   43.6740   36.8330   43.6320 H   0  0  0  0  0  0  0  0  0  0  0  0
   44.6810   33.0660   41.9280 H   0  0  0  0  0  0  0  0  0  0  0  0
   45.7620   34.1050   45.9200 H   0  0  0  0  0  0  0  0  0  0  0  0
   43.4210   35.4360   41.3800 C   0  0  0  0  0  0  0  0  0  0  0  0
   43.6300   36.4810   41.1990 H   0  0  0  0  0  0  0  0  0  0  0  0
   43.7760   34.8630   40.4840 H   0  0  0  0  0  0  0  0  0  0  0  0
   41.9340   35.2470   41.5190 C   0  0  0  0  0  3  0  0  0  0  0  0
   41.4900   33.8450   41.1460 C   0  0  0  0  0  2  0  0  0  0  0  0
   39.9820   34.0320   41.1980 C   0  0  0  0  0  2  0  0  0  0  0  0
   39.8060   35.3300   40.4340 C   0  0  0  0  0  2  0  0  0  0  0  0
   41.1530   36.0570   40.5170 C   0  0  0  0  0  2  0  0  0  0  0  0
  1  6  1  0  0  0  0
  2  3  1  0  0  0  0
  2  1  2  0  0  0  0
  3  4  2  0  0  0  0
  4  5  1  0  0  0  0
  5  9  1  0  0  0  0
  6  5  2  0  0  0  0
  7  1  1  0  0  0  0
  8  3  1  0  0  0  0
 10 13  1  0  0  0  0
 10  2  1  0  0  0  0
 11 10  1  0  0  0  0
 12 10  1  0  0  0  0
 14 15  1  0  0  0  0
 14 13  1  0  0  0  0
 16 17  1  0  0  0  0
 16 15  1  0  0  0  0
 17 13  1  0  0  0  0
M  END
>  <minimizedAffinity>
-3.921314

>  <minimizedRMSD>
1.05416119

$$$$
