
 OpenBabel03242513553D

 15 16  0  0  0  0  0  0  0  0999 V2000
   37.2150   32.1410   39.8540 C   0  0  0  0  0  0  0  0  0  0  0  0
   38.1490   31.4480   40.6420 C   0  0  0  0  0  0  0  0  0  0  0  0
   39.2070   32.2110   41.1250 C   0  0  0  0  0  0  0  0  0  0  0  0
   39.3000   33.5220   40.8370 N   0  0  0  0  0  0  0  0  0  0  0  0
   38.3780   34.1550   40.0730 C   0  0  0  0  0  0  0  0  0  0  0  0
   37.3460   33.4420   39.5940 N   0  0  0  0  0  0  0  0  0  0  0  0
   36.3990   31.5290   39.4870 H   0  0  0  0  0  0  0  0  0  0  0  0
   39.9850   31.7800   41.7420 H   0  0  0  0  0  0  0  0  0  0  0  0
   38.4380   35.2060   39.8330 H   0  0  0  0  0  0  0  0  0  0  0  0
   38.0370   30.1110   40.9230 O   0  0  0  0  0  0  0  0  0  0  0  0
   37.2540   29.4960   41.8880 C   0  0  0  0  0  3  0  0  0  0  0  0
   36.7220   28.1920   41.2760 C   0  0  0  0  0  2  0  0  0  0  0  0
   36.6230   27.1990   42.4200 C   0  0  0  0  0  2  0  0  0  0  0  0
   36.9960   28.0020   43.6680 C   0  0  0  0  0  2  0  0  0  0  0  0
   38.0440   28.9290   43.0450 C   0  0  0  0  0  2  0  0  0  0  0  0
  1  2  1  0  0  0  0
  2 10  1  0  0  0  0
  2  3  2  0  0  0  0
  3  8  1  0  0  0  0
  4  3  1  0  0  0  0
  5  4  2  0  0  0  0
  6  1  2  0  0  0  0
  6  5  1  0  0  0  0
  7  1  1  0  0  0  0
  9  5  1  0  0  0  0
 10 11  1  0  0  0  0
 11 15  1  0  0  0  0
 12 11  1  0  0  0  0
 12 13  1  0  0  0  0
 13 14  1  0  0  0  0
 15 14  1  0  0  0  0
M  END
>  <minimizedAffinity>
-3.96148658

$$$$

 OpenBabel03242513553D

 15 16  0  0  0  0  0  0  0  0999 V2000
   39.1990   31.5040   40.9590 C   0  0  0  0  0  0  0  0  0  0  0  0
   37.9740   30.9510   40.5510 C   0  0  0  0  0  0  0  0  0  0  0  0
   37.0570   31.8530   40.0230 C   0  0  0  0  0  0  0  0  0  0  0  0
   37.3550   33.1620   39.9260 N   0  0  0  0  0  0  0  0  0  0  0  0
   38.5480   33.6570   40.3310 C   0  0  0  0  0  0  0  0  0  0  0  0
   39.4530   32.8070   40.8440 N   0  0  0  0  0  0  0  0  0  0  0  0
   39.9000   30.7840   41.3670 H   0  0  0  0  0  0  0  0  0  0  0  0
   36.0810   31.5370   39.6770 H   0  0  0  0  0  0  0  0  0  0  0  0
   38.8040   34.7040   40.2600 H   0  0  0  0  0  0  0  0  0  0  0  0
   37.6890   29.6140   40.6590 O   0  0  0  0  0  0  0  0  0  0  0  0
   36.9840   28.9600   41.6570 C   0  0  0  0  0  3  0  0  0  0  0  0
   36.9480   27.4710   41.2860 C   0  0  0  0  0  2  0  0  0  0  0  0
   36.9720   26.7090   42.5990 C   0  0  0  0  0  2  0  0  0  0  0  0
   36.9070   27.7900   43.6800 C   0  0  0  0  0  2  0  0  0  0  0  0
   37.7240   28.8760   42.9730 C   0  0  0  0  0  2  0  0  0  0  0  0
  1  7  1  0  0  0  0
  2 10  1  0  0  0  0
  2  1  2  0  0  0  0
  3  2  1  0  0  0  0
  4  3  2  0  0  0  0
  4  5  1  0  0  0  0
  5  6  2  0  0  0  0
  6  1  1  0  0  0  0
  8  3  1  0  0  0  0
  9  5  1  0  0  0  0
 10 11  1  0  0  0  0
 11 15  1  0  0  0  0
 12 11  1  0  0  0  0
 12 13  1  0  0  0  0
 13 14  1  0  0  0  0
 15 14  1  0  0  0  0
M  END
>  <minimizedAffinity>
-3.85986471

$$$$

 OpenBabel03242513553D

 15 16  0  0  0  0  0  0  0  0999 V2000
   36.6480   28.0980   42.2300 C   0  0  0  0  0  0  0  0  0  0  0  0
   37.2770   29.3510   42.1410 C   0  0  0  0  0  0  0  0  0  0  0  0
   38.5720   29.4070   42.6430 C   0  0  0  0  0  0  0  0  0  0  0  0
   39.1540   28.3150   43.1730 N   0  0  0  0  0  0  0  0  0  0  0  0
   38.5150   27.1240   43.2400 C   0  0  0  0  0  0  0  0  0  0  0  0
   37.2620   27.0410   42.7620 N   0  0  0  0  0  0  0  0  0  0  0  0
   35.6390   28.0750   41.8330 H   0  0  0  0  0  0  0  0  0  0  0  0
   39.1500   30.3220   42.6270 H   0  0  0  0  0  0  0  0  0  0  0  0
   38.9670   26.2380   43.6610 H   0  0  0  0  0  0  0  0  0  0  0  0
   36.6650   30.4520   41.5980 O   0  0  0  0  0  0  0  0  0  0  0  0
   36.4040   30.7230   40.2640 C   0  0  0  0  0  3  0  0  0  0  0  0
   36.9610   32.1230   39.9690 C   0  0  0  0  0  2  0  0  0  0  0  0
   37.4340   32.0930   38.5270 C   0  0  0  0  0  2  0  0  0  0  0  0
   37.0300   30.7100   38.0120 C   0  0  0  0  0  2  0  0  0  0  0  0
   37.2390   29.9100   39.3010 C   0  0  0  0  0  2  0  0  0  0  0  0
  1  6  1  0  0  0  0
  2  1  2  0  0  0  0
  2  3  1  0  0  0  0
  3  4  2  0  0  0  0
  4  5  1  0  0  0  0
  5  9  1  0  0  0  0
  6  5  2  0  0  0  0
  7  1  1  0  0  0  0
  8  3  1  0  0  0  0
 10  2  1  0  0  0  0
 11 10  1  0  0  0  0
 12 11  1  0  0  0  0
 13 12  1  0  0  0  0
 14 13  1  0  0  0  0
 14 15  1  0  0  0  0
 15 11  1  0  0  0  0
M  END
>  <minimizedAffinity>
-3.76563716

$$$$

 OpenBabel03242513553D

 15 16  0  0  0  0  0  0  0  0999 V2000
   38.8080   29.2520   42.4060 C   0  0  0  0  0  0  0  0  0  0  0  0
   37.8010   29.5380   41.4680 C   0  0  0  0  0  0  0  0  0  0  0  0
   36.6370   28.7870   41.5950 C   0  0  0  0  0  0  0  0  0  0  0  0
   36.5160   27.8580   42.5610 N   0  0  0  0  0  0  0  0  0  0  0  0
   37.5100   27.6130   43.4470 C   0  0  0  0  0  0  0  0  0  0  0  0
   38.6460   28.3230   43.3480 N   0  0  0  0  0  0  0  0  0  0  0  0
   39.7060   29.8480   42.2910 H   0  0  0  0  0  0  0  0  0  0  0  0
   35.7960   28.9230   40.9270 H   0  0  0  0  0  0  0  0  0  0  0  0
   37.4300   26.8710   44.2280 H   0  0  0  0  0  0  0  0  0  0  0  0
   37.9440   30.4880   40.4910 O   0  0  0  0  0  0  0  0  0  0  0  0
   37.4960   31.8010   40.4930 C   0  0  0  0  0  3  0  0  0  0  0  0
   38.6890   32.6850   40.8820 C   0  0  0  0  0  2  0  0  0  0  0  0
   38.5100   33.9900   40.1270 C   0  0  0  0  0  2  0  0  0  0  0  0
   37.1610   33.8500   39.4190 C   0  0  0  0  0  2  0  0  0  0  0  0
   37.2120   32.3500   39.1130 C   0  0  0  0  0  2  0  0  0  0  0  0
  1  6  1  0  0  0  0
  2  3  1  0  0  0  0
  2  1  2  0  0  0  0
  3  4  2  0  0  0  0
  4  5  1  0  0  0  0
  5  9  1  0  0  0  0
  6  5  2  0  0  0  0
  7  1  1  0  0  0  0
  8  3  1  0  0  0  0
 10 11  1  0  0  0  0
 10  2  1  0  0  0  0
 11 12  1  0  0  0  0
 13 12  1  0  0  0  0
 14 13  1  0  0  0  0
 15 14  1  0  0  0  0
 15 11  1  0  0  0  0
M  END
>  <minimizedAffinity>
-3.71139264

$$$$

 OpenBabel03242513553D

 15 16  0  0  0  0  0  0  0  0999 V2000
   36.8580   28.6110   39.8460 C   0  0  0  0  0  0  0  0  0  0  0  0
   36.4390   29.0280   41.1210 C   0  0  0  0  0  0  0  0  0  0  0  0
   36.3120   30.4030   41.2880 C   0  0  0  0  0  0  0  0  0  0  0  0
   36.5820   31.2480   40.2760 N   0  0  0  0  0  0  0  0  0  0  0  0
   36.9830   30.8070   39.0600 C   0  0  0  0  0  0  0  0  0  0  0  0
   37.1130   29.4830   38.8710 N   0  0  0  0  0  0  0  0  0  0  0  0
   36.9500   27.5360   39.7360 H   0  0  0  0  0  0  0  0  0  0  0  0
   35.9960   30.8360   42.2280 H   0  0  0  0  0  0  0  0  0  0  0  0
   37.2030   31.4710   38.2380 H   0  0  0  0  0  0  0  0  0  0  0  0
   36.1700   28.1500   42.1380 O   0  0  0  0  0  0  0  0  0  0  0  0
   37.0620   27.5260   42.9980 C   0  0  0  0  0  3  0  0  0  0  0  0
   37.4000   26.1600   42.3850 C   0  0  0  0  0  2  0  0  0  0  0  0
   38.8410   25.8730   42.7670 C   0  0  0  0  0  2  0  0  0  0  0  0
   39.2430   27.0330   43.6800 C   0  0  0  0  0  2  0  0  0  0  0  0
   38.4390   28.1490   43.0050 C   0  0  0  0  0  2  0  0  0  0  0  0
  1  2  1  0  0  0  0
  2  3  2  0  0  0  0
  2 10  1  0  0  0  0
  3  8  1  0  0  0  0
  4  3  1  0  0  0  0
  5  4  2  0  0  0  0
  6  5  1  0  0  0  0
  6  1  2  0  0  0  0
  7  1  1  0  0  0  0
  9  5  1  0  0  0  0
 10 11  1  0  0  0  0
 11 15  1  0  0  0  0
 12 13  1  0  0  0  0
 12 11  1  0  0  0  0
 13 14  1  0  0  0  0
 15 14  1  0  0  0  0
M  END
>  <minimizedAffinity>
-3.64977789

$$$$

 OpenBabel03242513553D

 15 16  0  0  0  0  0  0  0  0999 V2000
   39.8000   30.9940   40.2430 C   0  0  0  0  0  0  0  0  0  0  0  0
   38.6170   31.4620   40.8390 C   0  0  0  0  0  0  0  0  0  0  0  0
   38.3690   32.8220   40.6850 C   0  0  0  0  0  0  0  0  0  0  0  0
   39.2250   33.6070   40.0060 N   0  0  0  0  0  0  0  0  0  0  0  0
   40.3550   33.1170   39.4440 C   0  0  0  0  0  0  0  0  0  0  0  0
   40.6200   31.8070   39.5770 N   0  0  0  0  0  0  0  0  0  0  0  0
   39.9760   29.9320   40.3740 H   0  0  0  0  0  0  0  0  0  0  0  0
   37.4880   33.2900   41.1040 H   0  0  0  0  0  0  0  0  0  0  0  0
   41.0520   33.7330   38.8960 H   0  0  0  0  0  0  0  0  0  0  0  0
   37.7590   30.6460   41.5280 O   0  0  0  0  0  0  0  0  0  0  0  0
   37.8800   29.2880   41.7860 C   0  0  0  0  0  3  0  0  0  0  0  0
   38.0800   29.1310   43.3000 C   0  0  0  0  0  2  0  0  0  0  0  0
   37.4110   27.8230   43.6800 C   0  0  0  0  0  2  0  0  0  0  0  0
   36.9470   27.2210   42.3520 C   0  0  0  0  0  2  0  0  0  0  0  0
   36.5900   28.5180   41.6200 C   0  0  0  0  0  2  0  0  0  0  0  0
  1  7  1  0  0  0  0
  1  2  1  0  0  0  0
  2 10  1  0  0  0  0
  3  2  2  0  0  0  0
  3  8  1  0  0  0  0
  4  3  1  0  0  0  0
  5  6  1  0  0  0  0
  5  4  2  0  0  0  0
  6  1  2  0  0  0  0
  9  5  1  0  0  0  0
 10 11  1  0  0  0  0
 11 12  1  0  0  0  0
 12 13  1  0  0  0  0
 14 13  1  0  0  0  0
 15 11  1  0  0  0  0
 15 14  1  0  0  0  0
M  END
>  <minimizedAffinity>
-3.62741756

$$$$

 OpenBabel03242513553D

 15 16  0  0  0  0  0  0  0  0999 V2000
   39.0880   28.4370   41.2910 C   0  0  0  0  0  0  0  0  0  0  0  0
   38.0620   29.0570   42.0240 C   0  0  0  0  0  0  0  0  0  0  0  0
   37.7700   28.4740   43.2530 C   0  0  0  0  0  0  0  0  0  0  0  0
   38.4440   27.3900   43.6800 N   0  0  0  0  0  0  0  0  0  0  0  0
   39.4280   26.8220   42.9430 C   0  0  0  0  0  0  0  0  0  0  0  0
   39.7310   27.3650   41.7520 N   0  0  0  0  0  0  0  0  0  0  0  0
   39.3010   28.9070   40.3370 H   0  0  0  0  0  0  0  0  0  0  0  0
   36.9980   28.8680   43.9000 H   0  0  0  0  0  0  0  0  0  0  0  0
   39.9780   25.9530   43.2710 H   0  0  0  0  0  0  0  0  0  0  0  0
   37.3880   30.1600   41.5710 O   0  0  0  0  0  0  0  0  0  0  0  0
   36.2410   30.2110   40.7930 C   0  0  0  0  0  3  0  0  0  0  0  0
   36.6900   30.3070   39.3290 C   0  0  0  0  0  2  0  0  0  0  0  0
   35.6440   29.5640   38.5170 C   0  0  0  0  0  2  0  0  0  0  0  0
   34.5730   29.1630   39.5340 C   0  0  0  0  0  2  0  0  0  0  0  0
   35.4810   28.9060   40.7400 C   0  0  0  0  0  2  0  0  0  0  0  0
  1  6  2  0  0  0  0
  1  2  1  0  0  0  0
  2  3  2  0  0  0  0
  3  4  1  0  0  0  0
  3  8  1  0  0  0  0
  5  9  1  0  0  0  0
  5  4  2  0  0  0  0
  6  5  1  0  0  0  0
  7  1  1  0  0  0  0
 10  2  1  0  0  0  0
 11 10  1  0  0  0  0
 12 11  1  0  0  0  0
 13 12  1  0  0  0  0
 13 14  1  0  0  0  0
 14 15  1  0  0  0  0
 15 11  1  0  0  0  0
M  END
>  <minimizedAffinity>
-3.50282431

$$$$

 OpenBabel03242513553D

 15 16  0  0  0  0  0  0  0  0999 V2000
   38.8610   30.2970   39.6500 C   0  0  0  0  0  0  0  0  0  0  0  0
   38.4170   30.7500   40.9040 C   0  0  0  0  0  0  0  0  0  0  0  0
   39.1050   31.8410   41.4230 C   0  0  0  0  0  0  0  0  0  0  0  0
   40.1230   32.4010   40.7440 N   0  0  0  0  0  0  0  0  0  0  0  0
   40.5210   31.9350   39.5360 C   0  0  0  0  0  0  0  0  0  0  0  0
   39.8740   30.8820   39.0120 N   0  0  0  0  0  0  0  0  0  0  0  0
   38.3120   29.4450   39.2630 H   0  0  0  0  0  0  0  0  0  0  0  0
   38.8480   32.2730   42.3810 H   0  0  0  0  0  0  0  0  0  0  0  0
   41.3360   32.3730   38.9790 H   0  0  0  0  0  0  0  0  0  0  0  0
   37.3780   30.1650   41.5800 O   0  0  0  0  0  0  0  0  0  0  0  0
   37.4310   29.2360   42.6080 C   0  0  0  0  0  3  0  0  0  0  0  0
   36.5800   28.0340   42.1780 C   0  0  0  0  0  2  0  0  0  0  0  0
   37.2450   26.8090   42.7810 C   0  0  0  0  0  2  0  0  0  0  0  0
   38.3910   27.3650   43.6280 C   0  0  0  0  0  2  0  0  0  0  0  0
   38.7750   28.5580   42.7490 C   0  0  0  0  0  2  0  0  0  0  0  0
  1  2  1  0  0  0  0
  2  3  2  0  0  0  0
  2 10  1  0  0  0  0
  3  8  1  0  0  0  0
  4  3  1  0  0  0  0
  5  4  2  0  0  0  0
  6  5  1  0  0  0  0
  6  1  2  0  0  0  0
  7  1  1  0  0  0  0
  9  5  1  0  0  0  0
 10 11  1  0  0  0  0
 11 15  1  0  0  0  0
 12 11  1  0  0  0  0
 12 13  1  0  0  0  0
 13 14  1  0  0  0  0
 15 14  1  0  0  0  0
M  END
>  <minimizedAffinity>
-3.47382092

$$$$

 OpenBabel03242513553D

 15 16  0  0  0  0  0  0  0  0999 V2000
   38.4210   28.2190   41.0960 C   0  0  0  0  0  0  0  0  0  0  0  0
   37.9040   29.1720   41.9890 C   0  0  0  0  0  0  0  0  0  0  0  0
   37.8030   28.7580   43.3130 C   0  0  0  0  0  0  0  0  0  0  0  0
   38.1840   27.5200   43.6800 N   0  0  0  0  0  0  0  0  0  0  0  0
   38.6790   26.6290   42.7880 C   0  0  0  0  0  0  0  0  0  0  0  0
   38.7870   27.0030   41.5030 N   0  0  0  0  0  0  0  0  0  0  0  0
   38.4920   28.5610   40.0700 H   0  0  0  0  0  0  0  0  0  0  0  0
   37.4180   29.4100   44.0860 H   0  0  0  0  0  0  0  0  0  0  0  0
   38.9890   25.6330   43.0660 H   0  0  0  0  0  0  0  0  0  0  0  0
   37.5210   30.4280   41.5950 O   0  0  0  0  0  0  0  0  0  0  0  0
   38.0940   31.2400   40.6280 C   0  0  0  0  0  3  0  0  0  0  0  0
   36.9490   31.9870   39.9290 C   0  0  0  0  0  2  0  0  0  0  0  0
   37.5050   33.3480   39.5480 C   0  0  0  0  0  2  0  0  0  0  0  0
   38.9830   33.2900   39.9420 C   0  0  0  0  0  2  0  0  0  0  0  0
   38.8570   32.4170   41.1930 C   0  0  0  0  0  2  0  0  0  0  0  0
  1  6  2  0  0  0  0
  1  2  1  0  0  0  0
  2  3  2  0  0  0  0
  3  4  1  0  0  0  0
  3  8  1  0  0  0  0
  5  9  1  0  0  0  0
  5  4  2  0  0  0  0
  6  5  1  0  0  0  0
  7  1  1  0  0  0  0
 10  2  1  0  0  0  0
 11 15  1  0  0  0  0
 11 10  1  0  0  0  0
 12 11  1  0  0  0  0
 13 12  1  0  0  0  0
 13 14  1  0  0  0  0
 14 15  1  0  0  0  0
M  END
>  <minimizedAffinity>
-3.46146655

$$$$
