
 OpenBabel03252504053D

 15 16  0  0  0  0  0  0  0  0999 V2000
   44.5520   35.5520   45.0770 C   0  0  0  0  0  0  0  0  0  0  0  0
   45.0910   35.7450   43.7960 C   0  0  0  0  0  0  0  0  0  0  0  0
   46.0710   34.8380   43.3760 C   0  0  0  0  0  0  0  0  0  0  0  0
   46.4420   33.8350   44.2140 N   0  0  0  0  0  0  0  0  0  0  0  0
   45.8950   33.6820   45.4480 C   0  0  0  0  0  0  0  0  0  0  0  0
   44.9410   34.5580   45.8680 N   0  0  0  0  0  0  0  0  0  0  0  0
   43.7920   36.2990   45.3400 H   0  0  0  0  0  0  0  0  0  0  0  0
   46.2150   32.8700   46.0890 H   0  0  0  0  0  0  0  0  0  0  0  0
   46.6690   34.9990   42.0370 C   0  0  0  0  0  0  0  0  0  0  0  0
   48.1180   35.3660   42.0410 C   0  0  0  0  0  0  0  0  0  0  0  0
   48.5320   35.1090   40.6080 C   0  0  0  0  0  0  0  0  0  0  0  0
   47.4580   34.2060   40.0010 C   0  0  0  0  0  0  0  0  0  0  0  0
   46.6500   33.7310   41.2160 C   0  0  0  0  0  0  0  0  0  0  0  0
   44.7160   36.7690   42.9370 O   0  0  0  0  0  0  0  0  0  0  0  0
   43.9960   36.6700   42.2140 H   0  0  0  0  0  0  0  0  0  0  0  0
  1  7  1  0  0  0  0
  1  6  1  0  0  0  0
  2  1  2  0  0  0  0
  3  2  1  0  0  0  0
  3  4  2  0  0  0  0
  4  5  1  0  0  0  0
  5  6  2  0  0  0  0
  5  8  1  0  0  0  0
  9 10  1  0  0  0  0
  9  3  1  0  0  0  0
 11 10  1  0  0  0  0
 12 11  1  0  0  0  0
 12 13  1  0  0  0  0
 13  9  1  0  0  0  0
 14  2  1  0  0  0  0
 15 14  1  0  0  0  0
M  END
>  <minimizedAffinity>
-4.89376354

>  <minimizedRMSD>
0.774451017

$$$$
