
 OpenBabel03242514143D

 30 32  0  0  0  0  0  0  0  0999 V2000
   44.7280   34.8350   41.4690 C   0  0  0  0  0  0  0  0  0  0  0  0
   43.7360   35.8050   41.6170 C   0  0  0  0  0  0  0  0  0  0  0  0
   42.3610   35.3370   41.4120 C   0  0  0  0  0  0  0  0  0  0  0  0
   42.1180   34.6450   40.0600 C   0  0  0  0  0  0  0  0  0  0  0  0
   43.3670   34.0190   39.5010 C   0  0  0  0  0  0  0  0  0  0  0  0
   44.2430   33.6120   40.6570 C   0  0  0  0  0  0  0  0  0  0  0  0
   45.5600   35.1420   40.7900 H   0  0  0  0  0  0  0  0  0  0  0  0
   43.8110   36.4100   40.6300 H   0  0  0  0  0  0  0  0  0  0  0  0
   43.8750   36.7130   42.2230 H   0  0  0  0  0  0  0  0  0  0  0  0
   41.7120   36.3280   41.2980 H   0  0  0  0  0  0  0  0  0  0  0  0
   41.7780   34.7760   42.1100 H   0  0  0  0  0  0  0  0  0  0  0  0
   41.3900   33.8160   40.1760 H   0  0  0  0  0  0  0  0  0  0  0  0
   41.6450   35.3520   39.3550 H   0  0  0  0  0  0  0  0  0  0  0  0
   43.8800   34.7510   38.8330 H   0  0  0  0  0  0  0  0  0  0  0  0
   43.1820   33.1240   38.9100 H   0  0  0  0  0  0  0  0  0  0  0  0
   45.1010   33.0440   40.2550 H   0  0  0  0  0  0  0  0  0  0  0  0
   43.6690   32.9100   41.2840 H   0  0  0  0  0  0  0  0  0  0  0  0
   45.4640   34.3060   42.6170 C   0  0  0  0  0  0  0  0  0  0  0  0
   46.8680   34.3570   42.4590 C   0  0  0  0  0  0  0  0  0  0  0  0
   47.4710   33.9440   43.5890 C   0  0  0  0  0  0  0  0  0  0  0  0
   46.8070   33.5430   44.7030 N   0  0  0  0  0  0  0  0  0  0  0  0
   45.4900   33.5050   44.8180 C   0  0  0  0  0  0  0  0  0  0  0  0
   44.8270   33.8960   43.7500 N   0  0  0  0  0  0  0  0  0  0  0  0
   48.4920   33.8320   43.8610 H   0  0  0  0  0  0  0  0  0  0  0  0
   44.8430   33.2180   45.6180 H   0  0  0  0  0  0  0  0  0  0  0  0
   47.8680   34.7860   41.5310 C   0  0  0  0  0  0  0  0  0  0  0  0
   49.2730   34.1670   41.7650 C   0  0  0  0  0  0  0  0  0  0  0  0
   49.4260   32.9900   40.8860 C   0  0  0  0  0  0  0  0  0  0  0  0
   48.1650   32.9020   40.0550 C   0  0  0  0  0  0  0  0  0  0  0  0
   47.7590   34.3640   40.0960 C   0  0  0  0  0  0  0  0  0  0  0  0
  1  2  1  0  0  0  0
  1 18  1  0  0  0  0
  2  9  1  0  0  0  0
  3  2  1  0  0  0  0
  3 11  1  0  0  0  0
  4 12  1  0  0  0  0
  4  3  1  0  0  0  0
  5  4  1  0  0  0  0
  5  6  1  0  0  0  0
  6 17  1  0  0  0  0
  6  1  1  0  0  0  0
  7  1  1  0  0  0  0
  8  2  1  0  0  0  0
 10  3  1  0  0  0  0
 13  4  1  0  0  0  0
 14  5  1  0  0  0  0
 15  5  1  0  0  0  0
 16  6  1  0  0  0  0
 18 23  1  0  0  0  0
 19 18  2  0  0  0  0
 19 20  1  0  0  0  0
 20 24  1  0  0  0  0
 20 21  2  0  0  0  0
 21 22  1  0  0  0  0
 22 25  1  0  0  0  0
 23 22  2  0  0  0  0
 26 27  1  0  0  0  0
 26 19  1  0  0  0  0
 28 27  1  0  0  0  0
 29 30  1  0  0  0  0
 29 28  1  0  0  0  0
 30 26  1  0  0  0  0
M  END
>  <minimizedAffinity>
-4.78684521

>  <minimizedRMSD>
3.83804798

$$$$
