
 OpenBabel03252505403D

 24 26  0  0  1  0  0  0  0  0999 V2000
   37.3800   29.5660   41.8700 C   0  0  0  0  0  0  0  0  0  0  0  0
   36.2140   29.1220   41.1940 C   0  0  0  0  0  0  0  0  0  0  0  0
   35.7030   29.9200   40.1770 C   0  0  0  0  0  0  0  0  0  0  0  0
   36.3450   31.0830   39.8810 N   0  0  0  0  0  0  0  0  0  0  0  0
   37.4570   31.4720   40.5510 C   0  0  0  0  0  0  0  0  0  0  0  0
   37.9660   30.7030   41.5450 N   0  0  0  0  0  0  0  0  0  0  0  0
   35.7610   28.2000   41.4770 H   0  0  0  0  0  0  0  0  0  0  0  0
   34.8180   29.6310   39.6280 H   0  0  0  0  0  0  0  0  0  0  0  0
   37.9540   28.7480   42.9690 C   0  0  1  0  0  0  0  0  0  0  0  0
   36.9160   27.8510   43.6800 C   0  0  0  0  0  0  0  0  0  0  0  0
   38.0360   27.2880   42.8700 C   0  0  2  0  0  0  0  0  0  0  0  0
   38.5220   29.3820   43.6860 H   0  0  0  0  0  0  0  0  0  0  0  0
   35.9160   27.7830   43.2280 H   0  0  0  0  0  0  0  0  0  0  0  0
   37.0090   27.7370   44.7670 H   0  0  0  0  0  0  0  0  0  0  0  0
   37.7780   26.8840   41.8420 H   0  0  0  0  0  0  0  0  0  0  0  0
   39.2490   26.6620   43.4520 C   0  0  0  0  0  3  0  0  0  0  0  0
   39.6240   25.3820   42.7580 C   0  0  0  0  0  2  0  0  0  0  0  0
   41.0320   25.1640   43.3190 C   0  0  0  0  0  2  0  0  0  0  0  0
   41.6340   26.5370   43.0230 C   0  0  0  0  0  2  0  0  0  0  0  0
   40.5030   27.4900   43.3720 C   0  0  0  0  0  2  0  0  0  0  0  0
   38.0060   32.7860   40.0840 C   0  0  0  0  0  0  0  0  0  0  0  0
   38.9590   32.6260   39.1090 F   0  0  0  0  0  0  0  0  0  0  0  0
   38.5890   33.4590   41.1620 F   0  0  0  0  0  0  0  0  0  0  0  0
   36.9500   33.5860   39.6650 F   0  0  0  0  0  0  0  0  0  0  0  0
  1  9  1  0  0  0  0
  2  7  1  0  0  0  0
  2  1  2  0  0  0  0
  3  2  1  0  0  0  0
  4  3  2  0  0  0  0
  4  5  1  0  0  0  0
  5  6  2  0  0  0  0
  6  1  1  0  0  0  0
  8  3  1  0  0  0  0
  9 10  1  0  0  0  0
  9 12  1  1  0  0  0
 10 14  1  0  0  0  0
 11 15  1  6  0  0  0
 11  9  1  0  0  0  0
 11 16  1  0  0  0  0
 11 10  1  0  0  0  0
 13 10  1  0  0  0  0
 17 18  1  0  0  0  0
 17 16  1  0  0  0  0
 19 18  1  0  0  0  0
 19 20  1  0  0  0  0
 20 16  1  0  0  0  0
 21  5  1  0  0  0  0
 21 23  1  0  0  0  0
 22 21  1  0  0  0  0
 24 21  1  0  0  0  0
M  END
>  <minimizedAffinity>
-5.32315922

$$$$

 OpenBabel03252505403D

 24 26  0  0  1  0  0  0  0  0999 V2000
   38.3960   29.1650   42.0930 C   0  0  0  0  0  0  0  0  0  0  0  0
   39.3920   30.0270   42.6200 C   0  0  0  0  0  0  0  0  0  0  0  0
   39.5770   31.2630   42.0110 C   0  0  0  0  0  0  0  0  0  0  0  0
   38.7960   31.5830   40.9440 N   0  0  0  0  0  0  0  0  0  0  0  0
   37.8550   30.7310   40.4700 C   0  0  0  0  0  0  0  0  0  0  0  0
   37.6640   29.5220   41.0550 N   0  0  0  0  0  0  0  0  0  0  0  0
   39.9690   29.7130   43.4590 H   0  0  0  0  0  0  0  0  0  0  0  0
   40.3210   31.9600   42.3700 H   0  0  0  0  0  0  0  0  0  0  0  0
   38.1720   27.8320   42.7080 C   0  0  1  0  0  0  0  0  0  0  0  0
   36.9690   27.7920   43.6760 C   0  0  0  0  0  0  0  0  0  0  0  0
   36.9840   27.0350   42.3910 C   0  0  2  0  0  0  0  0  0  0  0  0
   39.1040   27.4470   43.1800 H   0  0  0  0  0  0  0  0  0  0  0  0
   36.3150   28.6750   43.7050 H   0  0  0  0  0  0  0  0  0  0  0  0
   37.0740   27.1880   44.5860 H   0  0  0  0  0  0  0  0  0  0  0  0
   36.3670   27.4550   41.5370 H   0  0  0  0  0  0  0  0  0  0  0  0
   37.1900   25.5690   42.2920 C   0  0  0  0  0  3  0  0  0  0  0  0
   36.8420   25.0290   40.9310 C   0  0  0  0  0  2  0  0  0  0  0  0
   37.4530   23.6290   41.0230 C   0  0  0  0  0  2  0  0  0  0  0  0
   38.8590   24.0000   41.4920 C   0  0  0  0  0  2  0  0  0  0  0  0
   38.6030   25.1000   42.5090 C   0  0  0  0  0  2  0  0  0  0  0  0
   37.1100   31.2630   39.2830 C   0  0  0  0  0  0  0  0  0  0  0  0
   36.0730   30.4400   38.9180 F   0  0  0  0  0  0  0  0  0  0  0  0
   37.9810   31.3810   38.1980 F   0  0  0  0  0  0  0  0  0  0  0  0
   36.6840   32.5540   39.5700 F   0  0  0  0  0  0  0  0  0  0  0  0
  1  2  1  0  0  0  0
  1  9  1  0  0  0  0
  2  7  1  0  0  0  0
  3  8  1  0  0  0  0
  3  2  2  0  0  0  0
  4  3  1  0  0  0  0
  5  4  2  0  0  0  0
  5  6  1  0  0  0  0
  6  1  2  0  0  0  0
  9 12  1  1  0  0  0
  9 10  1  0  0  0  0
 10 13  1  0  0  0  0
 10 14  1  0  0  0  0
 11 15  1  6  0  0  0
 11  9  1  0  0  0  0
 11 10  1  0  0  0  0
 16 11  1  0  0  0  0
 16 20  1  0  0  0  0
 17 18  1  0  0  0  0
 17 16  1  0  0  0  0
 18 19  1  0  0  0  0
 19 20  1  0  0  0  0
 21 24  1  0  0  0  0
 21  5  1  0  0  0  0
 22 21  1  0  0  0  0
 23 21  1  0  0  0  0
M  END
>  <minimizedAffinity>
-5.28718901

$$$$

 OpenBabel03252505403D

 24 26  0  0  1  0  0  0  0  0999 V2000
   37.6900   29.4240   41.5470 C   0  0  0  0  0  0  0  0  0  0  0  0
   36.4240   29.5810   40.9230 C   0  0  0  0  0  0  0  0  0  0  0  0
   36.1690   30.7690   40.2500 C   0  0  0  0  0  0  0  0  0  0  0  0
   37.1420   31.7210   40.2220 N   0  0  0  0  0  0  0  0  0  0  0  0
   38.3380   31.5330   40.8310 C   0  0  0  0  0  0  0  0  0  0  0  0
   38.6000   30.3770   41.4900 N   0  0  0  0  0  0  0  0  0  0  0  0
   35.7080   28.7950   40.9850 H   0  0  0  0  0  0  0  0  0  0  0  0
   35.2220   30.9430   39.7580 H   0  0  0  0  0  0  0  0  0  0  0  0
   38.0010   28.1730   42.2830 C   0  0  1  0  0  0  0  0  0  0  0  0
   37.3440   28.0970   43.6800 C   0  0  0  0  0  0  0  0  0  0  0  0
   36.9640   27.1770   42.5680 C   0  0  2  0  0  0  0  0  0  0  0  0
   39.0990   27.9950   42.3260 H   0  0  0  0  0  0  0  0  0  0  0  0
   36.6080   28.8730   43.9330 H   0  0  0  0  0  0  0  0  0  0  0  0
   37.9320   27.6480   44.4900 H   0  0  0  0  0  0  0  0  0  0  0  0
   35.9790   27.3800   42.0440 H   0  0  0  0  0  0  0  0  0  0  0  0
   37.3830   25.7570   42.4850 C   0  0  0  0  0  3  0  0  0  0  0  0
   36.9940   25.1170   41.1800 C   0  0  0  0  0  2  0  0  0  0  0  0
   37.8200   23.8300   41.2440 C   0  0  0  0  0  2  0  0  0  0  0  0
   39.1900   24.4280   41.5590 C   0  0  0  0  0  2  0  0  0  0  0  0
   38.8660   25.5150   42.5700 C   0  0  0  0  0  2  0  0  0  0  0  0
   39.2680   32.7010   40.6950 C   0  0  0  0  0  0  0  0  0  0  0  0
   40.5210   32.4170   41.1780 F   0  0  0  0  0  0  0  0  0  0  0  0
   38.7580   33.7900   41.4070 F   0  0  0  0  0  0  0  0  0  0  0  0
   39.2920   33.0960   39.3630 F   0  0  0  0  0  0  0  0  0  0  0  0
  1  9  1  0  0  0  0
  2  7  1  0  0  0  0
  2  1  2  0  0  0  0
  3  2  1  0  0  0  0
  4  3  2  0  0  0  0
  4  5  1  0  0  0  0
  5  6  2  0  0  0  0
  6  1  1  0  0  0  0
  8  3  1  0  0  0  0
  9 12  1  6  0  0  0
  9 11  1  0  0  0  0
  9 10  1  0  0  0  0
 10 13  1  0  0  0  0
 10 14  1  0  0  0  0
 11 15  1  6  0  0  0
 11 10  1  0  0  0  0
 16 11  1  0  0  0  0
 16 20  1  0  0  0  0
 17 18  1  0  0  0  0
 17 16  1  0  0  0  0
 18 19  1  0  0  0  0
 19 20  1  0  0  0  0
 21  5  1  0  0  0  0
 21 22  1  0  0  0  0
 21 23  1  0  0  0  0
 24 21  1  0  0  0  0
M  END
>  <minimizedAffinity>
-5.19060183

$$$$

 OpenBabel03252505403D

 24 26  0  0  1  0  0  0  0  0999 V2000
   37.5780   28.1290   39.2180 C   0  0  0  0  0  0  0  0  0  0  0  0
   37.9180   26.9600   38.4880 C   0  0  0  0  0  0  0  0  0  0  0  0
   37.9170   25.7440   39.1610 C   0  0  0  0  0  0  0  0  0  0  0  0
   37.5900   25.7360   40.4830 N   0  0  0  0  0  0  0  0  0  0  0  0
   37.2720   26.8750   41.1440 C   0  0  0  0  0  0  0  0  0  0  0  0
   37.2690   28.0670   40.4980 N   0  0  0  0  0  0  0  0  0  0  0  0
   38.1650   27.0390   37.4540 H   0  0  0  0  0  0  0  0  0  0  0  0
   38.1680   24.8220   38.6560 H   0  0  0  0  0  0  0  0  0  0  0  0
   37.5760   29.4490   38.5380 C   0  0  1  0  0  0  0  0  0  0  0  0
   36.2470   29.7740   37.8210 C   0  0  0  0  0  0  0  0  0  0  0  0
   36.7240   30.5470   39.0040 C   0  0  2  0  0  0  0  0  0  0  0  0
   38.4540   29.5530   37.8620 H   0  0  0  0  0  0  0  0  0  0  0  0
   35.4000   29.0980   38.0000 H   0  0  0  0  0  0  0  0  0  0  0  0
   36.3080   30.2940   36.8560 H   0  0  0  0  0  0  0  0  0  0  0  0
   36.2140   30.3390   39.9960 H   0  0  0  0  0  0  0  0  0  0  0  0
   37.3120   31.9070   38.9280 C   0  0  0  0  0  3  0  0  0  0  0  0
   37.3540   32.5920   40.2660 C   0  0  0  0  0  2  0  0  0  0  0  0
   38.2770   33.7700   39.9460 C   0  0  0  0  0  2  0  0  0  0  0  0
   39.4390   33.0110   39.3080 C   0  0  0  0  0  2  0  0  0  0  0  0
   38.7390   31.9670   38.4530 C   0  0  0  0  0  2  0  0  0  0  0  0
   36.9540   26.6560   42.5920 C   0  0  0  0  0  0  0  0  0  0  0  0
   36.0590   27.5840   43.0670 F   0  0  0  0  0  0  0  0  0  0  0  0
   38.1260   26.7490   43.3480 F   0  0  0  0  0  0  0  0  0  0  0  0
   36.5010   25.3530   42.7550 F   0  0  0  0  0  0  0  0  0  0  0  0
  1  6  1  0  0  0  0
  2  3  1  0  0  0  0
  2  1  2  0  0  0  0
  3  4  2  0  0  0  0
  4  5  1  0  0  0  0
  5 21  1  0  0  0  0
  6  5  2  0  0  0  0
  7  2  1  0  0  0  0
  8  3  1  0  0  0  0
  9 12  1  6  0  0  0
  9 11  1  0  0  0  0
  9  1  1  0  0  0  0
 10 13  1  0  0  0  0
 10  9  1  0  0  0  0
 10 11  1  0  0  0  0
 11 15  1  1  0  0  0
 14 10  1  0  0  0  0
 16 11  1  0  0  0  0
 16 17  1  0  0  0  0
 18 17  1  0  0  0  0
 19 18  1  0  0  0  0
 20 16  1  0  0  0  0
 20 19  1  0  0  0  0
 21 24  1  0  0  0  0
 21 22  1  0  0  0  0
 21 23  1  0  0  0  0
M  END
>  <minimizedAffinity>
-4.72222567

$$$$

 OpenBabel03252505403D

 24 26  0  0  1  0  0  0  0  0999 V2000
   37.5740   29.5270   39.8620 C   0  0  0  0  0  0  0  0  0  0  0  0
   37.0770   29.4470   38.5340 C   0  0  0  0  0  0  0  0  0  0  0  0
   37.0330   30.6140   37.7810 C   0  0  0  0  0  0  0  0  0  0  0  0
   37.4660   31.7710   38.3510 N   0  0  0  0  0  0  0  0  0  0  0  0
   37.9330   31.8060   39.6230 C   0  0  0  0  0  0  0  0  0  0  0  0
   37.9820   30.6740   40.3690 N   0  0  0  0  0  0  0  0  0  0  0  0
   36.7530   28.5070   38.1500 H   0  0  0  0  0  0  0  0  0  0  0  0
   36.6640   30.6120   36.7640 H   0  0  0  0  0  0  0  0  0  0  0  0
   37.6300   28.3050   40.7040 C   0  0  1  0  0  0  0  0  0  0  0  0
   36.4680   28.1960   41.7160 C   0  0  0  0  0  0  0  0  0  0  0  0
   36.6270   27.2440   40.5790 C   0  0  2  0  0  0  0  0  0  0  0  0
   38.6250   28.2020   41.1940 H   0  0  0  0  0  0  0  0  0  0  0  0
   35.6490   28.9230   41.6220 H   0  0  0  0  0  0  0  0  0  0  0  0
   36.7010   27.7940   42.7100 H   0  0  0  0  0  0  0  0  0  0  0  0
   35.9310   27.3760   39.6930 H   0  0  0  0  0  0  0  0  0  0  0  0
   37.1260   25.8540   40.7210 C   0  0  0  0  0  3  0  0  0  0  0  0
   38.5820   25.7260   40.3640 C   0  0  0  0  0  2  0  0  0  0  0  0
   38.8800   24.3280   40.9130 C   0  0  0  0  0  2  0  0  0  0  0  0
   38.3300   24.4920   42.3280 C   0  0  0  0  0  2  0  0  0  0  0  0
   37.0490   25.2800   42.1100 C   0  0  0  0  0  2  0  0  0  0  0  0
   38.3500   33.1740   40.0690 C   0  0  0  0  0  0  0  0  0  0  0  0
   38.6420   33.2090   41.4110 F   0  0  0  0  0  0  0  0  0  0  0  0
   37.3180   34.0830   39.8200 F   0  0  0  0  0  0  0  0  0  0  0  0
   39.4190   33.5900   39.2850 F   0  0  0  0  0  0  0  0  0  0  0  0
  1  6  1  0  0  0  0
  1  9  1  0  0  0  0
  2  1  2  0  0  0  0
  3  4  2  0  0  0  0
  3  2  1  0  0  0  0
  4  5  1  0  0  0  0
  5 21  1  0  0  0  0
  5  6  2  0  0  0  0
  7  2  1  0  0  0  0
  8  3  1  0  0  0  0
  9 12  1  1  0  0  0
  9 10  1  0  0  0  0
 10 14  1  0  0  0  0
 11 15  1  6  0  0  0
 11  9  1  0  0  0  0
 11 16  1  0  0  0  0
 11 10  1  0  0  0  0
 13 10  1  0  0  0  0
 16 20  1  0  0  0  0
 17 16  1  0  0  0  0
 17 18  1  0  0  0  0
 18 19  1  0  0  0  0
 20 19  1  0  0  0  0
 21 22  1  0  0  0  0
 23 21  1  0  0  0  0
 24 21  1  0  0  0  0
M  END
>  <minimizedAffinity>
-4.70923996

$$$$

 OpenBabel03252505403D

 24 26  0  0  1  0  0  0  0  0999 V2000
   36.0860   29.4050   39.8060 C   0  0  0  0  0  0  0  0  0  0  0  0
   36.6510   30.6450   40.2000 C   0  0  0  0  0  0  0  0  0  0  0  0
   37.2630   30.7190   41.4460 C   0  0  0  0  0  0  0  0  0  0  0  0
   37.2910   29.6010   42.2220 N   0  0  0  0  0  0  0  0  0  0  0  0
   36.7380   28.4350   41.8090 C   0  0  0  0  0  0  0  0  0  0  0  0
   36.1390   28.3490   40.5960 N   0  0  0  0  0  0  0  0  0  0  0  0
   36.5940   31.4820   39.5430 H   0  0  0  0  0  0  0  0  0  0  0  0
   37.7110   31.6380   41.7980 H   0  0  0  0  0  0  0  0  0  0  0  0
   35.4150   29.2850   38.4870 C   0  0  1  0  0  0  0  0  0  0  0  0
   36.2530   28.5300   37.4320 C   0  0  0  0  0  0  0  0  0  0  0  0
   34.9720   27.9870   37.9700 C   0  0  2  0  0  0  0  0  0  0  0  0
   35.0740   30.2790   38.1190 H   0  0  0  0  0  0  0  0  0  0  0  0
   37.1690   28.0310   37.7790 H   0  0  0  0  0  0  0  0  0  0  0  0
   36.2180   28.9000   36.4000 H   0  0  0  0  0  0  0  0  0  0  0  0
   35.0460   27.1450   38.7270 H   0  0  0  0  0  0  0  0  0  0  0  0
   33.6910   27.9840   37.2230 C   0  0  0  0  0  3  0  0  0  0  0  0
   32.8690   29.2160   37.4850 C   0  0  0  0  0  2  0  0  0  0  0  0
   31.8260   29.0970   36.3710 C   0  0  0  0  0  2  0  0  0  0  0  0
   32.7580   28.8970   35.1770 C   0  0  0  0  0  2  0  0  0  0  0  0
   33.8190   27.9560   35.7230 C   0  0  0  0  0  2  0  0  0  0  0  0
   36.8620   27.3270   42.8110 C   0  0  0  0  0  0  0  0  0  0  0  0
   38.0580   27.3760   43.4850 F   0  0  0  0  0  0  0  0  0  0  0  0
   36.7750   26.0950   42.1590 F   0  0  0  0  0  0  0  0  0  0  0  0
   35.7700   27.3800   43.6680 F   0  0  0  0  0  0  0  0  0  0  0  0
  1  2  2  0  0  0  0
  1  6  1  0  0  0  0
  2  3  1  0  0  0  0
  3  8  1  0  0  0  0
  3  4  2  0  0  0  0
  5  4  1  0  0  0  0
  5 21  1  0  0  0  0
  6  5  2  0  0  0  0
  7  2  1  0  0  0  0
  9 12  1  6  0  0  0
  9  1  1  0  0  0  0
 10 13  1  0  0  0  0
 10 11  1  0  0  0  0
 10  9  1  0  0  0  0
 11  9  1  0  0  0  0
 11 15  1  1  0  0  0
 14 10  1  0  0  0  0
 16 17  1  0  0  0  0
 16 11  1  0  0  0  0
 18 17  1  0  0  0  0
 19 20  1  0  0  0  0
 19 18  1  0  0  0  0
 20 16  1  0  0  0  0
 21 22  1  0  0  0  0
 21 24  1  0  0  0  0
 23 21  1  0  0  0  0
M  END
>  <minimizedAffinity>
-4.69617891

$$$$

 OpenBabel03252505403D

 24 26  0  0  1  0  0  0  0  0999 V2000
   37.4850   29.1700   40.0480 C   0  0  0  0  0  0  0  0  0  0  0  0
   37.1390   28.3570   38.9360 C   0  0  0  0  0  0  0  0  0  0  0  0
   36.7310   27.0510   39.1820 C   0  0  0  0  0  0  0  0  0  0  0  0
   36.6830   26.6190   40.4720 N   0  0  0  0  0  0  0  0  0  0  0  0
   37.0220   27.4260   41.5060 C   0  0  0  0  0  0  0  0  0  0  0  0
   37.4210   28.7030   41.2800 N   0  0  0  0  0  0  0  0  0  0  0  0
   37.2000   28.7600   37.9520 H   0  0  0  0  0  0  0  0  0  0  0  0
   36.4560   26.3870   38.3740 H   0  0  0  0  0  0  0  0  0  0  0  0
   37.9340   30.5680   39.8290 C   0  0  1  0  0  0  0  0  0  0  0  0
   36.7880   31.6030   39.8890 C   0  0  0  0  0  0  0  0  0  0  0  0
   37.8820   31.5640   40.9030 C   0  0  2  0  0  0  0  0  0  0  0  0
   38.5300   30.6560   38.8920 H   0  0  0  0  0  0  0  0  0  0  0  0
   35.8060   31.2470   40.2290 H   0  0  0  0  0  0  0  0  0  0  0  0
   36.8260   32.4390   39.1790 H   0  0  0  0  0  0  0  0  0  0  0  0
   37.6290   31.1270   41.9180 H   0  0  0  0  0  0  0  0  0  0  0  0
   39.0060   32.5300   40.9510 C   0  0  0  0  0  3  0  0  0  0  0  0
   40.3480   31.8590   40.8500 C   0  0  0  0  0  2  0  0  0  0  0  0
   41.2470   33.0710   40.5910 C   0  0  0  0  0  2  0  0  0  0  0  0
   40.4870   33.7010   39.4260 C   0  0  0  0  0  2  0  0  0  0  0  0
   39.0330   33.5450   39.8400 C   0  0  0  0  0  2  0  0  0  0  0  0
   36.9140   26.7610   42.8440 C   0  0  0  0  0  0  0  0  0  0  0  0
   36.0360   27.4160   43.6730 F   0  0  0  0  0  0  0  0  0  0  0  0
   38.1680   26.7410   43.4600 F   0  0  0  0  0  0  0  0  0  0  0  0
   36.5650   25.4300   42.6510 F   0  0  0  0  0  0  0  0  0  0  0  0
  1  6  1  0  0  0  0
  2  3  1  0  0  0  0
  2  1  2  0  0  0  0
  3  4  2  0  0  0  0
  4  5  1  0  0  0  0
  5 21  1  0  0  0  0
  6  5  2  0  0  0  0
  7  2  1  0  0  0  0
  8  3  1  0  0  0  0
  9 12  1  6  0  0  0
  9 10  1  0  0  0  0
  9  1  1  0  0  0  0
  9 11  1  0  0  0  0
 10 13  1  0  0  0  0
 10 11  1  0  0  0  0
 11 16  1  0  0  0  0
 11 15  1  1  0  0  0
 14 10  1  0  0  0  0
 17 16  1  0  0  0  0
 18 17  1  0  0  0  0
 19 20  1  0  0  0  0
 19 18  1  0  0  0  0
 20 16  1  0  0  0  0
 21 23  1  0  0  0  0
 21 22  1  0  0  0  0
 24 21  1  0  0  0  0
M  END
>  <minimizedAffinity>
-4.68777752

$$$$

 OpenBabel03252505403D

 24 26  0  0  1  0  0  0  0  0999 V2000
   36.7840   29.7420   38.7350 C   0  0  0  0  0  0  0  0  0  0  0  0
   37.5500   29.8630   37.5460 C   0  0  0  0  0  0  0  0  0  0  0  0
   36.9140   29.6370   36.3320 C   0  0  0  0  0  0  0  0  0  0  0  0
   35.5920   29.3130   36.3430 N   0  0  0  0  0  0  0  0  0  0  0  0
   34.8950   29.2070   37.5000 C   0  0  0  0  0  0  0  0  0  0  0  0
   35.5040   29.4260   38.6920 N   0  0  0  0  0  0  0  0  0  0  0  0
   38.5820   30.1190   37.6100 H   0  0  0  0  0  0  0  0  0  0  0  0
   37.4480   29.7150   35.3950 H   0  0  0  0  0  0  0  0  0  0  0  0
   37.4270   29.9660   40.0550 C   0  0  1  0  0  0  0  0  0  0  0  0
   37.0600   31.3210   40.7000 C   0  0  0  0  0  0  0  0  0  0  0  0
   36.6400   30.0170   41.2890 C   0  0  2  0  0  0  0  0  0  0  0  0
   38.5290   29.8150   39.9940 H   0  0  0  0  0  0  0  0  0  0  0  0
   36.2650   31.9090   40.2200 H   0  0  0  0  0  0  0  0  0  0  0  0
   37.8530   31.8540   41.2390 H   0  0  0  0  0  0  0  0  0  0  0  0
   35.5550   29.7140   41.1520 H   0  0  0  0  0  0  0  0  0  0  0  0
   37.2650   29.4060   42.4870 C   0  0  0  0  0  3  0  0  0  0  0  0
   37.0230   27.9230   42.5710 C   0  0  0  0  0  2  0  0  0  0  0  0
   38.0260   27.5390   43.6620 C   0  0  0  0  0  2  0  0  0  0  0  0
   39.2810   28.1970   43.0910 C   0  0  0  0  0  2  0  0  0  0  0  0
   38.7640   29.5260   42.5650 C   0  0  0  0  0  2  0  0  0  0  0  0
   33.4580   28.8310   37.3010 C   0  0  0  0  0  0  0  0  0  0  0  0
   32.6730   29.2260   38.3560 F   0  0  0  0  0  0  0  0  0  0  0  0
   33.3510   27.4440   37.1670 F   0  0  0  0  0  0  0  0  0  0  0  0
   33.0240   29.3620   36.0920 F   0  0  0  0  0  0  0  0  0  0  0  0
  1  9  1  0  0  0  0
  2  7  1  0  0  0  0
  2  1  2  0  0  0  0
  3  4  2  0  0  0  0
  3  2  1  0  0  0  0
  4  5  1  0  0  0  0
  5  6  2  0  0  0  0
  6  1  1  0  0  0  0
  8  3  1  0  0  0  0
  9 12  1  1  0  0  0
  9 10  1  0  0  0  0
  9 11  1  0  0  0  0
 10 14  1  0  0  0  0
 10 11  1  0  0  0  0
 11 15  1  6  0  0  0
 11 16  1  0  0  0  0
 13 10  1  0  0  0  0
 16 20  1  0  0  0  0
 16 17  1  0  0  0  0
 17 18  1  0  0  0  0
 19 18  1  0  0  0  0
 20 19  1  0  0  0  0
 21  5  1  0  0  0  0
 21 22  1  0  0  0  0
 23 21  1  0  0  0  0
 24 21  1  0  0  0  0
M  END
>  <minimizedAffinity>
-4.66679907

$$$$

 OpenBabel03252505403D

 24 26  0  0  1  0  0  0  0  0999 V2000
   35.4870   28.9410   38.3830 C   0  0  0  0  0  0  0  0  0  0  0  0
   34.0740   28.8490   38.4750 C   0  0  0  0  0  0  0  0  0  0  0  0
   33.3390   28.8540   37.2960 C   0  0  0  0  0  0  0  0  0  0  0  0
   34.0090   28.9460   36.1140 N   0  0  0  0  0  0  0  0  0  0  0  0
   35.3600   29.0330   36.0690 C   0  0  0  0  0  0  0  0  0  0  0  0
   36.0890   29.0290   37.2120 N   0  0  0  0  0  0  0  0  0  0  0  0
   33.6130   28.7790   39.4340 H   0  0  0  0  0  0  0  0  0  0  0  0
   32.2600   28.7860   37.3060 H   0  0  0  0  0  0  0  0  0  0  0  0
   36.3090   28.9470   39.6190 C   0  0  1  0  0  0  0  0  0  0  0  0
   36.2270   30.2720   40.4110 C   0  0  0  0  0  0  0  0  0  0  0  0
   35.6910   28.9870   40.9470 C   0  0  2  0  0  0  0  0  0  0  0  0
   37.3610   28.6520   39.4020 H   0  0  0  0  0  0  0  0  0  0  0  0
   35.4770   31.0060   40.0860 H   0  0  0  0  0  0  0  0  0  0  0  0
   37.1490   30.6370   40.8800 H   0  0  0  0  0  0  0  0  0  0  0  0
   34.5650   28.8500   40.9310 H   0  0  0  0  0  0  0  0  0  0  0  0
   36.3570   28.1840   42.0010 C   0  0  0  0  0  3  0  0  0  0  0  0
   37.0680   26.9800   41.4450 C   0  0  0  0  0  2  0  0  0  0  0  0
   37.9030   26.5650   42.6590 C   0  0  0  0  0  2  0  0  0  0  0  0
   38.5600   27.9060   42.9800 C   0  0  0  0  0  2  0  0  0  0  0  0
   37.4290   28.9000   42.7780 C   0  0  0  0  0  2  0  0  0  0  0  0
   35.9050   29.1390   34.6760 C   0  0  0  0  0  0  0  0  0  0  0  0
   37.2560   28.8950   34.6350 F   0  0  0  0  0  0  0  0  0  0  0  0
   35.6750   30.4250   34.1800 F   0  0  0  0  0  0  0  0  0  0  0  0
   35.1880   28.2810   33.8530 F   0  0  0  0  0  0  0  0  0  0  0  0
  1  2  1  0  0  0  0
  1  9  1  0  0  0  0
  2  7  1  0  0  0  0
  3  8  1  0  0  0  0
  3  2  2  0  0  0  0
  4  3  1  0  0  0  0
  5  4  2  0  0  0  0
  5  6  1  0  0  0  0
  6  1  2  0  0  0  0
  9 12  1  6  0  0  0
  9 10  1  0  0  0  0
  9 11  1  0  0  0  0
 10 14  1  0  0  0  0
 10 11  1  0  0  0  0
 11 15  1  6  0  0  0
 11 16  1  0  0  0  0
 13 10  1  0  0  0  0
 16 20  1  0  0  0  0
 17 16  1  0  0  0  0
 17 18  1  0  0  0  0
 18 19  1  0  0  0  0
 20 19  1  0  0  0  0
 21  5  1  0  0  0  0
 22 21  1  0  0  0  0
 23 21  1  0  0  0  0
 24 21  1  0  0  0  0
M  END
>  <minimizedAffinity>
-4.64554977

$$$$
