
 OpenBabel03242512393D

 30 33  0  0  1  0  0  0  0  0999 V2000
   35.4700   29.8760   38.9810 C   0  0  0  0  0  0  0  0  0  0  0  0
   36.6090   30.6630   38.7620 C   0  0  0  0  0  0  0  0  0  0  0  0
   37.2150   30.5980   37.5350 C   0  0  0  0  0  0  0  0  0  0  0  0
   36.7750   29.7960   36.4840 C   0  0  0  0  0  0  0  0  0  0  0  0
   37.2050   29.5890   35.2350 N   0  0  0  0  0  0  0  0  0  0  0  0
   36.4030   28.7080   34.6330 C   0  0  0  0  0  0  0  0  0  0  0  0
   35.4240   28.3420   35.5380 C   0  0  0  0  0  0  0  0  0  0  0  0
   35.6540   29.0320   36.7220 C   0  0  0  0  0  0  0  0  0  0  0  0
   35.0180   29.0700   37.9370 C   0  0  0  0  0  0  0  0  0  0  0  0
   35.0030   29.9300   39.9340 H   0  0  0  0  0  0  0  0  0  0  0  0
   38.1160   31.1770   37.2670 H   0  0  0  0  0  0  0  0  0  0  0  0
   38.0500   30.0410   34.7730 H   0  0  0  0  0  0  0  0  0  0  0  0
   36.4630   28.3180   33.6230 H   0  0  0  0  0  0  0  0  0  0  0  0
   34.6090   27.6330   35.3550 H   0  0  0  0  0  0  0  0  0  0  0  0
   34.1470   28.4550   38.0800 H   0  0  0  0  0  0  0  0  0  0  0  0
   37.1640   31.5580   39.7840 C   0  0  0  0  0  0  0  0  0  0  0  0
   36.8780   32.7740   39.5760 O   0  0  0  0  0  0  0  0  0  0  0  0
   37.9390   31.0400   40.8720 C   0  0  0  0  0  0  0  0  0  0  0  0
   39.1380   31.7170   41.1420 C   0  0  0  0  0  0  0  0  0  0  0  0
   39.9020   31.2160   42.2040 C   0  0  0  0  0  0  0  0  0  0  0  0
   39.4360   30.1190   42.8950 N   0  0  0  0  0  0  0  0  0  0  0  0
   38.2760   29.5220   42.5770 C   0  0  0  0  0  0  0  0  0  0  0  0
   37.5250   29.9900   41.5570 N   0  0  0  0  0  0  0  0  0  0  0  0
   39.4620   32.5670   40.5780 H   0  0  0  0  0  0  0  0  0  0  0  0
   40.8300   31.7060   42.4450 H   0  0  0  0  0  0  0  0  0  0  0  0
   37.9050   28.3500   43.4130 C   0  0  2  0  0  3  0  0  0  0  0  0
   38.9880   27.3160   43.5080 C   0  0  0  0  0  2  0  0  0  0  0  0
   38.5260   26.0830   42.7650 C   0  0  0  0  0  3  0  0  0  0  0  0
   37.0920   26.2830   42.4060 C   0  0  0  0  0  3  0  0  0  0  0  0
   36.6880   27.6620   42.8400 C   0  0  0  0  0  2  0  0  0  0  0  0
  1 10  1  0  0  0  0
  2  1  1  0  0  0  0
  2 16  1  0  0  0  0
  3  2  2  0  0  0  0
  4  8  2  0  0  0  0
  4  3  1  0  0  0  0
  5  4  1  0  0  0  0
  6  5  1  0  0  0  0
  6  7  2  0  0  0  0
  7  8  1  0  0  0  0
  8  9  1  0  0  0  0
  9 15  1  0  0  0  0
  9  1  2  0  0  0  0
 11  3  1  0  0  0  0
 12  5  1  0  0  0  0
 13  6  1  0  0  0  0
 14  7  1  0  0  0  0
 16 18  1  0  0  0  0
 17 16  2  0  0  0  0
 18 19  2  0  0  0  0
 18 23  1  0  0  0  0
 19 20  1  0  0  0  0
 20 25  1  0  0  0  0
 20 21  2  0  0  0  0
 22 21  1  0  0  0  0
 23 22  2  0  0  0  0
 24 19  1  0  0  0  0
 26 22  1  6  0  0  0
 26 27  1  0  0  0  0
 28 27  1  0  0  0  0
 29 28  2  0  0  0  0
 29 30  1  0  0  0  0
 30 26  1  0  0  0  0
M  END
>  <minimizedAffinity>
-6.19189167

$$$$

 OpenBabel03242512393D

 30 33  0  0  1  0  0  0  0  0999 V2000
   34.6150   29.0410   39.1310 C   0  0  0  0  0  0  0  0  0  0  0  0
   35.8760   29.5640   39.4490 C   0  0  0  0  0  0  0  0  0  0  0  0
   36.7320   29.8620   38.4230 C   0  0  0  0  0  0  0  0  0  0  0  0
   36.4320   29.6790   37.0740 C   0  0  0  0  0  0  0  0  0  0  0  0
   37.1030   29.9020   35.9380 N   0  0  0  0  0  0  0  0  0  0  0  0
   36.3410   29.5510   34.9000 C   0  0  0  0  0  0  0  0  0  0  0  0
   35.1370   29.0870   35.3980 C   0  0  0  0  0  0  0  0  0  0  0  0
   35.1870   29.1650   36.7850 C   0  0  0  0  0  0  0  0  0  0  0  0
   34.3020   28.8540   37.7860 C   0  0  0  0  0  0  0  0  0  0  0  0
   33.9550   28.8110   39.9320 H   0  0  0  0  0  0  0  0  0  0  0  0
   37.7450   30.2760   38.5700 H   0  0  0  0  0  0  0  0  0  0  0  0
   38.0880   30.2940   35.8510 H   0  0  0  0  0  0  0  0  0  0  0  0
   36.5730   29.6000   33.8420 H   0  0  0  0  0  0  0  0  0  0  0  0
   34.2910   28.7210   34.8060 H   0  0  0  0  0  0  0  0  0  0  0  0
   33.3420   28.4540   37.5150 H   0  0  0  0  0  0  0  0  0  0  0  0
   36.3070   29.8150   40.8300 C   0  0  0  0  0  0  0  0  0  0  0  0
   36.0860   31.0050   41.2020 O   0  0  0  0  0  0  0  0  0  0  0  0
   36.9070   28.7750   41.6130 C   0  0  0  0  0  0  0  0  0  0  0  0
   37.7650   29.2030   42.6370 C   0  0  0  0  0  0  0  0  0  0  0  0
   38.3550   28.1920   43.4070 C   0  0  0  0  0  0  0  0  0  0  0  0
   38.0610   26.8790   43.1140 N   0  0  0  0  0  0  0  0  0  0  0  0
   37.2280   26.5460   42.1150 C   0  0  0  0  0  0  0  0  0  0  0  0
   36.6480   27.5050   41.3610 N   0  0  0  0  0  0  0  0  0  0  0  0
   37.9650   30.2370   42.8300 H   0  0  0  0  0  0  0  0  0  0  0  0
   39.0210   28.4770   44.2040 H   0  0  0  0  0  0  0  0  0  0  0  0
   37.0080   25.0890   41.9190 C   0  0  2  0  0  3  0  0  0  0  0  0
   38.2050   24.2510   42.2610 C   0  0  0  0  0  2  0  0  0  0  0  0
   38.7450   23.6580   40.9800 C   0  0  0  0  0  3  0  0  0  0  0  0
   37.7630   23.9540   39.8970 C   0  0  0  0  0  3  0  0  0  0  0  0
   36.6660   24.8000   40.4760 C   0  0  0  0  0  2  0  0  0  0  0  0
  1  2  1  0  0  0  0
  1 10  1  0  0  0  0
  2 16  1  0  0  0  0
  3 11  1  0  0  0  0
  3  2  2  0  0  0  0
  4  3  1  0  0  0  0
  5  4  1  0  0  0  0
  6  7  2  0  0  0  0
  6  5  1  0  0  0  0
  7  8  1  0  0  0  0
  8  4  2  0  0  0  0
  8  9  1  0  0  0  0
  9  1  2  0  0  0  0
 12  5  1  0  0  0  0
 13  6  1  0  0  0  0
 14  7  1  0  0  0  0
 15  9  1  0  0  0  0
 16 17  2  0  0  0  0
 16 18  1  0  0  0  0
 18 19  1  0  0  0  0
 19 24  1  0  0  0  0
 19 20  2  0  0  0  0
 20 25  1  0  0  0  0
 21 20  1  0  0  0  0
 22 21  2  0  0  0  0
 23 18  2  0  0  0  0
 23 22  1  0  0  0  0
 26 22  1  6  0  0  0
 26 27  1  0  0  0  0
 28 27  1  0  0  0  0
 29 30  1  0  0  0  0
 29 28  2  0  0  0  0
 30 26  1  0  0  0  0
M  END
>  <minimizedAffinity>
-6.18451977

$$$$

 OpenBabel03242512393D

 30 33  0  0  1  0  0  0  0  0999 V2000
   38.5190   30.1030   38.0940 C   0  0  0  0  0  0  0  0  0  0  0  0
   37.1890   30.0800   38.5360 C   0  0  0  0  0  0  0  0  0  0  0  0
   36.7240   31.1520   39.2500 C   0  0  0  0  0  0  0  0  0  0  0  0
   37.4900   32.2730   39.5700 C   0  0  0  0  0  0  0  0  0  0  0  0
   37.2400   33.4050   40.2370 N   0  0  0  0  0  0  0  0  0  0  0  0
   38.3400   34.1610   40.2490 C   0  0  0  0  0  0  0  0  0  0  0  0
   39.3270   33.4800   39.5610 C   0  0  0  0  0  0  0  0  0  0  0  0
   38.7930   32.2740   39.1240 C   0  0  0  0  0  0  0  0  0  0  0  0
   39.2950   31.2180   38.4060 C   0  0  0  0  0  0  0  0  0  0  0  0
   38.8740   29.2690   37.5400 H   0  0  0  0  0  0  0  0  0  0  0  0
   35.6950   31.2270   39.6420 H   0  0  0  0  0  0  0  0  0  0  0  0
   36.3200   33.6800   40.6950 H   0  0  0  0  0  0  0  0  0  0  0  0
   38.4860   35.1360   40.7000 H   0  0  0  0  0  0  0  0  0  0  0  0
   40.3510   33.8290   39.3890 H   0  0  0  0  0  0  0  0  0  0  0  0
   40.3190   31.2610   38.0790 H   0  0  0  0  0  0  0  0  0  0  0  0
   36.2780   28.9640   38.2540 C   0  0  0  0  0  0  0  0  0  0  0  0
   35.4140   29.2490   37.3730 O   0  0  0  0  0  0  0  0  0  0  0  0
   36.4110   27.7150   38.9430 C   0  0  0  0  0  0  0  0  0  0  0  0
   36.2130   26.5660   38.1630 C   0  0  0  0  0  0  0  0  0  0  0  0
   36.3420   25.3400   38.8290 C   0  0  0  0  0  0  0  0  0  0  0  0
   36.6450   25.3460   40.1730 N   0  0  0  0  0  0  0  0  0  0  0  0
   36.8200   26.4890   40.8550 C   0  0  0  0  0  0  0  0  0  0  0  0
   36.7010   27.6810   40.2300 N   0  0  0  0  0  0  0  0  0  0  0  0
   35.9780   26.6080   37.1190 H   0  0  0  0  0  0  0  0  0  0  0  0
   36.1980   24.4330   38.2670 H   0  0  0  0  0  0  0  0  0  0  0  0
   37.1430   26.3350   42.2980 C   0  0  2  0  0  3  0  0  0  0  0  0
   36.5760   27.4250   43.1580 C   0  0  0  0  0  2  0  0  0  0  0  0
   37.7260   28.2570   43.6800 C   0  0  0  0  0  3  0  0  0  0  0  0
   38.9910   27.5540   43.3190 C   0  0  0  0  0  3  0  0  0  0  0  0
   38.6390   26.3440   42.5040 C   0  0  0  0  0  2  0  0  0  0  0  0
  1  9  2  0  0  0  0
  1  2  1  0  0  0  0
  2  3  2  0  0  0  0
  3  4  1  0  0  0  0
  3 11  1  0  0  0  0
  4  5  1  0  0  0  0
  5  6  1  0  0  0  0
  5 12  1  0  0  0  0
  6 13  1  0  0  0  0
  7  6  2  0  0  0  0
  8  7  1  0  0  0  0
  8  4  2  0  0  0  0
  9  8  1  0  0  0  0
 10  1  1  0  0  0  0
 14  7  1  0  0  0  0
 15  9  1  0  0  0  0
 16  2  1  0  0  0  0
 16 18  1  0  0  0  0
 17 16  2  0  0  0  0
 18 23  1  0  0  0  0
 19 20  1  0  0  0  0
 19 18  2  0  0  0  0
 20 21  2  0  0  0  0
 21 22  1  0  0  0  0
 23 22  2  0  0  0  0
 24 19  1  0  0  0  0
 25 20  1  0  0  0  0
 26 22  1  6  0  0  0
 26 30  1  0  0  0  0
 26 27  1  0  0  0  0
 27 28  1  0  0  0  0
 29 28  2  0  0  0  0
 30 29  1  0  0  0  0
M  END
>  <minimizedAffinity>
-6.13077974

$$$$

 OpenBabel03242512393D

 30 33  0  0  1  0  0  0  0  0999 V2000
   36.6820   29.6900   38.4380 C   0  0  0  0  0  0  0  0  0  0  0  0
   35.8410   29.5570   39.5510 C   0  0  0  0  0  0  0  0  0  0  0  0
   34.5410   29.1810   39.3400 C   0  0  0  0  0  0  0  0  0  0  0  0
   33.9940   28.9190   38.0850 C   0  0  0  0  0  0  0  0  0  0  0  0
   32.7810   28.5440   37.6640 N   0  0  0  0  0  0  0  0  0  0  0  0
   32.7940   28.4260   36.3350 C   0  0  0  0  0  0  0  0  0  0  0  0
   34.0670   28.7390   35.8950 C   0  0  0  0  0  0  0  0  0  0  0  0
   34.8390   29.0550   37.0060 C   0  0  0  0  0  0  0  0  0  0  0  0
   36.1480   29.4300   37.1770 C   0  0  0  0  0  0  0  0  0  0  0  0
   37.6900   29.9820   38.6070 H   0  0  0  0  0  0  0  0  0  0  0  0
   33.8020   29.0510   40.1500 H   0  0  0  0  0  0  0  0  0  0  0  0
   31.9280   28.3650   38.2720 H   0  0  0  0  0  0  0  0  0  0  0  0
   31.9830   28.1410   35.6730 H   0  0  0  0  0  0  0  0  0  0  0  0
   34.4090   28.7380   34.8540 H   0  0  0  0  0  0  0  0  0  0  0  0
   36.7720   29.5250   36.3060 H   0  0  0  0  0  0  0  0  0  0  0  0
   36.3000   29.7920   40.9260 C   0  0  0  0  0  0  0  0  0  0  0  0
   36.0420   30.9630   41.3330 O   0  0  0  0  0  0  0  0  0  0  0  0
   36.9620   28.7600   41.6650 C   0  0  0  0  0  0  0  0  0  0  0  0
   37.9230   29.1950   42.5900 C   0  0  0  0  0  0  0  0  0  0  0  0
   38.5760   28.1910   43.3180 C   0  0  0  0  0  0  0  0  0  0  0  0
   38.2390   26.8770   43.0820 N   0  0  0  0  0  0  0  0  0  0  0  0
   37.3060   26.5370   42.1780 C   0  0  0  0  0  0  0  0  0  0  0  0
   36.6650   27.4890   41.4670 N   0  0  0  0  0  0  0  0  0  0  0  0
   38.1540   30.2290   42.7420 H   0  0  0  0  0  0  0  0  0  0  0  0
   39.3210   28.4820   44.0390 H   0  0  0  0  0  0  0  0  0  0  0  0
   37.0510   25.0790   42.0350 C   0  0  2  0  0  3  0  0  0  0  0  0
   38.2570   24.2290   42.3070 C   0  0  0  0  0  2  0  0  0  0  0  0
   38.6910   23.5990   41.0040 C   0  0  0  0  0  3  0  0  0  0  0  0
   37.6350   23.8860   39.9900 C   0  0  0  0  0  3  0  0  0  0  0  0
   36.5980   24.7620   40.6290 C   0  0  0  0  0  2  0  0  0  0  0  0
  1 10  1  0  0  0  0
  1  2  1  0  0  0  0
  2 16  1  0  0  0  0
  3  2  2  0  0  0  0
  3 11  1  0  0  0  0
  4  3  1  0  0  0  0
  5  4  1  0  0  0  0
  5 12  1  0  0  0  0
  6  5  1  0  0  0  0
  7  6  2  0  0  0  0
  7  8  1  0  0  0  0
  8  9  1  0  0  0  0
  8  4  2  0  0  0  0
  9  1  2  0  0  0  0
 13  6  1  0  0  0  0
 14  7  1  0  0  0  0
 15  9  1  0  0  0  0
 16 17  2  0  0  0  0
 16 18  1  0  0  0  0
 18 19  1  0  0  0  0
 19 24  1  0  0  0  0
 19 20  2  0  0  0  0
 20 25  1  0  0  0  0
 21 20  1  0  0  0  0
 22 21  2  0  0  0  0
 23 18  2  0  0  0  0
 23 22  1  0  0  0  0
 26 22  1  6  0  0  0
 26 27  1  0  0  0  0
 28 27  1  0  0  0  0
 29 30  1  0  0  0  0
 29 28  2  0  0  0  0
 30 26  1  0  0  0  0
M  END
>  <minimizedAffinity>
-6.05153608

$$$$

 OpenBabel03242512393D

 30 33  0  0  1  0  0  0  0  0999 V2000
   37.0130   29.0740   37.5470 C   0  0  0  0  0  0  0  0  0  0  0  0
   36.5380   28.6100   38.7810 C   0  0  0  0  0  0  0  0  0  0  0  0
   36.3960   29.5130   39.8010 C   0  0  0  0  0  0  0  0  0  0  0  0
   36.6950   30.8700   39.6950 C   0  0  0  0  0  0  0  0  0  0  0  0
   36.6280   31.9020   40.5440 N   0  0  0  0  0  0  0  0  0  0  0  0
   37.0350   33.0100   39.9220 C   0  0  0  0  0  0  0  0  0  0  0  0
   37.3730   32.6680   38.6260 C   0  0  0  0  0  0  0  0  0  0  0  0
   37.1590   31.3030   38.4730 C   0  0  0  0  0  0  0  0  0  0  0  0
   37.3150   30.4290   37.4260 C   0  0  0  0  0  0  0  0  0  0  0  0
   37.1210   28.3690   36.7580 H   0  0  0  0  0  0  0  0  0  0  0  0
   36.0320   29.2460   40.8080 H   0  0  0  0  0  0  0  0  0  0  0  0
   36.3060   31.8680   41.5570 H   0  0  0  0  0  0  0  0  0  0  0  0
   37.1050   34.0190   40.3140 H   0  0  0  0  0  0  0  0  0  0  0  0
   37.7440   33.3500   37.8540 H   0  0  0  0  0  0  0  0  0  0  0  0
   37.6810   30.8110   36.4900 H   0  0  0  0  0  0  0  0  0  0  0  0
   36.1770   27.2070   39.0170 C   0  0  0  0  0  0  0  0  0  0  0  0
   35.3740   26.7560   38.1470 O   0  0  0  0  0  0  0  0  0  0  0  0
   36.7140   26.4880   40.1330 C   0  0  0  0  0  0  0  0  0  0  0  0
   36.5230   25.0980   40.1100 C   0  0  0  0  0  0  0  0  0  0  0  0
   37.0460   24.3870   41.1990 C   0  0  0  0  0  0  0  0  0  0  0  0
   37.6940   25.0840   42.1950 N   0  0  0  0  0  0  0  0  0  0  0  0
   37.8380   26.4180   42.1470 C   0  0  0  0  0  0  0  0  0  0  0  0
   37.3420   27.1210   41.1060 N   0  0  0  0  0  0  0  0  0  0  0  0
   36.0120   24.5970   39.3150 H   0  0  0  0  0  0  0  0  0  0  0  0
   36.9220   23.3180   41.2210 H   0  0  0  0  0  0  0  0  0  0  0  0
   38.5600   27.0290   43.2940 C   0  0  2  0  0  3  0  0  0  0  0  0
   39.0840   28.4050   43.0080 C   0  0  0  0  0  2  0  0  0  0  0  0
   40.5930   28.3320   42.9640 C   0  0  0  0  0  3  0  0  0  0  0  0
   40.9940   26.9740   43.4320 C   0  0  0  0  0  3  0  0  0  0  0  0
   39.7470   26.1770   43.6800 C   0  0  0  0  0  2  0  0  0  0  0  0
  1  2  1  0  0  0  0
  2 16  1  0  0  0  0
  2  3  2  0  0  0  0
  3 11  1  0  0  0  0
  4  3  1  0  0  0  0
  4  5  1  0  0  0  0
  5 12  1  0  0  0  0
  6 13  1  0  0  0  0
  6  5  1  0  0  0  0
  7  6  2  0  0  0  0
  8  7  1  0  0  0  0
  8  4  2  0  0  0  0
  9  1  2  0  0  0  0
  9  8  1  0  0  0  0
 10  1  1  0  0  0  0
 14  7  1  0  0  0  0
 15  9  1  0  0  0  0
 16 18  1  0  0  0  0
 17 16  2  0  0  0  0
 18 23  1  0  0  0  0
 19 18  2  0  0  0  0
 19 20  1  0  0  0  0
 20 25  1  0  0  0  0
 20 21  2  0  0  0  0
 22 21  1  0  0  0  0
 23 22  2  0  0  0  0
 24 19  1  0  0  0  0
 26 22  1  6  0  0  0
 26 30  1  0  0  0  0
 27 26  1  0  0  0  0
 28 27  1  0  0  0  0
 28 29  2  0  0  0  0
 29 30  1  0  0  0  0
M  END
>  <minimizedAffinity>
-5.83136606

$$$$

 OpenBabel03242512393D

 30 33  0  0  1  0  0  0  0  0999 V2000
   35.0280   29.0440   35.8270 C   0  0  0  0  0  0  0  0  0  0  0  0
   35.0380   28.8170   37.2100 C   0  0  0  0  0  0  0  0  0  0  0  0
   33.8490   28.8810   37.8860 C   0  0  0  0  0  0  0  0  0  0  0  0
   32.6210   29.1590   37.2880 C   0  0  0  0  0  0  0  0  0  0  0  0
   31.3700   29.2640   37.7500 N   0  0  0  0  0  0  0  0  0  0  0  0
   30.5490   29.5460   36.7360 C   0  0  0  0  0  0  0  0  0  0  0  0
   31.3110   29.6240   35.5850 C   0  0  0  0  0  0  0  0  0  0  0  0
   32.6350   29.3780   35.9290 C   0  0  0  0  0  0  0  0  0  0  0  0
   33.8060   29.3230   35.2160 C   0  0  0  0  0  0  0  0  0  0  0  0
   35.9530   28.9940   35.3070 H   0  0  0  0  0  0  0  0  0  0  0  0
   33.7540   28.7180   38.9740 H   0  0  0  0  0  0  0  0  0  0  0  0
   31.0550   29.1460   38.7590 H   0  0  0  0  0  0  0  0  0  0  0  0
   29.4750   29.6970   36.7560 H   0  0  0  0  0  0  0  0  0  0  0  0
   30.9390   29.8410   34.5770 H   0  0  0  0  0  0  0  0  0  0  0  0
   33.7710   29.5020   34.1560 H   0  0  0  0  0  0  0  0  0  0  0  0
   36.2640   28.5020   37.9540 C   0  0  0  0  0  0  0  0  0  0  0  0
   37.0910   27.8300   37.2710 O   0  0  0  0  0  0  0  0  0  0  0  0
   36.4350   28.9410   39.3070 C   0  0  0  0  0  0  0  0  0  0  0  0
   36.4790   30.3310   39.4940 C   0  0  0  0  0  0  0  0  0  0  0  0
   36.6460   30.7690   40.8150 C   0  0  0  0  0  0  0  0  0  0  0  0
   36.7540   29.8280   41.8160 N   0  0  0  0  0  0  0  0  0  0  0  0
   36.7030   28.5120   41.5580 C   0  0  0  0  0  0  0  0  0  0  0  0
   36.5420   28.0690   40.2920 N   0  0  0  0  0  0  0  0  0  0  0  0
   36.3910   31.0270   38.6860 H   0  0  0  0  0  0  0  0  0  0  0  0
   36.6850   31.8280   41.0030 H   0  0  0  0  0  0  0  0  0  0  0  0
   36.8330   27.6190   42.7400 C   0  0  2  0  0  3  0  0  0  0  0  0
   37.9300   28.0250   43.6790 C   0  0  0  0  0  2  0  0  0  0  0  0
   39.0180   26.9770   43.6110 C   0  0  0  0  0  3  0  0  0  0  0  0
   38.4950   25.8370   42.8040 C   0  0  0  0  0  3  0  0  0  0  0  0
   37.1310   26.2060   42.2990 C   0  0  0  0  0  2  0  0  0  0  0  0
  1  2  1  0  0  0  0
  2  3  2  0  0  0  0
  2 16  1  0  0  0  0
  3 11  1  0  0  0  0
  4  5  1  0  0  0  0
  4  3  1  0  0  0  0
  5 12  1  0  0  0  0
  6 13  1  0  0  0  0
  6  5  1  0  0  0  0
  7  8  1  0  0  0  0
  7  6  2  0  0  0  0
  8  4  2  0  0  0  0
  9  1  2  0  0  0  0
  9  8  1  0  0  0  0
 10  1  1  0  0  0  0
 14  7  1  0  0  0  0
 15  9  1  0  0  0  0
 16 18  1  0  0  0  0
 17 16  2  0  0  0  0
 18 19  2  0  0  0  0
 18 23  1  0  0  0  0
 19 20  1  0  0  0  0
 20 25  1  0  0  0  0
 20 21  2  0  0  0  0
 22 21  1  0  0  0  0
 23 22  2  0  0  0  0
 24 19  1  0  0  0  0
 26 22  1  6  0  0  0
 26 27  1  0  0  0  0
 28 27  1  0  0  0  0
 29 28  2  0  0  0  0
 30 26  1  0  0  0  0
 30 29  1  0  0  0  0
M  END
>  <minimizedAffinity>
-5.82173777

$$$$

 OpenBabel03242512393D

 30 33  0  0  1  0  0  0  0  0999 V2000
   40.1960   29.7980   37.9200 C   0  0  0  0  0  0  0  0  0  0  0  0
   40.5110   31.1260   38.2380 C   0  0  0  0  0  0  0  0  0  0  0  0
   41.6410   31.6730   37.6920 C   0  0  0  0  0  0  0  0  0  0  0  0
   42.5060   30.9930   36.8360 C   0  0  0  0  0  0  0  0  0  0  0  0
   43.6350   31.3300   36.2020 N   0  0  0  0  0  0  0  0  0  0  0  0
   44.0680   30.2880   35.4890 C   0  0  0  0  0  0  0  0  0  0  0  0
   43.1760   29.2490   35.6780 C   0  0  0  0  0  0  0  0  0  0  0  0
   42.1770   29.6900   36.5360 C   0  0  0  0  0  0  0  0  0  0  0  0
   41.0520   29.1070   37.0640 C   0  0  0  0  0  0  0  0  0  0  0  0
   39.3180   29.3780   38.3470 H   0  0  0  0  0  0  0  0  0  0  0  0
   41.9740   32.7080   37.8830 H   0  0  0  0  0  0  0  0  0  0  0  0
   44.1290   32.2710   36.2460 H   0  0  0  0  0  0  0  0  0  0  0  0
   44.9480   30.2170   34.8600 H   0  0  0  0  0  0  0  0  0  0  0  0
   43.2440   28.2510   35.2300 H   0  0  0  0  0  0  0  0  0  0  0  0
   40.8340   28.0860   36.8050 H   0  0  0  0  0  0  0  0  0  0  0  0
   39.6740   31.9510   39.1180 C   0  0  0  0  0  0  0  0  0  0  0  0
   39.9160   33.1890   39.0020 O   0  0  0  0  0  0  0  0  0  0  0  0
   38.7090   31.3510   39.9900 C   0  0  0  0  0  0  0  0  0  0  0  0
   37.3660   31.5290   39.6260 C   0  0  0  0  0  0  0  0  0  0  0  0
   36.4160   30.9450   40.4740 C   0  0  0  0  0  0  0  0  0  0  0  0
   36.8540   30.2510   41.5810 N   0  0  0  0  0  0  0  0  0  0  0  0
   38.1600   30.1220   41.8650 C   0  0  0  0  0  0  0  0  0  0  0  0
   39.0920   30.6780   41.0600 N   0  0  0  0  0  0  0  0  0  0  0  0
   37.0700   32.0770   38.7550 H   0  0  0  0  0  0  0  0  0  0  0  0
   35.3730   31.0580   40.2310 H   0  0  0  0  0  0  0  0  0  0  0  0
   38.4780   29.3460   43.0920 C   0  0  2  0  0  3  0  0  0  0  0  0
   39.6930   28.4770   42.9540 C   0  0  0  0  0  2  0  0  0  0  0  0
   39.2420   27.0350   42.9700 C   0  0  0  0  0  3  0  0  0  0  0  0
   37.7950   27.0180   43.3320 C   0  0  0  0  0  3  0  0  0  0  0  0
   37.3260   28.4380   43.4520 C   0  0  0  0  0  2  0  0  0  0  0  0
  1  2  1  0  0  0  0
  1 10  1  0  0  0  0
  2 16  1  0  0  0  0
  3 11  1  0  0  0  0
  3  2  2  0  0  0  0
  4  3  1  0  0  0  0
  5 12  1  0  0  0  0
  5  4  1  0  0  0  0
  6  7  2  0  0  0  0
  6  5  1  0  0  0  0
  7  8  1  0  0  0  0
  8  4  2  0  0  0  0
  8  9  1  0  0  0  0
  9  1  2  0  0  0  0
 13  6  1  0  0  0  0
 14  7  1  0  0  0  0
 15  9  1  0  0  0  0
 16 18  1  0  0  0  0
 17 16  2  0  0  0  0
 18 23  1  0  0  0  0
 19 18  2  0  0  0  0
 19 20  1  0  0  0  0
 20 21  2  0  0  0  0
 21 22  1  0  0  0  0
 23 22  2  0  0  0  0
 24 19  1  0  0  0  0
 25 20  1  0  0  0  0
 26 22  1  6  0  0  0
 26 30  1  0  0  0  0
 27 28  1  0  0  0  0
 27 26  1  0  0  0  0
 28 29  2  0  0  0  0
 29 30  1  0  0  0  0
M  END
>  <minimizedAffinity>
-5.72403955

$$$$

 OpenBabel03242512393D

 30 33  0  0  1  0  0  0  0  0999 V2000
   36.6170   27.7360   42.2970 C   0  0  0  0  0  0  0  0  0  0  0  0
   36.3860   27.9110   40.9260 C   0  0  0  0  0  0  0  0  0  0  0  0
   36.6010   26.8470   40.0910 C   0  0  0  0  0  0  0  0  0  0  0  0
   37.0380   25.5930   40.5150 C   0  0  0  0  0  0  0  0  0  0  0  0
   37.3030   24.4430   39.8850 N   0  0  0  0  0  0  0  0  0  0  0  0
   37.6940   23.5320   40.7790 C   0  0  0  0  0  0  0  0  0  0  0  0
   37.6760   24.1280   42.0260 C   0  0  0  0  0  0  0  0  0  0  0  0
   37.2590   25.4440   41.8670 C   0  0  0  0  0  0  0  0  0  0  0  0
   37.0550   26.4870   42.7350 C   0  0  0  0  0  0  0  0  0  0  0  0
   36.4490   28.5650   42.9400 H   0  0  0  0  0  0  0  0  0  0  0  0
   36.4480   26.8850   38.9980 H   0  0  0  0  0  0  0  0  0  0  0  0
   37.2230   24.2610   38.8410 H   0  0  0  0  0  0  0  0  0  0  0  0
   37.9820   22.5000   40.6110 H   0  0  0  0  0  0  0  0  0  0  0  0
   37.9430   23.6490   42.9740 H   0  0  0  0  0  0  0  0  0  0  0  0
   37.2410   26.3260   43.7820 H   0  0  0  0  0  0  0  0  0  0  0  0
   35.9120   29.1780   40.3550 C   0  0  0  0  0  0  0  0  0  0  0  0
   34.6540   29.2100   40.2140 O   0  0  0  0  0  0  0  0  0  0  0  0
   36.8330   30.2220   40.0180 C   0  0  0  0  0  0  0  0  0  0  0  0
   36.6790   30.7800   38.7400 C   0  0  0  0  0  0  0  0  0  0  0  0
   37.5760   31.8010   38.4020 C   0  0  0  0  0  0  0  0  0  0  0  0
   38.5260   32.1800   39.3250 N   0  0  0  0  0  0  0  0  0  0  0  0
   38.6130   31.5980   40.5310 C   0  0  0  0  0  0  0  0  0  0  0  0
   37.7570   30.6110   40.8770 N   0  0  0  0  0  0  0  0  0  0  0  0
   35.9240   30.4540   38.0530 H   0  0  0  0  0  0  0  0  0  0  0  0
   37.4920   32.2570   37.4300 H   0  0  0  0  0  0  0  0  0  0  0  0
   39.6890   32.1130   41.4190 C   0  0  2  0  0  3  0  0  0  0  0  0
   40.9970   32.3230   40.7150 C   0  0  0  0  0  2  0  0  0  0  0  0
   41.9800   31.3020   41.2370 C   0  0  0  0  0  3  0  0  0  0  0  0
   41.3460   30.6170   42.4000 C   0  0  0  0  0  3  0  0  0  0  0  0
   39.9470   31.1420   42.5470 C   0  0  0  0  0  2  0  0  0  0  0  0
  1  9  1  0  0  0  0
  1 10  1  0  0  0  0
  2  1  2  0  0  0  0
  3  4  2  0  0  0  0
  3  2  1  0  0  0  0
  4  8  1  0  0  0  0
  5  4  1  0  0  0  0
  5  6  1  0  0  0  0
  6  7  2  0  0  0  0
  7 14  1  0  0  0  0
  8  7  1  0  0  0  0
  8  9  2  0  0  0  0
  9 15  1  0  0  0  0
 11  3  1  0  0  0  0
 12  5  1  0  0  0  0
 13  6  1  0  0  0  0
 16  2  1  0  0  0  0
 17 16  2  0  0  0  0
 18 16  1  0  0  0  0
 18 23  1  0  0  0  0
 19 18  2  0  0  0  0
 20 19  1  0  0  0  0
 20 21  2  0  0  0  0
 21 22  1  0  0  0  0
 22 23  2  0  0  0  0
 24 19  1  0  0  0  0
 25 20  1  0  0  0  0
 26 22  1  6  0  0  0
 26 30  1  0  0  0  0
 27 28  1  0  0  0  0
 27 26  1  0  0  0  0
 28 29  2  0  0  0  0
 29 30  1  0  0  0  0
M  END
>  <minimizedAffinity>
-5.64387465

$$$$

 OpenBabel03242512393D

 30 33  0  0  1  0  0  0  0  0999 V2000
   37.4370   30.4070   37.4090 C   0  0  0  0  0  0  0  0  0  0  0  0
   36.7980   30.6800   38.6260 C   0  0  0  0  0  0  0  0  0  0  0  0
   35.6140   30.0460   38.8930 C   0  0  0  0  0  0  0  0  0  0  0  0
   34.9970   29.1420   38.0300 C   0  0  0  0  0  0  0  0  0  0  0  0
   33.8690   28.4240   38.0920 N   0  0  0  0  0  0  0  0  0  0  0  0
   33.7460   27.6990   36.9790 C   0  0  0  0  0  0  0  0  0  0  0  0
   34.8400   27.9680   36.1770 C   0  0  0  0  0  0  0  0  0  0  0  0
   35.6430   28.8880   36.8400 C   0  0  0  0  0  0  0  0  0  0  0  0
   36.8310   29.5040   36.5370 C   0  0  0  0  0  0  0  0  0  0  0  0
   38.3560   30.9020   37.2070 H   0  0  0  0  0  0  0  0  0  0  0  0
   35.0350   30.1950   39.8210 H   0  0  0  0  0  0  0  0  0  0  0  0
   33.1680   28.4170   38.8910 H   0  0  0  0  0  0  0  0  0  0  0  0
   32.9550   27.0110   36.7030 H   0  0  0  0  0  0  0  0  0  0  0  0
   35.0410   27.5340   35.1910 H   0  0  0  0  0  0  0  0  0  0  0  0
   37.3010   29.2770   35.5960 H   0  0  0  0  0  0  0  0  0  0  0  0
   37.3520   31.6030   39.6240 C   0  0  0  0  0  0  0  0  0  0  0  0
   36.9680   32.7970   39.4520 O   0  0  0  0  0  0  0  0  0  0  0  0
   38.2280   31.1310   40.6540 C   0  0  0  0  0  0  0  0  0  0  0  0
   39.3020   31.9750   40.9730 C   0  0  0  0  0  0  0  0  0  0  0  0
   40.1640   31.5210   41.9800 C   0  0  0  0  0  0  0  0  0  0  0  0
   39.9060   30.3050   42.5740 N   0  0  0  0  0  0  0  0  0  0  0  0
   38.8550   29.5510   42.2150 C   0  0  0  0  0  0  0  0  0  0  0  0
   38.0120   29.9710   41.2470 N   0  0  0  0  0  0  0  0  0  0  0  0
   39.4660   32.9140   40.4850 H   0  0  0  0  0  0  0  0  0  0  0  0
   41.0020   32.1390   42.2560 H   0  0  0  0  0  0  0  0  0  0  0  0
   38.7070   28.2650   42.9450 C   0  0  2  0  0  3  0  0  0  0  0  0
   38.7430   27.0600   42.0510 C   0  0  0  0  0  2  0  0  0  0  0  0
   37.3640   26.4410   42.0430 C   0  0  0  0  0  3  0  0  0  0  0  0
   36.5530   27.1300   43.0880 C   0  0  0  0  0  3  0  0  0  0  0  0
   37.3880   28.2280   43.6800 C   0  0  0  0  0  2  0  0  0  0  0  0
  1  2  1  0  0  0  0
  2  3  2  0  0  0  0
  2 16  1  0  0  0  0
  3 11  1  0  0  0  0
  4  5  1  0  0  0  0
  4  3  1  0  0  0  0
  5 12  1  0  0  0  0
  6  5  1  0  0  0  0
  7  8  1  0  0  0  0
  7  6  2  0  0  0  0
  8  4  2  0  0  0  0
  9  8  1  0  0  0  0
  9  1  2  0  0  0  0
 10  1  1  0  0  0  0
 13  6  1  0  0  0  0
 14  7  1  0  0  0  0
 15  9  1  0  0  0  0
 16 18  1  0  0  0  0
 17 16  2  0  0  0  0
 18 19  2  0  0  0  0
 18 23  1  0  0  0  0
 19 20  1  0  0  0  0
 20 25  1  0  0  0  0
 20 21  2  0  0  0  0
 22 21  1  0  0  0  0
 23 22  2  0  0  0  0
 24 19  1  0  0  0  0
 26 22  1  6  0  0  0
 26 30  1  0  0  0  0
 27 26  1  0  0  0  0
 28 27  1  0  0  0  0
 28 29  2  0  0  0  0
 29 30  1  0  0  0  0
M  END
>  <minimizedAffinity>
-5.57069588

$$$$
