
 OpenBabel03252505403D

 24 26  0  0  1  0  0  0  0  0999 V2000
   45.2660   33.6970   44.6110 C   0  0  0  0  0  0  0  0  0  0  0  0
   45.0350   34.9410   45.2560 C   0  0  0  0  0  0  0  0  0  0  0  0
   44.5680   36.0000   44.4870 C   0  0  0  0  0  0  0  0  0  0  0  0
   44.3560   35.7930   43.1590 N   0  0  0  0  0  0  0  0  0  0  0  0
   44.5890   34.5900   42.5810 C   0  0  0  0  0  0  0  0  0  0  0  0
   45.0440   33.5480   43.3200 N   0  0  0  0  0  0  0  0  0  0  0  0
   45.2240   35.0340   46.3010 H   0  0  0  0  0  0  0  0  0  0  0  0
   44.3750   36.9690   44.9250 H   0  0  0  0  0  0  0  0  0  0  0  0
   45.7730   32.5420   45.3950 C   0  0  1  0  0  0  0  0  0  0  0  0
   47.2580   32.2140   45.1230 C   0  0  0  0  0  0  0  0  0  0  0  0
   46.7810   32.7150   46.4440 C   0  0  2  0  0  0  0  0  0  0  0  0
   45.1160   31.6520   45.2670 H   0  0  0  0  0  0  0  0  0  0  0  0
   47.8290   32.9300   44.5160 H   0  0  0  0  0  0  0  0  0  0  0  0
   47.5430   31.1550   45.0890 H   0  0  0  0  0  0  0  0  0  0  0  0
   46.9990   33.8000   46.6950 H   0  0  0  0  0  0  0  0  0  0  0  0
   46.6210   31.8630   47.6480 C   0  0  0  0  0  0  0  0  0  0  0  0
   45.5770   32.3910   48.5930 C   0  0  0  0  0  0  0  0  0  0  0  0
   45.4020   31.1840   49.5180 C   0  0  0  0  0  0  0  0  0  0  0  0
   45.1730   30.0970   48.4690 C   0  0  0  0  0  0  0  0  0  0  0  0
   46.1790   30.4490   47.3840 C   0  0  0  0  0  0  0  0  0  0  0  0
   44.3050   34.5690   41.1090 C   0  0  0  0  0  0  0  0  0  0  0  0
   43.4930   33.5180   40.7580 F   0  0  0  0  0  0  0  0  0  0  0  0
   45.5050   34.4520   40.4030 F   0  0  0  0  0  0  0  0  0  0  0  0
   43.7680   35.7970   40.7430 F   0  0  0  0  0  0  0  0  0  0  0  0
  1  2  1  0  0  0  0
  1  9  1  0  0  0  0
  2  7  1  0  0  0  0
  3  8  1  0  0  0  0
  3  2  2  0  0  0  0
  4  3  1  0  0  0  0
  5  4  2  0  0  0  0
  5  6  1  0  0  0  0
  6  1  2  0  0  0  0
  9 12  1  1  0  0  0
  9 11  1  0  0  0  0
 10  9  1  0  0  0  0
 10 11  1  0  0  0  0
 11 15  1  1  0  0  0
 11 16  1  0  0  0  0
 13 10  1  0  0  0  0
 14 10  1  0  0  0  0
 16 17  1  0  0  0  0
 17 18  1  0  0  0  0
 19 18  1  0  0  0  0
 20 16  1  0  0  0  0
 20 19  1  0  0  0  0
 21  5  1  0  0  0  0
 22 21  1  0  0  0  0
 23 21  1  0  0  0  0
 24 21  1  0  0  0  0
M  END
>  <minimizedAffinity>
-5.34168196

>  <minimizedRMSD>
6.88540411

$$$$
