
 OpenBabel03252509163D

 21 23  0  0  0  0  0  0  0  0999 V2000
   45.8450   33.2560   46.2860 C   0  0  0  0  0  0  0  0  0  0  0  0
   45.1980   33.1500   47.5490 C   0  0  0  0  0  0  0  0  0  0  0  0
   45.5950   32.1650   48.3930 C   0  0  0  0  0  0  0  0  0  0  0  0
   46.6340   31.2900   47.9760 C   0  0  0  0  0  0  0  0  0  0  0  0
   47.0670   31.9010   46.2960 S   0  0  0  0  0  0  0  0  0  0  0  0
   44.4160   33.8480   47.8020 H   0  0  0  0  0  0  0  0  0  0  0  0
   45.1770   31.9990   49.3500 H   0  0  0  0  0  0  0  0  0  0  0  0
   44.4670   36.1320   44.3890 C   0  0  0  0  0  0  0  0  0  0  0  0
   45.1670   35.9620   43.1660 C   0  0  0  0  0  0  0  0  0  0  0  0
   46.0630   34.8910   43.0450 C   0  0  0  0  0  0  0  0  0  0  0  0
   46.2080   34.0660   44.1310 N   0  0  0  0  0  0  0  0  0  0  0  0
   45.5190   34.2700   45.2750 C   0  0  0  0  0  0  0  0  0  0  0  0
   44.6470   35.2990   45.4120 N   0  0  0  0  0  0  0  0  0  0  0  0
   43.7780   36.9600   44.4730 H   0  0  0  0  0  0  0  0  0  0  0  0
   45.0470   36.6120   42.3240 H   0  0  0  0  0  0  0  0  0  0  0  0
   46.6320   34.6950   42.1480 H   0  0  0  0  0  0  0  0  0  0  0  0
   47.2840   30.1910   48.5740 C   0  0  0  0  0  3  0  0  0  0  0  0
   47.8400   29.1340   47.6640 C   0  0  0  0  0  2  0  0  0  0  0  0
   49.2230   29.5810   47.3540 C   0  0  0  0  0  2  0  0  0  0  0  0
   49.7010   30.2290   48.6300 C   0  0  0  0  0  2  0  0  0  0  0  0
   48.4720   30.6220   49.3900 C   0  0  0  0  0  2  0  0  0  0  0  0
  1  5  1  0  0  0  0
  1  2  2  0  0  0  0
  2  6  1  0  0  0  0
  2  3  1  0  0  0  0
  3  7  1  0  0  0  0
  4  3  2  0  0  0  0
  4 17  1  0  0  0  0
  5  4  1  0  0  0  0
  8 14  1  0  0  0  0
  8 13  1  0  0  0  0
  9  8  2  0  0  0  0
 10  9  1  0  0  0  0
 10 11  2  0  0  0  0
 11 12  1  0  0  0  0
 12 13  2  0  0  0  0
 12  1  1  0  0  0  0
 15  9  1  0  0  0  0
 16 10  1  0  0  0  0
 17 21  1  0  0  0  0
 18 17  1  0  0  0  0
 19 18  1  0  0  0  0
 19 20  1  0  0  0  0
 20 21  1  0  0  0  0
M  END
>  <minimizedAffinity>
-4.77201319

>  <minimizedRMSD>
0.703530848

$$$$
