
 OpenBabel03242516583D

 24 26  0  0  1  0  0  0  0  0999 V2000
   36.5990   28.5970   41.2330 C   0  0  0  0  0  0  0  0  0  0  0  0
   36.3780   27.7160   42.2560 C   0  0  0  0  0  0  0  0  0  0  0  0
   37.0970   27.8280   43.4270 C   0  0  0  0  0  0  0  0  0  0  0  0
   38.0280   28.8330   43.5370 C   0  0  0  0  0  0  0  0  0  0  0  0
   38.2830   29.7400   42.5390 C   0  0  0  0  0  0  0  0  0  0  0  0
   37.5310   29.5960   41.3580 C   0  0  0  0  0  0  0  0  0  0  0  0
   35.6360   26.9210   42.1560 H   0  0  0  0  0  0  0  0  0  0  0  0
   36.8800   27.1040   44.2010 H   0  0  0  0  0  0  0  0  0  0  0  0
   38.5510   28.8580   44.4850 H   0  0  0  0  0  0  0  0  0  0  0  0
   39.0030   30.5100   42.6400 H   0  0  0  0  0  0  0  0  0  0  0  0
   33.9610   28.8600   38.5300 C   0  0  0  0  0  0  0  0  0  0  0  0
   34.6480   29.1250   39.7300 C   0  0  0  0  0  0  0  0  0  0  0  0
   35.7980   28.4130   40.0210 C   0  0  0  0  0  0  0  0  0  0  0  0
   36.2010   27.4860   39.1130 N   0  0  0  0  0  0  0  0  0  0  0  0
   35.5410   27.2310   37.9600 C   0  0  0  0  0  0  0  0  0  0  0  0
   34.4110   27.9270   37.6680 N   0  0  0  0  0  0  0  0  0  0  0  0
   33.0660   29.4610   38.3710 H   0  0  0  0  0  0  0  0  0  0  0  0
   34.3560   29.8510   40.4670 H   0  0  0  0  0  0  0  0  0  0  0  0
   35.9420   26.4720   37.3020 H   0  0  0  0  0  0  0  0  0  0  0  0
   37.7270   30.5240   40.2090 C   0  0  2  0  0  3  0  0  0  0  0  0
   39.1890   30.7270   39.9410 C   0  0  0  0  0  2  0  0  0  0  0  0
   39.4910   32.1880   40.0630 C   0  0  0  0  0  3  0  0  0  0  0  0
   38.2240   32.9010   40.3970 C   0  0  0  0  0  3  0  0  0  0  0  0
   37.1160   31.8730   40.4140 C   0  0  0  0  0  2  0  0  0  0  0  0
  1  6  2  0  0  0  0
  1  2  1  0  0  0  0
  2  3  2  0  0  0  0
  3  4  1  0  0  0  0
  3  8  1  0  0  0  0
  4  9  1  0  0  0  0
  5 10  1  0  0  0  0
  5  4  2  0  0  0  0
  6  5  1  0  0  0  0
  7  2  1  0  0  0  0
 11 12  1  0  0  0  0
 12 13  2  0  0  0  0
 12 18  1  0  0  0  0
 13  1  1  0  0  0  0
 14 13  1  0  0  0  0
 15 14  2  0  0  0  0
 16 15  1  0  0  0  0
 16 11  2  0  0  0  0
 17 11  1  0  0  0  0
 19 15  1  0  0  0  0
 20 24  1  0  0  0  0
 20  6  1  1  0  0  0
 21 22  1  0  0  0  0
 21 20  1  0  0  0  0
 22 23  2  0  0  0  0
 23 24  1  0  0  0  0
M  END
>  <minimizedAffinity>
-4.92784452

$$$$

 OpenBabel03242516583D

 24 26  0  0  1  0  0  0  0  0999 V2000
   38.0740   30.6940   41.0090 C   0  0  0  0  0  0  0  0  0  0  0  0
   38.7200   31.8520   41.3470 C   0  0  0  0  0  0  0  0  0  0  0  0
   38.4960   33.0010   40.6190 C   0  0  0  0  0  0  0  0  0  0  0  0
   37.6210   32.9540   39.5600 C   0  0  0  0  0  0  0  0  0  0  0  0
   36.9500   31.8160   39.1850 C   0  0  0  0  0  0  0  0  0  0  0  0
   37.2020   30.6620   39.9500 C   0  0  0  0  0  0  0  0  0  0  0  0
   39.4140   31.8770   42.1890 H   0  0  0  0  0  0  0  0  0  0  0  0
   39.0350   33.8860   40.9310 H   0  0  0  0  0  0  0  0  0  0  0  0
   37.4970   33.8940   39.0380 H   0  0  0  0  0  0  0  0  0  0  0  0
   36.2780   31.7970   38.3670 H   0  0  0  0  0  0  0  0  0  0  0  0
   39.6120   27.5650   42.4830 C   0  0  0  0  0  0  0  0  0  0  0  0
   39.4390   28.6690   41.6280 C   0  0  0  0  0  0  0  0  0  0  0  0
   38.3630   29.5150   41.8280 C   0  0  0  0  0  0  0  0  0  0  0  0
   37.5250   29.2230   42.8580 N   0  0  0  0  0  0  0  0  0  0  0  0
   37.6920   28.1620   43.6800 C   0  0  0  0  0  0  0  0  0  0  0  0
   38.7470   27.3270   43.4890 N   0  0  0  0  0  0  0  0  0  0  0  0
   40.4820   26.9460   42.2630 H   0  0  0  0  0  0  0  0  0  0  0  0
   40.0820   28.9280   40.8060 H   0  0  0  0  0  0  0  0  0  0  0  0
   36.9700   28.0130   44.4720 H   0  0  0  0  0  0  0  0  0  0  0  0
   36.5280   29.3720   39.6310 C   0  0  2  0  0  3  0  0  0  0  0  0
   36.4930   29.1510   38.1470 C   0  0  0  0  0  2  0  0  0  0  0  0
   35.0630   29.0130   37.7270 C   0  0  0  0  0  3  0  0  0  0  0  0
   34.2050   29.1360   38.9400 C   0  0  0  0  0  3  0  0  0  0  0  0
   35.1230   29.2860   40.1320 C   0  0  0  0  0  2  0  0  0  0  0  0
  1  2  1  0  0  0  0
  1 13  1  0  0  0  0
  2  7  1  0  0  0  0
  3  8  1  0  0  0  0
  3  2  2  0  0  0  0
  4  3  1  0  0  0  0
  5  4  2  0  0  0  0
  5  6  1  0  0  0  0
  6  1  2  0  0  0  0
  9  4  1  0  0  0  0
 10  5  1  0  0  0  0
 11 16  1  0  0  0  0
 12 13  1  0  0  0  0
 12 11  2  0  0  0  0
 13 14  2  0  0  0  0
 14 15  1  0  0  0  0
 15 19  1  0  0  0  0
 16 15  2  0  0  0  0
 17 11  1  0  0  0  0
 18 12  1  0  0  0  0
 20  6  1  6  0  0  0
 20 24  1  0  0  0  0
 21 20  1  0  0  0  0
 22 21  1  0  0  0  0
 22 23  2  0  0  0  0
 23 24  1  0  0  0  0
M  END
>  <minimizedAffinity>
-4.91377687

$$$$

 OpenBabel03242516583D

 24 26  0  0  1  0  0  0  0  0999 V2000
   36.6010   26.2480   39.4040 C   0  0  0  0  0  0  0  0  0  0  0  0
   36.0890   25.1650   38.7430 C   0  0  0  0  0  0  0  0  0  0  0  0
   36.0050   23.9460   39.3820 C   0  0  0  0  0  0  0  0  0  0  0  0
   36.4430   23.8490   40.6820 C   0  0  0  0  0  0  0  0  0  0  0  0
   36.9630   24.9070   41.3840 C   0  0  0  0  0  0  0  0  0  0  0  0
   37.0340   26.1360   40.7010 C   0  0  0  0  0  0  0  0  0  0  0  0
   35.7450   25.2540   37.7110 H   0  0  0  0  0  0  0  0  0  0  0  0
   35.5920   23.1250   38.8110 H   0  0  0  0  0  0  0  0  0  0  0  0
   36.3440   22.8620   41.1160 H   0  0  0  0  0  0  0  0  0  0  0  0
   37.2960   24.8160   42.3860 H   0  0  0  0  0  0  0  0  0  0  0  0
   35.8180   29.6250   37.8840 C   0  0  0  0  0  0  0  0  0  0  0  0
   35.6460   28.4490   38.6380 C   0  0  0  0  0  0  0  0  0  0  0  0
   36.6590   27.5070   38.6600 C   0  0  0  0  0  0  0  0  0  0  0  0
   37.7780   27.7820   37.9390 N   0  0  0  0  0  0  0  0  0  0  0  0
   37.9430   28.9120   37.2140 C   0  0  0  0  0  0  0  0  0  0  0  0
   36.9520   29.8410   37.1890 N   0  0  0  0  0  0  0  0  0  0  0  0
   34.9780   30.3180   37.9170 H   0  0  0  0  0  0  0  0  0  0  0  0
   34.7750   28.2030   39.2180 H   0  0  0  0  0  0  0  0  0  0  0  0
   38.8720   29.0380   36.6730 H   0  0  0  0  0  0  0  0  0  0  0  0
   37.5820   27.3510   41.3680 C   0  0  2  0  0  3  0  0  0  0  0  0
   38.7830   26.9980   42.1960 C   0  0  0  0  0  2  0  0  0  0  0  0
   38.5090   27.3940   43.6130 C   0  0  0  0  0  3  0  0  0  0  0  0
   37.1480   28.0000   43.6750 C   0  0  0  0  0  3  0  0  0  0  0  0
   36.6040   28.0380   42.2650 C   0  0  0  0  0  2  0  0  0  0  0  0
  1  6  1  0  0  0  0
  2  3  1  0  0  0  0
  2  1  2  0  0  0  0
  3  4  2  0  0  0  0
  4  9  1  0  0  0  0
  4  5  1  0  0  0  0
  5 10  1  0  0  0  0
  6  5  2  0  0  0  0
  7  2  1  0  0  0  0
  8  3  1  0  0  0  0
 11 17  1  0  0  0  0
 11 12  1  0  0  0  0
 12 13  2  0  0  0  0
 12 18  1  0  0  0  0
 13  1  1  0  0  0  0
 14 13  1  0  0  0  0
 15 14  2  0  0  0  0
 16 15  1  0  0  0  0
 16 11  2  0  0  0  0
 19 15  1  0  0  0  0
 20  6  1  1  0  0  0
 20 21  1  0  0  0  0
 20 24  1  0  0  0  0
 21 22  1  0  0  0  0
 22 23  2  0  0  0  0
 24 23  1  0  0  0  0
M  END
>  <minimizedAffinity>
-4.86320591

$$$$

 OpenBabel03242516583D

 24 26  0  0  1  0  0  0  0  0999 V2000
   37.2470   30.3850   39.4570 C   0  0  0  0  0  0  0  0  0  0  0  0
   36.4270   30.2930   38.3660 C   0  0  0  0  0  0  0  0  0  0  0  0
   35.6480   29.1700   38.1850 C   0  0  0  0  0  0  0  0  0  0  0  0
   35.7160   28.1610   39.1160 C   0  0  0  0  0  0  0  0  0  0  0  0
   36.5230   28.2090   40.2250 C   0  0  0  0  0  0  0  0  0  0  0  0
   37.3040   29.3690   40.3780 C   0  0  0  0  0  0  0  0  0  0  0  0
   36.3830   31.1000   37.6330 H   0  0  0  0  0  0  0  0  0  0  0  0
   35.0190   29.1520   37.3050 H   0  0  0  0  0  0  0  0  0  0  0  0
   35.0750   27.3130   38.9070 H   0  0  0  0  0  0  0  0  0  0  0  0
   36.5630   27.4230   40.9340 H   0  0  0  0  0  0  0  0  0  0  0  0
   38.4650   33.8810   40.2480 C   0  0  0  0  0  0  0  0  0  0  0  0
   37.6060   32.7680   40.1900 C   0  0  0  0  0  0  0  0  0  0  0  0
   38.0450   31.6070   39.5800 C   0  0  0  0  0  0  0  0  0  0  0  0
   39.3030   31.6120   39.0660 N   0  0  0  0  0  0  0  0  0  0  0  0
   40.1290   32.6810   39.1220 C   0  0  0  0  0  0  0  0  0  0  0  0
   39.7040   33.8260   39.7200 N   0  0  0  0  0  0  0  0  0  0  0  0
   38.0490   34.7580   40.7430 H   0  0  0  0  0  0  0  0  0  0  0  0
   36.6070   32.7320   40.5860 H   0  0  0  0  0  0  0  0  0  0  0  0
   41.1140   32.5870   38.6830 H   0  0  0  0  0  0  0  0  0  0  0  0
   38.2170   29.5280   41.5460 C   0  0  2  0  0  3  0  0  0  0  0  0
   39.4050   28.6210   41.4100 C   0  0  0  0  0  2  0  0  0  0  0  0
   39.4400   27.7130   42.5990 C   0  0  0  0  0  3  0  0  0  0  0  0
   38.2860   28.0520   43.4810 C   0  0  0  0  0  3  0  0  0  0  0  0
   37.5700   29.2290   42.8600 C   0  0  0  0  0  2  0  0  0  0  0  0
  1 13  1  0  0  0  0
  1  6  1  0  0  0  0
  2  1  2  0  0  0  0
  3  2  1  0  0  0  0
  3  4  2  0  0  0  0
  4  5  1  0  0  0  0
  5  6  2  0  0  0  0
  5 10  1  0  0  0  0
  7  2  1  0  0  0  0
  8  3  1  0  0  0  0
  9  4  1  0  0  0  0
 11 17  1  0  0  0  0
 12 11  1  0  0  0  0
 12 18  1  0  0  0  0
 13 12  2  0  0  0  0
 14 15  2  0  0  0  0
 14 13  1  0  0  0  0
 15 16  1  0  0  0  0
 16 11  2  0  0  0  0
 19 15  1  0  0  0  0
 20  6  1  6  0  0  0
 20 24  1  0  0  0  0
 21 20  1  0  0  0  0
 21 22  1  0  0  0  0
 22 23  2  0  0  0  0
 24 23  1  0  0  0  0
M  END
>  <minimizedAffinity>
-4.7094121

$$$$

 OpenBabel03242516583D

 24 26  0  0  1  0  0  0  0  0999 V2000
   37.5550   29.2550   41.6090 C   0  0  0  0  0  0  0  0  0  0  0  0
   37.6490   29.2500   42.9730 C   0  0  0  0  0  0  0  0  0  0  0  0
   37.3540   28.1020   43.6770 C   0  0  0  0  0  0  0  0  0  0  0  0
   36.9690   26.9800   42.9830 C   0  0  0  0  0  0  0  0  0  0  0  0
   36.8610   26.9390   41.6150 C   0  0  0  0  0  0  0  0  0  0  0  0
   37.1700   28.1280   40.9280 C   0  0  0  0  0  0  0  0  0  0  0  0
   37.9560   30.1470   43.5140 H   0  0  0  0  0  0  0  0  0  0  0  0
   37.4460   28.1560   44.7550 H   0  0  0  0  0  0  0  0  0  0  0  0
   36.7550   26.1190   43.6040 H   0  0  0  0  0  0  0  0  0  0  0  0
   36.5640   26.0660   41.0950 H   0  0  0  0  0  0  0  0  0  0  0  0
   37.4000   32.6630   39.9650 C   0  0  0  0  0  0  0  0  0  0  0  0
   36.9640   31.4960   40.6200 C   0  0  0  0  0  0  0  0  0  0  0  0
   37.8840   30.5110   40.9300 C   0  0  0  0  0  0  0  0  0  0  0  0
   39.1780   30.7360   40.5790 N   0  0  0  0  0  0  0  0  0  0  0  0
   39.5970   31.8580   39.9500 C   0  0  0  0  0  0  0  0  0  0  0  0
   38.6980   32.8290   39.6420 N   0  0  0  0  0  0  0  0  0  0  0  0
   36.6180   33.3910   39.7550 H   0  0  0  0  0  0  0  0  0  0  0  0
   35.9500   31.2880   40.9110 H   0  0  0  0  0  0  0  0  0  0  0  0
   40.6490   31.9440   39.7110 H   0  0  0  0  0  0  0  0  0  0  0  0
   37.0860   28.1960   39.4420 C   0  0  2  0  0  3  0  0  0  0  0  0
   35.6540   28.1790   38.9950 C   0  0  0  0  0  3  0  0  0  0  0  0
   35.4570   27.0000   38.0940 C   0  0  0  0  0  3  0  0  0  0  0  0
   36.7600   26.2850   37.9680 C   0  0  0  0  0  3  0  0  0  0  0  0
   37.7870   27.0730   38.7480 C   0  0  0  0  0  3  0  0  0  0  0  0
  1  2  1  0  0  0  0
  2  7  1  0  0  0  0
  2  3  2  0  0  0  0
  3  8  1  0  0  0  0
  4  9  1  0  0  0  0
  4  3  1  0  0  0  0
  5  4  2  0  0  0  0
  6  1  2  0  0  0  0
  6  5  1  0  0  0  0
 10  5  1  0  0  0  0
 11 12  1  0  0  0  0
 12 18  1  0  0  0  0
 12 13  2  0  0  0  0
 13  1  1  0  0  0  0
 14 13  1  0  0  0  0
 15 14  2  0  0  0  0
 16 15  1  0  0  0  0
 16 11  2  0  0  0  0
 17 11  1  0  0  0  0
 19 15  1  0  0  0  0
 20  6  1  1  0  0  0
 21 20  1  0  0  0  0
 22 21  2  0  0  0  0
 23 22  1  0  0  0  0
 23 24  2  0  0  0  0
 24 20  1  0  0  0  0
M  END
>  <minimizedAffinity>
-4.70194006

$$$$

 OpenBabel03242516583D

 24 26  0  0  1  0  0  0  0  0999 V2000
   37.7080   29.1730   41.4840 C   0  0  0  0  0  0  0  0  0  0  0  0
   36.6020   28.4680   41.8750 C   0  0  0  0  0  0  0  0  0  0  0  0
   36.6830   27.6030   42.9470 C   0  0  0  0  0  0  0  0  0  0  0  0
   37.8840   27.4700   43.6010 C   0  0  0  0  0  0  0  0  0  0  0  0
   39.0180   28.1570   43.2450 C   0  0  0  0  0  0  0  0  0  0  0  0
   38.9000   29.0300   42.1480 C   0  0  0  0  0  0  0  0  0  0  0  0
   35.6540   28.5810   41.3470 H   0  0  0  0  0  0  0  0  0  0  0  0
   35.7780   27.0720   43.2110 H   0  0  0  0  0  0  0  0  0  0  0  0
   37.8690   26.7750   44.4310 H   0  0  0  0  0  0  0  0  0  0  0  0
   39.9370   28.0440   43.7600 H   0  0  0  0  0  0  0  0  0  0  0  0
   37.0490   32.1640   39.2590 C   0  0  0  0  0  0  0  0  0  0  0  0
   37.1730   31.3990   40.4340 C   0  0  0  0  0  0  0  0  0  0  0  0
   37.5450   30.0700   40.3390 C   0  0  0  0  0  0  0  0  0  0  0  0
   37.7730   29.5770   39.0930 N   0  0  0  0  0  0  0  0  0  0  0  0
   37.6550   30.3110   37.9640 C   0  0  0  0  0  0  0  0  0  0  0  0
   37.2900   31.6180   38.0500 N   0  0  0  0  0  0  0  0  0  0  0  0
   36.7540   33.2010   39.4150 H   0  0  0  0  0  0  0  0  0  0  0  0
   37.0000   31.7590   41.4320 H   0  0  0  0  0  0  0  0  0  0  0  0
   37.8570   29.8270   37.0180 H   0  0  0  0  0  0  0  0  0  0  0  0
   40.0690   29.8250   41.6740 C   0  0  2  0  0  3  0  0  0  0  0  0
   41.3160   28.9910   41.6980 C   0  0  0  0  0  2  0  0  0  0  0  0
   42.3130   29.6620   42.5910 C   0  0  0  0  0  3  0  0  0  0  0  0
   41.7000   30.9150   43.1180 C   0  0  0  0  0  3  0  0  0  0  0  0
   40.3320   31.0510   42.4880 C   0  0  0  0  0  2  0  0  0  0  0  0
  1  2  2  0  0  0  0
  1  6  1  0  0  0  0
  2  3  1  0  0  0  0
  3  8  1  0  0  0  0
  3  4  2  0  0  0  0
  4  9  1  0  0  0  0
  5  4  1  0  0  0  0
  5 10  1  0  0  0  0
  6  5  2  0  0  0  0
  7  2  1  0  0  0  0
 11 17  1  0  0  0  0
 11 12  1  0  0  0  0
 12 18  1  0  0  0  0
 13 12  2  0  0  0  0
 13  1  1  0  0  0  0
 14 13  1  0  0  0  0
 15 16  1  0  0  0  0
 15 14  2  0  0  0  0
 16 11  2  0  0  0  0
 19 15  1  0  0  0  0
 20 21  1  0  0  0  0
 20  6  1  1  0  0  0
 20 24  1  0  0  0  0
 21 22  1  0  0  0  0
 22 23  2  0  0  0  0
 24 23  1  0  0  0  0
M  END
>  <minimizedAffinity>
-4.66152287

$$$$

 OpenBabel03242516583D

 24 26  0  0  1  0  0  0  0  0999 V2000
   37.1430   28.1720   41.2210 C   0  0  0  0  0  0  0  0  0  0  0  0
   37.3100   29.1690   42.1420 C   0  0  0  0  0  0  0  0  0  0  0  0
   37.8180   28.8740   43.3900 C   0  0  0  0  0  0  0  0  0  0  0  0
   38.1460   27.5720   43.6790 C   0  0  0  0  0  0  0  0  0  0  0  0
   37.9960   26.5390   42.7880 C   0  0  0  0  0  0  0  0  0  0  0  0
   37.4760   26.8750   41.5250 C   0  0  0  0  0  0  0  0  0  0  0  0
   37.0450   30.2000   41.9010 H   0  0  0  0  0  0  0  0  0  0  0  0
   37.9290   29.7030   44.0770 H   0  0  0  0  0  0  0  0  0  0  0  0
   38.5390   27.4190   44.6770 H   0  0  0  0  0  0  0  0  0  0  0  0
   38.2550   25.5400   43.0260 H   0  0  0  0  0  0  0  0  0  0  0  0
   34.8450   29.0370   38.3390 C   0  0  0  0  0  0  0  0  0  0  0  0
   35.2480   28.6500   39.6310 C   0  0  0  0  0  0  0  0  0  0  0  0
   36.5990   28.5620   39.9190 C   0  0  0  0  0  0  0  0  0  0  0  0
   37.4680   28.8610   38.9180 N   0  0  0  0  0  0  0  0  0  0  0  0
   37.0810   29.2320   37.6770 C   0  0  0  0  0  0  0  0  0  0  0  0
   35.7560   29.3210   37.3870 N   0  0  0  0  0  0  0  0  0  0  0  0
   33.7670   29.0840   38.1900 H   0  0  0  0  0  0  0  0  0  0  0  0
   34.5870   28.4080   40.4430 H   0  0  0  0  0  0  0  0  0  0  0  0
   37.8500   29.4500   36.9470 H   0  0  0  0  0  0  0  0  0  0  0  0
   37.2710   25.8330   40.4800 C   0  0  2  0  0  3  0  0  0  0  0  0
   36.6700   24.5960   41.0820 C   0  0  0  0  0  3  0  0  0  0  0  0
   37.5960   23.4500   40.8240 C   0  0  0  0  0  3  0  0  0  0  0  0
   38.7690   23.9600   40.0550 C   0  0  0  0  0  3  0  0  0  0  0  0
   38.5270   25.4270   39.7800 C   0  0  0  0  0  3  0  0  0  0  0  0
  1  6  2  0  0  0  0
  1  2  1  0  0  0  0
  2  3  2  0  0  0  0
  3  4  1  0  0  0  0
  3  8  1  0  0  0  0
  4  9  1  0  0  0  0
  5 10  1  0  0  0  0
  5  4  2  0  0  0  0
  6  5  1  0  0  0  0
  7  2  1  0  0  0  0
 11 12  1  0  0  0  0
 12 13  2  0  0  0  0
 12 18  1  0  0  0  0
 13  1  1  0  0  0  0
 14 13  1  0  0  0  0
 15 14  2  0  0  0  0
 16 15  1  0  0  0  0
 16 11  2  0  0  0  0
 17 11  1  0  0  0  0
 19 15  1  0  0  0  0
 20 21  1  0  0  0  0
 20  6  1  1  0  0  0
 22 21  2  0  0  0  0
 23 22  1  0  0  0  0
 24 23  2  0  0  0  0
 24 20  1  0  0  0  0
M  END
>  <minimizedAffinity>
-4.65425491

$$$$

 OpenBabel03242516583D

 24 26  0  0  1  0  0  0  0  0999 V2000
   36.8340   28.4440   39.9010 C   0  0  0  0  0  0  0  0  0  0  0  0
   36.1400   27.4870   39.2120 C   0  0  0  0  0  0  0  0  0  0  0  0
   35.5990   27.7850   37.9790 C   0  0  0  0  0  0  0  0  0  0  0  0
   35.7710   29.0500   37.4690 C   0  0  0  0  0  0  0  0  0  0  0  0
   36.4590   30.0410   38.1240 C   0  0  0  0  0  0  0  0  0  0  0  0
   36.9980   29.7020   39.3790 C   0  0  0  0  0  0  0  0  0  0  0  0
   36.0090   26.4860   39.6280 H   0  0  0  0  0  0  0  0  0  0  0  0
   35.0610   26.9900   37.4800 H   0  0  0  0  0  0  0  0  0  0  0  0
   35.3190   29.2070   36.4980 H   0  0  0  0  0  0  0  0  0  0  0  0
   36.5840   31.0100   37.7170 H   0  0  0  0  0  0  0  0  0  0  0  0
   37.2970   27.6730   43.5780 C   0  0  0  0  0  0  0  0  0  0  0  0
   36.6640   28.0720   42.3870 C   0  0  0  0  0  0  0  0  0  0  0  0
   37.3790   28.0530   41.2030 C   0  0  0  0  0  0  0  0  0  0  0  0
   38.6720   27.6400   41.2650 N   0  0  0  0  0  0  0  0  0  0  0  0
   39.2810   27.2560   42.4100 C   0  0  0  0  0  0  0  0  0  0  0  0
   38.5840   27.2730   43.5760 N   0  0  0  0  0  0  0  0  0  0  0  0
   36.6700   27.7150   44.4680 H   0  0  0  0  0  0  0  0  0  0  0  0
   35.6440   28.4030   42.3040 H   0  0  0  0  0  0  0  0  0  0  0  0
   40.3160   26.9440   42.3560 H   0  0  0  0  0  0  0  0  0  0  0  0
   37.7640   30.7010   40.1770 C   0  0  2  0  0  3  0  0  0  0  0  0
   36.9260   31.9190   40.4370 C   0  0  0  0  0  3  0  0  0  0  0  0
   37.6350   33.1070   39.8670 C   0  0  0  0  0  3  0  0  0  0  0  0
   38.9160   32.6410   39.2610 C   0  0  0  0  0  3  0  0  0  0  0  0
   39.0270   31.1560   39.5200 C   0  0  0  0  0  3  0  0  0  0  0  0
  1 13  1  0  0  0  0
  2  7  1  0  0  0  0
  2  1  2  0  0  0  0
  3  2  1  0  0  0  0
  4  3  2  0  0  0  0
  4  5  1  0  0  0  0
  5  6  2  0  0  0  0
  6  1  1  0  0  0  0
  8  3  1  0  0  0  0
  9  4  1  0  0  0  0
 10  5  1  0  0  0  0
 11 17  1  0  0  0  0
 12 11  2  0  0  0  0
 13 14  2  0  0  0  0
 13 12  1  0  0  0  0
 14 15  1  0  0  0  0
 15 16  2  0  0  0  0
 16 11  1  0  0  0  0
 18 12  1  0  0  0  0
 19 15  1  0  0  0  0
 20  6  1  6  0  0  0
 20 21  1  0  0  0  0
 22 21  2  0  0  0  0
 23 24  2  0  0  0  0
 23 22  1  0  0  0  0
 24 20  1  0  0  0  0
M  END
>  <minimizedAffinity>
-4.63802433

$$$$

 OpenBabel03242516583D

 24 26  0  0  1  0  0  0  0  0999 V2000
   37.2910   29.8030   39.3160 C   0  0  0  0  0  0  0  0  0  0  0  0
   36.6320   30.2310   38.1960 C   0  0  0  0  0  0  0  0  0  0  0  0
   35.5610   29.5090   37.7110 C   0  0  0  0  0  0  0  0  0  0  0  0
   35.1800   28.3660   38.3720 C   0  0  0  0  0  0  0  0  0  0  0  0
   35.8100   27.8990   39.4990 C   0  0  0  0  0  0  0  0  0  0  0  0
   36.8980   28.6600   39.9660 C   0  0  0  0  0  0  0  0  0  0  0  0
   36.9450   31.1400   37.6790 H   0  0  0  0  0  0  0  0  0  0  0  0
   35.0780   29.8950   36.8220 H   0  0  0  0  0  0  0  0  0  0  0  0
   34.3320   27.8560   37.9330 H   0  0  0  0  0  0  0  0  0  0  0  0
   35.5030   27.0170   39.9980 H   0  0  0  0  0  0  0  0  0  0  0  0
   40.7280   31.2870   39.8760 C   0  0  0  0  0  0  0  0  0  0  0  0
   39.7290   30.4350   39.3700 C   0  0  0  0  0  0  0  0  0  0  0  0
   38.4170   30.6210   39.7700 C   0  0  0  0  0  0  0  0  0  0  0  0
   38.1710   31.6340   40.6420 N   0  0  0  0  0  0  0  0  0  0  0  0
   39.1310   32.4520   41.1280 C   0  0  0  0  0  0  0  0  0  0  0  0
   40.4220   32.2760   40.7390 N   0  0  0  0  0  0  0  0  0  0  0  0
   41.7350   31.0790   39.5150 H   0  0  0  0  0  0  0  0  0  0  0  0
   39.8900   29.6270   38.6810 H   0  0  0  0  0  0  0  0  0  0  0  0
   38.8350   33.2310   41.8190 H   0  0  0  0  0  0  0  0  0  0  0  0
   37.6550   28.2450   41.1810 C   0  0  2  0  0  3  0  0  0  0  0  0
   37.8650   26.7590   41.1860 C   0  0  0  0  0  2  0  0  0  0  0  0
   37.2480   26.2020   42.4310 C   0  0  0  0  0  3  0  0  0  0  0  0
   36.6620   27.3320   43.2080 C   0  0  0  0  0  3  0  0  0  0  0  0
   36.9810   28.6090   42.4640 C   0  0  0  0  0  2  0  0  0  0  0  0
  1 13  1  0  0  0  0
  1  6  1  0  0  0  0
  2  1  2  0  0  0  0
  3  2  1  0  0  0  0
  3  4  2  0  0  0  0
  4  5  1  0  0  0  0
  5  6  2  0  0  0  0
  5 10  1  0  0  0  0
  7  2  1  0  0  0  0
  8  3  1  0  0  0  0
  9  4  1  0  0  0  0
 11 16  1  0  0  0  0
 12 13  1  0  0  0  0
 12 11  2  0  0  0  0
 13 14  2  0  0  0  0
 14 15  1  0  0  0  0
 15 19  1  0  0  0  0
 16 15  2  0  0  0  0
 17 11  1  0  0  0  0
 18 12  1  0  0  0  0
 20  6  1  6  0  0  0
 20 21  1  0  0  0  0
 20 24  1  0  0  0  0
 21 22  1  0  0  0  0
 22 23  2  0  0  0  0
 24 23  1  0  0  0  0
M  END
>  <minimizedAffinity>
-4.58846521

$$$$
