
 OpenBabel03242515543D

 32 35  0  0  0  0  0  0  0  0999 V2000
   45.8980   32.6780   46.6010 C   0  0  0  0  0  0  0  0  0  0  0  0
   45.6330   32.9930   47.9400 C   0  0  0  0  0  0  0  0  0  0  0  0
   46.0570   32.2230   49.0060 C   0  0  0  0  0  0  0  0  0  0  0  0
   46.7730   31.0910   48.7930 C   0  0  0  0  0  0  0  0  0  0  0  0
   47.0560   30.7300   47.4870 C   0  0  0  0  0  0  0  0  0  0  0  0
   47.7900   29.5940   47.3110 C   0  0  0  0  0  0  0  0  0  0  0  0
   48.0930   29.2030   46.0100 C   0  0  0  0  0  0  0  0  0  0  0  0
   47.6410   29.9560   44.9780 C   0  0  0  0  0  0  0  0  0  0  0  0
   46.9120   31.0800   45.2150 C   0  0  0  0  0  0  0  0  0  0  0  0
   46.6080   31.5190   46.4440 C   0  0  0  0  0  0  0  0  0  0  0  0
   45.0630   33.8930   48.1490 H   0  0  0  0  0  0  0  0  0  0  0  0
   45.7970   32.5560   50.0010 H   0  0  0  0  0  0  0  0  0  0  0  0
   47.0980   30.5100   49.6320 H   0  0  0  0  0  0  0  0  0  0  0  0
   48.1160   29.0330   48.1830 H   0  0  0  0  0  0  0  0  0  0  0  0
   48.6920   28.2850   46.0050 H   0  0  0  0  0  0  0  0  0  0  0  0
   48.0250   29.4490   44.0950 H   0  0  0  0  0  0  0  0  0  0  0  0
   44.4740   35.5920   45.0690 C   0  0  0  0  0  0  0  0  0  0  0  0
   45.2500   35.7660   43.8760 C   0  0  0  0  0  0  0  0  0  0  0  0
   46.2710   34.8330   43.5550 C   0  0  0  0  0  0  0  0  0  0  0  0
   46.4260   33.8320   44.4310 N   0  0  0  0  0  0  0  0  0  0  0  0
   45.7250   33.6530   45.5290 C   0  0  0  0  0  0  0  0  0  0  0  0
   44.7340   34.5350   45.8650 N   0  0  0  0  0  0  0  0  0  0  0  0
   43.7030   36.3160   45.2930 H   0  0  0  0  0  0  0  0  0  0  0  0
   46.8260   34.9990   42.6580 H   0  0  0  0  0  0  0  0  0  0  0  0
   44.9080   36.8970   43.0870 N   0  0  0  0  0  0  0  0  0  0  0  0
   43.9710   37.1540   42.7630 H   0  0  0  0  0  0  0  0  0  0  0  0
   45.8180   37.3990   42.9140 H   0  0  0  0  0  0  0  0  0  0  0  0
   46.3500   31.5500   43.9210 C   0  0  0  0  0  0  0  0  0  0  0  0
   46.9910   31.0800   42.6840 C   0  0  0  0  0  0  0  0  0  0  0  0
   45.9220   31.4830   41.6520 C   0  0  0  0  0  0  0  0  0  0  0  0
   44.6730   30.9280   42.3060 C   0  0  0  0  0  0  0  0  0  0  0  0
   45.1460   30.5340   43.6870 C   0  0  0  0  0  0  0  0  0  0  0  0
  1  2  1  0  0  0  0
  2 11  1  0  0  0  0
  2  3  2  0  0  0  0
  3 12  1  0  0  0  0
  4  3  1  0  0  0  0
  4 13  1  0  0  0  0
  5  4  2  0  0  0  0
  6  5  1  0  0  0  0
  6 14  1  0  0  0  0
  7  6  2  0  0  0  0
  8  9  2  0  0  0  0
  8  7  1  0  0  0  0
  9 10  1  0  0  0  0
 10  1  2  0  0  0  0
 10  5  1  0  0  0  0
 15  7  1  0  0  0  0
 16  8  1  0  0  0  0
 17 23  1  0  0  0  0
 17 22  1  0  0  0  0
 18 17  2  0  0  0  0
 19 18  1  0  0  0  0
 19 20  2  0  0  0  0
 20 21  1  0  0  0  0
 21 22  2  0  0  0  0
 21  1  1  0  0  0  0
 24 19  1  0  0  0  0
 25 18  1  0  0  0  0
 26 25  1  0  0  0  0
 27 25  1  0  0  0  0
 28  9  1  0  0  0  0
 29 28  1  0  0  0  0
 30 31  1  0  0  0  0
 30 29  1  0  0  0  0
 31 32  1  0  0  0  0
 32 28  1  0  0  0  0
M  END
>  <minimizedAffinity>
-5.30598021

>  <minimizedRMSD>
0.60366869

$$$$
