
 OpenBabel03252505513D

 21 22  0  0  0  0  0  0  0  0999 V2000
   44.5820   35.4950   45.1540 C   0  0  0  0  0  0  0  0  0  0  0  0
   45.3070   35.1450   44.0180 C   0  0  0  0  0  0  0  0  0  0  0  0
   46.0880   33.9830   44.0800 C   0  0  0  0  0  0  0  0  0  0  0  0
   46.1130   33.2570   45.2110 N   0  0  0  0  0  0  0  0  0  0  0  0
   45.4000   33.6280   46.2860 C   0  0  0  0  0  0  0  0  0  0  0  0
   44.6350   34.7310   46.2820 N   0  0  0  0  0  0  0  0  0  0  0  0
   43.9580   36.3800   45.1760 H   0  0  0  0  0  0  0  0  0  0  0  0
   46.6330   33.7400   43.1950 H   0  0  0  0  0  0  0  0  0  0  0  0
   45.1850   36.0450   42.8330 C   0  0  0  0  0  0  0  0  0  0  0  0
   45.2450   37.3270   43.3110 F   0  0  0  0  0  0  0  0  0  0  0  0
   43.9400   35.7810   42.2660 F   0  0  0  0  0  0  0  0  0  0  0  0
   46.1910   35.7310   41.9550 F   0  0  0  0  0  0  0  0  0  0  0  0
   45.3790   32.9230   47.4870 O   0  0  0  0  0  0  0  0  0  0  0  0
   45.6830   31.5440   47.5160 C   0  0  0  0  0  0  0  0  0  0  0  0
   45.0830   31.0420   48.2780 H   0  0  0  0  0  0  0  0  0  0  0  0
   45.5510   31.1740   46.4860 H   0  0  0  0  0  0  0  0  0  0  0  0
   47.1620   31.4570   47.8410 C   0  0  0  0  0  3  0  0  0  0  0  0
   47.8780   30.3840   47.0750 C   0  0  0  0  0  2  0  0  0  0  0  0
   48.6750   29.5710   48.0990 C   0  0  0  0  0  2  0  0  0  0  0  0
   48.8070   30.5680   49.2310 C   0  0  0  0  0  2  0  0  0  0  0  0
   47.3740   31.1100   49.3100 C   0  0  0  0  0  2  0  0  0  0  0  0
  1  7  1  0  0  0  0
  1  6  1  0  0  0  0
  2  3  1  0  0  0  0
  2  1  2  0  0  0  0
  3  4  2  0  0  0  0
  4  5  1  0  0  0  0
  5 13  1  0  0  0  0
  6  5  2  0  0  0  0
  8  3  1  0  0  0  0
  9 10  1  0  0  0  0
  9  2  1  0  0  0  0
 11  9  1  0  0  0  0
 12  9  1  0  0  0  0
 13 14  1  0  0  0  0
 14 17  1  0  0  0  0
 14 15  1  0  0  0  0
 16 14  1  0  0  0  0
 17 21  1  0  0  0  0
 18 17  1  0  0  0  0
 18 19  1  0  0  0  0
 19 20  1  0  0  0  0
 20 21  1  0  0  0  0
M  END
>  <minimizedAffinity>
-4.74509525

>  <minimizedRMSD>
1.64034486

$$$$
