
 OpenBabel03242522243D

 24 26  0  0  0  0  0  0  0  0999 V2000
   44.5190   35.7640   45.0700 C   0  0  0  0  0  0  0  0  0  0  0  0
   45.1730   35.7000   43.8400 C   0  0  0  0  0  0  0  0  0  0  0  0
   46.0280   34.6660   43.4850 C   0  0  0  0  0  0  0  0  0  0  0  0
   46.1980   33.6870   44.4280 N   0  0  0  0  0  0  0  0  0  0  0  0
   45.5630   33.7480   45.6210 C   0  0  0  0  0  0  0  0  0  0  0  0
   44.7460   34.7610   45.9320 N   0  0  0  0  0  0  0  0  0  0  0  0
   43.8660   36.5600   45.3310 H   0  0  0  0  0  0  0  0  0  0  0  0
   45.0290   36.4850   43.0990 H   0  0  0  0  0  0  0  0  0  0  0  0
   44.5370   33.1330   41.4850 Cl  0  0  0  0  0  0  0  0  0  0  0  0
   46.0840   33.9070   41.1870 C   0  0  0  0  0  0  0  0  0  0  0  0
   46.7070   34.6070   42.1980 C   0  0  0  0  0  0  0  0  0  0  0  0
   47.9310   35.2070   41.9290 C   0  0  0  0  0  0  0  0  0  0  0  0
   48.5100   35.1070   40.6830 C   0  0  0  0  0  0  0  0  0  0  0  0
   47.8400   34.3850   39.6900 C   0  0  0  0  0  0  0  0  0  0  0  0
   48.5710   34.2550   38.1110 Cl  0  0  0  0  0  0  0  0  0  0  0  0
   46.6220   33.7740   39.9210 C   0  0  0  0  0  0  0  0  0  0  0  0
   48.4000   35.7530   42.7440 H   0  0  0  0  0  0  0  0  0  0  0  0
   49.4660   35.5910   40.5190 H   0  0  0  0  0  0  0  0  0  0  0  0
   46.1370   33.2240   39.1180 H   0  0  0  0  0  0  0  0  0  0  0  0
   45.8280   32.6250   46.5680 C   0  0  0  0  0  3  0  0  0  0  0  0
   45.0670   32.8190   47.8690 C   0  0  0  0  0  2  0  0  0  0  0  0
   45.7800   31.9970   48.8970 C   0  0  0  0  0  2  0  0  0  0  0  0
   47.2050   31.9410   48.4210 C   0  0  0  0  0  2  0  0  0  0  0  0
   47.2600   32.6060   47.0620 C   0  0  0  0  0  2  0  0  0  0  0  0
  1  7  1  0  0  0  0
  1  6  1  0  0  0  0
  2  1  2  0  0  0  0
  3  2  1  0  0  0  0
  3  4  2  0  0  0  0
  4  5  1  0  0  0  0
  5  6  2  0  0  0  0
  5 20  1  0  0  0  0
  8  2  1  0  0  0  0
 10  9  1  0  0  0  0
 10 11  1  0  0  0  0
 11  3  1  0  0  0  0
 12 11  2  0  0  0  0
 12 17  1  0  0  0  0
 13 12  1  0  0  0  0
 14 16  1  0  0  0  0
 14 13  2  0  0  0  0
 15 14  1  0  0  0  0
 16 10  2  0  0  0  0
 18 13  1  0  0  0  0
 19 16  1  0  0  0  0
 20 24  1  0  0  0  0
 20 21  1  0  0  0  0
 21 22  1  0  0  0  0
 23 22  1  0  0  0  0
 24 23  1  0  0  0  0
M  END
>  <minimizedAffinity>
-6.39235687

>  <minimizedRMSD>
0.464298099

$$$$
