
 OpenBabel03252507583D

 23 25  0  0  1  0  0  0  0  0999 V2000
   46.0040   32.4260   45.0290 C   0  0  1  0  0  0  0  0  0  0  0  0
   47.2590   32.0360   45.7450 C   0  0  0  0  0  0  0  0  0  0  0  0
   46.1650   32.7240   46.4860 C   0  0  2  0  0  0  0  0  0  0  0  0
   45.3410   31.6070   44.6890 H   0  0  0  0  0  0  0  0  0  0  0  0
   47.4040   30.9470   45.8830 H   0  0  0  0  0  0  0  0  0  0  0  0
   48.1560   32.5560   45.3910 H   0  0  0  0  0  0  0  0  0  0  0  0
   46.4090   33.7740   46.8000 H   0  0  0  0  0  0  0  0  0  0  0  0
   46.9010   34.8820   42.4530 C   0  0  0  0  0  0  0  0  0  0  0  0
   45.9460   35.9060   42.6410 C   0  0  0  0  0  0  0  0  0  0  0  0
   44.9810   35.7420   43.6660 C   0  0  0  0  0  0  0  0  0  0  0  0
   45.0430   34.6000   44.4020 N   0  0  0  0  0  0  0  0  0  0  0  0
   45.9930   33.6510   44.1630 C   0  0  0  0  0  0  0  0  0  0  0  0
   46.9050   33.7830   43.2110 N   0  0  0  0  0  0  0  0  0  0  0  0
   45.9010   36.8150   42.0540 H   0  0  0  0  0  0  0  0  0  0  0  0
   44.2260   36.4920   43.8580 H   0  0  0  0  0  0  0  0  0  0  0  0
   47.8220   35.1580   41.4040 C   0  0  0  0  0  0  0  0  0  0  0  0
   48.8660   35.8720   41.5160 O   0  0  0  0  0  0  0  0  0  0  0  0
   47.8010   34.8220   40.3570 H   0  0  0  0  0  0  0  0  0  0  0  0
   45.4900   31.9200   47.5370 C   0  0  0  0  0  3  0  0  0  0  0  0
   45.8560   32.3290   48.9430 C   0  0  0  0  0  2  0  0  0  0  0  0
   45.2430   31.1860   49.7540 C   0  0  0  0  0  2  0  0  0  0  0  0
   44.9740   30.0570   48.7910 C   0  0  0  0  0  2  0  0  0  0  0  0
   45.7850   30.4580   47.5500 C   0  0  0  0  0  2  0  0  0  0  0  0
  1  4  1  6  0  0  0
  1  2  1  0  0  0  0
  1  3  1  0  0  0  0
  2  5  1  0  0  0  0
  2  3  1  0  0  0  0
  3  7  1  1  0  0  0
  3 19  1  0  0  0  0
  6  2  1  0  0  0  0
  8  9  2  0  0  0  0
  8 13  1  0  0  0  0
  9 10  1  0  0  0  0
 10 15  1  0  0  0  0
 10 11  2  0  0  0  0
 12 11  1  0  0  0  0
 12  1  1  0  0  0  0
 13 12  2  0  0  0  0
 14  9  1  0  0  0  0
 16 17  2  0  0  0  0
 16  8  1  0  0  0  0
 18 16  1  0  0  0  0
 19 23  1  0  0  0  0
 19 20  1  0  0  0  0
 20 21  1  0  0  0  0
 22 21  1  0  0  0  0
 23 22  1  0  0  0  0
M  END
>  <minimizedAffinity>
-4.67070913

>  <minimizedRMSD>
1.54452896

$$$$
