
 OpenBabel03252509303D

 17 18  0  0  0  0  0  0  0  0999 V2000
   44.5350   36.0600   44.4640 C   0  0  0  0  0  0  0  0  0  0  0  0
   45.3610   35.8660   43.3290 C   0  0  0  0  0  0  0  0  0  0  0  0
   46.2220   34.7680   43.3570 C   0  0  0  0  0  0  0  0  0  0  0  0
   46.2280   33.9470   44.4570 N   0  0  0  0  0  0  0  0  0  0  0  0
   45.4100   34.1910   45.5120 C   0  0  0  0  0  0  0  0  0  0  0  0
   44.5750   35.2330   45.5170 N   0  0  0  0  0  0  0  0  0  0  0  0
   43.8610   36.8970   44.4760 H   0  0  0  0  0  0  0  0  0  0  0  0
   45.3080   36.5510   42.4930 H   0  0  0  0  0  0  0  0  0  0  0  0
   45.5030   33.4780   46.3200 H   0  0  0  0  0  0  0  0  0  0  0  0
   47.0790   34.5540   42.1930 C   0  0  0  0  0  0  0  0  0  0  0  0
   47.2610   35.4990   41.6580 H   0  0  0  0  0  0  0  0  0  0  0  0
   46.6540   33.7540   41.5350 H   0  0  0  0  0  0  0  0  0  0  0  0
   48.3970   34.0160   42.7070 C   0  0  0  0  0  3  0  0  0  0  0  0
   48.7070   32.6700   42.1070 C   0  0  0  0  0  2  0  0  0  0  0  0
   50.1420   32.7280   41.6140 C   0  0  0  0  0  2  0  0  0  0  0  0
   50.7050   33.8610   42.4830 C   0  0  0  0  0  2  0  0  0  0  0  0
   49.5680   34.8540   42.3010 C   0  0  0  0  0  2  0  0  0  0  0  0
  1  7  1  0  0  0  0
  1  6  1  0  0  0  0
  2  3  1  0  0  0  0
  2  1  2  0  0  0  0
  3  4  2  0  0  0  0
  4  5  1  0  0  0  0
  5  6  2  0  0  0  0
  5  9  1  0  0  0  0
  8  2  1  0  0  0  0
 10 13  1  0  0  0  0
 10  3  1  0  0  0  0
 11 10  1  0  0  0  0
 12 10  1  0  0  0  0
 14 13  1  0  0  0  0
 15 14  1  0  0  0  0
 15 16  1  0  0  0  0
 17 16  1  0  0  0  0
 17 13  1  0  0  0  0
M  END
>  <minimizedAffinity>
-4.41985655

>  <minimizedRMSD>
1.15370941

$$$$
