
 OpenBabel03252507583D

 23 25  0  0  1  0  0  0  0  0999 V2000
   45.7130   32.4830   44.8580 C   0  0  1  0  0  0  0  0  0  0  0  0
   47.1810   32.2590   45.0440 C   0  0  0  0  0  0  0  0  0  0  0  0
   46.3670   32.8070   46.1650 C   0  0  2  0  0  0  0  0  0  0  0  0
   45.0740   31.5860   44.7520 H   0  0  0  0  0  0  0  0  0  0  0  0
   47.4960   31.1980   45.0710 H   0  0  0  0  0  0  0  0  0  0  0  0
   47.8140   32.8870   44.4060 H   0  0  0  0  0  0  0  0  0  0  0  0
   46.5830   33.8810   46.4100 H   0  0  0  0  0  0  0  0  0  0  0  0
   44.5160   34.6670   42.1610 C   0  0  0  0  0  0  0  0  0  0  0  0
   44.4020   35.9250   42.7950 C   0  0  0  0  0  0  0  0  0  0  0  0
   44.7380   36.0160   44.1690 C   0  0  0  0  0  0  0  0  0  0  0  0
   45.1500   34.8750   44.7860 N   0  0  0  0  0  0  0  0  0  0  0  0
   45.2350   33.6930   44.1110 C   0  0  0  0  0  0  0  0  0  0  0  0
   44.9260   33.5850   42.8270 N   0  0  0  0  0  0  0  0  0  0  0  0
   44.0740   36.8310   42.3010 H   0  0  0  0  0  0  0  0  0  0  0  0
   44.6720   36.9510   44.7070 H   0  0  0  0  0  0  0  0  0  0  0  0
   44.1600   34.6970   40.7850 C   0  0  0  0  0  0  0  0  0  0  0  0
   44.4430   33.7960   39.9350 O   0  0  0  0  0  0  0  0  0  0  0  0
   43.6020   35.4660   40.2300 H   0  0  0  0  0  0  0  0  0  0  0  0
   46.2320   31.9280   47.3550 C   0  0  0  0  0  3  0  0  0  0  0  0
   45.5340   30.6220   47.0690 C   0  0  0  0  0  2  0  0  0  0  0  0
   45.3130   30.0880   48.4870 C   0  0  0  0  0  2  0  0  0  0  0  0
   45.4910   31.2500   49.4290 C   0  0  0  0  0  2  0  0  0  0  0  0
   45.4330   32.4670   48.4940 C   0  0  0  0  0  2  0  0  0  0  0  0
  1  4  1  6  0  0  0
  1  2  1  0  0  0  0
  1  3  1  0  0  0  0
  2  5  1  0  0  0  0
  2  3  1  0  0  0  0
  3  7  1  1  0  0  0
  3 19  1  0  0  0  0
  6  2  1  0  0  0  0
  8  9  2  0  0  0  0
  8 13  1  0  0  0  0
  9 10  1  0  0  0  0
 10 15  1  0  0  0  0
 10 11  2  0  0  0  0
 12 11  1  0  0  0  0
 12  1  1  0  0  0  0
 13 12  2  0  0  0  0
 14  9  1  0  0  0  0
 16  8  1  0  0  0  0
 17 16  2  0  0  0  0
 18 16  1  0  0  0  0
 19 23  1  0  0  0  0
 20 19  1  0  0  0  0
 20 21  1  0  0  0  0
 21 22  1  0  0  0  0
 23 22  1  0  0  0  0
M  END
>  <minimizedAffinity>
-4.68043852

>  <minimizedRMSD>
2.02556157

$$$$
