
 OpenBabel03252504243D

 17 18  0  0  0  0  0  0  0  0999 V2000
   44.8210   35.3720   44.6440 C   0  0  0  0  0  0  0  0  0  0  0  0
   45.7180   34.8490   43.7220 C   0  0  0  0  0  0  0  0  0  0  0  0
   46.5040   33.7680   44.1300 C   0  0  0  0  0  0  0  0  0  0  0  0
   46.3410   33.3070   45.3890 N   0  0  0  0  0  0  0  0  0  0  0  0
   45.4640   33.8340   46.2630 C   0  0  0  0  0  0  0  0  0  0  0  0
   44.6800   34.8850   45.9080 N   0  0  0  0  0  0  0  0  0  0  0  0
   44.1610   36.2130   44.4340 H   0  0  0  0  0  0  0  0  0  0  0  0
   47.1780   33.3970   43.3940 H   0  0  0  0  0  0  0  0  0  0  0  0
   45.3600   33.4460   47.2510 H   0  0  0  0  0  0  0  0  0  0  0  0
   45.7320   35.5030   42.4050 C   0  0  0  0  0  0  0  0  0  0  0  0
   45.4580   36.5470   42.4810 H   0  0  0  0  0  0  0  0  0  0  0  0
   46.7620   35.4580   41.9620 H   0  0  0  0  0  0  0  0  0  0  0  0
   44.7730   34.8080   41.4770 C   0  0  0  0  0  3  0  0  0  0  0  0
   43.5030   35.6050   41.2520 C   0  0  0  0  0  2  0  0  0  0  0  0
   42.6950   34.5840   40.4650 C   0  0  0  0  0  2  0  0  0  0  0  0
   42.9080   33.3270   41.2850 C   0  0  0  0  0  2  0  0  0  0  0  0
   44.2040   33.5480   42.0730 C   0  0  0  0  0  2  0  0  0  0  0  0
  1  6  1  0  0  0  0
  2  3  1  0  0  0  0
  2  1  2  0  0  0  0
  3  4  2  0  0  0  0
  4  5  1  0  0  0  0
  5  9  1  0  0  0  0
  6  5  2  0  0  0  0
  7  1  1  0  0  0  0
  8  3  1  0  0  0  0
 10 11  1  0  0  0  0
 10  2  1  0  0  0  0
 12 10  1  0  0  0  0
 13 17  1  0  0  0  0
 13 10  1  0  0  0  0
 14 13  1  0  0  0  0
 15 14  1  0  0  0  0
 15 16  1  0  0  0  0
 16 17  1  0  0  0  0
M  END
>  <minimizedAffinity>
-3.75810885

>  <minimizedRMSD>
1.72450364

$$$$
