
 OpenBabel03242517383D

 29 31  0  0  0  0  0  0  0  0999 V2000
   43.0250   35.7970   41.2180 C   0  0  0  0  0  0  0  0  0  0  0  0
   41.8330   35.3140   41.5110 C   0  0  0  0  0  0  0  0  0  0  0  0
   44.9430   35.6670   42.7870 C   0  0  0  0  0  0  0  0  0  0  0  0
   44.2830   35.2440   41.6490 C   0  0  0  0  0  0  0  0  0  0  0  0
   44.8850   34.2460   40.9160 C   0  0  0  0  0  0  0  0  0  0  0  0
   46.0770   33.7090   41.3090 N   0  0  0  0  0  0  0  0  0  0  0  0
   46.6940   34.1480   42.4290 C   0  0  0  0  0  0  0  0  0  0  0  0
   46.1220   35.1230   43.1590 N   0  0  0  0  0  0  0  0  0  0  0  0
   44.4290   36.4640   43.3430 H   0  0  0  0  0  0  0  0  0  0  0  0
   44.4530   33.8410   40.0060 H   0  0  0  0  0  0  0  0  0  0  0  0
   47.9900   33.6220   42.9270 C   0  0  0  0  0  0  0  0  0  0  0  0
   49.1140   34.6140   42.7410 C   0  0  0  0  0  0  0  0  0  0  0  0
   50.2880   33.7340   42.2900 C   0  0  0  0  0  0  0  0  0  0  0  0
   49.5420   32.8030   41.3390 C   0  0  0  0  0  0  0  0  0  0  0  0
   48.4040   32.3390   42.2480 C   0  0  0  0  0  0  0  0  0  0  0  0
   40.5590   35.9440   41.0270 C   0  0  0  0  0  0  0  0  0  0  0  0
   40.7160   36.9830   40.6750 H   0  0  0  0  0  0  0  0  0  0  0  0
   39.8610   35.9400   41.8910 H   0  0  0  0  0  0  0  0  0  0  0  0
   39.9590   35.1440   39.9360 C   0  0  0  0  0  0  0  0  0  0  0  0
   40.4360   35.2930   38.6390 C   0  0  0  0  0  0  0  0  0  0  0  0
   39.8790   34.5490   37.6160 C   0  0  0  0  0  0  0  0  0  0  0  0
   38.8510   33.6500   37.8350 C   0  0  0  0  0  0  0  0  0  0  0  0
   38.3630   33.4880   39.1220 C   0  0  0  0  0  0  0  0  0  0  0  0
   38.9190   34.2320   40.1520 C   0  0  0  0  0  0  0  0  0  0  0  0
   41.2480   35.9870   38.3890 H   0  0  0  0  0  0  0  0  0  0  0  0
   40.2090   34.6230   36.5860 H   0  0  0  0  0  0  0  0  0  0  0  0
   38.3720   33.0390   37.0890 H   0  0  0  0  0  0  0  0  0  0  0  0
   37.5600   32.8080   39.4030 H   0  0  0  0  0  0  0  0  0  0  0  0
   38.5520   34.1240   41.1760 H   0  0  0  0  0  0  0  0  0  0  0  0
  1  2  2  0  0  0  0
  1  4  1  0  0  0  0
  3  8  1  0  0  0  0
  3  9  1  0  0  0  0
  4  3  2  0  0  0  0
  5  6  2  0  0  0  0
  5  4  1  0  0  0  0
  6  7  1  0  0  0  0
  7 11  1  0  0  0  0
  7  8  2  0  0  0  0
 10  5  1  0  0  0  0
 12 11  1  0  0  0  0
 13 12  1  0  0  0  0
 14 15  1  0  0  0  0
 14 13  1  0  0  0  0
 15 11  1  0  0  0  0
 16  2  1  0  0  0  0
 16 18  1  0  0  0  0
 17 16  1  0  0  0  0
 19 24  1  0  0  0  0
 19 16  1  0  0  0  0
 20 19  2  0  0  0  0
 21 22  2  0  0  0  0
 21 20  1  0  0  0  0
 22 23  1  0  0  0  0
 23 28  1  0  0  0  0
 23 24  2  0  0  0  0
 24 29  1  0  0  0  0
 25 20  1  0  0  0  0
 26 21  1  0  0  0  0
 27 22  1  0  0  0  0
M  END
>  <minimizedAffinity>
-6.39065027

>  <minimizedRMSD>
2.95589375

$$$$
