
 OpenBabel03242523543D

 41 44  0  0  1  0  0  0  0  0999 V2000
   42.8160   34.3690   38.9460 C   0  0  1  0  0  0  0  0  0  0  0  0
   43.0330   35.1950   40.2080 C   0  0  1  0  0  0  0  0  0  0  0  0
   41.7760   35.6240   40.6760 O   0  0  0  0  0  0  0  0  0  0  0  0
   40.8910   35.9250   39.6380 C   0  0  0  0  0  0  0  0  0  0  0  0
   40.4550   34.6830   38.8880 C   0  0  2  0  0  0  0  0  0  0  0  0
   41.5550   33.5940   39.1620 C   0  0  1  0  0  0  0  0  0  0  0  0
   43.7020   33.7150   38.8080 H   0  0  0  0  0  0  0  0  0  0  0  0
   43.7140   36.0430   40.0520 H   0  0  0  0  0  0  0  0  0  0  0  0
   41.2790   36.7190   38.9690 H   0  0  0  0  0  0  0  0  0  0  0  0
   39.9970   36.3410   40.1120 H   0  0  0  0  0  0  0  0  0  0  0  0
   39.4820   34.2820   39.2210 H   0  0  0  0  0  0  0  0  0  0  0  0
   41.3150   33.4860   40.2700 H   0  0  0  0  0  0  0  0  0  0  0  0
   42.7010   35.1950   37.8210 O   0  0  0  0  0  0  0  0  0  0  0  0
   43.5960   35.3640   37.4880 H   0  0  0  0  0  0  0  0  0  0  0  0
   40.5130   34.9160   37.5220 O   0  0  0  0  0  0  0  0  0  0  0  0
   39.9810   34.2670   36.9990 H   0  0  0  0  0  0  0  0  0  0  0  0
   43.4600   34.2770   41.1790 O   0  0  0  0  0  0  0  0  0  0  0  0
   44.6060   34.3690   41.8630 C   0  0  0  0  0  0  0  0  0  0  0  0
   45.8380   34.4920   41.2030 C   0  0  0  0  0  0  0  0  0  0  0  0
   46.9890   34.5840   41.9700 C   0  0  0  0  0  0  0  0  0  0  0  0
   46.8930   34.5540   43.3500 N   0  0  0  0  0  0  0  0  0  0  0  0
   45.6860   34.4340   43.9510 C   0  0  0  0  0  0  0  0  0  0  0  0
   44.5500   34.3420   43.2140 N   0  0  0  0  0  0  0  0  0  0  0  0
   45.8890   34.5130   40.1240 H   0  0  0  0  0  0  0  0  0  0  0  0
   45.6280   34.4110   45.0310 H   0  0  0  0  0  0  0  0  0  0  0  0
   48.3410   34.7070   41.3350 C   0  0  0  0  0  0  0  0  0  0  0  0
   49.0700   36.0350   41.5270 C   0  0  0  0  0  0  0  0  0  0  0  0
   49.5280   34.7030   42.1290 C   0  0  0  0  0  0  0  0  0  0  0  0
   48.3250   34.4140   40.2710 H   0  0  0  0  0  0  0  0  0  0  0  0
   48.6610   36.7580   42.2620 H   0  0  0  0  0  0  0  0  0  0  0  0
   49.6900   36.4340   40.7100 H   0  0  0  0  0  0  0  0  0  0  0  0
   49.4830   34.6160   43.2340 H   0  0  0  0  0  0  0  0  0  0  0  0
   50.4740   34.2950   41.7080 H   0  0  0  0  0  0  0  0  0  0  0  0
   41.3230   32.5600   38.3330 O   0  0  0  0  0  0  0  0  0  0  0  0
   40.3860   31.5870   38.4390 C   0  0  0  0  0  0  0  0  0  0  0  0
   39.8530   31.0550   37.3670 O   0  0  0  0  0  0  0  0  0  0  0  0
   39.5710   30.7200   39.3460 C   0  0  0  0  0  3  0  0  0  0  0  0
   38.3240   30.3340   38.5460 C   0  0  0  0  0  2  0  0  0  0  0  0
   37.5380   29.6100   39.6180 C   0  0  0  0  0  2  0  0  0  0  0  0
   37.7120   30.5410   40.7970 C   0  0  0  0  0  2  0  0  0  0  0  0
   38.9540   31.3830   40.5110 C   0  0  0  0  0  2  0  0  0  0  0  0
  1  7  1  6  0  0  0
  1  6  1  0  0  0  0
  1  2  1  0  0  0  0
  2  8  1  6  0  0  0
  2  3  1  0  0  0  0
  2 17  1  0  0  0  0
  4 10  1  0  0  0  0
  4  3  1  0  0  0  0
  5  6  1  0  0  0  0
  5 11  1  1  0  0  0
  5  4  1  0  0  0  0
  6 12  1  1  0  0  0
  9  4  1  0  0  0  0
 13  1  1  0  0  0  0
 14 13  1  0  0  0  0
 15  5  1  0  0  0  0
 16 15  1  0  0  0  0
 17 18  1  0  0  0  0
 18 23  1  0  0  0  0
 19 18  2  0  0  0  0
 19 20  1  0  0  0  0
 20 21  2  0  0  0  0
 21 22  1  0  0  0  0
 22 25  1  0  0  0  0
 23 22  2  0  0  0  0
 24 19  1  0  0  0  0
 26 27  1  0  0  0  0
 26 20  1  0  0  0  0
 26 28  1  0  0  0  0
 27 28  1  0  0  0  0
 27 30  1  0  0  0  0
 28 32  1  0  0  0  0
 29 26  1  0  0  0  0
 31 27  1  0  0  0  0
 33 28  1  0  0  0  0
 34 35  1  0  0  0  0
 34  6  1  0  0  0  0
 35 37  1  0  0  0  0
 36 35  2  0  0  0  0
 37 41  1  0  0  0  0
 38 37  1  0  0  0  0
 38 39  1  0  0  0  0
 39 40  1  0  0  0  0
 41 40  1  0  0  0  0
M  END
>  <minimizedAffinity>
-6.32784271

>  <minimizedRMSD>
1.81393492

$$$$
