
 OpenBabel03242523543D

 41 44  0  0  1  0  0  0  0  0999 V2000
   42.8150   34.5170   38.7520 C   0  0  1  0  0  0  0  0  0  0  0  0
   42.9530   35.1810   40.1160 C   0  0  1  0  0  0  0  0  0  0  0  0
   41.6610   35.4030   40.6310 O   0  0  0  0  0  0  0  0  0  0  0  0
   40.7390   35.7450   39.6390 C   0  0  0  0  0  0  0  0  0  0  0  0
   40.4340   34.5770   38.7240 C   0  0  2  0  0  0  0  0  0  0  0  0
   41.6480   33.5870   38.8540 C   0  0  1  0  0  0  0  0  0  0  0  0
   43.7660   33.9890   38.5320 H   0  0  0  0  0  0  0  0  0  0  0  0
   43.5360   36.1120   40.0820 H   0  0  0  0  0  0  0  0  0  0  0  0
   41.0320   36.6610   39.0870 H   0  0  0  0  0  0  0  0  0  0  0  0
   39.8100   35.9930   40.1610 H   0  0  0  0  0  0  0  0  0  0  0  0
   39.5130   34.0320   38.9940 H   0  0  0  0  0  0  0  0  0  0  0  0
   41.4320   33.3030   39.9350 H   0  0  0  0  0  0  0  0  0  0  0  0
   42.6010   35.4720   37.7510 O   0  0  0  0  0  0  0  0  0  0  0  0
   43.4700   35.7810   37.4490 H   0  0  0  0  0  0  0  0  0  0  0  0
   40.4540   34.9990   37.4030 O   0  0  0  0  0  0  0  0  0  0  0  0
   39.9910   34.3740   36.7930 H   0  0  0  0  0  0  0  0  0  0  0  0
   43.4860   34.1920   40.9560 O   0  0  0  0  0  0  0  0  0  0  0  0
   44.5960   34.3310   41.6890 C   0  0  0  0  0  0  0  0  0  0  0  0
   45.8580   34.4320   41.0860 C   0  0  0  0  0  0  0  0  0  0  0  0
   46.9690   34.5760   41.9020 C   0  0  0  0  0  0  0  0  0  0  0  0
   46.8040   34.6180   43.2750 N   0  0  0  0  0  0  0  0  0  0  0  0
   45.5700   34.5170   43.8220 C   0  0  0  0  0  0  0  0  0  0  0  0
   44.4730   34.3750   43.0350 N   0  0  0  0  0  0  0  0  0  0  0  0
   45.9620   34.3960   40.0110 H   0  0  0  0  0  0  0  0  0  0  0  0
   45.4580   34.5510   44.8970 H   0  0  0  0  0  0  0  0  0  0  0  0
   48.3490   34.6790   41.3290 C   0  0  0  0  0  0  0  0  0  0  0  0
   49.0660   36.0160   41.5040 C   0  0  0  0  0  0  0  0  0  0  0  0
   49.4970   34.7110   42.1790 C   0  0  0  0  0  0  0  0  0  0  0  0
   48.3860   34.3440   40.2780 H   0  0  0  0  0  0  0  0  0  0  0  0
   48.6210   36.7660   42.1890 H   0  0  0  0  0  0  0  0  0  0  0  0
   49.7240   36.3850   40.7030 H   0  0  0  0  0  0  0  0  0  0  0  0
   49.3980   34.6660   43.2830 H   0  0  0  0  0  0  0  0  0  0  0  0
   50.4630   34.2900   41.8210 H   0  0  0  0  0  0  0  0  0  0  0  0
   41.5220   32.6570   37.8900 O   0  0  0  0  0  0  0  0  0  0  0  0
   40.8480   31.4830   37.9330 C   0  0  0  0  0  0  0  0  0  0  0  0
   39.6240   31.3990   37.4730 O   0  0  0  0  0  0  0  0  0  0  0  0
   40.8650   30.0370   38.3170 C   0  0  0  0  0  3  0  0  0  0  0  0
   42.2530   29.7800   38.9130 C   0  0  0  0  0  2  0  0  0  0  0  0
   42.1820   28.2800   39.1040 C   0  0  0  0  0  2  0  0  0  0  0  0
   41.5660   27.8410   37.7940 C   0  0  0  0  0  2  0  0  0  0  0  0
   40.8560   29.0610   37.2120 C   0  0  0  0  0  2  0  0  0  0  0  0
  1  7  1  6  0  0  0
  1  6  1  0  0  0  0
  1  2  1  0  0  0  0
  2  8  1  6  0  0  0
  2  3  1  0  0  0  0
  2 17  1  0  0  0  0
  4 10  1  0  0  0  0
  4  3  1  0  0  0  0
  5  6  1  0  0  0  0
  5 11  1  1  0  0  0
  5  4  1  0  0  0  0
  6 12  1  1  0  0  0
  9  4  1  0  0  0  0
 13  1  1  0  0  0  0
 14 13  1  0  0  0  0
 15  5  1  0  0  0  0
 16 15  1  0  0  0  0
 17 18  1  0  0  0  0
 18 23  1  0  0  0  0
 19 18  2  0  0  0  0
 19 20  1  0  0  0  0
 20 21  2  0  0  0  0
 21 22  1  0  0  0  0
 22 25  1  0  0  0  0
 23 22  2  0  0  0  0
 24 19  1  0  0  0  0
 26 27  1  0  0  0  0
 26 20  1  0  0  0  0
 26 28  1  0  0  0  0
 27 28  1  0  0  0  0
 27 30  1  0  0  0  0
 28 32  1  0  0  0  0
 29 26  1  0  0  0  0
 31 27  1  0  0  0  0
 33 28  1  0  0  0  0
 34 35  1  0  0  0  0
 34  6  1  0  0  0  0
 35 37  1  0  0  0  0
 36 35  2  0  0  0  0
 37 38  1  0  0  0  0
 38 39  1  0  0  0  0
 40 39  1  0  0  0  0
 41 40  1  0  0  0  0
 41 37  1  0  0  0  0
M  END
>  <minimizedAffinity>
-5.60981846

>  <minimizedRMSD>
0.0817724839

$$$$
