
 OpenBabel03242514333D

 22 23  0  0  0  0  0  0  0  0999 V2000
   49.4780   35.5370   42.7110 O   0  0  0  0  0  0  0  0  0  0  0  0
   48.9430   34.3540   41.9740 P   0  0  1  0  0  0  0  0  0  0  0  0
   50.2470   33.3590   41.6090 O   0  0  0  0  0  0  0  0  0  0  0  0
   49.9420   32.4090   41.6350 H   0  0  0  0  0  0  0  0  0  0  0  0
   47.7890   33.5220   42.9280 O   0  0  0  0  0  0  0  0  0  0  0  0
   46.1810   35.2870   42.8580 C   0  0  0  0  0  0  0  0  0  0  0  0
   46.7290   34.2030   43.5240 C   0  0  0  0  0  0  0  0  0  0  0  0
   46.1910   33.8450   44.7690 C   0  0  0  0  0  0  0  0  0  0  0  0
   45.1520   34.5860   45.2560 N   0  0  0  0  0  0  0  0  0  0  0  0
   44.6530   35.6240   44.5810 C   0  0  0  0  0  0  0  0  0  0  0  0
   45.1640   35.9660   43.3980 N   0  0  0  0  0  0  0  0  0  0  0  0
   46.5320   35.6370   41.8920 H   0  0  0  0  0  0  0  0  0  0  0  0
   46.6200   33.0000   45.2860 H   0  0  0  0  0  0  0  0  0  0  0  0
   43.8320   36.0860   45.1320 H   0  0  0  0  0  0  0  0  0  0  0  0
   48.2420   34.8850   40.5550 O   0  0  0  0  0  0  0  0  0  0  0  0
   47.7520   34.0990   39.5650 C   0  0  0  0  0  0  0  0  0  0  0  0
   46.5100   33.8150   39.7550 O   0  0  0  0  0  0  0  0  0  0  0  0
   47.7900   33.3150   38.3000 C   0  0  0  0  0  0  0  0  0  0  0  0
   48.2800   34.2630   37.2110 C   0  0  0  0  0  0  0  0  0  0  0  0
   48.5540   33.2760   36.0910 C   0  0  0  0  0  0  0  0  0  0  0  0
   49.3130   32.1840   36.8310 C   0  0  0  0  0  0  0  0  0  0  0  0
   48.8830   32.2910   38.2970 C   0  0  0  0  0  0  0  0  0  0  0  0
  2  1  2  1  0  0  0
  2  5  1  0  0  0  0
  3  4  1  0  0  0  0
  3  2  1  0  0  0  0
  5  7  1  0  0  0  0
  6 11  2  0  0  0  0
  6  7  1  0  0  0  0
  7  8  2  0  0  0  0
  8  9  1  0  0  0  0
  8 13  1  0  0  0  0
 10 14  1  0  0  0  0
 10  9  2  0  0  0  0
 11 10  1  0  0  0  0
 12  6  1  0  0  0  0
 15  2  1  0  0  0  0
 16 17  2  0  0  0  0
 16 15  1  0  0  0  0
 18 16  1  0  0  0  0
 19 18  1  0  0  0  0
 20 21  1  0  0  0  0
 20 19  1  0  0  0  0
 21 22  1  0  0  0  0
 22 18  1  0  0  0  0
M  END
>  <minimizedAffinity>
-4.57542562

>  <minimizedRMSD>
0.584548414

$$$$
