
 OpenBabel03242523543D

 41 44  0  0  1  0  0  0  0  0999 V2000
   42.7690   34.3560   38.8550 C   0  0  1  0  0  0  0  0  0  0  0  0
   43.0380   35.1590   40.1210 C   0  0  1  0  0  0  0  0  0  0  0  0
   41.8040   35.6030   40.6330 O   0  0  0  0  0  0  0  0  0  0  0  0
   40.8940   35.9340   39.6270 C   0  0  0  0  0  0  0  0  0  0  0  0
   40.4140   34.7120   38.8720 C   0  0  2  0  0  0  0  0  0  0  0  0
   41.5020   33.6000   39.0970 C   0  0  1  0  0  0  0  0  0  0  0  0
   43.6390   33.6900   38.6810 H   0  0  0  0  0  0  0  0  0  0  0  0
   43.7290   35.9980   39.9570 H   0  0  0  0  0  0  0  0  0  0  0  0
   41.2760   36.7320   38.9580 H   0  0  0  0  0  0  0  0  0  0  0  0
   40.0220   36.3590   40.1330 H   0  0  0  0  0  0  0  0  0  0  0  0
   39.4440   34.3230   39.2280 H   0  0  0  0  0  0  0  0  0  0  0  0
   41.2930   33.4790   40.2100 H   0  0  0  0  0  0  0  0  0  0  0  0
   42.6350   35.2010   37.7460 O   0  0  0  0  0  0  0  0  0  0  0  0
   43.5240   35.3600   37.3890 H   0  0  0  0  0  0  0  0  0  0  0  0
   40.4350   34.9640   37.5090 O   0  0  0  0  0  0  0  0  0  0  0  0
   39.8770   34.3330   36.9920 H   0  0  0  0  0  0  0  0  0  0  0  0
   43.4780   34.2190   41.0660 O   0  0  0  0  0  0  0  0  0  0  0  0
   44.6050   34.3240   41.7780 C   0  0  0  0  0  0  0  0  0  0  0  0
   45.8540   34.4490   41.1490 C   0  0  0  0  0  0  0  0  0  0  0  0
   46.9830   34.5550   41.9440 C   0  0  0  0  0  0  0  0  0  0  0  0
   46.8520   34.5380   43.3220 N   0  0  0  0  0  0  0  0  0  0  0  0
   45.6300   34.4170   43.8930 C   0  0  0  0  0  0  0  0  0  0  0  0
   44.5140   34.3110   43.1270 N   0  0  0  0  0  0  0  0  0  0  0  0
   45.9320   34.4590   40.0720 H   0  0  0  0  0  0  0  0  0  0  0  0
   45.5440   34.4050   44.9710 H   0  0  0  0  0  0  0  0  0  0  0  0
   48.3500   34.6800   41.3440 C   0  0  0  0  0  0  0  0  0  0  0  0
   49.0600   36.0200   41.5260 C   0  0  0  0  0  0  0  0  0  0  0  0
   49.5150   34.7070   42.1700 C   0  0  0  0  0  0  0  0  0  0  0  0
   48.3670   34.3630   40.2870 H   0  0  0  0  0  0  0  0  0  0  0  0
   48.6230   36.7540   42.2330 H   0  0  0  0  0  0  0  0  0  0  0  0
   49.6970   36.4080   40.7180 H   0  0  0  0  0  0  0  0  0  0  0  0
   49.4410   34.6430   43.2750 H   0  0  0  0  0  0  0  0  0  0  0  0
   50.4770   34.3010   41.7830 H   0  0  0  0  0  0  0  0  0  0  0  0
   41.2270   32.5830   38.2600 O   0  0  0  0  0  0  0  0  0  0  0  0
   40.1320   31.7850   38.2330 C   0  0  0  0  0  0  0  0  0  0  0  0
   39.1290   32.0560   37.4340 O   0  0  0  0  0  0  0  0  0  0  0  0
   39.4510   30.5660   38.7700 C   0  0  0  0  0  3  0  0  0  0  0  0
   38.6310   30.0000   37.6080 C   0  0  0  0  0  2  0  0  0  0  0  0
   37.8910   28.8910   38.3250 C   0  0  0  0  0  2  0  0  0  0  0  0
   37.4620   29.5900   39.5960 C   0  0  0  0  0  2  0  0  0  0  0  0
   38.3920   30.7900   39.7710 C   0  0  0  0  0  2  0  0  0  0  0  0
  1  7  1  6  0  0  0
  1  6  1  0  0  0  0
  1  2  1  0  0  0  0
  2  8  1  6  0  0  0
  2  3  1  0  0  0  0
  2 17  1  0  0  0  0
  4 10  1  0  0  0  0
  4  3  1  0  0  0  0
  5  6  1  0  0  0  0
  5 11  1  1  0  0  0
  5  4  1  0  0  0  0
  6 12  1  1  0  0  0
  9  4  1  0  0  0  0
 13  1  1  0  0  0  0
 14 13  1  0  0  0  0
 15  5  1  0  0  0  0
 16 15  1  0  0  0  0
 17 18  1  0  0  0  0
 18 23  1  0  0  0  0
 19 18  2  0  0  0  0
 19 20  1  0  0  0  0
 20 21  2  0  0  0  0
 21 22  1  0  0  0  0
 22 25  1  0  0  0  0
 23 22  2  0  0  0  0
 24 19  1  0  0  0  0
 26 27  1  0  0  0  0
 26 20  1  0  0  0  0
 26 28  1  0  0  0  0
 27 28  1  0  0  0  0
 27 30  1  0  0  0  0
 28 32  1  0  0  0  0
 29 26  1  0  0  0  0
 31 27  1  0  0  0  0
 33 28  1  0  0  0  0
 34  6  1  0  0  0  0
 35 34  1  0  0  0  0
 35 37  1  0  0  0  0
 36 35  2  0  0  0  0
 37 41  1  0  0  0  0
 38 39  1  0  0  0  0
 38 37  1  0  0  0  0
 39 40  1  0  0  0  0
 40 41  1  0  0  0  0
M  END
>  <minimizedAffinity>
-6.22825527

>  <minimizedRMSD>
1.29873037

$$$$
