
 OpenBabel03242523543D

 41 44  0  0  1  0  0  0  0  0999 V2000
   42.8150   34.5200   38.7460 C   0  0  1  0  0  0  0  0  0  0  0  0
   42.9550   35.1840   40.1100 C   0  0  1  0  0  0  0  0  0  0  0  0
   41.6640   35.4030   40.6280 O   0  0  0  0  0  0  0  0  0  0  0  0
   40.7400   35.7440   39.6390 C   0  0  0  0  0  0  0  0  0  0  0  0
   40.4340   34.5770   38.7230 C   0  0  2  0  0  0  0  0  0  0  0  0
   41.6500   33.5890   38.8490 C   0  0  1  0  0  0  0  0  0  0  0  0
   43.7660   33.9930   38.5220 H   0  0  0  0  0  0  0  0  0  0  0  0
   43.5370   36.1150   40.0740 H   0  0  0  0  0  0  0  0  0  0  0  0
   41.0300   36.6610   39.0870 H   0  0  0  0  0  0  0  0  0  0  0  0
   39.8110   35.9900   40.1630 H   0  0  0  0  0  0  0  0  0  0  0  0
   39.5150   34.0290   38.9950 H   0  0  0  0  0  0  0  0  0  0  0  0
   41.4370   33.3030   39.9300 H   0  0  0  0  0  0  0  0  0  0  0  0
   42.5960   35.4750   37.7450 O   0  0  0  0  0  0  0  0  0  0  0  0
   43.4640   35.7860   37.4420 H   0  0  0  0  0  0  0  0  0  0  0  0
   40.4490   35.0000   37.4030 O   0  0  0  0  0  0  0  0  0  0  0  0
   39.9860   34.3740   36.7930 H   0  0  0  0  0  0  0  0  0  0  0  0
   43.4920   34.1940   40.9470 O   0  0  0  0  0  0  0  0  0  0  0  0
   44.6000   34.3370   41.6830 C   0  0  0  0  0  0  0  0  0  0  0  0
   45.8640   34.4340   41.0830 C   0  0  0  0  0  0  0  0  0  0  0  0
   46.9720   34.5820   41.9020 C   0  0  0  0  0  0  0  0  0  0  0  0
   46.8030   34.6320   43.2750 N   0  0  0  0  0  0  0  0  0  0  0  0
   45.5670   34.5350   43.8180 C   0  0  0  0  0  0  0  0  0  0  0  0
   44.4720   34.3880   43.0280 N   0  0  0  0  0  0  0  0  0  0  0  0
   45.9720   34.3920   40.0080 H   0  0  0  0  0  0  0  0  0  0  0  0
   45.4520   34.5740   44.8930 H   0  0  0  0  0  0  0  0  0  0  0  0
   48.3540   34.6820   41.3330 C   0  0  0  0  0  0  0  0  0  0  0  0
   49.0740   36.0170   41.5090 C   0  0  0  0  0  0  0  0  0  0  0  0
   49.4990   34.7120   42.1860 C   0  0  0  0  0  0  0  0  0  0  0  0
   48.3940   34.3460   40.2830 H   0  0  0  0  0  0  0  0  0  0  0  0
   48.6280   36.7690   42.1920 H   0  0  0  0  0  0  0  0  0  0  0  0
   49.7340   36.3840   40.7090 H   0  0  0  0  0  0  0  0  0  0  0  0
   49.3980   34.6690   43.2900 H   0  0  0  0  0  0  0  0  0  0  0  0
   50.4660   34.2890   41.8310 H   0  0  0  0  0  0  0  0  0  0  0  0
   41.5220   32.6590   37.8850 O   0  0  0  0  0  0  0  0  0  0  0  0
   40.8530   31.4820   37.9300 C   0  0  0  0  0  0  0  0  0  0  0  0
   39.6260   31.3940   37.4790 O   0  0  0  0  0  0  0  0  0  0  0  0
   40.8790   30.0350   38.3100 C   0  0  0  0  0  3  0  0  0  0  0  0
   42.0830   29.8700   39.2420 C   0  0  0  0  0  2  0  0  0  0  0  0
   42.0790   28.3660   39.4120 C   0  0  0  0  0  2  0  0  0  0  0  0
   41.8530   27.9040   37.9890 C   0  0  0  0  0  2  0  0  0  0  0  0
   41.2270   29.0790   37.2410 C   0  0  0  0  0  2  0  0  0  0  0  0
  1  7  1  6  0  0  0
  1  6  1  0  0  0  0
  1  2  1  0  0  0  0
  2  8  1  6  0  0  0
  2  3  1  0  0  0  0
  2 17  1  0  0  0  0
  4 10  1  0  0  0  0
  4  3  1  0  0  0  0
  5  6  1  0  0  0  0
  5 11  1  1  0  0  0
  5  4  1  0  0  0  0
  6 12  1  1  0  0  0
  9  4  1  0  0  0  0
 13  1  1  0  0  0  0
 14 13  1  0  0  0  0
 15  5  1  0  0  0  0
 16 15  1  0  0  0  0
 17 18  1  0  0  0  0
 18 23  1  0  0  0  0
 19 18  2  0  0  0  0
 19 20  1  0  0  0  0
 20 21  2  0  0  0  0
 21 22  1  0  0  0  0
 22 25  1  0  0  0  0
 23 22  2  0  0  0  0
 24 19  1  0  0  0  0
 26 27  1  0  0  0  0
 26 20  1  0  0  0  0
 26 28  1  0  0  0  0
 27 28  1  0  0  0  0
 27 30  1  0  0  0  0
 28 32  1  0  0  0  0
 29 26  1  0  0  0  0
 31 27  1  0  0  0  0
 33 28  1  0  0  0  0
 34 35  1  0  0  0  0
 34  6  1  0  0  0  0
 35 37  1  0  0  0  0
 36 35  2  0  0  0  0
 37 38  1  0  0  0  0
 38 39  1  0  0  0  0
 40 39  1  0  0  0  0
 41 40  1  0  0  0  0
 41 37  1  0  0  0  0
M  END
>  <minimizedAffinity>
-5.61714792

>  <minimizedRMSD>
0.0787646249

$$$$
