
 OpenBabel03242514343D

 22 23  0  0  0  0  0  0  0  0999 V2000
   34.3010   29.1590   39.8950 O   0  0  0  0  0  0  0  0  0  0  0  0
   35.6400   29.4370   40.4940 P   0  0  1  0  0  0  0  0  0  0  0  0
   35.5190   30.8800   41.3460 O   0  0  0  0  0  0  0  0  0  0  0  0
   36.1200   30.8340   42.1410 H   0  0  0  0  0  0  0  0  0  0  0  0
   36.1160   28.1560   41.5280 O   0  0  0  0  0  0  0  0  0  0  0  0
   38.0960   28.9070   42.6320 C   0  0  0  0  0  0  0  0  0  0  0  0
   37.4560   27.9580   41.8500 C   0  0  0  0  0  0  0  0  0  0  0  0
   38.1920   26.8440   41.4200 C   0  0  0  0  0  0  0  0  0  0  0  0
   39.5020   26.7550   41.7980 N   0  0  0  0  0  0  0  0  0  0  0  0
   40.0800   27.6920   42.5530 C   0  0  0  0  0  0  0  0  0  0  0  0
   39.3830   28.7520   42.9620 N   0  0  0  0  0  0  0  0  0  0  0  0
   37.6090   29.8000   43.0090 H   0  0  0  0  0  0  0  0  0  0  0  0
   37.6920   26.1060   40.8110 H   0  0  0  0  0  0  0  0  0  0  0  0
   41.1240   27.4430   42.7470 H   0  0  0  0  0  0  0  0  0  0  0  0
   36.7470   29.6200   39.2580 O   0  0  0  0  0  0  0  0  0  0  0  0
   37.4010   30.7630   38.9340 C   0  0  0  0  0  0  0  0  0  0  0  0
   37.2250   31.0750   37.6970 O   0  0  0  0  0  0  0  0  0  0  0  0
   38.2570   31.9570   39.1680 C   0  0  0  0  0  3  0  0  0  0  0  0
   37.3150   33.1250   39.4440 C   0  0  0  0  0  2  0  0  0  0  0  0
   38.3030   34.1590   39.9530 C   0  0  0  0  0  2  0  0  0  0  0  0
   39.1280   33.3340   40.9290 C   0  0  0  0  0  2  0  0  0  0  0  0
   39.0010   31.8800   40.4650 C   0  0  0  0  0  2  0  0  0  0  0  0
  2  1  2  6  0  0  0
  2  3  1  0  0  0  0
  2  5  1  0  0  0  0
  3  4  1  0  0  0  0
  5  7  1  0  0  0  0
  6 11  1  0  0  0  0
  6 12  1  0  0  0  0
  7  6  2  0  0  0  0
  8  9  2  0  0  0  0
  8  7  1  0  0  0  0
  9 10  1  0  0  0  0
 10 14  1  0  0  0  0
 10 11  2  0  0  0  0
 13  8  1  0  0  0  0
 15  2  1  0  0  0  0
 16 18  1  0  0  0  0
 16 15  1  0  0  0  0
 17 16  2  0  0  0  0
 18 19  1  0  0  0  0
 18 22  1  0  0  0  0
 19 20  1  0  0  0  0
 20 21  1  0  0  0  0
 22 21  1  0  0  0  0
M  END
>  <minimizedAffinity>
-4.77745771

$$$$

 OpenBabel03242514343D

 22 23  0  0  0  0  0  0  0  0999 V2000
   38.2820   30.4810   41.9710 O   0  0  0  0  0  0  0  0  0  0  0  0
   37.2480   30.2510   40.9180 P   0  0  1  0  0  0  0  0  0  0  0  0
   35.7830   30.8040   41.5240 O   0  0  0  0  0  0  0  0  0  0  0  0
   35.2420   31.1720   40.7700 H   0  0  0  0  0  0  0  0  0  0  0  0
   37.6630   31.0790   39.4760 O   0  0  0  0  0  0  0  0  0  0  0  0
   39.8830   31.7130   38.8620 C   0  0  0  0  0  0  0  0  0  0  0  0
   38.6780   32.0330   39.4670 C   0  0  0  0  0  0  0  0  0  0  0  0
   38.5390   33.3050   40.0430 C   0  0  0  0  0  0  0  0  0  0  0  0
   39.6030   34.1600   39.9740 N   0  0  0  0  0  0  0  0  0  0  0  0
   40.7470   33.8110   39.3820 C   0  0  0  0  0  0  0  0  0  0  0  0
   40.8800   32.6030   38.8340 N   0  0  0  0  0  0  0  0  0  0  0  0
   40.0810   30.7550   38.3920 H   0  0  0  0  0  0  0  0  0  0  0  0
   37.6000   33.5520   40.5140 H   0  0  0  0  0  0  0  0  0  0  0  0
   41.4720   34.6250   39.4290 H   0  0  0  0  0  0  0  0  0  0  0  0
   37.1400   28.6110   40.6280 O   0  0  0  0  0  0  0  0  0  0  0  0
   37.0080   27.6420   41.5670 C   0  0  0  0  0  0  0  0  0  0  0  0
   36.2010   27.9980   42.5060 O   0  0  0  0  0  0  0  0  0  0  0  0
   37.2510   26.3200   42.2070 C   0  0  0  0  0  3  0  0  0  0  0  0
   37.0170   25.2630   41.1330 C   0  0  0  0  0  2  0  0  0  0  0  0
   37.5860   24.0380   41.8270 C   0  0  0  0  0  2  0  0  0  0  0  0
   38.8960   24.5830   42.3740 C   0  0  0  0  0  2  0  0  0  0  0  0
   38.6990   26.0950   42.5170 C   0  0  0  0  0  2  0  0  0  0  0  0
  2  3  1  0  0  0  0
  2  1  2  1  0  0  0
  4  3  1  0  0  0  0
  5  2  1  0  0  0  0
  6  7  1  0  0  0  0
  7  5  1  0  0  0  0
  7  8  2  0  0  0  0
  8 13  1  0  0  0  0
  9  8  1  0  0  0  0
 10 14  1  0  0  0  0
 10  9  2  0  0  0  0
 11  6  2  0  0  0  0
 11 10  1  0  0  0  0
 12  6  1  0  0  0  0
 15  2  1  0  0  0  0
 15 16  1  0  0  0  0
 16 18  1  0  0  0  0
 16 17  2  0  0  0  0
 18 22  1  0  0  0  0
 19 20  1  0  0  0  0
 19 18  1  0  0  0  0
 20 21  1  0  0  0  0
 21 22  1  0  0  0  0
M  END
>  <minimizedAffinity>
-4.69822216

$$$$

 OpenBabel03242514343D

 22 23  0  0  0  0  0  0  0  0999 V2000
   39.1480   32.7110   39.0310 O   0  0  0  0  0  0  0  0  0  0  0  0
   37.8830   31.9930   39.3720 P   0  0  1  0  0  0  0  0  0  0  0  0
   36.9500   33.0340   40.3020 O   0  0  0  0  0  0  0  0  0  0  0  0
   35.9870   32.8690   40.1010 H   0  0  0  0  0  0  0  0  0  0  0  0
   37.0490   31.5340   37.9470 O   0  0  0  0  0  0  0  0  0  0  0  0
   35.6110   29.6380   38.1580 C   0  0  0  0  0  0  0  0  0  0  0  0
   36.7850   30.1940   37.6740 C   0  0  0  0  0  0  0  0  0  0  0  0
   37.6520   29.3770   36.9330 C   0  0  0  0  0  0  0  0  0  0  0  0
   37.2890   28.0760   36.7280 N   0  0  0  0  0  0  0  0  0  0  0  0
   36.1480   27.5800   37.2120 C   0  0  0  0  0  0  0  0  0  0  0  0
   35.3230   28.3550   37.9170 N   0  0  0  0  0  0  0  0  0  0  0  0
   34.8820   30.1920   38.7400 H   0  0  0  0  0  0  0  0  0  0  0  0
   38.5660   29.8110   36.5580 H   0  0  0  0  0  0  0  0  0  0  0  0
   36.0380   26.5290   36.9440 H   0  0  0  0  0  0  0  0  0  0  0  0
   38.2660   30.6420   40.2750 O   0  0  0  0  0  0  0  0  0  0  0  0
   37.5570   30.1560   41.3230 C   0  0  0  0  0  0  0  0  0  0  0  0
   36.3820   30.6800   41.3850 O   0  0  0  0  0  0  0  0  0  0  0  0
   37.3040   29.3200   42.5280 C   0  0  0  0  0  3  0  0  0  0  0  0
   36.5680   28.0730   42.0500 C   0  0  0  0  0  2  0  0  0  0  0  0
   36.6550   27.2090   43.2950 C   0  0  0  0  0  2  0  0  0  0  0  0
   38.1180   27.3770   43.6770 C   0  0  0  0  0  2  0  0  0  0  0  0
   38.5600   28.7150   43.0760 C   0  0  0  0  0  2  0  0  0  0  0  0
  2  1  2  6  0  0  0
  2 15  1  0  0  0  0
  2  3  1  0  0  0  0
  4  3  1  0  0  0  0
  5  2  1  0  0  0  0
  6 12  1  0  0  0  0
  7  5  1  0  0  0  0
  7  6  2  0  0  0  0
  8  7  1  0  0  0  0
  9  8  2  0  0  0  0
  9 10  1  0  0  0  0
 10 11  2  0  0  0  0
 11  6  1  0  0  0  0
 13  8  1  0  0  0  0
 14 10  1  0  0  0  0
 15 16  1  0  0  0  0
 16 17  2  0  0  0  0
 16 18  1  0  0  0  0
 18 22  1  0  0  0  0
 19 18  1  0  0  0  0
 19 20  1  0  0  0  0
 20 21  1  0  0  0  0
 22 21  1  0  0  0  0
M  END
>  <minimizedAffinity>
-4.69571972

$$$$

 OpenBabel03242514343D

 22 23  0  0  0  0  0  0  0  0999 V2000
   39.1580   34.1000   39.9190 O   0  0  0  0  0  0  0  0  0  0  0  0
   38.5430   32.7390   39.9440 P   0  0  1  0  0  0  0  0  0  0  0  0
   36.9480   32.9180   40.4400 O   0  0  0  0  0  0  0  0  0  0  0  0
   36.3900   32.2300   39.9800 H   0  0  0  0  0  0  0  0  0  0  0  0
   38.6220   32.0150   38.3930 O   0  0  0  0  0  0  0  0  0  0  0  0
   40.0090   30.1190   37.9620 C   0  0  0  0  0  0  0  0  0  0  0  0
   39.8180   31.4900   37.9090 C   0  0  0  0  0  0  0  0  0  0  0  0
   40.8420   32.2840   37.3720 C   0  0  0  0  0  0  0  0  0  0  0  0
   41.9730   31.6590   36.9280 N   0  0  0  0  0  0  0  0  0  0  0  0
   42.1160   30.3340   36.9980 C   0  0  0  0  0  0  0  0  0  0  0  0
   41.1450   29.5780   37.5080 N   0  0  0  0  0  0  0  0  0  0  0  0
   39.2740   29.4260   38.3610 H   0  0  0  0  0  0  0  0  0  0  0  0
   40.6920   33.3520   37.3320 H   0  0  0  0  0  0  0  0  0  0  0  0
   43.0830   30.0270   36.5950 H   0  0  0  0  0  0  0  0  0  0  0  0
   39.3640   31.8050   41.0570 O   0  0  0  0  0  0  0  0  0  0  0  0
   38.8450   30.7770   41.7730 C   0  0  0  0  0  0  0  0  0  0  0  0
   37.7450   30.3480   41.2580 O   0  0  0  0  0  0  0  0  0  0  0  0
   38.7810   29.7750   42.8720 C   0  0  0  0  0  3  0  0  0  0  0  0
   37.4570   29.0360   42.7160 C   0  0  0  0  0  2  0  0  0  0  0  0
   37.6720   27.8830   43.6800 C   0  0  0  0  0  2  0  0  0  0  0  0
   39.0760   27.4330   43.3050 C   0  0  0  0  0  2  0  0  0  0  0  0
   39.7560   28.6540   42.6780 C   0  0  0  0  0  2  0  0  0  0  0  0
  2  1  2  6  0  0  0
  2  3  1  0  0  0  0
  2 15  1  0  0  0  0
  4  3  1  0  0  0  0
  5  2  1  0  0  0  0
  6 12  1  0  0  0  0
  7  6  1  0  0  0  0
  7  5  1  0  0  0  0
  8  7  2  0  0  0  0
  9 10  2  0  0  0  0
  9  8  1  0  0  0  0
 10 11  1  0  0  0  0
 11  6  2  0  0  0  0
 13  8  1  0  0  0  0
 14 10  1  0  0  0  0
 15 16  1  0  0  0  0
 16 18  1  0  0  0  0
 17 16  2  0  0  0  0
 19 18  1  0  0  0  0
 19 20  1  0  0  0  0
 21 20  1  0  0  0  0
 22 18  1  0  0  0  0
 22 21  1  0  0  0  0
M  END
>  <minimizedAffinity>
-4.69552183

$$$$

 OpenBabel03242514343D

 22 23  0  0  0  0  0  0  0  0999 V2000
   41.3420   29.2730   42.4150 O   0  0  0  0  0  0  0  0  0  0  0  0
   40.6330   30.5840   42.3240 P   0  0  1  0  0  0  0  0  0  0  0  0
   41.5470   31.7090   43.1730 O   0  0  0  0  0  0  0  0  0  0  0  0
   41.4570   32.5970   42.7260 H   0  0  0  0  0  0  0  0  0  0  0  0
   40.4480   31.0570   40.6880 O   0  0  0  0  0  0  0  0  0  0  0  0
   39.3740   33.1900   40.6540 C   0  0  0  0  0  0  0  0  0  0  0  0
   39.3760   31.8530   40.2900 C   0  0  0  0  0  0  0  0  0  0  0  0
   38.2960   31.3650   39.5400 C   0  0  0  0  0  0  0  0  0  0  0  0
   37.3000   32.2390   39.2070 N   0  0  0  0  0  0  0  0  0  0  0  0
   37.3360   33.5210   39.5780 C   0  0  0  0  0  0  0  0  0  0  0  0
   38.3620   33.9850   40.2910 N   0  0  0  0  0  0  0  0  0  0  0  0
   40.1650   33.6550   41.2330 H   0  0  0  0  0  0  0  0  0  0  0  0
   38.2990   30.3230   39.2590 H   0  0  0  0  0  0  0  0  0  0  0  0
   36.4550   34.0530   39.2180 H   0  0  0  0  0  0  0  0  0  0  0  0
   39.1380   30.4300   43.0510 O   0  0  0  0  0  0  0  0  0  0  0  0
   38.3380   29.3360   43.0060 C   0  0  0  0  0  0  0  0  0  0  0  0
   37.2330   29.5810   42.3920 O   0  0  0  0  0  0  0  0  0  0  0  0
   37.9450   27.9230   43.2570 C   0  0  0  0  0  3  0  0  0  0  0  0
   37.1760   27.4560   42.0260 C   0  0  0  0  0  2  0  0  0  0  0  0
   37.1180   25.9620   42.2890 C   0  0  0  0  0  2  0  0  0  0  0  0
   38.5550   25.6710   42.6950 C   0  0  0  0  0  2  0  0  0  0  0  0
   39.1190   26.9920   43.2280 C   0  0  0  0  0  2  0  0  0  0  0  0
  2  1  2  1  0  0  0
  2 15  1  0  0  0  0
  2  3  1  0  0  0  0
  4  3  1  0  0  0  0
  5  2  1  0  0  0  0
  6 12  1  0  0  0  0
  7  6  2  0  0  0  0
  7  5  1  0  0  0  0
  8  7  1  0  0  0  0
  9  8  2  0  0  0  0
  9 10  1  0  0  0  0
 10 11  2  0  0  0  0
 11  6  1  0  0  0  0
 13  8  1  0  0  0  0
 14 10  1  0  0  0  0
 16 15  1  0  0  0  0
 16 18  1  0  0  0  0
 17 16  2  0  0  0  0
 19 20  1  0  0  0  0
 19 18  1  0  0  0  0
 20 21  1  0  0  0  0
 21 22  1  0  0  0  0
 22 18  1  0  0  0  0
M  END
>  <minimizedAffinity>
-4.63180399

$$$$

 OpenBabel03242514343D

 22 23  0  0  0  0  0  0  0  0999 V2000
   39.2960   33.8840   40.7960 O   0  0  0  0  0  0  0  0  0  0  0  0
   38.6300   32.6450   40.2920 P   0  0  1  0  0  0  0  0  0  0  0  0
   36.9720   32.8700   40.4440 O   0  0  0  0  0  0  0  0  0  0  0  0
   36.5150   32.3960   39.6940 H   0  0  0  0  0  0  0  0  0  0  0  0
   39.0590   32.3530   38.6590 O   0  0  0  0  0  0  0  0  0  0  0  0
   37.4170   31.1210   37.4400 C   0  0  0  0  0  0  0  0  0  0  0  0
   38.6740   31.1770   38.0190 C   0  0  0  0  0  0  0  0  0  0  0  0
   39.4980   30.0450   37.9340 C   0  0  0  0  0  0  0  0  0  0  0  0
   39.0140   28.9470   37.2800 N   0  0  0  0  0  0  0  0  0  0  0  0
   37.7950   28.9350   36.7360 C   0  0  0  0  0  0  0  0  0  0  0  0
   37.0110   30.0090   36.8170 N   0  0  0  0  0  0  0  0  0  0  0  0
   36.7110   31.9460   37.4560 H   0  0  0  0  0  0  0  0  0  0  0  0
   40.4770   30.0910   38.3860 H   0  0  0  0  0  0  0  0  0  0  0  0
   37.5920   27.9730   36.2620 H   0  0  0  0  0  0  0  0  0  0  0  0
   39.1020   31.3620   41.2500 O   0  0  0  0  0  0  0  0  0  0  0  0
   38.2870   30.4070   41.7620 C   0  0  0  0  0  0  0  0  0  0  0  0
   37.2610   30.2070   41.0100 O   0  0  0  0  0  0  0  0  0  0  0  0
   37.8380   29.3770   42.7380 C   0  0  0  0  0  3  0  0  0  0  0  0
   36.9340   28.4140   41.9750 C   0  0  0  0  0  2  0  0  0  0  0  0
   36.8140   27.2910   42.9890 C   0  0  0  0  0  2  0  0  0  0  0  0
   38.2630   27.1160   43.4190 C   0  0  0  0  0  2  0  0  0  0  0  0
   38.9480   28.4590   43.1480 C   0  0  0  0  0  2  0  0  0  0  0  0
  2  3  1  0  0  0  0
  2  1  2  1  0  0  0
  2 15  1  0  0  0  0
  4  3  1  0  0  0  0
  5  2  1  0  0  0  0
  6 12  1  0  0  0  0
  6  7  1  0  0  0  0
  7  5  1  0  0  0  0
  8  7  2  0  0  0  0
  8 13  1  0  0  0  0
  9  8  1  0  0  0  0
 10 11  1  0  0  0  0
 10  9  2  0  0  0  0
 11  6  2  0  0  0  0
 14 10  1  0  0  0  0
 15 16  1  0  0  0  0
 16 18  1  0  0  0  0
 17 16  2  0  0  0  0
 18 22  1  0  0  0  0
 19 18  1  0  0  0  0
 19 20  1  0  0  0  0
 20 21  1  0  0  0  0
 22 21  1  0  0  0  0
M  END
>  <minimizedAffinity>
-4.60868502

$$$$

 OpenBabel03242514343D

 22 23  0  0  0  0  0  0  0  0999 V2000
   37.7590   31.8140   41.0210 O   0  0  0  0  0  0  0  0  0  0  0  0
   37.1340   30.4590   41.0730 P   0  0  1  0  0  0  0  0  0  0  0  0
   35.4690   30.6740   41.1030 O   0  0  0  0  0  0  0  0  0  0  0  0
   35.0390   29.9180   40.6140 H   0  0  0  0  0  0  0  0  0  0  0  0
   37.6040   29.5280   39.7130 O   0  0  0  0  0  0  0  0  0  0  0  0
   36.1760   27.7510   38.9990 C   0  0  0  0  0  0  0  0  0  0  0  0
   36.6550   29.0390   38.8190 C   0  0  0  0  0  0  0  0  0  0  0  0
   36.1600   29.7880   37.7410 C   0  0  0  0  0  0  0  0  0  0  0  0
   35.2290   29.2050   36.9280 N   0  0  0  0  0  0  0  0  0  0  0  0
   34.7950   27.9600   37.1380 C   0  0  0  0  0  0  0  0  0  0  0  0
   35.2640   27.2470   38.1610 N   0  0  0  0  0  0  0  0  0  0  0  0
   36.5010   27.0980   39.8030 H   0  0  0  0  0  0  0  0  0  0  0  0
   36.5340   30.7910   37.6020 H   0  0  0  0  0  0  0  0  0  0  0  0
   34.0570   27.6760   36.3860 H   0  0  0  0  0  0  0  0  0  0  0  0
   37.6170   29.7040   42.4810 O   0  0  0  0  0  0  0  0  0  0  0  0
   37.4970   28.3830   42.7610 C   0  0  0  0  0  0  0  0  0  0  0  0
   36.3250   27.9400   42.4600 O   0  0  0  0  0  0  0  0  0  0  0  0
   37.9380   27.0440   43.2360 C   0  0  0  0  0  3  0  0  0  0  0  0
   38.0060   26.1420   42.0090 C   0  0  0  0  0  2  0  0  0  0  0  0
   38.7420   24.9470   42.5870 C   0  0  0  0  0  2  0  0  0  0  0  0
   39.8710   25.6270   43.3470 C   0  0  0  0  0  2  0  0  0  0  0  0
   39.3710   27.0380   43.6720 C   0  0  0  0  0  2  0  0  0  0  0  0
  2  1  2  6  0  0  0
  2  3  1  0  0  0  0
  2 15  1  0  0  0  0
  4  3  1  0  0  0  0
  5  2  1  0  0  0  0
  6 12  1  0  0  0  0
  7  6  1  0  0  0  0
  7  5  1  0  0  0  0
  8  7  2  0  0  0  0
  9 10  2  0  0  0  0
  9  8  1  0  0  0  0
 10 11  1  0  0  0  0
 11  6  2  0  0  0  0
 13  8  1  0  0  0  0
 14 10  1  0  0  0  0
 15 16  1  0  0  0  0
 16 18  1  0  0  0  0
 17 16  2  0  0  0  0
 18 22  1  0  0  0  0
 19 20  1  0  0  0  0
 19 18  1  0  0  0  0
 20 21  1  0  0  0  0
 21 22  1  0  0  0  0
M  END
>  <minimizedAffinity>
-4.56537914

$$$$

 OpenBabel03242514343D

 22 23  0  0  0  0  0  0  0  0999 V2000
   38.7020   29.5880   43.2710 O   0  0  0  0  0  0  0  0  0  0  0  0
   38.1910   28.4980   42.3860 P   0  0  1  0  0  0  0  0  0  0  0  0
   39.0830   28.5470   40.9640 O   0  0  0  0  0  0  0  0  0  0  0  0
   39.1850   27.6170   40.6170 H   0  0  0  0  0  0  0  0  0  0  0  0
   38.3510   26.9750   43.1550 O   0  0  0  0  0  0  0  0  0  0  0  0
   36.9850   25.2590   42.2090 C   0  0  0  0  0  0  0  0  0  0  0  0
   38.2450   25.7920   42.4260 C   0  0  0  0  0  0  0  0  0  0  0  0
   39.3550   25.1130   41.9020 C   0  0  0  0  0  0  0  0  0  0  0  0
   39.1310   23.9610   41.2030 N   0  0  0  0  0  0  0  0  0  0  0  0
   37.8990   23.4810   41.0170 C   0  0  0  0  0  0  0  0  0  0  0  0
   36.8440   24.1250   41.5140 N   0  0  0  0  0  0  0  0  0  0  0  0
   36.0700   25.7130   42.5760 H   0  0  0  0  0  0  0  0  0  0  0  0
   40.3360   25.5300   42.0730 H   0  0  0  0  0  0  0  0  0  0  0  0
   37.9270   22.5570   40.4370 H   0  0  0  0  0  0  0  0  0  0  0  0
   36.5870   28.8030   42.0410 O   0  0  0  0  0  0  0  0  0  0  0  0
   36.1210   29.5570   41.0140 C   0  0  0  0  0  0  0  0  0  0  0  0
   35.0200   29.0840   40.5410 O   0  0  0  0  0  0  0  0  0  0  0  0
   36.1170   30.6830   40.0410 C   0  0  0  0  0  3  0  0  0  0  0  0
   37.1360   31.7000   40.5420 C   0  0  0  0  0  2  0  0  0  0  0  0
   37.2390   32.6050   39.3280 C   0  0  0  0  0  2  0  0  0  0  0  0
   37.3650   31.5880   38.2030 C   0  0  0  0  0  2  0  0  0  0  0  0
   36.7200   30.3000   38.7250 C   0  0  0  0  0  2  0  0  0  0  0  0
  2  5  1  0  0  0  0
  2  1  2  1  0  0  0
  3  2  1  0  0  0  0
  4  3  1  0  0  0  0
  6  7  1  0  0  0  0
  6 12  1  0  0  0  0
  7  5  1  0  0  0  0
  8 13  1  0  0  0  0
  8  7  2  0  0  0  0
  9  8  1  0  0  0  0
 10  9  2  0  0  0  0
 10 11  1  0  0  0  0
 11  6  2  0  0  0  0
 14 10  1  0  0  0  0
 15  2  1  0  0  0  0
 16 15  1  0  0  0  0
 17 16  2  0  0  0  0
 18 19  1  0  0  0  0
 18 16  1  0  0  0  0
 20 19  1  0  0  0  0
 21 22  1  0  0  0  0
 21 20  1  0  0  0  0
 22 18  1  0  0  0  0
M  END
>  <minimizedAffinity>
-4.48919392

$$$$

 OpenBabel03242514343D

 22 23  0  0  0  0  0  0  0  0999 V2000
   36.3700   28.7130   40.5990 O   0  0  0  0  0  0  0  0  0  0  0  0
   36.8810   29.9390   41.2820 P   0  0  1  0  0  0  0  0  0  0  0  0
   35.6060   31.0290   41.3770 O   0  0  0  0  0  0  0  0  0  0  0  0
   35.6970   31.5560   42.2200 H   0  0  0  0  0  0  0  0  0  0  0  0
   37.4740   29.5560   42.8430 O   0  0  0  0  0  0  0  0  0  0  0  0
   38.2160   27.3600   43.4210 C   0  0  0  0  0  0  0  0  0  0  0  0
   38.5170   28.6480   43.0080 C   0  0  0  0  0  0  0  0  0  0  0  0
   39.8620   28.9770   42.7790 C   0  0  0  0  0  0  0  0  0  0  0  0
   40.8020   28.0040   42.9740 N   0  0  0  0  0  0  0  0  0  0  0  0
   40.4680   26.7750   43.3720 C   0  0  0  0  0  0  0  0  0  0  0  0
   39.1920   26.4610   43.5900 N   0  0  0  0  0  0  0  0  0  0  0  0
   37.2060   27.0160   43.6230 H   0  0  0  0  0  0  0  0  0  0  0  0
   40.0950   29.9810   42.4590 H   0  0  0  0  0  0  0  0  0  0  0  0
   41.3540   26.1460   43.4700 H   0  0  0  0  0  0  0  0  0  0  0  0
   38.0990   30.5980   40.3500 O   0  0  0  0  0  0  0  0  0  0  0  0
   38.6190   31.8440   40.4810 C   0  0  0  0  0  0  0  0  0  0  0  0
   37.6990   32.7450   40.4760 O   0  0  0  0  0  0  0  0  0  0  0  0
   39.6900   32.8650   40.6420 C   0  0  0  0  0  3  0  0  0  0  0  0
   40.9370   32.1230   41.1090 C   0  0  0  0  0  2  0  0  0  0  0  0
   41.9830   33.2080   40.9320 C   0  0  0  0  0  2  0  0  0  0  0  0
   41.6390   33.7380   39.5490 C   0  0  0  0  0  2  0  0  0  0  0  0
   40.1590   33.4100   39.3280 C   0  0  0  0  0  2  0  0  0  0  0  0
  2  1  2  6  0  0  0
  2  3  1  0  0  0  0
  2  5  1  0  0  0  0
  3  4  1  0  0  0  0
  5  7  1  0  0  0  0
  6 11  1  0  0  0  0
  6 12  1  0  0  0  0
  7  6  2  0  0  0  0
  8  9  2  0  0  0  0
  8  7  1  0  0  0  0
  9 10  1  0  0  0  0
 10 14  1  0  0  0  0
 10 11  2  0  0  0  0
 13  8  1  0  0  0  0
 15 16  1  0  0  0  0
 15  2  1  0  0  0  0
 16 18  1  0  0  0  0
 17 16  2  0  0  0  0
 18 19  1  0  0  0  0
 20 19  1  0  0  0  0
 21 20  1  0  0  0  0
 22 21  1  0  0  0  0
 22 18  1  0  0  0  0
M  END
>  <minimizedAffinity>
-4.48449087

$$$$
