
 OpenBabel03242523543D

 41 44  0  0  1  0  0  0  0  0999 V2000
   42.7970   34.2940   38.9870 C   0  0  1  0  0  0  0  0  0  0  0  0
   43.0190   35.1630   40.2180 C   0  0  1  0  0  0  0  0  0  0  0  0
   41.7650   35.6160   40.6710 O   0  0  0  0  0  0  0  0  0  0  0  0
   40.8820   35.8850   39.6230 C   0  0  0  0  0  0  0  0  0  0  0  0
   40.4380   34.6200   38.9170 C   0  0  2  0  0  0  0  0  0  0  0  0
   41.5310   33.5350   39.2310 C   0  0  1  0  0  0  0  0  0  0  0  0
   43.6790   33.6300   38.8730 H   0  0  0  0  0  0  0  0  0  0  0  0
   43.7050   36.0010   40.0320 H   0  0  0  0  0  0  0  0  0  0  0  0
   41.2750   36.6530   38.9260 H   0  0  0  0  0  0  0  0  0  0  0  0
   39.9900   36.3240   40.0820 H   0  0  0  0  0  0  0  0  0  0  0  0
   39.4630   34.2380   39.2650 H   0  0  0  0  0  0  0  0  0  0  0  0
   41.2910   33.4680   40.3420 H   0  0  0  0  0  0  0  0  0  0  0  0
   42.6870   35.0800   37.8340 O   0  0  0  0  0  0  0  0  0  0  0  0
   43.5830   35.2310   37.4950 H   0  0  0  0  0  0  0  0  0  0  0  0
   40.4970   34.8040   37.5450 O   0  0  0  0  0  0  0  0  0  0  0  0
   39.9610   34.1400   37.0450 H   0  0  0  0  0  0  0  0  0  0  0  0
   43.4410   34.2780   41.2230 O   0  0  0  0  0  0  0  0  0  0  0  0
   44.5950   34.3770   41.8910 C   0  0  0  0  0  0  0  0  0  0  0  0
   45.8190   34.4990   41.2150 C   0  0  0  0  0  0  0  0  0  0  0  0
   46.9790   34.5990   41.9660 C   0  0  0  0  0  0  0  0  0  0  0  0
   46.9000   34.5790   43.3470 N   0  0  0  0  0  0  0  0  0  0  0  0
   45.7010   34.4610   43.9650 C   0  0  0  0  0  0  0  0  0  0  0  0
   44.5560   34.3600   43.2420 N   0  0  0  0  0  0  0  0  0  0  0  0
   45.8560   34.5110   40.1350 H   0  0  0  0  0  0  0  0  0  0  0  0
   45.6560   34.4460   45.0450 H   0  0  0  0  0  0  0  0  0  0  0  0
   48.3220   34.7200   41.3130 C   0  0  0  0  0  0  0  0  0  0  0  0
   49.0690   36.0360   41.5230 C   0  0  0  0  0  0  0  0  0  0  0  0
   49.5210   34.6870   42.0890 C   0  0  0  0  0  0  0  0  0  0  0  0
   48.2870   34.4500   40.2440 H   0  0  0  0  0  0  0  0  0  0  0  0
   48.6800   36.7480   42.2790 H   0  0  0  0  0  0  0  0  0  0  0  0
   49.6810   36.4450   40.7050 H   0  0  0  0  0  0  0  0  0  0  0  0
   49.4910   34.5760   43.1930 H   0  0  0  0  0  0  0  0  0  0  0  0
   50.4560   34.2770   41.6450 H   0  0  0  0  0  0  0  0  0  0  0  0
   41.2920   32.4740   38.4400 O   0  0  0  0  0  0  0  0  0  0  0  0
   40.2110   31.6580   38.4250 C   0  0  0  0  0  0  0  0  0  0  0  0
   39.3350   31.7290   37.4520 O   0  0  0  0  0  0  0  0  0  0  0  0
   39.4550   30.5600   39.1040 C   0  0  0  0  0  3  0  0  0  0  0  0
   38.4630   30.0300   38.0660 C   0  0  0  0  0  2  0  0  0  0  0  0
   37.6810   29.0580   38.9220 C   0  0  0  0  0  2  0  0  0  0  0  0
   37.4630   29.8730   40.1770 C   0  0  0  0  0  2  0  0  0  0  0  0
   38.5340   30.9630   40.1830 C   0  0  0  0  0  2  0  0  0  0  0  0
  1  7  1  6  0  0  0
  1  6  1  0  0  0  0
  1  2  1  0  0  0  0
  2  8  1  6  0  0  0
  2  3  1  0  0  0  0
  2 17  1  0  0  0  0
  4 10  1  0  0  0  0
  4  3  1  0  0  0  0
  5  6  1  0  0  0  0
  5 11  1  1  0  0  0
  5  4  1  0  0  0  0
  6 12  1  1  0  0  0
  9  4  1  0  0  0  0
 13  1  1  0  0  0  0
 14 13  1  0  0  0  0
 15  5  1  0  0  0  0
 16 15  1  0  0  0  0
 17 18  1  0  0  0  0
 18 23  1  0  0  0  0
 19 18  2  0  0  0  0
 19 20  1  0  0  0  0
 20 21  2  0  0  0  0
 21 22  1  0  0  0  0
 22 25  1  0  0  0  0
 23 22  2  0  0  0  0
 24 19  1  0  0  0  0
 26 27  1  0  0  0  0
 26 20  1  0  0  0  0
 26 28  1  0  0  0  0
 27 28  1  0  0  0  0
 27 30  1  0  0  0  0
 28 32  1  0  0  0  0
 29 26  1  0  0  0  0
 31 27  1  0  0  0  0
 33 28  1  0  0  0  0
 34  6  1  0  0  0  0
 35 34  1  0  0  0  0
 35 37  1  0  0  0  0
 36 35  2  0  0  0  0
 37 41  1  0  0  0  0
 38 39  1  0  0  0  0
 38 37  1  0  0  0  0
 39 40  1  0  0  0  0
 40 41  1  0  0  0  0
M  END
>  <minimizedAffinity>
-6.24157476

>  <minimizedRMSD>
1.09179807

$$$$
