
 OpenBabel03242516333D

 42 45  0  0  1  0  0  0  0  0999 V2000
   48.1120   34.5780   42.0880 C   0  0  2  0  0  0  0  0  0  0  0  0
   46.7600   33.8490   42.3110 C   0  0  1  0  0  0  0  0  0  0  0  0
   47.2290   32.6080   42.6210 O   0  0  0  0  0  0  0  0  0  0  0  0
   48.1310   32.3150   41.5780 C   0  0  0  0  0  0  0  0  0  0  0  0
   48.5970   33.6630   40.9850 C   0  0  1  0  0  0  0  0  0  0  0  0
   47.9620   35.6150   41.7850 H   0  0  0  0  0  0  0  0  0  0  0  0
   46.2530   33.8270   41.3150 H   0  0  0  0  0  0  0  0  0  0  0  0
   47.6790   31.6740   40.8080 H   0  0  0  0  0  0  0  0  0  0  0  0
   49.0090   31.8100   42.0070 H   0  0  0  0  0  0  0  0  0  0  0  0
   49.6890   33.7260   40.8710 H   0  0  0  0  0  0  0  0  0  0  0  0
   44.5250   36.0570   44.4530 C   0  0  0  0  0  0  0  0  0  0  0  0
   45.2140   35.6480   43.3130 C   0  0  0  0  0  0  0  0  0  0  0  0
   45.9730   34.5030   43.3630 C   0  0  0  0  0  0  0  0  0  0  0  0
   46.0010   33.8250   44.5560 N   0  0  0  0  0  0  0  0  0  0  0  0
   45.3300   34.2350   45.6440 C   0  0  0  0  0  0  0  0  0  0  0  0
   44.5890   35.3560   45.5900 N   0  0  0  0  0  0  0  0  0  0  0  0
   43.9600   36.9770   44.2910 H   0  0  0  0  0  0  0  0  0  0  0  0
   45.2340   36.1300   42.3520 H   0  0  0  0  0  0  0  0  0  0  0  0
   45.3790   33.6710   46.5690 H   0  0  0  0  0  0  0  0  0  0  0  0
   48.9500   34.3810   43.1530 O   0  0  0  0  0  0  0  0  0  0  0  0
   49.5250   35.1510   43.3590 H   0  0  0  0  0  0  0  0  0  0  0  0
   47.8880   33.8700   39.8380 O   0  0  0  0  0  0  0  0  0  0  0  0
   49.1640   32.7930   38.1730 C   0  0  1  0  0  0  0  0  0  0  0  0
   48.6470   34.2200   38.7200 C   0  0  1  0  0  0  0  0  0  0  0  0
   47.8240   34.5230   37.6990 O   0  0  0  0  0  0  0  0  0  0  0  0
   46.9430   33.4100   37.7520 C   0  0  0  0  0  0  0  0  0  0  0  0
   47.9040   32.2630   37.5590 C   0  0  1  0  0  0  0  0  0  0  0  0
   49.5930   32.2430   38.9890 H   0  0  0  0  0  0  0  0  0  0  0  0
   49.6050   34.6870   38.9300 H   0  0  0  0  0  0  0  0  0  0  0  0
   46.4050   33.4020   38.7030 H   0  0  0  0  0  0  0  0  0  0  0  0
   46.2620   33.5040   36.8760 H   0  0  0  0  0  0  0  0  0  0  0  0
   47.5680   31.3950   38.1590 H   0  0  0  0  0  0  0  0  0  0  0  0
   50.0340   33.1200   37.1260 O   0  0  0  0  0  0  0  0  0  0  0  0
   49.7260   33.9630   36.7020 H   0  0  0  0  0  0  0  0  0  0  0  0
   48.0440   32.0070   36.2120 O   0  0  0  0  0  0  0  0  0  0  0  0
   46.9030   31.5220   35.5370 C   0  0  0  0  0  0  0  0  0  0  0  0
   46.6720   30.1980   35.8560 C   0  0  0  0  0  0  0  0  0  0  0  0
   47.1140   29.4070   36.4800 H   0  0  0  0  0  0  0  0  0  0  0  0
   45.1570   29.7940   34.8730 S   0  0  0  0  0  0  0  0  0  0  0  0
   45.1230   31.5720   34.1880 C   0  0  0  0  0  0  0  0  0  0  0  0
   44.4620   32.1950   33.4620 H   0  0  0  0  0  0  0  0  0  0  0  0
   46.0220   32.0210   34.6930 N   0  0  0  0  0  0  0  0  0  0  0  0
  1  6  1  6  0  0  0
  1  2  1  0  0  0  0
  1 20  1  0  0  0  0
  2  7  1  6  0  0  0
  2  3  1  0  0  0  0
  2 13  1  0  0  0  0
  4  9  1  0  0  0  0
  4  3  1  0  0  0  0
  5 10  1  6  0  0  0
  5  4  1  0  0  0  0
  5  1  1  0  0  0  0
  8  4  1  0  0  0  0
 11 16  1  0  0  0  0
 12 13  1  0  0  0  0
 12 11  2  0  0  0  0
 13 14  2  0  0  0  0
 14 15  1  0  0  0  0
 15 19  1  0  0  0  0
 16 15  2  0  0  0  0
 17 11  1  0  0  0  0
 18 12  1  0  0  0  0
 20 21  1  0  0  0  0
 22  5  1  0  0  0  0
 23 24  1  0  0  0  0
 23 28  1  1  0  0  0
 24 29  1  1  0  0  0
 24 22  1  0  0  0  0
 25 26  1  0  0  0  0
 25 24  1  0  0  0  0
 26 30  1  0  0  0  0
 27 26  1  0  0  0  0
 27 32  1  1  0  0  0
 27 23  1  0  0  0  0
 31 26  1  0  0  0  0
 33 23  1  0  0  0  0
 34 33  1  0  0  0  0
 35 27  1  0  0  0  0
 36 37  2  0  0  0  0
 36 35  1  0  0  0  0
 37 38  1  0  0  0  0
 39 37  1  0  0  0  0
 40 42  2  0  0  0  0
 40 39  1  0  0  0  0
 41 40  1  0  0  0  0
 42 36  1  0  0  0  0
M  END
>  <minimizedAffinity>
-5.30734301

>  <minimizedRMSD>
1.29243624

$$$$
