
 OpenBabel03252507453D

 35 37  0  0  0  0  0  0  0  0999 V2000
   46.9730   34.2890   40.9250 C   0  0  0  0  0  0  0  0  0  0  0  0
   46.4150   33.3930   40.6250 H   0  0  0  0  0  0  0  0  0  0  0  0
   47.0950   35.0200   40.0780 H   0  0  0  0  0  0  0  0  0  0  0  0
   48.3370   33.9590   41.3760 C   0  0  0  0  0  0  0  0  0  0  0  0
   48.8700   32.7540   40.9390 C   0  0  0  0  0  0  0  0  0  0  0  0
   50.1540   32.3700   41.3190 C   0  0  0  0  0  0  0  0  0  0  0  0
   50.8450   33.2220   42.1280 N   0  0  0  0  0  0  0  0  0  0  0  0
   50.3000   34.3840   42.5340 C   0  0  0  0  0  0  0  0  0  0  0  0
   49.0740   34.7390   42.1630 N   0  0  0  0  0  0  0  0  0  0  0  0
   50.5350   31.4210   40.9580 H   0  0  0  0  0  0  0  0  0  0  0  0
   50.9560   34.9790   43.1800 H   0  0  0  0  0  0  0  0  0  0  0  0
   47.9070   31.6730   39.8740 S   0  0  0  0  0  0  0  0  0  0  0  0
   48.0930   32.1670   38.1450 C   0  0  0  0  0  0  0  0  0  0  0  0
   47.7520   31.3440   37.0510 C   0  0  0  0  0  0  0  0  0  0  0  0
   47.3440   30.3360   37.1950 H   0  0  0  0  0  0  0  0  0  0  0  0
   48.1810   32.4310   35.6230 S   0  0  0  0  0  0  0  0  0  0  0  0
   48.7510   33.8140   36.7890 C   0  0  0  0  0  0  0  0  0  0  0  0
   49.1240   34.7440   36.3650 H   0  0  0  0  0  0  0  0  0  0  0  0
   48.5760   33.3630   37.8620 N   0  0  0  0  0  0  0  0  0  0  0  0
   46.1600   34.9940   41.9750 C   0  0  0  0  0  0  0  0  0  0  0  0
   46.3110   34.4420   42.9380 H   0  0  0  0  0  0  0  0  0  0  0  0
   46.5110   36.0360   42.1490 H   0  0  0  0  0  0  0  0  0  0  0  0
   44.6930   34.9630   41.7290 C   0  0  0  0  0  0  0  0  0  0  0  0
   43.7920   35.4510   42.7220 C   0  0  0  0  0  0  0  0  0  0  0  0
   42.1460   35.1980   41.9500 S   0  0  0  0  0  0  0  0  0  0  0  0
   42.9600   34.4660   40.3960 C   0  0  0  0  0  0  0  0  0  0  0  0
   44.0650   34.5280   40.6710 N   0  0  0  0  0  0  0  0  0  0  0  0
   44.0470   35.8650   43.6850 H   0  0  0  0  0  0  0  0  0  0  0  0
   42.2230   34.0200   39.3000 O   0  0  0  0  0  0  0  0  0  0  0  0
   40.3310   34.5580   37.5340 O   0  0  0  0  0  0  0  0  0  0  0  0
   41.4300   35.1970   38.3560 P   0  0  0  0  0  0  0  0  0  0  0  0
   40.7420   36.3150   39.4250 O   0  0  0  0  0  0  0  0  0  0  0  0
   39.9290   35.8640   39.7990 H   0  0  0  0  0  0  0  0  0  0  0  0
   42.5430   36.0090   37.3770 O   0  0  0  0  0  0  0  0  0  0  0  0
   42.7680   36.8960   37.7550 H   0  0  0  0  0  0  0  0  0  0  0  0
  1  4  1  0  0  0  0
  1 20  1  0  0  0  0
  2  1  1  0  0  0  0
  3  1  1  0  0  0  0
  4  9  1  0  0  0  0
  5  6  1  0  0  0  0
  5  4  2  0  0  0  0
  6  7  2  0  0  0  0
  7  8  1  0  0  0  0
  8 11  1  0  0  0  0
  9  8  2  0  0  0  0
 10  6  1  0  0  0  0
 12  5  1  0  0  0  0
 13 12  1  0  0  0  0
 14 15  1  0  0  0  0
 14 13  2  0  0  0  0
 16 17  1  0  0  0  0
 16 14  1  0  0  0  0
 17 19  2  0  0  0  0
 18 17  1  0  0  0  0
 19 13  1  0  0  0  0
 20 22  1  0  0  0  0
 20 21  1  0  0  0  0
 23 20  1  0  0  0  0
 23 24  2  0  0  0  0
 24 28  1  0  0  0  0
 25 24  1  0  0  0  0
 26 27  2  0  0  0  0
 26 25  1  0  0  0  0
 27 23  1  0  0  0  0
 29 26  1  0  0  0  0
 30 31  2  0  0  0  0
 31 29  1  0  0  0  0
 31 32  1  0  0  0  0
 32 33  1  0  0  0  0
 34 35  1  0  0  0  0
 34 31  1  0  0  0  0
M  END
>  <minimizedAffinity>
-4.81649876

>  <minimizedRMSD>
0.37200284

$$$$
