
 OpenBabel03252508023D

 40 43  0  0  1  0  0  0  0  0999 V2000
   44.2500   34.3810   41.5630 C   0  0  0  0  0  0  0  0  0  0  0  0
   45.1370   34.2970   40.6410 O   0  0  0  0  0  0  0  0  0  0  0  0
   42.0870   33.2480   41.1680 C   0  0  0  0  0  0  0  0  0  0  0  0
   42.8010   34.4000   41.3310 C   0  0  0  0  0  0  0  0  0  0  0  0
   42.1300   35.6290   41.2560 C   0  0  0  0  0  0  0  0  0  0  0  0
   40.7820   35.7350   41.0260 C   0  0  0  0  0  0  0  0  0  0  0  0
   40.0630   34.5840   40.8640 C   0  0  0  0  0  0  0  0  0  0  0  0
   40.7060   33.3890   40.9350 C   0  0  0  0  0  0  0  0  0  0  0  0
   42.6290   36.5800   41.3650 H   0  0  0  0  0  0  0  0  0  0  0  0
   40.2670   36.6780   40.9690 H   0  0  0  0  0  0  0  0  0  0  0  0
   39.0030   34.5360   40.6800 H   0  0  0  0  0  0  0  0  0  0  0  0
   40.1430   32.4500   40.8050 H   0  0  0  0  0  0  0  0  0  0  0  0
   42.7740   31.7070   41.2890 S   0  0  0  0  0  0  0  0  0  0  0  0
   41.7250   30.8560   40.5480 O   0  0  0  0  0  0  0  0  0  0  0  0
   42.7920   31.2070   42.6940 O   0  0  0  0  0  0  0  0  0  0  0  0
   43.9790   31.0770   40.2510 C   0  0  0  0  0  0  0  0  0  0  0  0
   45.2860   30.7460   41.0560 C   0  0  0  0  0  0  0  0  0  0  0  0
   45.5810   30.9090   42.2670 H   0  0  0  0  0  0  0  0  0  0  0  0
   46.3230   30.0720   39.9040 S   0  0  0  0  0  0  0  0  0  0  0  0
   45.1620   30.2050   38.4840 C   0  0  0  0  0  0  0  0  0  0  0  0
   45.2600   29.9280   37.4440 H   0  0  0  0  0  0  0  0  0  0  0  0
   44.2540   30.6900   39.0400 N   0  0  0  0  0  0  0  0  0  0  0  0
   44.5850   34.4720   42.9530 C   0  0  0  0  0  0  0  0  0  0  0  0
   44.3070   35.7180   43.5870 C   0  0  0  0  0  0  0  0  0  0  0  0
   44.6230   35.8150   44.9320 C   0  0  0  0  0  0  0  0  0  0  0  0
   45.1690   34.7400   45.5580 N   0  0  0  0  0  0  0  0  0  0  0  0
   45.4210   33.5590   44.9080 C   0  0  0  0  0  0  0  0  0  0  0  0
   45.1190   33.4930   43.6640 N   0  0  0  0  0  0  0  0  0  0  0  0
   43.8890   36.6020   43.1870 H   0  0  0  0  0  0  0  0  0  0  0  0
   44.4530   36.7240   45.5200 H   0  0  0  0  0  0  0  0  0  0  0  0
   46.0100   32.4410   45.6680 C   0  0  1  0  0  0  0  0  0  0  0  0
   46.9720   32.7580   46.7940 C   0  0  0  0  0  0  0  0  0  0  0  0
   45.5470   32.3520   47.0800 C   0  0  1  0  0  0  0  0  0  0  0  0
   46.1030   31.4670   45.1610 H   0  0  0  0  0  0  0  0  0  0  0  0
   47.7780   31.9940   46.9280 H   0  0  0  0  0  0  0  0  0  0  0  0
   47.2910   33.8040   46.8040 H   0  0  0  0  0  0  0  0  0  0  0  0
   45.4310   31.3620   47.5620 H   0  0  0  0  0  0  0  0  0  0  0  0
   44.7670   33.4030   47.6630 N   0  0  0  0  0  0  0  0  0  0  0  0
   43.9230   33.0830   48.1560 H   0  0  0  0  0  0  0  0  0  0  0  0
   45.3230   34.1250   48.1630 H   0  0  0  0  0  0  0  0  0  0  0  0
  1 23  1  0  0  0  0
  2  1  2  0  0  0  0
  3 13  1  0  0  0  0
  3  4  1  0  0  0  0
  4  1  1  0  0  0  0
  5  4  2  0  0  0  0
  5  9  1  0  0  0  0
  6  5  1  0  0  0  0
  7  8  1  0  0  0  0
  7  6  2  0  0  0  0
  8  3  2  0  0  0  0
 10  6  1  0  0  0  0
 11  7  1  0  0  0  0
 12  8  1  0  0  0  0
 13 15  2  0  0  0  0
 14 13  2  0  0  0  0
 16 17  2  0  0  0  0
 16 13  1  0  0  0  0
 17 18  1  0  0  0  0
 19 17  1  0  0  0  0
 20 22  2  0  0  0  0
 20 19  1  0  0  0  0
 21 20  1  0  0  0  0
 22 16  1  0  0  0  0
 23 24  2  0  0  0  0
 23 28  1  0  0  0  0
 24 25  1  0  0  0  0
 25 30  1  0  0  0  0
 25 26  2  0  0  0  0
 27 26  1  0  0  0  0
 27 31  1  0  0  0  0
 28 27  2  0  0  0  0
 29 24  1  0  0  0  0
 31 34  1  6  0  0  0
 31 32  1  0  0  0  0
 31 33  1  0  0  0  0
 32 36  1  0  0  0  0
 32 35  1  0  0  0  0
 32 33  1  0  0  0  0
 33 37  1  1  0  0  0
 33 38  1  0  0  0  0
 38 39  1  0  0  0  0
 38 40  1  0  0  0  0
M  END
>  <minimizedAffinity>
-5.67163515

>  <minimizedRMSD>
1.08161747

$$$$
