
 OpenBabel03252508593D

 43 45  0  0  1  0  0  0  0  0999 V2000
   47.2270   34.0990   43.0280 N   0  0  0  0  0  0  0  0  0  0  0  0
   46.7610   35.3470   42.5370 C   0  0  0  0  0  0  0  0  0  0  0  0
   45.2870   35.6100   42.7560 C   0  0  0  0  0  0  0  0  0  0  0  0
   44.7150   34.9960   44.0060 C   0  0  0  0  0  0  0  0  0  0  0  0
   45.8000   34.3580   44.8430 C   0  0  0  0  0  0  0  0  0  0  0  0
   46.4440   33.3160   43.8580 C   0  0  2  0  0  0  0  0  0  0  0  0
   46.9740   35.5550   41.4830 H   0  0  0  0  0  0  0  0  0  0  0  0
   47.3260   36.1290   43.1170 H   0  0  0  0  0  0  0  0  0  0  0  0
   44.6950   35.3210   41.8490 H   0  0  0  0  0  0  0  0  0  0  0  0
   45.1480   36.7090   42.8480 H   0  0  0  0  0  0  0  0  0  0  0  0
   44.0450   34.1710   43.6830 H   0  0  0  0  0  0  0  0  0  0  0  0
   44.0920   35.7070   44.5750 H   0  0  0  0  0  0  0  0  0  0  0  0
   46.5260   35.1400   45.0890 H   0  0  0  0  0  0  0  0  0  0  0  0
   45.3630   33.8290   45.6950 H   0  0  0  0  0  0  0  0  0  0  0  0
   45.6000   32.7690   43.3910 H   0  0  0  0  0  0  0  0  0  0  0  0
   48.1900   33.4580   42.1830 C   0  0  0  0  0  0  0  0  0  0  0  0
   48.8660   32.8180   42.7880 H   0  0  0  0  0  0  0  0  0  0  0  0
   48.8130   34.2560   41.7130 H   0  0  0  0  0  0  0  0  0  0  0  0
   47.4710   32.6460   41.1550 C   0  0  0  0  0  0  0  0  0  0  0  0
   47.4970   31.5690   41.3350 H   0  0  0  0  0  0  0  0  0  0  0  0
   46.3880   32.9500   41.1020 H   0  0  0  0  0  0  0  0  0  0  0  0
   49.3620   32.3350   37.9210 C   0  0  0  0  0  0  0  0  0  0  0  0
   48.8340   32.0410   39.1920 C   0  0  0  0  0  0  0  0  0  0  0  0
   48.0250   32.9660   39.8120 C   0  0  0  0  0  0  0  0  0  0  0  0
   47.7780   34.1160   39.1630 N   0  0  0  0  0  0  0  0  0  0  0  0
   48.2870   34.3870   37.9510 C   0  0  0  0  0  0  0  0  0  0  0  0
   49.0810   33.5050   37.3180 N   0  0  0  0  0  0  0  0  0  0  0  0
   50.0020   31.5930   37.4410 H   0  0  0  0  0  0  0  0  0  0  0  0
   49.0990   31.0840   39.6210 H   0  0  0  0  0  0  0  0  0  0  0  0
   47.9710   35.3600   37.6010 H   0  0  0  0  0  0  0  0  0  0  0  0
   47.2100   32.5490   44.7220 O   0  0  0  0  0  0  0  0  0  0  0  0
   45.9070   30.5080   43.6270 O   0  0  0  0  0  0  0  0  0  0  0  0
   46.6340   30.9800   44.8910 P   0  0  2  0  0  0  0  0  0  0  0  0
   45.4180   31.0480   46.0930 O   0  0  0  0  0  0  0  0  0  0  0  0
   45.7080   31.6450   46.8210 H   0  0  0  0  0  0  0  0  0  0  0  0
   47.8060   29.9230   45.4010 O   0  0  0  0  0  0  0  0  0  0  0  0
   47.5760   28.7300   46.0690 C   0  0  0  0  0  0  0  0  0  0  0  0
   47.9840   28.4000   47.4170 C   0  0  0  0  0  0  0  0  0  0  0  0
   48.5530   29.2300   47.9600 H   0  0  0  0  0  0  0  0  0  0  0  0
   47.3090   26.6390   47.5760 S   0  0  0  0  0  0  0  0  0  0  0  0
   46.6280   26.7280   45.8040 C   0  0  0  0  0  0  0  0  0  0  0  0
   46.1080   25.8270   45.4530 H   0  0  0  0  0  0  0  0  0  0  0  0
   46.9110   27.7990   45.3920 N   0  0  0  0  0  0  0  0  0  0  0  0
  1  6  1  0  0  0  0
  2  3  1  0  0  0  0
  2  1  1  0  0  0  0
  2  8  1  0  0  0  0
  3 10  1  0  0  0  0
  3  4  1  0  0  0  0
  4 12  1  0  0  0  0
  4  5  1  0  0  0  0
  5 13  1  0  0  0  0
  5 14  1  0  0  0  0
  6 15  1  6  0  0  0
  6 31  1  0  0  0  0
  6  5  1  0  0  0  0
  7  2  1  0  0  0  0
  9  3  1  0  0  0  0
 11  4  1  0  0  0  0
 16 17  1  0  0  0  0
 16  1  1  0  0  0  0
 18 16  1  0  0  0  0
 19 20  1  0  0  0  0
 19 16  1  0  0  0  0
 21 19  1  0  0  0  0
 22 23  1  0  0  0  0
 23 29  1  0  0  0  0
 23 24  2  0  0  0  0
 24 19  1  0  0  0  0
 25 24  1  0  0  0  0
 26 25  2  0  0  0  0
 27 22  2  0  0  0  0
 27 26  1  0  0  0  0
 28 22  1  0  0  0  0
 30 26  1  0  0  0  0
 31 33  1  0  0  0  0
 33 32  2  6  0  0  0
 33 36  1  0  0  0  0
 33 34  1  0  0  0  0
 34 35  1  0  0  0  0
 36 37  1  0  0  0  0
 37 38  2  0  0  0  0
 38 40  1  0  0  0  0
 38 39  1  0  0  0  0
 41 40  1  0  0  0  0
 42 41  1  0  0  0  0
 43 41  2  0  0  0  0
 43 37  1  0  0  0  0
M  END
>  <minimizedAffinity>
-3.82096767

>  <minimizedRMSD>
0.228915885

$$$$
