
 OpenBabel03252506053D

 41 45  0  0  0  0  0  0  0  0999 V2000
   44.7980   35.9780   43.3290 Cl  0  0  0  0  0  0  0  0  0  0  0  0
   45.5390   34.7330   44.2640 C   0  0  0  0  0  0  0  0  0  0  0  0
   46.6400   34.0450   43.7710 C   0  0  0  0  0  0  0  0  0  0  0  0
   47.1610   33.0720   44.6000 C   0  0  0  0  0  0  0  0  0  0  0  0
   46.6610   32.7530   45.8550 C   0  0  0  0  0  0  0  0  0  0  0  0
   45.5720   33.4530   46.3110 C   0  0  0  0  0  0  0  0  0  0  0  0
   44.9770   33.0170   47.8990 Cl  0  0  0  0  0  0  0  0  0  0  0  0
   45.0190   34.4350   45.5190 C   0  0  0  0  0  0  0  0  0  0  0  0
   48.0220   32.5510   44.1870 H   0  0  0  0  0  0  0  0  0  0  0  0
   44.1620   34.9750   45.8940 H   0  0  0  0  0  0  0  0  0  0  0  0
   47.3550   31.6890   46.5800 C   0  0  0  0  0  0  0  0  0  0  0  0
   47.4630   30.4080   46.1090 C   0  0  0  0  0  0  0  0  0  0  0  0
   48.1150   29.3820   46.7720 C   0  0  0  0  0  0  0  0  0  0  0  0
   48.7020   29.6580   48.0000 C   0  0  0  0  0  0  0  0  0  0  0  0
   49.3230   28.6510   48.6180 N   0  0  0  0  0  0  0  0  0  0  0  0
   49.9300   28.8170   49.8260 C   0  0  0  0  0  0  0  0  0  0  0  0
   49.8650   30.0980   50.3800 C   0  0  0  0  0  0  0  0  0  0  0  0
   49.2200   31.1210   49.7260 C   0  0  0  0  0  0  0  0  0  0  0  0
   48.6180   30.9160   48.5060 C   0  0  0  0  0  0  0  0  0  0  0  0
   47.9570   31.9320   47.8200 C   0  0  0  0  0  0  0  0  0  0  0  0
   46.9870   30.2320   45.1360 H   0  0  0  0  0  0  0  0  0  0  0  0
   48.1480   28.3990   46.3170 H   0  0  0  0  0  0  0  0  0  0  0  0
   50.4430   28.0290   50.3590 H   0  0  0  0  0  0  0  0  0  0  0  0
   50.3270   30.3090   51.3440 H   0  0  0  0  0  0  0  0  0  0  0  0
   49.1730   32.1150   50.1650 H   0  0  0  0  0  0  0  0  0  0  0  0
   47.9240   32.9240   48.2790 H   0  0  0  0  0  0  0  0  0  0  0  0
   48.7940   35.4590   41.2080 C   0  0  0  0  0  0  0  0  0  0  0  0
   48.2990   34.8980   40.0200 C   0  0  0  0  0  0  0  0  0  0  0  0
   47.2080   34.0220   40.1110 C   0  0  0  0  0  0  0  0  0  0  0  0
   46.7260   33.7940   41.3410 N   0  0  0  0  0  0  0  0  0  0  0  0
   47.2030   34.3320   42.4690 C   0  0  0  0  0  0  0  0  0  0  0  0
   48.2570   35.1810   42.4110 N   0  0  0  0  0  0  0  0  0  0  0  0
   49.6200   36.1040   41.0120 H   0  0  0  0  0  0  0  0  0  0  0  0
   48.7080   35.0990   39.0390 H   0  0  0  0  0  0  0  0  0  0  0  0
   46.6320   33.3930   38.9490 C   0  0  0  0  0  0  0  0  0  0  0  0
   45.3720   32.6890   39.0240 C   0  0  0  0  0  0  0  0  0  0  0  0
   44.6850   32.5210   39.8620 H   0  0  0  0  0  0  0  0  0  0  0  0
   45.1550   32.0860   37.2400 S   0  0  0  0  0  0  0  0  0  0  0  0
   46.7930   32.8830   36.7060 C   0  0  0  0  0  0  0  0  0  0  0  0
   47.2330   32.8740   35.7330 H   0  0  0  0  0  0  0  0  0  0  0  0
   46.8620   33.2000   37.7420 N   0  0  0  0  0  0  0  0  0  0  0  0
  1  2  1  0  0  0  0
  2  8  1  0  0  0  0
  3  2  2  0  0  0  0
  3  4  1  0  0  0  0
  4  5  2  0  0  0  0
  5  6  1  0  0  0  0
  5 11  1  0  0  0  0
  6  7  1  0  0  0  0
  8 10  1  0  0  0  0
  8  6  2  0  0  0  0
  9  4  1  0  0  0  0
 11 20  1  0  0  0  0
 12 11  2  0  0  0  0
 12 13  1  0  0  0  0
 13 14  2  0  0  0  0
 14 19  1  0  0  0  0
 14 15  1  0  0  0  0
 15 16  2  0  0  0  0
 16 23  1  0  0  0  0
 16 17  1  0  0  0  0
 17 24  1  0  0  0  0
 18 25  1  0  0  0  0
 18 17  2  0  0  0  0
 19 18  1  0  0  0  0
 20 26  1  0  0  0  0
 20 19  2  0  0  0  0
 21 12  1  0  0  0  0
 22 13  1  0  0  0  0
 27 32  1  0  0  0  0
 28 29  1  0  0  0  0
 28 27  2  0  0  0  0
 29 30  2  0  0  0  0
 30 31  1  0  0  0  0
 31  3  1  0  0  0  0
 32 31  2  0  0  0  0
 33 27  1  0  0  0  0
 34 28  1  0  0  0  0
 35 36  2  0  0  0  0
 35 29  1  0  0  0  0
 36 37  1  0  0  0  0
 38 36  1  0  0  0  0
 39 38  1  0  0  0  0
 39 41  2  0  0  0  0
 40 39  1  0  0  0  0
 41 35  1  0  0  0  0
M  END
>  <minimizedAffinity>
-7.02786541

>  <minimizedRMSD>
0.212335855

$$$$
