
 OpenBabel03252505513D

 23 24  0  0  0  0  0  0  0  0999 V2000
   44.7210   35.3910   45.0310 C   0  0  0  0  0  0  0  0  0  0  0  0
   45.6010   34.9330   44.0530 C   0  0  0  0  0  0  0  0  0  0  0  0
   46.3450   33.7910   44.3320 C   0  0  0  0  0  0  0  0  0  0  0  0
   46.1870   33.1830   45.5210 N   0  0  0  0  0  0  0  0  0  0  0  0
   45.3360   33.6410   46.4440 C   0  0  0  0  0  0  0  0  0  0  0  0
   44.5890   34.7460   46.2250 N   0  0  0  0  0  0  0  0  0  0  0  0
   44.1090   36.2710   44.8870 H   0  0  0  0  0  0  0  0  0  0  0  0
   47.0180   33.4650   43.5480 H   0  0  0  0  0  0  0  0  0  0  0  0
   45.6640   35.7220   42.7720 C   0  0  0  0  0  0  0  0  0  0  0  0
   45.2380   36.9800   43.0810 F   0  0  0  0  0  0  0  0  0  0  0  0
   44.7620   35.1110   41.9040 F   0  0  0  0  0  0  0  0  0  0  0  0
   46.9480   35.6590   42.3020 F   0  0  0  0  0  0  0  0  0  0  0  0
   45.1530   33.0390   47.6720 O   0  0  0  0  0  0  0  0  0  0  0  0
   46.1700   32.3420   48.3430 C   0  0  0  0  0  0  0  0  0  0  0  0
   47.1650   32.8100   48.1970 H   0  0  0  0  0  0  0  0  0  0  0  0
   45.9860   32.3990   49.4340 H   0  0  0  0  0  0  0  0  0  0  0  0
   46.1870   30.8740   47.9980 C   0  0  0  0  0  0  0  0  0  0  0  0
   45.0070   30.1010   47.8800 C   0  0  0  0  0  0  0  0  0  0  0  0
   43.9860   30.3780   48.0000 H   0  0  0  0  0  0  0  0  0  0  0  0
   45.6340   28.4520   47.4600 S   0  0  0  0  0  0  0  0  0  0  0  0
   47.4260   29.0820   47.5120 C   0  0  0  0  0  0  0  0  0  0  0  0
   48.5310   28.6200   47.3440 H   0  0  0  0  0  0  0  0  0  0  0  0
   47.2800   30.1640   47.7730 N   0  0  0  0  0  0  0  0  0  0  0  0
  1  6  1  0  0  0  0
  2  3  1  0  0  0  0
  2  1  2  0  0  0  0
  3  4  2  0  0  0  0
  4  5  1  0  0  0  0
  5 13  1  0  0  0  0
  6  5  2  0  0  0  0
  7  1  1  0  0  0  0
  8  3  1  0  0  0  0
  9 10  1  0  0  0  0
  9  2  1  0  0  0  0
 11  9  1  0  0  0  0
 12  9  1  0  0  0  0
 13 14  1  0  0  0  0
 14 16  1  0  0  0  0
 15 14  1  0  0  0  0
 17 14  1  0  0  0  0
 18 17  2  0  0  0  0
 18 19  1  0  0  0  0
 20 21  1  0  0  0  0
 20 18  1  0  0  0  0
 21 23  2  0  0  0  0
 22 21  1  0  0  0  0
 23 17  1  0  0  0  0
M  END
>  <minimizedAffinity>
-4.63256693

>  <minimizedRMSD>
0.71952635

$$$$
