
 OpenBabel03252504163D

 33 35  0  0  0  0  0  0  0  0999 V2000
   33.0770   28.9360   38.6130 F   0  0  0  0  0  0  0  0  0  0  0  0
   33.9450   28.8800   37.5390 C   0  0  0  0  0  0  0  0  0  0  0  0
   35.2760   28.6510   37.7720 C   0  0  0  0  0  0  0  0  0  0  0  0
   36.0930   28.6070   36.6490 C   0  0  0  0  0  0  0  0  0  0  0  0
   35.5780   28.7860   35.3940 C   0  0  0  0  0  0  0  0  0  0  0  0
   34.2230   29.0150   35.2370 C   0  0  0  0  0  0  0  0  0  0  0  0
   33.3510   29.0700   36.3210 C   0  0  0  0  0  0  0  0  0  0  0  0
   37.1490   28.4270   36.8090 H   0  0  0  0  0  0  0  0  0  0  0  0
   36.2100   28.7530   34.5210 H   0  0  0  0  0  0  0  0  0  0  0  0
   33.8610   29.1490   34.2380 H   0  0  0  0  0  0  0  0  0  0  0  0
   36.9070   27.0750   40.6340 C   0  0  0  0  0  0  0  0  0  0  0  0
   36.8400   28.0390   41.6370 C   0  0  0  0  0  0  0  0  0  0  0  0
   36.2190   29.2550   41.3140 C   0  0  0  0  0  0  0  0  0  0  0  0
   35.7220   29.4330   40.0680 N   0  0  0  0  0  0  0  0  0  0  0  0
   35.8140   28.4610   39.1270 C   0  0  0  0  0  0  0  0  0  0  0  0
   36.4050   27.2860   39.4140 N   0  0  0  0  0  0  0  0  0  0  0  0
   36.1540   30.0210   42.0770 H   0  0  0  0  0  0  0  0  0  0  0  0
   37.4100   27.7540   42.9680 C   0  0  0  0  0  0  0  0  0  0  0  0
   37.5570   28.9290   43.6800 F   0  0  0  0  0  0  0  0  0  0  0  0
   36.4830   26.9830   43.6720 F   0  0  0  0  0  0  0  0  0  0  0  0
   38.5930   27.0990   42.9550 F   0  0  0  0  0  0  0  0  0  0  0  0
   37.5110   25.8910   40.9450 O   0  0  0  0  0  0  0  0  0  0  0  0
   36.8770   24.6280   41.0480 C   0  0  0  0  0  0  0  0  0  0  0  0
   36.4760   24.4980   42.3840 F   0  0  0  0  0  0  0  0  0  0  0  0
   35.8430   24.5340   40.1610 F   0  0  0  0  0  0  0  0  0  0  0  0
   37.8180   23.6330   40.8770 F   0  0  0  0  0  0  0  0  0  0  0  0
   31.9050   29.3140   36.1500 C   0  0  0  0  0  0  0  0  0  0  0  0
   31.1080   28.2610   35.5760 C   0  0  0  0  0  0  0  0  0  0  0  0
   31.3700   27.3540   35.2600 H   0  0  0  0  0  0  0  0  0  0  0  0
   29.4630   29.0810   35.6000 S   0  0  0  0  0  0  0  0  0  0  0  0
   30.1320   30.6610   36.3620 C   0  0  0  0  0  0  0  0  0  0  0  0
   29.5800   31.5320   36.6110 H   0  0  0  0  0  0  0  0  0  0  0  0
   31.3550   30.4570   36.5090 N   0  0  0  0  0  0  0  0  0  0  0  0
  2  3  1  0  0  0  0
  2  1  1  0  0  0  0
  3 15  1  0  0  0  0
  4  8  1  0  0  0  0
  4  3  2  0  0  0  0
  5  4  1  0  0  0  0
  6  5  2  0  0  0  0
  6  7  1  0  0  0  0
  7  2  2  0  0  0  0
  9  5  1  0  0  0  0
 10  6  1  0  0  0  0
 11 22  1  0  0  0  0
 11 12  1  0  0  0  0
 12 18  1  0  0  0  0
 13 12  2  0  0  0  0
 13 17  1  0  0  0  0
 14 13  1  0  0  0  0
 15 16  1  0  0  0  0
 15 14  2  0  0  0  0
 16 11  2  0  0  0  0
 18 20  1  0  0  0  0
 18 19  1  0  0  0  0
 21 18  1  0  0  0  0
 22 23  1  0  0  0  0
 23 24  1  0  0  0  0
 25 23  1  0  0  0  0
 26 23  1  0  0  0  0
 27  7  1  0  0  0  0
 27 33  1  0  0  0  0
 28 30  1  0  0  0  0
 28 27  2  0  0  0  0
 29 28  1  0  0  0  0
 30 31  1  0  0  0  0
 31 33  2  0  0  0  0
 31 32  1  0  0  0  0
M  END
>  <minimizedAffinity>
-5.81922197

$$$$

 OpenBabel03252504163D

 33 35  0  0  0  0  0  0  0  0999 V2000
   38.6630   27.2160   40.1620 F   0  0  0  0  0  0  0  0  0  0  0  0
   37.9740   27.3290   41.3560 C   0  0  0  0  0  0  0  0  0  0  0  0
   37.9570   28.5380   42.0000 C   0  0  0  0  0  0  0  0  0  0  0  0
   37.2460   28.5830   43.1930 C   0  0  0  0  0  0  0  0  0  0  0  0
   36.6120   27.4730   43.6800 C   0  0  0  0  0  0  0  0  0  0  0  0
   36.6750   26.2860   42.9730 C   0  0  0  0  0  0  0  0  0  0  0  0
   37.3690   26.1740   41.7710 C   0  0  0  0  0  0  0  0  0  0  0  0
   37.2190   29.5290   43.7210 H   0  0  0  0  0  0  0  0  0  0  0  0
   36.0600   27.5050   44.6050 H   0  0  0  0  0  0  0  0  0  0  0  0
   36.1630   25.4400   43.3870 H   0  0  0  0  0  0  0  0  0  0  0  0
   39.0250   31.1290   39.6590 C   0  0  0  0  0  0  0  0  0  0  0  0
   39.8970   31.9210   40.4030 C   0  0  0  0  0  0  0  0  0  0  0  0
   40.1160   31.5490   41.7370 C   0  0  0  0  0  0  0  0  0  0  0  0
   39.4850   30.4600   42.2330 N   0  0  0  0  0  0  0  0  0  0  0  0
   38.6450   29.7230   41.4650 C   0  0  0  0  0  0  0  0  0  0  0  0
   38.4190   30.0590   40.1810 N   0  0  0  0  0  0  0  0  0  0  0  0
   40.7910   32.1490   42.3370 H   0  0  0  0  0  0  0  0  0  0  0  0
   40.5400   33.0920   39.7770 C   0  0  0  0  0  0  0  0  0  0  0  0
   39.6020   34.0780   39.5420 F   0  0  0  0  0  0  0  0  0  0  0  0
   41.4440   33.6250   40.6990 F   0  0  0  0  0  0  0  0  0  0  0  0
   41.2020   32.8340   38.6260 F   0  0  0  0  0  0  0  0  0  0  0  0
   38.8090   31.4890   38.3600 O   0  0  0  0  0  0  0  0  0  0  0  0
   37.5800   31.9230   37.8040 C   0  0  0  0  0  0  0  0  0  0  0  0
   36.7580   30.7910   37.7360 F   0  0  0  0  0  0  0  0  0  0  0  0
   37.0460   32.9360   38.5460 F   0  0  0  0  0  0  0  0  0  0  0  0
   37.7800   32.2780   36.4850 F   0  0  0  0  0  0  0  0  0  0  0  0
   37.4340   24.9060   41.0200 C   0  0  0  0  0  0  0  0  0  0  0  0
   36.4870   24.7050   39.9540 C   0  0  0  0  0  0  0  0  0  0  0  0
   35.7620   25.2980   39.6160 H   0  0  0  0  0  0  0  0  0  0  0  0
   37.0100   23.0330   39.3960 S   0  0  0  0  0  0  0  0  0  0  0  0
   38.3800   22.9090   40.6740 C   0  0  0  0  0  0  0  0  0  0  0  0
   39.0490   22.0970   40.8150 H   0  0  0  0  0  0  0  0  0  0  0  0
   38.3280   23.9810   41.3110 N   0  0  0  0  0  0  0  0  0  0  0  0
  1  2  1  0  0  0  0
  2  7  2  0  0  0  0
  2  3  1  0  0  0  0
  3  4  2  0  0  0  0
  4  5  1  0  0  0  0
  4  8  1  0  0  0  0
  5  9  1  0  0  0  0
  6 10  1  0  0  0  0
  6  5  2  0  0  0  0
  7  6  1  0  0  0  0
 11 16  2  0  0  0  0
 11 12  1  0  0  0  0
 12 13  2  0  0  0  0
 13 14  1  0  0  0  0
 13 17  1  0  0  0  0
 15  3  1  0  0  0  0
 15 14  2  0  0  0  0
 16 15  1  0  0  0  0
 18 12  1  0  0  0  0
 18 20  1  0  0  0  0
 19 18  1  0  0  0  0
 21 18  1  0  0  0  0
 22 11  1  0  0  0  0
 23 22  1  0  0  0  0
 23 25  1  0  0  0  0
 24 23  1  0  0  0  0
 26 23  1  0  0  0  0
 27 33  1  0  0  0  0
 27  7  1  0  0  0  0
 28 27  2  0  0  0  0
 29 28  1  0  0  0  0
 30 28  1  0  0  0  0
 30 31  1  0  0  0  0
 31 32  1  0  0  0  0
 31 33  2  0  0  0  0
M  END
>  <minimizedAffinity>
-5.71157885

$$$$

 OpenBabel03252504163D

 33 35  0  0  0  0  0  0  0  0999 V2000
   39.9930   29.6990   39.4230 F   0  0  0  0  0  0  0  0  0  0  0  0
   38.9570   30.5980   39.5960 C   0  0  0  0  0  0  0  0  0  0  0  0
   37.7420   30.1360   40.0300 C   0  0  0  0  0  0  0  0  0  0  0  0
   36.7460   31.0920   40.1830 C   0  0  0  0  0  0  0  0  0  0  0  0
   36.9840   32.4110   39.9080 C   0  0  0  0  0  0  0  0  0  0  0  0
   38.2370   32.8020   39.4740 C   0  0  0  0  0  0  0  0  0  0  0  0
   39.2790   31.8950   39.3010 C   0  0  0  0  0  0  0  0  0  0  0  0
   35.7760   30.7490   40.5240 H   0  0  0  0  0  0  0  0  0  0  0  0
   36.2130   33.1540   40.0260 H   0  0  0  0  0  0  0  0  0  0  0  0
   38.3830   33.8440   39.2710 H   0  0  0  0  0  0  0  0  0  0  0  0
   37.8640   26.9030   41.7230 C   0  0  0  0  0  0  0  0  0  0  0  0
   37.0920   26.0680   40.9200 C   0  0  0  0  0  0  0  0  0  0  0  0
   36.5190   26.6380   39.7720 C   0  0  0  0  0  0  0  0  0  0  0  0
   36.7400   27.9450   39.5030 N   0  0  0  0  0  0  0  0  0  0  0  0
   37.5010   28.7140   40.3190 C   0  0  0  0  0  0  0  0  0  0  0  0
   38.0610   28.1900   41.4250 N   0  0  0  0  0  0  0  0  0  0  0  0
   35.9140   26.0090   39.1300 H   0  0  0  0  0  0  0  0  0  0  0  0
   36.9070   24.6530   41.2940 C   0  0  0  0  0  0  0  0  0  0  0  0
   36.3980   24.5660   42.5760 F   0  0  0  0  0  0  0  0  0  0  0  0
   35.9340   24.1130   40.4500 F   0  0  0  0  0  0  0  0  0  0  0  0
   38.0190   23.8900   41.2120 F   0  0  0  0  0  0  0  0  0  0  0  0
   38.4220   26.3520   42.8400 O   0  0  0  0  0  0  0  0  0  0  0  0
   39.7910   26.0320   43.0240 C   0  0  0  0  0  0  0  0  0  0  0  0
   40.3090   25.7770   41.7480 F   0  0  0  0  0  0  0  0  0  0  0  0
   40.4370   27.0400   43.6790 F   0  0  0  0  0  0  0  0  0  0  0  0
   39.8900   24.8220   43.6800 F   0  0  0  0  0  0  0  0  0  0  0  0
   40.6150   32.3160   38.8360 C   0  0  0  0  0  0  0  0  0  0  0  0
   40.8750   32.2860   37.4200 C   0  0  0  0  0  0  0  0  0  0  0  0
   40.2870   32.0210   36.6620 H   0  0  0  0  0  0  0  0  0  0  0  0
   42.6140   32.8840   37.4210 S   0  0  0  0  0  0  0  0  0  0  0  0
   42.6750   33.0610   39.2890 C   0  0  0  0  0  0  0  0  0  0  0  0
   43.4970   33.3910   39.8720 H   0  0  0  0  0  0  0  0  0  0  0  0
   41.5450   32.7060   39.6850 N   0  0  0  0  0  0  0  0  0  0  0  0
  1  2  1  0  0  0  0
  2  3  1  0  0  0  0
  3  4  2  0  0  0  0
  3 15  1  0  0  0  0
  4  8  1  0  0  0  0
  5  9  1  0  0  0  0
  5  4  1  0  0  0  0
  6  5  2  0  0  0  0
  7  6  1  0  0  0  0
  7  2  2  0  0  0  0
 10  6  1  0  0  0  0
 11 22  1  0  0  0  0
 12 18  1  0  0  0  0
 12 11  2  0  0  0  0
 13 12  1  0  0  0  0
 14 13  2  0  0  0  0
 14 15  1  0  0  0  0
 15 16  2  0  0  0  0
 16 11  1  0  0  0  0
 17 13  1  0  0  0  0
 18 19  1  0  0  0  0
 20 18  1  0  0  0  0
 21 18  1  0  0  0  0
 22 23  1  0  0  0  0
 23 25  1  0  0  0  0
 23 26  1  0  0  0  0
 24 23  1  0  0  0  0
 27  7  1  0  0  0  0
 27 33  1  0  0  0  0
 28 30  1  0  0  0  0
 28 27  2  0  0  0  0
 29 28  1  0  0  0  0
 30 31  1  0  0  0  0
 31 33  2  0  0  0  0
 31 32  1  0  0  0  0
M  END
>  <minimizedAffinity>
-5.68712616

$$$$

 OpenBabel03252504163D

 33 35  0  0  0  0  0  0  0  0999 V2000
   37.0290   26.7380   38.7060 F   0  0  0  0  0  0  0  0  0  0  0  0
   36.9930   26.2160   39.9850 C   0  0  0  0  0  0  0  0  0  0  0  0
   37.2100   27.0510   41.0500 C   0  0  0  0  0  0  0  0  0  0  0  0
   37.1600   26.4610   42.3080 C   0  0  0  0  0  0  0  0  0  0  0  0
   36.9100   25.1240   42.4510 C   0  0  0  0  0  0  0  0  0  0  0  0
   36.7010   24.3440   41.3290 C   0  0  0  0  0  0  0  0  0  0  0  0
   36.7370   24.8730   40.0410 C   0  0  0  0  0  0  0  0  0  0  0  0
   37.3290   27.1020   43.1650 H   0  0  0  0  0  0  0  0  0  0  0  0
   36.8710   24.6650   43.4250 H   0  0  0  0  0  0  0  0  0  0  0  0
   36.5080   23.3020   41.4840 H   0  0  0  0  0  0  0  0  0  0  0  0
   37.2730   30.3840   39.5600 C   0  0  0  0  0  0  0  0  0  0  0  0
   37.9480   31.1630   40.4960 C   0  0  0  0  0  0  0  0  0  0  0  0
   38.3870   30.5200   41.6640 C   0  0  0  0  0  0  0  0  0  0  0  0
   38.1420   29.1990   41.8230 N   0  0  0  0  0  0  0  0  0  0  0  0
   37.4800   28.4860   40.8800 C   0  0  0  0  0  0  0  0  0  0  0  0
   37.0480   29.0810   39.7510 N   0  0  0  0  0  0  0  0  0  0  0  0
   38.9150   31.1040   42.4080 H   0  0  0  0  0  0  0  0  0  0  0  0
   38.1690   32.5980   40.2350 C   0  0  0  0  0  0  0  0  0  0  0  0
   38.7120   33.2030   41.3510 F   0  0  0  0  0  0  0  0  0  0  0  0
   39.1300   32.7030   39.2260 F   0  0  0  0  0  0  0  0  0  0  0  0
   37.0700   33.2860   39.8540 F   0  0  0  0  0  0  0  0  0  0  0  0
   36.8440   31.0060   38.4230 O   0  0  0  0  0  0  0  0  0  0  0  0
   37.3940   30.8560   37.1260 C   0  0  0  0  0  0  0  0  0  0  0  0
   36.5520   29.9700   36.4420 F   0  0  0  0  0  0  0  0  0  0  0  0
   37.5160   32.0690   36.5120 F   0  0  0  0  0  0  0  0  0  0  0  0
   38.5950   30.1820   37.2180 F   0  0  0  0  0  0  0  0  0  0  0  0
   36.5150   24.0370   38.8450 C   0  0  0  0  0  0  0  0  0  0  0  0
   35.1740   23.9500   38.3250 C   0  0  0  0  0  0  0  0  0  0  0  0
   34.3310   24.3730   38.6430 H   0  0  0  0  0  0  0  0  0  0  0  0
   35.4760   22.8270   36.9000 S   0  0  0  0  0  0  0  0  0  0  0  0
   37.3140   22.6810   37.2550 C   0  0  0  0  0  0  0  0  0  0  0  0
   38.0260   22.1170   36.7080 H   0  0  0  0  0  0  0  0  0  0  0  0
   37.5060   23.3880   38.2670 N   0  0  0  0  0  0  0  0  0  0  0  0
  1  2  1  0  0  0  0
  2  7  2  0  0  0  0
  2  3  1  0  0  0  0
  3  4  2  0  0  0  0
  4  5  1  0  0  0  0
  4  8  1  0  0  0  0
  5  9  1  0  0  0  0
  6 10  1  0  0  0  0
  6  5  2  0  0  0  0
  7  6  1  0  0  0  0
 11 16  2  0  0  0  0
 11 12  1  0  0  0  0
 12 13  2  0  0  0  0
 13 14  1  0  0  0  0
 13 17  1  0  0  0  0
 15  3  1  0  0  0  0
 15 14  2  0  0  0  0
 16 15  1  0  0  0  0
 18 12  1  0  0  0  0
 18 19  1  0  0  0  0
 20 18  1  0  0  0  0
 21 18  1  0  0  0  0
 22 11  1  0  0  0  0
 23 26  1  0  0  0  0
 23 22  1  0  0  0  0
 24 23  1  0  0  0  0
 25 23  1  0  0  0  0
 27  7  1  0  0  0  0
 28 29  1  0  0  0  0
 28 27  2  0  0  0  0
 30 31  1  0  0  0  0
 30 28  1  0  0  0  0
 31 33  2  0  0  0  0
 32 31  1  0  0  0  0
 33 27  1  0  0  0  0
M  END
>  <minimizedAffinity>
-5.50747824

$$$$

 OpenBabel03252504163D

 33 35  0  0  0  0  0  0  0  0999 V2000
   32.7060   29.3030   38.8600 F   0  0  0  0  0  0  0  0  0  0  0  0
   33.2960   29.2360   37.6120 C   0  0  0  0  0  0  0  0  0  0  0  0
   34.6510   29.0510   37.5270 C   0  0  0  0  0  0  0  0  0  0  0  0
   35.1790   28.9920   36.2430 C   0  0  0  0  0  0  0  0  0  0  0  0
   34.3760   29.1170   35.1430 C   0  0  0  0  0  0  0  0  0  0  0  0
   33.0160   29.3020   35.3080 C   0  0  0  0  0  0  0  0  0  0  0  0
   32.4240   29.3690   36.5660 C   0  0  0  0  0  0  0  0  0  0  0  0
   36.2490   28.8460   36.1510 H   0  0  0  0  0  0  0  0  0  0  0  0
   34.7830   29.0720   34.1460 H   0  0  0  0  0  0  0  0  0  0  0  0
   32.4220   29.3940   34.4210 H   0  0  0  0  0  0  0  0  0  0  0  0
   36.6890   29.9700   40.4150 C   0  0  0  0  0  0  0  0  0  0  0  0
   37.0910   28.7490   40.9500 C   0  0  0  0  0  0  0  0  0  0  0  0
   36.6480   27.5880   40.2980 C   0  0  0  0  0  0  0  0  0  0  0  0
   35.8650   27.7050   39.2000 N   0  0  0  0  0  0  0  0  0  0  0  0
   35.5020   28.9200   38.7200 C   0  0  0  0  0  0  0  0  0  0  0  0
   35.9160   30.0470   39.3280 N   0  0  0  0  0  0  0  0  0  0  0  0
   36.9470   26.6260   40.6940 H   0  0  0  0  0  0  0  0  0  0  0  0
   37.9460   28.7200   42.1520 C   0  0  0  0  0  0  0  0  0  0  0  0
   37.2790   29.2850   43.2200 F   0  0  0  0  0  0  0  0  0  0  0  0
   38.1610   27.3810   42.4890 F   0  0  0  0  0  0  0  0  0  0  0  0
   39.1470   29.3270   42.0150 F   0  0  0  0  0  0  0  0  0  0  0  0
   37.1190   31.1000   41.0470 O   0  0  0  0  0  0  0  0  0  0  0  0
   37.9440   32.1100   40.4910 C   0  0  0  0  0  0  0  0  0  0  0  0
   37.0800   33.0330   39.8870 F   0  0  0  0  0  0  0  0  0  0  0  0
   38.7410   32.6630   41.4510 F   0  0  0  0  0  0  0  0  0  0  0  0
   38.6640   31.5800   39.4410 F   0  0  0  0  0  0  0  0  0  0  0  0
   30.9720   29.5680   36.7390 C   0  0  0  0  0  0  0  0  0  0  0  0
   30.5060   30.8950   37.0470 C   0  0  0  0  0  0  0  0  0  0  0  0
   31.0120   31.7440   37.1680 H   0  0  0  0  0  0  0  0  0  0  0  0
   28.7000   30.5650   37.1480 S   0  0  0  0  0  0  0  0  0  0  0  0
   28.8950   28.7370   36.7660 C   0  0  0  0  0  0  0  0  0  0  0  0
   28.1210   28.0140   36.6950 H   0  0  0  0  0  0  0  0  0  0  0  0
   30.1230   28.5660   36.6190 N   0  0  0  0  0  0  0  0  0  0  0  0
  2  1  1  0  0  0  0
  3  2  1  0  0  0  0
  3 15  1  0  0  0  0
  4  3  2  0  0  0  0
  5  6  2  0  0  0  0
  5  4  1  0  0  0  0
  6  7  1  0  0  0  0
  7 27  1  0  0  0  0
  7  2  2  0  0  0  0
  8  4  1  0  0  0  0
  9  5  1  0  0  0  0
 10  6  1  0  0  0  0
 11 12  1  0  0  0  0
 11 22  1  0  0  0  0
 12 18  1  0  0  0  0
 13 17  1  0  0  0  0
 13 12  2  0  0  0  0
 14 13  1  0  0  0  0
 15 14  2  0  0  0  0
 15 16  1  0  0  0  0
 16 11  2  0  0  0  0
 18 20  1  0  0  0  0
 18 19  1  0  0  0  0
 21 18  1  0  0  0  0
 23 22  1  0  0  0  0
 23 25  1  0  0  0  0
 24 23  1  0  0  0  0
 26 23  1  0  0  0  0
 27 28  2  0  0  0  0
 28 30  1  0  0  0  0
 28 29  1  0  0  0  0
 31 30  1  0  0  0  0
 32 31  1  0  0  0  0
 33 27  1  0  0  0  0
 33 31  2  0  0  0  0
M  END
>  <minimizedAffinity>
-5.44973183

$$$$

 OpenBabel03252504163D

 33 35  0  0  0  0  0  0  0  0999 V2000
   33.1930   28.9210   38.6090 F   0  0  0  0  0  0  0  0  0  0  0  0
   34.0500   29.0050   37.5280 C   0  0  0  0  0  0  0  0  0  0  0  0
   35.4020   28.9650   37.7470 C   0  0  0  0  0  0  0  0  0  0  0  0
   36.2060   29.0530   36.6170 C   0  0  0  0  0  0  0  0  0  0  0  0
   35.6600   29.1750   35.3690 C   0  0  0  0  0  0  0  0  0  0  0  0
   34.2840   29.2090   35.2260 C   0  0  0  0  0  0  0  0  0  0  0  0
   33.4230   29.1240   36.3170 C   0  0  0  0  0  0  0  0  0  0  0  0
   37.2790   29.0240   36.7670 H   0  0  0  0  0  0  0  0  0  0  0  0
   36.2810   29.2450   34.4920 H   0  0  0  0  0  0  0  0  0  0  0  0
   33.8970   29.3050   34.2320 H   0  0  0  0  0  0  0  0  0  0  0  0
   36.6610   27.4360   40.8150 C   0  0  0  0  0  0  0  0  0  0  0  0
   37.0380   28.5190   41.6050 C   0  0  0  0  0  0  0  0  0  0  0  0
   36.8530   29.8000   41.0630 C   0  0  0  0  0  0  0  0  0  0  0  0
   36.3260   29.9230   39.8230 N   0  0  0  0  0  0  0  0  0  0  0  0
   35.9750   28.8350   39.0960 C   0  0  0  0  0  0  0  0  0  0  0  0
   36.1430   27.5950   39.5940 N   0  0  0  0  0  0  0  0  0  0  0  0
   37.1380   30.6590   41.6580 H   0  0  0  0  0  0  0  0  0  0  0  0
   37.6050   28.2860   42.9470 C   0  0  0  0  0  0  0  0  0  0  0  0
   36.7900   27.4320   43.6630 F   0  0  0  0  0  0  0  0  0  0  0  0
   38.8230   27.6210   42.7850 F   0  0  0  0  0  0  0  0  0  0  0  0
   37.8200   29.4030   43.6790 F   0  0  0  0  0  0  0  0  0  0  0  0
   36.8400   26.1880   41.3390 O   0  0  0  0  0  0  0  0  0  0  0  0
   37.7850   25.2250   40.9060 C   0  0  0  0  0  0  0  0  0  0  0  0
   37.0460   24.1700   40.3560 F   0  0  0  0  0  0  0  0  0  0  0  0
   38.6710   25.7800   40.0290 F   0  0  0  0  0  0  0  0  0  0  0  0
   38.4040   24.6690   42.0070 F   0  0  0  0  0  0  0  0  0  0  0  0
   31.9560   29.1610   36.1610 C   0  0  0  0  0  0  0  0  0  0  0  0
   31.3010   30.4400   36.2580 C   0  0  0  0  0  0  0  0  0  0  0  0
   31.6780   31.3470   36.4180 H   0  0  0  0  0  0  0  0  0  0  0  0
   29.5600   29.9080   35.9980 S   0  0  0  0  0  0  0  0  0  0  0  0
   30.0200   28.0970   35.8110 C   0  0  0  0  0  0  0  0  0  0  0  0
   29.3590   27.2860   35.6330 H   0  0  0  0  0  0  0  0  0  0  0  0
   31.2610   28.0620   35.9410 N   0  0  0  0  0  0  0  0  0  0  0  0
  2  3  1  0  0  0  0
  2  1  1  0  0  0  0
  3 15  1  0  0  0  0
  4  8  1  0  0  0  0
  4  3  2  0  0  0  0
  5  4  1  0  0  0  0
  6  5  2  0  0  0  0
  6  7  1  0  0  0  0
  7  2  2  0  0  0  0
  9  5  1  0  0  0  0
 10  6  1  0  0  0  0
 11 22  1  0  0  0  0
 11 12  1  0  0  0  0
 12 18  1  0  0  0  0
 13 12  2  0  0  0  0
 13 17  1  0  0  0  0
 14 13  1  0  0  0  0
 15 16  1  0  0  0  0
 15 14  2  0  0  0  0
 16 11  2  0  0  0  0
 18 19  1  0  0  0  0
 18 21  1  0  0  0  0
 20 18  1  0  0  0  0
 23 22  1  0  0  0  0
 23 26  1  0  0  0  0
 24 23  1  0  0  0  0
 25 23  1  0  0  0  0
 27 28  2  0  0  0  0
 27  7  1  0  0  0  0
 28 29  1  0  0  0  0
 30 28  1  0  0  0  0
 31 33  2  0  0  0  0
 31 30  1  0  0  0  0
 32 31  1  0  0  0  0
 33 27  1  0  0  0  0
M  END
>  <minimizedAffinity>
-5.38802624

$$$$

 OpenBabel03252504163D

 33 35  0  0  0  0  0  0  0  0999 V2000
   40.5850   30.6960   38.7780 F   0  0  0  0  0  0  0  0  0  0  0  0
   39.5970   31.5560   39.2190 C   0  0  0  0  0  0  0  0  0  0  0  0
   38.3540   31.0530   39.4980 C   0  0  0  0  0  0  0  0  0  0  0  0
   37.4080   31.9720   39.9370 C   0  0  0  0  0  0  0  0  0  0  0  0
   37.7210   33.2960   40.0740 C   0  0  0  0  0  0  0  0  0  0  0  0
   38.9990   33.7310   39.7720 C   0  0  0  0  0  0  0  0  0  0  0  0
   39.9920   32.8620   39.3290 C   0  0  0  0  0  0  0  0  0  0  0  0
   36.4170   31.5960   40.1630 H   0  0  0  0  0  0  0  0  0  0  0  0
   36.9890   34.0110   40.4140 H   0  0  0  0  0  0  0  0  0  0  0  0
   39.2030   34.7760   39.8940 H   0  0  0  0  0  0  0  0  0  0  0  0
   37.8530   27.5320   40.3290 C   0  0  0  0  0  0  0  0  0  0  0  0
   37.4480   26.9540   39.1300 C   0  0  0  0  0  0  0  0  0  0  0  0
   37.3460   27.7990   38.0150 C   0  0  0  0  0  0  0  0  0  0  0  0
   37.6420   29.1130   38.1520 N   0  0  0  0  0  0  0  0  0  0  0  0
   38.0320   29.6260   39.3440 C   0  0  0  0  0  0  0  0  0  0  0  0
   38.1370   28.8340   40.4280 N   0  0  0  0  0  0  0  0  0  0  0  0
   37.0330   27.3730   37.0690 H   0  0  0  0  0  0  0  0  0  0  0  0
   37.1460   25.5110   39.0750 C   0  0  0  0  0  0  0  0  0  0  0  0
   38.1820   24.7900   39.6370 F   0  0  0  0  0  0  0  0  0  0  0  0
   36.0280   25.2790   39.8800 F   0  0  0  0  0  0  0  0  0  0  0  0
   36.8940   25.0250   37.8390 F   0  0  0  0  0  0  0  0  0  0  0  0
   37.9520   26.7120   41.4160 O   0  0  0  0  0  0  0  0  0  0  0  0
   37.1240   26.7400   42.5660 C   0  0  0  0  0  0  0  0  0  0  0  0
   37.9730   26.9690   43.6560 F   0  0  0  0  0  0  0  0  0  0  0  0
   36.1470   27.6830   42.4320 F   0  0  0  0  0  0  0  0  0  0  0  0
   36.6170   25.4760   42.7890 F   0  0  0  0  0  0  0  0  0  0  0  0
   41.3540   33.3290   39.0080 C   0  0  0  0  0  0  0  0  0  0  0  0
   42.3420   33.2970   40.0560 C   0  0  0  0  0  0  0  0  0  0  0  0
   42.2660   33.0010   41.0030 H   0  0  0  0  0  0  0  0  0  0  0  0
   43.7850   33.9620   39.1320 S   0  0  0  0  0  0  0  0  0  0  0  0
   42.8180   34.1600   37.5340 C   0  0  0  0  0  0  0  0  0  0  0  0
   43.1840   34.5300   36.6090 H   0  0  0  0  0  0  0  0  0  0  0  0
   41.6650   33.7650   37.8020 N   0  0  0  0  0  0  0  0  0  0  0  0
  1  2  1  0  0  0  0
  2  7  2  0  0  0  0
  2  3  1  0  0  0  0
  3  4  2  0  0  0  0
  4  5  1  0  0  0  0
  4  8  1  0  0  0  0
  5  9  1  0  0  0  0
  6 10  1  0  0  0  0
  6  5  2  0  0  0  0
  7  6  1  0  0  0  0
 11 16  1  0  0  0  0
 11 22  1  0  0  0  0
 12 11  2  0  0  0  0
 13 14  2  0  0  0  0
 13 12  1  0  0  0  0
 14 15  1  0  0  0  0
 15  3  1  0  0  0  0
 15 16  2  0  0  0  0
 17 13  1  0  0  0  0
 18 12  1  0  0  0  0
 18 19  1  0  0  0  0
 18 20  1  0  0  0  0
 21 18  1  0  0  0  0
 22 23  1  0  0  0  0
 23 26  1  0  0  0  0
 23 24  1  0  0  0  0
 25 23  1  0  0  0  0
 27  7  1  0  0  0  0
 27 28  2  0  0  0  0
 28 29  1  0  0  0  0
 30 28  1  0  0  0  0
 31 33  2  0  0  0  0
 31 30  1  0  0  0  0
 32 31  1  0  0  0  0
 33 27  1  0  0  0  0
M  END
>  <minimizedAffinity>
-5.36668301

$$$$

 OpenBabel03252504163D

 33 35  0  0  0  0  0  0  0  0999 V2000
   37.2020   27.0370   39.0130 F   0  0  0  0  0  0  0  0  0  0  0  0
   37.0870   26.6390   40.3320 C   0  0  0  0  0  0  0  0  0  0  0  0
   37.1840   27.5830   41.3200 C   0  0  0  0  0  0  0  0  0  0  0  0
   37.0600   27.1160   42.6230 C   0  0  0  0  0  0  0  0  0  0  0  0
   36.8560   25.7890   42.8820 C   0  0  0  0  0  0  0  0  0  0  0  0
   36.7690   24.8940   41.8300 C   0  0  0  0  0  0  0  0  0  0  0  0
   36.8850   25.2970   40.5030 C   0  0  0  0  0  0  0  0  0  0  0  0
   37.1330   27.8450   43.4220 H   0  0  0  0  0  0  0  0  0  0  0  0
   36.7590   25.4240   43.8910 H   0  0  0  0  0  0  0  0  0  0  0  0
   36.6080   23.8630   42.0750 H   0  0  0  0  0  0  0  0  0  0  0  0
   38.9170   30.7350   40.6860 C   0  0  0  0  0  0  0  0  0  0  0  0
   37.8900   31.6530   40.4830 C   0  0  0  0  0  0  0  0  0  0  0  0
   36.5750   31.1700   40.5680 C   0  0  0  0  0  0  0  0  0  0  0  0
   36.3680   29.8600   40.8380 N   0  0  0  0  0  0  0  0  0  0  0  0
   37.4050   29.0070   41.0270 C   0  0  0  0  0  0  0  0  0  0  0  0
   38.6750   29.4470   40.9510 N   0  0  0  0  0  0  0  0  0  0  0  0
   35.7580   31.8640   40.4150 H   0  0  0  0  0  0  0  0  0  0  0  0
   38.2120   33.0630   40.1930 C   0  0  0  0  0  0  0  0  0  0  0  0
   37.0660   33.7470   39.8400 F   0  0  0  0  0  0  0  0  0  0  0  0
   38.6670   33.6480   41.3780 F   0  0  0  0  0  0  0  0  0  0  0  0
   39.1470   33.2510   39.2350 F   0  0  0  0  0  0  0  0  0  0  0  0
   40.1970   31.2010   40.6030 O   0  0  0  0  0  0  0  0  0  0  0  0
   41.1080   31.3460   41.6800 C   0  0  0  0  0  0  0  0  0  0  0  0
   40.3340   31.3810   42.8470 F   0  0  0  0  0  0  0  0  0  0  0  0
   42.0270   30.3380   41.6710 F   0  0  0  0  0  0  0  0  0  0  0  0
   41.6880   32.5970   41.6180 F   0  0  0  0  0  0  0  0  0  0  0  0
   36.7930   24.3390   39.3830 C   0  0  0  0  0  0  0  0  0  0  0  0
   37.9910   23.6430   38.9920 C   0  0  0  0  0  0  0  0  0  0  0  0
   38.9150   23.6940   39.3610 H   0  0  0  0  0  0  0  0  0  0  0  0
   37.3170   22.6310   37.6140 S   0  0  0  0  0  0  0  0  0  0  0  0
   35.5790   23.3150   37.8080 C   0  0  0  0  0  0  0  0  0  0  0  0
   34.7250   23.0610   37.2310 H   0  0  0  0  0  0  0  0  0  0  0  0
   35.6530   24.1250   38.7550 N   0  0  0  0  0  0  0  0  0  0  0  0
  1  2  1  0  0  0  0
  2  7  2  0  0  0  0
  2  3  1  0  0  0  0
  3  4  2  0  0  0  0
  4  5  1  0  0  0  0
  4  8  1  0  0  0  0
  5  9  1  0  0  0  0
  6 10  1  0  0  0  0
  6  5  2  0  0  0  0
  7  6  1  0  0  0  0
 11 16  1  0  0  0  0
 12 13  1  0  0  0  0
 12 11  2  0  0  0  0
 13 14  2  0  0  0  0
 14 15  1  0  0  0  0
 15  3  1  0  0  0  0
 16 15  2  0  0  0  0
 17 13  1  0  0  0  0
 18 12  1  0  0  0  0
 18 20  1  0  0  0  0
 19 18  1  0  0  0  0
 21 18  1  0  0  0  0
 22 11  1  0  0  0  0
 22 23  1  0  0  0  0
 23 24  1  0  0  0  0
 25 23  1  0  0  0  0
 26 23  1  0  0  0  0
 27  7  1  0  0  0  0
 28 29  1  0  0  0  0
 28 27  2  0  0  0  0
 30 31  1  0  0  0  0
 30 28  1  0  0  0  0
 31 33  2  0  0  0  0
 32 31  1  0  0  0  0
 33 27  1  0  0  0  0
M  END
>  <minimizedAffinity>
-5.32260656

$$$$

 OpenBabel03252504163D

 33 35  0  0  0  0  0  0  0  0999 V2000
   40.5130   30.1310   39.9480 F   0  0  0  0  0  0  0  0  0  0  0  0
   39.2700   30.7300   40.0280 C   0  0  0  0  0  0  0  0  0  0  0  0
   38.2270   30.0270   40.5710 C   0  0  0  0  0  0  0  0  0  0  0  0
   37.0050   30.6880   40.6200 C   0  0  0  0  0  0  0  0  0  0  0  0
   36.8740   31.9650   40.1470 C   0  0  0  0  0  0  0  0  0  0  0  0
   37.9730   32.6120   39.6120 C   0  0  0  0  0  0  0  0  0  0  0  0
   39.2240   32.0060   39.5340 C   0  0  0  0  0  0  0  0  0  0  0  0
   36.1660   30.1510   41.0450 H   0  0  0  0  0  0  0  0  0  0  0  0
   35.9280   32.4800   40.1850 H   0  0  0  0  0  0  0  0  0  0  0  0
   37.8280   33.6110   39.2540 H   0  0  0  0  0  0  0  0  0  0  0  0
   38.3060   26.3770   40.6350 C   0  0  0  0  0  0  0  0  0  0  0  0
   38.6590   26.0670   41.9460 C   0  0  0  0  0  0  0  0  0  0  0  0
   38.8730   27.1430   42.8210 C   0  0  0  0  0  0  0  0  0  0  0  0
   38.7300   28.4070   42.3610 N   0  0  0  0  0  0  0  0  0  0  0  0
   38.3840   28.6540   41.0740 C   0  0  0  0  0  0  0  0  0  0  0  0
   38.1720   27.6380   40.2160 N   0  0  0  0  0  0  0  0  0  0  0  0
   39.1490   26.9280   43.8460 H   0  0  0  0  0  0  0  0  0  0  0  0
   38.7930   24.6560   42.3560 C   0  0  0  0  0  0  0  0  0  0  0  0
   39.4580   24.5770   43.5640 F   0  0  0  0  0  0  0  0  0  0  0  0
   37.5080   24.1560   42.5840 F   0  0  0  0  0  0  0  0  0  0  0  0
   39.4130   23.8560   41.4610 F   0  0  0  0  0  0  0  0  0  0  0  0
   38.0970   25.3320   39.7810 O   0  0  0  0  0  0  0  0  0  0  0  0
   36.8480   24.9160   39.2540 C   0  0  0  0  0  0  0  0  0  0  0  0
   36.5290   23.7160   39.9020 F   0  0  0  0  0  0  0  0  0  0  0  0
   35.9070   25.8890   39.4230 F   0  0  0  0  0  0  0  0  0  0  0  0
   37.0120   24.5560   37.9320 F   0  0  0  0  0  0  0  0  0  0  0  0
   40.3950   32.6990   38.9610 C   0  0  0  0  0  0  0  0  0  0  0  0
   40.7610   32.3910   37.6030 C   0  0  0  0  0  0  0  0  0  0  0  0
   40.3460   31.7660   36.9490 H   0  0  0  0  0  0  0  0  0  0  0  0
   42.2220   33.4940   37.4280 S   0  0  0  0  0  0  0  0  0  0  0  0
   42.0790   34.1550   39.1800 C   0  0  0  0  0  0  0  0  0  0  0  0
   42.7100   34.8700   39.6450 H   0  0  0  0  0  0  0  0  0  0  0  0
   41.0890   33.5710   39.6660 N   0  0  0  0  0  0  0  0  0  0  0  0
  1  2  1  0  0  0  0
  2  3  1  0  0  0  0
  3  4  2  0  0  0  0
  3 15  1  0  0  0  0
  4  8  1  0  0  0  0
  5  9  1  0  0  0  0
  5  4  1  0  0  0  0
  6  5  2  0  0  0  0
  7  6  1  0  0  0  0
  7  2  2  0  0  0  0
 10  6  1  0  0  0  0
 11 12  1  0  0  0  0
 12 18  1  0  0  0  0
 12 13  2  0  0  0  0
 13 17  1  0  0  0  0
 14 13  1  0  0  0  0
 15 14  2  0  0  0  0
 16 11  2  0  0  0  0
 16 15  1  0  0  0  0
 18 20  1  0  0  0  0
 18 19  1  0  0  0  0
 21 18  1  0  0  0  0
 22 11  1  0  0  0  0
 23 25  1  0  0  0  0
 23 22  1  0  0  0  0
 23 24  1  0  0  0  0
 26 23  1  0  0  0  0
 27  7  1  0  0  0  0
 27 33  1  0  0  0  0
 28 27  2  0  0  0  0
 29 28  1  0  0  0  0
 30 28  1  0  0  0  0
 30 31  1  0  0  0  0
 31 32  1  0  0  0  0
 31 33  2  0  0  0  0
M  END
>  <minimizedAffinity>
-5.30734825

$$$$
