
 OpenBabel03252509263D

 28 30  0  0  1  0  0  0  0  0999 V2000
   47.0860   35.2090   41.7810 C   0  0  1  0  0  0  0  0  0  0  0  0
   48.6010   35.5530   41.8890 C   0  0  0  0  0  0  0  0  0  0  0  0
   47.9640   34.3830   41.0660 C   0  0  2  0  0  0  0  0  0  0  0  0
   46.4900   36.0150   41.3050 H   0  0  0  0  0  0  0  0  0  0  0  0
   49.1370   35.2950   42.8000 H   0  0  0  0  0  0  0  0  0  0  0  0
   48.9200   36.3800   41.2440 H   0  0  0  0  0  0  0  0  0  0  0  0
   48.3050   33.3770   41.4620 H   0  0  0  0  0  0  0  0  0  0  0  0
   44.9800   34.8500   44.8710 C   0  0  0  0  0  0  0  0  0  0  0  0
   45.4510   35.3830   43.6270 C   0  0  0  0  0  0  0  0  0  0  0  0
   46.5510   34.7710   43.1240 C   0  0  0  0  0  0  0  0  0  0  0  0
   47.1660   33.7190   43.7670 N   0  0  0  0  0  0  0  0  0  0  0  0
   46.6940   33.2480   44.9340 C   0  0  0  0  0  0  0  0  0  0  0  0
   45.5970   33.8160   45.4860 N   0  0  0  0  0  0  0  0  0  0  0  0
   44.0910   35.3560   45.2610 H   0  0  0  0  0  0  0  0  0  0  0  0
   47.1950   32.4240   45.4150 H   0  0  0  0  0  0  0  0  0  0  0  0
   44.8370   36.4760   42.9940 N   0  0  0  0  0  0  0  0  0  0  0  0
   45.4410   37.2460   43.3960 H   0  0  0  0  0  0  0  0  0  0  0  0
   44.0350   36.5520   42.3280 H   0  0  0  0  0  0  0  0  0  0  0  0
   48.0910   34.4470   39.5650 C   0  0  0  0  0  0  0  0  0  0  0  0
   49.1510   34.3220   39.2650 H   0  0  0  0  0  0  0  0  0  0  0  0
   47.8310   35.4850   39.2750 H   0  0  0  0  0  0  0  0  0  0  0  0
   47.2330   33.4190   38.8920 C   0  0  0  0  0  0  0  0  0  0  0  0
   46.7100   32.3260   39.5800 C   0  0  0  0  0  0  0  0  0  0  0  0
   46.8840   32.1310   40.6680 H   0  0  0  0  0  0  0  0  0  0  0  0
   45.7650   31.4360   38.2580 S   0  0  0  0  0  0  0  0  0  0  0  0
   46.2670   32.7410   36.9930 C   0  0  0  0  0  0  0  0  0  0  0  0
   45.9740   32.7390   35.9340 H   0  0  0  0  0  0  0  0  0  0  0  0
   46.9120   33.4700   37.6050 N   0  0  0  0  0  0  0  0  0  0  0  0
  1  4  1  6  0  0  0
  1  2  1  0  0  0  0
  1 10  1  0  0  0  0
  2  5  1  0  0  0  0
  3  7  1  1  0  0  0
  3  1  1  0  0  0  0
  3  2  1  0  0  0  0
  6  2  1  0  0  0  0
  8 14  1  0  0  0  0
  8 13  1  0  0  0  0
  9  8  2  0  0  0  0
 10  9  1  0  0  0  0
 10 11  2  0  0  0  0
 11 12  1  0  0  0  0
 12 15  1  0  0  0  0
 12 13  2  0  0  0  0
 16 17  1  0  0  0  0
 16  9  1  0  0  0  0
 18 16  1  0  0  0  0
 19  3  1  0  0  0  0
 20 19  1  0  0  0  0
 21 19  1  0  0  0  0
 22 19  1  0  0  0  0
 22 23  2  0  0  0  0
 23 24  1  0  0  0  0
 25 23  1  0  0  0  0
 26 28  2  0  0  0  0
 26 25  1  0  0  0  0
 27 26  1  0  0  0  0
 28 22  1  0  0  0  0
M  END
>  <minimizedAffinity>
-4.5706892

>  <minimizedRMSD>
1.21866584

$$$$
