
 OpenBabel03242512013D

 45 48  0  0  1  0  0  0  0  0999 V2000
   47.0950   34.1060   42.4670 C   0  0  2  0  0  0  0  0  0  0  0  0
   48.5090   34.5740   42.6440 C   0  0  0  0  0  0  0  0  0  0  0  0
   48.9020   35.5780   41.6320 C   0  0  0  0  0  0  0  0  0  0  0  0
   48.6940   35.1110   40.2130 C   0  0  0  0  0  0  0  0  0  0  0  0
   47.4340   34.3130   40.0190 C   0  0  0  0  0  0  0  0  0  0  0  0
   46.4650   34.4610   41.1710 C   0  0  1  0  0  0  0  0  0  0  0  0
   47.1410   32.9760   42.5250 H   0  0  0  0  0  0  0  0  0  0  0  0
   48.6060   35.0160   43.6470 H   0  0  0  0  0  0  0  0  0  0  0  0
   49.2430   33.7450   42.5960 H   0  0  0  0  0  0  0  0  0  0  0  0
   48.3220   36.5110   41.8090 H   0  0  0  0  0  0  0  0  0  0  0  0
   49.9800   35.8270   41.7590 H   0  0  0  0  0  0  0  0  0  0  0  0
   49.5800   34.5320   39.8690 H   0  0  0  0  0  0  0  0  0  0  0  0
   48.6920   36.0540   39.5950 H   0  0  0  0  0  0  0  0  0  0  0  0
   46.9430   34.7110   39.1140 H   0  0  0  0  0  0  0  0  0  0  0  0
   47.6550   33.2490   39.9000 H   0  0  0  0  0  0  0  0  0  0  0  0
   46.0540   35.4770   41.0770 H   0  0  0  0  0  0  0  0  0  0  0  0
   46.2190   34.4970   43.5900 C   0  0  0  0  0  0  0  0  0  0  0  0
   45.5430   35.6830   43.3670 C   0  0  0  0  0  0  0  0  0  0  0  0
   44.6650   36.1830   44.3440 C   0  0  0  0  0  0  0  0  0  0  0  0
   44.5500   35.4020   45.5020 N   0  0  0  0  0  0  0  0  0  0  0  0
   45.2320   34.2520   45.6690 C   0  0  0  0  0  0  0  0  0  0  0  0
   46.0630   33.8110   44.7050 N   0  0  0  0  0  0  0  0  0  0  0  0
   45.5000   36.4170   42.5750 H   0  0  0  0  0  0  0  0  0  0  0  0
   44.0660   37.0570   44.3620 H   0  0  0  0  0  0  0  0  0  0  0  0
   45.1010   33.6990   46.5790 H   0  0  0  0  0  0  0  0  0  0  0  0
   45.3240   33.5100   40.9330 C   0  0  2  0  0  0  0  0  0  0  0  0
   44.8660   33.3100   39.4980 C   0  0  0  0  0  0  0  0  0  0  0  0
   44.0050   34.0140   40.4640 C   0  0  1  0  0  0  0  0  0  0  0  0
   45.3850   32.5520   41.4940 H   0  0  0  0  0  0  0  0  0  0  0  0
   44.5030   32.2980   39.1830 H   0  0  0  0  0  0  0  0  0  0  0  0
   45.3040   33.9120   38.6970 H   0  0  0  0  0  0  0  0  0  0  0  0
   43.9360   35.1250   40.3980 H   0  0  0  0  0  0  0  0  0  0  0  0
   42.8480   33.3840   41.1790 C   0  0  0  0  0  0  0  0  0  0  0  0
   42.5180   32.4790   40.6100 H   0  0  0  0  0  0  0  0  0  0  0  0
   43.1680   33.0150   42.1750 H   0  0  0  0  0  0  0  0  0  0  0  0
   41.6670   34.2910   41.3210 C   0  0  0  0  0  0  0  0  0  0  0  0
   41.6890   34.6730   42.3680 H   0  0  0  0  0  0  0  0  0  0  0  0
   41.8310   35.1790   40.6860 H   0  0  0  0  0  0  0  0  0  0  0  0
   40.4010   33.5960   41.0370 C   0  0  0  0  0  0  0  0  0  0  0  0
   40.1340   32.3200   41.5760 C   0  0  0  0  0  0  0  0  0  0  0  0
   40.8330   31.7400   42.2410 H   0  0  0  0  0  0  0  0  0  0  0  0
   38.4230   31.9450   40.8940 S   0  0  0  0  0  0  0  0  0  0  0  0
   38.4230   33.6240   40.0050 C   0  0  0  0  0  0  0  0  0  0  0  0
   37.5730   33.9460   39.3970 H   0  0  0  0  0  0  0  0  0  0  0  0
   39.4240   34.0550   40.2910 N   0  0  0  0  0  0  0  0  0  0  0  0
  1  7  1  1  0  0  0
  1  2  1  0  0  0  0
  1 17  1  0  0  0  0
  2  8  1  0  0  0  0
  3 11  1  0  0  0  0
  3 10  1  0  0  0  0
  3  2  1  0  0  0  0
  4  3  1  0  0  0  0
  5  4  1  0  0  0  0
  5  6  1  0  0  0  0
  6 16  1  1  0  0  0
  6  1  1  0  0  0  0
  9  2  1  0  0  0  0
 12  4  1  0  0  0  0
 13  4  1  0  0  0  0
 14  5  1  0  0  0  0
 15  5  1  0  0  0  0
 17 22  1  0  0  0  0
 18 17  2  0  0  0  0
 18 19  1  0  0  0  0
 19 24  1  0  0  0  0
 19 20  2  0  0  0  0
 20 21  1  0  0  0  0
 21 25  1  0  0  0  0
 22 21  2  0  0  0  0
 23 18  1  0  0  0  0
 26  6  1  0  0  0  0
 26 29  1  1  0  0  0
 27 28  1  0  0  0  0
 27 26  1  0  0  0  0
 28 32  1  6  0  0  0
 28 26  1  0  0  0  0
 28 33  1  0  0  0  0
 30 27  1  0  0  0  0
 31 27  1  0  0  0  0
 33 36  1  0  0  0  0
 33 35  1  0  0  0  0
 34 33  1  0  0  0  0
 36 37  1  0  0  0  0
 38 36  1  0  0  0  0
 39 36  1  0  0  0  0
 39 40  2  0  0  0  0
 40 41  1  0  0  0  0
 42 40  1  0  0  0  0
 43 45  2  0  0  0  0
 43 42  1  0  0  0  0
 44 43  1  0  0  0  0
 45 39  1  0  0  0  0
M  END
>  <minimizedAffinity>
-6.23369694

>  <minimizedRMSD>
1.40180159

$$$$
