
 OpenBabel03252507413D

 23 24  0  0  0  0  0  0  0  0999 V2000
   46.6920   34.2300   40.6860 C   0  0  0  0  0  0  0  0  0  0  0  0
   46.4680   33.2580   40.1890 H   0  0  0  0  0  0  0  0  0  0  0  0
   46.6960   34.9790   39.8420 H   0  0  0  0  0  0  0  0  0  0  0  0
   48.0440   34.1920   41.3060 C   0  0  0  0  0  0  0  0  0  0  0  0
   48.7380   32.9780   41.1680 C   0  0  0  0  0  0  0  0  0  0  0  0
   50.0050   32.8710   41.7220 C   0  0  0  0  0  0  0  0  0  0  0  0
   50.5240   33.9510   42.3790 N   0  0  0  0  0  0  0  0  0  0  0  0
   49.8270   35.0930   42.4880 C   0  0  0  0  0  0  0  0  0  0  0  0
   48.6110   35.2140   41.9630 N   0  0  0  0  0  0  0  0  0  0  0  0
   50.5070   31.9200   41.5930 H   0  0  0  0  0  0  0  0  0  0  0  0
   50.3260   35.8950   43.0290 H   0  0  0  0  0  0  0  0  0  0  0  0
   48.0070   31.5920   40.2950 S   0  0  0  0  0  0  0  0  0  0  0  0
   49.0140   31.0170   39.5130 H   0  0  0  0  0  0  0  0  0  0  0  0
   45.6150   34.5850   41.6560 C   0  0  0  0  0  0  0  0  0  0  0  0
   45.8870   35.5580   42.1460 H   0  0  0  0  0  0  0  0  0  0  0  0
   45.6440   33.8360   42.4910 H   0  0  0  0  0  0  0  0  0  0  0  0
   44.2550   34.6620   41.0600 C   0  0  0  0  0  0  0  0  0  0  0  0
   43.2320   35.4450   41.7040 C   0  0  0  0  0  0  0  0  0  0  0  0
   43.3560   36.0100   42.6220 H   0  0  0  0  0  0  0  0  0  0  0  0
   41.7770   35.2070   40.5860 S   0  0  0  0  0  0  0  0  0  0  0  0
   42.8160   34.0970   39.4540 C   0  0  0  0  0  0  0  0  0  0  0  0
   42.6060   33.5020   38.4470 H   0  0  0  0  0  0  0  0  0  0  0  0
   43.8390   34.0710   39.9510 N   0  0  0  0  0  0  0  0  0  0  0  0
  1  4  1  0  0  0  0
  1 14  1  0  0  0  0
  2  1  1  0  0  0  0
  3  1  1  0  0  0  0
  4  9  1  0  0  0  0
  5  4  2  0  0  0  0
  5  6  1  0  0  0  0
  6  7  2  0  0  0  0
  7  8  1  0  0  0  0
  8 11  1  0  0  0  0
  9  8  2  0  0  0  0
 10  6  1  0  0  0  0
 12  5  1  0  0  0  0
 13 12  1  0  0  0  0
 14 15  1  0  0  0  0
 14 16  1  0  0  0  0
 17 14  1  0  0  0  0
 17 18  2  0  0  0  0
 18 19  1  0  0  0  0
 20 18  1  0  0  0  0
 21 23  2  0  0  0  0
 21 20  1  0  0  0  0
 22 21  1  0  0  0  0
 23 17  1  0  0  0  0
M  END
>  <minimizedAffinity>
-3.62919545

>  <minimizedRMSD>
5.06068611

$$$$
