
 OpenBabel03252505513D

 23 24  0  0  0  0  0  0  0  0999 V2000
   44.7390   35.3530   45.0430 C   0  0  0  0  0  0  0  0  0  0  0  0
   45.6120   34.9120   44.0510 C   0  0  0  0  0  0  0  0  0  0  0  0
   46.3680   33.7730   44.3120 C   0  0  0  0  0  0  0  0  0  0  0  0
   46.2270   33.1520   45.4960 N   0  0  0  0  0  0  0  0  0  0  0  0
   45.3820   33.5950   46.4330 C   0  0  0  0  0  0  0  0  0  0  0  0
   44.6240   34.6960   46.2320 N   0  0  0  0  0  0  0  0  0  0  0  0
   44.1180   36.2300   44.9140 H   0  0  0  0  0  0  0  0  0  0  0  0
   47.0350   33.4610   43.5180 H   0  0  0  0  0  0  0  0  0  0  0  0
   45.6550   35.7140   42.7770 C   0  0  0  0  0  0  0  0  0  0  0  0
   45.2230   36.9660   43.1030 F   0  0  0  0  0  0  0  0  0  0  0  0
   44.7490   35.1050   41.9130 F   0  0  0  0  0  0  0  0  0  0  0  0
   46.9340   35.6660   42.2930 F   0  0  0  0  0  0  0  0  0  0  0  0
   45.2160   32.9790   47.6560 O   0  0  0  0  0  0  0  0  0  0  0  0
   46.2380   32.2590   48.2960 C   0  0  0  0  0  0  0  0  0  0  0  0
   47.2390   32.6970   48.1100 H   0  0  0  0  0  0  0  0  0  0  0  0
   46.0950   32.3300   49.3930 H   0  0  0  0  0  0  0  0  0  0  0  0
   46.2010   30.7880   47.9630 C   0  0  0  0  0  0  0  0  0  0  0  0
   44.9960   30.0490   47.8900 C   0  0  0  0  0  0  0  0  0  0  0  0
   43.9870   30.3570   48.0410 H   0  0  0  0  0  0  0  0  0  0  0  0
   45.5600   28.3790   47.4640 S   0  0  0  0  0  0  0  0  0  0  0  0
   47.3700   28.9570   47.4520 C   0  0  0  0  0  0  0  0  0  0  0  0
   48.4550   28.4610   47.2530 H   0  0  0  0  0  0  0  0  0  0  0  0
   47.2640   30.0460   47.7090 N   0  0  0  0  0  0  0  0  0  0  0  0
  1  6  1  0  0  0  0
  2  3  1  0  0  0  0
  2  1  2  0  0  0  0
  3  4  2  0  0  0  0
  4  5  1  0  0  0  0
  5 13  1  0  0  0  0
  6  5  2  0  0  0  0
  7  1  1  0  0  0  0
  8  3  1  0  0  0  0
  9 10  1  0  0  0  0
  9  2  1  0  0  0  0
 11  9  1  0  0  0  0
 12  9  1  0  0  0  0
 13 14  1  0  0  0  0
 14 16  1  0  0  0  0
 15 14  1  0  0  0  0
 17 14  1  0  0  0  0
 18 17  2  0  0  0  0
 18 19  1  0  0  0  0
 20 18  1  0  0  0  0
 21 20  1  0  0  0  0
 21 23  2  0  0  0  0
 22 21  1  0  0  0  0
 23 17  1  0  0  0  0
M  END
>  <minimizedAffinity>
-4.62139416

>  <minimizedRMSD>
0.790050685

$$$$
