
 OpenBabel03252508593D

 43 45  0  0  1  0  0  0  0  0999 V2000
   46.6690   34.5420   43.5280 N   0  0  0  0  0  0  0  0  0  0  0  0
   46.1870   35.5840   42.6930 C   0  0  0  0  0  0  0  0  0  0  0  0
   44.6860   35.7660   42.6990 C   0  0  0  0  0  0  0  0  0  0  0  0
   44.0140   35.4350   44.0040 C   0  0  0  0  0  0  0  0  0  0  0  0
   45.0340   35.1210   45.0750 C   0  0  0  0  0  0  0  0  0  0  0  0
   45.8450   33.9250   44.4540 C   0  0  2  0  0  0  0  0  0  0  0  0
   46.5050   35.5410   41.6450 H   0  0  0  0  0  0  0  0  0  0  0  0
   46.6370   36.5310   43.1030 H   0  0  0  0  0  0  0  0  0  0  0  0
   44.2170   35.2110   41.8440 H   0  0  0  0  0  0  0  0  0  0  0  0
   44.4730   36.8370   42.4920 H   0  0  0  0  0  0  0  0  0  0  0  0
   43.4350   34.5010   43.8420 H   0  0  0  0  0  0  0  0  0  0  0  0
   43.2900   36.2090   44.3110 H   0  0  0  0  0  0  0  0  0  0  0  0
   45.6810   35.9980   45.1790 H   0  0  0  0  0  0  0  0  0  0  0  0
   44.5360   34.7840   45.9890 H   0  0  0  0  0  0  0  0  0  0  0  0
   45.0920   33.2090   44.0660 H   0  0  0  0  0  0  0  0  0  0  0  0
   47.7560   33.7950   42.9690 C   0  0  0  0  0  0  0  0  0  0  0  0
   48.3850   33.3680   43.7780 H   0  0  0  0  0  0  0  0  0  0  0  0
   48.3920   34.5060   42.3900 H   0  0  0  0  0  0  0  0  0  0  0  0
   47.2070   32.7140   42.0970 C   0  0  0  0  0  0  0  0  0  0  0  0
   47.3850   31.7030   42.4700 H   0  0  0  0  0  0  0  0  0  0  0  0
   46.0940   32.8340   41.9760 H   0  0  0  0  0  0  0  0  0  0  0  0
   49.0670   32.0010   38.9090 C   0  0  0  0  0  0  0  0  0  0  0  0
   48.5390   31.8610   40.2060 C   0  0  0  0  0  0  0  0  0  0  0  0
   47.7610   32.8710   40.7260 C   0  0  0  0  0  0  0  0  0  0  0  0
   47.5420   33.9500   39.9570 N   0  0  0  0  0  0  0  0  0  0  0  0
   48.0500   34.0730   38.7200 C   0  0  0  0  0  0  0  0  0  0  0  0
   48.8150   33.1060   38.1830 N   0  0  0  0  0  0  0  0  0  0  0  0
   49.6830   31.1930   38.5110 H   0  0  0  0  0  0  0  0  0  0  0  0
   48.7800   30.9490   40.7350 H   0  0  0  0  0  0  0  0  0  0  0  0
   47.7600   35.0120   38.2680 H   0  0  0  0  0  0  0  0  0  0  0  0
   46.5530   33.4650   45.5540 O   0  0  0  0  0  0  0  0  0  0  0  0
   45.5980   31.1270   44.7250 O   0  0  0  0  0  0  0  0  0  0  0  0
   46.2260   31.8580   45.9170 P   0  0  2  0  0  0  0  0  0  0  0  0
   44.9990   31.8820   47.1090 O   0  0  0  0  0  0  0  0  0  0  0  0
   45.1820   32.6030   47.7560 H   0  0  0  0  0  0  0  0  0  0  0  0
   47.5420   31.0680   46.5470 O   0  0  0  0  0  0  0  0  0  0  0  0
   47.5890   29.7210   46.8740 C   0  0  0  0  0  0  0  0  0  0  0  0
   48.7650   28.8810   46.9210 C   0  0  0  0  0  0  0  0  0  0  0  0
   49.7420   29.4130   46.6550 H   0  0  0  0  0  0  0  0  0  0  0  0
   48.0040   27.2260   47.4350 S   0  0  0  0  0  0  0  0  0  0  0  0
   46.2790   28.0180   47.4750 C   0  0  0  0  0  0  0  0  0  0  0  0
   45.4570   27.3450   47.7540 H   0  0  0  0  0  0  0  0  0  0  0  0
   46.4250   29.1520   47.1740 N   0  0  0  0  0  0  0  0  0  0  0  0
  1  6  1  0  0  0  0
  2  3  1  0  0  0  0
  2  8  1  0  0  0  0
  2  1  1  0  0  0  0
  3  4  1  0  0  0  0
  4 12  1  0  0  0  0
  4  5  1  0  0  0  0
  5 13  1  0  0  0  0
  5 14  1  0  0  0  0
  6 15  1  6  0  0  0
  6  5  1  0  0  0  0
  6 31  1  0  0  0  0
  7  2  1  0  0  0  0
  9  3  1  0  0  0  0
 10  3  1  0  0  0  0
 11  4  1  0  0  0  0
 16  1  1  0  0  0  0
 16 17  1  0  0  0  0
 18 16  1  0  0  0  0
 19 20  1  0  0  0  0
 19 16  1  0  0  0  0
 21 19  1  0  0  0  0
 22 23  1  0  0  0  0
 23 24  2  0  0  0  0
 23 29  1  0  0  0  0
 24 19  1  0  0  0  0
 25 24  1  0  0  0  0
 26 25  2  0  0  0  0
 27 26  1  0  0  0  0
 27 22  2  0  0  0  0
 28 22  1  0  0  0  0
 30 26  1  0  0  0  0
 31 33  1  0  0  0  0
 33 32  2  6  0  0  0
 33 36  1  0  0  0  0
 33 34  1  0  0  0  0
 34 35  1  0  0  0  0
 36 37  1  0  0  0  0
 37 38  2  0  0  0  0
 37 43  1  0  0  0  0
 38 40  1  0  0  0  0
 39 38  1  0  0  0  0
 40 41  1  0  0  0  0
 41 42  1  0  0  0  0
 43 41  2  0  0  0  0
M  END
>  <minimizedAffinity>
-4.21291447

>  <minimizedRMSD>
0.997746527

$$$$
