
 OpenBabel03252501203D

 24 25  0  0  0  0  0  0  0  0999 V2000
   45.1410   34.5890   45.1870 C   0  0  0  0  0  0  0  0  0  0  0  0
   46.1890   34.0660   44.4190 C   0  0  0  0  0  0  0  0  0  0  0  0
   46.4780   34.7290   43.2360 C   0  0  0  0  0  0  0  0  0  0  0  0
   45.7600   35.8250   42.8720 N   0  0  0  0  0  0  0  0  0  0  0  0
   44.7600   36.2930   43.6410 C   0  0  0  0  0  0  0  0  0  0  0  0
   44.4500   35.6740   44.8000 N   0  0  0  0  0  0  0  0  0  0  0  0
   44.8480   34.1450   46.1300 H   0  0  0  0  0  0  0  0  0  0  0  0
   44.2390   37.1740   43.2690 H   0  0  0  0  0  0  0  0  0  0  0  0
   47.5940   34.1550   42.4460 C   0  0  0  0  0  0  0  0  0  0  0  0
   47.8390   34.9760   41.3580 F   0  0  0  0  0  0  0  0  0  0  0  0
   47.1470   32.9620   41.9570 F   0  0  0  0  0  0  0  0  0  0  0  0
   48.7530   34.1040   43.1420 F   0  0  0  0  0  0  0  0  0  0  0  0
   46.9260   32.8790   44.8570 C   0  0  0  0  0  0  0  0  0  0  0  0
   46.3910   31.9270   44.7620 H   0  0  0  0  0  0  0  0  0  0  0  0
   47.9410   32.9010   44.4680 H   0  0  0  0  0  0  0  0  0  0  0  0
   47.0220   32.8820   46.3210 N   0  0  0  0  0  0  0  0  0  0  0  0
   47.6840   33.5520   46.8110 H   0  0  0  0  0  0  0  0  0  0  0  0
   46.3780   32.1260   47.3350 C   0  0  0  0  0  0  0  0  0  0  0  0
   45.9800   30.9010   46.8700 C   0  0  0  0  0  0  0  0  0  0  0  0
   46.0090   30.3000   45.9280 H   0  0  0  0  0  0  0  0  0  0  0  0
   45.1990   30.1320   48.3020 S   0  0  0  0  0  0  0  0  0  0  0  0
   45.5640   31.6880   49.3560 C   0  0  0  0  0  0  0  0  0  0  0  0
   45.2400   31.7290   50.4830 H   0  0  0  0  0  0  0  0  0  0  0  0
   46.0770   32.3170   48.5920 N   0  0  0  0  0  0  0  0  0  0  0  0
  1  7  1  0  0  0  0
  2 13  1  0  0  0  0
  2  1  2  0  0  0  0
  3  2  1  0  0  0  0
  4  3  2  0  0  0  0
  4  5  1  0  0  0  0
  5  6  2  0  0  0  0
  6  1  1  0  0  0  0
  8  5  1  0  0  0  0
  9 12  1  0  0  0  0
  9  3  1  0  0  0  0
 10  9  1  0  0  0  0
 11  9  1  0  0  0  0
 13 16  1  0  0  0  0
 14 13  1  0  0  0  0
 15 13  1  0  0  0  0
 16 17  1  0  0  0  0
 16 18  1  0  0  0  0
 18 24  1  0  0  0  0
 19 18  2  0  0  0  0
 19 21  1  0  0  0  0
 20 19  1  0  0  0  0
 21 22  1  0  0  0  0
 22 23  1  0  0  0  0
 24 22  2  0  0  0  0
M  END
>  <minimizedAffinity>
-4.95526743

>  <minimizedRMSD>
5.31356239

$$$$
