
 OpenBabel03252508563D

 22 23  0  0  0  0  0  0  0  0999 V2000
   45.9770   35.0410   42.1370 C   0  0  0  0  0  0  0  0  0  0  0  0
   45.4660   34.7940   43.0910 H   0  0  0  0  0  0  0  0  0  0  0  0
   45.9220   36.1170   41.9830 H   0  0  0  0  0  0  0  0  0  0  0  0
   49.7420   35.1830   42.1690 C   0  0  0  0  0  0  0  0  0  0  0  0
   48.3880   35.5890   42.0390 C   0  0  0  0  0  0  0  0  0  0  0  0
   47.4020   34.6410   42.2660 C   0  0  0  0  0  0  0  0  0  0  0  0
   47.7880   33.3860   42.5980 N   0  0  0  0  0  0  0  0  0  0  0  0
   49.0850   33.0190   42.7170 C   0  0  0  0  0  0  0  0  0  0  0  0
   50.0430   33.9170   42.5020 N   0  0  0  0  0  0  0  0  0  0  0  0
   50.4180   36.0050   41.9690 H   0  0  0  0  0  0  0  0  0  0  0  0
   48.0830   36.5920   41.7750 H   0  0  0  0  0  0  0  0  0  0  0  0
   49.3770   32.0120   42.9820 H   0  0  0  0  0  0  0  0  0  0  0  0
   45.3370   34.2390   41.0330 C   0  0  0  0  0  0  0  0  0  0  0  0
   45.7300   34.6150   40.0640 H   0  0  0  0  0  0  0  0  0  0  0  0
   45.6230   33.1850   41.0900 H   0  0  0  0  0  0  0  0  0  0  0  0
   43.8440   34.3900   41.1310 C   0  0  0  0  0  0  0  0  0  0  0  0
   43.1600   35.6470   41.3590 C   0  0  0  0  0  0  0  0  0  0  0  0
   43.7000   36.5710   41.4760 H   0  0  0  0  0  0  0  0  0  0  0  0
   41.4390   35.1570   41.3700 S   0  0  0  0  0  0  0  0  0  0  0  0
   41.8980   33.3330   41.0640 C   0  0  0  0  0  0  0  0  0  0  0  0
   41.1710   32.4620   40.9640 H   0  0  0  0  0  0  0  0  0  0  0  0
   43.0350   33.3540   41.0110 N   0  0  0  0  0  0  0  0  0  0  0  0
  1  6  1  0  0  0  0
  1  2  1  0  0  0  0
  3  1  1  0  0  0  0
  4  9  1  0  0  0  0
  5  4  2  0  0  0  0
  5  6  1  0  0  0  0
  6  7  2  0  0  0  0
  7  8  1  0  0  0  0
  8 12  1  0  0  0  0
  9  8  2  0  0  0  0
 10  4  1  0  0  0  0
 11  5  1  0  0  0  0
 13 15  1  0  0  0  0
 13 16  1  0  0  0  0
 13  1  1  0  0  0  0
 14 13  1  0  0  0  0
 16 17  2  0  0  0  0
 17 19  1  0  0  0  0
 17 18  1  0  0  0  0
 20 19  1  0  0  0  0
 21 20  1  0  0  0  0
 22 20  2  0  0  0  0
 22 16  1  0  0  0  0
M  END
>  <minimizedAffinity>
-3.41984105

>  <minimizedRMSD>
5.38558388

$$$$
