
 OpenBabel03252503043D

 32 33  0  0  0  0  0  0  0  0999 V2000
   38.7510   32.8960   39.9650 S   0  0  0  0  0  0  0  0  0  0  0  0
   37.4030   30.7020   41.0200 C   0  0  0  0  0  0  0  0  0  0  0  0
   38.5470   31.4840   41.0820 C   0  0  0  0  0  0  0  0  0  0  0  0
   39.5450   31.1970   41.9930 C   0  0  0  0  0  0  0  0  0  0  0  0
   39.3460   30.1250   42.8120 N   0  0  0  0  0  0  0  0  0  0  0  0
   38.2290   29.3850   42.7310 C   0  0  0  0  0  0  0  0  0  0  0  0
   37.2660   29.6560   41.8560 N   0  0  0  0  0  0  0  0  0  0  0  0
   36.6420   30.9540   40.2940 H   0  0  0  0  0  0  0  0  0  0  0  0
   40.4320   31.8080   42.0380 H   0  0  0  0  0  0  0  0  0  0  0  0
   38.0340   28.3030   43.5600 O   0  0  0  0  0  0  0  0  0  0  0  0
   38.3570   26.9950   43.2220 C   0  0  0  0  0  0  0  0  0  0  0  0
   39.5690   26.5400   43.6130 C   0  0  0  0  0  0  0  0  0  0  0  0
   40.4040   26.9770   44.1630 H   0  0  0  0  0  0  0  0  0  0  0  0
   39.5960   24.8300   42.9880 S   0  0  0  0  0  0  0  0  0  0  0  0
   37.8340   25.0510   42.2540 C   0  0  0  0  0  0  0  0  0  0  0  0
   37.1990   24.3370   41.6960 H   0  0  0  0  0  0  0  0  0  0  0  0
   37.6410   26.1170   42.5630 N   0  0  0  0  0  0  0  0  0  0  0  0
   40.4410   33.4800   40.0660 C   0  0  0  0  0  0  0  0  0  0  0  0
   40.6610   34.1370   40.9040 H   0  0  0  0  0  0  0  0  0  0  0  0
   41.1070   32.5780   40.1720 H   0  0  0  0  0  0  0  0  0  0  0  0
   40.7890   34.0540   38.7620 N   0  0  0  0  0  0  0  0  0  0  0  0
   41.5810   34.7340   38.8250 H   0  0  0  0  0  0  0  0  0  0  0  0
   41.2710   32.8600   37.6340 S   0  0  0  0  0  0  0  0  0  0  0  0
   40.1520   32.4540   36.7400 O   0  0  0  0  0  0  0  0  0  0  0  0
   39.3180   32.8870   36.4970 H   0  0  0  0  0  0  0  0  0  0  0  0
   42.3800   33.4700   36.8020 O   0  0  0  0  0  0  0  0  0  0  0  0
   42.1470   34.1130   36.0900 H   0  0  0  0  0  0  0  0  0  0  0  0
   41.9280   31.5540   38.4430 O   0  0  0  0  0  0  0  0  0  0  0  0
   41.2680   30.3770   38.1690 C   0  0  0  0  0  0  0  0  0  0  0  0
   40.1690   30.5660   38.2940 H   0  0  0  0  0  0  0  0  0  0  0  0
   41.5920   29.6390   38.9420 H   0  0  0  0  0  0  0  0  0  0  0  0
   41.5050   30.0240   37.1530 H   0  0  0  0  0  0  0  0  0  0  0  0
  1 18  1  0  0  0  0
  1  3  1  0  0  0  0
  2  3  2  0  0  0  0
  2  7  1  0  0  0  0
  3  4  1  0  0  0  0
  4  9  1  0  0  0  0
  4  5  2  0  0  0  0
  6  5  1  0  0  0  0
  6 10  1  0  0  0  0
  7  6  2  0  0  0  0
  8  2  1  0  0  0  0
 11 10  1  0  0  0  0
 11 12  2  0  0  0  0
 12 13  1  0  0  0  0
 14 12  1  0  0  0  0
 15 17  2  0  0  0  0
 15 14  1  0  0  0  0
 16 15  1  0  0  0  0
 17 11  1  0  0  0  0
 18 20  1  0  0  0  0
 18 19  1  0  0  0  0
 21 22  1  0  0  0  0
 21 18  1  0  0  0  0
 23 28  1  0  0  0  0
 23 21  1  0  0  0  0
 24 23  1  0  0  0  0
 25 24  1  0  0  0  0
 26 23  1  0  0  0  0
 27 26  1  0  0  0  0
 29 30  1  0  0  0  0
 29 28  1  0  0  0  0
 29 31  1  0  0  0  0
 32 29  1  0  0  0  0
M  END
>  <minimizedAffinity>
-4.9408536

$$$$

 OpenBabel03252503043D

 32 33  0  0  0  0  0  0  0  0999 V2000
   39.4560   30.4640   42.5120 S   0  0  0  0  0  0  0  0  0  0  0  0
   37.3030   28.7030   42.4540 C   0  0  0  0  0  0  0  0  0  0  0  0
   38.6840   28.8250   42.4520 C   0  0  0  0  0  0  0  0  0  0  0  0
   39.4880   27.7040   42.4050 C   0  0  0  0  0  0  0  0  0  0  0  0
   38.8610   26.4930   42.3600 N   0  0  0  0  0  0  0  0  0  0  0  0
   37.5220   26.4030   42.3630 C   0  0  0  0  0  0  0  0  0  0  0  0
   36.7420   27.4800   42.4090 N   0  0  0  0  0  0  0  0  0  0  0  0
   36.7020   29.6020   42.4920 H   0  0  0  0  0  0  0  0  0  0  0  0
   40.5620   27.8040   42.4040 H   0  0  0  0  0  0  0  0  0  0  0  0
   36.8940   25.1790   42.3180 O   0  0  0  0  0  0  0  0  0  0  0  0
   37.0960   24.2360   41.3180 C   0  0  0  0  0  0  0  0  0  0  0  0
   36.1750   24.1810   40.3290 C   0  0  0  0  0  0  0  0  0  0  0  0
   35.2580   24.7300   40.1130 H   0  0  0  0  0  0  0  0  0  0  0  0
   36.7970   22.8500   39.2520 S   0  0  0  0  0  0  0  0  0  0  0  0
   38.3020   22.5860   40.4170 C   0  0  0  0  0  0  0  0  0  0  0  0
   39.1430   21.8720   40.3430 H   0  0  0  0  0  0  0  0  0  0  0  0
   38.0730   23.3720   41.1900 N   0  0  0  0  0  0  0  0  0  0  0  0
   39.4990   31.1480   40.8570 C   0  0  0  0  0  0  0  0  0  0  0  0
   40.4840   31.2020   40.3980 H   0  0  0  0  0  0  0  0  0  0  0  0
   38.8660   30.4890   40.1990 H   0  0  0  0  0  0  0  0  0  0  0  0
   38.7960   32.4340   40.8920 N   0  0  0  0  0  0  0  0  0  0  0  0
   39.3460   33.2010   40.4410 H   0  0  0  0  0  0  0  0  0  0  0  0
   37.2940   32.3760   40.0740 S   0  0  0  0  0  0  0  0  0  0  0  0
   36.2300   31.7480   40.9050 O   0  0  0  0  0  0  0  0  0  0  0  0
   36.1440   31.6080   41.8620 H   0  0  0  0  0  0  0  0  0  0  0  0
   36.9080   33.8080   39.7680 O   0  0  0  0  0  0  0  0  0  0  0  0
   36.5430   34.3720   40.4910 H   0  0  0  0  0  0  0  0  0  0  0  0
   37.4810   31.5960   38.6080 O   0  0  0  0  0  0  0  0  0  0  0  0
   36.6330   30.5190   38.4700 C   0  0  0  0  0  0  0  0  0  0  0  0
   36.7140   29.9000   39.4030 H   0  0  0  0  0  0  0  0  0  0  0  0
   37.0120   29.9180   37.6100 H   0  0  0  0  0  0  0  0  0  0  0  0
   35.5990   30.8570   38.2980 H   0  0  0  0  0  0  0  0  0  0  0  0
  2  8  1  0  0  0  0
  3  2  1  0  0  0  0
  3  1  1  0  0  0  0
  4  3  2  0  0  0  0
  5  6  2  0  0  0  0
  5  4  1  0  0  0  0
  6  7  1  0  0  0  0
  7  2  2  0  0  0  0
  9  4  1  0  0  0  0
 10  6  1  0  0  0  0
 11 10  1  0  0  0  0
 12 11  2  0  0  0  0
 13 12  1  0  0  0  0
 14 12  1  0  0  0  0
 14 15  1  0  0  0  0
 15 17  2  0  0  0  0
 16 15  1  0  0  0  0
 17 11  1  0  0  0  0
 18 21  1  0  0  0  0
 18  1  1  0  0  0  0
 19 18  1  0  0  0  0
 20 18  1  0  0  0  0
 22 21  1  0  0  0  0
 23 21  1  0  0  0  0
 23 24  1  0  0  0  0
 24 25  1  0  0  0  0
 26 23  1  0  0  0  0
 26 27  1  0  0  0  0
 28 23  1  0  0  0  0
 29 28  1  0  0  0  0
 29 30  1  0  0  0  0
 31 29  1  0  0  0  0
 32 29  1  0  0  0  0
M  END
>  <minimizedAffinity>
-4.64292431

$$$$

 OpenBabel03252503043D

 32 33  0  0  0  0  0  0  0  0999 V2000
   37.2500   32.0510   40.3670 S   0  0  0  0  0  0  0  0  0  0  0  0
   36.0940   29.5540   40.7750 C   0  0  0  0  0  0  0  0  0  0  0  0
   37.1770   30.3750   41.0520 C   0  0  0  0  0  0  0  0  0  0  0  0
   38.2110   29.9280   41.8510 C   0  0  0  0  0  0  0  0  0  0  0  0
   38.1100   28.6590   42.3420 N   0  0  0  0  0  0  0  0  0  0  0  0
   37.0510   27.8850   42.0580 C   0  0  0  0  0  0  0  0  0  0  0  0
   36.0530   28.3100   41.2900 N   0  0  0  0  0  0  0  0  0  0  0  0
   35.3010   29.9350   40.1460 H   0  0  0  0  0  0  0  0  0  0  0  0
   39.0500   30.5700   42.0630 H   0  0  0  0  0  0  0  0  0  0  0  0
   36.9540   26.6060   42.5560 O   0  0  0  0  0  0  0  0  0  0  0  0
   37.5350   25.4930   41.9620 C   0  0  0  0  0  0  0  0  0  0  0  0
   36.7060   24.4900   41.5910 C   0  0  0  0  0  0  0  0  0  0  0  0
   35.6280   24.3350   41.6490 H   0  0  0  0  0  0  0  0  0  0  0  0
   37.8360   23.2560   40.8730 S   0  0  0  0  0  0  0  0  0  0  0  0
   39.3390   24.3990   41.2280 C   0  0  0  0  0  0  0  0  0  0  0  0
   40.4150   24.2450   41.0230 H   0  0  0  0  0  0  0  0  0  0  0  0
   38.8000   25.2670   41.7020 N   0  0  0  0  0  0  0  0  0  0  0  0
   38.9670   32.5370   40.1990 C   0  0  0  0  0  0  0  0  0  0  0  0
   39.3670   33.1330   41.0160 H   0  0  0  0  0  0  0  0  0  0  0  0
   39.5830   31.5960   40.1460 H   0  0  0  0  0  0  0  0  0  0  0  0
   39.1210   33.1650   38.8830 N   0  0  0  0  0  0  0  0  0  0  0  0
   39.9550   33.7940   38.8380 H   0  0  0  0  0  0  0  0  0  0  0  0
   39.3230   32.0130   37.6340 S   0  0  0  0  0  0  0  0  0  0  0  0
   38.1120   31.9050   36.7740 O   0  0  0  0  0  0  0  0  0  0  0  0
   37.3660   32.5060   36.6160 H   0  0  0  0  0  0  0  0  0  0  0  0
   40.4930   32.4810   36.7940 O   0  0  0  0  0  0  0  0  0  0  0  0
   40.3580   33.2200   36.1520 H   0  0  0  0  0  0  0  0  0  0  0  0
   39.7520   30.5380   38.2910 O   0  0  0  0  0  0  0  0  0  0  0  0
   38.9370   29.5120   37.8660 C   0  0  0  0  0  0  0  0  0  0  0  0
   37.8740   29.8480   37.9920 H   0  0  0  0  0  0  0  0  0  0  0  0
   39.1210   28.6500   38.5490 H   0  0  0  0  0  0  0  0  0  0  0  0
   39.1560   29.2490   36.8190 H   0  0  0  0  0  0  0  0  0  0  0  0
  1  3  1  0  0  0  0
  2  3  2  0  0  0  0
  2  7  1  0  0  0  0
  3  4  1  0  0  0  0
  4  9  1  0  0  0  0
  4  5  2  0  0  0  0
  6  5  1  0  0  0  0
  6 10  1  0  0  0  0
  7  6  2  0  0  0  0
  8  2  1  0  0  0  0
 11 10  1  0  0  0  0
 12 13  1  0  0  0  0
 12 11  2  0  0  0  0
 14 15  1  0  0  0  0
 14 12  1  0  0  0  0
 15 17  2  0  0  0  0
 16 15  1  0  0  0  0
 17 11  1  0  0  0  0
 18  1  1  0  0  0  0
 18 19  1  0  0  0  0
 20 18  1  0  0  0  0
 21 18  1  0  0  0  0
 22 21  1  0  0  0  0
 23 28  1  0  0  0  0
 23 21  1  0  0  0  0
 24 23  1  0  0  0  0
 25 24  1  0  0  0  0
 26 23  1  0  0  0  0
 27 26  1  0  0  0  0
 29 30  1  0  0  0  0
 29 28  1  0  0  0  0
 29 31  1  0  0  0  0
 32 29  1  0  0  0  0
M  END
>  <minimizedAffinity>
-4.56167936

$$$$

 OpenBabel03252503043D

 32 33  0  0  0  0  0  0  0  0999 V2000
   37.3220   32.3770   39.2490 S   0  0  0  0  0  0  0  0  0  0  0  0
   38.3120   30.8310   41.3400 C   0  0  0  0  0  0  0  0  0  0  0  0
   37.2800   31.0020   40.4290 C   0  0  0  0  0  0  0  0  0  0  0  0
   36.2100   30.1290   40.4090 C   0  0  0  0  0  0  0  0  0  0  0  0
   36.2250   29.1110   41.3160 N   0  0  0  0  0  0  0  0  0  0  0  0
   37.2360   28.9690   42.1870 C   0  0  0  0  0  0  0  0  0  0  0  0
   38.2690   29.8060   42.2110 N   0  0  0  0  0  0  0  0  0  0  0  0
   39.1350   31.5330   41.3290 H   0  0  0  0  0  0  0  0  0  0  0  0
   35.4110   30.2660   39.6990 H   0  0  0  0  0  0  0  0  0  0  0  0
   37.2450   27.9390   43.1010 O   0  0  0  0  0  0  0  0  0  0  0  0
   38.1350   26.8740   43.0630 C   0  0  0  0  0  0  0  0  0  0  0  0
   37.7830   25.8030   42.3150 C   0  0  0  0  0  0  0  0  0  0  0  0
   36.9170   25.5600   41.6980 H   0  0  0  0  0  0  0  0  0  0  0  0
   39.1850   24.6620   42.5320 S   0  0  0  0  0  0  0  0  0  0  0  0
   40.0630   25.9280   43.6790 C   0  0  0  0  0  0  0  0  0  0  0  0
   41.0370   25.8620   44.2000 H   0  0  0  0  0  0  0  0  0  0  0  0
   39.2950   26.7510   43.6620 N   0  0  0  0  0  0  0  0  0  0  0  0
   37.6650   31.7310   37.6140 C   0  0  0  0  0  0  0  0  0  0  0  0
   36.7920   31.4450   37.0310 H   0  0  0  0  0  0  0  0  0  0  0  0
   38.1980   32.5360   37.0340 H   0  0  0  0  0  0  0  0  0  0  0  0
   38.6510   30.6560   37.7620 N   0  0  0  0  0  0  0  0  0  0  0  0
   38.5340   29.9070   37.0420 H   0  0  0  0  0  0  0  0  0  0  0  0
   40.2580   31.2240   37.6070 S   0  0  0  0  0  0  0  0  0  0  0  0
   41.1270   30.2490   36.8910 O   0  0  0  0  0  0  0  0  0  0  0  0
   40.9280   29.5110   36.2920 H   0  0  0  0  0  0  0  0  0  0  0  0
   40.1910   32.5110   36.8120 O   0  0  0  0  0  0  0  0  0  0  0  0
   40.0650   32.4640   35.8330 H   0  0  0  0  0  0  0  0  0  0  0  0
   40.8670   31.6110   39.1140 O   0  0  0  0  0  0  0  0  0  0  0  0
   41.4660   32.8510   39.1390 C   0  0  0  0  0  0  0  0  0  0  0  0
   42.1680   32.9070   38.2640 H   0  0  0  0  0  0  0  0  0  0  0  0
   42.0650   32.9000   40.0790 H   0  0  0  0  0  0  0  0  0  0  0  0
   40.7100   33.6500   39.1020 H   0  0  0  0  0  0  0  0  0  0  0  0
  1  3  1  0  0  0  0
  2  7  1  0  0  0  0
  3  2  2  0  0  0  0
  4  3  1  0  0  0  0
  4  5  2  0  0  0  0
  5  6  1  0  0  0  0
  6  7  2  0  0  0  0
  6 10  1  0  0  0  0
  8  2  1  0  0  0  0
  9  4  1  0  0  0  0
 11 10  1  0  0  0  0
 11 17  1  0  0  0  0
 12 14  1  0  0  0  0
 12 11  2  0  0  0  0
 13 12  1  0  0  0  0
 14 15  1  0  0  0  0
 15 16  1  0  0  0  0
 17 15  2  0  0  0  0
 18 21  1  0  0  0  0
 18  1  1  0  0  0  0
 19 18  1  0  0  0  0
 20 18  1  0  0  0  0
 22 21  1  0  0  0  0
 23 21  1  0  0  0  0
 23 28  1  0  0  0  0
 24 23  1  0  0  0  0
 25 24  1  0  0  0  0
 26 23  1  0  0  0  0
 27 26  1  0  0  0  0
 28 29  1  0  0  0  0
 29 31  1  0  0  0  0
 30 29  1  0  0  0  0
 32 29  1  0  0  0  0
M  END
>  <minimizedAffinity>
-4.53362036

$$$$

 OpenBabel03252503043D

 32 33  0  0  0  0  0  0  0  0999 V2000
   39.2780   31.9390   41.3410 S   0  0  0  0  0  0  0  0  0  0  0  0
   39.4620   29.2990   42.2010 C   0  0  0  0  0  0  0  0  0  0  0  0
   38.6210   30.2950   41.7280 C   0  0  0  0  0  0  0  0  0  0  0  0
   37.2740   30.0480   41.5440 C   0  0  0  0  0  0  0  0  0  0  0  0
   36.8270   28.7960   41.8490 N   0  0  0  0  0  0  0  0  0  0  0  0
   37.6630   27.8510   42.3060 C   0  0  0  0  0  0  0  0  0  0  0  0
   38.9600   28.0830   42.4840 N   0  0  0  0  0  0  0  0  0  0  0  0
   40.5110   29.5270   42.3330 H   0  0  0  0  0  0  0  0  0  0  0  0
   36.6240   30.8260   41.1760 H   0  0  0  0  0  0  0  0  0  0  0  0
   37.2070   26.5890   42.6120 O   0  0  0  0  0  0  0  0  0  0  0  0
   37.2340   25.5160   41.7300 C   0  0  0  0  0  0  0  0  0  0  0  0
   37.8190   24.3770   42.1650 C   0  0  0  0  0  0  0  0  0  0  0  0
   38.3050   24.0790   43.0950 H   0  0  0  0  0  0  0  0  0  0  0  0
   37.6480   23.2500   40.7440 S   0  0  0  0  0  0  0  0  0  0  0  0
   36.7490   24.6200   39.7420 C   0  0  0  0  0  0  0  0  0  0  0  0
   36.3380   24.5990   38.7150 H   0  0  0  0  0  0  0  0  0  0  0  0
   36.7630   25.4460   40.5090 N   0  0  0  0  0  0  0  0  0  0  0  0
   39.0560   32.2590   39.5930 C   0  0  0  0  0  0  0  0  0  0  0  0
   38.0270   32.2450   39.2400 H   0  0  0  0  0  0  0  0  0  0  0  0
   39.4630   33.2870   39.3800 H   0  0  0  0  0  0  0  0  0  0  0  0
   39.9400   31.3450   38.8610 N   0  0  0  0  0  0  0  0  0  0  0  0
   39.4420   30.4830   38.5390 H   0  0  0  0  0  0  0  0  0  0  0  0
   40.6050   32.0670   37.4600 S   0  0  0  0  0  0  0  0  0  0  0  0
   41.5180   31.1410   36.7350 O   0  0  0  0  0  0  0  0  0  0  0  0
   41.6100   30.1750   36.7410 H   0  0  0  0  0  0  0  0  0  0  0  0
   39.4400   32.4270   36.5600 O   0  0  0  0  0  0  0  0  0  0  0  0
   38.9990   31.7140   36.0380 H   0  0  0  0  0  0  0  0  0  0  0  0
   41.3650   33.4970   37.8700 O   0  0  0  0  0  0  0  0  0  0  0  0
   42.5360   33.2930   38.5670 C   0  0  0  0  0  0  0  0  0  0  0  0
   42.3170   32.5640   39.3920 H   0  0  0  0  0  0  0  0  0  0  0  0
   42.8150   34.2720   39.0220 H   0  0  0  0  0  0  0  0  0  0  0  0
   43.3270   32.9200   37.8980 H   0  0  0  0  0  0  0  0  0  0  0  0
  1  3  1  0  0  0  0
  2  8  1  0  0  0  0
  2  7  1  0  0  0  0
  3  2  2  0  0  0  0
  4  3  1  0  0  0  0
  4  5  2  0  0  0  0
  5  6  1  0  0  0  0
  6  7  2  0  0  0  0
  6 10  1  0  0  0  0
  9  4  1  0  0  0  0
 11 12  2  0  0  0  0
 11 10  1  0  0  0  0
 12 13  1  0  0  0  0
 14 12  1  0  0  0  0
 15 17  2  0  0  0  0
 15 14  1  0  0  0  0
 16 15  1  0  0  0  0
 17 11  1  0  0  0  0
 18  1  1  0  0  0  0
 19 18  1  0  0  0  0
 20 18  1  0  0  0  0
 21 18  1  0  0  0  0
 22 21  1  0  0  0  0
 23 28  1  0  0  0  0
 23 21  1  0  0  0  0
 24 25  1  0  0  0  0
 24 23  1  0  0  0  0
 26 23  1  0  0  0  0
 27 26  1  0  0  0  0
 28 29  1  0  0  0  0
 29 31  1  0  0  0  0
 29 30  1  0  0  0  0
 32 29  1  0  0  0  0
M  END
>  <minimizedAffinity>
-4.42533255

$$$$

 OpenBabel03252503043D

 32 33  0  0  0  0  0  0  0  0999 V2000
   36.4960   30.1320   39.0500 S   0  0  0  0  0  0  0  0  0  0  0  0
   38.9620   31.0470   39.9570 C   0  0  0  0  0  0  0  0  0  0  0  0
   37.6950   31.4060   39.5240 C   0  0  0  0  0  0  0  0  0  0  0  0
   37.3300   32.7360   39.4470 C   0  0  0  0  0  0  0  0  0  0  0  0
   38.2660   33.6570   39.8140 N   0  0  0  0  0  0  0  0  0  0  0  0
   39.4860   33.2820   40.2290 C   0  0  0  0  0  0  0  0  0  0  0  0
   39.8430   32.0030   40.3050 N   0  0  0  0  0  0  0  0  0  0  0  0
   39.2150   29.9960   40.0050 H   0  0  0  0  0  0  0  0  0  0  0  0
   36.3430   33.0100   39.1100 H   0  0  0  0  0  0  0  0  0  0  0  0
   40.4270   34.2160   40.5990 O   0  0  0  0  0  0  0  0  0  0  0  0
   41.7750   34.1330   40.2730 C   0  0  0  0  0  0  0  0  0  0  0  0
   42.6550   34.0900   41.3000 C   0  0  0  0  0  0  0  0  0  0  0  0
   42.5560   34.1050   42.3860 H   0  0  0  0  0  0  0  0  0  0  0  0
   44.2700   33.9880   40.4640 S   0  0  0  0  0  0  0  0  0  0  0  0
   43.4050   34.0250   38.7490 C   0  0  0  0  0  0  0  0  0  0  0  0
   43.8370   33.9890   37.7320 H   0  0  0  0  0  0  0  0  0  0  0  0
   42.3320   34.0910   39.0870 N   0  0  0  0  0  0  0  0  0  0  0  0
   35.5780   29.6270   40.5030 C   0  0  0  0  0  0  0  0  0  0  0  0
   35.5630   30.3450   41.3210 H   0  0  0  0  0  0  0  0  0  0  0  0
   34.5090   29.4620   40.1910 H   0  0  0  0  0  0  0  0  0  0  0  0
   36.0670   28.3010   40.8950 N   0  0  0  0  0  0  0  0  0  0  0  0
   36.7170   27.8910   40.1860 H   0  0  0  0  0  0  0  0  0  0  0  0
   36.9290   28.3380   42.3730 S   0  0  0  0  0  0  0  0  0  0  0  0
   37.1750   29.7290   42.8410 O   0  0  0  0  0  0  0  0  0  0  0  0
   36.7450   30.5750   42.6340 H   0  0  0  0  0  0  0  0  0  0  0  0
   36.0780   27.6100   43.3920 O   0  0  0  0  0  0  0  0  0  0  0  0
   35.2980   28.0730   43.7840 H   0  0  0  0  0  0  0  0  0  0  0  0
   38.3500   27.4730   42.2170 O   0  0  0  0  0  0  0  0  0  0  0  0
   39.1660   27.5940   43.3200 C   0  0  0  0  0  0  0  0  0  0  0  0
   39.2460   28.6860   43.5660 H   0  0  0  0  0  0  0  0  0  0  0  0
   40.1740   27.2230   43.0170 H   0  0  0  0  0  0  0  0  0  0  0  0
   38.7640   27.0170   44.1670 H   0  0  0  0  0  0  0  0  0  0  0  0
  1  3  1  0  0  0  0
  1 18  1  0  0  0  0
  2  8  1  0  0  0  0
  2  7  1  0  0  0  0
  3  2  2  0  0  0  0
  4  3  1  0  0  0  0
  4  5  2  0  0  0  0
  5  6  1  0  0  0  0
  6  7  2  0  0  0  0
  6 10  1  0  0  0  0
  9  4  1  0  0  0  0
 11 10  1  0  0  0  0
 11 12  2  0  0  0  0
 12 13  1  0  0  0  0
 14 12  1  0  0  0  0
 15 17  2  0  0  0  0
 15 14  1  0  0  0  0
 16 15  1  0  0  0  0
 17 11  1  0  0  0  0
 18 21  1  0  0  0  0
 18 19  1  0  0  0  0
 20 18  1  0  0  0  0
 21 23  1  0  0  0  0
 22 21  1  0  0  0  0
 23 24  1  0  0  0  0
 23 26  1  0  0  0  0
 25 24  1  0  0  0  0
 26 27  1  0  0  0  0
 28 23  1  0  0  0  0
 28 29  1  0  0  0  0
 29 30  1  0  0  0  0
 29 32  1  0  0  0  0
 31 29  1  0  0  0  0
M  END
>  <minimizedAffinity>
-4.37564898

$$$$

 OpenBabel03252503043D

 32 33  0  0  0  0  0  0  0  0999 V2000
   37.8630   30.8310   37.4560 S   0  0  0  0  0  0  0  0  0  0  0  0
   39.0200   32.5870   39.2790 C   0  0  0  0  0  0  0  0  0  0  0  0
   39.1790   31.9110   38.0780 C   0  0  0  0  0  0  0  0  0  0  0  0
   40.3380   32.0520   37.3420 C   0  0  0  0  0  0  0  0  0  0  0  0
   41.2990   32.8750   37.8510 N   0  0  0  0  0  0  0  0  0  0  0  0
   41.1200   33.5170   39.0160 C   0  0  0  0  0  0  0  0  0  0  0  0
   40.0050   33.3850   39.7290 N   0  0  0  0  0  0  0  0  0  0  0  0
   38.0990   32.4540   39.8300 H   0  0  0  0  0  0  0  0  0  0  0  0
   40.4570   31.5250   36.4080 H   0  0  0  0  0  0  0  0  0  0  0  0
   42.0930   34.3470   39.5250 O   0  0  0  0  0  0  0  0  0  0  0  0
   43.0760   33.9380   40.4180 C   0  0  0  0  0  0  0  0  0  0  0  0
   44.2990   33.6700   39.9050 C   0  0  0  0  0  0  0  0  0  0  0  0
   44.7250   33.6980   38.9010 H   0  0  0  0  0  0  0  0  0  0  0  0
   45.2670   33.1790   41.3670 S   0  0  0  0  0  0  0  0  0  0  0  0
   43.7340   33.4440   42.4940 C   0  0  0  0  0  0  0  0  0  0  0  0
   43.6210   33.3140   43.5870 H   0  0  0  0  0  0  0  0  0  0  0  0
   42.9890   33.7690   41.7150 N   0  0  0  0  0  0  0  0  0  0  0  0
   36.5610   30.7340   38.6830 C   0  0  0  0  0  0  0  0  0  0  0  0
   36.4190   31.6280   39.2870 H   0  0  0  0  0  0  0  0  0  0  0  0
   35.5930   30.5480   38.1380 H   0  0  0  0  0  0  0  0  0  0  0  0
   36.7880   29.5210   39.4740 N   0  0  0  0  0  0  0  0  0  0  0  0
   37.7600   29.1510   39.3650 H   0  0  0  0  0  0  0  0  0  0  0  0
   36.5620   29.7860   41.1500 S   0  0  0  0  0  0  0  0  0  0  0  0
   35.7840   31.0270   41.4170 O   0  0  0  0  0  0  0  0  0  0  0  0
   35.1820   31.5530   40.8680 H   0  0  0  0  0  0  0  0  0  0  0  0
   35.7970   28.5920   41.6800 O   0  0  0  0  0  0  0  0  0  0  0  0
   34.8250   28.5310   41.5130 H   0  0  0  0  0  0  0  0  0  0  0  0
   38.0430   29.8000   41.9230 O   0  0  0  0  0  0  0  0  0  0  0  0
   37.9780   29.2860   43.1990 C   0  0  0  0  0  0  0  0  0  0  0  0
   37.1150   29.7780   43.7200 H   0  0  0  0  0  0  0  0  0  0  0  0
   38.9220   29.5840   43.7140 H   0  0  0  0  0  0  0  0  0  0  0  0
   37.8640   28.1910   43.1720 H   0  0  0  0  0  0  0  0  0  0  0  0
  1  3  1  0  0  0  0
  1 18  1  0  0  0  0
  2  7  1  0  0  0  0
  2  8  1  0  0  0  0
  3  2  2  0  0  0  0
  4  5  2  0  0  0  0
  4  3  1  0  0  0  0
  5  6  1  0  0  0  0
  6 10  1  0  0  0  0
  6  7  2  0  0  0  0
  9  4  1  0  0  0  0
 10 11  1  0  0  0  0
 11 17  1  0  0  0  0
 12 11  2  0  0  0  0
 12 14  1  0  0  0  0
 13 12  1  0  0  0  0
 14 15  1  0  0  0  0
 15 16  1  0  0  0  0
 17 15  2  0  0  0  0
 18 19  1  0  0  0  0
 18 21  1  0  0  0  0
 20 18  1  0  0  0  0
 21 23  1  0  0  0  0
 22 21  1  0  0  0  0
 23 24  1  0  0  0  0
 23 26  1  0  0  0  0
 23 28  1  0  0  0  0
 25 24  1  0  0  0  0
 27 26  1  0  0  0  0
 28 29  1  0  0  0  0
 29 31  1  0  0  0  0
 29 30  1  0  0  0  0
 32 29  1  0  0  0  0
M  END
>  <minimizedAffinity>
-4.37014151

$$$$

 OpenBabel03252503043D

 32 33  0  0  0  0  0  0  0  0999 V2000
   37.3460   32.6970   39.1100 S   0  0  0  0  0  0  0  0  0  0  0  0
   36.3730   30.8500   40.9490 C   0  0  0  0  0  0  0  0  0  0  0  0
   37.2710   31.0760   39.9180 C   0  0  0  0  0  0  0  0  0  0  0  0
   38.1200   30.0730   39.4930 C   0  0  0  0  0  0  0  0  0  0  0  0
   38.0260   28.8710   40.1310 N   0  0  0  0  0  0  0  0  0  0  0  0
   37.1460   28.6780   41.1270 C   0  0  0  0  0  0  0  0  0  0  0  0
   36.3270   29.6410   41.5400 N   0  0  0  0  0  0  0  0  0  0  0  0
   35.7220   31.6580   41.2570 H   0  0  0  0  0  0  0  0  0  0  0  0
   38.8170   30.2540   38.6900 H   0  0  0  0  0  0  0  0  0  0  0  0
   37.0560   27.4640   41.7670 O   0  0  0  0  0  0  0  0  0  0  0  0
   38.1330   26.8110   42.3540 C   0  0  0  0  0  0  0  0  0  0  0  0
   38.2900   25.4990   42.0630 C   0  0  0  0  0  0  0  0  0  0  0  0
   37.7430   24.7880   41.4420 H   0  0  0  0  0  0  0  0  0  0  0  0
   39.7760   25.0360   43.0080 S   0  0  0  0  0  0  0  0  0  0  0  0
   39.9320   26.8290   43.6780 C   0  0  0  0  0  0  0  0  0  0  0  0
   40.6800   27.2720   44.3610 H   0  0  0  0  0  0  0  0  0  0  0  0
   39.0400   27.2920   43.1680 N   0  0  0  0  0  0  0  0  0  0  0  0
   38.2370   33.8340   40.1690 C   0  0  0  0  0  0  0  0  0  0  0  0
   37.6950   34.7330   40.4540 H   0  0  0  0  0  0  0  0  0  0  0  0
   38.4900   33.2870   41.1200 H   0  0  0  0  0  0  0  0  0  0  0  0
   39.5310   34.1060   39.5340 N   0  0  0  0  0  0  0  0  0  0  0  0
   39.8290   35.1020   39.6480 H   0  0  0  0  0  0  0  0  0  0  0  0
   40.7900   33.1510   40.1910 S   0  0  0  0  0  0  0  0  0  0  0  0
   40.4010   32.5300   41.4860 O   0  0  0  0  0  0  0  0  0  0  0  0
   39.5380   32.3450   41.8910 H   0  0  0  0  0  0  0  0  0  0  0  0
   41.0820   32.0610   39.1810 O   0  0  0  0  0  0  0  0  0  0  0  0
   40.4690   31.2890   39.1170 H   0  0  0  0  0  0  0  0  0  0  0  0
   42.1780   34.0700   40.3330 O   0  0  0  0  0  0  0  0  0  0  0  0
   42.8650   33.8140   41.5000 C   0  0  0  0  0  0  0  0  0  0  0  0
   42.1260   33.8520   42.3440 H   0  0  0  0  0  0  0  0  0  0  0  0
   43.5990   34.6440   41.6310 H   0  0  0  0  0  0  0  0  0  0  0  0
   43.3690   32.8360   41.4480 H   0  0  0  0  0  0  0  0  0  0  0  0
  1  3  1  0  0  0  0
  1 18  1  0  0  0  0
  2  8  1  0  0  0  0
  2  7  1  0  0  0  0
  3  2  2  0  0  0  0
  4  3  1  0  0  0  0
  4  5  2  0  0  0  0
  5  6  1  0  0  0  0
  6  7  2  0  0  0  0
  6 10  1  0  0  0  0
  9  4  1  0  0  0  0
 10 11  1  0  0  0  0
 11 17  1  0  0  0  0
 12 11  2  0  0  0  0
 12 14  1  0  0  0  0
 13 12  1  0  0  0  0
 14 15  1  0  0  0  0
 15 16  1  0  0  0  0
 17 15  2  0  0  0  0
 18 19  1  0  0  0  0
 18 20  1  0  0  0  0
 21 22  1  0  0  0  0
 21 18  1  0  0  0  0
 21 23  1  0  0  0  0
 23 28  1  0  0  0  0
 23 24  1  0  0  0  0
 24 25  1  0  0  0  0
 26 23  1  0  0  0  0
 27 26  1  0  0  0  0
 28 29  1  0  0  0  0
 29 31  1  0  0  0  0
 29 30  1  0  0  0  0
 32 29  1  0  0  0  0
M  END
>  <minimizedAffinity>
-4.26814222

$$$$

 OpenBabel03252503043D

 32 33  0  0  0  0  0  0  0  0999 V2000
   41.7320   33.3570   37.8900 S   0  0  0  0  0  0  0  0  0  0  0  0
   40.1240   33.0540   40.1410 C   0  0  0  0  0  0  0  0  0  0  0  0
   40.3300   32.6840   38.8200 C   0  0  0  0  0  0  0  0  0  0  0  0
   39.4700   31.8000   38.1970 C   0  0  0  0  0  0  0  0  0  0  0  0
   38.4300   31.3220   38.9380 N   0  0  0  0  0  0  0  0  0  0  0  0
   38.2540   31.6970   40.2150 C   0  0  0  0  0  0  0  0  0  0  0  0
   39.0780   32.5480   40.8200 N   0  0  0  0  0  0  0  0  0  0  0  0
   40.8160   33.7490   40.5980 H   0  0  0  0  0  0  0  0  0  0  0  0
   39.6340   31.5150   37.1700 H   0  0  0  0  0  0  0  0  0  0  0  0
   37.2020   31.2110   40.9580 O   0  0  0  0  0  0  0  0  0  0  0  0
   37.2340   30.0150   41.6620 C   0  0  0  0  0  0  0  0  0  0  0  0
   36.3610   29.0540   41.2830 C   0  0  0  0  0  0  0  0  0  0  0  0
   35.5910   28.9880   40.5120 H   0  0  0  0  0  0  0  0  0  0  0  0
   36.7200   27.6850   42.4290 S   0  0  0  0  0  0  0  0  0  0  0  0
   38.0880   28.7320   43.2790 C   0  0  0  0  0  0  0  0  0  0  0  0
   38.7580   28.4790   44.1230 H   0  0  0  0  0  0  0  0  0  0  0  0
   38.0060   29.6720   42.6650 N   0  0  0  0  0  0  0  0  0  0  0  0
   43.0680   32.1640   37.9080 C   0  0  0  0  0  0  0  0  0  0  0  0
   43.9490   32.4550   38.4760 H   0  0  0  0  0  0  0  0  0  0  0  0
   42.6750   31.2180   38.3760 H   0  0  0  0  0  0  0  0  0  0  0  0
   43.3590   31.8050   36.5170 N   0  0  0  0  0  0  0  0  0  0  0  0
   44.3480   32.0130   36.2500 H   0  0  0  0  0  0  0  0  0  0  0  0
   43.1220   30.1370   36.2130 S   0  0  0  0  0  0  0  0  0  0  0  0
   41.6990   29.7360   36.3850 O   0  0  0  0  0  0  0  0  0  0  0  0
   40.8700   30.2420   36.3770 H   0  0  0  0  0  0  0  0  0  0  0  0
   43.5410   29.8910   34.7790 O   0  0  0  0  0  0  0  0  0  0  0  0
   42.9310   30.1570   34.0490 H   0  0  0  0  0  0  0  0  0  0  0  0
   44.1440   29.2380   37.1820 O   0  0  0  0  0  0  0  0  0  0  0  0
   43.4680   28.3220   37.9580 C   0  0  0  0  0  0  0  0  0  0  0  0
   42.6180   28.8610   38.4560 H   0  0  0  0  0  0  0  0  0  0  0  0
   44.1800   27.9760   38.7440 H   0  0  0  0  0  0  0  0  0  0  0  0
   43.1080   27.4820   37.3440 H   0  0  0  0  0  0  0  0  0  0  0  0
  1 18  1  0  0  0  0
  1  3  1  0  0  0  0
  2  8  1  0  0  0  0
  2  7  1  0  0  0  0
  3  2  2  0  0  0  0
  4  3  1  0  0  0  0
  4  5  2  0  0  0  0
  5  6  1  0  0  0  0
  6  7  2  0  0  0  0
  6 10  1  0  0  0  0
  9  4  1  0  0  0  0
 10 11  1  0  0  0  0
 11 17  1  0  0  0  0
 12 11  2  0  0  0  0
 12 14  1  0  0  0  0
 13 12  1  0  0  0  0
 14 15  1  0  0  0  0
 15 16  1  0  0  0  0
 17 15  2  0  0  0  0
 18 20  1  0  0  0  0
 18 19  1  0  0  0  0
 21 18  1  0  0  0  0
 22 21  1  0  0  0  0
 23 24  1  0  0  0  0
 23 21  1  0  0  0  0
 23 28  1  0  0  0  0
 25 24  1  0  0  0  0
 26 23  1  0  0  0  0
 27 26  1  0  0  0  0
 28 29  1  0  0  0  0
 29 30  1  0  0  0  0
 29 31  1  0  0  0  0
 32 29  1  0  0  0  0
M  END
>  <minimizedAffinity>
-4.24050999

$$$$
