
 OpenBabel03252509043D

 46 48  0  0  1  0  0  0  0  0999 V2000
   46.7330   34.3810   43.4740 N   0  0  0  0  0  0  0  0  0  0  0  0
   46.4450   34.9240   42.2080 C   0  0  0  0  0  0  0  0  0  0  0  0
   44.9780   34.9100   41.8330 C   0  0  0  0  0  0  0  0  0  0  0  0
   44.0570   35.1580   43.0030 C   0  0  0  0  0  0  0  0  0  0  0  0
   44.8160   35.3910   44.2890 C   0  0  0  0  0  0  0  0  0  0  0  0
   45.7460   34.1260   44.4000 C   0  0  2  0  0  0  0  0  0  0  0  0
   46.9990   34.5200   41.3620 H   0  0  0  0  0  0  0  0  0  0  0  0
   46.7220   36.0180   42.2470 H   0  0  0  0  0  0  0  0  0  0  0  0
   44.7860   35.5820   40.9840 H   0  0  0  0  0  0  0  0  0  0  0  0
   44.7680   33.8780   41.4670 H   0  0  0  0  0  0  0  0  0  0  0  0
   43.3150   34.3830   43.1780 H   0  0  0  0  0  0  0  0  0  0  0  0
   43.5230   36.1140   42.7880 H   0  0  0  0  0  0  0  0  0  0  0  0
   45.4480   36.2840   44.2150 H   0  0  0  0  0  0  0  0  0  0  0  0
   44.1030   35.3860   45.1200 H   0  0  0  0  0  0  0  0  0  0  0  0
   45.0630   33.2840   44.2180 H   0  0  0  0  0  0  0  0  0  0  0  0
   47.9330   33.5790   43.5160 C   0  0  0  0  0  0  0  0  0  0  0  0
   48.1940   33.3590   44.5510 H   0  0  0  0  0  0  0  0  0  0  0  0
   48.7590   34.1970   43.0920 H   0  0  0  0  0  0  0  0  0  0  0  0
   47.7110   32.3410   42.7290 C   0  0  0  0  0  0  0  0  0  0  0  0
   47.5640   31.4730   43.3830 H   0  0  0  0  0  0  0  0  0  0  0  0
   46.7920   32.4140   42.0910 H   0  0  0  0  0  0  0  0  0  0  0  0
   51.2210   32.1710   41.4120 C   0  0  0  0  0  0  0  0  0  0  0  0
   50.1240   32.3800   42.2540 C   0  0  0  0  0  0  0  0  0  0  0  0
   48.8630   32.1120   41.8180 C   0  0  0  0  0  0  0  0  0  0  0  0
   48.7230   31.6480   40.5690 N   0  0  0  0  0  0  0  0  0  0  0  0
   49.7700   31.4430   39.7510 C   0  0  0  0  0  0  0  0  0  0  0  0
   51.0230   31.6980   40.1530 N   0  0  0  0  0  0  0  0  0  0  0  0
   52.2300   32.3630   41.7000 H   0  0  0  0  0  0  0  0  0  0  0  0
   50.3590   32.7570   43.2430 H   0  0  0  0  0  0  0  0  0  0  0  0
   49.4830   31.0700   38.7870 H   0  0  0  0  0  0  0  0  0  0  0  0
   46.1950   34.2140   45.7040 O   0  0  0  0  0  0  0  0  0  0  0  0
   45.7080   31.6060   45.6070 O   0  0  0  0  0  0  0  0  0  0  0  0
   46.0800   32.7760   46.5460 P   0  0  2  0  0  0  0  0  0  0  0  0
   44.7190   32.9250   47.5770 O   0  0  0  0  0  0  0  0  0  0  0  0
   44.9850   32.8380   48.5240 H   0  0  0  0  0  0  0  0  0  0  0  0
   47.4130   32.4240   47.4680 O   0  0  0  0  0  0  0  0  0  0  0  0
   47.5540   31.0520   47.5750 C   0  0  0  0  0  0  0  0  0  0  0  0
   46.6250   30.5660   47.8960 H   0  0  0  0  0  0  0  0  0  0  0  0
   47.8310   30.6140   46.5790 H   0  0  0  0  0  0  0  0  0  0  0  0
   48.6360   30.6830   48.5590 C   0  0  0  0  0  0  0  0  0  0  0  0
   49.1450   29.3230   48.6010 C   0  0  0  0  0  0  0  0  0  0  0  0
   48.7850   28.5350   47.9530 H   0  0  0  0  0  0  0  0  0  0  0  0
   50.3980   29.4570   49.9320 S   0  0  0  0  0  0  0  0  0  0  0  0
   50.0330   31.2830   50.2030 C   0  0  0  0  0  0  0  0  0  0  0  0
   50.5020   31.9540   50.9210 H   0  0  0  0  0  0  0  0  0  0  0  0
   49.1670   31.5420   49.4070 N   0  0  0  0  0  0  0  0  0  0  0  0
  1 16  1  0  0  0  0
  1  6  1  0  0  0  0
  2  8  1  0  0  0  0
  2  1  1  0  0  0  0
  3  2  1  0  0  0  0
  3  4  1  0  0  0  0
  4 11  1  0  0  0  0
  4  5  1  0  0  0  0
  5  6  1  0  0  0  0
  5 14  1  0  0  0  0
  6 15  1  6  0  0  0
  6 31  1  0  0  0  0
  7  2  1  0  0  0  0
  9  3  1  0  0  0  0
 10  3  1  0  0  0  0
 12  4  1  0  0  0  0
 13  5  1  0  0  0  0
 16 17  1  0  0  0  0
 18 16  1  0  0  0  0
 19 20  1  0  0  0  0
 19 16  1  0  0  0  0
 21 19  1  0  0  0  0
 22 28  1  0  0  0  0
 22 23  1  0  0  0  0
 23 29  1  0  0  0  0
 24 23  2  0  0  0  0
 24 19  1  0  0  0  0
 25 24  1  0  0  0  0
 26 27  1  0  0  0  0
 26 25  2  0  0  0  0
 27 22  2  0  0  0  0
 30 26  1  0  0  0  0
 31 33  1  0  0  0  0
 33 32  2  6  0  0  0
 33 36  1  0  0  0  0
 33 34  1  0  0  0  0
 34 35  1  0  0  0  0
 36 37  1  0  0  0  0
 37 38  1  0  0  0  0
 37 40  1  0  0  0  0
 39 37  1  0  0  0  0
 40 41  2  0  0  0  0
 40 46  1  0  0  0  0
 41 43  1  0  0  0  0
 42 41  1  0  0  0  0
 43 44  1  0  0  0  0
 44 45  1  0  0  0  0
 46 44  2  0  0  0  0
M  END
>  <minimizedAffinity>
-4.89406061

>  <minimizedRMSD>
3.00664711

$$$$
