
 OpenBabel03252505513D

 23 24  0  0  0  0  0  0  0  0999 V2000
   44.6460   35.4480   45.1480 C   0  0  0  0  0  0  0  0  0  0  0  0
   45.4900   35.0180   44.1270 C   0  0  0  0  0  0  0  0  0  0  0  0
   46.2350   33.8640   44.3430 C   0  0  0  0  0  0  0  0  0  0  0  0
   46.1120   33.2170   45.5160 N   0  0  0  0  0  0  0  0  0  0  0  0
   45.2950   33.6490   46.4820 C   0  0  0  0  0  0  0  0  0  0  0  0
   44.5480   34.7640   46.3240 N   0  0  0  0  0  0  0  0  0  0  0  0
   44.0350   36.3370   45.0540 H   0  0  0  0  0  0  0  0  0  0  0  0
   46.8790   33.5610   43.5270 H   0  0  0  0  0  0  0  0  0  0  0  0
   45.5160   35.8500   42.8720 C   0  0  0  0  0  0  0  0  0  0  0  0
   45.2110   37.1230   43.2540 F   0  0  0  0  0  0  0  0  0  0  0  0
   44.5080   35.3400   42.0570 F   0  0  0  0  0  0  0  0  0  0  0  0
   46.7520   35.7120   42.3010 F   0  0  0  0  0  0  0  0  0  0  0  0
   45.1470   33.0070   47.6940 O   0  0  0  0  0  0  0  0  0  0  0  0
   46.1730   32.2570   48.2930 C   0  0  0  0  0  0  0  0  0  0  0  0
   47.1710   32.7120   48.1360 H   0  0  0  0  0  0  0  0  0  0  0  0
   46.0270   32.2630   49.3920 H   0  0  0  0  0  0  0  0  0  0  0  0
   46.1460   30.8080   47.8740 C   0  0  0  0  0  0  0  0  0  0  0  0
   47.3200   30.0260   47.7480 C   0  0  0  0  0  0  0  0  0  0  0  0
   48.3410   30.2830   47.9080 H   0  0  0  0  0  0  0  0  0  0  0  0
   46.6850   28.4080   47.2290 S   0  0  0  0  0  0  0  0  0  0  0  0
   44.9000   29.0600   47.2660 C   0  0  0  0  0  0  0  0  0  0  0  0
   43.7940   28.6220   47.0470 H   0  0  0  0  0  0  0  0  0  0  0  0
   45.0520   30.1260   47.5850 N   0  0  0  0  0  0  0  0  0  0  0  0
  1  6  1  0  0  0  0
  2  3  1  0  0  0  0
  2  1  2  0  0  0  0
  3  4  2  0  0  0  0
  4  5  1  0  0  0  0
  5 13  1  0  0  0  0
  6  5  2  0  0  0  0
  7  1  1  0  0  0  0
  8  3  1  0  0  0  0
  9 10  1  0  0  0  0
  9  2  1  0  0  0  0
 11  9  1  0  0  0  0
 12  9  1  0  0  0  0
 13 14  1  0  0  0  0
 14 16  1  0  0  0  0
 15 14  1  0  0  0  0
 17 14  1  0  0  0  0
 18 17  2  0  0  0  0
 18 19  1  0  0  0  0
 20 21  1  0  0  0  0
 20 18  1  0  0  0  0
 21 23  2  0  0  0  0
 22 21  1  0  0  0  0
 23 17  1  0  0  0  0
M  END
>  <minimizedAffinity>
-4.63858509

>  <minimizedRMSD>
0.862976551

$$$$
