
 OpenBabel03252501203D

 24 25  0  0  0  0  0  0  0  0999 V2000
   45.1470   34.6680   45.1240 C   0  0  0  0  0  0  0  0  0  0  0  0
   46.2340   34.1330   44.4200 C   0  0  0  0  0  0  0  0  0  0  0  0
   46.4860   34.6750   43.1690 C   0  0  0  0  0  0  0  0  0  0  0  0
   45.6970   35.6720   42.6830 N   0  0  0  0  0  0  0  0  0  0  0  0
   44.6620   36.1550   43.3940 C   0  0  0  0  0  0  0  0  0  0  0  0
   44.3870   35.6520   44.6160 N   0  0  0  0  0  0  0  0  0  0  0  0
   44.8780   34.3160   46.1120 H   0  0  0  0  0  0  0  0  0  0  0  0
   44.0850   36.9490   42.9230 H   0  0  0  0  0  0  0  0  0  0  0  0
   47.6430   34.0940   42.4500 C   0  0  0  0  0  0  0  0  0  0  0  0
   47.7330   34.6810   41.1980 F   0  0  0  0  0  0  0  0  0  0  0  0
   47.3530   32.7750   42.2540 F   0  0  0  0  0  0  0  0  0  0  0  0
   48.8210   34.3470   43.0650 F   0  0  0  0  0  0  0  0  0  0  0  0
   47.0460   33.0580   44.9910 C   0  0  0  0  0  0  0  0  0  0  0  0
   46.5880   32.0620   44.9830 H   0  0  0  0  0  0  0  0  0  0  0  0
   48.0670   33.1200   44.6210 H   0  0  0  0  0  0  0  0  0  0  0  0
   47.1030   33.2150   46.4480 N   0  0  0  0  0  0  0  0  0  0  0  0
   47.4460   34.1250   46.8750 H   0  0  0  0  0  0  0  0  0  0  0  0
   46.7780   32.3530   47.5280 C   0  0  0  0  0  0  0  0  0  0  0  0
   45.4720   32.5060   47.9140 C   0  0  0  0  0  0  0  0  0  0  0  0
   44.5700   33.1060   47.6370 H   0  0  0  0  0  0  0  0  0  0  0  0
   45.2860   31.3360   49.2730 S   0  0  0  0  0  0  0  0  0  0  0  0
   47.1140   30.8000   49.0820 C   0  0  0  0  0  0  0  0  0  0  0  0
   47.5640   29.9740   49.7840 H   0  0  0  0  0  0  0  0  0  0  0  0
   47.4150   31.4570   48.2350 N   0  0  0  0  0  0  0  0  0  0  0  0
  1  7  1  0  0  0  0
  2 13  1  0  0  0  0
  2  1  2  0  0  0  0
  3  2  1  0  0  0  0
  4  3  2  0  0  0  0
  4  5  1  0  0  0  0
  5  6  2  0  0  0  0
  6  1  1  0  0  0  0
  8  5  1  0  0  0  0
  9 12  1  0  0  0  0
  9  3  1  0  0  0  0
 10  9  1  0  0  0  0
 11  9  1  0  0  0  0
 13 16  1  0  0  0  0
 14 13  1  0  0  0  0
 15 13  1  0  0  0  0
 16 17  1  0  0  0  0
 16 18  1  0  0  0  0
 18 19  2  0  0  0  0
 18 24  1  0  0  0  0
 19 21  1  0  0  0  0
 20 19  1  0  0  0  0
 22 21  1  0  0  0  0
 22 23  1  0  0  0  0
 24 22  2  0  0  0  0
M  END
>  <minimizedAffinity>
-4.9175601

>  <minimizedRMSD>
5.18014002

$$$$
