
 OpenBabel03252506053D

 41 45  0  0  0  0  0  0  0  0999 V2000
   44.8130   35.9940   43.3270 Cl  0  0  0  0  0  0  0  0  0  0  0  0
   45.5510   34.7460   44.2610 C   0  0  0  0  0  0  0  0  0  0  0  0
   46.6610   34.0680   43.7750 C   0  0  0  0  0  0  0  0  0  0  0  0
   47.1780   33.0910   44.6030 C   0  0  0  0  0  0  0  0  0  0  0  0
   46.6670   32.7600   45.8500 C   0  0  0  0  0  0  0  0  0  0  0  0
   45.5680   33.4500   46.2990 C   0  0  0  0  0  0  0  0  0  0  0  0
   44.9580   32.9990   47.8770 Cl  0  0  0  0  0  0  0  0  0  0  0  0
   45.0180   34.4350   45.5080 C   0  0  0  0  0  0  0  0  0  0  0  0
   48.0470   32.5790   44.1960 H   0  0  0  0  0  0  0  0  0  0  0  0
   44.1540   34.9670   45.8770 H   0  0  0  0  0  0  0  0  0  0  0  0
   47.3580   31.6940   46.5750 C   0  0  0  0  0  0  0  0  0  0  0  0
   47.4670   30.4140   46.1020 C   0  0  0  0  0  0  0  0  0  0  0  0
   48.1160   29.3860   46.7650 C   0  0  0  0  0  0  0  0  0  0  0  0
   48.7010   29.6610   47.9950 C   0  0  0  0  0  0  0  0  0  0  0  0
   49.3200   28.6520   48.6120 N   0  0  0  0  0  0  0  0  0  0  0  0
   49.9240   28.8160   49.8220 C   0  0  0  0  0  0  0  0  0  0  0  0
   49.8600   30.0960   50.3770 C   0  0  0  0  0  0  0  0  0  0  0  0
   49.2170   31.1210   49.7240 C   0  0  0  0  0  0  0  0  0  0  0  0
   48.6170   30.9180   48.5020 C   0  0  0  0  0  0  0  0  0  0  0  0
   47.9580   31.9360   47.8160 C   0  0  0  0  0  0  0  0  0  0  0  0
   46.9920   30.2400   45.1280 H   0  0  0  0  0  0  0  0  0  0  0  0
   48.1500   28.4050   46.3080 H   0  0  0  0  0  0  0  0  0  0  0  0
   50.4360   28.0260   50.3550 H   0  0  0  0  0  0  0  0  0  0  0  0
   50.3190   30.3060   51.3420 H   0  0  0  0  0  0  0  0  0  0  0  0
   49.1700   32.1140   50.1640 H   0  0  0  0  0  0  0  0  0  0  0  0
   47.9250   32.9260   48.2770 H   0  0  0  0  0  0  0  0  0  0  0  0
   48.8530   35.4920   41.2510 C   0  0  0  0  0  0  0  0  0  0  0  0
   48.3590   34.9580   40.0500 C   0  0  0  0  0  0  0  0  0  0  0  0
   47.2560   34.0960   40.1200 C   0  0  0  0  0  0  0  0  0  0  0  0
   46.7610   33.8550   41.3420 N   0  0  0  0  0  0  0  0  0  0  0  0
   47.2370   34.3680   42.4820 C   0  0  0  0  0  0  0  0  0  0  0  0
   48.3030   35.2030   42.4460 N   0  0  0  0  0  0  0  0  0  0  0  0
   49.6890   36.1290   41.0710 H   0  0  0  0  0  0  0  0  0  0  0  0
   48.7780   35.1690   39.0760 H   0  0  0  0  0  0  0  0  0  0  0  0
   46.6790   33.4940   38.9430 C   0  0  0  0  0  0  0  0  0  0  0  0
   47.3790   33.4930   37.6800 C   0  0  0  0  0  0  0  0  0  0  0  0
   48.3620   33.8880   37.3960 H   0  0  0  0  0  0  0  0  0  0  0  0
   46.1450   32.6020   36.5500 S   0  0  0  0  0  0  0  0  0  0  0  0
   44.9050   32.3860   37.9700 C   0  0  0  0  0  0  0  0  0  0  0  0
   43.9460   31.9170   37.9320 H   0  0  0  0  0  0  0  0  0  0  0  0
   45.6510   32.9030   38.5680 N   0  0  0  0  0  0  0  0  0  0  0  0
  1  2  1  0  0  0  0
  2  8  1  0  0  0  0
  3  2  2  0  0  0  0
  3  4  1  0  0  0  0
  4  5  2  0  0  0  0
  5  6  1  0  0  0  0
  5 11  1  0  0  0  0
  6  7  1  0  0  0  0
  8 10  1  0  0  0  0
  8  6  2  0  0  0  0
  9  4  1  0  0  0  0
 11 20  1  0  0  0  0
 12 11  2  0  0  0  0
 12 13  1  0  0  0  0
 13 14  2  0  0  0  0
 14 19  1  0  0  0  0
 14 15  1  0  0  0  0
 15 16  2  0  0  0  0
 16 23  1  0  0  0  0
 16 17  1  0  0  0  0
 17 24  1  0  0  0  0
 18 25  1  0  0  0  0
 18 17  2  0  0  0  0
 19 18  1  0  0  0  0
 20 26  1  0  0  0  0
 20 19  2  0  0  0  0
 21 12  1  0  0  0  0
 22 13  1  0  0  0  0
 27 32  1  0  0  0  0
 28 29  1  0  0  0  0
 28 27  2  0  0  0  0
 29 30  2  0  0  0  0
 30 31  1  0  0  0  0
 31  3  1  0  0  0  0
 32 31  2  0  0  0  0
 33 27  1  0  0  0  0
 34 28  1  0  0  0  0
 35 29  1  0  0  0  0
 36 35  2  0  0  0  0
 37 36  1  0  0  0  0
 38 36  1  0  0  0  0
 38 39  1  0  0  0  0
 39 41  2  0  0  0  0
 40 39  1  0  0  0  0
 41 35  1  0  0  0  0
M  END
>  <minimizedAffinity>
-7.05209112

>  <minimizedRMSD>
0.397112846

$$$$
