
 OpenBabel03252506373D

 42 45  0  0  1  0  0  0  0  0999 V2000
   44.5140   35.5130   45.1350 C   0  0  0  0  0  0  0  0  0  0  0  0
   45.1730   35.5010   43.8910 C   0  0  0  0  0  0  0  0  0  0  0  0
   46.0960   34.5390   43.6420 C   0  0  0  0  0  0  0  0  0  0  0  0
   46.3260   33.6370   44.6260 N   0  0  0  0  0  0  0  0  0  0  0  0
   45.7020   33.6550   45.7950 C   0  0  0  0  0  0  0  0  0  0  0  0
   44.7940   34.5860   46.0630 N   0  0  0  0  0  0  0  0  0  0  0  0
   46.0310   32.6480   46.7680 N   0  0  0  0  0  0  0  0  0  0  0  0
   45.2920   32.4010   47.9500 C   0  0  0  0  0  0  0  0  0  0  0  0
   46.3700   32.0790   48.9700 C   0  0  0  0  0  0  0  0  0  0  0  0
   47.6510   31.9600   48.2000 C   0  0  0  0  0  0  0  0  0  0  0  0
   47.1620   31.7430   46.7680 C   0  0  1  0  0  0  0  0  0  0  0  0
   43.7680   36.2840   45.3470 H   0  0  0  0  0  0  0  0  0  0  0  0
   46.6070   34.5130   42.7070 H   0  0  0  0  0  0  0  0  0  0  0  0
   44.5130   31.7190   48.0640 H   0  0  0  0  0  0  0  0  0  0  0  0
   44.8830   33.4050   48.2890 H   0  0  0  0  0  0  0  0  0  0  0  0
   46.5300   32.8900   49.7110 H   0  0  0  0  0  0  0  0  0  0  0  0
   46.1240   31.1700   49.5620 H   0  0  0  0  0  0  0  0  0  0  0  0
   48.2380   31.0760   48.5170 H   0  0  0  0  0  0  0  0  0  0  0  0
   48.2370   32.9070   48.2030 H   0  0  0  0  0  0  0  0  0  0  0  0
   47.9670   32.0660   46.1070 H   0  0  0  0  0  0  0  0  0  0  0  0
   44.8160   36.5280   42.9520 N   0  0  0  0  0  0  0  0  0  0  0  0
   43.8470   36.4240   42.5800 H   0  0  0  0  0  0  0  0  0  0  0  0
   45.4760   37.2990   42.6800 H   0  0  0  0  0  0  0  0  0  0  0  0
   46.6610   30.0510   46.5940 S   0  0  0  0  0  0  0  0  0  0  0  0
   45.6220   30.5280   43.4510 O   0  0  0  0  0  0  0  0  0  0  0  0
   45.0070   29.9810   44.3810 C   0  0  0  0  0  0  0  0  0  0  0  0
   45.1160   29.7490   45.8500 C   0  0  1  0  0  0  0  0  0  0  0  0
   44.5940   28.3430   45.9690 C   0  0  0  0  0  0  0  0  0  0  0  0
   43.2550   28.5540   45.2250 C   0  0  0  0  0  0  0  0  0  0  0  0
   43.7710   29.3200   44.0700 N   0  0  0  0  0  0  0  0  0  0  0  0
   44.2250   30.3420   46.1990 H   0  0  0  0  0  0  0  0  0  0  0  0
   44.4190   28.0530   47.0130 H   0  0  0  0  0  0  0  0  0  0  0  0
   45.1940   27.6260   45.3840 H   0  0  0  0  0  0  0  0  0  0  0  0
   42.8650   27.5760   44.9100 H   0  0  0  0  0  0  0  0  0  0  0  0
   42.5650   29.1490   45.8360 H   0  0  0  0  0  0  0  0  0  0  0  0
   42.9630   29.2670   42.8660 C   0  0  0  0  0  0  0  0  0  0  0  0
   42.1140   30.2810   42.4630 C   0  0  0  0  0  0  0  0  0  0  0  0
   42.0180   31.2250   43.0880 H   0  0  0  0  0  0  0  0  0  0  0  0
   41.4410   29.5040   40.8650 S   0  0  0  0  0  0  0  0  0  0  0  0
   42.4860   27.9520   41.1150 C   0  0  0  0  0  0  0  0  0  0  0  0
   42.4320   27.1490   40.3880 H   0  0  0  0  0  0  0  0  0  0  0  0
   43.1090   28.1440   42.1670 N   0  0  0  0  0  0  0  0  0  0  0  0
  1 12  1  0  0  0  0
  1  6  1  0  0  0  0
  2  1  2  0  0  0  0
  3  2  1  0  0  0  0
  3  4  2  0  0  0  0
  4  5  1  0  0  0  0
  5  6  2  0  0  0  0
  5  7  1  0  0  0  0
  7 11  1  0  0  0  0
  7  8  1  0  0  0  0
  8 14  1  0  0  0  0
  8 15  1  0  0  0  0
  8  9  1  0  0  0  0
  9 17  1  0  0  0  0
  9 16  1  0  0  0  0
 10 19  1  0  0  0  0
 10 18  1  0  0  0  0
 10  9  1  0  0  0  0
 11 20  1  6  0  0  0
 11 10  1  0  0  0  0
 13  3  1  0  0  0  0
 21  2  1  0  0  0  0
 22 21  1  0  0  0  0
 23 21  1  0  0  0  0
 24 11  1  0  0  0  0
 25 26  2  0  0  0  0
 26 27  1  0  0  0  0
 27 28  1  0  0  0  0
 27 31  1  1  0  0  0
 27 24  1  0  0  0  0
 28 32  1  0  0  0  0
 29 35  1  0  0  0  0
 29 28  1  0  0  0  0
 30 26  1  0  0  0  0
 30 29  1  0  0  0  0
 33 28  1  0  0  0  0
 34 29  1  0  0  0  0
 36 30  1  0  0  0  0
 37 36  2  0  0  0  0
 37 38  1  0  0  0  0
 39 40  1  0  0  0  0
 39 37  1  0  0  0  0
 40 42  2  0  0  0  0
 41 40  1  0  0  0  0
 42 36  1  0  0  0  0
M  END
>  <minimizedAffinity>
-5.17057133

>  <minimizedRMSD>
0.163111642

$$$$
