
 OpenBabel03242516383D

 18 19  0  0  0  0  0  0  0  0999 V2000
   45.1880   35.5440   43.5690 C   0  0  0  0  0  0  0  0  0  0  0  0
   46.3660   35.0830   42.9610 C   0  0  0  0  0  0  0  0  0  0  0  0
   47.1200   34.0650   43.5560 C   0  0  0  0  0  0  0  0  0  0  0  0
   46.6280   33.5890   44.7200 N   0  0  0  0  0  0  0  0  0  0  0  0
   45.5060   34.0320   45.2930 C   0  0  0  0  0  0  0  0  0  0  0  0
   44.7990   35.0010   44.7150 N   0  0  0  0  0  0  0  0  0  0  0  0
   44.4630   36.5850   42.9120 N   0  0  0  0  0  0  0  0  0  0  0  0
   46.7020   35.5030   42.0360 H   0  0  0  0  0  0  0  0  0  0  0  0
   45.2050   33.5780   46.2280 H   0  0  0  0  0  0  0  0  0  0  0  0
   44.6290   36.8070   41.9160 H   0  0  0  0  0  0  0  0  0  0  0  0
   43.7550   37.1020   43.5100 H   0  0  0  0  0  0  0  0  0  0  0  0
   48.3650   33.5550   42.9450 C   0  0  0  0  0  0  0  0  0  0  0  0
   48.4100   32.2740   42.4470 C   0  0  0  0  0  0  0  0  0  0  0  0
   47.6850   31.4300   42.3740 H   0  0  0  0  0  0  0  0  0  0  0  0
   50.1070   32.1370   41.8260 S   0  0  0  0  0  0  0  0  0  0  0  0
   50.5000   33.8860   42.3520 C   0  0  0  0  0  0  0  0  0  0  0  0
   51.3860   34.7810   42.3910 H   0  0  0  0  0  0  0  0  0  0  0  0
   49.4630   34.2420   42.8340 N   0  0  0  0  0  0  0  0  0  0  0  0
  1  6  1  0  0  0  0
  2  3  1  0  0  0  0
  2  1  2  0  0  0  0
  3  4  2  0  0  0  0
  4  5  1  0  0  0  0
  5  9  1  0  0  0  0
  6  5  2  0  0  0  0
  7 11  1  0  0  0  0
  7  1  1  0  0  0  0
  8  2  1  0  0  0  0
 10  7  1  0  0  0  0
 12  3  1  0  0  0  0
 13 12  2  0  0  0  0
 14 13  1  0  0  0  0
 15 16  1  0  0  0  0
 15 13  1  0  0  0  0
 16 17  1  0  0  0  0
 16 18  2  0  0  0  0
 18 12  1  0  0  0  0
M  END
>  <minimizedAffinity>
-3.99282479

>  <minimizedRMSD>
1.00098217

$$$$
