
 OpenBabel03252509043D

 46 48  0  0  1  0  0  0  0  0999 V2000
   46.7290   34.3720   43.4830 N   0  0  0  0  0  0  0  0  0  0  0  0
   46.4570   34.9400   42.2230 C   0  0  0  0  0  0  0  0  0  0  0  0
   44.9920   34.9630   41.8430 C   0  0  0  0  0  0  0  0  0  0  0  0
   44.0710   35.2120   43.0130 C   0  0  0  0  0  0  0  0  0  0  0  0
   44.8300   35.4100   44.3060 C   0  0  0  0  0  0  0  0  0  0  0  0
   45.7330   34.1230   44.4010 C   0  0  2  0  0  0  0  0  0  0  0  0
   47.0070   34.5380   41.3740 H   0  0  0  0  0  0  0  0  0  0  0  0
   46.7580   36.0280   42.2810 H   0  0  0  0  0  0  0  0  0  0  0  0
   44.8180   35.6520   41.0030 H   0  0  0  0  0  0  0  0  0  0  0  0
   44.7630   33.9410   41.4600 H   0  0  0  0  0  0  0  0  0  0  0  0
   43.3130   34.4500   43.1730 H   0  0  0  0  0  0  0  0  0  0  0  0
   43.5580   36.1820   42.8110 H   0  0  0  0  0  0  0  0  0  0  0  0
   45.4810   36.2900   44.2470 H   0  0  0  0  0  0  0  0  0  0  0  0
   44.1130   35.4060   45.1340 H   0  0  0  0  0  0  0  0  0  0  0  0
   45.0330   33.2990   44.2030 H   0  0  0  0  0  0  0  0  0  0  0  0
   47.9120   33.5450   43.5170 C   0  0  0  0  0  0  0  0  0  0  0  0
   48.1500   33.2840   44.5470 H   0  0  0  0  0  0  0  0  0  0  0  0
   48.7580   34.1600   43.1290 H   0  0  0  0  0  0  0  0  0  0  0  0
   47.6790   32.3390   42.6840 C   0  0  0  0  0  0  0  0  0  0  0  0
   47.4930   31.4550   43.3050 H   0  0  0  0  0  0  0  0  0  0  0  0
   46.7800   32.4570   42.0260 H   0  0  0  0  0  0  0  0  0  0  0  0
   51.2130   32.1870   41.4290 C   0  0  0  0  0  0  0  0  0  0  0  0
   50.0990   32.3960   42.2500 C   0  0  0  0  0  0  0  0  0  0  0  0
   48.8490   32.1090   41.7960 C   0  0  0  0  0  0  0  0  0  0  0  0
   48.7340   31.6270   40.5520 N   0  0  0  0  0  0  0  0  0  0  0  0
   49.7970   31.4210   39.7540 C   0  0  0  0  0  0  0  0  0  0  0  0
   51.0410   31.6940   40.1740 N   0  0  0  0  0  0  0  0  0  0  0  0
   52.2150   32.3930   41.7310 H   0  0  0  0  0  0  0  0  0  0  0  0
   50.3140   32.7890   43.2360 H   0  0  0  0  0  0  0  0  0  0  0  0
   49.5300   31.0320   38.7910 H   0  0  0  0  0  0  0  0  0  0  0  0
   46.1780   34.1820   45.7080 O   0  0  0  0  0  0  0  0  0  0  0  0
   45.6210   31.5910   45.5670 O   0  0  0  0  0  0  0  0  0  0  0  0
   46.0510   32.7280   46.5200 P   0  0  2  0  0  0  0  0  0  0  0  0
   44.7270   32.8870   47.5950 O   0  0  0  0  0  0  0  0  0  0  0  0
   45.0190   32.7720   48.5320 H   0  0  0  0  0  0  0  0  0  0  0  0
   47.4020   32.3210   47.3920 O   0  0  0  0  0  0  0  0  0  0  0  0
   47.6310   30.9610   47.2850 C   0  0  0  0  0  0  0  0  0  0  0  0
   46.7060   30.3780   47.3810 H   0  0  0  0  0  0  0  0  0  0  0  0
   48.0720   30.7220   46.2800 H   0  0  0  0  0  0  0  0  0  0  0  0
   48.5950   30.4780   48.3400 C   0  0  0  0  0  0  0  0  0  0  0  0
   49.0380   31.3830   49.3850 C   0  0  0  0  0  0  0  0  0  0  0  0
   48.7120   32.4140   49.4560 H   0  0  0  0  0  0  0  0  0  0  0  0
   50.1530   30.2930   50.3470 S   0  0  0  0  0  0  0  0  0  0  0  0
   49.8420   28.8310   49.2050 C   0  0  0  0  0  0  0  0  0  0  0  0
   50.2640   27.8300   49.2780 H   0  0  0  0  0  0  0  0  0  0  0  0
   49.0730   29.2500   48.3760 N   0  0  0  0  0  0  0  0  0  0  0  0
  1 16  1  0  0  0  0
  1  6  1  0  0  0  0
  2  8  1  0  0  0  0
  2  1  1  0  0  0  0
  3  2  1  0  0  0  0
  3  4  1  0  0  0  0
  4 11  1  0  0  0  0
  4  5  1  0  0  0  0
  5  6  1  0  0  0  0
  5 14  1  0  0  0  0
  6 15  1  6  0  0  0
  6 31  1  0  0  0  0
  7  2  1  0  0  0  0
  9  3  1  0  0  0  0
 10  3  1  0  0  0  0
 12  4  1  0  0  0  0
 13  5  1  0  0  0  0
 16 17  1  0  0  0  0
 18 16  1  0  0  0  0
 19 20  1  0  0  0  0
 19 16  1  0  0  0  0
 21 19  1  0  0  0  0
 22 28  1  0  0  0  0
 22 23  1  0  0  0  0
 23 29  1  0  0  0  0
 24 23  2  0  0  0  0
 24 19  1  0  0  0  0
 25 24  1  0  0  0  0
 26 27  1  0  0  0  0
 26 25  2  0  0  0  0
 27 22  2  0  0  0  0
 30 26  1  0  0  0  0
 31 33  1  0  0  0  0
 33 32  2  6  0  0  0
 33 36  1  0  0  0  0
 33 34  1  0  0  0  0
 34 35  1  0  0  0  0
 37 38  1  0  0  0  0
 37 36  1  0  0  0  0
 37 40  1  0  0  0  0
 39 37  1  0  0  0  0
 40 46  1  0  0  0  0
 40 41  2  0  0  0  0
 41 42  1  0  0  0  0
 41 43  1  0  0  0  0
 44 45  1  0  0  0  0
 44 43  1  0  0  0  0
 46 44  2  0  0  0  0
M  END
>  <minimizedAffinity>
-4.81410885

>  <minimizedRMSD>
2.8436718

$$$$
