
 OpenBabel03252503193D

 37 40  0  0  0  0  0  0  0  0999 V2000
   45.6890   33.8090   43.2890 C   0  0  0  0  0  0  0  0  0  0  0  0
   46.5490   33.1980   44.1610 C   0  0  0  0  0  0  0  0  0  0  0  0
   46.1610   33.5980   45.3980 N   0  0  0  0  0  0  0  0  0  0  0  0
   45.1120   34.4160   45.2740 C   0  0  0  0  0  0  0  0  0  0  0  0
   44.8210   34.5460   43.9760 N   0  0  0  0  0  0  0  0  0  0  0  0
   44.3550   35.0880   46.2730 N   0  0  0  0  0  0  0  0  0  0  0  0
   47.3550   32.5440   43.9230 H   0  0  0  0  0  0  0  0  0  0  0  0
   44.7190   36.0540   46.5080 H   0  0  0  0  0  0  0  0  0  0  0  0
   43.5110   34.6540   46.7300 H   0  0  0  0  0  0  0  0  0  0  0  0
   46.7370   33.2410   46.6740 C   0  0  0  0  0  0  0  0  0  0  0  0
   47.8270   32.9860   46.5310 H   0  0  0  0  0  0  0  0  0  0  0  0
   46.7530   34.1340   47.3300 H   0  0  0  0  0  0  0  0  0  0  0  0
   46.0590   32.0670   47.3080 C   0  0  0  0  0  0  0  0  0  0  0  0
   46.0210   30.7810   46.6640 C   0  0  0  0  0  0  0  0  0  0  0  0
   46.4530   30.5720   45.7260 H   0  0  0  0  0  0  0  0  0  0  0  0
   45.0980   29.7990   47.8730 S   0  0  0  0  0  0  0  0  0  0  0  0
   44.9110   31.2810   49.0520 C   0  0  0  0  0  0  0  0  0  0  0  0
   44.3960   31.2420   50.0120 H   0  0  0  0  0  0  0  0  0  0  0  0
   45.4530   32.1060   48.4840 N   0  0  0  0  0  0  0  0  0  0  0  0
   45.6820   33.6990   41.7880 C   0  0  0  0  0  0  0  0  0  0  0  0
   46.0170   34.6200   40.9980 O   0  0  0  0  0  0  0  0  0  0  0  0
   46.0820   31.3370   41.2880 C   0  0  0  0  0  0  0  0  0  0  0  0
   45.2750   32.4820   41.1760 C   0  0  0  0  0  0  0  0  0  0  0  0
   44.1160   32.2970   40.4470 C   0  0  0  0  0  0  0  0  0  0  0  0
   43.7760   31.1350   39.8910 N   0  0  0  0  0  0  0  0  0  0  0  0
   44.5990   30.0540   40.0330 C   0  0  0  0  0  0  0  0  0  0  0  0
   45.7350   30.1670   40.7260 N   0  0  0  0  0  0  0  0  0  0  0  0
   47.0210   31.3790   41.8450 H   0  0  0  0  0  0  0  0  0  0  0  0
   44.3330   29.1060   39.5850 H   0  0  0  0  0  0  0  0  0  0  0  0
   43.2430   33.4160   40.2850 C   0  0  0  0  0  0  0  0  0  0  0  0
   43.0350   34.3630   39.3380 C   0  0  0  0  0  0  0  0  0  0  0  0
   42.1360   35.3110   39.4440 C   0  0  0  0  0  0  0  0  0  0  0  0
   41.4140   35.2930   40.5720 C   0  0  0  0  0  0  0  0  0  0  0  0
   42.0370   33.8730   41.5200 S   0  0  0  0  0  0  0  0  0  0  0  0
   43.7080   34.2460   38.4620 H   0  0  0  0  0  0  0  0  0  0  0  0
   41.9310   36.0870   38.7180 H   0  0  0  0  0  0  0  0  0  0  0  0
   40.5590   36.0250   40.9030 H   0  0  0  0  0  0  0  0  0  0  0  0
  1  5  1  0  0  0  0
  1  2  2  0  0  0  0
  2  3  1  0  0  0  0
  3 10  1  0  0  0  0
  4  3  1  0  0  0  0
  4  6  1  0  0  0  0
  5  4  2  0  0  0  0
  6  8  1  0  0  0  0
  6  9  1  0  0  0  0
  7  2  1  0  0  0  0
 10 13  1  0  0  0  0
 10 12  1  0  0  0  0
 11 10  1  0  0  0  0
 13 19  1  0  0  0  0
 14 13  2  0  0  0  0
 14 16  1  0  0  0  0
 15 14  1  0  0  0  0
 16 17  1  0  0  0  0
 17 18  1  0  0  0  0
 19 17  2  0  0  0  0
 20  1  1  0  0  0  0
 21 20  2  0  0  0  0
 22 28  1  0  0  0  0
 23 22  1  0  0  0  0
 23 20  1  0  0  0  0
 24 23  2  0  0  0  0
 25 26  2  0  0  0  0
 25 24  1  0  0  0  0
 26 27  1  0  0  0  0
 27 22  2  0  0  0  0
 29 26  1  0  0  0  0
 30 24  1  0  0  0  0
 30 34  1  0  0  0  0
 31 32  1  0  0  0  0
 31 30  2  0  0  0  0
 32 33  2  0  0  0  0
 33 37  1  0  0  0  0
 33 34  1  0  0  0  0
 35 31  1  0  0  0  0
 36 32  1  0  0  0  0
M  END
>  <minimizedAffinity>
-4.92802429

>  <minimizedRMSD>
7.69687796

$$$$
