
 OpenBabel03252509043D

 46 48  0  0  1  0  0  0  0  0999 V2000
   46.8910   34.4330   43.2830 N   0  0  0  0  0  0  0  0  0  0  0  0
   46.5590   34.8720   41.9870 C   0  0  0  0  0  0  0  0  0  0  0  0
   45.1280   34.5980   41.5740 C   0  0  0  0  0  0  0  0  0  0  0  0
   44.1400   34.7320   42.7080 C   0  0  0  0  0  0  0  0  0  0  0  0
   44.8070   35.1380   44.0030 C   0  0  0  0  0  0  0  0  0  0  0  0
   45.9310   34.0510   44.1920 C   0  0  2  0  0  0  0  0  0  0  0  0
   47.2000   34.5340   41.1740 H   0  0  0  0  0  0  0  0  0  0  0  0
   46.6490   35.9980   41.9860 H   0  0  0  0  0  0  0  0  0  0  0  0
   44.8550   35.1960   40.6930 H   0  0  0  0  0  0  0  0  0  0  0  0
   45.1050   33.5320   41.2480 H   0  0  0  0  0  0  0  0  0  0  0  0
   43.5320   33.8510   42.8970 H   0  0  0  0  0  0  0  0  0  0  0  0
   43.4620   35.5770   42.4390 H   0  0  0  0  0  0  0  0  0  0  0  0
   45.2840   36.1210   43.9070 H   0  0  0  0  0  0  0  0  0  0  0  0
   44.0780   35.0450   44.8150 H   0  0  0  0  0  0  0  0  0  0  0  0
   45.4030   33.1010   44.0290 H   0  0  0  0  0  0  0  0  0  0  0  0
   48.2060   33.8460   43.3900 C   0  0  0  0  0  0  0  0  0  0  0  0
   48.5780   33.9580   44.4080 H   0  0  0  0  0  0  0  0  0  0  0  0
   48.8850   34.4290   42.7240 H   0  0  0  0  0  0  0  0  0  0  0  0
   48.1300   32.4200   42.9870 C   0  0  0  0  0  0  0  0  0  0  0  0
   48.2990   31.7540   43.8420 H   0  0  0  0  0  0  0  0  0  0  0  0
   47.1190   32.1580   42.5790 H   0  0  0  0  0  0  0  0  0  0  0  0
   51.4010   31.9750   41.2030 C   0  0  0  0  0  0  0  0  0  0  0  0
   50.4510   32.2280   42.1990 C   0  0  0  0  0  0  0  0  0  0  0  0
   49.1230   32.1470   41.9150 C   0  0  0  0  0  0  0  0  0  0  0  0
   48.7720   31.8220   40.6640 N   0  0  0  0  0  0  0  0  0  0  0  0
   49.6770   31.5770   39.6990 C   0  0  0  0  0  0  0  0  0  0  0  0
   50.9920   31.6480   39.9490 N   0  0  0  0  0  0  0  0  0  0  0  0
   52.4540   32.0230   41.3680 H   0  0  0  0  0  0  0  0  0  0  0  0
   50.8520   32.4810   43.1730 H   0  0  0  0  0  0  0  0  0  0  0  0
   49.2290   31.3320   38.7560 H   0  0  0  0  0  0  0  0  0  0  0  0
   46.3150   34.2630   45.5030 O   0  0  0  0  0  0  0  0  0  0  0  0
   45.6010   31.7120   45.6720 O   0  0  0  0  0  0  0  0  0  0  0  0
   46.0920   32.9300   46.4850 P   0  0  2  0  0  0  0  0  0  0  0  0
   44.7710   33.3000   47.5110 O   0  0  0  0  0  0  0  0  0  0  0  0
   45.0470   33.2840   48.4590 H   0  0  0  0  0  0  0  0  0  0  0  0
   47.4070   32.5540   47.4220 O   0  0  0  0  0  0  0  0  0  0  0  0
   47.5140   31.1790   47.5420 C   0  0  0  0  0  0  0  0  0  0  0  0
   46.5800   30.7220   47.8880 H   0  0  0  0  0  0  0  0  0  0  0  0
   47.7570   30.7230   46.5440 H   0  0  0  0  0  0  0  0  0  0  0  0
   48.6070   30.7920   48.5060 C   0  0  0  0  0  0  0  0  0  0  0  0
   49.0720   29.4160   48.5600 C   0  0  0  0  0  0  0  0  0  0  0  0
   48.6700   28.6290   47.9360 H   0  0  0  0  0  0  0  0  0  0  0  0
   50.3610   29.5310   49.8570 S   0  0  0  0  0  0  0  0  0  0  0  0
   50.0640   31.3730   50.1040 C   0  0  0  0  0  0  0  0  0  0  0  0
   50.5730   32.0400   50.7980 H   0  0  0  0  0  0  0  0  0  0  0  0
   49.1870   31.6470   49.3230 N   0  0  0  0  0  0  0  0  0  0  0  0
  1 16  1  0  0  0  0
  1  6  1  0  0  0  0
  2  1  1  0  0  0  0
  3  2  1  0  0  0  0
  3  4  1  0  0  0  0
  4 11  1  0  0  0  0
  4  5  1  0  0  0  0
  5  6  1  0  0  0  0
  5 14  1  0  0  0  0
  6 15  1  6  0  0  0
  6 31  1  0  0  0  0
  7  2  1  0  0  0  0
  8  2  1  0  0  0  0
  9  3  1  0  0  0  0
 10  3  1  0  0  0  0
 12  4  1  0  0  0  0
 13  5  1  0  0  0  0
 16 17  1  0  0  0  0
 18 16  1  0  0  0  0
 19 16  1  0  0  0  0
 19 20  1  0  0  0  0
 21 19  1  0  0  0  0
 22 28  1  0  0  0  0
 22 23  1  0  0  0  0
 23 29  1  0  0  0  0
 24 23  2  0  0  0  0
 24 19  1  0  0  0  0
 25 24  1  0  0  0  0
 26 27  1  0  0  0  0
 26 25  2  0  0  0  0
 27 22  2  0  0  0  0
 30 26  1  0  0  0  0
 31 33  1  0  0  0  0
 33 32  2  6  0  0  0
 33 36  1  0  0  0  0
 33 34  1  0  0  0  0
 34 35  1  0  0  0  0
 36 37  1  0  0  0  0
 37 38  1  0  0  0  0
 37 40  1  0  0  0  0
 39 37  1  0  0  0  0
 40 41  2  0  0  0  0
 40 46  1  0  0  0  0
 41 43  1  0  0  0  0
 42 41  1  0  0  0  0
 43 44  1  0  0  0  0
 44 45  1  0  0  0  0
 46 44  2  0  0  0  0
M  END
>  <minimizedAffinity>
-4.80705214

>  <minimizedRMSD>
2.97072029

$$$$
