
 OpenBabel03252508593D

 43 45  0  0  1  0  0  0  0  0999 V2000
   46.6590   34.5260   43.5700 N   0  0  0  0  0  0  0  0  0  0  0  0
   46.1940   35.5660   42.7220 C   0  0  0  0  0  0  0  0  0  0  0  0
   44.6940   35.7590   42.7110 C   0  0  0  0  0  0  0  0  0  0  0  0
   44.0060   35.4430   44.0110 C   0  0  0  0  0  0  0  0  0  0  0  0
   45.0120   35.1280   45.0950 C   0  0  0  0  0  0  0  0  0  0  0  0
   45.8200   33.9220   44.4910 C   0  0  2  0  0  0  0  0  0  0  0  0
   46.5220   35.5130   41.6780 H   0  0  0  0  0  0  0  0  0  0  0  0
   46.6460   36.5120   43.1300 H   0  0  0  0  0  0  0  0  0  0  0  0
   44.2300   35.2020   41.8560 H   0  0  0  0  0  0  0  0  0  0  0  0
   44.4910   36.8300   42.4940 H   0  0  0  0  0  0  0  0  0  0  0  0
   43.4210   34.5120   43.8500 H   0  0  0  0  0  0  0  0  0  0  0  0
   43.2850   36.2240   44.3050 H   0  0  0  0  0  0  0  0  0  0  0  0
   45.6640   36.0010   45.2000 H   0  0  0  0  0  0  0  0  0  0  0  0
   44.5020   34.8020   46.0060 H   0  0  0  0  0  0  0  0  0  0  0  0
   45.0660   33.2090   44.1010 H   0  0  0  0  0  0  0  0  0  0  0  0
   47.7460   33.7670   43.0280 C   0  0  0  0  0  0  0  0  0  0  0  0
   48.3450   33.3170   43.8470 H   0  0  0  0  0  0  0  0  0  0  0  0
   48.4100   34.4740   42.4760 H   0  0  0  0  0  0  0  0  0  0  0  0
   47.2000   32.7090   42.1260 C   0  0  0  0  0  0  0  0  0  0  0  0
   47.3520   31.6890   42.4870 H   0  0  0  0  0  0  0  0  0  0  0  0
   46.0920   32.8500   41.9810 H   0  0  0  0  0  0  0  0  0  0  0  0
   49.2600   32.0990   39.0420 C   0  0  0  0  0  0  0  0  0  0  0  0
   48.6980   31.9470   40.3230 C   0  0  0  0  0  0  0  0  0  0  0  0
   47.7880   32.8780   40.7710 C   0  0  0  0  0  0  0  0  0  0  0  0
   47.4790   33.8950   39.9500 N   0  0  0  0  0  0  0  0  0  0  0  0
   48.0210   34.0310   38.7290 C   0  0  0  0  0  0  0  0  0  0  0  0
   48.9130   33.1400   38.2610 N   0  0  0  0  0  0  0  0  0  0  0  0
   49.9800   31.3530   38.7000 H   0  0  0  0  0  0  0  0  0  0  0  0
   49.0200   31.0890   40.8980 H   0  0  0  0  0  0  0  0  0  0  0  0
   47.6430   34.9110   38.2270 H   0  0  0  0  0  0  0  0  0  0  0  0
   46.5130   33.4650   45.6020 O   0  0  0  0  0  0  0  0  0  0  0  0
   45.5860   31.1280   44.7400 O   0  0  0  0  0  0  0  0  0  0  0  0
   46.2140   31.8470   45.9390 P   0  0  2  0  0  0  0  0  0  0  0  0
   44.9980   31.8310   47.1430 O   0  0  0  0  0  0  0  0  0  0  0  0
   45.1770   32.5430   47.8010 H   0  0  0  0  0  0  0  0  0  0  0  0
   47.5470   31.0660   46.5420 O   0  0  0  0  0  0  0  0  0  0  0  0
   47.6050   29.7240   46.8860 C   0  0  0  0  0  0  0  0  0  0  0  0
   46.5910   28.7210   46.6420 C   0  0  0  0  0  0  0  0  0  0  0  0
   45.6560   29.1090   46.1070 H   0  0  0  0  0  0  0  0  0  0  0  0
   47.4110   27.1900   47.3920 S   0  0  0  0  0  0  0  0  0  0  0  0
   48.9310   28.2230   47.8700 C   0  0  0  0  0  0  0  0  0  0  0  0
   49.7330   27.6750   48.3800 H   0  0  0  0  0  0  0  0  0  0  0  0
   48.7130   29.3270   47.5060 N   0  0  0  0  0  0  0  0  0  0  0  0
  1  6  1  0  0  0  0
  2  8  1  0  0  0  0
  2  1  1  0  0  0  0
  3  2  1  0  0  0  0
  3  4  1  0  0  0  0
  4 12  1  0  0  0  0
  4  5  1  0  0  0  0
  5 13  1  0  0  0  0
  5 14  1  0  0  0  0
  6 15  1  6  0  0  0
  6  5  1  0  0  0  0
  6 31  1  0  0  0  0
  7  2  1  0  0  0  0
  9  3  1  0  0  0  0
 10  3  1  0  0  0  0
 11  4  1  0  0  0  0
 16  1  1  0  0  0  0
 16 17  1  0  0  0  0
 18 16  1  0  0  0  0
 19 20  1  0  0  0  0
 19 16  1  0  0  0  0
 21 19  1  0  0  0  0
 22 23  1  0  0  0  0
 23 24  2  0  0  0  0
 23 29  1  0  0  0  0
 24 19  1  0  0  0  0
 25 24  1  0  0  0  0
 26 25  2  0  0  0  0
 27 26  1  0  0  0  0
 27 22  2  0  0  0  0
 28 22  1  0  0  0  0
 30 26  1  0  0  0  0
 31 33  1  0  0  0  0
 33 32  2  6  0  0  0
 33 36  1  0  0  0  0
 33 34  1  0  0  0  0
 34 35  1  0  0  0  0
 36 37  1  0  0  0  0
 37 43  1  0  0  0  0
 38 37  2  0  0  0  0
 38 40  1  0  0  0  0
 39 38  1  0  0  0  0
 40 41  1  0  0  0  0
 41 42  1  0  0  0  0
 43 41  2  0  0  0  0
M  END
>  <minimizedAffinity>
-4.18538141

>  <minimizedRMSD>
0.954357505

$$$$
