
 OpenBabel03242517483D

 41 44  0  0  0  0  0  0  0  0999 V2000
   38.5530   31.7890   41.2320 C   0  0  0  0  0  0  0  0  0  0  0  0
   39.9240   31.5920   40.9560 C   0  0  0  0  0  0  0  0  0  0  0  0
   40.3310   30.3360   40.5760 C   0  0  0  0  0  0  0  0  0  0  0  0
   39.4100   29.3560   40.4850 N   0  0  0  0  0  0  0  0  0  0  0  0
   38.1030   29.5640   40.7520 C   0  0  0  0  0  0  0  0  0  0  0  0
   37.6430   30.7660   41.1290 N   0  0  0  0  0  0  0  0  0  0  0  0
   38.1600   32.7480   41.5360 H   0  0  0  0  0  0  0  0  0  0  0  0
   41.3790   30.1680   40.3600 H   0  0  0  0  0  0  0  0  0  0  0  0
   37.1510   28.4290   40.6280 C   0  0  0  0  0  0  0  0  0  0  0  0
   37.7040   27.4600   40.6540 H   0  0  0  0  0  0  0  0  0  0  0  0
   36.4100   28.4060   41.4560 H   0  0  0  0  0  0  0  0  0  0  0  0
   36.4210   28.4490   39.3000 C   0  0  0  0  0  0  0  0  0  0  0  0
   37.0040   27.8740   38.5500 H   0  0  0  0  0  0  0  0  0  0  0  0
   36.3250   29.5150   39.0000 H   0  0  0  0  0  0  0  0  0  0  0  0
   35.0820   27.8410   39.5080 C   0  0  0  0  0  0  0  0  0  0  0  0
   34.9820   26.4690   39.9430 C   0  0  0  0  0  0  0  0  0  0  0  0
   35.8530   25.8070   40.1430 H   0  0  0  0  0  0  0  0  0  0  0  0
   33.1260   26.2050   40.0460 S   0  0  0  0  0  0  0  0  0  0  0  0
   32.8550   27.9990   39.4820 C   0  0  0  0  0  0  0  0  0  0  0  0
   31.8960   28.6690   39.2810 H   0  0  0  0  0  0  0  0  0  0  0  0
   33.8890   28.4230   39.3370 N   0  0  0  0  0  0  0  0  0  0  0  0
   41.0580   32.9440   41.1050 S   0  0  0  0  0  0  0  0  0  0  0  0
   40.9560   33.9920   39.6820 C   0  0  0  0  0  0  0  0  0  0  0  0
   39.8700   34.0190   38.8220 C   0  0  0  0  0  0  0  0  0  0  0  0
   39.8580   34.8680   37.7230 C   0  0  0  0  0  0  0  0  0  0  0  0
   40.9160   35.6990   37.4640 C   0  0  0  0  0  0  0  0  0  0  0  0
   41.9980   35.6740   38.3190 C   0  0  0  0  0  0  0  0  0  0  0  0
   42.0390   34.8340   39.4280 C   0  0  0  0  0  0  0  0  0  0  0  0
   39.0420   33.3770   39.0130 H   0  0  0  0  0  0  0  0  0  0  0  0
   39.0320   34.9190   37.0270 H   0  0  0  0  0  0  0  0  0  0  0  0
   40.9570   36.3760   36.6270 H   0  0  0  0  0  0  0  0  0  0  0  0
   42.8770   36.3040   38.1820 H   0  0  0  0  0  0  0  0  0  0  0  0
   43.1760   34.8190   40.3130 C   0  0  0  0  0  0  0  0  0  0  0  0
   44.2800   34.0260   40.1530 C   0  0  0  0  0  0  0  0  0  0  0  0
   45.3670   34.0390   41.0350 C   0  0  0  0  0  0  0  0  0  0  0  0
   45.3350   34.8630   42.0900 N   0  0  0  0  0  0  0  0  0  0  0  0
   44.2520   35.6440   42.2530 C   0  0  0  0  0  0  0  0  0  0  0  0
   43.2060   35.6210   41.3910 N   0  0  0  0  0  0  0  0  0  0  0  0
   44.3250   33.3510   39.3040 H   0  0  0  0  0  0  0  0  0  0  0  0
   46.2290   33.4250   40.9160 H   0  0  0  0  0  0  0  0  0  0  0  0
   44.1120   36.3520   43.0710 H   0  0  0  0  0  0  0  0  0  0  0  0
  1  7  1  0  0  0  0
  2 22  1  0  0  0  0
  2  1  2  0  0  0  0
  3  2  1  0  0  0  0
  4  3  2  0  0  0  0
  4  5  1  0  0  0  0
  5  6  2  0  0  0  0
  6  1  1  0  0  0  0
  8  3  1  0  0  0  0
  9 10  1  0  0  0  0
  9  5  1  0  0  0  0
  9 11  1  0  0  0  0
 12 15  1  0  0  0  0
 12  9  1  0  0  0  0
 13 12  1  0  0  0  0
 14 12  1  0  0  0  0
 15 16  2  0  0  0  0
 16 18  1  0  0  0  0
 16 17  1  0  0  0  0
 19 18  1  0  0  0  0
 20 19  1  0  0  0  0
 21 19  2  0  0  0  0
 21 15  1  0  0  0  0
 23 22  1  0  0  0  0
 24 29  1  0  0  0  0
 24 23  2  0  0  0  0
 25 24  1  0  0  0  0
 26 25  2  0  0  0  0
 26 27  1  0  0  0  0
 27 28  2  0  0  0  0
 28 23  1  0  0  0  0
 28 33  1  0  0  0  0
 30 25  1  0  0  0  0
 31 26  1  0  0  0  0
 32 27  1  0  0  0  0
 33 38  1  0  0  0  0
 34 33  2  0  0  0  0
 34 35  1  0  0  0  0
 35 36  2  0  0  0  0
 36 37  1  0  0  0  0
 37 41  1  0  0  0  0
 38 37  2  0  0  0  0
 39 34  1  0  0  0  0
 40 35  1  0  0  0  0
M  END
>  <minimizedAffinity>
-5.47733879

>  <minimizedRMSD>
0.522604764

$$$$
