
 OpenBabel03242513053D

 33 36  0  0  0  0  0  0  0  0999 V2000
   36.9630   27.7830   39.7450 C   0  0  0  0  0  0  0  0  0  0  0  0
   36.9470   27.2270   41.0280 C   0  0  0  0  0  0  0  0  0  0  0  0
   37.2420   28.0760   42.0810 C   0  0  0  0  0  0  0  0  0  0  0  0
   37.5240   29.3790   41.7900 N   0  0  0  0  0  0  0  0  0  0  0  0
   37.5350   29.8910   40.5560 C   0  0  0  0  0  0  0  0  0  0  0  0
   37.2520   29.0870   39.5210 N   0  0  0  0  0  0  0  0  0  0  0  0
   36.7580   27.2530   38.8450 H   0  0  0  0  0  0  0  0  0  0  0  0
   36.9730   32.1240   39.7130 C   0  0  0  0  0  0  0  0  0  0  0  0
   37.8490   31.2890   40.3570 C   0  0  0  0  0  0  0  0  0  0  0  0
   39.0920   31.7310   40.8590 C   0  0  0  0  0  0  0  0  0  0  0  0
   39.4670   33.0610   40.7070 C   0  0  0  0  0  0  0  0  0  0  0  0
   40.5350   33.8250   41.0400 N   0  0  0  0  0  0  0  0  0  0  0  0
   40.2930   35.0990   40.5990 C   0  0  0  0  0  0  0  0  0  0  0  0
   39.0850   35.0990   40.0020 N   0  0  0  0  0  0  0  0  0  0  0  0
   38.5540   33.8660   40.0520 C   0  0  0  0  0  0  0  0  0  0  0  0
   37.3290   33.4620   39.5500 C   0  0  0  0  0  0  0  0  0  0  0  0
   36.0520   31.7060   39.3650 H   0  0  0  0  0  0  0  0  0  0  0  0
   39.7790   31.0730   41.3640 H   0  0  0  0  0  0  0  0  0  0  0  0
   41.3430   33.4210   41.5420 H   0  0  0  0  0  0  0  0  0  0  0  0
   41.0140   35.8820   40.7570 H   0  0  0  0  0  0  0  0  0  0  0  0
   36.6570   34.1200   39.0510 H   0  0  0  0  0  0  0  0  0  0  0  0
   37.2410   27.5530   43.4660 C   0  0  0  0  0  0  0  0  0  0  0  0
   37.3260   28.6140   44.3870 F   0  0  0  0  0  0  0  0  0  0  0  0
   36.0560   26.9130   43.7390 F   0  0  0  0  0  0  0  0  0  0  0  0
   38.3160   26.7220   43.6140 F   0  0  0  0  0  0  0  0  0  0  0  0
   36.6510   25.9120   41.1930 O   0  0  0  0  0  0  0  0  0  0  0  0
   37.4830   24.9180   40.7280 C   0  0  0  0  0  0  0  0  0  0  0  0
   36.6060   23.8100   40.6810 C   0  0  0  0  0  0  0  0  0  0  0  0
   35.5550   23.3370   40.8370 H   0  0  0  0  0  0  0  0  0  0  0  0
   37.6690   22.4490   40.0630 S   0  0  0  0  0  0  0  0  0  0  0  0
   39.1450   23.6180   39.9700 C   0  0  0  0  0  0  0  0  0  0  0  0
   40.3090   23.8630   39.7260 H   0  0  0  0  0  0  0  0  0  0  0  0
   38.6750   24.5660   40.3290 N   0  0  0  0  0  0  0  0  0  0  0  0
  1  2  1  0  0  0  0
  2 26  1  0  0  0  0
  2  3  2  0  0  0  0
  3 22  1  0  0  0  0
  4  3  1  0  0  0  0
  5  4  2  0  0  0  0
  6  1  2  0  0  0  0
  6  5  1  0  0  0  0
  7  1  1  0  0  0  0
  8  9  1  0  0  0  0
  9  5  1  0  0  0  0
  9 10  2  0  0  0  0
 10 18  1  0  0  0  0
 11 10  1  0  0  0  0
 11 12  1  0  0  0  0
 12 19  1  0  0  0  0
 13 20  1  0  0  0  0
 13 12  1  0  0  0  0
 14 15  1  0  0  0  0
 14 13  2  0  0  0  0
 15 11  2  0  0  0  0
 16  8  2  0  0  0  0
 16 15  1  0  0  0  0
 17  8  1  0  0  0  0
 21 16  1  0  0  0  0
 22 25  1  0  0  0  0
 22 24  1  0  0  0  0
 22 23  1  0  0  0  0
 27 26  1  0  0  0  0
 28 27  2  0  0  0  0
 28 29  1  0  0  0  0
 30 28  1  0  0  0  0
 31 30  1  0  0  0  0
 31 33  2  0  0  0  0
 32 31  1  0  0  0  0
 33 27  1  0  0  0  0
M  END
>  <minimizedAffinity>
-6.48427963

$$$$

 OpenBabel03242513053D

 33 36  0  0  0  0  0  0  0  0999 V2000
   37.2740   26.9230   40.7900 C   0  0  0  0  0  0  0  0  0  0  0  0
   38.2070   26.4750   41.7290 C   0  0  0  0  0  0  0  0  0  0  0  0
   39.0480   27.4280   42.2780 C   0  0  0  0  0  0  0  0  0  0  0  0
   38.9040   28.7200   41.8650 N   0  0  0  0  0  0  0  0  0  0  0  0
   38.0040   29.1270   40.9640 C   0  0  0  0  0  0  0  0  0  0  0  0
   37.1800   28.2220   40.4190 N   0  0  0  0  0  0  0  0  0  0  0  0
   36.5660   26.3060   40.2870 H   0  0  0  0  0  0  0  0  0  0  0  0
   37.0160   30.9670   39.6790 C   0  0  0  0  0  0  0  0  0  0  0  0
   37.9360   30.5240   40.5940 C   0  0  0  0  0  0  0  0  0  0  0  0
   38.8590   31.3870   41.2240 C   0  0  0  0  0  0  0  0  0  0  0  0
   38.8570   32.7440   40.9210 C   0  0  0  0  0  0  0  0  0  0  0  0
   39.5590   33.8370   41.3030 N   0  0  0  0  0  0  0  0  0  0  0  0
   39.0600   34.9150   40.6220 C   0  0  0  0  0  0  0  0  0  0  0  0
   38.0620   34.4710   39.8340 N   0  0  0  0  0  0  0  0  0  0  0  0
   37.9130   33.1460   39.9940 C   0  0  0  0  0  0  0  0  0  0  0  0
   36.9960   32.3240   39.3610 C   0  0  0  0  0  0  0  0  0  0  0  0
   36.3530   30.2460   39.2500 H   0  0  0  0  0  0  0  0  0  0  0  0
   39.5810   31.0360   41.9430 H   0  0  0  0  0  0  0  0  0  0  0  0
   40.3210   33.7640   41.9980 H   0  0  0  0  0  0  0  0  0  0  0  0
   39.4720   35.8990   40.7710 H   0  0  0  0  0  0  0  0  0  0  0  0
   36.2870   32.6800   38.6520 H   0  0  0  0  0  0  0  0  0  0  0  0
   40.0590   27.0220   43.2800 C   0  0  0  0  0  0  0  0  0  0  0  0
   40.8650   25.9880   42.7680 F   0  0  0  0  0  0  0  0  0  0  0  0
   40.9120   28.0640   43.5530 F   0  0  0  0  0  0  0  0  0  0  0  0
   39.4070   26.5890   44.4010 F   0  0  0  0  0  0  0  0  0  0  0  0
   38.2560   25.1580   42.0620 O   0  0  0  0  0  0  0  0  0  0  0  0
   38.0440   24.1680   41.1290 C   0  0  0  0  0  0  0  0  0  0  0  0
   39.2920   24.1320   40.4630 C   0  0  0  0  0  0  0  0  0  0  0  0
   40.3800   24.5170   40.3190 H   0  0  0  0  0  0  0  0  0  0  0  0
   39.0650   22.8200   39.2000 S   0  0  0  0  0  0  0  0  0  0  0  0
   37.2970   22.5340   39.7890 C   0  0  0  0  0  0  0  0  0  0  0  0
   36.2240   21.9670   39.7340 H   0  0  0  0  0  0  0  0  0  0  0  0
   37.2330   23.2870   40.6120 N   0  0  0  0  0  0  0  0  0  0  0  0
  1  2  1  0  0  0  0
  2 26  1  0  0  0  0
  2  3  2  0  0  0  0
  3 22  1  0  0  0  0
  4  3  1  0  0  0  0
  5  4  2  0  0  0  0
  6  1  2  0  0  0  0
  6  5  1  0  0  0  0
  7  1  1  0  0  0  0
  8  9  1  0  0  0  0
  9  5  1  0  0  0  0
  9 10  2  0  0  0  0
 10 18  1  0  0  0  0
 11 10  1  0  0  0  0
 11 12  1  0  0  0  0
 12 19  1  0  0  0  0
 13 20  1  0  0  0  0
 13 12  1  0  0  0  0
 14 15  1  0  0  0  0
 14 13  2  0  0  0  0
 15 11  2  0  0  0  0
 16  8  2  0  0  0  0
 16 15  1  0  0  0  0
 17  8  1  0  0  0  0
 21 16  1  0  0  0  0
 22 24  1  0  0  0  0
 22 25  1  0  0  0  0
 23 22  1  0  0  0  0
 27 26  1  0  0  0  0
 28 27  2  0  0  0  0
 29 28  1  0  0  0  0
 30 31  1  0  0  0  0
 30 28  1  0  0  0  0
 31 33  2  0  0  0  0
 32 31  1  0  0  0  0
 33 27  1  0  0  0  0
M  END
>  <minimizedAffinity>
-5.82015657

$$$$

 OpenBabel03242513053D

 33 36  0  0  0  0  0  0  0  0999 V2000
   37.5610   30.5660   40.9370 C   0  0  0  0  0  0  0  0  0  0  0  0
   37.2300   29.4420   41.7000 C   0  0  0  0  0  0  0  0  0  0  0  0
   38.1820   28.9930   42.5990 C   0  0  0  0  0  0  0  0  0  0  0  0
   39.3620   29.6750   42.6710 N   0  0  0  0  0  0  0  0  0  0  0  0
   39.6590   30.7470   41.9320 C   0  0  0  0  0  0  0  0  0  0  0  0
   38.7520   31.2000   41.0550 N   0  0  0  0  0  0  0  0  0  0  0  0
   36.9300   31.0200   40.2090 H   0  0  0  0  0  0  0  0  0  0  0  0
   41.8190   31.0030   43.0660 C   0  0  0  0  0  0  0  0  0  0  0  0
   40.9430   31.3970   42.0870 C   0  0  0  0  0  0  0  0  0  0  0  0
   41.2310   32.4420   41.1830 C   0  0  0  0  0  0  0  0  0  0  0  0
   42.4440   33.1160   41.2680 C   0  0  0  0  0  0  0  0  0  0  0  0
   43.0540   34.1290   40.6070 N   0  0  0  0  0  0  0  0  0  0  0  0
   44.2770   34.3320   41.1870 C   0  0  0  0  0  0  0  0  0  0  0  0
   44.4010   33.4450   42.1940 N   0  0  0  0  0  0  0  0  0  0  0  0
   43.2960   32.6860   42.2680 C   0  0  0  0  0  0  0  0  0  0  0  0
   43.0410   31.6650   43.1680 C   0  0  0  0  0  0  0  0  0  0  0  0
   41.5200   30.2020   43.7080 H   0  0  0  0  0  0  0  0  0  0  0  0
   40.5410   32.7490   40.4150 H   0  0  0  0  0  0  0  0  0  0  0  0
   42.5900   34.6010   39.8120 H   0  0  0  0  0  0  0  0  0  0  0  0
   44.9410   35.0960   40.8200 H   0  0  0  0  0  0  0  0  0  0  0  0
   43.7290   31.3690   43.9240 H   0  0  0  0  0  0  0  0  0  0  0  0
   37.8950   27.8090   43.4390 C   0  0  0  0  0  0  0  0  0  0  0  0
   37.4360   26.7450   42.6410 F   0  0  0  0  0  0  0  0  0  0  0  0
   39.0440   27.3570   44.0420 F   0  0  0  0  0  0  0  0  0  0  0  0
   36.9380   28.1500   44.3540 F   0  0  0  0  0  0  0  0  0  0  0  0
   36.0190   28.8460   41.5380 O   0  0  0  0  0  0  0  0  0  0  0  0
   35.4330   28.7230   40.2980 C   0  0  0  0  0  0  0  0  0  0  0  0
   36.1740   27.6560   39.7370 C   0  0  0  0  0  0  0  0  0  0  0  0
   37.0120   26.8520   39.8060 H   0  0  0  0  0  0  0  0  0  0  0  0
   35.4300   27.4470   38.0730 S   0  0  0  0  0  0  0  0  0  0  0  0
   34.2250   28.8570   38.4140 C   0  0  0  0  0  0  0  0  0  0  0  0
   33.3120   29.5910   38.0960 H   0  0  0  0  0  0  0  0  0  0  0  0
   34.5340   29.1410   39.4500 N   0  0  0  0  0  0  0  0  0  0  0  0
  1  6  2  0  0  0  0
  1  2  1  0  0  0  0
  2  3  2  0  0  0  0
  3  4  1  0  0  0  0
  3 22  1  0  0  0  0
  5  9  1  0  0  0  0
  5  4  2  0  0  0  0
  6  5  1  0  0  0  0
  7  1  1  0  0  0  0
  8 16  1  0  0  0  0
  8 17  1  0  0  0  0
  9  8  2  0  0  0  0
 10 11  2  0  0  0  0
 10  9  1  0  0  0  0
 11 15  1  0  0  0  0
 12 13  1  0  0  0  0
 12 11  1  0  0  0  0
 13 14  2  0  0  0  0
 14 15  1  0  0  0  0
 15 16  2  0  0  0  0
 16 21  1  0  0  0  0
 18 10  1  0  0  0  0
 19 12  1  0  0  0  0
 20 13  1  0  0  0  0
 22 24  1  0  0  0  0
 22 25  1  0  0  0  0
 23 22  1  0  0  0  0
 26  2  1  0  0  0  0
 27 26  1  0  0  0  0
 28 29  1  0  0  0  0
 28 27  2  0  0  0  0
 30 31  1  0  0  0  0
 30 28  1  0  0  0  0
 31 33  2  0  0  0  0
 32 31  1  0  0  0  0
 33 27  1  0  0  0  0
M  END
>  <minimizedAffinity>
-5.68766403

$$$$

 OpenBabel03242513053D

 33 36  0  0  0  0  0  0  0  0999 V2000
   39.8390   31.4820   41.8380 C   0  0  0  0  0  0  0  0  0  0  0  0
   39.2650   32.2120   40.7930 C   0  0  0  0  0  0  0  0  0  0  0  0
   38.2470   31.5950   40.0860 C   0  0  0  0  0  0  0  0  0  0  0  0
   37.8850   30.3330   40.4590 N   0  0  0  0  0  0  0  0  0  0  0  0
   38.4480   29.6530   41.4610 C   0  0  0  0  0  0  0  0  0  0  0  0
   39.4360   30.2310   42.1600 N   0  0  0  0  0  0  0  0  0  0  0  0
   40.6280   31.8270   42.4650 H   0  0  0  0  0  0  0  0  0  0  0  0
   37.1260   28.0930   42.8150 C   0  0  0  0  0  0  0  0  0  0  0  0
   37.9890   28.3170   41.7740 C   0  0  0  0  0  0  0  0  0  0  0  0
   38.4770   27.2770   40.9540 C   0  0  0  0  0  0  0  0  0  0  0  0
   38.0830   25.9650   41.1900 C   0  0  0  0  0  0  0  0  0  0  0  0
   38.3280   24.7510   40.6420 N   0  0  0  0  0  0  0  0  0  0  0  0
   37.6170   23.8190   41.3500 C   0  0  0  0  0  0  0  0  0  0  0  0
   36.9480   24.4720   42.3210 N   0  0  0  0  0  0  0  0  0  0  0  0
   37.2120   25.7860   42.2490 C   0  0  0  0  0  0  0  0  0  0  0  0
   36.7170   26.7850   43.0700 C   0  0  0  0  0  0  0  0  0  0  0  0
   36.8050   28.9390   43.3860 H   0  0  0  0  0  0  0  0  0  0  0  0
   39.1560   27.4550   40.1360 H   0  0  0  0  0  0  0  0  0  0  0  0
   38.9590   24.6520   39.8280 H   0  0  0  0  0  0  0  0  0  0  0  0
   37.6610   22.7760   41.0870 H   0  0  0  0  0  0  0  0  0  0  0  0
   36.0470   26.5990   43.8760 H   0  0  0  0  0  0  0  0  0  0  0  0
   37.5940   32.3110   38.9680 C   0  0  0  0  0  0  0  0  0  0  0  0
   36.4840   31.5800   38.5020 F   0  0  0  0  0  0  0  0  0  0  0  0
   37.0960   33.5190   39.3940 F   0  0  0  0  0  0  0  0  0  0  0  0
   38.5060   32.4620   37.9600 F   0  0  0  0  0  0  0  0  0  0  0  0
   39.7120   33.4640   40.5150 O   0  0  0  0  0  0  0  0  0  0  0  0
   41.0560   33.7550   40.4450 C   0  0  0  0  0  0  0  0  0  0  0  0
   41.3120   33.5890   39.0640 C   0  0  0  0  0  0  0  0  0  0  0  0
   40.9550   33.3340   37.9860 H   0  0  0  0  0  0  0  0  0  0  0  0
   43.1010   33.9650   38.9120 S   0  0  0  0  0  0  0  0  0  0  0  0
   43.2090   34.2880   40.7670 C   0  0  0  0  0  0  0  0  0  0  0  0
   43.8210   34.5890   41.7720 H   0  0  0  0  0  0  0  0  0  0  0  0
   42.1500   34.1000   41.0670 N   0  0  0  0  0  0  0  0  0  0  0  0
  1  6  1  0  0  0  0
  1  7  1  0  0  0  0
  2  1  2  0  0  0  0
  3  4  2  0  0  0  0
  3  2  1  0  0  0  0
  4  5  1  0  0  0  0
  5  9  1  0  0  0  0
  5  6  2  0  0  0  0
  8 16  1  0  0  0  0
  8 17  1  0  0  0  0
  9  8  2  0  0  0  0
 10 11  2  0  0  0  0
 10  9  1  0  0  0  0
 11 15  1  0  0  0  0
 12 11  1  0  0  0  0
 12 13  1  0  0  0  0
 13 14  2  0  0  0  0
 15 14  1  0  0  0  0
 15 16  2  0  0  0  0
 16 21  1  0  0  0  0
 18 10  1  0  0  0  0
 19 12  1  0  0  0  0
 20 13  1  0  0  0  0
 22 24  1  0  0  0  0
 22  3  1  0  0  0  0
 23 22  1  0  0  0  0
 25 22  1  0  0  0  0
 26  2  1  0  0  0  0
 27 26  1  0  0  0  0
 27 33  1  0  0  0  0
 28 27  2  0  0  0  0
 29 28  1  0  0  0  0
 30 28  1  0  0  0  0
 30 31  1  0  0  0  0
 31 33  2  0  0  0  0
 31 32  1  0  0  0  0
M  END
>  <minimizedAffinity>
-5.64622688

$$$$

 OpenBabel03242513053D

 33 36  0  0  0  0  0  0  0  0999 V2000
   37.6090   28.1930   39.5790 C   0  0  0  0  0  0  0  0  0  0  0  0
   37.3770   27.6840   40.8600 C   0  0  0  0  0  0  0  0  0  0  0  0
   37.6690   28.5160   41.9270 C   0  0  0  0  0  0  0  0  0  0  0  0
   38.1590   29.7590   41.6500 N   0  0  0  0  0  0  0  0  0  0  0  0
   38.3740   30.2270   40.4170 C   0  0  0  0  0  0  0  0  0  0  0  0
   38.0980   29.4380   39.3690 N   0  0  0  0  0  0  0  0  0  0  0  0
   37.4310   27.6690   38.6690 H   0  0  0  0  0  0  0  0  0  0  0  0
   38.2060   32.6600   40.6810 C   0  0  0  0  0  0  0  0  0  0  0  0
   38.8980   31.5640   40.2340 C   0  0  0  0  0  0  0  0  0  0  0  0
   40.1440   31.6660   39.5790 C   0  0  0  0  0  0  0  0  0  0  0  0
   40.7130   32.9160   39.3650 C   0  0  0  0  0  0  0  0  0  0  0  0
   41.8450   33.3960   38.7960 N   0  0  0  0  0  0  0  0  0  0  0  0
   41.8240   34.7600   38.9060 C   0  0  0  0  0  0  0  0  0  0  0  0
   40.6830   35.0990   39.5370 N   0  0  0  0  0  0  0  0  0  0  0  0
   39.9810   33.9920   39.8310 C   0  0  0  0  0  0  0  0  0  0  0  0
   38.7590   33.9230   40.4770 C   0  0  0  0  0  0  0  0  0  0  0  0
   37.2690   32.4920   41.1680 H   0  0  0  0  0  0  0  0  0  0  0  0
   40.6860   30.8030   39.2290 H   0  0  0  0  0  0  0  0  0  0  0  0
   42.5440   32.7570   38.3800 H   0  0  0  0  0  0  0  0  0  0  0  0
   42.6320   35.3570   38.5190 H   0  0  0  0  0  0  0  0  0  0  0  0
   38.2310   34.7810   40.8190 H   0  0  0  0  0  0  0  0  0  0  0  0
   37.4460   28.0400   43.3100 C   0  0  0  0  0  0  0  0  0  0  0  0
   36.1190   27.5970   43.4650 F   0  0  0  0  0  0  0  0  0  0  0  0
   38.2390   26.9500   43.5780 F   0  0  0  0  0  0  0  0  0  0  0  0
   37.6930   29.0750   44.1680 F   0  0  0  0  0  0  0  0  0  0  0  0
   36.8860   26.4250   41.0100 O   0  0  0  0  0  0  0  0  0  0  0  0
   37.2490   25.4010   40.1640 C   0  0  0  0  0  0  0  0  0  0  0  0
   38.2960   24.7880   40.8920 C   0  0  0  0  0  0  0  0  0  0  0  0
   38.9820   24.7240   41.8290 H   0  0  0  0  0  0  0  0  0  0  0  0
   38.8210   23.4070   39.8050 S   0  0  0  0  0  0  0  0  0  0  0  0
   37.5220   23.8940   38.5280 C   0  0  0  0  0  0  0  0  0  0  0  0
   36.9460   23.7440   37.4690 H   0  0  0  0  0  0  0  0  0  0  0  0
   37.0600   24.7760   39.0350 N   0  0  0  0  0  0  0  0  0  0  0  0
  1  2  1  0  0  0  0
  2 26  1  0  0  0  0
  2  3  2  0  0  0  0
  3 22  1  0  0  0  0
  4  3  1  0  0  0  0
  5  4  2  0  0  0  0
  6  1  2  0  0  0  0
  6  5  1  0  0  0  0
  7  1  1  0  0  0  0
  8 17  1  0  0  0  0
  9  5  1  0  0  0  0
  9  8  2  0  0  0  0
 10  9  1  0  0  0  0
 11 10  2  0  0  0  0
 11 15  1  0  0  0  0
 12 13  1  0  0  0  0
 12 11  1  0  0  0  0
 13 14  2  0  0  0  0
 14 15  1  0  0  0  0
 15 16  2  0  0  0  0
 16  8  1  0  0  0  0
 16 21  1  0  0  0  0
 18 10  1  0  0  0  0
 19 12  1  0  0  0  0
 20 13  1  0  0  0  0
 22 23  1  0  0  0  0
 22 24  1  0  0  0  0
 22 25  1  0  0  0  0
 27 28  2  0  0  0  0
 27 26  1  0  0  0  0
 28 29  1  0  0  0  0
 30 28  1  0  0  0  0
 31 33  2  0  0  0  0
 31 30  1  0  0  0  0
 32 31  1  0  0  0  0
 33 27  1  0  0  0  0
M  END
>  <minimizedAffinity>
-5.56875324

$$$$

 OpenBabel03242513053D

 33 36  0  0  0  0  0  0  0  0999 V2000
   41.0640   30.9320   41.4910 C   0  0  0  0  0  0  0  0  0  0  0  0
   40.3660   32.0400   41.0020 C   0  0  0  0  0  0  0  0  0  0  0  0
   39.0040   31.8870   40.8110 C   0  0  0  0  0  0  0  0  0  0  0  0
   38.4500   30.6760   41.1120 N   0  0  0  0  0  0  0  0  0  0  0  0
   39.1360   29.6290   41.5790 C   0  0  0  0  0  0  0  0  0  0  0  0
   40.4570   29.7550   41.7710 N   0  0  0  0  0  0  0  0  0  0  0  0
   42.1110   30.9040   41.6850 H   0  0  0  0  0  0  0  0  0  0  0  0
   37.4650   28.3300   42.8180 C   0  0  0  0  0  0  0  0  0  0  0  0
   38.4500   28.3880   41.8660 C   0  0  0  0  0  0  0  0  0  0  0  0
   38.8510   27.2610   41.1170 C   0  0  0  0  0  0  0  0  0  0  0  0
   38.2400   26.0310   41.3350 C   0  0  0  0  0  0  0  0  0  0  0  0
   38.3500   24.7770   40.8350 N   0  0  0  0  0  0  0  0  0  0  0  0
   37.4400   23.9860   41.4830 C   0  0  0  0  0  0  0  0  0  0  0  0
   36.7860   24.7620   42.3700 N   0  0  0  0  0  0  0  0  0  0  0  0
   37.2530   26.0190   42.3030 C   0  0  0  0  0  0  0  0  0  0  0  0
   36.8380   27.1070   43.0520 C   0  0  0  0  0  0  0  0  0  0  0  0
   37.2230   29.2320   43.3390 H   0  0  0  0  0  0  0  0  0  0  0  0
   39.6250   27.3090   40.3700 H   0  0  0  0  0  0  0  0  0  0  0  0
   39.0340   24.5580   40.0910 H   0  0  0  0  0  0  0  0  0  0  0  0
   37.3500   22.9400   41.2430 H   0  0  0  0  0  0  0  0  0  0  0  0
   36.0730   27.0490   43.7890 H   0  0  0  0  0  0  0  0  0  0  0  0
   38.2040   33.0210   40.2970 C   0  0  0  0  0  0  0  0  0  0  0  0
   38.5010   34.1930   41.0160 F   0  0  0  0  0  0  0  0  0  0  0  0
   38.5320   33.2880   38.9900 F   0  0  0  0  0  0  0  0  0  0  0  0
   36.8790   32.7140   40.4380 F   0  0  0  0  0  0  0  0  0  0  0  0
   41.0290   33.1960   40.7370 O   0  0  0  0  0  0  0  0  0  0  0  0
   41.7030   33.3890   39.5520 C   0  0  0  0  0  0  0  0  0  0  0  0
   43.0060   33.6960   40.0110 C   0  0  0  0  0  0  0  0  0  0  0  0
   43.7670   33.8610   40.8750 H   0  0  0  0  0  0  0  0  0  0  0  0
   43.9530   33.9640   38.4640 S   0  0  0  0  0  0  0  0  0  0  0  0
   42.4120   33.6130   37.4370 C   0  0  0  0  0  0  0  0  0  0  0  0
   41.8290   33.4950   36.3770 H   0  0  0  0  0  0  0  0  0  0  0  0
   41.6690   33.4120   38.2480 N   0  0  0  0  0  0  0  0  0  0  0  0
  1  7  1  0  0  0  0
  1  6  1  0  0  0  0
  2  1  2  0  0  0  0
  3  2  1  0  0  0  0
  3  4  2  0  0  0  0
  4  5  1  0  0  0  0
  5  6  2  0  0  0  0
  5  9  1  0  0  0  0
  8 16  1  0  0  0  0
  8 17  1  0  0  0  0
  9  8  2  0  0  0  0
 10 11  2  0  0  0  0
 10  9  1  0  0  0  0
 11 15  1  0  0  0  0
 12 11  1  0  0  0  0
 12 13  1  0  0  0  0
 13 14  2  0  0  0  0
 15 14  1  0  0  0  0
 15 16  2  0  0  0  0
 16 21  1  0  0  0  0
 18 10  1  0  0  0  0
 19 12  1  0  0  0  0
 20 13  1  0  0  0  0
 22 25  1  0  0  0  0
 22  3  1  0  0  0  0
 22 23  1  0  0  0  0
 24 22  1  0  0  0  0
 26  2  1  0  0  0  0
 27 28  2  0  0  0  0
 27 26  1  0  0  0  0
 28 29  1  0  0  0  0
 30 28  1  0  0  0  0
 31 33  2  0  0  0  0
 31 30  1  0  0  0  0
 32 31  1  0  0  0  0
 33 27  1  0  0  0  0
M  END
>  <minimizedAffinity>
-5.52401638

$$$$

 OpenBabel03242513053D

 33 36  0  0  0  0  0  0  0  0999 V2000
   37.4310   28.9960   41.5610 C   0  0  0  0  0  0  0  0  0  0  0  0
   37.5960   27.6770   41.9930 C   0  0  0  0  0  0  0  0  0  0  0  0
   37.0510   26.6850   41.1970 C   0  0  0  0  0  0  0  0  0  0  0  0
   36.3980   27.0660   40.0610 N   0  0  0  0  0  0  0  0  0  0  0  0
   36.2500   28.3340   39.6650 C   0  0  0  0  0  0  0  0  0  0  0  0
   36.7700   29.3120   40.4220 N   0  0  0  0  0  0  0  0  0  0  0  0
   37.7950   29.8580   42.0690 H   0  0  0  0  0  0  0  0  0  0  0  0
   36.2130   28.8650   37.2720 C   0  0  0  0  0  0  0  0  0  0  0  0
   35.5380   28.6300   38.4420 C   0  0  0  0  0  0  0  0  0  0  0  0
   34.1290   28.6600   38.5260 C   0  0  0  0  0  0  0  0  0  0  0  0
   33.3730   28.9380   37.3940 C   0  0  0  0  0  0  0  0  0  0  0  0
   32.0570   29.0510   37.0930 N   0  0  0  0  0  0  0  0  0  0  0  0
   31.9540   29.3490   35.7610 C   0  0  0  0  0  0  0  0  0  0  0  0
   33.2040   29.4150   35.2630 N   0  0  0  0  0  0  0  0  0  0  0  0
   34.0950   29.1680   36.2370 C   0  0  0  0  0  0  0  0  0  0  0  0
   35.4740   29.1440   36.1230 C   0  0  0  0  0  0  0  0  0  0  0  0
   37.2810   28.8210   37.2960 H   0  0  0  0  0  0  0  0  0  0  0  0
   33.6010   28.4760   39.4470 H   0  0  0  0  0  0  0  0  0  0  0  0
   31.3320   28.9160   37.8190 H   0  0  0  0  0  0  0  0  0  0  0  0
   30.9910   29.4840   35.3000 H   0  0  0  0  0  0  0  0  0  0  0  0
   35.9870   29.3290   35.2090 H   0  0  0  0  0  0  0  0  0  0  0  0
   37.1910   25.2670   41.5950 C   0  0  0  0  0  0  0  0  0  0  0  0
   36.5730   24.4310   40.6450 F   0  0  0  0  0  0  0  0  0  0  0  0
   38.5140   24.9000   41.6140 F   0  0  0  0  0  0  0  0  0  0  0  0
   36.5970   25.1000   42.8150 F   0  0  0  0  0  0  0  0  0  0  0  0
   38.2670   27.4210   43.1470 O   0  0  0  0  0  0  0  0  0  0  0  0
   39.6270   27.6130   43.2510 C   0  0  0  0  0  0  0  0  0  0  0  0
   40.0150   26.4920   44.0220 C   0  0  0  0  0  0  0  0  0  0  0  0
   39.7580   25.5130   44.5950 H   0  0  0  0  0  0  0  0  0  0  0  0
   41.8300   26.6990   44.1930 S   0  0  0  0  0  0  0  0  0  0  0  0
   41.7630   28.2890   43.1820 C   0  0  0  0  0  0  0  0  0  0  0  0
   42.2840   29.2540   42.6610 H   0  0  0  0  0  0  0  0  0  0  0  0
   40.6680   28.3450   42.9650 N   0  0  0  0  0  0  0  0  0  0  0  0
  1  2  1  0  0  0  0
  1  7  1  0  0  0  0
  2 26  1  0  0  0  0
  3 22  1  0  0  0  0
  3  2  2  0  0  0  0
  4  3  1  0  0  0  0
  5  4  2  0  0  0  0
  5  6  1  0  0  0  0
  6  1  2  0  0  0  0
  8 17  1  0  0  0  0
  8  9  1  0  0  0  0
  9 10  2  0  0  0  0
  9  5  1  0  0  0  0
 10 18  1  0  0  0  0
 11 10  1  0  0  0  0
 12 11  1  0  0  0  0
 12 19  1  0  0  0  0
 13 12  1  0  0  0  0
 14 13  2  0  0  0  0
 14 15  1  0  0  0  0
 15 11  2  0  0  0  0
 16 15  1  0  0  0  0
 16  8  2  0  0  0  0
 20 13  1  0  0  0  0
 21 16  1  0  0  0  0
 22 24  1  0  0  0  0
 22 25  1  0  0  0  0
 23 22  1  0  0  0  0
 26 27  1  0  0  0  0
 27 28  2  0  0  0  0
 28 30  1  0  0  0  0
 28 29  1  0  0  0  0
 31 30  1  0  0  0  0
 32 31  1  0  0  0  0
 33 31  2  0  0  0  0
 33 27  1  0  0  0  0
M  END
>  <minimizedAffinity>
-5.47322559

$$$$

 OpenBabel03242513053D

 33 36  0  0  0  0  0  0  0  0999 V2000
   40.0720   31.0710   40.6360 C   0  0  0  0  0  0  0  0  0  0  0  0
   40.1030   32.4690   40.6430 C   0  0  0  0  0  0  0  0  0  0  0  0
   38.9610   33.1220   40.2130 C   0  0  0  0  0  0  0  0  0  0  0  0
   37.9010   32.3590   39.8180 N   0  0  0  0  0  0  0  0  0  0  0  0
   37.8920   31.0230   39.8170 C   0  0  0  0  0  0  0  0  0  0  0  0
   38.9880   30.3690   40.2300 N   0  0  0  0  0  0  0  0  0  0  0  0
   40.8740   30.4390   40.9380 H   0  0  0  0  0  0  0  0  0  0  0  0
   35.7860   29.8540   40.2780 C   0  0  0  0  0  0  0  0  0  0  0  0
   36.7140   30.3090   39.3760 C   0  0  0  0  0  0  0  0  0  0  0  0
   36.5810   30.1150   37.9850 C   0  0  0  0  0  0  0  0  0  0  0  0
   35.4760   29.4380   37.4820 C   0  0  0  0  0  0  0  0  0  0  0  0
   35.0200   29.0710   36.2600 N   0  0  0  0  0  0  0  0  0  0  0  0
   33.8350   28.4070   36.4360 C   0  0  0  0  0  0  0  0  0  0  0  0
   33.5820   28.3740   37.7590 N   0  0  0  0  0  0  0  0  0  0  0  0
   34.5670   28.9970   38.4260 C   0  0  0  0  0  0  0  0  0  0  0  0
   34.6700   29.1720   39.7950 C   0  0  0  0  0  0  0  0  0  0  0  0
   35.9640   30.0450   41.3150 H   0  0  0  0  0  0  0  0  0  0  0  0
   37.3110   30.4740   37.2780 H   0  0  0  0  0  0  0  0  0  0  0  0
   35.5490   29.3030   35.4030 H   0  0  0  0  0  0  0  0  0  0  0  0
   33.2890   28.0230   35.5920 H   0  0  0  0  0  0  0  0  0  0  0  0
   33.9430   28.8140   40.4850 H   0  0  0  0  0  0  0  0  0  0  0  0
   38.9250   34.6010   40.1970 C   0  0  0  0  0  0  0  0  0  0  0  0
   37.7340   35.0530   39.5970 F   0  0  0  0  0  0  0  0  0  0  0  0
   38.9120   35.0970   41.4780 F   0  0  0  0  0  0  0  0  0  0  0  0
   40.0020   35.0520   39.4860 F   0  0  0  0  0  0  0  0  0  0  0  0
   41.2200   33.1200   41.0600 O   0  0  0  0  0  0  0  0  0  0  0  0
   42.4510   32.8850   40.4880 C   0  0  0  0  0  0  0  0  0  0  0  0
   43.0730   34.1490   40.6190 C   0  0  0  0  0  0  0  0  0  0  0  0
   43.0570   35.2600   40.9640 H   0  0  0  0  0  0  0  0  0  0  0  0
   44.7270   33.8920   39.8690 S   0  0  0  0  0  0  0  0  0  0  0  0
   44.2990   32.0940   39.4960 C   0  0  0  0  0  0  0  0  0  0  0  0
   44.5660   30.9950   39.0540 H   0  0  0  0  0  0  0  0  0  0  0  0
   43.2600   32.0440   39.9030 N   0  0  0  0  0  0  0  0  0  0  0  0
  1  2  1  0  0  0  0
  1  7  1  0  0  0  0
  2 26  1  0  0  0  0
  3  2  2  0  0  0  0
  4  3  1  0  0  0  0
  5  4  2  0  0  0  0
  5  6  1  0  0  0  0
  6  1  2  0  0  0  0
  8 17  1  0  0  0  0
  9  5  1  0  0  0  0
  9  8  2  0  0  0  0
 10  9  1  0  0  0  0
 11 10  2  0  0  0  0
 11 15  1  0  0  0  0
 12 13  1  0  0  0  0
 12 11  1  0  0  0  0
 13 14  2  0  0  0  0
 14 15  1  0  0  0  0
 15 16  2  0  0  0  0
 16  8  1  0  0  0  0
 16 21  1  0  0  0  0
 18 10  1  0  0  0  0
 19 12  1  0  0  0  0
 20 13  1  0  0  0  0
 22  3  1  0  0  0  0
 22 24  1  0  0  0  0
 23 22  1  0  0  0  0
 25 22  1  0  0  0  0
 27 28  2  0  0  0  0
 27 26  1  0  0  0  0
 28 29  1  0  0  0  0
 30 28  1  0  0  0  0
 31 30  1  0  0  0  0
 31 33  2  0  0  0  0
 32 31  1  0  0  0  0
 33 27  1  0  0  0  0
M  END
>  <minimizedAffinity>
-5.43483925

$$$$

 OpenBabel03242513053D

 33 36  0  0  0  0  0  0  0  0999 V2000
   39.8130   28.9590   40.7950 C   0  0  0  0  0  0  0  0  0  0  0  0
   39.2300   28.5700   42.0040 C   0  0  0  0  0  0  0  0  0  0  0  0
   37.8720   28.3000   41.9860 C   0  0  0  0  0  0  0  0  0  0  0  0
   37.2120   28.4330   40.7990 N   0  0  0  0  0  0  0  0  0  0  0  0
   37.7880   28.8070   39.6530 C   0  0  0  0  0  0  0  0  0  0  0  0
   39.1020   29.0740   39.6480 N   0  0  0  0  0  0  0  0  0  0  0  0
   40.8420   29.1980   40.6590 H   0  0  0  0  0  0  0  0  0  0  0  0
   35.6390   29.1150   38.5130 C   0  0  0  0  0  0  0  0  0  0  0  0
   36.9940   28.9190   38.4490 C   0  0  0  0  0  0  0  0  0  0  0  0
   37.6910   28.8140   37.2260 C   0  0  0  0  0  0  0  0  0  0  0  0
   36.9980   28.9100   36.0240 C   0  0  0  0  0  0  0  0  0  0  0  0
   37.3050   28.8610   34.7060 N   0  0  0  0  0  0  0  0  0  0  0  0
   36.1460   29.0270   33.9980 C   0  0  0  0  0  0  0  0  0  0  0  0
   35.1450   29.1750   34.8880 N   0  0  0  0  0  0  0  0  0  0  0  0
   35.6340   29.1090   36.1360 C   0  0  0  0  0  0  0  0  0  0  0  0
   34.9250   29.2160   37.3200 C   0  0  0  0  0  0  0  0  0  0  0  0
   35.1920   29.1840   39.4820 H   0  0  0  0  0  0  0  0  0  0  0  0
   38.7560   28.6590   37.1780 H   0  0  0  0  0  0  0  0  0  0  0  0
   38.2810   28.7190   34.3920 H   0  0  0  0  0  0  0  0  0  0  0  0
   36.1520   29.0230   32.9210 H   0  0  0  0  0  0  0  0  0  0  0  0
   33.8720   29.3680   37.3570 H   0  0  0  0  0  0  0  0  0  0  0  0
   37.1910   27.8810   43.2310 C   0  0  0  0  0  0  0  0  0  0  0  0
   37.7490   26.6820   43.7130 F   0  0  0  0  0  0  0  0  0  0  0  0
   37.3870   28.8110   44.2230 F   0  0  0  0  0  0  0  0  0  0  0  0
   35.8640   27.6990   42.9580 F   0  0  0  0  0  0  0  0  0  0  0  0
   39.9920   28.4730   43.1250 O   0  0  0  0  0  0  0  0  0  0  0  0
   41.2270   27.8630   43.1090 C   0  0  0  0  0  0  0  0  0  0  0  0
   40.8820   26.5160   43.3700 C   0  0  0  0  0  0  0  0  0  0  0  0
   40.0890   25.6920   43.5860 H   0  0  0  0  0  0  0  0  0  0  0  0
   42.4990   25.6510   43.3610 S   0  0  0  0  0  0  0  0  0  0  0  0
   43.3870   27.2740   43.0020 C   0  0  0  0  0  0  0  0  0  0  0  0
   44.3890   27.9290   42.7950 H   0  0  0  0  0  0  0  0  0  0  0  0
   42.5190   27.9770   42.9670 N   0  0  0  0  0  0  0  0  0  0  0  0
  1  2  1  0  0  0  0
  2 26  1  0  0  0  0
  3  2  2  0  0  0  0
  3 22  1  0  0  0  0
  4  3  1  0  0  0  0
  5  4  2  0  0  0  0
  6  5  1  0  0  0  0
  6  1  2  0  0  0  0
  7  1  1  0  0  0  0
  8 17  1  0  0  0  0
  9  8  1  0  0  0  0
  9  5  1  0  0  0  0
 10  9  2  0  0  0  0
 11 15  2  0  0  0  0
 11 10  1  0  0  0  0
 12 11  1  0  0  0  0
 13 12  1  0  0  0  0
 13 14  2  0  0  0  0
 14 15  1  0  0  0  0
 15 16  1  0  0  0  0
 16 21  1  0  0  0  0
 16  8  2  0  0  0  0
 18 10  1  0  0  0  0
 19 12  1  0  0  0  0
 20 13  1  0  0  0  0
 22 23  1  0  0  0  0
 22 24  1  0  0  0  0
 25 22  1  0  0  0  0
 27 26  1  0  0  0  0
 27 28  2  0  0  0  0
 28 29  1  0  0  0  0
 30 28  1  0  0  0  0
 31 30  1  0  0  0  0
 32 31  1  0  0  0  0
 33 31  2  0  0  0  0
 33 27  1  0  0  0  0
M  END
>  <minimizedAffinity>
-5.43190098

$$$$
