
 OpenBabel03252508023D

 40 43  0  0  1  0  0  0  0  0999 V2000
   44.2400   34.3710   41.5570 C   0  0  0  0  0  0  0  0  0  0  0  0
   45.1230   34.2730   40.6320 O   0  0  0  0  0  0  0  0  0  0  0  0
   42.0670   33.2590   41.1580 C   0  0  0  0  0  0  0  0  0  0  0  0
   42.7900   34.4030   41.3290 C   0  0  0  0  0  0  0  0  0  0  0  0
   42.1300   35.6380   41.2670 C   0  0  0  0  0  0  0  0  0  0  0  0
   40.7820   35.7570   41.0410 C   0  0  0  0  0  0  0  0  0  0  0  0
   40.0530   34.6140   40.8720 C   0  0  0  0  0  0  0  0  0  0  0  0
   40.6870   33.4130   40.9300 C   0  0  0  0  0  0  0  0  0  0  0  0
   42.6370   36.5840   41.3820 H   0  0  0  0  0  0  0  0  0  0  0  0
   40.2730   36.7040   40.9940 H   0  0  0  0  0  0  0  0  0  0  0  0
   38.9920   34.5760   40.6900 H   0  0  0  0  0  0  0  0  0  0  0  0
   40.1160   32.4790   40.7940 H   0  0  0  0  0  0  0  0  0  0  0  0
   42.7420   31.7110   41.2640 S   0  0  0  0  0  0  0  0  0  0  0  0
   41.6480   30.8640   40.5870 O   0  0  0  0  0  0  0  0  0  0  0  0
   42.8250   31.2280   42.6720 O   0  0  0  0  0  0  0  0  0  0  0  0
   43.8870   31.0560   40.1760 C   0  0  0  0  0  0  0  0  0  0  0  0
   43.1920   30.6260   38.8350 C   0  0  0  0  0  0  0  0  0  0  0  0
   41.9860   30.6460   38.4790 H   0  0  0  0  0  0  0  0  0  0  0  0
   44.4640   30.0800   37.8640 S   0  0  0  0  0  0  0  0  0  0  0  0
   45.7980   30.3800   39.0930 C   0  0  0  0  0  0  0  0  0  0  0  0
   46.8670   30.2230   39.0500 H   0  0  0  0  0  0  0  0  0  0  0  0
   45.1460   30.8070   39.9660 N   0  0  0  0  0  0  0  0  0  0  0  0
   44.5810   34.4670   42.9450 C   0  0  0  0  0  0  0  0  0  0  0  0
   44.3060   35.7150   43.5760 C   0  0  0  0  0  0  0  0  0  0  0  0
   44.6270   35.8160   44.9190 C   0  0  0  0  0  0  0  0  0  0  0  0
   45.1740   34.7420   45.5470 N   0  0  0  0  0  0  0  0  0  0  0  0
   45.4220   33.5590   44.9000 C   0  0  0  0  0  0  0  0  0  0  0  0
   45.1160   33.4900   43.6580 N   0  0  0  0  0  0  0  0  0  0  0  0
   43.8880   36.5980   43.1750 H   0  0  0  0  0  0  0  0  0  0  0  0
   44.4600   36.7270   45.5050 H   0  0  0  0  0  0  0  0  0  0  0  0
   46.0120   32.4420   45.6620 C   0  0  1  0  0  0  0  0  0  0  0  0
   46.9730   32.7630   46.7890 C   0  0  0  0  0  0  0  0  0  0  0  0
   45.5480   32.3540   47.0730 C   0  0  1  0  0  0  0  0  0  0  0  0
   46.1090   31.4680   45.1560 H   0  0  0  0  0  0  0  0  0  0  0  0
   47.7800   32.0010   46.9250 H   0  0  0  0  0  0  0  0  0  0  0  0
   47.2890   33.8090   46.7990 H   0  0  0  0  0  0  0  0  0  0  0  0
   45.4340   31.3640   47.5560 H   0  0  0  0  0  0  0  0  0  0  0  0
   44.7650   33.4040   47.6550 N   0  0  0  0  0  0  0  0  0  0  0  0
   43.9210   33.0820   48.1470 H   0  0  0  0  0  0  0  0  0  0  0  0
   45.3180   34.1270   48.1550 H   0  0  0  0  0  0  0  0  0  0  0  0
  1 23  1  0  0  0  0
  2  1  2  0  0  0  0
  3 13  1  0  0  0  0
  3  4  1  0  0  0  0
  4  1  1  0  0  0  0
  5  4  2  0  0  0  0
  5  9  1  0  0  0  0
  6  5  1  0  0  0  0
  7  8  1  0  0  0  0
  7  6  2  0  0  0  0
  8  3  2  0  0  0  0
 10  6  1  0  0  0  0
 11  7  1  0  0  0  0
 12  8  1  0  0  0  0
 13 15  2  0  0  0  0
 14 13  2  0  0  0  0
 16 13  1  0  0  0  0
 17 16  2  0  0  0  0
 18 17  1  0  0  0  0
 19 17  1  0  0  0  0
 19 20  1  0  0  0  0
 20 22  2  0  0  0  0
 21 20  1  0  0  0  0
 22 16  1  0  0  0  0
 23 24  2  0  0  0  0
 23 28  1  0  0  0  0
 24 25  1  0  0  0  0
 25 30  1  0  0  0  0
 25 26  2  0  0  0  0
 27 26  1  0  0  0  0
 27 31  1  0  0  0  0
 28 27  2  0  0  0  0
 29 24  1  0  0  0  0
 31 34  1  6  0  0  0
 31 32  1  0  0  0  0
 31 33  1  0  0  0  0
 32 36  1  0  0  0  0
 32 35  1  0  0  0  0
 32 33  1  0  0  0  0
 33 37  1  1  0  0  0
 33 38  1  0  0  0  0
 38 39  1  0  0  0  0
 38 40  1  0  0  0  0
M  END
>  <minimizedAffinity>
-5.70190382

>  <minimizedRMSD>
1.13455534

$$$$
