
 OpenBabel03252506373D

 42 45  0  0  1  0  0  0  0  0999 V2000
   44.5030   35.5550   45.1250 C   0  0  0  0  0  0  0  0  0  0  0  0
   45.1550   35.5360   43.8780 C   0  0  0  0  0  0  0  0  0  0  0  0
   46.0690   34.5660   43.6250 C   0  0  0  0  0  0  0  0  0  0  0  0
   46.2980   33.6650   44.6110 N   0  0  0  0  0  0  0  0  0  0  0  0
   45.6800   33.6890   45.7820 C   0  0  0  0  0  0  0  0  0  0  0  0
   44.7800   34.6280   46.0530 N   0  0  0  0  0  0  0  0  0  0  0  0
   46.0060   32.6820   46.7560 N   0  0  0  0  0  0  0  0  0  0  0  0
   45.2710   32.4430   47.9430 C   0  0  0  0  0  0  0  0  0  0  0  0
   46.3520   32.1150   48.9580 C   0  0  0  0  0  0  0  0  0  0  0  0
   47.6280   31.9840   48.1810 C   0  0  0  0  0  0  0  0  0  0  0  0
   47.1300   31.7680   46.7520 C   0  0  1  0  0  0  0  0  0  0  0  0
   43.7640   36.3330   45.3390 H   0  0  0  0  0  0  0  0  0  0  0  0
   46.5750   34.5340   42.6890 H   0  0  0  0  0  0  0  0  0  0  0  0
   44.4880   31.7680   48.0620 H   0  0  0  0  0  0  0  0  0  0  0  0
   44.8720   33.4510   48.2810 H   0  0  0  0  0  0  0  0  0  0  0  0
   46.5220   32.9250   49.6950 H   0  0  0  0  0  0  0  0  0  0  0  0
   46.1020   31.2090   49.5520 H   0  0  0  0  0  0  0  0  0  0  0  0
   48.2100   31.0960   48.4960 H   0  0  0  0  0  0  0  0  0  0  0  0
   48.2210   32.9270   48.1790 H   0  0  0  0  0  0  0  0  0  0  0  0
   47.9330   32.0840   46.0860 H   0  0  0  0  0  0  0  0  0  0  0  0
   44.8010   36.5630   42.9390 N   0  0  0  0  0  0  0  0  0  0  0  0
   43.8300   36.4660   42.5720 H   0  0  0  0  0  0  0  0  0  0  0  0
   45.4660   37.3290   42.6620 H   0  0  0  0  0  0  0  0  0  0  0  0
   46.6150   30.0790   46.5840 S   0  0  0  0  0  0  0  0  0  0  0  0
   45.8280   30.5470   43.3670 O   0  0  0  0  0  0  0  0  0  0  0  0
   45.1400   30.0060   44.2480 C   0  0  0  0  0  0  0  0  0  0  0  0
   45.1320   29.7800   45.7220 C   0  0  1  0  0  0  0  0  0  0  0  0
   44.5960   28.3770   45.8050 C   0  0  0  0  0  0  0  0  0  0  0  0
   43.3210   28.5890   44.9560 C   0  0  0  0  0  0  0  0  0  0  0  0
   43.9290   29.3490   43.8430 N   0  0  0  0  0  0  0  0  0  0  0  0
   44.2180   30.3780   45.9960 H   0  0  0  0  0  0  0  0  0  0  0  0
   44.3390   28.0910   46.8330 H   0  0  0  0  0  0  0  0  0  0  0  0
   45.2380   27.6550   45.2720 H   0  0  0  0  0  0  0  0  0  0  0  0
   42.9530   27.6110   44.6160 H   0  0  0  0  0  0  0  0  0  0  0  0
   42.5870   29.1890   45.5080 H   0  0  0  0  0  0  0  0  0  0  0  0
   43.2190   29.2930   42.5790 C   0  0  0  0  0  0  0  0  0  0  0  0
   42.2770   30.2230   42.1830 C   0  0  0  0  0  0  0  0  0  0  0  0
   42.0180   31.0950   42.8630 H   0  0  0  0  0  0  0  0  0  0  0  0
   41.8190   29.4990   40.4870 S   0  0  0  0  0  0  0  0  0  0  0  0
   43.0350   28.0730   40.7080 C   0  0  0  0  0  0  0  0  0  0  0  0
   43.1350   27.3290   39.9260 H   0  0  0  0  0  0  0  0  0  0  0  0
   43.5560   28.2550   41.8170 N   0  0  0  0  0  0  0  0  0  0  0  0
  1 12  1  0  0  0  0
  1  6  1  0  0  0  0
  2  1  2  0  0  0  0
  3  2  1  0  0  0  0
  3  4  2  0  0  0  0
  4  5  1  0  0  0  0
  5  6  2  0  0  0  0
  5  7  1  0  0  0  0
  7  8  1  0  0  0  0
  8 14  1  0  0  0  0
  8 15  1  0  0  0  0
  8  9  1  0  0  0  0
  9 17  1  0  0  0  0
  9 16  1  0  0  0  0
 10 18  1  0  0  0  0
 10  9  1  0  0  0  0
 11 20  1  6  0  0  0
 11  7  1  0  0  0  0
 11 10  1  0  0  0  0
 13  3  1  0  0  0  0
 19 10  1  0  0  0  0
 21  2  1  0  0  0  0
 22 21  1  0  0  0  0
 23 21  1  0  0  0  0
 24 11  1  0  0  0  0
 25 26  2  0  0  0  0
 26 27  1  0  0  0  0
 27 28  1  0  0  0  0
 27 31  1  1  0  0  0
 27 24  1  0  0  0  0
 28 32  1  0  0  0  0
 29 35  1  0  0  0  0
 29 28  1  0  0  0  0
 30 26  1  0  0  0  0
 30 29  1  0  0  0  0
 33 28  1  0  0  0  0
 34 29  1  0  0  0  0
 36 30  1  0  0  0  0
 37 36  2  0  0  0  0
 37 38  1  0  0  0  0
 39 40  1  0  0  0  0
 39 37  1  0  0  0  0
 40 42  2  0  0  0  0
 41 40  1  0  0  0  0
 42 36  1  0  0  0  0
M  END
>  <minimizedAffinity>
-5.12439871

>  <minimizedRMSD>
0.607552767

$$$$
