
 OpenBabel03242523423D

 22 23  0  0  1  0  0  0  0  0999 V2000
   46.7230   35.1250   42.0470 C   0  0  2  0  0  0  0  0  0  0  0  0
   46.3380   36.1670   41.9330 H   0  0  0  0  0  0  0  0  0  0  0  0
   45.2540   35.2840   44.0400 C   0  0  0  0  0  0  0  0  0  0  0  0
   46.3130   34.6620   43.3810 C   0  0  0  0  0  0  0  0  0  0  0  0
   46.9780   33.5820   44.0250 C   0  0  0  0  0  0  0  0  0  0  0  0
   46.5290   33.2250   45.2620 N   0  0  0  0  0  0  0  0  0  0  0  0
   45.5100   33.8520   45.8540 C   0  0  0  0  0  0  0  0  0  0  0  0
   44.8860   34.8660   45.2440 N   0  0  0  0  0  0  0  0  0  0  0  0
   44.6980   36.1090   43.6200 H   0  0  0  0  0  0  0  0  0  0  0  0
   47.8000   33.0760   43.5440 H   0  0  0  0  0  0  0  0  0  0  0  0
   45.1700   33.5470   46.8430 H   0  0  0  0  0  0  0  0  0  0  0  0
   46.2420   34.2640   40.9340 C   0  0  0  0  0  0  0  0  0  0  0  0
   44.8030   34.0640   40.7380 C   0  0  0  0  0  0  0  0  0  0  0  0
   44.0530   34.4830   41.3270 H   0  0  0  0  0  0  0  0  0  0  0  0
   44.7620   32.9770   39.3060 S   0  0  0  0  0  0  0  0  0  0  0  0
   46.6740   32.9520   39.1810 C   0  0  0  0  0  0  0  0  0  0  0  0
   47.2070   32.3920   38.4180 H   0  0  0  0  0  0  0  0  0  0  0  0
   47.0250   33.6400   40.0740 N   0  0  0  0  0  0  0  0  0  0  0  0
   48.2300   35.2610   42.0360 C   0  0  0  0  0  0  0  0  0  0  0  0
   48.5720   36.3250   41.9860 H   0  0  0  0  0  0  0  0  0  0  0  0
   48.5780   34.8140   41.0580 H   0  0  0  0  0  0  0  0  0  0  0  0
   48.6440   34.7250   42.8940 H   0  0  0  0  0  0  0  0  0  0  0  0
  1  2  1  6  0  0  0
  1  4  1  0  0  0  0
  3  8  1  0  0  0  0
  4  5  1  0  0  0  0
  4  3  2  0  0  0  0
  5  6  2  0  0  0  0
  6  7  1  0  0  0  0
  7 11  1  0  0  0  0
  8  7  2  0  0  0  0
  9  3  1  0  0  0  0
 10  5  1  0  0  0  0
 12  1  1  0  0  0  0
 13 12  2  0  0  0  0
 13 14  1  0  0  0  0
 15 13  1  0  0  0  0
 16 15  1  0  0  0  0
 16 18  2  0  0  0  0
 17 16  1  0  0  0  0
 18 12  1  0  0  0  0
 19  1  1  0  0  0  0
 19 22  1  0  0  0  0
 20 19  1  0  0  0  0
 21 19  1  0  0  0  0
M  END
>  <minimizedAffinity>
-3.85033894

>  <minimizedRMSD>
0.760956705

$$$$
