
 OpenBabel03242513003D

 33 36  0  0  0  0  0  0  0  0999 V2000
   37.8150   27.3590   39.4930 F   0  0  0  0  0  0  0  0  0  0  0  0
   37.5420   27.5460   40.8190 C   0  0  0  0  0  0  0  0  0  0  0  0
   37.2730   26.4770   41.6480 C   0  0  0  0  0  0  0  0  0  0  0  0
   37.0110   26.7510   42.9600 C   0  0  0  0  0  0  0  0  0  0  0  0
   37.0020   28.0210   43.4850 C   0  0  0  0  0  0  0  0  0  0  0  0
   37.2770   29.0530   42.6180 C   0  0  0  0  0  0  0  0  0  0  0  0
   37.5450   28.8380   41.3000 C   0  0  0  0  0  0  0  0  0  0  0  0
   36.8010   25.8790   43.5840 H   0  0  0  0  0  0  0  0  0  0  0  0
   36.7820   28.1070   44.5300 H   0  0  0  0  0  0  0  0  0  0  0  0
   37.2650   30.0510   43.0560 H   0  0  0  0  0  0  0  0  0  0  0  0
   38.2840   22.9430   40.7090 C   0  0  0  0  0  0  0  0  0  0  0  0
   38.2990   24.2170   41.2820 C   0  0  0  0  0  0  0  0  0  0  0  0
   37.2870   25.1370   41.0650 C   0  0  0  0  0  0  0  0  0  0  0  0
   36.2720   24.7020   40.2490 N   0  0  0  0  0  0  0  0  0  0  0  0
   36.2670   23.4690   39.7020 C   0  0  0  0  0  0  0  0  0  0  0  0
   37.2470   22.6040   39.9220 N   0  0  0  0  0  0  0  0  0  0  0  0
   39.0990   22.2580   40.9070 H   0  0  0  0  0  0  0  0  0  0  0  0
   39.1120   24.5140   41.9120 H   0  0  0  0  0  0  0  0  0  0  0  0
   35.3830   23.3140   39.0900 H   0  0  0  0  0  0  0  0  0  0  0  0
   37.8340   29.9310   40.3920 C   0  0  0  0  0  0  0  0  0  0  0  0
   36.9200   30.6600   39.6500 C   0  0  0  0  0  0  0  0  0  0  0  0
   37.6280   31.6150   38.9140 C   0  0  0  0  0  0  0  0  0  0  0  0
   38.9360   31.4380   39.2280 N   0  0  0  0  0  0  0  0  0  0  0  0
   39.0660   30.4460   40.0990 N   0  0  0  0  0  0  0  0  0  0  0  0
   35.8430   30.4800   39.6720 H   0  0  0  0  0  0  0  0  0  0  0  0
   37.1620   32.3180   38.2490 H   0  0  0  0  0  0  0  0  0  0  0  0
   40.0190   32.2270   38.6780 C   0  0  0  0  0  0  0  0  0  0  0  0
   40.8290   31.9710   37.4500 C   0  0  0  0  0  0  0  0  0  0  0  0
   40.4810   31.0360   36.9650 H   0  0  0  0  0  0  0  0  0  0  0  0
   41.9440   33.4950   37.5750 S   0  0  0  0  0  0  0  0  0  0  0  0
   41.1590   34.1050   39.1170 C   0  0  0  0  0  0  0  0  0  0  0  0
   41.6020   35.0150   39.4610 H   0  0  0  0  0  0  0  0  0  0  0  0
   40.2230   33.2920   39.4620 N   0  0  0  0  0  0  0  0  0  0  0  0
  1  2  1  0  0  0  0
  2  7  2  0  0  0  0
  2  3  1  0  0  0  0
  3  4  2  0  0  0  0
  4  5  1  0  0  0  0
  4  8  1  0  0  0  0
  5  9  1  0  0  0  0
  6 10  1  0  0  0  0
  6  5  2  0  0  0  0
  7  6  1  0  0  0  0
 11 17  1  0  0  0  0
 11 12  1  0  0  0  0
 12 18  1  0  0  0  0
 13 12  2  0  0  0  0
 13  3  1  0  0  0  0
 14 13  1  0  0  0  0
 15 16  1  0  0  0  0
 15 14  2  0  0  0  0
 16 11  2  0  0  0  0
 19 15  1  0  0  0  0
 20  7  1  0  0  0  0
 21 25  1  0  0  0  0
 21 20  1  0  0  0  0
 22 23  1  0  0  0  0
 22 21  2  0  0  0  0
 23 24  1  0  0  0  0
 24 20  2  0  0  0  0
 26 22  1  0  0  0  0
 27 23  1  0  0  0  0
 27 33  1  0  0  0  0
 28 30  1  0  0  0  0
 28 27  2  0  0  0  0
 29 28  1  0  0  0  0
 30 31  1  0  0  0  0
 31 32  1  0  0  0  0
 31 33  2  0  0  0  0
M  END
>  <minimizedAffinity>
-5.47742605

$$$$

 OpenBabel03242513003D

 33 36  0  0  0  0  0  0  0  0999 V2000
   37.1500   30.9160   37.2270 F   0  0  0  0  0  0  0  0  0  0  0  0
   36.5130   30.3970   38.3190 C   0  0  0  0  0  0  0  0  0  0  0  0
   35.6080   29.3640   38.1910 C   0  0  0  0  0  0  0  0  0  0  0  0
   35.0160   28.9020   39.3310 C   0  0  0  0  0  0  0  0  0  0  0  0
   35.2760   29.4110   40.5820 C   0  0  0  0  0  0  0  0  0  0  0  0
   36.1860   30.4390   40.6580 C   0  0  0  0  0  0  0  0  0  0  0  0
   36.8060   30.9390   39.5520 C   0  0  0  0  0  0  0  0  0  0  0  0
   34.3060   28.0850   39.1890 H   0  0  0  0  0  0  0  0  0  0  0  0
   34.7470   28.9640   41.4000 H   0  0  0  0  0  0  0  0  0  0  0  0
   36.3760   30.8270   41.6590 H   0  0  0  0  0  0  0  0  0  0  0  0
   33.9540   28.5500   34.8740 C   0  0  0  0  0  0  0  0  0  0  0  0
   34.1720   29.0640   36.1550 C   0  0  0  0  0  0  0  0  0  0  0  0
   35.3490   28.8420   36.8500 C   0  0  0  0  0  0  0  0  0  0  0  0
   36.2810   28.0820   36.1870 N   0  0  0  0  0  0  0  0  0  0  0  0
   36.0610   27.5910   34.9500 C   0  0  0  0  0  0  0  0  0  0  0  0
   34.9260   27.8160   34.3020 N   0  0  0  0  0  0  0  0  0  0  0  0
   33.0180   28.7490   34.3700 H   0  0  0  0  0  0  0  0  0  0  0  0
   33.4160   29.6510   36.6340 H   0  0  0  0  0  0  0  0  0  0  0  0
   36.9140   27.0180   34.5970 H   0  0  0  0  0  0  0  0  0  0  0  0
   37.7640   32.0230   39.6390 C   0  0  0  0  0  0  0  0  0  0  0  0
   37.4890   33.3600   39.8740 C   0  0  0  0  0  0  0  0  0  0  0  0
   38.7030   34.0540   39.8780 C   0  0  0  0  0  0  0  0  0  0  0  0
   39.6670   33.1280   39.6490 N   0  0  0  0  0  0  0  0  0  0  0  0
   39.1210   31.9270   39.5070 N   0  0  0  0  0  0  0  0  0  0  0  0
   36.4800   33.7530   40.0230 H   0  0  0  0  0  0  0  0  0  0  0  0
   38.7810   35.1130   40.0380 H   0  0  0  0  0  0  0  0  0  0  0  0
   41.0820   33.4270   39.5720 C   0  0  0  0  0  0  0  0  0  0  0  0
   42.1070   33.3710   40.6570 C   0  0  0  0  0  0  0  0  0  0  0  0
   41.6270   33.0500   41.6030 H   0  0  0  0  0  0  0  0  0  0  0  0
   43.5900   33.9150   39.6140 S   0  0  0  0  0  0  0  0  0  0  0  0
   42.6090   34.0890   38.0740 C   0  0  0  0  0  0  0  0  0  0  0  0
   43.2110   34.4060   37.2480 H   0  0  0  0  0  0  0  0  0  0  0  0
   41.3840   33.7870   38.3190 N   0  0  0  0  0  0  0  0  0  0  0  0
  1  2  1  0  0  0  0
  2  7  1  0  0  0  0
  3  2  2  0  0  0  0
  3  4  1  0  0  0  0
  4  5  2  0  0  0  0
  5  6  1  0  0  0  0
  5  9  1  0  0  0  0
  6 10  1  0  0  0  0
  7 20  1  0  0  0  0
  7  6  2  0  0  0  0
  8  4  1  0  0  0  0
 11 12  1  0  0  0  0
 12 18  1  0  0  0  0
 12 13  2  0  0  0  0
 13  3  1  0  0  0  0
 14 13  1  0  0  0  0
 15 14  2  0  0  0  0
 16 11  2  0  0  0  0
 16 15  1  0  0  0  0
 17 11  1  0  0  0  0
 19 15  1  0  0  0  0
 20 21  1  0  0  0  0
 21 22  2  0  0  0  0
 21 25  1  0  0  0  0
 22 26  1  0  0  0  0
 23 22  1  0  0  0  0
 24 20  2  0  0  0  0
 24 23  1  0  0  0  0
 27 23  1  0  0  0  0
 27 28  2  0  0  0  0
 28 29  1  0  0  0  0
 30 28  1  0  0  0  0
 31 33  2  0  0  0  0
 31 30  1  0  0  0  0
 32 31  1  0  0  0  0
 33 27  1  0  0  0  0
M  END
>  <minimizedAffinity>
-5.39883757

$$$$

 OpenBabel03242513003D

 33 36  0  0  0  0  0  0  0  0999 V2000
   40.7150   30.8470   40.6310 F   0  0  0  0  0  0  0  0  0  0  0  0
   39.5870   31.5740   40.3760 C   0  0  0  0  0  0  0  0  0  0  0  0
   39.6510   32.7730   39.6960 C   0  0  0  0  0  0  0  0  0  0  0  0
   38.4780   33.4370   39.4820 C   0  0  0  0  0  0  0  0  0  0  0  0
   37.2540   32.9750   39.9060 C   0  0  0  0  0  0  0  0  0  0  0  0
   37.2430   31.7760   40.5790 C   0  0  0  0  0  0  0  0  0  0  0  0
   38.3840   31.0710   40.8210 C   0  0  0  0  0  0  0  0  0  0  0  0
   38.5700   34.3810   38.9410 H   0  0  0  0  0  0  0  0  0  0  0  0
   36.4050   33.5870   39.6780 H   0  0  0  0  0  0  0  0  0  0  0  0
   36.2620   31.4300   40.9070 H   0  0  0  0  0  0  0  0  0  0  0  0
   42.6350   33.7040   37.5440 C   0  0  0  0  0  0  0  0  0  0  0  0
   41.3720   33.2490   37.9330 C   0  0  0  0  0  0  0  0  0  0  0  0
   40.9640   33.2420   39.2560 C   0  0  0  0  0  0  0  0  0  0  0  0
   41.8910   33.7140   40.1530 N   0  0  0  0  0  0  0  0  0  0  0  0
   43.1080   34.1510   39.7670 C   0  0  0  0  0  0  0  0  0  0  0  0
   43.4780   34.1490   38.4940 N   0  0  0  0  0  0  0  0  0  0  0  0
   42.9100   33.6900   36.4980 H   0  0  0  0  0  0  0  0  0  0  0  0
   40.6810   32.8890   37.1990 H   0  0  0  0  0  0  0  0  0  0  0  0
   43.6940   34.4830   40.6180 H   0  0  0  0  0  0  0  0  0  0  0  0
   38.3640   29.8080   41.5320 C   0  0  0  0  0  0  0  0  0  0  0  0
   38.5200   29.6170   42.8950 C   0  0  0  0  0  0  0  0  0  0  0  0
   38.4320   28.2450   43.1490 C   0  0  0  0  0  0  0  0  0  0  0  0
   38.2270   27.6510   41.9470 N   0  0  0  0  0  0  0  0  0  0  0  0
   38.1860   28.5670   40.9880 N   0  0  0  0  0  0  0  0  0  0  0  0
   38.6820   30.4320   43.6050 H   0  0  0  0  0  0  0  0  0  0  0  0
   38.5190   27.8160   44.1300 H   0  0  0  0  0  0  0  0  0  0  0  0
   38.0790   26.2230   41.7580 C   0  0  0  0  0  0  0  0  0  0  0  0
   37.1350   25.4940   40.8590 C   0  0  0  0  0  0  0  0  0  0  0  0
   36.5100   26.2250   40.3080 H   0  0  0  0  0  0  0  0  0  0  0  0
   37.6860   23.7390   41.3050 S   0  0  0  0  0  0  0  0  0  0  0  0
   38.9580   24.3010   42.5010 C   0  0  0  0  0  0  0  0  0  0  0  0
   39.4770   23.4810   42.9510 H   0  0  0  0  0  0  0  0  0  0  0  0
   38.9550   25.5870   42.5440 N   0  0  0  0  0  0  0  0  0  0  0  0
  2  1  1  0  0  0  0
  2  7  1  0  0  0  0
  3  2  2  0  0  0  0
  4  3  1  0  0  0  0
  4  5  2  0  0  0  0
  5  6  1  0  0  0  0
  6  7  2  0  0  0  0
  6 10  1  0  0  0  0
  7 20  1  0  0  0  0
  8  4  1  0  0  0  0
  9  5  1  0  0  0  0
 11 12  2  0  0  0  0
 11 16  1  0  0  0  0
 12 13  1  0  0  0  0
 13  3  1  0  0  0  0
 13 14  2  0  0  0  0
 15 14  1  0  0  0  0
 15 19  1  0  0  0  0
 16 15  2  0  0  0  0
 17 11  1  0  0  0  0
 18 12  1  0  0  0  0
 20 21  1  0  0  0  0
 21 22  2  0  0  0  0
 21 25  1  0  0  0  0
 22 26  1  0  0  0  0
 23 22  1  0  0  0  0
 24 20  2  0  0  0  0
 24 23  1  0  0  0  0
 27 23  1  0  0  0  0
 27 33  1  0  0  0  0
 28 30  1  0  0  0  0
 28 27  2  0  0  0  0
 29 28  1  0  0  0  0
 30 31  1  0  0  0  0
 31 33  2  0  0  0  0
 31 32  1  0  0  0  0
M  END
>  <minimizedAffinity>
-5.35035086

$$$$

 OpenBabel03242513003D

 33 36  0  0  0  0  0  0  0  0999 V2000
   39.7910   29.8620   40.3180 F   0  0  0  0  0  0  0  0  0  0  0  0
   38.6640   29.9910   39.5560 C   0  0  0  0  0  0  0  0  0  0  0  0
   37.4650   29.4420   39.9600 C   0  0  0  0  0  0  0  0  0  0  0  0
   36.3860   29.6170   39.1410 C   0  0  0  0  0  0  0  0  0  0  0  0
   36.4390   30.3030   37.9500 C   0  0  0  0  0  0  0  0  0  0  0  0
   37.6570   30.8310   37.5910 C   0  0  0  0  0  0  0  0  0  0  0  0
   38.7650   30.6870   38.3700 C   0  0  0  0  0  0  0  0  0  0  0  0
   35.4550   29.1680   39.4940 H   0  0  0  0  0  0  0  0  0  0  0  0
   35.5250   30.3710   37.3960 H   0  0  0  0  0  0  0  0  0  0  0  0
   37.6750   31.3700   36.6440 H   0  0  0  0  0  0  0  0  0  0  0  0
   37.3060   26.6760   42.5520 C   0  0  0  0  0  0  0  0  0  0  0  0
   37.3330   27.3400   41.3230 C   0  0  0  0  0  0  0  0  0  0  0  0
   37.4350   28.7180   41.2290 C   0  0  0  0  0  0  0  0  0  0  0  0
   37.5100   29.3780   42.4310 N   0  0  0  0  0  0  0  0  0  0  0  0
   37.4850   28.7270   43.6120 C   0  0  0  0  0  0  0  0  0  0  0  0
   37.3850   27.4060   43.6790 N   0  0  0  0  0  0  0  0  0  0  0  0
   37.2240   25.5970   42.5760 H   0  0  0  0  0  0  0  0  0  0  0  0
   37.2710   26.7840   40.4100 H   0  0  0  0  0  0  0  0  0  0  0  0
   37.5540   29.4210   44.4450 H   0  0  0  0  0  0  0  0  0  0  0  0
   40.0470   31.2460   37.9850 C   0  0  0  0  0  0  0  0  0  0  0  0
   40.4920   32.5380   38.2120 C   0  0  0  0  0  0  0  0  0  0  0  0
   41.7800   32.6480   37.6770 C   0  0  0  0  0  0  0  0  0  0  0  0
   42.0730   31.4340   37.1490 N   0  0  0  0  0  0  0  0  0  0  0  0
   41.0550   30.6010   37.3260 N   0  0  0  0  0  0  0  0  0  0  0  0
   39.9010   33.3000   38.7240 H   0  0  0  0  0  0  0  0  0  0  0  0
   42.3630   33.5480   37.7140 H   0  0  0  0  0  0  0  0  0  0  0  0
   43.3210   31.1120   36.4880 C   0  0  0  0  0  0  0  0  0  0  0  0
   43.5840   30.0750   35.4450 C   0  0  0  0  0  0  0  0  0  0  0  0
   42.6430   29.5360   35.2150 H   0  0  0  0  0  0  0  0  0  0  0  0
   45.4330   30.4170   35.2280 S   0  0  0  0  0  0  0  0  0  0  0  0
   45.4640   31.7630   36.4740 C   0  0  0  0  0  0  0  0  0  0  0  0
   46.4400   32.1850   36.5850 H   0  0  0  0  0  0  0  0  0  0  0  0
   44.2820   31.9160   36.9580 N   0  0  0  0  0  0  0  0  0  0  0  0
  2  3  1  0  0  0  0
  2  1  1  0  0  0  0
  3 13  1  0  0  0  0
  4  8  1  0  0  0  0
  4  3  2  0  0  0  0
  5  4  1  0  0  0  0
  6  5  2  0  0  0  0
  6  7  1  0  0  0  0
  7  2  2  0  0  0  0
  9  5  1  0  0  0  0
 10  6  1  0  0  0  0
 11 17  1  0  0  0  0
 11 16  1  0  0  0  0
 12 11  2  0  0  0  0
 13 12  1  0  0  0  0
 13 14  2  0  0  0  0
 14 15  1  0  0  0  0
 15 16  2  0  0  0  0
 15 19  1  0  0  0  0
 18 12  1  0  0  0  0
 20 21  1  0  0  0  0
 20  7  1  0  0  0  0
 21 25  1  0  0  0  0
 22 26  1  0  0  0  0
 22 21  2  0  0  0  0
 23 24  1  0  0  0  0
 23 22  1  0  0  0  0
 24 20  2  0  0  0  0
 27 33  1  0  0  0  0
 27 23  1  0  0  0  0
 28 27  2  0  0  0  0
 29 28  1  0  0  0  0
 30 28  1  0  0  0  0
 30 31  1  0  0  0  0
 31 32  1  0  0  0  0
 31 33  2  0  0  0  0
M  END
>  <minimizedAffinity>
-5.33957291

$$$$

 OpenBabel03242513003D

 33 36  0  0  0  0  0  0  0  0999 V2000
   36.3570   26.8800   38.8380 F   0  0  0  0  0  0  0  0  0  0  0  0
   36.6070   26.2800   40.0400 C   0  0  0  0  0  0  0  0  0  0  0  0
   36.6200   24.9060   40.1620 C   0  0  0  0  0  0  0  0  0  0  0  0
   36.8770   24.3880   41.3980 C   0  0  0  0  0  0  0  0  0  0  0  0
   37.1200   25.1580   42.5110 C   0  0  0  0  0  0  0  0  0  0  0  0
   37.0970   26.5230   42.3380 C   0  0  0  0  0  0  0  0  0  0  0  0
   36.8450   27.0940   41.1270 C   0  0  0  0  0  0  0  0  0  0  0  0
   36.8790   23.2970   41.4550 H   0  0  0  0  0  0  0  0  0  0  0  0
   37.3090   24.6340   43.4260 H   0  0  0  0  0  0  0  0  0  0  0  0
   37.2910   27.1140   43.2330 H   0  0  0  0  0  0  0  0  0  0  0  0
   34.8860   22.8750   37.4670 C   0  0  0  0  0  0  0  0  0  0  0  0
   35.1040   23.6350   38.6190 C   0  0  0  0  0  0  0  0  0  0  0  0
   36.3580   24.1100   38.9650 C   0  0  0  0  0  0  0  0  0  0  0  0
   37.3660   23.7780   38.0930 N   0  0  0  0  0  0  0  0  0  0  0  0
   37.1440   23.0440   36.9830 C   0  0  0  0  0  0  0  0  0  0  0  0
   35.9340   22.5990   36.6710 N   0  0  0  0  0  0  0  0  0  0  0  0
   33.8880   22.5250   37.2380 H   0  0  0  0  0  0  0  0  0  0  0  0
   34.2870   23.8690   39.2710 H   0  0  0  0  0  0  0  0  0  0  0  0
   38.0620   22.8890   36.4240 H   0  0  0  0  0  0  0  0  0  0  0  0
   36.8210   28.5330   40.9530 C   0  0  0  0  0  0  0  0  0  0  0  0
   35.7010   29.3420   40.8620 C   0  0  0  0  0  0  0  0  0  0  0  0
   36.1360   30.6610   40.7000 C   0  0  0  0  0  0  0  0  0  0  0  0
   37.4910   30.6140   40.6980 N   0  0  0  0  0  0  0  0  0  0  0  0
   37.9030   29.3610   40.8460 N   0  0  0  0  0  0  0  0  0  0  0  0
   34.6770   28.9650   40.9130 H   0  0  0  0  0  0  0  0  0  0  0  0
   35.4700   31.4980   40.6030 H   0  0  0  0  0  0  0  0  0  0  0  0
   38.3470   31.7730   40.5510 C   0  0  0  0  0  0  0  0  0  0  0  0
   39.8250   31.8700   40.7430 C   0  0  0  0  0  0  0  0  0  0  0  0
   40.2270   30.8780   41.0330 H   0  0  0  0  0  0  0  0  0  0  0  0
   39.9990   33.7100   40.3380 S   0  0  0  0  0  0  0  0  0  0  0  0
   38.2070   33.9450   40.0230 C   0  0  0  0  0  0  0  0  0  0  0  0
   37.9750   34.9530   39.7540 H   0  0  0  0  0  0  0  0  0  0  0  0
   37.6000   32.8240   40.1960 N   0  0  0  0  0  0  0  0  0  0  0  0
  1  2  1  0  0  0  0
  2  3  2  0  0  0  0
  2  7  1  0  0  0  0
  3  4  1  0  0  0  0
  4  8  1  0  0  0  0
  4  5  2  0  0  0  0
  5  9  1  0  0  0  0
  6  5  1  0  0  0  0
  6 10  1  0  0  0  0
  7  6  2  0  0  0  0
 11 12  1  0  0  0  0
 12 13  2  0  0  0  0
 12 18  1  0  0  0  0
 13  3  1  0  0  0  0
 14 13  1  0  0  0  0
 15 14  2  0  0  0  0
 16 15  1  0  0  0  0
 16 11  2  0  0  0  0
 17 11  1  0  0  0  0
 19 15  1  0  0  0  0
 20  7  1  0  0  0  0
 21 25  1  0  0  0  0
 21 20  1  0  0  0  0
 22 21  2  0  0  0  0
 23 22  1  0  0  0  0
 23 24  1  0  0  0  0
 24 20  2  0  0  0  0
 26 22  1  0  0  0  0
 27 23  1  0  0  0  0
 27 28  2  0  0  0  0
 28 29  1  0  0  0  0
 30 28  1  0  0  0  0
 31 33  2  0  0  0  0
 31 30  1  0  0  0  0
 32 31  1  0  0  0  0
 33 27  1  0  0  0  0
M  END
>  <minimizedAffinity>
-5.33285236

$$$$

 OpenBabel03242513003D

 33 36  0  0  0  0  0  0  0  0999 V2000
   39.2450   28.2010   41.0050 F   0  0  0  0  0  0  0  0  0  0  0  0
   38.0500   28.8600   40.9260 C   0  0  0  0  0  0  0  0  0  0  0  0
   36.8570   28.1680   40.8960 C   0  0  0  0  0  0  0  0  0  0  0  0
   35.7080   28.9020   40.8170 C   0  0  0  0  0  0  0  0  0  0  0  0
   35.6850   30.2760   40.7670 C   0  0  0  0  0  0  0  0  0  0  0  0
   36.9000   30.9190   40.8000 C   0  0  0  0  0  0  0  0  0  0  0  0
   38.0770   30.2370   40.8780 C   0  0  0  0  0  0  0  0  0  0  0  0
   34.7850   28.3190   40.7950 H   0  0  0  0  0  0  0  0  0  0  0  0
   34.7200   30.7370   40.7060 H   0  0  0  0  0  0  0  0  0  0  0  0
   36.8580   32.0070   40.7590 H   0  0  0  0  0  0  0  0  0  0  0  0
   37.1730   24.5950   42.1330 C   0  0  0  0  0  0  0  0  0  0  0  0
   37.1280   25.9910   42.1140 C   0  0  0  0  0  0  0  0  0  0  0  0
   36.9090   26.7090   40.9500 C   0  0  0  0  0  0  0  0  0  0  0  0
   36.7400   25.9450   39.8200 N   0  0  0  0  0  0  0  0  0  0  0  0
   36.7840   24.5970   39.8500 C   0  0  0  0  0  0  0  0  0  0  0  0
   36.9960   23.9310   40.9760 N   0  0  0  0  0  0  0  0  0  0  0  0
   37.3480   24.0780   43.0670 H   0  0  0  0  0  0  0  0  0  0  0  0
   37.2660   26.5460   43.0190 H   0  0  0  0  0  0  0  0  0  0  0  0
   36.6290   24.1770   38.8600 H   0  0  0  0  0  0  0  0  0  0  0  0
   39.3550   30.9220   40.9130 C   0  0  0  0  0  0  0  0  0  0  0  0
   40.1750   31.0970   42.0150 C   0  0  0  0  0  0  0  0  0  0  0  0
   41.3040   31.8110   41.6000 C   0  0  0  0  0  0  0  0  0  0  0  0
   41.1370   32.0430   40.2740 N   0  0  0  0  0  0  0  0  0  0  0  0
   39.9890   31.5220   39.8610 N   0  0  0  0  0  0  0  0  0  0  0  0
   39.9350   30.7240   43.0130 H   0  0  0  0  0  0  0  0  0  0  0  0
   42.1070   32.0860   42.2570 H   0  0  0  0  0  0  0  0  0  0  0  0
   42.0850   32.7610   39.4470 C   0  0  0  0  0  0  0  0  0  0  0  0
   43.3810   33.3880   39.8440 C   0  0  0  0  0  0  0  0  0  0  0  0
   43.5520   33.2300   40.9280 H   0  0  0  0  0  0  0  0  0  0  0  0
   43.8590   34.0500   38.1370 S   0  0  0  0  0  0  0  0  0  0  0  0
   42.3510   33.4040   37.3180 C   0  0  0  0  0  0  0  0  0  0  0  0
   42.3300   33.6350   36.2740 H   0  0  0  0  0  0  0  0  0  0  0  0
   41.6260   32.7980   38.1910 N   0  0  0  0  0  0  0  0  0  0  0  0
  2  1  1  0  0  0  0
  3  2  1  0  0  0  0
  3 13  1  0  0  0  0
  4  3  2  0  0  0  0
  5  6  2  0  0  0  0
  5  4  1  0  0  0  0
  6  7  1  0  0  0  0
  7 20  1  0  0  0  0
  7  2  2  0  0  0  0
  8  4  1  0  0  0  0
  9  5  1  0  0  0  0
 10  6  1  0  0  0  0
 11 17  1  0  0  0  0
 12 11  1  0  0  0  0
 12 18  1  0  0  0  0
 13 12  2  0  0  0  0
 14 15  2  0  0  0  0
 14 13  1  0  0  0  0
 15 16  1  0  0  0  0
 16 11  2  0  0  0  0
 19 15  1  0  0  0  0
 20 21  1  0  0  0  0
 21 25  1  0  0  0  0
 22 21  2  0  0  0  0
 22 26  1  0  0  0  0
 23 22  1  0  0  0  0
 24 23  1  0  0  0  0
 24 20  2  0  0  0  0
 27 28  2  0  0  0  0
 27 23  1  0  0  0  0
 28 29  1  0  0  0  0
 30 28  1  0  0  0  0
 31 30  1  0  0  0  0
 31 33  2  0  0  0  0
 32 31  1  0  0  0  0
 33 27  1  0  0  0  0
M  END
>  <minimizedAffinity>
-5.17022276

$$$$

 OpenBabel03242513003D

 33 36  0  0  0  0  0  0  0  0999 V2000
   37.3480   30.5090   39.0960 F   0  0  0  0  0  0  0  0  0  0  0  0
   37.3130   29.8640   40.3000 C   0  0  0  0  0  0  0  0  0  0  0  0
   36.4960   28.7700   40.4970 C   0  0  0  0  0  0  0  0  0  0  0  0
   36.5210   28.1830   41.7290 C   0  0  0  0  0  0  0  0  0  0  0  0
   37.3090   28.6230   42.7670 C   0  0  0  0  0  0  0  0  0  0  0  0
   38.1050   29.7170   42.5200 C   0  0  0  0  0  0  0  0  0  0  0  0
   38.1200   30.3420   41.3090 C   0  0  0  0  0  0  0  0  0  0  0  0
   35.8610   27.3200   41.8480 H   0  0  0  0  0  0  0  0  0  0  0  0
   37.2390   28.0790   43.6870 H   0  0  0  0  0  0  0  0  0  0  0  0
   38.7210   30.0490   43.3560 H   0  0  0  0  0  0  0  0  0  0  0  0
   33.7680   28.5420   37.8700 C   0  0  0  0  0  0  0  0  0  0  0  0
   34.5410   28.9960   38.9420 C   0  0  0  0  0  0  0  0  0  0  0  0
   35.6680   28.3220   39.3800 C   0  0  0  0  0  0  0  0  0  0  0  0
   35.9680   27.1770   38.6820 N   0  0  0  0  0  0  0  0  0  0  0  0
   35.2160   26.7480   37.6480 C   0  0  0  0  0  0  0  0  0  0  0  0
   34.1390   27.4090   37.2450 N   0  0  0  0  0  0  0  0  0  0  0  0
   32.8950   29.1020   37.5640 H   0  0  0  0  0  0  0  0  0  0  0  0
   34.2680   29.8950   39.4570 H   0  0  0  0  0  0  0  0  0  0  0  0
   35.6140   25.8280   37.2280 H   0  0  0  0  0  0  0  0  0  0  0  0
   38.9630   31.4950   41.0560 C   0  0  0  0  0  0  0  0  0  0  0  0
   38.5450   32.7850   40.7770 C   0  0  0  0  0  0  0  0  0  0  0  0
   39.6850   33.5770   40.6020 C   0  0  0  0  0  0  0  0  0  0  0  0
   40.7470   32.7520   40.7790 N   0  0  0  0  0  0  0  0  0  0  0  0
   40.3290   31.5220   41.0470 N   0  0  0  0  0  0  0  0  0  0  0  0
   37.4950   33.0810   40.7150 H   0  0  0  0  0  0  0  0  0  0  0  0
   39.6500   34.6260   40.3750 H   0  0  0  0  0  0  0  0  0  0  0  0
   42.1300   33.1730   40.6820 C   0  0  0  0  0  0  0  0  0  0  0  0
   42.8470   33.7530   39.5080 C   0  0  0  0  0  0  0  0  0  0  0  0
   42.1490   33.8330   38.6500 H   0  0  0  0  0  0  0  0  0  0  0  0
   44.5360   33.9600   40.3380 S   0  0  0  0  0  0  0  0  0  0  0  0
   43.9740   33.2830   41.9480 C   0  0  0  0  0  0  0  0  0  0  0  0
   44.7590   33.2700   42.6740 H   0  0  0  0  0  0  0  0  0  0  0  0
   42.7320   32.9630   41.8590 N   0  0  0  0  0  0  0  0  0  0  0  0
  1  2  1  0  0  0  0
  2  3  2  0  0  0  0
  2  7  1  0  0  0  0
  3  4  1  0  0  0  0
  4  8  1  0  0  0  0
  4  5  2  0  0  0  0
  5  9  1  0  0  0  0
  6  5  1  0  0  0  0
  6 10  1  0  0  0  0
  7  6  2  0  0  0  0
 11 12  1  0  0  0  0
 12 13  2  0  0  0  0
 12 18  1  0  0  0  0
 13  3  1  0  0  0  0
 14 13  1  0  0  0  0
 15 14  2  0  0  0  0
 16 15  1  0  0  0  0
 16 11  2  0  0  0  0
 17 11  1  0  0  0  0
 19 15  1  0  0  0  0
 20  7  1  0  0  0  0
 21 20  1  0  0  0  0
 22 21  2  0  0  0  0
 22 23  1  0  0  0  0
 23 24  1  0  0  0  0
 24 20  2  0  0  0  0
 25 21  1  0  0  0  0
 26 22  1  0  0  0  0
 27 23  1  0  0  0  0
 27 33  1  0  0  0  0
 28 30  1  0  0  0  0
 28 27  2  0  0  0  0
 29 28  1  0  0  0  0
 30 31  1  0  0  0  0
 31 32  1  0  0  0  0
 33 31  2  0  0  0  0
M  END
>  <minimizedAffinity>
-5.14047241

$$$$

 OpenBabel03242513003D

 33 36  0  0  0  0  0  0  0  0999 V2000
   35.9300   26.7050   39.0550 F   0  0  0  0  0  0  0  0  0  0  0  0
   36.1730   27.7830   39.8590 C   0  0  0  0  0  0  0  0  0  0  0  0
   37.0400   27.6930   40.9280 C   0  0  0  0  0  0  0  0  0  0  0  0
   37.2270   28.8160   41.6810 C   0  0  0  0  0  0  0  0  0  0  0  0
   36.6020   30.0150   41.4280 C   0  0  0  0  0  0  0  0  0  0  0  0
   35.7490   30.0540   40.3500 C   0  0  0  0  0  0  0  0  0  0  0  0
   35.5240   28.9630   39.5650 C   0  0  0  0  0  0  0  0  0  0  0  0
   37.9190   28.7050   42.5190 H   0  0  0  0  0  0  0  0  0  0  0  0
   36.8310   30.8250   42.0910 H   0  0  0  0  0  0  0  0  0  0  0  0
   35.2640   31.0140   40.1680 H   0  0  0  0  0  0  0  0  0  0  0  0
   37.7790   24.1830   42.1660 C   0  0  0  0  0  0  0  0  0  0  0  0
   37.1310   25.4020   41.9460 C   0  0  0  0  0  0  0  0  0  0  0  0
   37.6900   26.4080   41.1770 C   0  0  0  0  0  0  0  0  0  0  0  0
   38.9250   26.1180   40.6480 N   0  0  0  0  0  0  0  0  0  0  0  0
   39.5410   24.9380   40.8660 C   0  0  0  0  0  0  0  0  0  0  0  0
   38.9870   23.9880   41.6070 N   0  0  0  0  0  0  0  0  0  0  0  0
   37.3030   23.4260   42.7750 H   0  0  0  0  0  0  0  0  0  0  0  0
   36.1690   25.5840   42.3790 H   0  0  0  0  0  0  0  0  0  0  0  0
   40.5040   24.9000   40.3660 H   0  0  0  0  0  0  0  0  0  0  0  0
   34.6220   29.0120   38.4310 C   0  0  0  0  0  0  0  0  0  0  0  0
   34.9610   28.9010   37.0930 C   0  0  0  0  0  0  0  0  0  0  0  0
   33.7860   29.0020   36.3420 C   0  0  0  0  0  0  0  0  0  0  0  0
   32.7800   29.1690   37.2370 N   0  0  0  0  0  0  0  0  0  0  0  0
   33.2660   29.1760   38.4720 N   0  0  0  0  0  0  0  0  0  0  0  0
   35.9850   28.7610   36.7380 H   0  0  0  0  0  0  0  0  0  0  0  0
   33.7590   28.9490   35.2700 H   0  0  0  0  0  0  0  0  0  0  0  0
   31.3850   29.3190   36.8770 C   0  0  0  0  0  0  0  0  0  0  0  0
   30.6860   28.8470   35.6450 C   0  0  0  0  0  0  0  0  0  0  0  0
   31.4090   28.3290   34.9830 H   0  0  0  0  0  0  0  0  0  0  0  0
   28.9620   29.4930   36.0870 S   0  0  0  0  0  0  0  0  0  0  0  0
   29.4950   30.1990   37.6930 C   0  0  0  0  0  0  0  0  0  0  0  0
   28.6860   30.6660   38.2150 H   0  0  0  0  0  0  0  0  0  0  0  0
   30.7520   29.9780   37.8530 N   0  0  0  0  0  0  0  0  0  0  0  0
  1  2  1  0  0  0  0
  2  3  1  0  0  0  0
  3 13  1  0  0  0  0
  3  4  2  0  0  0  0
  4  8  1  0  0  0  0
  5  4  1  0  0  0  0
  5  9  1  0  0  0  0
  6  5  2  0  0  0  0
  7  2  2  0  0  0  0
  7  6  1  0  0  0  0
 10  6  1  0  0  0  0
 11 17  1  0  0  0  0
 12 11  1  0  0  0  0
 12 18  1  0  0  0  0
 13 12  2  0  0  0  0
 14 15  2  0  0  0  0
 14 13  1  0  0  0  0
 15 16  1  0  0  0  0
 16 11  2  0  0  0  0
 19 15  1  0  0  0  0
 20 24  2  0  0  0  0
 20  7  1  0  0  0  0
 21 20  1  0  0  0  0
 22 21  2  0  0  0  0
 22 23  1  0  0  0  0
 23 24  1  0  0  0  0
 25 21  1  0  0  0  0
 26 22  1  0  0  0  0
 27 23  1  0  0  0  0
 27 33  1  0  0  0  0
 28 30  1  0  0  0  0
 28 27  2  0  0  0  0
 29 28  1  0  0  0  0
 30 31  1  0  0  0  0
 31 33  2  0  0  0  0
 31 32  1  0  0  0  0
M  END
>  <minimizedAffinity>
-5.06562424

$$$$

 OpenBabel03242513003D

 33 36  0  0  0  0  0  0  0  0999 V2000
   38.6210   28.7300   40.4890 F   0  0  0  0  0  0  0  0  0  0  0  0
   37.4850   28.6760   39.7310 C   0  0  0  0  0  0  0  0  0  0  0  0
   36.7900   27.4950   39.5730 C   0  0  0  0  0  0  0  0  0  0  0  0
   35.6650   27.5260   38.8000 C   0  0  0  0  0  0  0  0  0  0  0  0
   35.2000   28.6620   38.1800 C   0  0  0  0  0  0  0  0  0  0  0  0
   35.9270   29.8140   38.3680 C   0  0  0  0  0  0  0  0  0  0  0  0
   37.0570   29.8400   39.1290 C   0  0  0  0  0  0  0  0  0  0  0  0
   35.1430   26.5720   38.6990 H   0  0  0  0  0  0  0  0  0  0  0  0
   34.3060   28.5590   37.5990 H   0  0  0  0  0  0  0  0  0  0  0  0
   35.5410   30.7020   37.8670 H   0  0  0  0  0  0  0  0  0  0  0  0
   37.3300   24.6800   42.0600 C   0  0  0  0  0  0  0  0  0  0  0  0
   36.8150   25.8240   41.4450 C   0  0  0  0  0  0  0  0  0  0  0  0
   37.3060   26.3010   40.2410 C   0  0  0  0  0  0  0  0  0  0  0  0
   38.3330   25.5670   39.7010 N   0  0  0  0  0  0  0  0  0  0  0  0
   38.8230   24.4630   40.3020 C   0  0  0  0  0  0  0  0  0  0  0  0
   38.3380   24.0240   41.4550 N   0  0  0  0  0  0  0  0  0  0  0  0
   36.9140   24.3450   43.0010 H   0  0  0  0  0  0  0  0  0  0  0  0
   36.0130   26.3660   41.9040 H   0  0  0  0  0  0  0  0  0  0  0  0
   39.6290   24.0240   39.7220 H   0  0  0  0  0  0  0  0  0  0  0  0
   37.8200   31.0580   39.3220 C   0  0  0  0  0  0  0  0  0  0  0  0
   37.3930   32.2140   39.9540 C   0  0  0  0  0  0  0  0  0  0  0  0
   38.4440   33.1360   39.9160 C   0  0  0  0  0  0  0  0  0  0  0  0
   39.4650   32.5190   39.2710 N   0  0  0  0  0  0  0  0  0  0  0  0
   39.1030   31.2920   38.9170 N   0  0  0  0  0  0  0  0  0  0  0  0
   36.3990   32.3340   40.3890 H   0  0  0  0  0  0  0  0  0  0  0  0
   38.3840   34.1220   40.3370 H   0  0  0  0  0  0  0  0  0  0  0  0
   40.7530   33.1270   39.0120 C   0  0  0  0  0  0  0  0  0  0  0  0
   41.4740   33.2660   37.7120 C   0  0  0  0  0  0  0  0  0  0  0  0
   40.8660   32.8160   36.9010 H   0  0  0  0  0  0  0  0  0  0  0  0
   43.0030   34.1590   38.3800 S   0  0  0  0  0  0  0  0  0  0  0  0
   42.4070   34.1590   40.1140 C   0  0  0  0  0  0  0  0  0  0  0  0
   43.1030   34.6280   40.7780 H   0  0  0  0  0  0  0  0  0  0  0  0
   41.2570   33.5850   40.1640 N   0  0  0  0  0  0  0  0  0  0  0  0
  2  1  1  0  0  0  0
  3  2  1  0  0  0  0
  3 13  1  0  0  0  0
  4  3  2  0  0  0  0
  5  6  2  0  0  0  0
  5  4  1  0  0  0  0
  6  7  1  0  0  0  0
  7 20  1  0  0  0  0
  7  2  2  0  0  0  0
  8  4  1  0  0  0  0
  9  5  1  0  0  0  0
 10  6  1  0  0  0  0
 11 17  1  0  0  0  0
 12 18  1  0  0  0  0
 12 11  2  0  0  0  0
 13 12  1  0  0  0  0
 14 13  2  0  0  0  0
 14 15  1  0  0  0  0
 15 16  2  0  0  0  0
 16 11  1  0  0  0  0
 19 15  1  0  0  0  0
 20 21  1  0  0  0  0
 21 25  1  0  0  0  0
 22 21  2  0  0  0  0
 22 26  1  0  0  0  0
 23 22  1  0  0  0  0
 24 23  1  0  0  0  0
 24 20  2  0  0  0  0
 27 23  1  0  0  0  0
 27 33  1  0  0  0  0
 28 30  1  0  0  0  0
 28 27  2  0  0  0  0
 29 28  1  0  0  0  0
 30 31  1  0  0  0  0
 31 33  2  0  0  0  0
 31 32  1  0  0  0  0
M  END
>  <minimizedAffinity>
-5.05437422

$$$$
