
 OpenBabel03252509243D

 25 27  0  0  1  0  0  0  0  0999 V2000
   46.5230   35.0200   41.8660 C   0  0  1  0  0  0  0  0  0  0  0  0
   48.0470   35.3040   41.8280 C   0  0  0  0  0  0  0  0  0  0  0  0
   47.3370   34.0360   41.2510 C   0  0  2  0  0  0  0  0  0  0  0  0
   45.9350   35.7720   41.3050 H   0  0  0  0  0  0  0  0  0  0  0  0
   48.4070   36.0090   41.0480 H   0  0  0  0  0  0  0  0  0  0  0  0
   48.6460   35.1590   42.7190 H   0  0  0  0  0  0  0  0  0  0  0  0
   47.5660   33.0850   41.7990 H   0  0  0  0  0  0  0  0  0  0  0  0
   44.6810   35.3820   45.1170 C   0  0  0  0  0  0  0  0  0  0  0  0
   45.1240   35.6840   43.7900 C   0  0  0  0  0  0  0  0  0  0  0  0
   46.0640   34.8230   43.2880 C   0  0  0  0  0  0  0  0  0  0  0  0
   46.5370   33.7540   44.0240 N   0  0  0  0  0  0  0  0  0  0  0  0
   46.0870   33.5170   45.2660 C   0  0  0  0  0  0  0  0  0  0  0  0
   45.1520   34.3380   45.8130 N   0  0  0  0  0  0  0  0  0  0  0  0
   43.9370   36.0560   45.5220 H   0  0  0  0  0  0  0  0  0  0  0  0
   46.4260   32.6950   45.8780 H   0  0  0  0  0  0  0  0  0  0  0  0
   44.6500   36.8100   43.0550 N   0  0  0  0  0  0  0  0  0  0  0  0
   44.7300   37.7990   43.4210 H   0  0  0  0  0  0  0  0  0  0  0  0
   44.2080   36.6740   42.1330 H   0  0  0  0  0  0  0  0  0  0  0  0
   47.3560   33.9100   39.7710 C   0  0  0  0  0  0  0  0  0  0  0  0
   46.2920   33.1570   39.1400 C   0  0  0  0  0  0  0  0  0  0  0  0
   45.4460   32.6540   39.6520 H   0  0  0  0  0  0  0  0  0  0  0  0
   46.7120   33.2590   37.3120 S   0  0  0  0  0  0  0  0  0  0  0  0
   48.2390   34.2960   37.7520 C   0  0  0  0  0  0  0  0  0  0  0  0
   49.1520   34.8360   37.1760 H   0  0  0  0  0  0  0  0  0  0  0  0
   48.2150   34.3850   38.8700 N   0  0  0  0  0  0  0  0  0  0  0  0
  1  4  1  6  0  0  0
  1 10  1  0  0  0  0
  2  1  1  0  0  0  0
  2  6  1  0  0  0  0
  3  7  1  1  0  0  0
  3  2  1  0  0  0  0
  3  1  1  0  0  0  0
  5  2  1  0  0  0  0
  8 14  1  0  0  0  0
  8 13  1  0  0  0  0
  9  8  2  0  0  0  0
 10  9  1  0  0  0  0
 10 11  2  0  0  0  0
 11 12  1  0  0  0  0
 12 13  2  0  0  0  0
 12 15  1  0  0  0  0
 16 17  1  0  0  0  0
 16  9  1  0  0  0  0
 18 16  1  0  0  0  0
 19  3  1  0  0  0  0
 20 21  1  0  0  0  0
 20 19  2  0  0  0  0
 22 23  1  0  0  0  0
 22 20  1  0  0  0  0
 23 25  2  0  0  0  0
 24 23  1  0  0  0  0
 25 19  1  0  0  0  0
M  END
>  <minimizedAffinity>
-5.038311

>  <minimizedRMSD>
0.188957408

$$$$
