
 OpenBabel03252506373D

 42 45  0  0  1  0  0  0  0  0999 V2000
   44.5130   35.5080   45.1340 C   0  0  0  0  0  0  0  0  0  0  0  0
   45.1730   35.5000   43.8910 C   0  0  0  0  0  0  0  0  0  0  0  0
   46.0970   34.5400   43.6390 C   0  0  0  0  0  0  0  0  0  0  0  0
   46.3290   33.6360   44.6220 N   0  0  0  0  0  0  0  0  0  0  0  0
   45.7050   33.6500   45.7900 C   0  0  0  0  0  0  0  0  0  0  0  0
   44.7950   34.5790   46.0610 N   0  0  0  0  0  0  0  0  0  0  0  0
   46.0340   32.6420   46.7620 N   0  0  0  0  0  0  0  0  0  0  0  0
   45.2960   32.3910   47.9430 C   0  0  0  0  0  0  0  0  0  0  0  0
   46.3740   32.0690   48.9630 C   0  0  0  0  0  0  0  0  0  0  0  0
   47.6550   31.9530   48.1930 C   0  0  0  0  0  0  0  0  0  0  0  0
   47.1670   31.7390   46.7600 C   0  0  1  0  0  0  0  0  0  0  0  0
   43.7660   36.2770   45.3480 H   0  0  0  0  0  0  0  0  0  0  0  0
   46.6080   34.5160   42.7050 H   0  0  0  0  0  0  0  0  0  0  0  0
   44.5180   31.7090   48.0550 H   0  0  0  0  0  0  0  0  0  0  0  0
   44.8860   33.3940   48.2840 H   0  0  0  0  0  0  0  0  0  0  0  0
   46.5320   32.8780   49.7050 H   0  0  0  0  0  0  0  0  0  0  0  0
   46.1290   31.1580   49.5520 H   0  0  0  0  0  0  0  0  0  0  0  0
   48.2440   31.0700   48.5080 H   0  0  0  0  0  0  0  0  0  0  0  0
   48.2400   32.9020   48.1980 H   0  0  0  0  0  0  0  0  0  0  0  0
   47.9710   32.0640   46.1000 H   0  0  0  0  0  0  0  0  0  0  0  0
   44.8140   36.5280   42.9540 N   0  0  0  0  0  0  0  0  0  0  0  0
   43.8460   36.4230   42.5810 H   0  0  0  0  0  0  0  0  0  0  0  0
   45.4730   37.3010   42.6840 H   0  0  0  0  0  0  0  0  0  0  0  0
   46.6680   30.0460   46.5820 S   0  0  0  0  0  0  0  0  0  0  0  0
   45.5940   30.5210   43.4510 O   0  0  0  0  0  0  0  0  0  0  0  0
   44.9900   29.9750   44.3880 C   0  0  0  0  0  0  0  0  0  0  0  0
   45.1150   29.7440   45.8560 C   0  0  1  0  0  0  0  0  0  0  0  0
   44.5940   28.3390   45.9820 C   0  0  0  0  0  0  0  0  0  0  0  0
   43.2470   28.5490   45.2530 C   0  0  0  0  0  0  0  0  0  0  0  0
   43.7500   29.3150   44.0910 N   0  0  0  0  0  0  0  0  0  0  0  0
   44.2280   30.3380   46.2140 H   0  0  0  0  0  0  0  0  0  0  0  0
   44.4300   28.0490   47.0280 H   0  0  0  0  0  0  0  0  0  0  0  0
   45.1870   27.6210   45.3910 H   0  0  0  0  0  0  0  0  0  0  0  0
   42.8520   27.5710   44.9430 H   0  0  0  0  0  0  0  0  0  0  0  0
   42.5630   29.1450   45.8700 H   0  0  0  0  0  0  0  0  0  0  0  0
   42.9290   29.2600   42.8960 C   0  0  0  0  0  0  0  0  0  0  0  0
   43.2020   28.4470   41.8120 C   0  0  0  0  0  0  0  0  0  0  0  0
   44.1130   27.7690   41.8230 H   0  0  0  0  0  0  0  0  0  0  0  0
   41.7380   28.9190   40.6960 S   0  0  0  0  0  0  0  0  0  0  0  0
   41.0800   30.1350   41.9810 C   0  0  0  0  0  0  0  0  0  0  0  0
   40.1760   30.6960   41.7730 H   0  0  0  0  0  0  0  0  0  0  0  0
   41.8740   30.0700   42.9280 N   0  0  0  0  0  0  0  0  0  0  0  0
  1 12  1  0  0  0  0
  1  6  1  0  0  0  0
  2  1  2  0  0  0  0
  3  2  1  0  0  0  0
  3  4  2  0  0  0  0
  4  5  1  0  0  0  0
  5  6  2  0  0  0  0
  5  7  1  0  0  0  0
  7  8  1  0  0  0  0
  8 14  1  0  0  0  0
  8 15  1  0  0  0  0
  8  9  1  0  0  0  0
  9 17  1  0  0  0  0
  9 16  1  0  0  0  0
 10 19  1  0  0  0  0
 10 18  1  0  0  0  0
 10  9  1  0  0  0  0
 11 20  1  6  0  0  0
 11  7  1  0  0  0  0
 11 10  1  0  0  0  0
 13  3  1  0  0  0  0
 21  2  1  0  0  0  0
 22 21  1  0  0  0  0
 23 21  1  0  0  0  0
 24 11  1  0  0  0  0
 25 26  2  0  0  0  0
 26 27  1  0  0  0  0
 27 28  1  0  0  0  0
 27 31  1  1  0  0  0
 27 24  1  0  0  0  0
 28 32  1  0  0  0  0
 29 35  1  0  0  0  0
 29 28  1  0  0  0  0
 30 26  1  0  0  0  0
 30 29  1  0  0  0  0
 33 28  1  0  0  0  0
 34 29  1  0  0  0  0
 36 42  1  0  0  0  0
 36 30  1  0  0  0  0
 37 38  1  0  0  0  0
 37 36  2  0  0  0  0
 39 37  1  0  0  0  0
 39 40  1  0  0  0  0
 40 42  2  0  0  0  0
 41 40  1  0  0  0  0
M  END
>  <minimizedAffinity>
-5.26373959

>  <minimizedRMSD>
0.152953923

$$$$
