
 OpenBabel03252508023D

 40 43  0  0  1  0  0  0  0  0999 V2000
   44.2240   34.3680   41.5430 C   0  0  0  0  0  0  0  0  0  0  0  0
   45.1010   34.2530   40.6150 O   0  0  0  0  0  0  0  0  0  0  0  0
   42.0390   33.2850   41.1270 C   0  0  0  0  0  0  0  0  0  0  0  0
   42.7740   34.4180   41.3210 C   0  0  0  0  0  0  0  0  0  0  0  0
   42.1240   35.6600   41.2890 C   0  0  0  0  0  0  0  0  0  0  0  0
   40.7770   35.7970   41.0720 C   0  0  0  0  0  0  0  0  0  0  0  0
   40.0360   34.6640   40.8790 C   0  0  0  0  0  0  0  0  0  0  0  0
   40.6600   33.4570   40.9070 C   0  0  0  0  0  0  0  0  0  0  0  0
   42.6400   36.5990   41.4250 H   0  0  0  0  0  0  0  0  0  0  0  0
   40.2770   36.7500   41.0480 H   0  0  0  0  0  0  0  0  0  0  0  0
   38.9750   34.6410   40.7000 H   0  0  0  0  0  0  0  0  0  0  0  0
   40.0800   32.5320   40.7520 H   0  0  0  0  0  0  0  0  0  0  0  0
   42.7000   31.7290   41.1950 S   0  0  0  0  0  0  0  0  0  0  0  0
   41.5730   30.9000   40.5490 O   0  0  0  0  0  0  0  0  0  0  0  0
   42.8260   31.2320   42.5950 O   0  0  0  0  0  0  0  0  0  0  0  0
   43.7980   31.0710   40.0610 C   0  0  0  0  0  0  0  0  0  0  0  0
   43.0690   30.7360   38.7130 C   0  0  0  0  0  0  0  0  0  0  0  0
   41.8620   30.8300   38.3750 H   0  0  0  0  0  0  0  0  0  0  0  0
   44.3020   30.1770   37.7010 S   0  0  0  0  0  0  0  0  0  0  0  0
   45.6630   30.3580   38.9230 C   0  0  0  0  0  0  0  0  0  0  0  0
   46.7230   30.1520   38.8580 H   0  0  0  0  0  0  0  0  0  0  0  0
   45.0430   30.7740   39.8230 N   0  0  0  0  0  0  0  0  0  0  0  0
   44.5720   34.4630   42.9300 C   0  0  0  0  0  0  0  0  0  0  0  0
   44.3060   35.7140   43.5600 C   0  0  0  0  0  0  0  0  0  0  0  0
   44.6340   35.8160   44.9010 C   0  0  0  0  0  0  0  0  0  0  0  0
   45.1790   34.7410   45.5280 N   0  0  0  0  0  0  0  0  0  0  0  0
   45.4180   33.5550   44.8820 C   0  0  0  0  0  0  0  0  0  0  0  0
   45.1060   33.4850   43.6410 N   0  0  0  0  0  0  0  0  0  0  0  0
   43.8900   36.5980   43.1590 H   0  0  0  0  0  0  0  0  0  0  0  0
   44.4750   36.7290   45.4850 H   0  0  0  0  0  0  0  0  0  0  0  0
   46.0070   32.4370   45.6430 C   0  0  1  0  0  0  0  0  0  0  0  0
   46.9700   32.7550   46.7670 C   0  0  0  0  0  0  0  0  0  0  0  0
   45.5450   32.3500   47.0550 C   0  0  1  0  0  0  0  0  0  0  0  0
   46.0990   31.4630   45.1370 H   0  0  0  0  0  0  0  0  0  0  0  0
   47.7760   31.9910   46.9020 H   0  0  0  0  0  0  0  0  0  0  0  0
   47.2900   33.8000   46.7760 H   0  0  0  0  0  0  0  0  0  0  0  0
   45.4280   31.3610   47.5380 H   0  0  0  0  0  0  0  0  0  0  0  0
   44.7660   33.4030   47.6380 N   0  0  0  0  0  0  0  0  0  0  0  0
   43.9220   33.0830   48.1320 H   0  0  0  0  0  0  0  0  0  0  0  0
   45.3230   34.1250   48.1360 H   0  0  0  0  0  0  0  0  0  0  0  0
  1 23  1  0  0  0  0
  2  1  2  0  0  0  0
  3 13  1  0  0  0  0
  3  4  1  0  0  0  0
  4  1  1  0  0  0  0
  5  4  2  0  0  0  0
  5  9  1  0  0  0  0
  6  5  1  0  0  0  0
  7  8  1  0  0  0  0
  7  6  2  0  0  0  0
  8  3  2  0  0  0  0
 10  6  1  0  0  0  0
 11  7  1  0  0  0  0
 12  8  1  0  0  0  0
 13 15  2  0  0  0  0
 14 13  2  0  0  0  0
 16 13  1  0  0  0  0
 17 16  2  0  0  0  0
 18 17  1  0  0  0  0
 19 17  1  0  0  0  0
 19 20  1  0  0  0  0
 20 22  2  0  0  0  0
 21 20  1  0  0  0  0
 22 16  1  0  0  0  0
 23 24  2  0  0  0  0
 23 28  1  0  0  0  0
 24 25  1  0  0  0  0
 25 30  1  0  0  0  0
 25 26  2  0  0  0  0
 27 26  1  0  0  0  0
 27 31  1  0  0  0  0
 28 27  2  0  0  0  0
 29 24  1  0  0  0  0
 31 34  1  6  0  0  0
 31 32  1  0  0  0  0
 31 33  1  0  0  0  0
 32 36  1  0  0  0  0
 32 35  1  0  0  0  0
 32 33  1  0  0  0  0
 33 37  1  1  0  0  0
 33 38  1  0  0  0  0
 38 39  1  0  0  0  0
 38 40  1  0  0  0  0
M  END
>  <minimizedAffinity>
-5.73757076

>  <minimizedRMSD>
1.33067334

$$$$
