
 OpenBabel03242520343D

 26 28  0  0  1  0  0  0  0  0999 V2000
   37.6750   27.2130   40.5560 C   0  0  0  0  0  0  0  0  0  0  0  0
   37.1390   26.7210   41.7910 C   0  0  0  0  0  0  0  0  0  0  0  0
   36.9300   27.6150   42.8230 C   0  0  0  0  0  0  0  0  0  0  0  0
   37.2470   28.9260   42.6160 N   0  0  0  0  0  0  0  0  0  0  0  0
   37.7440   29.3600   41.4620 C   0  0  0  0  0  0  0  0  0  0  0  0
   37.9560   28.5110   40.4400 N   0  0  0  0  0  0  0  0  0  0  0  0
   37.8230   26.4840   39.7740 H   0  0  0  0  0  0  0  0  0  0  0  0
   36.5280   27.2770   43.7650 H   0  0  0  0  0  0  0  0  0  0  0  0
   36.8190   25.2660   41.9770 C   0  0  1  0  0  0  0  0  0  0  0  0
   37.3680   24.2760   41.0780 C   0  0  0  0  0  0  0  0  0  0  0  0
   37.9440   24.3500   42.4430 C   0  0  1  0  0  0  0  0  0  0  0  0
   35.8620   25.0600   42.5060 H   0  0  0  0  0  0  0  0  0  0  0  0
   38.0830   24.6320   40.2800 H   0  0  0  0  0  0  0  0  0  0  0  0
   36.8510   23.3590   40.7460 H   0  0  0  0  0  0  0  0  0  0  0  0
   37.6550   23.4890   43.1020 H   0  0  0  0  0  0  0  0  0  0  0  0
   39.3090   24.8870   42.6810 C   0  0  0  0  0  0  0  0  0  0  0  0
   39.3130   25.8990   43.6300 F   0  0  0  0  0  0  0  0  0  0  0  0
   39.8840   25.3700   41.5080 F   0  0  0  0  0  0  0  0  0  0  0  0
   40.0870   23.8720   43.1790 F   0  0  0  0  0  0  0  0  0  0  0  0
   38.1090   30.7370   41.1610 C   0  0  0  0  0  0  0  0  0  0  0  0
   39.3360   31.4980   41.5370 C   0  0  0  0  0  0  0  0  0  0  0  0
   40.0530   30.7060   42.2010 H   0  0  0  0  0  0  0  0  0  0  0  0
   38.9820   33.1650   40.7510 S   0  0  0  0  0  0  0  0  0  0  0  0
   37.3250   32.5160   40.1080 C   0  0  0  0  0  0  0  0  0  0  0  0
   36.8480   33.3760   39.5470 H   0  0  0  0  0  0  0  0  0  0  0  0
   37.2440   31.4380   40.4510 N   0  0  0  0  0  0  0  0  0  0  0  0
  1  2  1  0  0  0  0
  2  9  1  0  0  0  0
  2  3  2  0  0  0  0
  3  8  1  0  0  0  0
  4  3  1  0  0  0  0
  5  4  2  0  0  0  0
  6  1  2  0  0  0  0
  6  5  1  0  0  0  0
  7  1  1  0  0  0  0
  9 11  1  0  0  0  0
  9 12  1  1  0  0  0
 10  9  1  0  0  0  0
 10 11  1  0  0  0  0
 11 16  1  0  0  0  0
 11 15  1  1  0  0  0
 13 10  1  0  0  0  0
 14 10  1  0  0  0  0
 16 19  1  0  0  0  0
 16 17  1  0  0  0  0
 18 16  1  0  0  0  0
 20  5  1  0  0  0  0
 20 21  2  0  0  0  0
 21 22  1  0  0  0  0
 23 21  1  0  0  0  0
 24 26  2  0  0  0  0
 24 23  1  0  0  0  0
 25 24  1  0  0  0  0
 26 20  1  0  0  0  0
M  END
>  <minimizedAffinity>
-4.84839535

$$$$

 OpenBabel03242520343D

 26 28  0  0  1  0  0  0  0  0999 V2000
   39.2890   28.0920   40.5620 C   0  0  0  0  0  0  0  0  0  0  0  0
   39.4130   27.7450   41.9470 C   0  0  0  0  0  0  0  0  0  0  0  0
   39.1450   28.7120   42.8960 C   0  0  0  0  0  0  0  0  0  0  0  0
   38.7750   29.9520   42.4670 N   0  0  0  0  0  0  0  0  0  0  0  0
   38.6660   30.2520   41.1760 C   0  0  0  0  0  0  0  0  0  0  0  0
   38.9210   29.3300   40.2320 N   0  0  0  0  0  0  0  0  0  0  0  0
   39.5070   27.3090   39.8510 H   0  0  0  0  0  0  0  0  0  0  0  0
   39.2290   28.4830   43.9470 H   0  0  0  0  0  0  0  0  0  0  0  0
   39.8390   26.3690   42.3710 C   0  0  1  0  0  0  0  0  0  0  0  0
   39.4850   25.8660   43.6790 C   0  0  0  0  0  0  0  0  0  0  0  0
   38.7560   25.3070   42.5140 C   0  0  1  0  0  0  0  0  0  0  0  0
   40.7470   25.9800   41.8570 H   0  0  0  0  0  0  0  0  0  0  0  0
   38.8340   26.5160   44.3330 H   0  0  0  0  0  0  0  0  0  0  0  0
   40.1160   25.2080   44.3020 H   0  0  0  0  0  0  0  0  0  0  0  0
   39.0470   24.2520   42.2640 H   0  0  0  0  0  0  0  0  0  0  0  0
   37.3300   25.6400   42.2580 C   0  0  0  0  0  0  0  0  0  0  0  0
   37.1130   26.0230   40.9430 F   0  0  0  0  0  0  0  0  0  0  0  0
   36.8800   26.6520   43.1010 F   0  0  0  0  0  0  0  0  0  0  0  0
   36.5830   24.5090   42.4730 F   0  0  0  0  0  0  0  0  0  0  0  0
   38.2810   31.5480   40.6370 C   0  0  0  0  0  0  0  0  0  0  0  0
   37.1460   31.9020   39.7350 C   0  0  0  0  0  0  0  0  0  0  0  0
   36.5340   30.8280   39.4990 H   0  0  0  0  0  0  0  0  0  0  0  0
   37.3950   33.7530   39.5510 S   0  0  0  0  0  0  0  0  0  0  0  0
   38.9120   33.6670   40.6790 C   0  0  0  0  0  0  0  0  0  0  0  0
   39.3040   34.7260   40.7570 H   0  0  0  0  0  0  0  0  0  0  0  0
   39.0300   32.5800   40.9810 N   0  0  0  0  0  0  0  0  0  0  0  0
  1  2  1  0  0  0  0
  2  9  1  0  0  0  0
  2  3  2  0  0  0  0
  3  8  1  0  0  0  0
  4  3  1  0  0  0  0
  5  4  2  0  0  0  0
  6  1  2  0  0  0  0
  6  5  1  0  0  0  0
  7  1  1  0  0  0  0
  9 12  1  6  0  0  0
  9 11  1  0  0  0  0
  9 10  1  0  0  0  0
 10 14  1  0  0  0  0
 10 13  1  0  0  0  0
 11 15  1  6  0  0  0
 11 10  1  0  0  0  0
 16 19  1  0  0  0  0
 16 11  1  0  0  0  0
 16 18  1  0  0  0  0
 17 16  1  0  0  0  0
 20 26  1  0  0  0  0
 20  5  1  0  0  0  0
 21 20  2  0  0  0  0
 22 21  1  0  0  0  0
 23 21  1  0  0  0  0
 23 24  1  0  0  0  0
 24 25  1  0  0  0  0
 24 26  2  0  0  0  0
M  END
>  <minimizedAffinity>
-4.64137936

$$$$

 OpenBabel03242520343D

 26 28  0  0  1  0  0  0  0  0999 V2000
   39.6680   28.8930   42.4980 C   0  0  0  0  0  0  0  0  0  0  0  0
   38.2600   28.8240   42.7570 C   0  0  0  0  0  0  0  0  0  0  0  0
   37.4310   29.7490   42.1540 C   0  0  0  0  0  0  0  0  0  0  0  0
   37.9960   30.6870   41.3390 N   0  0  0  0  0  0  0  0  0  0  0  0
   39.3060   30.7320   41.1140 C   0  0  0  0  0  0  0  0  0  0  0  0
   40.1350   29.8430   41.6880 N   0  0  0  0  0  0  0  0  0  0  0  0
   40.2820   28.1520   42.9880 H   0  0  0  0  0  0  0  0  0  0  0  0
   36.3680   29.7250   42.3270 H   0  0  0  0  0  0  0  0  0  0  0  0
   37.6860   27.7820   43.6730 C   0  0  1  0  0  0  0  0  0  0  0  0
   36.2680   27.5000   43.6610 C   0  0  0  0  0  0  0  0  0  0  0  0
   37.1680   26.4950   43.0430 C   0  0  1  0  0  0  0  0  0  0  0  0
   38.2780   27.5910   44.5960 H   0  0  0  0  0  0  0  0  0  0  0  0
   35.6310   28.0430   42.9030 H   0  0  0  0  0  0  0  0  0  0  0  0
   35.6640   27.2300   44.5440 H   0  0  0  0  0  0  0  0  0  0  0  0
   37.2780   25.5560   43.6490 H   0  0  0  0  0  0  0  0  0  0  0  0
   37.2180   26.2980   41.5710 C   0  0  0  0  0  0  0  0  0  0  0  0
   38.5120   26.3780   41.0790 F   0  0  0  0  0  0  0  0  0  0  0  0
   36.4250   27.2270   40.9020 F   0  0  0  0  0  0  0  0  0  0  0  0
   36.7620   25.0340   41.2930 F   0  0  0  0  0  0  0  0  0  0  0  0
   39.9860   31.6990   40.2630 C   0  0  0  0  0  0  0  0  0  0  0  0
   40.1790   31.6920   38.7830 C   0  0  0  0  0  0  0  0  0  0  0  0
   39.6210   30.6470   38.3590 H   0  0  0  0  0  0  0  0  0  0  0  0
   41.1450   33.2820   38.5380 S   0  0  0  0  0  0  0  0  0  0  0  0
   41.0900   33.6090   40.4010 C   0  0  0  0  0  0  0  0  0  0  0  0
   41.6410   34.5850   40.5640 H   0  0  0  0  0  0  0  0  0  0  0  0
   40.5210   32.7450   40.8660 N   0  0  0  0  0  0  0  0  0  0  0  0
  1  2  1  0  0  0  0
  1  7  1  0  0  0  0
  2  9  1  0  0  0  0
  3  8  1  0  0  0  0
  3  2  2  0  0  0  0
  4  3  1  0  0  0  0
  5  4  2  0  0  0  0
  5  6  1  0  0  0  0
  6  1  2  0  0  0  0
  9 12  1  1  0  0  0
 10  9  1  0  0  0  0
 10 14  1  0  0  0  0
 11 15  1  1  0  0  0
 11 10  1  0  0  0  0
 11  9  1  0  0  0  0
 13 10  1  0  0  0  0
 16 11  1  0  0  0  0
 17 16  1  0  0  0  0
 18 16  1  0  0  0  0
 19 16  1  0  0  0  0
 20 26  1  0  0  0  0
 20  5  1  0  0  0  0
 21 20  2  0  0  0  0
 22 21  1  0  0  0  0
 23 21  1  0  0  0  0
 23 24  1  0  0  0  0
 24 25  1  0  0  0  0
 24 26  2  0  0  0  0
M  END
>  <minimizedAffinity>
-4.63746643

$$$$

 OpenBabel03242520343D

 26 28  0  0  1  0  0  0  0  0999 V2000
   37.9680   30.2990   38.7380 C   0  0  0  0  0  0  0  0  0  0  0  0
   36.8590   30.7570   39.5220 C   0  0  0  0  0  0  0  0  0  0  0  0
   36.9740   31.9620   40.1890 C   0  0  0  0  0  0  0  0  0  0  0  0
   38.1420   32.6570   40.0680 N   0  0  0  0  0  0  0  0  0  0  0  0
   39.1580   32.2120   39.3350 C   0  0  0  0  0  0  0  0  0  0  0  0
   39.0720   31.0430   38.6750 N   0  0  0  0  0  0  0  0  0  0  0  0
   37.8380   29.3540   38.2320 H   0  0  0  0  0  0  0  0  0  0  0  0
   36.1580   32.3350   40.7860 H   0  0  0  0  0  0  0  0  0  0  0  0
   35.5980   29.9500   39.6370 C   0  0  1  0  0  0  0  0  0  0  0  0
   35.6020   28.5400   39.3170 C   0  0  0  0  0  0  0  0  0  0  0  0
   35.5230   28.9130   40.7510 C   0  0  1  0  0  0  0  0  0  0  0  0
   34.6560   30.5350   39.5400 H   0  0  0  0  0  0  0  0  0  0  0  0
   36.5900   28.0670   39.0410 H   0  0  0  0  0  0  0  0  0  0  0  0
   34.7700   27.9910   38.8440 H   0  0  0  0  0  0  0  0  0  0  0  0
   34.5130   28.7360   41.2080 H   0  0  0  0  0  0  0  0  0  0  0  0
   36.6700   28.7060   41.6720 C   0  0  0  0  0  0  0  0  0  0  0  0
   37.0360   29.8760   42.3200 F   0  0  0  0  0  0  0  0  0  0  0  0
   37.7810   28.1980   41.0030 F   0  0  0  0  0  0  0  0  0  0  0  0
   36.2830   27.8160   42.6430 F   0  0  0  0  0  0  0  0  0  0  0  0
   40.4350   32.8890   39.1570 C   0  0  0  0  0  0  0  0  0  0  0  0
   41.2890   33.5850   40.1630 C   0  0  0  0  0  0  0  0  0  0  0  0
   40.6900   33.4870   41.2640 H   0  0  0  0  0  0  0  0  0  0  0  0
   42.7190   34.1550   39.0890 S   0  0  0  0  0  0  0  0  0  0  0  0
   41.9010   33.3710   37.5740 C   0  0  0  0  0  0  0  0  0  0  0  0
   42.5960   33.5730   36.7030 H   0  0  0  0  0  0  0  0  0  0  0  0
   40.9320   32.9040   37.9330 N   0  0  0  0  0  0  0  0  0  0  0  0
  1  2  1  0  0  0  0
  2  9  1  0  0  0  0
  2  3  2  0  0  0  0
  3  8  1  0  0  0  0
  4  3  1  0  0  0  0
  5  4  2  0  0  0  0
  6  1  2  0  0  0  0
  6  5  1  0  0  0  0
  7  1  1  0  0  0  0
  9 12  1  6  0  0  0
  9 11  1  0  0  0  0
 10  9  1  0  0  0  0
 10 11  1  0  0  0  0
 11 15  1  1  0  0  0
 11 16  1  0  0  0  0
 13 10  1  0  0  0  0
 14 10  1  0  0  0  0
 16 17  1  0  0  0  0
 16 19  1  0  0  0  0
 18 16  1  0  0  0  0
 20  5  1  0  0  0  0
 20 21  2  0  0  0  0
 21 22  1  0  0  0  0
 23 21  1  0  0  0  0
 24 26  2  0  0  0  0
 24 23  1  0  0  0  0
 25 24  1  0  0  0  0
 26 20  1  0  0  0  0
M  END
>  <minimizedAffinity>
-4.56959581

$$$$

 OpenBabel03242520343D

 26 28  0  0  1  0  0  0  0  0999 V2000
   38.5510   30.1560   41.4260 C   0  0  0  0  0  0  0  0  0  0  0  0
   37.2250   30.4510   40.9700 C   0  0  0  0  0  0  0  0  0  0  0  0
   36.3040   29.4240   40.9080 C   0  0  0  0  0  0  0  0  0  0  0  0
   36.7040   28.1750   41.2840 N   0  0  0  0  0  0  0  0  0  0  0  0
   37.9400   27.9240   41.7040 C   0  0  0  0  0  0  0  0  0  0  0  0
   38.8560   28.9070   41.7750 N   0  0  0  0  0  0  0  0  0  0  0  0
   39.2410   30.9860   41.4600 H   0  0  0  0  0  0  0  0  0  0  0  0
   35.2980   29.6130   40.5700 H   0  0  0  0  0  0  0  0  0  0  0  0
   36.8350   31.8400   40.5520 C   0  0  1  0  0  0  0  0  0  0  0  0
   37.8460   32.7960   40.1590 C   0  0  0  0  0  0  0  0  0  0  0  0
   37.0080   32.2100   39.0840 C   0  0  1  0  0  0  0  0  0  0  0  0
   35.8660   32.2000   40.9660 H   0  0  0  0  0  0  0  0  0  0  0  0
   38.9170   32.4420   40.1230 H   0  0  0  0  0  0  0  0  0  0  0  0
   37.8090   33.8810   40.3580 H   0  0  0  0  0  0  0  0  0  0  0  0
   36.2610   32.9290   38.6520 H   0  0  0  0  0  0  0  0  0  0  0  0
   37.5630   31.2290   38.1150 C   0  0  0  0  0  0  0  0  0  0  0  0
   36.7510   30.1130   37.9820 F   0  0  0  0  0  0  0  0  0  0  0  0
   38.8410   30.8140   38.4800 F   0  0  0  0  0  0  0  0  0  0  0  0
   37.6190   31.8310   36.8830 F   0  0  0  0  0  0  0  0  0  0  0  0
   38.4460   26.6240   42.1200 C   0  0  0  0  0  0  0  0  0  0  0  0
   39.7510   26.2700   42.7520 C   0  0  0  0  0  0  0  0  0  0  0  0
   40.3870   27.3490   42.8770 H   0  0  0  0  0  0  0  0  0  0  0  0
   39.5670   24.4130   42.9430 S   0  0  0  0  0  0  0  0  0  0  0  0
   37.8450   24.4970   42.1640 C   0  0  0  0  0  0  0  0  0  0  0  0
   37.4570   23.4340   42.1470 H   0  0  0  0  0  0  0  0  0  0  0  0
   37.6530   25.5880   41.9190 N   0  0  0  0  0  0  0  0  0  0  0  0
  1  7  1  0  0  0  0
  1  6  1  0  0  0  0
  2  1  2  0  0  0  0
  3  2  1  0  0  0  0
  3  4  2  0  0  0  0
  4  5  1  0  0  0  0
  5  6  2  0  0  0  0
  5 20  1  0  0  0  0
  8  3  1  0  0  0  0
  9 12  1  1  0  0  0
  9  2  1  0  0  0  0
 10 14  1  0  0  0  0
 10  9  1  0  0  0  0
 11 15  1  6  0  0  0
 11 10  1  0  0  0  0
 11  9  1  0  0  0  0
 13 10  1  0  0  0  0
 16 18  1  0  0  0  0
 16 11  1  0  0  0  0
 17 16  1  0  0  0  0
 19 16  1  0  0  0  0
 20 21  2  0  0  0  0
 21 22  1  0  0  0  0
 21 23  1  0  0  0  0
 24 23  1  0  0  0  0
 25 24  1  0  0  0  0
 26 20  1  0  0  0  0
 26 24  2  0  0  0  0
M  END
>  <minimizedAffinity>
-4.54909039

$$$$

 OpenBabel03242520343D

 26 28  0  0  1  0  0  0  0  0999 V2000
   39.5310   30.8030   42.4900 C   0  0  0  0  0  0  0  0  0  0  0  0
   38.4770   29.8930   42.1560 C   0  0  0  0  0  0  0  0  0  0  0  0
   38.1390   29.7330   40.8260 C   0  0  0  0  0  0  0  0  0  0  0  0
   38.8280   30.4520   39.8940 N   0  0  0  0  0  0  0  0  0  0  0  0
   39.8040   31.2920   40.2280 C   0  0  0  0  0  0  0  0  0  0  0  0
   40.1520   31.4660   41.5150 N   0  0  0  0  0  0  0  0  0  0  0  0
   39.7650   30.9000   43.5400 H   0  0  0  0  0  0  0  0  0  0  0  0
   37.3500   29.0550   40.5410 H   0  0  0  0  0  0  0  0  0  0  0  0
   37.7360   29.1330   43.2180 C   0  0  1  0  0  0  0  0  0  0  0  0
   37.0670   27.8920   42.8970 C   0  0  0  0  0  0  0  0  0  0  0  0
   38.3260   27.8060   43.6790 C   0  0  1  0  0  0  0  0  0  0  0  0
   37.3720   29.7510   44.0690 H   0  0  0  0  0  0  0  0  0  0  0  0
   37.1760   27.4940   41.8460 H   0  0  0  0  0  0  0  0  0  0  0  0
   36.1180   27.5450   43.3400 H   0  0  0  0  0  0  0  0  0  0  0  0
   38.1690   27.5300   44.7560 H   0  0  0  0  0  0  0  0  0  0  0  0
   39.5800   27.2850   43.0770 C   0  0  0  0  0  0  0  0  0  0  0  0
   40.6640   28.1100   43.3350 F   0  0  0  0  0  0  0  0  0  0  0  0
   39.4590   27.1200   41.7000 F   0  0  0  0  0  0  0  0  0  0  0  0
   39.8580   26.0700   43.6530 F   0  0  0  0  0  0  0  0  0  0  0  0
   40.5840   32.0970   39.2980 C   0  0  0  0  0  0  0  0  0  0  0  0
   41.0850   33.4950   39.4410 C   0  0  0  0  0  0  0  0  0  0  0  0
   40.6980   33.8950   40.5700 H   0  0  0  0  0  0  0  0  0  0  0  0
   41.9750   33.7280   37.8060 S   0  0  0  0  0  0  0  0  0  0  0  0
   41.5060   31.9680   37.2930 C   0  0  0  0  0  0  0  0  0  0  0  0
   41.9460   31.8150   36.2610 H   0  0  0  0  0  0  0  0  0  0  0  0
   40.9100   31.5280   38.1520 N   0  0  0  0  0  0  0  0  0  0  0  0
  1  7  1  0  0  0  0
  2  1  1  0  0  0  0
  2  9  1  0  0  0  0
  3  2  2  0  0  0  0
  4  5  2  0  0  0  0
  4  3  1  0  0  0  0
  5  6  1  0  0  0  0
  6  1  2  0  0  0  0
  8  3  1  0  0  0  0
  9 11  1  0  0  0  0
  9 12  1  1  0  0  0
 10  9  1  0  0  0  0
 10 14  1  0  0  0  0
 10 11  1  0  0  0  0
 11 15  1  1  0  0  0
 13 10  1  0  0  0  0
 16 17  1  0  0  0  0
 16 19  1  0  0  0  0
 16 11  1  0  0  0  0
 18 16  1  0  0  0  0
 20 21  2  0  0  0  0
 20  5  1  0  0  0  0
 21 22  1  0  0  0  0
 23 21  1  0  0  0  0
 24 23  1  0  0  0  0
 24 26  2  0  0  0  0
 25 24  1  0  0  0  0
 26 20  1  0  0  0  0
M  END
>  <minimizedAffinity>
-4.4482007

$$$$

 OpenBabel03242520343D

 26 28  0  0  1  0  0  0  0  0999 V2000
   38.1620   29.2960   40.8330 C   0  0  0  0  0  0  0  0  0  0  0  0
   38.2900   29.4780   42.2490 C   0  0  0  0  0  0  0  0  0  0  0  0
   39.1670   30.4380   42.7160 C   0  0  0  0  0  0  0  0  0  0  0  0
   39.8710   31.1670   41.8020 N   0  0  0  0  0  0  0  0  0  0  0  0
   39.7370   30.9810   40.4930 C   0  0  0  0  0  0  0  0  0  0  0  0
   38.8890   30.0540   40.0120 N   0  0  0  0  0  0  0  0  0  0  0  0
   37.4670   28.5370   40.5090 H   0  0  0  0  0  0  0  0  0  0  0  0
   39.2860   30.6000   43.7750 H   0  0  0  0  0  0  0  0  0  0  0  0
   37.5050   28.6400   43.2170 C   0  0  1  0  0  0  0  0  0  0  0  0
   36.9230   27.3860   42.7940 C   0  0  0  0  0  0  0  0  0  0  0  0
   38.1190   27.3210   43.6690 C   0  0  1  0  0  0  0  0  0  0  0  0
   37.0470   29.2040   44.0610 H   0  0  0  0  0  0  0  0  0  0  0  0
   37.1330   27.0400   41.7390 H   0  0  0  0  0  0  0  0  0  0  0  0
   35.9600   26.9790   43.1450 H   0  0  0  0  0  0  0  0  0  0  0  0
   37.8920   26.9920   44.7180 H   0  0  0  0  0  0  0  0  0  0  0  0
   39.4400   26.8830   43.1490 C   0  0  0  0  0  0  0  0  0  0  0  0
   40.4630   27.7310   43.5420 F   0  0  0  0  0  0  0  0  0  0  0  0
   39.4410   26.7930   41.7590 F   0  0  0  0  0  0  0  0  0  0  0  0
   39.7200   25.6480   43.6800 F   0  0  0  0  0  0  0  0  0  0  0  0
   40.4500   31.7130   39.4550 C   0  0  0  0  0  0  0  0  0  0  0  0
   41.2270   32.9830   39.5520 C   0  0  0  0  0  0  0  0  0  0  0  0
   41.1640   33.3450   40.7560 H   0  0  0  0  0  0  0  0  0  0  0  0
   41.7920   33.1960   37.7760 S   0  0  0  0  0  0  0  0  0  0  0  0
   40.9010   31.5990   37.2940 C   0  0  0  0  0  0  0  0  0  0  0  0
   41.0820   31.4610   36.1850 H   0  0  0  0  0  0  0  0  0  0  0  0
   40.4190   31.1980   38.2390 N   0  0  0  0  0  0  0  0  0  0  0  0
  1  2  1  0  0  0  0
  2  3  2  0  0  0  0
  2  9  1  0  0  0  0
  3  8  1  0  0  0  0
  4  3  1  0  0  0  0
  5  4  2  0  0  0  0
  6  5  1  0  0  0  0
  6  1  2  0  0  0  0
  7  1  1  0  0  0  0
  9 11  1  0  0  0  0
  9 12  1  1  0  0  0
 10 14  1  0  0  0  0
 10  9  1  0  0  0  0
 10 11  1  0  0  0  0
 11 15  1  1  0  0  0
 13 10  1  0  0  0  0
 16 17  1  0  0  0  0
 16 11  1  0  0  0  0
 16 19  1  0  0  0  0
 18 16  1  0  0  0  0
 20 21  2  0  0  0  0
 20  5  1  0  0  0  0
 21 22  1  0  0  0  0
 23 21  1  0  0  0  0
 24 23  1  0  0  0  0
 24 26  2  0  0  0  0
 25 24  1  0  0  0  0
 26 20  1  0  0  0  0
M  END
>  <minimizedAffinity>
-4.44787931

$$$$

 OpenBabel03242520343D

 26 28  0  0  1  0  0  0  0  0999 V2000
   38.4190   29.9530   40.7260 C   0  0  0  0  0  0  0  0  0  0  0  0
   37.1790   30.6420   40.5230 C   0  0  0  0  0  0  0  0  0  0  0  0
   36.0030   29.9210   40.5970 C   0  0  0  0  0  0  0  0  0  0  0  0
   36.0810   28.5850   40.8610 N   0  0  0  0  0  0  0  0  0  0  0  0
   37.2430   27.9660   41.0450 C   0  0  0  0  0  0  0  0  0  0  0  0
   38.4020   28.6440   40.9790 N   0  0  0  0  0  0  0  0  0  0  0  0
   39.3150   30.5510   40.6600 H   0  0  0  0  0  0  0  0  0  0  0  0
   35.0530   30.4090   40.4500 H   0  0  0  0  0  0  0  0  0  0  0  0
   37.1440   32.1120   40.2210 C   0  0  1  0  0  0  0  0  0  0  0  0
   38.3470   32.8050   39.8180 C   0  0  0  0  0  0  0  0  0  0  0  0
   37.3310   32.5400   38.7700 C   0  0  1  0  0  0  0  0  0  0  0  0
   36.3260   32.6750   40.7240 H   0  0  0  0  0  0  0  0  0  0  0  0
   39.2860   32.1910   39.6850 H   0  0  0  0  0  0  0  0  0  0  0  0
   38.6060   33.8430   40.0860 H   0  0  0  0  0  0  0  0  0  0  0  0
   36.7760   33.4570   38.4380 H   0  0  0  0  0  0  0  0  0  0  0  0
   37.5590   31.5280   37.7060 C   0  0  0  0  0  0  0  0  0  0  0  0
   36.5480   30.5800   37.6630 F   0  0  0  0  0  0  0  0  0  0  0  0
   38.7790   30.8770   37.8690 F   0  0  0  0  0  0  0  0  0  0  0  0
   37.5530   32.1740   36.4940 F   0  0  0  0  0  0  0  0  0  0  0  0
   37.4130   26.5480   41.3270 C   0  0  0  0  0  0  0  0  0  0  0  0
   38.2290   25.8800   42.3830 C   0  0  0  0  0  0  0  0  0  0  0  0
   38.7850   26.8010   43.0350 H   0  0  0  0  0  0  0  0  0  0  0  0
   37.8730   24.0730   42.0250 S   0  0  0  0  0  0  0  0  0  0  0  0
   36.7470   24.5730   40.5890 C   0  0  0  0  0  0  0  0  0  0  0  0
   36.3560   23.6070   40.1460 H   0  0  0  0  0  0  0  0  0  0  0  0
   36.7580   25.7060   40.5480 N   0  0  0  0  0  0  0  0  0  0  0  0
  1  6  1  0  0  0  0
  2  3  1  0  0  0  0
  2  1  2  0  0  0  0
  3  4  2  0  0  0  0
  4  5  1  0  0  0  0
  5 20  1  0  0  0  0
  6  5  2  0  0  0  0
  7  1  1  0  0  0  0
  8  3  1  0  0  0  0
  9  2  1  0  0  0  0
  9 12  1  1  0  0  0
 10 14  1  0  0  0  0
 10  9  1  0  0  0  0
 11 15  1  6  0  0  0
 11 10  1  0  0  0  0
 11  9  1  0  0  0  0
 13 10  1  0  0  0  0
 16 18  1  0  0  0  0
 16 11  1  0  0  0  0
 17 16  1  0  0  0  0
 19 16  1  0  0  0  0
 20 21  2  0  0  0  0
 21 22  1  0  0  0  0
 23 21  1  0  0  0  0
 24 23  1  0  0  0  0
 25 24  1  0  0  0  0
 26 24  2  0  0  0  0
 26 20  1  0  0  0  0
M  END
>  <minimizedAffinity>
-4.43169975

$$$$

 OpenBabel03242520343D

 26 28  0  0  1  0  0  0  0  0999 V2000
   36.6400   27.1970   40.8560 C   0  0  0  0  0  0  0  0  0  0  0  0
   37.3240   26.5110   41.9120 C   0  0  0  0  0  0  0  0  0  0  0  0
   38.2280   27.2180   42.6820 C   0  0  0  0  0  0  0  0  0  0  0  0
   38.4260   28.5370   42.3960 N   0  0  0  0  0  0  0  0  0  0  0  0
   37.7800   29.1530   41.4100 C   0  0  0  0  0  0  0  0  0  0  0  0
   36.8940   28.4890   40.6470 N   0  0  0  0  0  0  0  0  0  0  0  0
   35.9420   26.6100   40.2780 H   0  0  0  0  0  0  0  0  0  0  0  0
   38.7590   26.7320   43.4840 H   0  0  0  0  0  0  0  0  0  0  0  0
   37.0850   25.0530   42.1790 C   0  0  1  0  0  0  0  0  0  0  0  0
   36.5280   24.2040   41.1510 C   0  0  0  0  0  0  0  0  0  0  0  0
   37.9720   24.0480   41.4560 C   0  0  1  0  0  0  0  0  0  0  0  0
   36.9370   24.7910   43.2510 H   0  0  0  0  0  0  0  0  0  0  0  0
   36.3410   24.6620   40.1360 H   0  0  0  0  0  0  0  0  0  0  0  0
   35.8340   23.3640   41.3240 H   0  0  0  0  0  0  0  0  0  0  0  0
   38.2160   23.1010   42.0070 H   0  0  0  0  0  0  0  0  0  0  0  0
   39.0200   24.5070   40.5070 C   0  0  0  0  0  0  0  0  0  0  0  0
   40.0480   25.1780   41.1520 F   0  0  0  0  0  0  0  0  0  0  0  0
   38.4920   25.3340   39.5200 F   0  0  0  0  0  0  0  0  0  0  0  0
   39.5760   23.3990   39.9170 F   0  0  0  0  0  0  0  0  0  0  0  0
   37.9350   30.5530   41.0400 C   0  0  0  0  0  0  0  0  0  0  0  0
   36.9560   31.4800   40.4020 C   0  0  0  0  0  0  0  0  0  0  0  0
   35.9040   30.8140   40.2220 H   0  0  0  0  0  0  0  0  0  0  0  0
   37.9700   33.0550   40.2910 S   0  0  0  0  0  0  0  0  0  0  0  0
   39.4390   32.1720   41.0940 C   0  0  0  0  0  0  0  0  0  0  0  0
   40.2670   32.9410   41.1610 H   0  0  0  0  0  0  0  0  0  0  0  0
   39.1050   31.1070   41.2970 N   0  0  0  0  0  0  0  0  0  0  0  0
  1  2  1  0  0  0  0
  2  9  1  0  0  0  0
  2  3  2  0  0  0  0
  3  8  1  0  0  0  0
  4  3  1  0  0  0  0
  5  4  2  0  0  0  0
  6  1  2  0  0  0  0
  6  5  1  0  0  0  0
  7  1  1  0  0  0  0
  9 12  1  1  0  0  0
 10 14  1  0  0  0  0
 10 11  1  0  0  0  0
 10  9  1  0  0  0  0
 11 15  1  1  0  0  0
 11  9  1  0  0  0  0
 13 10  1  0  0  0  0
 16 17  1  0  0  0  0
 16 11  1  0  0  0  0
 18 16  1  0  0  0  0
 19 16  1  0  0  0  0
 20 26  1  0  0  0  0
 20  5  1  0  0  0  0
 21 20  2  0  0  0  0
 22 21  1  0  0  0  0
 23 21  1  0  0  0  0
 23 24  1  0  0  0  0
 24 25  1  0  0  0  0
 24 26  2  0  0  0  0
M  END
>  <minimizedAffinity>
-4.41557693

$$$$
