
 OpenBabel03252507473D

 35 37  0  0  0  0  0  0  0  0999 V2000
   38.2950   29.7260   42.1460 C   0  0  0  0  0  0  0  0  0  0  0  0
   38.2830   30.7080   42.6350 H   0  0  0  0  0  0  0  0  0  0  0  0
   37.3420   29.1530   42.3180 H   0  0  0  0  0  0  0  0  0  0  0  0
   39.3800   28.8720   42.6570 C   0  0  0  0  0  0  0  0  0  0  0  0
   39.0380   27.5820   43.0440 C   0  0  0  0  0  0  0  0  0  0  0  0
   40.0070   26.7120   43.5370 C   0  0  0  0  0  0  0  0  0  0  0  0
   41.2840   27.1830   43.6200 N   0  0  0  0  0  0  0  0  0  0  0  0
   41.5830   28.4390   43.2360 C   0  0  0  0  0  0  0  0  0  0  0  0
   40.6490   29.2590   42.7670 N   0  0  0  0  0  0  0  0  0  0  0  0
   39.7010   25.7140   43.8290 H   0  0  0  0  0  0  0  0  0  0  0  0
   42.6430   28.6950   43.3520 H   0  0  0  0  0  0  0  0  0  0  0  0
   37.3360   27.0210   42.9100 S   0  0  0  0  0  0  0  0  0  0  0  0
   37.1770   25.8070   41.5800 C   0  0  0  0  0  0  0  0  0  0  0  0
   36.7680   26.1280   40.2690 C   0  0  0  0  0  0  0  0  0  0  0  0
   36.5190   27.1560   39.9780 H   0  0  0  0  0  0  0  0  0  0  0  0
   36.8220   24.4740   39.4510 S   0  0  0  0  0  0  0  0  0  0  0  0
   37.3950   23.6480   41.0600 C   0  0  0  0  0  0  0  0  0  0  0  0
   37.5770   22.5740   41.0690 H   0  0  0  0  0  0  0  0  0  0  0  0
   37.4550   24.5390   41.8260 N   0  0  0  0  0  0  0  0  0  0  0  0
   38.3800   29.9640   40.6640 C   0  0  0  0  0  0  0  0  0  0  0  0
   39.3040   29.4480   40.2970 H   0  0  0  0  0  0  0  0  0  0  0  0
   37.5240   29.5090   40.1150 H   0  0  0  0  0  0  0  0  0  0  0  0
   38.5510   31.3930   40.2870 C   0  0  0  0  0  0  0  0  0  0  0  0
   37.4730   32.3120   40.4620 C   0  0  0  0  0  0  0  0  0  0  0  0
   38.1770   33.8980   39.8650 S   0  0  0  0  0  0  0  0  0  0  0  0
   39.8300   33.0450   39.4730 C   0  0  0  0  0  0  0  0  0  0  0  0
   39.6090   31.9720   39.7880 N   0  0  0  0  0  0  0  0  0  0  0  0
   36.4920   32.0960   40.8550 H   0  0  0  0  0  0  0  0  0  0  0  0
   40.9200   33.7290   38.9390 O   0  0  0  0  0  0  0  0  0  0  0  0
   42.8180   32.0470   38.1880 O   0  0  0  0  0  0  0  0  0  0  0  0
   41.7570   32.9870   37.6520 P   0  0  0  0  0  0  0  0  0  0  0  0
   40.6240   32.0940   36.7670 O   0  0  0  0  0  0  0  0  0  0  0  0
   40.4450   31.2720   37.3100 H   0  0  0  0  0  0  0  0  0  0  0  0
   42.4260   34.1600   36.6360 O   0  0  0  0  0  0  0  0  0  0  0  0
   41.8800   34.2750   35.8180 H   0  0  0  0  0  0  0  0  0  0  0  0
  1  3  1  0  0  0  0
  1  2  1  0  0  0  0
  1  4  1  0  0  0  0
  4  9  2  0  0  0  0
  4  5  1  0  0  0  0
  5  6  2  0  0  0  0
  6  7  1  0  0  0  0
  6 10  1  0  0  0  0
  8 11  1  0  0  0  0
  8  7  2  0  0  0  0
  9  8  1  0  0  0  0
 12  5  1  0  0  0  0
 13 19  1  0  0  0  0
 13 12  1  0  0  0  0
 14 13  2  0  0  0  0
 15 14  1  0  0  0  0
 16 14  1  0  0  0  0
 16 17  1  0  0  0  0
 17 18  1  0  0  0  0
 17 19  2  0  0  0  0
 20  1  1  0  0  0  0
 21 20  1  0  0  0  0
 22 20  1  0  0  0  0
 23 24  2  0  0  0  0
 23 20  1  0  0  0  0
 24 28  1  0  0  0  0
 25 24  1  0  0  0  0
 26 27  2  0  0  0  0
 26 25  1  0  0  0  0
 27 23  1  0  0  0  0
 29 26  1  0  0  0  0
 31 30  2  0  0  0  0
 31 29  1  0  0  0  0
 32 33  1  0  0  0  0
 32 31  1  0  0  0  0
 34 31  1  0  0  0  0
 35 34  1  0  0  0  0
M  END
>  <minimizedAffinity>
-5.34495592

$$$$

 OpenBabel03252507473D

 35 37  0  0  0  0  0  0  0  0999 V2000
   39.6160   28.6560   42.6680 C   0  0  0  0  0  0  0  0  0  0  0  0
   39.9870   28.9570   43.6570 H   0  0  0  0  0  0  0  0  0  0  0  0
   38.6010   29.0870   42.4440 H   0  0  0  0  0  0  0  0  0  0  0  0
   39.4700   27.1950   42.5590 C   0  0  0  0  0  0  0  0  0  0  0  0
   38.1790   26.6990   42.4320 C   0  0  0  0  0  0  0  0  0  0  0  0
   37.9570   25.3280   42.3220 C   0  0  0  0  0  0  0  0  0  0  0  0
   39.0500   24.5150   42.3460 N   0  0  0  0  0  0  0  0  0  0  0  0
   40.2900   25.0280   42.4690 C   0  0  0  0  0  0  0  0  0  0  0  0
   40.4880   26.3370   42.5730 N   0  0  0  0  0  0  0  0  0  0  0  0
   36.9350   24.9800   42.2260 H   0  0  0  0  0  0  0  0  0  0  0  0
   41.0820   24.2700   42.4740 H   0  0  0  0  0  0  0  0  0  0  0  0
   36.7780   27.8230   42.4090 S   0  0  0  0  0  0  0  0  0  0  0  0
   36.4340   28.3630   40.7180 C   0  0  0  0  0  0  0  0  0  0  0  0
   35.3120   29.1360   40.3530 C   0  0  0  0  0  0  0  0  0  0  0  0
   34.5700   29.4610   41.0930 H   0  0  0  0  0  0  0  0  0  0  0  0
   35.5680   29.3240   38.5350 S   0  0  0  0  0  0  0  0  0  0  0  0
   37.1670   28.3050   38.6110 C   0  0  0  0  0  0  0  0  0  0  0  0
   37.7280   28.1290   37.6940 H   0  0  0  0  0  0  0  0  0  0  0  0
   37.2660   28.0250   39.7490 N   0  0  0  0  0  0  0  0  0  0  0  0
   40.5530   29.2340   41.6440 C   0  0  0  0  0  0  0  0  0  0  0  0
   41.5280   29.4290   42.1580 H   0  0  0  0  0  0  0  0  0  0  0  0
   40.7670   28.5160   40.8190 H   0  0  0  0  0  0  0  0  0  0  0  0
   40.1220   30.5500   41.1010 C   0  0  0  0  0  0  0  0  0  0  0  0
   38.8110   31.0420   41.3780 C   0  0  0  0  0  0  0  0  0  0  0  0
   38.7800   32.6560   40.5060 S   0  0  0  0  0  0  0  0  0  0  0  0
   40.5650   32.3940   39.9050 C   0  0  0  0  0  0  0  0  0  0  0  0
   40.8080   31.3780   40.3610 N   0  0  0  0  0  0  0  0  0  0  0  0
   38.0450   30.5590   41.9640 H   0  0  0  0  0  0  0  0  0  0  0  0
   41.2360   33.3250   39.1140 O   0  0  0  0  0  0  0  0  0  0  0  0
   42.5260   31.6340   37.5420 O   0  0  0  0  0  0  0  0  0  0  0  0
   41.6340   32.8590   37.5230 P   0  0  0  0  0  0  0  0  0  0  0  0
   40.1860   32.4750   36.7360 O   0  0  0  0  0  0  0  0  0  0  0  0
   39.9210   31.5740   37.0840 H   0  0  0  0  0  0  0  0  0  0  0  0
   42.3650   34.1430   36.7030 O   0  0  0  0  0  0  0  0  0  0  0  0
   41.7230   34.5860   36.0920 H   0  0  0  0  0  0  0  0  0  0  0  0
  1  2  1  0  0  0  0
  3  1  1  0  0  0  0
  4  9  1  0  0  0  0
  4  1  1  0  0  0  0
  5  4  2  0  0  0  0
  6  7  2  0  0  0  0
  6  5  1  0  0  0  0
  7  8  1  0  0  0  0
  8 11  1  0  0  0  0
  8  9  2  0  0  0  0
 10  6  1  0  0  0  0
 12  5  1  0  0  0  0
 13 12  1  0  0  0  0
 14 13  2  0  0  0  0
 14 15  1  0  0  0  0
 16 17  1  0  0  0  0
 16 14  1  0  0  0  0
 17 19  2  0  0  0  0
 18 17  1  0  0  0  0
 19 13  1  0  0  0  0
 20 21  1  0  0  0  0
 20  1  1  0  0  0  0
 22 20  1  0  0  0  0
 23 24  2  0  0  0  0
 23 20  1  0  0  0  0
 24 28  1  0  0  0  0
 25 24  1  0  0  0  0
 26 27  2  0  0  0  0
 26 25  1  0  0  0  0
 27 23  1  0  0  0  0
 29 26  1  0  0  0  0
 31 30  2  0  0  0  0
 31 29  1  0  0  0  0
 32 33  1  0  0  0  0
 32 31  1  0  0  0  0
 34 31  1  0  0  0  0
 35 34  1  0  0  0  0
M  END
>  <minimizedAffinity>
-5.27449083

$$$$

 OpenBabel03252507473D

 35 37  0  0  0  0  0  0  0  0999 V2000
   36.8380   27.2350   42.2760 C   0  0  0  0  0  0  0  0  0  0  0  0
   35.9140   27.0900   42.8510 H   0  0  0  0  0  0  0  0  0  0  0  0
   36.7380   28.0520   41.5080 H   0  0  0  0  0  0  0  0  0  0  0  0
   37.2170   26.0220   41.5310 C   0  0  0  0  0  0  0  0  0  0  0  0
   37.4220   26.1600   40.1650 C   0  0  0  0  0  0  0  0  0  0  0  0
   37.7840   25.0610   39.3900 C   0  0  0  0  0  0  0  0  0  0  0  0
   37.9230   23.8660   40.0300 N   0  0  0  0  0  0  0  0  0  0  0  0
   37.7170   23.7650   41.3570 C   0  0  0  0  0  0  0  0  0  0  0  0
   37.3730   24.8220   42.0850 N   0  0  0  0  0  0  0  0  0  0  0  0
   37.9340   25.2090   38.3270 H   0  0  0  0  0  0  0  0  0  0  0  0
   37.8600   22.7520   41.7510 H   0  0  0  0  0  0  0  0  0  0  0  0
   37.2230   27.7640   39.3790 S   0  0  0  0  0  0  0  0  0  0  0  0
   35.7650   27.7630   38.3100 C   0  0  0  0  0  0  0  0  0  0  0  0
   35.1060   28.9340   37.8790 C   0  0  0  0  0  0  0  0  0  0  0  0
   35.4520   29.9320   38.1750 H   0  0  0  0  0  0  0  0  0  0  0  0
   33.7440   28.2330   36.8500 S   0  0  0  0  0  0  0  0  0  0  0  0
   34.3290   26.4630   37.2020 C   0  0  0  0  0  0  0  0  0  0  0  0
   33.7840   25.6280   36.7650 H   0  0  0  0  0  0  0  0  0  0  0  0
   35.2670   26.6120   37.8950 N   0  0  0  0  0  0  0  0  0  0  0  0
   37.8980   27.6910   43.2390 C   0  0  0  0  0  0  0  0  0  0  0  0
   37.3750   28.1320   44.1250 H   0  0  0  0  0  0  0  0  0  0  0  0
   38.5110   26.8440   43.6210 H   0  0  0  0  0  0  0  0  0  0  0  0
   38.7680   28.7780   42.7140 C   0  0  0  0  0  0  0  0  0  0  0  0
   40.1880   28.6390   42.7530 C   0  0  0  0  0  0  0  0  0  0  0  0
   40.7810   30.2070   42.0070 S   0  0  0  0  0  0  0  0  0  0  0  0
   38.9900   30.7970   41.7640 C   0  0  0  0  0  0  0  0  0  0  0  0
   38.4040   29.9160   42.1880 N   0  0  0  0  0  0  0  0  0  0  0  0
   40.7490   27.8010   43.1350 H   0  0  0  0  0  0  0  0  0  0  0  0
   38.6750   32.0290   41.1930 O   0  0  0  0  0  0  0  0  0  0  0  0
   37.5800   31.3100   38.8960 O   0  0  0  0  0  0  0  0  0  0  0  0
   37.3160   32.0930   40.1660 P   0  0  0  0  0  0  0  0  0  0  0  0
   36.0270   31.3780   40.9970 O   0  0  0  0  0  0  0  0  0  0  0  0
   36.1910   30.3910   40.9510 H   0  0  0  0  0  0  0  0  0  0  0  0
   36.9110   33.6990   39.8290 O   0  0  0  0  0  0  0  0  0  0  0  0
   36.1380   33.9920   40.3750 H   0  0  0  0  0  0  0  0  0  0  0  0
  1  2  1  0  0  0  0
  1 20  1  0  0  0  0
  3  1  1  0  0  0  0
  4  9  1  0  0  0  0
  4  1  1  0  0  0  0
  5  4  2  0  0  0  0
  6  7  2  0  0  0  0
  6  5  1  0  0  0  0
  7  8  1  0  0  0  0
  8 11  1  0  0  0  0
  8  9  2  0  0  0  0
 10  6  1  0  0  0  0
 12  5  1  0  0  0  0
 13 12  1  0  0  0  0
 14 15  1  0  0  0  0
 14 13  2  0  0  0  0
 16 17  1  0  0  0  0
 16 14  1  0  0  0  0
 17 19  2  0  0  0  0
 18 17  1  0  0  0  0
 19 13  1  0  0  0  0
 20 22  1  0  0  0  0
 20 21  1  0  0  0  0
 23 24  2  0  0  0  0
 23 20  1  0  0  0  0
 24 28  1  0  0  0  0
 25 24  1  0  0  0  0
 26 25  1  0  0  0  0
 26 27  2  0  0  0  0
 27 23  1  0  0  0  0
 29 26  1  0  0  0  0
 30 31  2  0  0  0  0
 31 32  1  0  0  0  0
 31 29  1  0  0  0  0
 33 32  1  0  0  0  0
 34 31  1  0  0  0  0
 34 35  1  0  0  0  0
M  END
>  <minimizedAffinity>
-5.13635397

$$$$

 OpenBabel03252507473D

 35 37  0  0  0  0  0  0  0  0999 V2000
   36.3940   30.3360   40.7010 C   0  0  0  0  0  0  0  0  0  0  0  0
   36.0150   31.0970   41.3950 H   0  0  0  0  0  0  0  0  0  0  0  0
   35.5930   29.6090   40.3880 H   0  0  0  0  0  0  0  0  0  0  0  0
   37.4640   29.5250   41.3070 C   0  0  0  0  0  0  0  0  0  0  0  0
   37.7720   28.3230   40.6840 C   0  0  0  0  0  0  0  0  0  0  0  0
   38.7720   27.4990   41.1940 C   0  0  0  0  0  0  0  0  0  0  0  0
   39.4190   27.9250   42.3160 N   0  0  0  0  0  0  0  0  0  0  0  0
   39.0970   29.0960   42.8960 C   0  0  0  0  0  0  0  0  0  0  0  0
   38.1410   29.8740   42.3990 N   0  0  0  0  0  0  0  0  0  0  0  0
   38.9830   26.5680   40.6800 H   0  0  0  0  0  0  0  0  0  0  0  0
   39.6890   29.3250   43.7900 H   0  0  0  0  0  0  0  0  0  0  0  0
   36.8820   27.8160   39.2070 S   0  0  0  0  0  0  0  0  0  0  0  0
   36.5000   26.0510   39.2790 C   0  0  0  0  0  0  0  0  0  0  0  0
   36.5980   25.2730   40.4520 C   0  0  0  0  0  0  0  0  0  0  0  0
   36.9180   25.7070   41.4070 H   0  0  0  0  0  0  0  0  0  0  0  0
   36.0790   23.6120   39.8370 S   0  0  0  0  0  0  0  0  0  0  0  0
   35.8240   24.2910   38.0840 C   0  0  0  0  0  0  0  0  0  0  0  0
   35.4880   23.6170   37.2980 H   0  0  0  0  0  0  0  0  0  0  0  0
   36.1040   25.4290   38.1820 N   0  0  0  0  0  0  0  0  0  0  0  0
   36.8290   31.0470   39.4500 C   0  0  0  0  0  0  0  0  0  0  0  0
   37.2710   30.2770   38.7670 H   0  0  0  0  0  0  0  0  0  0  0  0
   35.9710   31.5000   38.9040 H   0  0  0  0  0  0  0  0  0  0  0  0
   37.9090   32.0480   39.6650 C   0  0  0  0  0  0  0  0  0  0  0  0
   37.6330   33.2520   40.3810 C   0  0  0  0  0  0  0  0  0  0  0  0
   39.2500   34.1200   40.3710 S   0  0  0  0  0  0  0  0  0  0  0  0
   40.0380   32.6950   39.3900 C   0  0  0  0  0  0  0  0  0  0  0  0
   39.1520   31.9870   39.2730 N   0  0  0  0  0  0  0  0  0  0  0  0
   36.6910   33.5510   40.8120 H   0  0  0  0  0  0  0  0  0  0  0  0
   41.3770   32.6980   39.0030 O   0  0  0  0  0  0  0  0  0  0  0  0
   42.6910   31.5090   37.0410 O   0  0  0  0  0  0  0  0  0  0  0  0
   41.7110   32.6260   37.3330 P   0  0  0  0  0  0  0  0  0  0  0  0
   40.2500   32.2990   36.5440 O   0  0  0  0  0  0  0  0  0  0  0  0
   40.0750   31.3250   36.6940 H   0  0  0  0  0  0  0  0  0  0  0  0
   42.2920   34.1170   36.7880 O   0  0  0  0  0  0  0  0  0  0  0  0
   41.5820   34.6240   36.3190 H   0  0  0  0  0  0  0  0  0  0  0  0
  1  4  1  0  0  0  0
  1  2  1  0  0  0  0
  3  1  1  0  0  0  0
  4  9  1  0  0  0  0
  5  6  1  0  0  0  0
  5  4  2  0  0  0  0
  6  7  2  0  0  0  0
  7  8  1  0  0  0  0
  8 11  1  0  0  0  0
  9  8  2  0  0  0  0
 10  6  1  0  0  0  0
 12 13  1  0  0  0  0
 12  5  1  0  0  0  0
 13 14  2  0  0  0  0
 14 15  1  0  0  0  0
 16 14  1  0  0  0  0
 17 19  2  0  0  0  0
 17 16  1  0  0  0  0
 18 17  1  0  0  0  0
 19 13  1  0  0  0  0
 20 23  1  0  0  0  0
 20  1  1  0  0  0  0
 21 20  1  0  0  0  0
 22 20  1  0  0  0  0
 23 24  2  0  0  0  0
 24 28  1  0  0  0  0
 25 24  1  0  0  0  0
 26 25  1  0  0  0  0
 27 26  2  0  0  0  0
 27 23  1  0  0  0  0
 29 26  1  0  0  0  0
 30 31  2  0  0  0  0
 31 29  1  0  0  0  0
 32 33  1  0  0  0  0
 32 31  1  0  0  0  0
 34 31  1  0  0  0  0
 35 34  1  0  0  0  0
M  END
>  <minimizedAffinity>
-5.10624504

$$$$

 OpenBabel03252507473D

 35 37  0  0  0  0  0  0  0  0999 V2000
   36.9010   30.9030   39.6130 C   0  0  0  0  0  0  0  0  0  0  0  0
   35.8980   31.2240   39.3030 H   0  0  0  0  0  0  0  0  0  0  0  0
   37.6300   30.8960   38.7560 H   0  0  0  0  0  0  0  0  0  0  0  0
   36.8950   29.5320   40.1530 C   0  0  0  0  0  0  0  0  0  0  0  0
   37.4180   28.5330   39.3410 C   0  0  0  0  0  0  0  0  0  0  0  0
   37.4500   27.2120   39.7780 C   0  0  0  0  0  0  0  0  0  0  0  0
   36.9500   26.9540   41.0200 N   0  0  0  0  0  0  0  0  0  0  0  0
   36.4510   27.9450   41.7840 C   0  0  0  0  0  0  0  0  0  0  0  0
   36.4270   29.2020   41.3540 N   0  0  0  0  0  0  0  0  0  0  0  0
   37.8650   26.4610   39.1160 H   0  0  0  0  0  0  0  0  0  0  0  0
   36.0810   27.6070   42.7590 H   0  0  0  0  0  0  0  0  0  0  0  0
   38.0610   28.9380   37.7120 S   0  0  0  0  0  0  0  0  0  0  0  0
   36.7370   28.8880   36.4840 C   0  0  0  0  0  0  0  0  0  0  0  0
   35.3640   28.8700   36.8090 C   0  0  0  0  0  0  0  0  0  0  0  0
   35.0180   28.8850   37.8500 H   0  0  0  0  0  0  0  0  0  0  0  0
   34.5890   28.8220   35.1350 S   0  0  0  0  0  0  0  0  0  0  0  0
   36.2910   28.8350   34.2970 C   0  0  0  0  0  0  0  0  0  0  0  0
   36.3470   28.8140   33.2100 H   0  0  0  0  0  0  0  0  0  0  0  0
   37.0460   28.8680   35.1990 N   0  0  0  0  0  0  0  0  0  0  0  0
   37.4150   31.9200   40.5940 C   0  0  0  0  0  0  0  0  0  0  0  0
   37.0940   32.9270   40.2270 H   0  0  0  0  0  0  0  0  0  0  0  0
   36.9650   31.7930   41.6050 H   0  0  0  0  0  0  0  0  0  0  0  0
   38.8980   31.9850   40.6790 C   0  0  0  0  0  0  0  0  0  0  0  0
   39.5860   31.2860   41.7170 C   0  0  0  0  0  0  0  0  0  0  0  0
   41.3480   31.6790   41.3860 S   0  0  0  0  0  0  0  0  0  0  0  0
   40.8560   32.7340   39.8830 C   0  0  0  0  0  0  0  0  0  0  0  0
   39.7210   32.6280   39.8960 N   0  0  0  0  0  0  0  0  0  0  0  0
   39.1470   30.6800   42.4940 H   0  0  0  0  0  0  0  0  0  0  0  0
   41.7930   33.3940   39.0900 O   0  0  0  0  0  0  0  0  0  0  0  0
   42.7450   31.6380   37.3580 O   0  0  0  0  0  0  0  0  0  0  0  0
   41.9240   32.9070   37.4620 P   0  0  0  0  0  0  0  0  0  0  0  0
   40.3560   32.5970   36.9040 O   0  0  0  0  0  0  0  0  0  0  0  0
   40.1020   31.7110   37.2960 H   0  0  0  0  0  0  0  0  0  0  0  0
   42.5870   34.1510   36.5300 O   0  0  0  0  0  0  0  0  0  0  0  0
   41.8840   34.6250   36.0180 H   0  0  0  0  0  0  0  0  0  0  0  0
  1  4  1  0  0  0  0
  1 20  1  0  0  0  0
  2  1  1  0  0  0  0
  3  1  1  0  0  0  0
  4  9  1  0  0  0  0
  5  6  1  0  0  0  0
  5  4  2  0  0  0  0
  6  7  2  0  0  0  0
  7  8  1  0  0  0  0
  8 11  1  0  0  0  0
  9  8  2  0  0  0  0
 10  6  1  0  0  0  0
 12  5  1  0  0  0  0
 13 14  2  0  0  0  0
 13 12  1  0  0  0  0
 14 15  1  0  0  0  0
 16 14  1  0  0  0  0
 17 16  1  0  0  0  0
 17 19  2  0  0  0  0
 18 17  1  0  0  0  0
 19 13  1  0  0  0  0
 20 23  1  0  0  0  0
 20 22  1  0  0  0  0
 21 20  1  0  0  0  0
 23 24  2  0  0  0  0
 24 28  1  0  0  0  0
 25 24  1  0  0  0  0
 26 27  2  0  0  0  0
 26 25  1  0  0  0  0
 27 23  1  0  0  0  0
 29 26  1  0  0  0  0
 30 31  2  0  0  0  0
 31 29  1  0  0  0  0
 32 33  1  0  0  0  0
 32 31  1  0  0  0  0
 34 31  1  0  0  0  0
 35 34  1  0  0  0  0
M  END
>  <minimizedAffinity>
-5.07425499

$$$$

 OpenBabel03252507473D

 35 37  0  0  0  0  0  0  0  0999 V2000
   37.0720   30.4000   37.9760 C   0  0  0  0  0  0  0  0  0  0  0  0
   36.9420   31.1070   37.1470 H   0  0  0  0  0  0  0  0  0  0  0  0
   38.1170   29.9870   38.0240 H   0  0  0  0  0  0  0  0  0  0  0  0
   36.1800   29.2350   37.8490 C   0  0  0  0  0  0  0  0  0  0  0  0
   36.6920   28.0040   38.2380 C   0  0  0  0  0  0  0  0  0  0  0  0
   35.9110   26.8540   38.1500 C   0  0  0  0  0  0  0  0  0  0  0  0
   34.6430   26.9970   37.6700 N   0  0  0  0  0  0  0  0  0  0  0  0
   34.1760   28.2050   37.3020 C   0  0  0  0  0  0  0  0  0  0  0  0
   34.9300   29.2940   37.3920 N   0  0  0  0  0  0  0  0  0  0  0  0
   36.3470   25.9120   38.4620 H   0  0  0  0  0  0  0  0  0  0  0  0
   33.1430   28.1860   36.9350 H   0  0  0  0  0  0  0  0  0  0  0  0
   38.3730   27.8820   38.8610 S   0  0  0  0  0  0  0  0  0  0  0  0
   38.3630   27.6600   40.6550 C   0  0  0  0  0  0  0  0  0  0  0  0
   38.3710   28.7270   41.5790 C   0  0  0  0  0  0  0  0  0  0  0  0
   38.3830   29.7740   41.2500 H   0  0  0  0  0  0  0  0  0  0  0  0
   38.3530   27.8230   43.1880 S   0  0  0  0  0  0  0  0  0  0  0  0
   38.3390   26.1480   42.2970 C   0  0  0  0  0  0  0  0  0  0  0  0
   38.3260   25.2330   42.8870 H   0  0  0  0  0  0  0  0  0  0  0  0
   38.3470   26.4380   41.1570 N   0  0  0  0  0  0  0  0  0  0  0  0
   36.8640   31.1650   39.2540 C   0  0  0  0  0  0  0  0  0  0  0  0
   35.9360   31.7780   39.1270 H   0  0  0  0  0  0  0  0  0  0  0  0
   36.6830   30.4920   40.1220 H   0  0  0  0  0  0  0  0  0  0  0  0
   37.9430   32.1430   39.5580 C   0  0  0  0  0  0  0  0  0  0  0  0
   37.6550   33.3070   40.3330 C   0  0  0  0  0  0  0  0  0  0  0  0
   39.2770   34.1600   40.4210 S   0  0  0  0  0  0  0  0  0  0  0  0
   40.0840   32.7860   39.3840 C   0  0  0  0  0  0  0  0  0  0  0  0
   39.1970   32.0930   39.2000 N   0  0  0  0  0  0  0  0  0  0  0  0
   36.7030   33.5890   40.7530 H   0  0  0  0  0  0  0  0  0  0  0  0
   41.4340   32.7990   39.0380 O   0  0  0  0  0  0  0  0  0  0  0  0
   42.8320   31.5700   37.1600 O   0  0  0  0  0  0  0  0  0  0  0  0
   41.8210   32.6760   37.3820 P   0  0  0  0  0  0  0  0  0  0  0  0
   40.3920   32.2900   36.5620 O   0  0  0  0  0  0  0  0  0  0  0  0
   40.2320   31.3180   36.7420 H   0  0  0  0  0  0  0  0  0  0  0  0
   42.3880   34.1580   36.8010 O   0  0  0  0  0  0  0  0  0  0  0  0
   41.6830   34.6330   36.2940 H   0  0  0  0  0  0  0  0  0  0  0  0
  1  3  1  0  0  0  0
  1 20  1  0  0  0  0
  2  1  1  0  0  0  0
  4  1  1  0  0  0  0
  4  5  1  0  0  0  0
  5 12  1  0  0  0  0
  6  5  2  0  0  0  0
  6 10  1  0  0  0  0
  7  6  1  0  0  0  0
  8  9  1  0  0  0  0
  8  7  2  0  0  0  0
  9  4  2  0  0  0  0
 11  8  1  0  0  0  0
 12 13  1  0  0  0  0
 13 19  1  0  0  0  0
 13 14  2  0  0  0  0
 14 16  1  0  0  0  0
 15 14  1  0  0  0  0
 17 18  1  0  0  0  0
 17 16  1  0  0  0  0
 19 17  2  0  0  0  0
 20 23  1  0  0  0  0
 20 22  1  0  0  0  0
 21 20  1  0  0  0  0
 23 24  2  0  0  0  0
 24 25  1  0  0  0  0
 24 28  1  0  0  0  0
 26 25  1  0  0  0  0
 27 26  2  0  0  0  0
 27 23  1  0  0  0  0
 29 26  1  0  0  0  0
 30 31  2  0  0  0  0
 31 29  1  0  0  0  0
 32 33  1  0  0  0  0
 32 31  1  0  0  0  0
 34 31  1  0  0  0  0
 35 34  1  0  0  0  0
M  END
>  <minimizedAffinity>
-5.05701733

$$$$

 OpenBabel03252507473D

 35 37  0  0  0  0  0  0  0  0999 V2000
   36.1210   30.2430   40.4370 C   0  0  0  0  0  0  0  0  0  0  0  0
   35.3670   31.0120   40.6530 H   0  0  0  0  0  0  0  0  0  0  0  0
   37.0950   30.4420   40.9640 H   0  0  0  0  0  0  0  0  0  0  0  0
   36.4420   30.1790   39.0010 C   0  0  0  0  0  0  0  0  0  0  0  0
   37.0580   31.2910   38.4420 C   0  0  0  0  0  0  0  0  0  0  0  0
   37.3950   31.3080   37.0910 C   0  0  0  0  0  0  0  0  0  0  0  0
   37.0940   30.1980   36.3590 N   0  0  0  0  0  0  0  0  0  0  0  0
   36.4970   29.1350   36.9310 C   0  0  0  0  0  0  0  0  0  0  0  0
   36.1810   29.1310   38.2210 N   0  0  0  0  0  0  0  0  0  0  0  0
   37.8730   32.1950   36.6920 H   0  0  0  0  0  0  0  0  0  0  0  0
   36.3090   28.3070   36.2370 H   0  0  0  0  0  0  0  0  0  0  0  0
   37.4270   32.7250   39.4600 S   0  0  0  0  0  0  0  0  0  0  0  0
   39.1990   32.8100   39.8060 C   0  0  0  0  0  0  0  0  0  0  0  0
   39.8590   33.9770   40.2450 C   0  0  0  0  0  0  0  0  0  0  0  0
   39.3200   34.9180   40.4050 H   0  0  0  0  0  0  0  0  0  0  0  0
   41.5990   33.3810   40.4000 S   0  0  0  0  0  0  0  0  0  0  0  0
   41.1010   31.6410   39.8320 C   0  0  0  0  0  0  0  0  0  0  0  0
   41.8640   30.8670   39.7600 H   0  0  0  0  0  0  0  0  0  0  0  0
   39.9420   31.7290   39.6460 N   0  0  0  0  0  0  0  0  0  0  0  0
   35.6040   28.9420   40.9840 C   0  0  0  0  0  0  0  0  0  0  0  0
   34.7780   29.1870   41.6990 H   0  0  0  0  0  0  0  0  0  0  0  0
   35.1590   28.3000   40.1910 H   0  0  0  0  0  0  0  0  0  0  0  0
   36.6030   28.1810   41.7830 C   0  0  0  0  0  0  0  0  0  0  0  0
   37.3980   28.8530   42.7600 C   0  0  0  0  0  0  0  0  0  0  0  0
   38.4390   27.5070   43.4460 S   0  0  0  0  0  0  0  0  0  0  0  0
   37.6170   26.2460   42.2840 C   0  0  0  0  0  0  0  0  0  0  0  0
   36.8800   26.9070   41.7210 N   0  0  0  0  0  0  0  0  0  0  0  0
   37.3700   29.9010   43.0120 H   0  0  0  0  0  0  0  0  0  0  0  0
   37.9650   24.8960   42.2730 O   0  0  0  0  0  0  0  0  0  0  0  0
   38.6900   24.5590   39.7520 O   0  0  0  0  0  0  0  0  0  0  0  0
   37.7420   24.0410   40.8150 P   0  0  0  0  0  0  0  0  0  0  0  0
   38.0980   22.4170   41.1280 O   0  0  0  0  0  0  0  0  0  0  0  0
   39.0980   22.3630   41.1710 H   0  0  0  0  0  0  0  0  0  0  0  0
   36.1320   24.1490   40.3130 O   0  0  0  0  0  0  0  0  0  0  0  0
   35.6380   23.3180   40.5260 H   0  0  0  0  0  0  0  0  0  0  0  0
  1  2  1  0  0  0  0
  1  3  1  0  0  0  0
  1 20  1  0  0  0  0
  4  1  1  0  0  0  0
  5  4  1  0  0  0  0
  5 12  1  0  0  0  0
  6  5  2  0  0  0  0
  7  8  2  0  0  0  0
  7  6  1  0  0  0  0
  8  9  1  0  0  0  0
  9  4  2  0  0  0  0
 10  6  1  0  0  0  0
 11  8  1  0  0  0  0
 12 13  1  0  0  0  0
 13 14  2  0  0  0  0
 14 16  1  0  0  0  0
 14 15  1  0  0  0  0
 17 16  1  0  0  0  0
 18 17  1  0  0  0  0
 19 13  1  0  0  0  0
 19 17  2  0  0  0  0
 20 21  1  0  0  0  0
 20 23  1  0  0  0  0
 22 20  1  0  0  0  0
 23 24  2  0  0  0  0
 24 28  1  0  0  0  0
 24 25  1  0  0  0  0
 26 25  1  0  0  0  0
 27 23  1  0  0  0  0
 27 26  2  0  0  0  0
 29 26  1  0  0  0  0
 30 31  2  0  0  0  0
 31 32  1  0  0  0  0
 31 29  1  0  0  0  0
 32 33  1  0  0  0  0
 34 35  1  0  0  0  0
 34 31  1  0  0  0  0
M  END
>  <minimizedAffinity>
-4.90994835

$$$$

 OpenBabel03252507473D

 35 37  0  0  0  0  0  0  0  0999 V2000
   36.7810   27.1730   42.1460 C   0  0  0  0  0  0  0  0  0  0  0  0
   35.7980   27.0680   42.6230 H   0  0  0  0  0  0  0  0  0  0  0  0
   36.7780   27.9460   41.3280 H   0  0  0  0  0  0  0  0  0  0  0  0
   37.2210   25.9170   41.5150 C   0  0  0  0  0  0  0  0  0  0  0  0
   37.6480   25.9900   40.1950 C   0  0  0  0  0  0  0  0  0  0  0  0
   38.0800   24.8470   39.5280 C   0  0  0  0  0  0  0  0  0  0  0  0
   38.0630   23.6740   40.2240 N   0  0  0  0  0  0  0  0  0  0  0  0
   37.6440   23.6370   41.5030 C   0  0  0  0  0  0  0  0  0  0  0  0
   37.2340   24.7350   42.1280 N   0  0  0  0  0  0  0  0  0  0  0  0
   38.4050   24.9440   38.4980 H   0  0  0  0  0  0  0  0  0  0  0  0
   37.6780   22.6360   41.9500 H   0  0  0  0  0  0  0  0  0  0  0  0
   37.6460   27.5660   39.3320 S   0  0  0  0  0  0  0  0  0  0  0  0
   39.3260   28.0130   38.8380 C   0  0  0  0  0  0  0  0  0  0  0  0
   40.4870   27.5580   39.4990 C   0  0  0  0  0  0  0  0  0  0  0  0
   40.4310   26.8930   40.3690 H   0  0  0  0  0  0  0  0  0  0  0  0
   41.8170   28.3680   38.5090 S   0  0  0  0  0  0  0  0  0  0  0  0
   40.5360   29.1820   37.3710 C   0  0  0  0  0  0  0  0  0  0  0  0
   40.8780   29.8160   36.5550 H   0  0  0  0  0  0  0  0  0  0  0  0
   39.5050   28.8110   37.8000 N   0  0  0  0  0  0  0  0  0  0  0  0
   37.7370   27.6730   43.1930 C   0  0  0  0  0  0  0  0  0  0  0  0
   37.1240   28.1260   44.0130 H   0  0  0  0  0  0  0  0  0  0  0  0
   38.3240   26.8470   43.6540 H   0  0  0  0  0  0  0  0  0  0  0  0
   38.6350   28.7630   42.7240 C   0  0  0  0  0  0  0  0  0  0  0  0
   40.0460   28.6570   42.9130 C   0  0  0  0  0  0  0  0  0  0  0  0
   40.6820   30.2140   42.1800 S   0  0  0  0  0  0  0  0  0  0  0  0
   38.9140   30.7560   41.7350 C   0  0  0  0  0  0  0  0  0  0  0  0
   38.3050   29.8750   42.1260 N   0  0  0  0  0  0  0  0  0  0  0  0
   40.5800   27.8430   43.3780 H   0  0  0  0  0  0  0  0  0  0  0  0
   38.6360   31.9620   41.0950 O   0  0  0  0  0  0  0  0  0  0  0  0
   37.3930   31.2300   38.8790 O   0  0  0  0  0  0  0  0  0  0  0  0
   37.2200   32.0390   40.1480 P   0  0  0  0  0  0  0  0  0  0  0  0
   35.9680   31.3670   41.0660 O   0  0  0  0  0  0  0  0  0  0  0  0
   36.1080   30.3750   41.0280 H   0  0  0  0  0  0  0  0  0  0  0  0
   36.8310   33.6480   39.8090 O   0  0  0  0  0  0  0  0  0  0  0  0
   36.0980   33.9670   40.3930 H   0  0  0  0  0  0  0  0  0  0  0  0
  1  2  1  0  0  0  0
  1 20  1  0  0  0  0
  3  1  1  0  0  0  0
  4  9  1  0  0  0  0
  4  1  1  0  0  0  0
  5  4  2  0  0  0  0
  6  5  1  0  0  0  0
  6  7  2  0  0  0  0
  7  8  1  0  0  0  0
  8 11  1  0  0  0  0
  8  9  2  0  0  0  0
 10  6  1  0  0  0  0
 12  5  1  0  0  0  0
 13 12  1  0  0  0  0
 13 14  2  0  0  0  0
 14 15  1  0  0  0  0
 16 14  1  0  0  0  0
 17 19  2  0  0  0  0
 17 16  1  0  0  0  0
 18 17  1  0  0  0  0
 19 13  1  0  0  0  0
 20 22  1  0  0  0  0
 20 21  1  0  0  0  0
 23 24  2  0  0  0  0
 23 20  1  0  0  0  0
 24 28  1  0  0  0  0
 25 24  1  0  0  0  0
 26 27  2  0  0  0  0
 26 25  1  0  0  0  0
 27 23  1  0  0  0  0
 29 26  1  0  0  0  0
 30 31  2  0  0  0  0
 31 32  1  0  0  0  0
 31 29  1  0  0  0  0
 33 32  1  0  0  0  0
 34 31  1  0  0  0  0
 34 35  1  0  0  0  0
M  END
>  <minimizedAffinity>
-4.88974953

$$$$

 OpenBabel03252507473D

 35 37  0  0  0  0  0  0  0  0999 V2000
   38.6440   32.7830   40.5620 C   0  0  0  0  0  0  0  0  0  0  0  0
   38.8820   33.8300   40.7870 H   0  0  0  0  0  0  0  0  0  0  0  0
   38.3480   32.2060   41.4830 H   0  0  0  0  0  0  0  0  0  0  0  0
   39.7980   32.0690   39.9890 C   0  0  0  0  0  0  0  0  0  0  0  0
   40.4790   31.1970   40.8290 C   0  0  0  0  0  0  0  0  0  0  0  0
   41.5800   30.4830   40.3620 C   0  0  0  0  0  0  0  0  0  0  0  0
   41.9480   30.6810   39.0640 N   0  0  0  0  0  0  0  0  0  0  0  0
   41.2660   31.5340   38.2760 C   0  0  0  0  0  0  0  0  0  0  0  0
   40.2160   32.2080   38.7330 N   0  0  0  0  0  0  0  0  0  0  0  0
   42.0870   29.8130   41.0480 H   0  0  0  0  0  0  0  0  0  0  0  0
   41.6600   31.6040   37.2560 H   0  0  0  0  0  0  0  0  0  0  0  0
   39.9460   30.9800   42.5310 S   0  0  0  0  0  0  0  0  0  0  0  0
   39.2460   29.3290   42.7640 C   0  0  0  0  0  0  0  0  0  0  0  0
   39.9500   28.1340   42.5050 C   0  0  0  0  0  0  0  0  0  0  0  0
   40.9850   28.1420   42.1400 H   0  0  0  0  0  0  0  0  0  0  0  0
   38.6870   26.8610   42.9410 S   0  0  0  0  0  0  0  0  0  0  0  0
   37.4260   28.2030   43.3970 C   0  0  0  0  0  0  0  0  0  0  0  0
   36.4380   27.9060   43.7440 H   0  0  0  0  0  0  0  0  0  0  0  0
   38.0050   29.2080   43.2010 N   0  0  0  0  0  0  0  0  0  0  0  0
   37.4410   32.7790   39.6600 C   0  0  0  0  0  0  0  0  0  0  0  0
   36.6620   33.4210   40.1430 H   0  0  0  0  0  0  0  0  0  0  0  0
   37.6590   33.2360   38.6680 H   0  0  0  0  0  0  0  0  0  0  0  0
   36.8070   31.4430   39.5000 C   0  0  0  0  0  0  0  0  0  0  0  0
   36.1800   30.8110   40.6160 C   0  0  0  0  0  0  0  0  0  0  0  0
   35.5710   29.2300   39.9100 S   0  0  0  0  0  0  0  0  0  0  0  0
   36.2730   29.6920   38.2050 C   0  0  0  0  0  0  0  0  0  0  0  0
   36.7330   30.7120   38.4200 N   0  0  0  0  0  0  0  0  0  0  0  0
   36.0990   31.1960   41.6200 H   0  0  0  0  0  0  0  0  0  0  0  0
   36.1560   28.8590   37.0930 O   0  0  0  0  0  0  0  0  0  0  0  0
   37.8640   26.9610   36.4080 O   0  0  0  0  0  0  0  0  0  0  0  0
   37.5900   28.4440   36.2700 P   0  0  0  0  0  0  0  0  0  0  0  0
   37.3520   28.8120   34.6350 O   0  0  0  0  0  0  0  0  0  0  0  0
   36.7680   28.0810   34.2770 H   0  0  0  0  0  0  0  0  0  0  0  0
   38.8830   29.3690   36.8430 O   0  0  0  0  0  0  0  0  0  0  0  0
   39.0950   30.1090   36.2200 H   0  0  0  0  0  0  0  0  0  0  0  0
  1  2  1  0  0  0  0
  1  3  1  0  0  0  0
  4  1  1  0  0  0  0
  4  5  1  0  0  0  0
  5 12  1  0  0  0  0
  6  5  2  0  0  0  0
  6 10  1  0  0  0  0
  7  6  1  0  0  0  0
  8  9  1  0  0  0  0
  8  7  2  0  0  0  0
  9  4  2  0  0  0  0
 11  8  1  0  0  0  0
 12 13  1  0  0  0  0
 13 19  1  0  0  0  0
 14 13  2  0  0  0  0
 14 16  1  0  0  0  0
 15 14  1  0  0  0  0
 16 17  1  0  0  0  0
 17 18  1  0  0  0  0
 19 17  2  0  0  0  0
 20 21  1  0  0  0  0
 20  1  1  0  0  0  0
 22 20  1  0  0  0  0
 23 20  1  0  0  0  0
 23 24  2  0  0  0  0
 24 28  1  0  0  0  0
 25 24  1  0  0  0  0
 26 27  2  0  0  0  0
 26 25  1  0  0  0  0
 27 23  1  0  0  0  0
 29 26  1  0  0  0  0
 31 30  2  0  0  0  0
 31 34  1  0  0  0  0
 31 29  1  0  0  0  0
 32 31  1  0  0  0  0
 33 32  1  0  0  0  0
 35 34  1  0  0  0  0
M  END
>  <minimizedAffinity>
-4.83597088

$$$$
