
 OpenBabel03252505513D

 23 24  0  0  0  0  0  0  0  0999 V2000
   44.6600   35.4450   45.1130 C   0  0  0  0  0  0  0  0  0  0  0  0
   45.5090   35.0000   44.1020 C   0  0  0  0  0  0  0  0  0  0  0  0
   46.2480   33.8450   44.3360 C   0  0  0  0  0  0  0  0  0  0  0  0
   46.1140   33.2120   45.5160 N   0  0  0  0  0  0  0  0  0  0  0  0
   45.2930   33.6590   46.4710 C   0  0  0  0  0  0  0  0  0  0  0  0
   44.5530   34.7750   46.2950 N   0  0  0  0  0  0  0  0  0  0  0  0
   44.0540   36.3350   45.0040 H   0  0  0  0  0  0  0  0  0  0  0  0
   46.8960   33.5300   43.5270 H   0  0  0  0  0  0  0  0  0  0  0  0
   45.5460   35.8160   42.8370 C   0  0  0  0  0  0  0  0  0  0  0  0
   45.2000   37.0860   43.1950 F   0  0  0  0  0  0  0  0  0  0  0  0
   44.5720   35.2720   42.0030 F   0  0  0  0  0  0  0  0  0  0  0  0
   46.8000   35.7030   42.3000 F   0  0  0  0  0  0  0  0  0  0  0  0
   45.1360   33.0310   47.6890 O   0  0  0  0  0  0  0  0  0  0  0  0
   46.1800   32.3580   48.3450 C   0  0  0  0  0  0  0  0  0  0  0  0
   47.1590   32.8550   48.1930 H   0  0  0  0  0  0  0  0  0  0  0  0
   46.0050   32.4020   49.4380 H   0  0  0  0  0  0  0  0  0  0  0  0
   46.2350   30.8940   47.9880 C   0  0  0  0  0  0  0  0  0  0  0  0
   47.3980   30.2740   47.4690 C   0  0  0  0  0  0  0  0  0  0  0  0
   48.3580   30.6820   47.2530 H   0  0  0  0  0  0  0  0  0  0  0  0
   46.8810   28.5520   47.2370 S   0  0  0  0  0  0  0  0  0  0  0  0
   45.1410   28.9510   47.8910 C   0  0  0  0  0  0  0  0  0  0  0  0
   44.1100   28.3490   48.0860 H   0  0  0  0  0  0  0  0  0  0  0  0
   45.2270   30.0470   48.1180 N   0  0  0  0  0  0  0  0  0  0  0  0
  1  6  1  0  0  0  0
  2  3  1  0  0  0  0
  2  1  2  0  0  0  0
  3  4  2  0  0  0  0
  4  5  1  0  0  0  0
  5 13  1  0  0  0  0
  6  5  2  0  0  0  0
  7  1  1  0  0  0  0
  8  3  1  0  0  0  0
  9 10  1  0  0  0  0
  9  2  1  0  0  0  0
 11  9  1  0  0  0  0
 12  9  1  0  0  0  0
 13 14  1  0  0  0  0
 14 16  1  0  0  0  0
 15 14  1  0  0  0  0
 17 23  1  0  0  0  0
 17 14  1  0  0  0  0
 18 17  2  0  0  0  0
 19 18  1  0  0  0  0
 20 18  1  0  0  0  0
 20 21  1  0  0  0  0
 21 22  1  0  0  0  0
 21 23  2  0  0  0  0
M  END
>  <minimizedAffinity>
-4.65414858

>  <minimizedRMSD>
0.789504349

$$$$
