
 OpenBabel03252509233D

 25 27  0  0  1  0  0  0  0  0999 V2000
   46.4470   34.7940   42.0280 C   0  0  1  0  0  0  0  0  0  0  0  0
   47.9320   35.2400   42.0020 C   0  0  0  0  0  0  0  0  0  0  0  0
   47.3940   33.8240   41.6150 C   0  0  2  0  0  0  0  0  0  0  0  0
   45.8140   35.3750   41.3300 H   0  0  0  0  0  0  0  0  0  0  0  0
   48.2570   35.8490   41.1300 H   0  0  0  0  0  0  0  0  0  0  0  0
   48.4920   35.3080   42.9260 H   0  0  0  0  0  0  0  0  0  0  0  0
   47.6920   33.0040   42.3190 H   0  0  0  0  0  0  0  0  0  0  0  0
   44.5320   35.6020   45.1550 C   0  0  0  0  0  0  0  0  0  0  0  0
   45.0330   35.7370   43.8210 C   0  0  0  0  0  0  0  0  0  0  0  0
   45.9340   34.7750   43.4460 C   0  0  0  0  0  0  0  0  0  0  0  0
   46.3180   33.7640   44.3050 N   0  0  0  0  0  0  0  0  0  0  0  0
   45.8160   33.6860   45.5470 C   0  0  0  0  0  0  0  0  0  0  0  0
   44.9170   34.6120   45.9720 N   0  0  0  0  0  0  0  0  0  0  0  0
   43.8180   36.3560   45.4600 H   0  0  0  0  0  0  0  0  0  0  0  0
   46.0860   32.9140   46.2530 H   0  0  0  0  0  0  0  0  0  0  0  0
   44.6510   36.8040   42.9560 N   0  0  0  0  0  0  0  0  0  0  0  0
   44.7800   37.8200   43.2210 H   0  0  0  0  0  0  0  0  0  0  0  0
   44.2300   36.5960   42.0380 H   0  0  0  0  0  0  0  0  0  0  0  0
   47.5080   33.4670   40.1770 C   0  0  0  0  0  0  0  0  0  0  0  0
   46.2890   33.3740   39.4010 C   0  0  0  0  0  0  0  0  0  0  0  0
   45.2570   33.5450   39.7700 H   0  0  0  0  0  0  0  0  0  0  0  0
   46.8990   32.9110   37.6860 S   0  0  0  0  0  0  0  0  0  0  0  0
   48.6780   32.9310   38.3470 C   0  0  0  0  0  0  0  0  0  0  0  0
   49.7920   32.7410   37.9240 H   0  0  0  0  0  0  0  0  0  0  0  0
   48.5810   33.2010   39.4310 N   0  0  0  0  0  0  0  0  0  0  0  0
  1  4  1  6  0  0  0
  1 10  1  0  0  0  0
  2  1  1  0  0  0  0
  2  6  1  0  0  0  0
  3  2  1  0  0  0  0
  3  1  1  0  0  0  0
  3  7  1  1  0  0  0
  5  2  1  0  0  0  0
  8 14  1  0  0  0  0
  8 13  1  0  0  0  0
  9  8  2  0  0  0  0
 10  9  1  0  0  0  0
 10 11  2  0  0  0  0
 11 12  1  0  0  0  0
 12 13  2  0  0  0  0
 12 15  1  0  0  0  0
 16 17  1  0  0  0  0
 16  9  1  0  0  0  0
 18 16  1  0  0  0  0
 19  3  1  0  0  0  0
 20 21  1  0  0  0  0
 20 19  2  0  0  0  0
 22 23  1  0  0  0  0
 22 20  1  0  0  0  0
 23 25  2  0  0  0  0
 24 23  1  0  0  0  0
 25 19  1  0  0  0  0
M  END
>  <minimizedAffinity>
-4.5872817

>  <minimizedRMSD>
0.383753449

$$$$
