
 OpenBabel03252509043D

 46 48  0  0  1  0  0  0  0  0999 V2000
   47.1530   34.1740   43.0830 N   0  0  0  0  0  0  0  0  0  0  0  0
   46.6520   35.3110   42.4210 C   0  0  0  0  0  0  0  0  0  0  0  0
   45.1590   35.5190   42.5620 C   0  0  0  0  0  0  0  0  0  0  0  0
   44.6230   35.1200   43.9160 C   0  0  0  0  0  0  0  0  0  0  0  0
   45.7130   34.6240   44.8390 C   0  0  0  0  0  0  0  0  0  0  0  0
   46.4050   33.4800   44.0070 C   0  0  2  0  0  0  0  0  0  0  0  0
   46.8940   35.4100   41.3630 H   0  0  0  0  0  0  0  0  0  0  0  0
   47.1180   36.2130   42.9160 H   0  0  0  0  0  0  0  0  0  0  0  0
   44.8790   36.5420   42.2720 H   0  0  0  0  0  0  0  0  0  0  0  0
   44.6870   34.8410   41.8130 H   0  0  0  0  0  0  0  0  0  0  0  0
   43.8260   34.3810   43.8970 H   0  0  0  0  0  0  0  0  0  0  0  0
   44.2280   36.0510   44.3870 H   0  0  0  0  0  0  0  0  0  0  0  0
   46.4520   35.4110   45.0320 H   0  0  0  0  0  0  0  0  0  0  0  0
   45.2450   34.1880   45.7280 H   0  0  0  0  0  0  0  0  0  0  0  0
   45.5620   32.8730   43.6480 H   0  0  0  0  0  0  0  0  0  0  0  0
   48.1650   33.4570   42.3450 C   0  0  0  0  0  0  0  0  0  0  0  0
   48.8200   32.9270   43.0360 H   0  0  0  0  0  0  0  0  0  0  0  0
   48.7890   34.2140   41.8140 H   0  0  0  0  0  0  0  0  0  0  0  0
   47.5010   32.5270   41.3980 C   0  0  0  0  0  0  0  0  0  0  0  0
   47.6120   31.4840   41.7170 H   0  0  0  0  0  0  0  0  0  0  0  0
   46.3990   32.7210   41.3310 H   0  0  0  0  0  0  0  0  0  0  0  0
   49.4340   31.9210   38.2380 C   0  0  0  0  0  0  0  0  0  0  0  0
   48.8930   31.7650   39.5190 C   0  0  0  0  0  0  0  0  0  0  0  0
   48.0640   32.7130   40.0350 C   0  0  0  0  0  0  0  0  0  0  0  0
   47.7950   33.7830   39.2750 N   0  0  0  0  0  0  0  0  0  0  0  0
   48.3090   33.9440   38.0430 C   0  0  0  0  0  0  0  0  0  0  0  0
   49.1270   33.0260   37.5090 N   0  0  0  0  0  0  0  0  0  0  0  0
   50.0870   31.2110   37.7840 H   0  0  0  0  0  0  0  0  0  0  0  0
   49.1810   30.8590   40.0400 H   0  0  0  0  0  0  0  0  0  0  0  0
   47.9930   34.8540   37.5720 H   0  0  0  0  0  0  0  0  0  0  0  0
   47.1780   32.8560   44.9680 O   0  0  0  0  0  0  0  0  0  0  0  0
   46.0510   30.6010   44.1350 O   0  0  0  0  0  0  0  0  0  0  0  0
   46.6370   31.3270   45.3670 P   0  0  2  0  0  0  0  0  0  0  0  0
   45.2860   31.5440   46.3980 O   0  0  0  0  0  0  0  0  0  0  0  0
   45.4480   31.1350   47.2820 H   0  0  0  0  0  0  0  0  0  0  0  0
   47.7630   30.3950   46.1520 O   0  0  0  0  0  0  0  0  0  0  0  0
   47.6720   29.0870   45.7090 C   0  0  0  0  0  0  0  0  0  0  0  0
   46.6700   28.6680   45.8630 H   0  0  0  0  0  0  0  0  0  0  0  0
   47.8870   29.0370   44.6080 H   0  0  0  0  0  0  0  0  0  0  0  0
   48.6630   28.1950   46.4150 C   0  0  0  0  0  0  0  0  0  0  0  0
   49.8560   27.7460   45.7190 C   0  0  0  0  0  0  0  0  0  0  0  0
   50.0860   28.0170   44.6980 H   0  0  0  0  0  0  0  0  0  0  0  0
   50.6600   26.7340   47.0200 S   0  0  0  0  0  0  0  0  0  0  0  0
   49.2830   27.0780   48.2540 C   0  0  0  0  0  0  0  0  0  0  0  0
   49.2040   26.7150   49.2770 H   0  0  0  0  0  0  0  0  0  0  0  0
   48.5110   27.7880   47.6590 N   0  0  0  0  0  0  0  0  0  0  0  0
  1  6  1  0  0  0  0
  2  3  1  0  0  0  0
  2  8  1  0  0  0  0
  2  1  1  0  0  0  0
  3  4  1  0  0  0  0
  4 12  1  0  0  0  0
  4  5  1  0  0  0  0
  5 13  1  0  0  0  0
  5 14  1  0  0  0  0
  6 15  1  6  0  0  0
  6  5  1  0  0  0  0
  6 31  1  0  0  0  0
  7  2  1  0  0  0  0
  9  3  1  0  0  0  0
 10  3  1  0  0  0  0
 11  4  1  0  0  0  0
 16 17  1  0  0  0  0
 16  1  1  0  0  0  0
 18 16  1  0  0  0  0
 19 20  1  0  0  0  0
 19 16  1  0  0  0  0
 21 19  1  0  0  0  0
 22 23  1  0  0  0  0
 23 24  2  0  0  0  0
 23 29  1  0  0  0  0
 24 19  1  0  0  0  0
 25 24  1  0  0  0  0
 26 25  2  0  0  0  0
 27 26  1  0  0  0  0
 27 22  2  0  0  0  0
 28 22  1  0  0  0  0
 30 26  1  0  0  0  0
 31 33  1  0  0  0  0
 33 32  2  6  0  0  0
 33 36  1  0  0  0  0
 33 34  1  0  0  0  0
 34 35  1  0  0  0  0
 37 38  1  0  0  0  0
 37 36  1  0  0  0  0
 37 40  1  0  0  0  0
 39 37  1  0  0  0  0
 40 46  1  0  0  0  0
 41 40  2  0  0  0  0
 41 43  1  0  0  0  0
 42 41  1  0  0  0  0
 43 44  1  0  0  0  0
 44 45  1  0  0  0  0
 46 44  2  0  0  0  0
M  END
>  <minimizedAffinity>
-3.62090302

>  <minimizedRMSD>
0.466767371

$$$$
