
 OpenBabel03252503543D

 34 36  0  0  1  0  0  0  0  0999 V2000
   36.8620   28.3960   40.9570 N   0  0  0  0  0  0  0  0  0  0  0  0
   37.0670   27.0900   41.5900 C   0  0  0  0  0  0  0  0  0  0  0  0
   36.7350   27.2750   43.0620 C   0  0  0  0  0  0  0  0  0  0  0  0
   37.8320   28.1040   43.6800 C   0  0  0  0  0  0  0  0  0  0  0  0
   37.9980   29.3530   42.8750 C   0  0  0  0  0  0  0  0  0  0  0  0
   37.0000   29.5330   41.7880 C   0  0  1  0  0  0  0  0  0  0  0  0
   38.1520   26.8850   41.5180 H   0  0  0  0  0  0  0  0  0  0  0  0
   36.4570   26.3070   41.1190 H   0  0  0  0  0  0  0  0  0  0  0  0
   35.7570   27.8010   43.0950 H   0  0  0  0  0  0  0  0  0  0  0  0
   36.6880   26.2670   43.5080 H   0  0  0  0  0  0  0  0  0  0  0  0
   38.7630   27.5200   43.6780 H   0  0  0  0  0  0  0  0  0  0  0  0
   37.5450   28.3130   44.7360 H   0  0  0  0  0  0  0  0  0  0  0  0
   39.0280   29.4310   42.4290 H   0  0  0  0  0  0  0  0  0  0  0  0
   37.8810   30.2220   43.5860 H   0  0  0  0  0  0  0  0  0  0  0  0
   36.0030   29.8100   42.1650 H   0  0  0  0  0  0  0  0  0  0  0  0
   35.0170   28.6910   37.7720 C   0  0  0  0  0  0  0  0  0  0  0  0
   35.2640   28.5450   39.1390 C   0  0  0  0  0  0  0  0  0  0  0  0
   36.5660   28.5000   39.5980 C   0  0  0  0  0  0  0  0  0  0  0  0
   37.5610   28.5980   38.6840 N   0  0  0  0  0  0  0  0  0  0  0  0
   37.3200   28.7370   37.3540 C   0  0  0  0  0  0  0  0  0  0  0  0
   36.0390   28.7840   36.9040 N   0  0  0  0  0  0  0  0  0  0  0  0
   34.3960   28.4410   39.7540 H   0  0  0  0  0  0  0  0  0  0  0  0
   38.1740   28.8070   36.6890 H   0  0  0  0  0  0  0  0  0  0  0  0
   33.5850   28.7720   37.3320 C   0  0  0  0  0  0  0  0  0  0  0  0
   33.4340   29.6010   36.2270 F   0  0  0  0  0  0  0  0  0  0  0  0
   33.1710   27.4850   37.0540 F   0  0  0  0  0  0  0  0  0  0  0  0
   32.8070   29.2530   38.3760 F   0  0  0  0  0  0  0  0  0  0  0  0
   37.5870   30.7200   41.0220 C   0  0  0  0  0  0  0  0  0  0  0  0
   39.0690   30.8930   40.8740 C   0  0  0  0  0  0  0  0  0  0  0  0
   39.7040   30.2060   41.2970 H   0  0  0  0  0  0  0  0  0  0  0  0
   39.1530   32.3890   39.9170 S   0  0  0  0  0  0  0  0  0  0  0  0
   37.2620   32.5810   39.8420 C   0  0  0  0  0  0  0  0  0  0  0  0
   36.3380   33.3070   39.4020 H   0  0  0  0  0  0  0  0  0  0  0  0
   36.7840   31.6070   40.4760 N   0  0  0  0  0  0  0  0  0  0  0  0
  1  2  1  0  0  0  0
  1  6  1  0  0  0  0
  2  3  1  0  0  0  0
  3  9  1  0  0  0  0
  3 10  1  0  0  0  0
  3  4  1  0  0  0  0
  4 12  1  0  0  0  0
  5 14  1  0  0  0  0
  5  4  1  0  0  0  0
  6 15  1  1  0  0  0
  6  5  1  0  0  0  0
  7  2  1  0  0  0  0
  8  2  1  0  0  0  0
 11  4  1  0  0  0  0
 13  5  1  0  0  0  0
 16 17  1  0  0  0  0
 17 18  2  0  0  0  0
 17 22  1  0  0  0  0
 18  1  1  0  0  0  0
 19 18  1  0  0  0  0
 20 19  2  0  0  0  0
 21 20  1  0  0  0  0
 21 16  2  0  0  0  0
 23 20  1  0  0  0  0
 24 16  1  0  0  0  0
 24 27  1  0  0  0  0
 25 24  1  0  0  0  0
 26 24  1  0  0  0  0
 28  6  1  0  0  0  0
 29 28  2  0  0  0  0
 29 30  1  0  0  0  0
 31 29  1  0  0  0  0
 32 31  1  0  0  0  0
 32 34  2  0  0  0  0
 33 32  1  0  0  0  0
 34 28  1  0  0  0  0
M  END
>  <minimizedAffinity>
-5.18587255

$$$$

 OpenBabel03252503543D

 34 36  0  0  1  0  0  0  0  0999 V2000
   36.8290   28.4280   40.9590 N   0  0  0  0  0  0  0  0  0  0  0  0
   36.9830   27.1070   41.5750 C   0  0  0  0  0  0  0  0  0  0  0  0
   36.6930   27.2920   43.0550 C   0  0  0  0  0  0  0  0  0  0  0  0
   37.8440   28.0600   43.6550 C   0  0  0  0  0  0  0  0  0  0  0  0
   38.0530   29.3070   42.8590 C   0  0  0  0  0  0  0  0  0  0  0  0
   37.0410   29.5480   41.7970 C   0  0  1  0  0  0  0  0  0  0  0  0
   38.0540   26.8500   41.4760 H   0  0  0  0  0  0  0  0  0  0  0  0
   36.3240   26.3600   41.1110 H   0  0  0  0  0  0  0  0  0  0  0  0
   35.7430   27.8660   43.1160 H   0  0  0  0  0  0  0  0  0  0  0  0
   36.6060   26.2830   43.4930 H   0  0  0  0  0  0  0  0  0  0  0  0
   38.7450   27.4310   43.6270 H   0  0  0  0  0  0  0  0  0  0  0  0
   37.5910   28.2720   44.7200 H   0  0  0  0  0  0  0  0  0  0  0  0
   39.0750   29.3390   42.3900 H   0  0  0  0  0  0  0  0  0  0  0  0
   37.9950   30.1740   43.5810 H   0  0  0  0  0  0  0  0  0  0  0  0
   36.0670   29.8700   42.1990 H   0  0  0  0  0  0  0  0  0  0  0  0
   37.0300   28.3520   37.2730 C   0  0  0  0  0  0  0  0  0  0  0  0
   37.4110   28.2430   38.6120 C   0  0  0  0  0  0  0  0  0  0  0  0
   36.5080   28.5600   39.6080 C   0  0  0  0  0  0  0  0  0  0  0  0
   35.2740   28.9730   39.2320 N   0  0  0  0  0  0  0  0  0  0  0  0
   34.9050   29.0820   37.9290 C   0  0  0  0  0  0  0  0  0  0  0  0
   35.7930   28.7670   36.9500 N   0  0  0  0  0  0  0  0  0  0  0  0
   38.4230   27.9420   38.7790 H   0  0  0  0  0  0  0  0  0  0  0  0
   33.8980   29.4220   37.7140 H   0  0  0  0  0  0  0  0  0  0  0  0
   38.0380   27.9590   36.2320 C   0  0  0  0  0  0  0  0  0  0  0  0
   38.1460   26.5780   36.1190 F   0  0  0  0  0  0  0  0  0  0  0  0
   37.6370   28.5290   35.0410 F   0  0  0  0  0  0  0  0  0  0  0  0
   39.2770   28.4900   36.5630 F   0  0  0  0  0  0  0  0  0  0  0  0
   37.6690   30.7130   41.0280 C   0  0  0  0  0  0  0  0  0  0  0  0
   39.1380   30.7440   40.7290 C   0  0  0  0  0  0  0  0  0  0  0  0
   39.7360   29.9730   41.0480 H   0  0  0  0  0  0  0  0  0  0  0  0
   39.2810   32.2770   39.8400 S   0  0  0  0  0  0  0  0  0  0  0  0
   37.4230   32.6620   39.9790 C   0  0  0  0  0  0  0  0  0  0  0  0
   36.5410   33.5010   39.6770 H   0  0  0  0  0  0  0  0  0  0  0  0
   36.9120   31.7060   40.6150 N   0  0  0  0  0  0  0  0  0  0  0  0
  1  2  1  0  0  0  0
  1  6  1  0  0  0  0
  2  3  1  0  0  0  0
  3  9  1  0  0  0  0
  3 10  1  0  0  0  0
  3  4  1  0  0  0  0
  4 12  1  0  0  0  0
  5 14  1  0  0  0  0
  5  4  1  0  0  0  0
  6 15  1  1  0  0  0
  6  5  1  0  0  0  0
  7  2  1  0  0  0  0
  8  2  1  0  0  0  0
 11  4  1  0  0  0  0
 13  5  1  0  0  0  0
 16 17  1  0  0  0  0
 17 22  1  0  0  0  0
 17 18  2  0  0  0  0
 18  1  1  0  0  0  0
 19 18  1  0  0  0  0
 20 19  2  0  0  0  0
 21 16  2  0  0  0  0
 21 20  1  0  0  0  0
 23 20  1  0  0  0  0
 24 27  1  0  0  0  0
 24 16  1  0  0  0  0
 25 24  1  0  0  0  0
 26 24  1  0  0  0  0
 28  6  1  0  0  0  0
 29 28  2  0  0  0  0
 29 30  1  0  0  0  0
 31 32  1  0  0  0  0
 31 29  1  0  0  0  0
 32 34  2  0  0  0  0
 33 32  1  0  0  0  0
 34 28  1  0  0  0  0
M  END
>  <minimizedAffinity>
-5.02105761

$$$$

 OpenBabel03252503543D

 34 36  0  0  1  0  0  0  0  0999 V2000
   37.6780   29.9670   40.4220 N   0  0  0  0  0  0  0  0  0  0  0  0
   36.5420   30.7260   39.8930 C   0  0  0  0  0  0  0  0  0  0  0  0
   36.9570   31.2040   38.5110 C   0  0  0  0  0  0  0  0  0  0  0  0
   38.0010   32.2770   38.6910 C   0  0  0  0  0  0  0  0  0  0  0  0
   39.0900   31.7420   39.5640 C   0  0  0  0  0  0  0  0  0  0  0  0
   38.9570   30.3050   39.9200 C   0  0  1  0  0  0  0  0  0  0  0  0
   36.4470   31.6200   40.5380 H   0  0  0  0  0  0  0  0  0  0  0  0
   35.6240   30.1230   39.8680 H   0  0  0  0  0  0  0  0  0  0  0  0
   37.3700   30.3160   37.9870 H   0  0  0  0  0  0  0  0  0  0  0  0
   36.0500   31.5980   38.0220 H   0  0  0  0  0  0  0  0  0  0  0  0
   37.5320   33.1550   39.1570 H   0  0  0  0  0  0  0  0  0  0  0  0
   38.3690   32.5650   37.6780 H   0  0  0  0  0  0  0  0  0  0  0  0
   39.1970   32.3360   40.5130 H   0  0  0  0  0  0  0  0  0  0  0  0
   40.0580   31.8590   38.9930 H   0  0  0  0  0  0  0  0  0  0  0  0
   39.1880   29.6330   39.0780 H   0  0  0  0  0  0  0  0  0  0  0  0
   37.2480   26.6830   42.0530 C   0  0  0  0  0  0  0  0  0  0  0  0
   37.3880   27.6420   41.0480 C   0  0  0  0  0  0  0  0  0  0  0  0
   37.4970   28.9770   41.3880 C   0  0  0  0  0  0  0  0  0  0  0  0
   37.4590   29.2990   42.7030 N   0  0  0  0  0  0  0  0  0  0  0  0
   37.3200   28.3640   43.6800 C   0  0  0  0  0  0  0  0  0  0  0  0
   37.2160   27.0520   43.3450 N   0  0  0  0  0  0  0  0  0  0  0  0
   37.3670   27.2670   40.0480 H   0  0  0  0  0  0  0  0  0  0  0  0
   37.2970   28.7070   44.7090 H   0  0  0  0  0  0  0  0  0  0  0  0
   37.1720   25.2440   41.6310 C   0  0  0  0  0  0  0  0  0  0  0  0
   36.5810   25.1070   40.3810 F   0  0  0  0  0  0  0  0  0  0  0  0
   38.4610   24.7510   41.6330 F   0  0  0  0  0  0  0  0  0  0  0  0
   36.4400   24.5260   42.5660 F   0  0  0  0  0  0  0  0  0  0  0  0
   40.0390   30.1500   40.9900 C   0  0  0  0  0  0  0  0  0  0  0  0
   40.8880   28.9160   41.0630 C   0  0  0  0  0  0  0  0  0  0  0  0
   40.7410   28.1590   40.3860 H   0  0  0  0  0  0  0  0  0  0  0  0
   41.9340   29.2920   42.4510 S   0  0  0  0  0  0  0  0  0  0  0  0
   41.1280   30.9900   42.7420 C   0  0  0  0  0  0  0  0  0  0  0  0
   41.1580   32.0100   43.4730 H   0  0  0  0  0  0  0  0  0  0  0  0
   40.2380   31.1130   41.8630 N   0  0  0  0  0  0  0  0  0  0  0  0
  1 18  1  0  0  0  0
  2  1  1  0  0  0  0
  2  7  1  0  0  0  0
  3  4  1  0  0  0  0
  3  2  1  0  0  0  0
  4 11  1  0  0  0  0
  4  5  1  0  0  0  0
  5  6  1  0  0  0  0
  5 13  1  0  0  0  0
  6 15  1  6  0  0  0
  6  1  1  0  0  0  0
  6 28  1  0  0  0  0
  8  2  1  0  0  0  0
  9  3  1  0  0  0  0
 10  3  1  0  0  0  0
 12  4  1  0  0  0  0
 14  5  1  0  0  0  0
 16 21  1  0  0  0  0
 17 18  1  0  0  0  0
 17 16  2  0  0  0  0
 18 19  2  0  0  0  0
 19 20  1  0  0  0  0
 20 23  1  0  0  0  0
 21 20  2  0  0  0  0
 22 17  1  0  0  0  0
 24 26  1  0  0  0  0
 24 16  1  0  0  0  0
 24 27  1  0  0  0  0
 25 24  1  0  0  0  0
 28 29  2  0  0  0  0
 28 34  1  0  0  0  0
 29 31  1  0  0  0  0
 30 29  1  0  0  0  0
 31 32  1  0  0  0  0
 32 33  1  0  0  0  0
 34 32  2  0  0  0  0
M  END
>  <minimizedAffinity>
-4.96672583

$$$$

 OpenBabel03252503543D

 34 36  0  0  1  0  0  0  0  0999 V2000
   38.0410   30.7910   40.1660 N   0  0  0  0  0  0  0  0  0  0  0  0
   36.9240   31.7310   40.2930 C   0  0  0  0  0  0  0  0  0  0  0  0
   37.3400   32.9880   39.5470 C   0  0  0  0  0  0  0  0  0  0  0  0
   38.4190   33.6650   40.3540 C   0  0  0  0  0  0  0  0  0  0  0  0
   39.5000   32.6710   40.6340 C   0  0  0  0  0  0  0  0  0  0  0  0
   39.3250   31.3530   39.9690 C   0  0  1  0  0  0  0  0  0  0  0  0
   36.8640   31.9870   41.3670 H   0  0  0  0  0  0  0  0  0  0  0  0
   35.9870   31.3060   39.9060 H   0  0  0  0  0  0  0  0  0  0  0  0
   37.7190   32.6510   38.5580 H   0  0  0  0  0  0  0  0  0  0  0  0
   36.4400   33.6210   39.4600 H   0  0  0  0  0  0  0  0  0  0  0  0
   37.9830   34.0330   41.2930 H   0  0  0  0  0  0  0  0  0  0  0  0
   38.7850   34.5380   39.7650 H   0  0  0  0  0  0  0  0  0  0  0  0
   39.6350   32.4990   41.7370 H   0  0  0  0  0  0  0  0  0  0  0  0
   40.4650   33.1160   40.2500 H   0  0  0  0  0  0  0  0  0  0  0  0
   39.5260   31.3900   38.8870 H   0  0  0  0  0  0  0  0  0  0  0  0
   37.3330   27.4200   41.4960 C   0  0  0  0  0  0  0  0  0  0  0  0
   37.5690   28.7960   41.4620 C   0  0  0  0  0  0  0  0  0  0  0  0
   37.8390   29.4140   40.2550 C   0  0  0  0  0  0  0  0  0  0  0  0
   37.8640   28.6420   39.1430 N   0  0  0  0  0  0  0  0  0  0  0  0
   37.6360   27.3030   39.1780 C   0  0  0  0  0  0  0  0  0  0  0  0
   37.3680   26.6960   40.3630 N   0  0  0  0  0  0  0  0  0  0  0  0
   37.5580   29.2880   42.4100 H   0  0  0  0  0  0  0  0  0  0  0  0
   37.6770   26.7570   38.2410 H   0  0  0  0  0  0  0  0  0  0  0  0
   37.0080   26.8060   42.8260 C   0  0  0  0  0  0  0  0  0  0  0  0
   36.6510   25.4690   42.7010 F   0  0  0  0  0  0  0  0  0  0  0  0
   38.1230   26.9550   43.6260 F   0  0  0  0  0  0  0  0  0  0  0  0
   35.9650   27.5060   43.4160 F   0  0  0  0  0  0  0  0  0  0  0  0
   40.4130   30.5170   40.6470 C   0  0  0  0  0  0  0  0  0  0  0  0
   41.2950   29.6000   39.8540 C   0  0  0  0  0  0  0  0  0  0  0  0
   41.1660   29.5260   38.8390 H   0  0  0  0  0  0  0  0  0  0  0  0
   42.3320   28.9230   41.1300 S   0  0  0  0  0  0  0  0  0  0  0  0
   41.4820   29.9210   42.5080 C   0  0  0  0  0  0  0  0  0  0  0  0
   41.4860   30.1430   43.7430 H   0  0  0  0  0  0  0  0  0  0  0  0
   40.5870   30.6030   41.9480 N   0  0  0  0  0  0  0  0  0  0  0  0
  1 18  1  0  0  0  0
  1  2  1  0  0  0  0
  2  7  1  0  0  0  0
  3  2  1  0  0  0  0
  3  4  1  0  0  0  0
  4  5  1  0  0  0  0
  4 11  1  0  0  0  0
  5 13  1  0  0  0  0
  6 15  1  6  0  0  0
  6  1  1  0  0  0  0
  6  5  1  0  0  0  0
  6 28  1  0  0  0  0
  8  2  1  0  0  0  0
  9  3  1  0  0  0  0
 10  3  1  0  0  0  0
 12  4  1  0  0  0  0
 14  5  1  0  0  0  0
 16 24  1  0  0  0  0
 17 16  1  0  0  0  0
 17 22  1  0  0  0  0
 18 17  2  0  0  0  0
 19 20  2  0  0  0  0
 19 18  1  0  0  0  0
 20 21  1  0  0  0  0
 21 16  2  0  0  0  0
 23 20  1  0  0  0  0
 24 27  1  0  0  0  0
 24 26  1  0  0  0  0
 25 24  1  0  0  0  0
 28 34  1  0  0  0  0
 29 28  2  0  0  0  0
 29 31  1  0  0  0  0
 30 29  1  0  0  0  0
 31 32  1  0  0  0  0
 32 33  1  0  0  0  0
 34 32  2  0  0  0  0
M  END
>  <minimizedAffinity>
-4.92514038

$$$$

 OpenBabel03252503543D

 34 36  0  0  1  0  0  0  0  0999 V2000
   35.5490   28.8720   38.5170 N   0  0  0  0  0  0  0  0  0  0  0  0
   34.1070   28.7750   38.2720 C   0  0  0  0  0  0  0  0  0  0  0  0
   33.9470   27.9790   36.9870 C   0  0  0  0  0  0  0  0  0  0  0  0
   34.4060   28.8520   35.8470 C   0  0  0  0  0  0  0  0  0  0  0  0
   35.7820   29.3520   36.1510 C   0  0  0  0  0  0  0  0  0  0  0  0
   36.3920   28.7890   37.3840 C   0  0  1  0  0  0  0  0  0  0  0  0
   33.7640   29.8070   38.0680 H   0  0  0  0  0  0  0  0  0  0  0  0
   33.5790   28.3130   39.1180 H   0  0  0  0  0  0  0  0  0  0  0  0
   34.5890   27.0800   37.0980 H   0  0  0  0  0  0  0  0  0  0  0  0
   32.8770   27.7260   36.8990 H   0  0  0  0  0  0  0  0  0  0  0  0
   33.7070   29.6940   35.7390 H   0  0  0  0  0  0  0  0  0  0  0  0
   34.3720   28.2390   34.9160 H   0  0  0  0  0  0  0  0  0  0  0  0
   35.8150   30.4740   36.2170 H   0  0  0  0  0  0  0  0  0  0  0  0
   36.4410   29.0540   35.2840 H   0  0  0  0  0  0  0  0  0  0  0  0
   36.7100   27.7410   37.2640 H   0  0  0  0  0  0  0  0  0  0  0  0
   37.0210   28.2330   41.8430 C   0  0  0  0  0  0  0  0  0  0  0  0
   36.4880   27.9940   40.5740 C   0  0  0  0  0  0  0  0  0  0  0  0
   36.0500   29.0560   39.8060 C   0  0  0  0  0  0  0  0  0  0  0  0
   36.1560   30.3010   40.3300 N   0  0  0  0  0  0  0  0  0  0  0  0
   36.6720   30.5310   41.5660 C   0  0  0  0  0  0  0  0  0  0  0  0
   37.1050   29.4870   42.3190 N   0  0  0  0  0  0  0  0  0  0  0  0
   36.4240   26.9670   40.2880 H   0  0  0  0  0  0  0  0  0  0  0  0
   36.7190   31.5580   41.9110 H   0  0  0  0  0  0  0  0  0  0  0  0
   37.5160   27.0480   42.6190 C   0  0  0  0  0  0  0  0  0  0  0  0
   38.3300   27.4330   43.6780 F   0  0  0  0  0  0  0  0  0  0  0  0
   36.4060   26.3600   43.0640 F   0  0  0  0  0  0  0  0  0  0  0  0
   38.2290   26.2070   41.7760 F   0  0  0  0  0  0  0  0  0  0  0  0
   37.6340   29.6680   37.5440 C   0  0  0  0  0  0  0  0  0  0  0  0
   37.5760   31.1470   37.3000 C   0  0  0  0  0  0  0  0  0  0  0  0
   36.6900   31.5790   37.0160 H   0  0  0  0  0  0  0  0  0  0  0  0
   39.2560   31.6220   37.6350 S   0  0  0  0  0  0  0  0  0  0  0  0
   39.7970   29.8460   38.0440 C   0  0  0  0  0  0  0  0  0  0  0  0
   40.7770   29.1440   38.3920 H   0  0  0  0  0  0  0  0  0  0  0  0
   38.7760   29.1260   37.9070 N   0  0  0  0  0  0  0  0  0  0  0  0
  1 18  1  0  0  0  0
  2  1  1  0  0  0  0
  2  8  1  0  0  0  0
  3  9  1  0  0  0  0
  3  2  1  0  0  0  0
  4  5  1  0  0  0  0
  4  3  1  0  0  0  0
  5 13  1  0  0  0  0
  5  6  1  0  0  0  0
  6 15  1  6  0  0  0
  6 28  1  0  0  0  0
  6  1  1  0  0  0  0
  7  2  1  0  0  0  0
 10  3  1  0  0  0  0
 11  4  1  0  0  0  0
 12  4  1  0  0  0  0
 14  5  1  0  0  0  0
 16 21  1  0  0  0  0
 16 24  1  0  0  0  0
 17 16  2  0  0  0  0
 18 19  2  0  0  0  0
 18 17  1  0  0  0  0
 19 20  1  0  0  0  0
 20 23  1  0  0  0  0
 20 21  2  0  0  0  0
 22 17  1  0  0  0  0
 24 26  1  0  0  0  0
 24 25  1  0  0  0  0
 27 24  1  0  0  0  0
 28 34  1  0  0  0  0
 29 28  2  0  0  0  0
 29 31  1  0  0  0  0
 30 29  1  0  0  0  0
 31 32  1  0  0  0  0
 32 33  1  0  0  0  0
 34 32  2  0  0  0  0
M  END
>  <minimizedAffinity>
-4.8401413

$$$$

 OpenBabel03252503543D

 34 36  0  0  1  0  0  0  0  0999 V2000
   38.9500   31.4090   40.3720 N   0  0  0  0  0  0  0  0  0  0  0  0
   39.9430   32.4750   40.2090 C   0  0  0  0  0  0  0  0  0  0  0  0
   39.2960   33.7430   40.7410 C   0  0  0  0  0  0  0  0  0  0  0  0
   38.2230   34.1550   39.7660 C   0  0  0  0  0  0  0  0  0  0  0  0
   37.3130   32.9920   39.5370 C   0  0  0  0  0  0  0  0  0  0  0  0
   37.5910   31.8040   40.3860 C   0  0  1  0  0  0  0  0  0  0  0  0
   40.0740   32.6030   39.1180 H   0  0  0  0  0  0  0  0  0  0  0  0
   40.8850   32.2390   40.7230 H   0  0  0  0  0  0  0  0  0  0  0  0
   38.8690   33.4810   41.7320 H   0  0  0  0  0  0  0  0  0  0  0  0
   40.0930   34.5030   40.8120 H   0  0  0  0  0  0  0  0  0  0  0  0
   38.6970   34.4620   38.8230 H   0  0  0  0  0  0  0  0  0  0  0  0
   37.6900   35.0340   40.1990 H   0  0  0  0  0  0  0  0  0  0  0  0
   37.3100   32.6670   38.4600 H   0  0  0  0  0  0  0  0  0  0  0  0
   36.2660   33.3390   39.7780 H   0  0  0  0  0  0  0  0  0  0  0  0
   37.2820   31.9450   41.4340 H   0  0  0  0  0  0  0  0  0  0  0  0
   39.4700   27.9990   41.6890 C   0  0  0  0  0  0  0  0  0  0  0  0
   39.1000   29.3450   41.6360 C   0  0  0  0  0  0  0  0  0  0  0  0
   39.3380   30.0740   40.4870 C   0  0  0  0  0  0  0  0  0  0  0  0
   39.9340   29.4400   39.4480 N   0  0  0  0  0  0  0  0  0  0  0  0
   40.2950   28.1320   39.5020 C   0  0  0  0  0  0  0  0  0  0  0  0
   40.0580   27.4140   40.6310 N   0  0  0  0  0  0  0  0  0  0  0  0
   38.6730   29.7400   42.5320 H   0  0  0  0  0  0  0  0  0  0  0  0
   40.7690   27.7010   38.6270 H   0  0  0  0  0  0  0  0  0  0  0  0
   39.1540   27.2430   42.9470 C   0  0  0  0  0  0  0  0  0  0  0  0
   40.3020   26.9590   43.6770 F   0  0  0  0  0  0  0  0  0  0  0  0
   38.2750   28.0180   43.6760 F   0  0  0  0  0  0  0  0  0  0  0  0
   38.5100   26.0570   42.6240 F   0  0  0  0  0  0  0  0  0  0  0  0
   36.6930   30.7450   39.7430 C   0  0  0  0  0  0  0  0  0  0  0  0
   35.7340   29.9370   40.5650 C   0  0  0  0  0  0  0  0  0  0  0  0
   35.6790   30.0920   41.5780 H   0  0  0  0  0  0  0  0  0  0  0  0
   34.9860   28.9120   39.3200 S   0  0  0  0  0  0  0  0  0  0  0  0
   36.0170   29.6710   37.9140 C   0  0  0  0  0  0  0  0  0  0  0  0
   36.2260   29.6250   36.6770 H   0  0  0  0  0  0  0  0  0  0  0  0
   36.7550   30.5370   38.4460 N   0  0  0  0  0  0  0  0  0  0  0  0
  1  6  1  0  0  0  0
  1 18  1  0  0  0  0
  2  1  1  0  0  0  0
  2  8  1  0  0  0  0
  2  3  1  0  0  0  0
  3 10  1  0  0  0  0
  3  9  1  0  0  0  0
  4 12  1  0  0  0  0
  4  3  1  0  0  0  0
  5  4  1  0  0  0  0
  5 14  1  0  0  0  0
  5  6  1  0  0  0  0
  6 15  1  1  0  0  0
  7  2  1  0  0  0  0
 11  4  1  0  0  0  0
 13  5  1  0  0  0  0
 16 24  1  0  0  0  0
 17 16  1  0  0  0  0
 17 22  1  0  0  0  0
 18 17  2  0  0  0  0
 19 20  2  0  0  0  0
 19 18  1  0  0  0  0
 20 21  1  0  0  0  0
 21 16  2  0  0  0  0
 23 20  1  0  0  0  0
 24 26  1  0  0  0  0
 24 25  1  0  0  0  0
 27 24  1  0  0  0  0
 28  6  1  0  0  0  0
 28 29  2  0  0  0  0
 29 30  1  0  0  0  0
 31 29  1  0  0  0  0
 32 34  2  0  0  0  0
 32 31  1  0  0  0  0
 33 32  1  0  0  0  0
 34 28  1  0  0  0  0
M  END
>  <minimizedAffinity>
-4.81192207

$$$$

 OpenBabel03252503543D

 34 36  0  0  1  0  0  0  0  0999 V2000
   38.5760   28.2190   42.0410 N   0  0  0  0  0  0  0  0  0  0  0  0
   38.4960   27.8170   43.4480 C   0  0  0  0  0  0  0  0  0  0  0  0
   39.6300   26.8300   43.6740 C   0  0  0  0  0  0  0  0  0  0  0  0
   39.2750   25.5520   42.9570 C   0  0  0  0  0  0  0  0  0  0  0  0
   38.9500   25.8760   41.5350 C   0  0  0  0  0  0  0  0  0  0  0  0
   39.1730   27.2940   41.1500 C   0  0  1  0  0  0  0  0  0  0  0  0
   37.5460   27.2600   43.5500 H   0  0  0  0  0  0  0  0  0  0  0  0
   38.5540   28.6820   44.1240 H   0  0  0  0  0  0  0  0  0  0  0  0
   40.5400   27.3000   43.2440 H   0  0  0  0  0  0  0  0  0  0  0  0
   39.7070   26.6760   44.7640 H   0  0  0  0  0  0  0  0  0  0  0  0
   38.4070   25.0950   43.4540 H   0  0  0  0  0  0  0  0  0  0  0  0
   40.1440   24.8600   43.0490 H   0  0  0  0  0  0  0  0  0  0  0  0
   37.8920   25.5980   41.2720 H   0  0  0  0  0  0  0  0  0  0  0  0
   39.6260   25.2430   40.8890 H   0  0  0  0  0  0  0  0  0  0  0  0
   40.2400   27.5480   41.0510 H   0  0  0  0  0  0  0  0  0  0  0  0
   38.3430   31.7170   40.8820 C   0  0  0  0  0  0  0  0  0  0  0  0
   38.8940   30.5220   41.3510 C   0  0  0  0  0  0  0  0  0  0  0  0
   38.0690   29.4450   41.6110 C   0  0  0  0  0  0  0  0  0  0  0  0
   36.7400   29.6010   41.3980 N   0  0  0  0  0  0  0  0  0  0  0  0
   36.2050   30.7650   40.9450 C   0  0  0  0  0  0  0  0  0  0  0  0
   37.0170   31.8230   40.6870 N   0  0  0  0  0  0  0  0  0  0  0  0
   39.9500   30.5350   41.5130 H   0  0  0  0  0  0  0  0  0  0  0  0
   35.1310   30.8080   40.8030 H   0  0  0  0  0  0  0  0  0  0  0  0
   39.2880   32.8430   40.5800 C   0  0  0  0  0  0  0  0  0  0  0  0
   39.4380   33.0340   39.2120 F   0  0  0  0  0  0  0  0  0  0  0  0
   38.7840   33.9730   41.1920 F   0  0  0  0  0  0  0  0  0  0  0  0
   40.5270   32.5710   41.1430 F   0  0  0  0  0  0  0  0  0  0  0  0
   38.5200   27.3480   39.7670 C   0  0  0  0  0  0  0  0  0  0  0  0
   39.1640   28.0860   38.6320 C   0  0  0  0  0  0  0  0  0  0  0  0
   40.0570   28.5680   38.7830 H   0  0  0  0  0  0  0  0  0  0  0  0
   37.9940   27.8030   37.3230 S   0  0  0  0  0  0  0  0  0  0  0  0
   36.8390   26.7710   38.4260 C   0  0  0  0  0  0  0  0  0  0  0  0
   35.7600   26.1290   38.4360 H   0  0  0  0  0  0  0  0  0  0  0  0
   37.3760   26.7340   39.5610 N   0  0  0  0  0  0  0  0  0  0  0  0
  1  2  1  0  0  0  0
  2  7  1  0  0  0  0
  2  3  1  0  0  0  0
  2  8  1  0  0  0  0
  3 10  1  0  0  0  0
  4 12  1  0  0  0  0
  4 11  1  0  0  0  0
  4  3  1  0  0  0  0
  5  4  1  0  0  0  0
  6 15  1  6  0  0  0
  6  5  1  0  0  0  0
  6  1  1  0  0  0  0
  9  3  1  0  0  0  0
 13  5  1  0  0  0  0
 14  5  1  0  0  0  0
 16 17  1  0  0  0  0
 17 22  1  0  0  0  0
 17 18  2  0  0  0  0
 18  1  1  0  0  0  0
 19 18  1  0  0  0  0
 20 19  2  0  0  0  0
 21 16  2  0  0  0  0
 21 20  1  0  0  0  0
 23 20  1  0  0  0  0
 24 16  1  0  0  0  0
 24 27  1  0  0  0  0
 24 26  1  0  0  0  0
 25 24  1  0  0  0  0
 28  6  1  0  0  0  0
 29 30  1  0  0  0  0
 29 28  2  0  0  0  0
 31 32  1  0  0  0  0
 31 29  1  0  0  0  0
 32 33  1  0  0  0  0
 32 34  2  0  0  0  0
 34 28  1  0  0  0  0
M  END
>  <minimizedAffinity>
-4.7530365

$$$$

 OpenBabel03252503543D

 34 36  0  0  1  0  0  0  0  0999 V2000
   37.9430   29.4800   41.5380 N   0  0  0  0  0  0  0  0  0  0  0  0
   37.7180   29.2860   42.9740 C   0  0  0  0  0  0  0  0  0  0  0  0
   38.1260   27.8540   43.2780 C   0  0  0  0  0  0  0  0  0  0  0  0
   37.0930   26.9420   42.6670 C   0  0  0  0  0  0  0  0  0  0  0  0
   36.9370   27.2960   41.2230 C   0  0  0  0  0  0  0  0  0  0  0  0
   37.8890   28.3230   40.7250 C   0  0  1  0  0  0  0  0  0  0  0  0
   36.6240   29.3570   43.1210 H   0  0  0  0  0  0  0  0  0  0  0  0
   38.2750   30.0160   43.5770 H   0  0  0  0  0  0  0  0  0  0  0  0
   39.1250   27.7100   42.8120 H   0  0  0  0  0  0  0  0  0  0  0  0
   38.1550   27.7560   44.3770 H   0  0  0  0  0  0  0  0  0  0  0  0
   36.1400   27.0770   43.2000 H   0  0  0  0  0  0  0  0  0  0  0  0
   37.4380   25.8920   42.8140 H   0  0  0  0  0  0  0  0  0  0  0  0
   35.8910   27.6330   40.9840 H   0  0  0  0  0  0  0  0  0  0  0  0
   37.1210   26.3520   40.6300 H   0  0  0  0  0  0  0  0  0  0  0  0
   38.9130   27.9350   40.6050 H   0  0  0  0  0  0  0  0  0  0  0  0
   39.6430   32.4740   40.2050 C   0  0  0  0  0  0  0  0  0  0  0  0
   39.4580   31.2120   40.7730 C   0  0  0  0  0  0  0  0  0  0  0  0
   38.1780   30.7500   41.0110 C   0  0  0  0  0  0  0  0  0  0  0  0
   37.1430   31.5580   40.6800 N   0  0  0  0  0  0  0  0  0  0  0  0
   37.3240   32.7870   40.1290 C   0  0  0  0  0  0  0  0  0  0  0  0
   38.5830   33.2400   39.8930 N   0  0  0  0  0  0  0  0  0  0  0  0
   40.3540   30.6850   41.0240 H   0  0  0  0  0  0  0  0  0  0  0  0
   36.4410   33.3720   39.8950 H   0  0  0  0  0  0  0  0  0  0  0  0
   41.0520   32.9120   39.9330 C   0  0  0  0  0  0  0  0  0  0  0  0
   41.6370   33.4870   41.0550 F   0  0  0  0  0  0  0  0  0  0  0  0
   41.7520   31.7960   39.5200 F   0  0  0  0  0  0  0  0  0  0  0  0
   41.0590   33.8290   38.8910 F   0  0  0  0  0  0  0  0  0  0  0  0
   37.3130   28.6360   39.3430 C   0  0  0  0  0  0  0  0  0  0  0  0
   38.2070   28.8590   38.1610 C   0  0  0  0  0  0  0  0  0  0  0  0
   39.2260   28.8050   38.2780 H   0  0  0  0  0  0  0  0  0  0  0  0
   37.0180   29.1650   36.8750 S   0  0  0  0  0  0  0  0  0  0  0  0
   35.5320   28.9610   38.0450 C   0  0  0  0  0  0  0  0  0  0  0  0
   34.2790   28.9860   38.0990 H   0  0  0  0  0  0  0  0  0  0  0  0
   36.0100   28.7080   39.1800 N   0  0  0  0  0  0  0  0  0  0  0  0
  1  2  1  0  0  0  0
  2  7  1  0  0  0  0
  2  3  1  0  0  0  0
  2  8  1  0  0  0  0
  3 10  1  0  0  0  0
  4 12  1  0  0  0  0
  4 11  1  0  0  0  0
  4  3  1  0  0  0  0
  5  4  1  0  0  0  0
  6 15  1  6  0  0  0
  6  5  1  0  0  0  0
  6  1  1  0  0  0  0
  9  3  1  0  0  0  0
 13  5  1  0  0  0  0
 14  5  1  0  0  0  0
 16 17  1  0  0  0  0
 17 18  2  0  0  0  0
 17 22  1  0  0  0  0
 18  1  1  0  0  0  0
 19 18  1  0  0  0  0
 20 19  2  0  0  0  0
 21 20  1  0  0  0  0
 21 16  2  0  0  0  0
 23 20  1  0  0  0  0
 24 16  1  0  0  0  0
 24 25  1  0  0  0  0
 26 24  1  0  0  0  0
 27 24  1  0  0  0  0
 28  6  1  0  0  0  0
 29 30  1  0  0  0  0
 29 28  2  0  0  0  0
 31 32  1  0  0  0  0
 31 29  1  0  0  0  0
 32 33  1  0  0  0  0
 32 34  2  0  0  0  0
 34 28  1  0  0  0  0
M  END
>  <minimizedAffinity>
-4.72094917

$$$$

 OpenBabel03252503543D

 34 36  0  0  1  0  0  0  0  0999 V2000
   39.3480   31.8100   39.7230 N   0  0  0  0  0  0  0  0  0  0  0  0
   40.3790   32.6410   40.3520 C   0  0  0  0  0  0  0  0  0  0  0  0
   40.5950   33.8250   39.4240 C   0  0  0  0  0  0  0  0  0  0  0  0
   41.3020   33.3190   38.1920 C   0  0  0  0  0  0  0  0  0  0  0  0
   40.5260   32.1710   37.6330 C   0  0  0  0  0  0  0  0  0  0  0  0
   39.2330   31.8990   38.3150 C   0  0  1  0  0  0  0  0  0  0  0  0
   41.3050   32.0360   40.3400 H   0  0  0  0  0  0  0  0  0  0  0  0
   40.0900   32.9520   41.3660 H   0  0  0  0  0  0  0  0  0  0  0  0
   39.5840   34.2180   39.1820 H   0  0  0  0  0  0  0  0  0  0  0  0
   41.2120   34.5550   39.9750 H   0  0  0  0  0  0  0  0  0  0  0  0
   42.3160   32.9980   38.4700 H   0  0  0  0  0  0  0  0  0  0  0  0
   41.3820   34.1690   37.4750 H   0  0  0  0  0  0  0  0  0  0  0  0
   41.1290   31.2220   37.6230 H   0  0  0  0  0  0  0  0  0  0  0  0
   40.2910   32.4230   36.5570 H   0  0  0  0  0  0  0  0  0  0  0  0
   38.4590   32.6450   38.0770 H   0  0  0  0  0  0  0  0  0  0  0  0
   38.2240   29.0880   41.9500 C   0  0  0  0  0  0  0  0  0  0  0  0
   39.0650   29.8840   41.1690 C   0  0  0  0  0  0  0  0  0  0  0  0
   38.5420   30.9630   40.4820 C   0  0  0  0  0  0  0  0  0  0  0  0
   37.2130   31.2010   40.5990 N   0  0  0  0  0  0  0  0  0  0  0  0
   36.3960   30.4240   41.3570 C   0  0  0  0  0  0  0  0  0  0  0  0
   36.9120   29.3650   42.0340 N   0  0  0  0  0  0  0  0  0  0  0  0
   40.0870   29.5720   41.1280 H   0  0  0  0  0  0  0  0  0  0  0  0
   35.3430   30.6830   41.3950 H   0  0  0  0  0  0  0  0  0  0  0  0
   38.8510   27.9520   42.7040 C   0  0  0  0  0  0  0  0  0  0  0  0
   39.1800   26.8960   41.8620 F   0  0  0  0  0  0  0  0  0  0  0  0
   39.9690   28.4530   43.3400 F   0  0  0  0  0  0  0  0  0  0  0  0
   37.9720   27.5030   43.6800 F   0  0  0  0  0  0  0  0  0  0  0  0
   38.8340   30.5570   37.6990 C   0  0  0  0  0  0  0  0  0  0  0  0
   37.4590   30.3360   37.1420 C   0  0  0  0  0  0  0  0  0  0  0  0
   36.7700   31.0960   37.1760 H   0  0  0  0  0  0  0  0  0  0  0  0
   37.5770   28.6540   36.5780 S   0  0  0  0  0  0  0  0  0  0  0  0
   39.3840   28.4720   37.1410 C   0  0  0  0  0  0  0  0  0  0  0  0
   40.3510   27.6730   37.1900 H   0  0  0  0  0  0  0  0  0  0  0  0
   39.7070   29.5750   37.6490 N   0  0  0  0  0  0  0  0  0  0  0  0
  1  2  1  0  0  0  0
  1 18  1  0  0  0  0
  2  8  1  0  0  0  0
  3 10  1  0  0  0  0
  3  2  1  0  0  0  0
  4 11  1  0  0  0  0
  4  3  1  0  0  0  0
  5  4  1  0  0  0  0
  5  6  1  0  0  0  0
  6 15  1  6  0  0  0
  6  1  1  0  0  0  0
  7  2  1  0  0  0  0
  9  3  1  0  0  0  0
 12  4  1  0  0  0  0
 13  5  1  0  0  0  0
 14  5  1  0  0  0  0
 16 21  1  0  0  0  0
 16 24  1  0  0  0  0
 17 16  2  0  0  0  0
 18 19  2  0  0  0  0
 18 17  1  0  0  0  0
 19 20  1  0  0  0  0
 20 23  1  0  0  0  0
 20 21  2  0  0  0  0
 22 17  1  0  0  0  0
 24 26  1  0  0  0  0
 24 27  1  0  0  0  0
 25 24  1  0  0  0  0
 28  6  1  0  0  0  0
 29 30  1  0  0  0  0
 29 28  2  0  0  0  0
 31 32  1  0  0  0  0
 31 29  1  0  0  0  0
 32 33  1  0  0  0  0
 32 34  2  0  0  0  0
 34 28  1  0  0  0  0
M  END
>  <minimizedAffinity>
-4.71944761

$$$$
