
 OpenBabel03252503293D

 23 24  0  0  0  0  0  0  0  0999 V2000
   37.2900   30.7590   40.9460 C   0  0  0  0  0  0  0  0  0  0  0  0
   37.6410   29.7570   41.8790 C   0  0  0  0  0  0  0  0  0  0  0  0
   36.7560   28.6660   41.9520 C   0  0  0  0  0  0  0  0  0  0  0  0
   35.6730   28.6530   41.1550 N   0  0  0  0  0  0  0  0  0  0  0  0
   35.3890   29.6450   40.2790 C   0  0  0  0  0  0  0  0  0  0  0  0
   36.2060   30.7020   40.1790 N   0  0  0  0  0  0  0  0  0  0  0  0
   39.3180   31.6150   40.1020 C   0  0  0  0  0  0  0  0  0  0  0  0
   39.4820   30.4310   39.6940 O   0  0  0  0  0  0  0  0  0  0  0  0
   38.1210   31.9170   40.7880 N   0  0  0  0  0  0  0  0  0  0  0  0
   38.5460   29.9400   42.4300 H   0  0  0  0  0  0  0  0  0  0  0  0
   34.4930   29.5710   39.6620 H   0  0  0  0  0  0  0  0  0  0  0  0
   37.9800   32.8990   41.0920 H   0  0  0  0  0  0  0  0  0  0  0  0
   40.3450   32.6230   39.8610 C   0  0  0  0  0  0  0  0  0  0  0  0
   40.7170   32.8630   38.5280 C   0  0  0  0  0  0  0  0  0  0  0  0
   40.4130   32.4600   37.5610 H   0  0  0  0  0  0  0  0  0  0  0  0
   41.9960   34.1610   38.6710 S   0  0  0  0  0  0  0  0  0  0  0  0
   41.8080   34.1610   40.5620 C   0  0  0  0  0  0  0  0  0  0  0  0
   42.2780   34.7260   41.4860 H   0  0  0  0  0  0  0  0  0  0  0  0
   41.0150   33.3800   40.7030 N   0  0  0  0  0  0  0  0  0  0  0  0
   37.1400   27.6370   42.9270 C   0  0  0  0  0  0  0  0  0  0  0  0
   37.4310   26.4620   42.2330 F   0  0  0  0  0  0  0  0  0  0  0  0
   36.0190   27.3370   43.6780 F   0  0  0  0  0  0  0  0  0  0  0  0
   38.2320   27.9670   43.6730 F   0  0  0  0  0  0  0  0  0  0  0  0
  1  2  1  0  0  0  0
  2  3  2  0  0  0  0
  2 10  1  0  0  0  0
  3 20  1  0  0  0  0
  4  3  1  0  0  0  0
  5  4  2  0  0  0  0
  6  5  1  0  0  0  0
  6  1  2  0  0  0  0
  7  9  1  0  0  0  0
  8  7  2  0  0  0  0
  9  1  1  0  0  0  0
  9 12  1  0  0  0  0
 11  5  1  0  0  0  0
 13  7  1  0  0  0  0
 13 19  1  0  0  0  0
 14 16  1  0  0  0  0
 14 13  2  0  0  0  0
 15 14  1  0  0  0  0
 16 17  1  0  0  0  0
 17 19  2  0  0  0  0
 17 18  1  0  0  0  0
 20 23  1  0  0  0  0
 20 22  1  0  0  0  0
 21 20  1  0  0  0  0
M  END
>  <minimizedAffinity>
-5.07498741

$$$$

 OpenBabel03252503293D

 23 24  0  0  0  0  0  0  0  0999 V2000
   39.2670   27.9910   41.9620 C   0  0  0  0  0  0  0  0  0  0  0  0
   38.3450   27.0250   41.5000 C   0  0  0  0  0  0  0  0  0  0  0  0
   38.3150   25.8240   42.2320 C   0  0  0  0  0  0  0  0  0  0  0  0
   39.1400   25.6840   43.2850 N   0  0  0  0  0  0  0  0  0  0  0  0
   40.0040   26.6480   43.6800 C   0  0  0  0  0  0  0  0  0  0  0  0
   40.0640   27.8070   43.0090 N   0  0  0  0  0  0  0  0  0  0  0  0
   38.2780   30.0930   41.5570 C   0  0  0  0  0  0  0  0  0  0  0  0
   37.3920   29.6670   42.3490 O   0  0  0  0  0  0  0  0  0  0  0  0
   39.3810   29.2530   41.2900 N   0  0  0  0  0  0  0  0  0  0  0  0
   37.7680   27.3140   40.6410 H   0  0  0  0  0  0  0  0  0  0  0  0
   40.6450   26.4690   44.5440 H   0  0  0  0  0  0  0  0  0  0  0  0
   40.1210   29.6220   40.6630 H   0  0  0  0  0  0  0  0  0  0  0  0
   38.1470   31.4130   40.9480 C   0  0  0  0  0  0  0  0  0  0  0  0
   37.0630   31.6200   40.0800 C   0  0  0  0  0  0  0  0  0  0  0  0
   36.2380   31.0030   39.7190 H   0  0  0  0  0  0  0  0  0  0  0  0
   37.2670   33.3570   39.5520 S   0  0  0  0  0  0  0  0  0  0  0  0
   38.8270   33.5160   40.6250 C   0  0  0  0  0  0  0  0  0  0  0  0
   39.6270   34.3450   40.8850 H   0  0  0  0  0  0  0  0  0  0  0  0
   38.8920   32.4900   41.0720 N   0  0  0  0  0  0  0  0  0  0  0  0
   37.3500   24.8340   41.7370 C   0  0  0  0  0  0  0  0  0  0  0  0
   36.2940   24.7590   42.6440 F   0  0  0  0  0  0  0  0  0  0  0  0
   37.9590   23.5940   41.7970 F   0  0  0  0  0  0  0  0  0  0  0  0
   36.8340   25.1360   40.5120 F   0  0  0  0  0  0  0  0  0  0  0  0
  1  6  1  0  0  0  0
  2  1  2  0  0  0  0
  2  3  1  0  0  0  0
  3  4  2  0  0  0  0
  4  5  1  0  0  0  0
  5 11  1  0  0  0  0
  6  5  2  0  0  0  0
  7  8  2  0  0  0  0
  9  7  1  0  0  0  0
  9  1  1  0  0  0  0
 10  2  1  0  0  0  0
 12  9  1  0  0  0  0
 13 19  1  0  0  0  0
 13  7  1  0  0  0  0
 14 13  2  0  0  0  0
 15 14  1  0  0  0  0
 16 14  1  0  0  0  0
 16 17  1  0  0  0  0
 17 18  1  0  0  0  0
 17 19  2  0  0  0  0
 20 22  1  0  0  0  0
 20  3  1  0  0  0  0
 20 21  1  0  0  0  0
 23 20  1  0  0  0  0
M  END
>  <minimizedAffinity>
-4.89630079

$$$$

 OpenBabel03252503293D

 23 24  0  0  0  0  0  0  0  0999 V2000
   40.1360   28.6230   42.0870 C   0  0  0  0  0  0  0  0  0  0  0  0
   38.7640   28.3030   41.9750 C   0  0  0  0  0  0  0  0  0  0  0  0
   38.3200   27.2550   42.8020 C   0  0  0  0  0  0  0  0  0  0  0  0
   39.2040   26.6510   43.6150 N   0  0  0  0  0  0  0  0  0  0  0  0
   40.5090   27.0020   43.6790 C   0  0  0  0  0  0  0  0  0  0  0  0
   40.9730   27.9950   42.9070 N   0  0  0  0  0  0  0  0  0  0  0  0
   40.3010   30.9500   41.7500 C   0  0  0  0  0  0  0  0  0  0  0  0
   39.5740   31.0060   42.7810 O   0  0  0  0  0  0  0  0  0  0  0  0
   40.6960   29.6750   41.2890 N   0  0  0  0  0  0  0  0  0  0  0  0
   38.2100   28.8960   41.2690 H   0  0  0  0  0  0  0  0  0  0  0  0
   41.1720   26.4700   44.3620 H   0  0  0  0  0  0  0  0  0  0  0  0
   41.3180   29.6380   40.4600 H   0  0  0  0  0  0  0  0  0  0  0  0
   40.7080   32.1760   41.0710 C   0  0  0  0  0  0  0  0  0  0  0  0
   42.0160   32.6360   41.2930 C   0  0  0  0  0  0  0  0  0  0  0  0
   42.8630   32.2870   41.8850 H   0  0  0  0  0  0  0  0  0  0  0  0
   42.1100   34.1560   40.2830 S   0  0  0  0  0  0  0  0  0  0  0  0
   40.3140   33.9070   39.7130 C   0  0  0  0  0  0  0  0  0  0  0  0
   39.5360   34.4540   39.0140 H   0  0  0  0  0  0  0  0  0  0  0  0
   40.0410   32.9620   40.2530 N   0  0  0  0  0  0  0  0  0  0  0  0
   36.8920   26.9400   42.6700 C   0  0  0  0  0  0  0  0  0  0  0  0
   36.7480   25.5520   42.6660 F   0  0  0  0  0  0  0  0  0  0  0  0
   36.4930   27.3410   41.4090 F   0  0  0  0  0  0  0  0  0  0  0  0
   36.1230   27.4410   43.6780 F   0  0  0  0  0  0  0  0  0  0  0  0
  1  6  1  0  0  0  0
  2  1  2  0  0  0  0
  2  3  1  0  0  0  0
  3  4  2  0  0  0  0
  4  5  1  0  0  0  0
  5 11  1  0  0  0  0
  6  5  2  0  0  0  0
  7  8  2  0  0  0  0
  9  7  1  0  0  0  0
  9  1  1  0  0  0  0
 10  2  1  0  0  0  0
 12  9  1  0  0  0  0
 13 14  2  0  0  0  0
 13  7  1  0  0  0  0
 14 15  1  0  0  0  0
 16 14  1  0  0  0  0
 17 19  2  0  0  0  0
 17 16  1  0  0  0  0
 18 17  1  0  0  0  0
 19 13  1  0  0  0  0
 20  3  1  0  0  0  0
 20 23  1  0  0  0  0
 21 20  1  0  0  0  0
 22 20  1  0  0  0  0
M  END
>  <minimizedAffinity>
-4.73293877

$$$$

 OpenBabel03252503293D

 23 24  0  0  0  0  0  0  0  0999 V2000
   37.6500   30.9990   37.4330 C   0  0  0  0  0  0  0  0  0  0  0  0
   37.1390   30.8190   38.7390 C   0  0  0  0  0  0  0  0  0  0  0  0
   36.0700   29.9110   38.8470 C   0  0  0  0  0  0  0  0  0  0  0  0
   35.6220   29.2990   37.7370 N   0  0  0  0  0  0  0  0  0  0  0  0
   36.1540   29.5130   36.5110 C   0  0  0  0  0  0  0  0  0  0  0  0
   37.1730   30.3700   36.3640 N   0  0  0  0  0  0  0  0  0  0  0  0
   39.9640   31.3750   37.6760 C   0  0  0  0  0  0  0  0  0  0  0  0
   39.9550   30.2150   38.1740 O   0  0  0  0  0  0  0  0  0  0  0  0
   38.7410   31.9010   37.2070 N   0  0  0  0  0  0  0  0  0  0  0  0
   37.6240   31.3960   39.5060 H   0  0  0  0  0  0  0  0  0  0  0  0
   35.7420   28.9820   35.6510 H   0  0  0  0  0  0  0  0  0  0  0  0
   38.7620   32.8430   36.7710 H   0  0  0  0  0  0  0  0  0  0  0  0
   41.2110   32.1310   37.5990 C   0  0  0  0  0  0  0  0  0  0  0  0
   42.3990   31.4030   37.4240 C   0  0  0  0  0  0  0  0  0  0  0  0
   42.6440   30.3440   37.3240 H   0  0  0  0  0  0  0  0  0  0  0  0
   43.6880   32.6980   37.3800 S   0  0  0  0  0  0  0  0  0  0  0  0
   42.3660   34.0430   37.6130 C   0  0  0  0  0  0  0  0  0  0  0  0
   42.3240   35.2200   37.6990 H   0  0  0  0  0  0  0  0  0  0  0  0
   41.4310   33.4260   37.6670 N   0  0  0  0  0  0  0  0  0  0  0  0
   35.5540   29.7390   40.2120 C   0  0  0  0  0  0  0  0  0  0  0  0
   36.2350   28.6760   40.8060 F   0  0  0  0  0  0  0  0  0  0  0  0
   34.2450   29.3090   40.1100 F   0  0  0  0  0  0  0  0  0  0  0  0
   35.7150   30.8380   41.0020 F   0  0  0  0  0  0  0  0  0  0  0  0
  1  2  1  0  0  0  0
  2  3  2  0  0  0  0
  2 10  1  0  0  0  0
  3 20  1  0  0  0  0
  4  3  1  0  0  0  0
  5  4  2  0  0  0  0
  6  5  1  0  0  0  0
  6  1  2  0  0  0  0
  7  8  2  0  0  0  0
  9  1  1  0  0  0  0
  9  7  1  0  0  0  0
 11  5  1  0  0  0  0
 12  9  1  0  0  0  0
 13 19  1  0  0  0  0
 13  7  1  0  0  0  0
 14 13  2  0  0  0  0
 15 14  1  0  0  0  0
 16 14  1  0  0  0  0
 16 17  1  0  0  0  0
 17 19  2  0  0  0  0
 17 18  1  0  0  0  0
 20 21  1  0  0  0  0
 20 23  1  0  0  0  0
 22 20  1  0  0  0  0
M  END
>  <minimizedAffinity>
-4.67585707

$$$$

 OpenBabel03252503293D

 23 24  0  0  0  0  0  0  0  0999 V2000
   37.2920   28.7930   40.0030 C   0  0  0  0  0  0  0  0  0  0  0  0
   37.2570   28.1660   41.2700 C   0  0  0  0  0  0  0  0  0  0  0  0
   37.0830   26.7700   41.2460 C   0  0  0  0  0  0  0  0  0  0  0  0
   36.9650   26.1510   40.0580 N   0  0  0  0  0  0  0  0  0  0  0  0
   37.0060   26.8070   38.8750 C   0  0  0  0  0  0  0  0  0  0  0  0
   37.1700   28.1370   38.8550 N   0  0  0  0  0  0  0  0  0  0  0  0
   38.7910   30.6020   40.2040 C   0  0  0  0  0  0  0  0  0  0  0  0
   39.6290   29.6920   40.4580 O   0  0  0  0  0  0  0  0  0  0  0  0
   37.4650   30.2140   39.9110 N   0  0  0  0  0  0  0  0  0  0  0  0
   37.3680   28.8250   42.1120 H   0  0  0  0  0  0  0  0  0  0  0  0
   36.9030   26.2430   37.9480 H   0  0  0  0  0  0  0  0  0  0  0  0
   36.7900   30.9640   39.6720 H   0  0  0  0  0  0  0  0  0  0  0  0
   39.2000   32.0020   40.2190 C   0  0  0  0  0  0  0  0  0  0  0  0
   40.4700   32.3110   39.7040 C   0  0  0  0  0  0  0  0  0  0  0  0
   41.2830   31.7310   39.2650 H   0  0  0  0  0  0  0  0  0  0  0  0
   40.5820   34.1240   39.9080 S   0  0  0  0  0  0  0  0  0  0  0  0
   38.8440   34.1600   40.6780 C   0  0  0  0  0  0  0  0  0  0  0  0
   38.1010   34.9650   41.1170 H   0  0  0  0  0  0  0  0  0  0  0  0
   38.5680   33.0740   40.6470 N   0  0  0  0  0  0  0  0  0  0  0  0
   37.0510   26.1390   42.5710 C   0  0  0  0  0  0  0  0  0  0  0  0
   36.2300   26.9030   43.4000 F   0  0  0  0  0  0  0  0  0  0  0  0
   38.3150   26.2550   43.1180 F   0  0  0  0  0  0  0  0  0  0  0  0
   36.5690   24.8640   42.5610 F   0  0  0  0  0  0  0  0  0  0  0  0
  1  2  1  0  0  0  0
  2 10  1  0  0  0  0
  3  2  2  0  0  0  0
  3 20  1  0  0  0  0
  4  3  1  0  0  0  0
  5  4  2  0  0  0  0
  6  5  1  0  0  0  0
  6  1  2  0  0  0  0
  7 13  1  0  0  0  0
  7  8  2  0  0  0  0
  9  1  1  0  0  0  0
  9  7  1  0  0  0  0
 11  5  1  0  0  0  0
 12  9  1  0  0  0  0
 13 19  1  0  0  0  0
 14 16  1  0  0  0  0
 14 13  2  0  0  0  0
 15 14  1  0  0  0  0
 16 17  1  0  0  0  0
 17 18  1  0  0  0  0
 19 17  2  0  0  0  0
 20 22  1  0  0  0  0
 20 21  1  0  0  0  0
 23 20  1  0  0  0  0
M  END
>  <minimizedAffinity>
-4.61091566

$$$$

 OpenBabel03252503293D

 23 24  0  0  0  0  0  0  0  0999 V2000
   36.4800   29.1920   39.7980 C   0  0  0  0  0  0  0  0  0  0  0  0
   36.4810   28.1190   40.7190 C   0  0  0  0  0  0  0  0  0  0  0  0
   37.0040   28.4180   41.9900 C   0  0  0  0  0  0  0  0  0  0  0  0
   37.4530   29.6620   42.2320 N   0  0  0  0  0  0  0  0  0  0  0  0
   37.4270   30.6500   41.3070 C   0  0  0  0  0  0  0  0  0  0  0  0
   36.9360   30.4060   40.0830 N   0  0  0  0  0  0  0  0  0  0  0  0
   34.5600   28.9110   38.4590 C   0  0  0  0  0  0  0  0  0  0  0  0
   33.9510   29.0470   39.5570 O   0  0  0  0  0  0  0  0  0  0  0  0
   35.9690   28.9990   38.4720 N   0  0  0  0  0  0  0  0  0  0  0  0
   36.0820   27.1930   40.3460 H   0  0  0  0  0  0  0  0  0  0  0  0
   37.8070   31.6370   41.5700 H   0  0  0  0  0  0  0  0  0  0  0  0
   36.4610   28.9170   37.5620 H   0  0  0  0  0  0  0  0  0  0  0  0
   33.8120   28.6690   37.2300 C   0  0  0  0  0  0  0  0  0  0  0  0
   32.5530   29.2780   37.1080 C   0  0  0  0  0  0  0  0  0  0  0  0
   31.9500   29.9310   37.7410 H   0  0  0  0  0  0  0  0  0  0  0  0
   31.9730   28.7300   35.4640 S   0  0  0  0  0  0  0  0  0  0  0  0
   33.5760   27.7410   35.2100 C   0  0  0  0  0  0  0  0  0  0  0  0
   34.0540   27.0520   34.3800 H   0  0  0  0  0  0  0  0  0  0  0  0
   34.1180   27.9520   36.1690 N   0  0  0  0  0  0  0  0  0  0  0  0
   36.9960   27.2900   42.9310 C   0  0  0  0  0  0  0  0  0  0  0  0
   36.8560   26.1110   42.2000 F   0  0  0  0  0  0  0  0  0  0  0  0
   35.8370   27.3830   43.6790 F   0  0  0  0  0  0  0  0  0  0  0  0
   38.1300   27.1900   43.6800 F   0  0  0  0  0  0  0  0  0  0  0  0
  1  6  2  0  0  0  0
  1  2  1  0  0  0  0
  2  3  2  0  0  0  0
  3  4  1  0  0  0  0
  3 20  1  0  0  0  0
  5 11  1  0  0  0  0
  5  4  2  0  0  0  0
  6  5  1  0  0  0  0
  7  9  1  0  0  0  0
  7  8  2  0  0  0  0
  9  1  1  0  0  0  0
 10  2  1  0  0  0  0
 12  9  1  0  0  0  0
 13  7  1  0  0  0  0
 14 13  2  0  0  0  0
 14 15  1  0  0  0  0
 16 14  1  0  0  0  0
 17 16  1  0  0  0  0
 17 19  2  0  0  0  0
 18 17  1  0  0  0  0
 19 13  1  0  0  0  0
 20 22  1  0  0  0  0
 20 23  1  0  0  0  0
 21 20  1  0  0  0  0
M  END
>  <minimizedAffinity>
-4.5524087

$$$$

 OpenBabel03252503293D

 23 24  0  0  0  0  0  0  0  0999 V2000
   38.7190   28.6710   41.8890 C   0  0  0  0  0  0  0  0  0  0  0  0
   38.4020   27.4250   41.3020 C   0  0  0  0  0  0  0  0  0  0  0  0
   37.4740   26.6430   42.0140 C   0  0  0  0  0  0  0  0  0  0  0  0
   36.9710   27.1190   43.1660 N   0  0  0  0  0  0  0  0  0  0  0  0
   37.3140   28.3240   43.6800 C   0  0  0  0  0  0  0  0  0  0  0  0
   38.1950   29.1000   43.0330 N   0  0  0  0  0  0  0  0  0  0  0  0
   39.0970   30.1640   40.1050 C   0  0  0  0  0  0  0  0  0  0  0  0
   37.8920   29.9100   39.8250 O   0  0  0  0  0  0  0  0  0  0  0  0
   39.6530   29.5500   41.2480 N   0  0  0  0  0  0  0  0  0  0  0  0
   38.9040   27.2130   40.3760 H   0  0  0  0  0  0  0  0  0  0  0  0
   36.8670   28.6500   44.6200 H   0  0  0  0  0  0  0  0  0  0  0  0
   40.6330   29.7890   41.4890 H   0  0  0  0  0  0  0  0  0  0  0  0
   39.8720   31.0670   39.2590 C   0  0  0  0  0  0  0  0  0  0  0  0
   40.3760   30.5520   38.0540 C   0  0  0  0  0  0  0  0  0  0  0  0
   40.3330   29.5830   37.5540 H   0  0  0  0  0  0  0  0  0  0  0  0
   41.2610   31.9730   37.3210 S   0  0  0  0  0  0  0  0  0  0  0  0
   40.7880   33.0560   38.8100 C   0  0  0  0  0  0  0  0  0  0  0  0
   40.9560   34.1670   39.1700 H   0  0  0  0  0  0  0  0  0  0  0  0
   40.1980   32.3300   39.4300 N   0  0  0  0  0  0  0  0  0  0  0  0
   37.1590   25.3530   41.3870 C   0  0  0  0  0  0  0  0  0  0  0  0
   38.3570   24.7460   41.0070 F   0  0  0  0  0  0  0  0  0  0  0  0
   36.5040   25.6180   40.1990 F   0  0  0  0  0  0  0  0  0  0  0  0
   36.4920   24.4920   42.2060 F   0  0  0  0  0  0  0  0  0  0  0  0
  1  6  1  0  0  0  0
  2  1  2  0  0  0  0
  2  3  1  0  0  0  0
  3  4  2  0  0  0  0
  4  5  1  0  0  0  0
  5 11  1  0  0  0  0
  6  5  2  0  0  0  0
  7  9  1  0  0  0  0
  8  7  2  0  0  0  0
  9 12  1  0  0  0  0
  9  1  1  0  0  0  0
 10  2  1  0  0  0  0
 13 19  1  0  0  0  0
 13  7  1  0  0  0  0
 14 13  2  0  0  0  0
 15 14  1  0  0  0  0
 16 14  1  0  0  0  0
 16 17  1  0  0  0  0
 17 18  1  0  0  0  0
 17 19  2  0  0  0  0
 20  3  1  0  0  0  0
 20 23  1  0  0  0  0
 21 20  1  0  0  0  0
 22 20  1  0  0  0  0
M  END
>  <minimizedAffinity>
-4.43620396

$$$$

 OpenBabel03252503293D

 23 24  0  0  0  0  0  0  0  0999 V2000
   37.6220   27.0500   41.9090 C   0  0  0  0  0  0  0  0  0  0  0  0
   36.8190   27.9020   41.1170 C   0  0  0  0  0  0  0  0  0  0  0  0
   36.8510   29.2630   41.4730 C   0  0  0  0  0  0  0  0  0  0  0  0
   37.6190   29.6450   42.5090 N   0  0  0  0  0  0  0  0  0  0  0  0
   38.3680   28.7800   43.2310 C   0  0  0  0  0  0  0  0  0  0  0  0
   38.3650   27.4750   42.9250 N   0  0  0  0  0  0  0  0  0  0  0  0
   38.4080   25.3580   40.4680 C   0  0  0  0  0  0  0  0  0  0  0  0
   38.9530   26.3240   39.8640 O   0  0  0  0  0  0  0  0  0  0  0  0
   37.6640   25.6440   41.6340 N   0  0  0  0  0  0  0  0  0  0  0  0
   36.2710   27.4170   40.3300 H   0  0  0  0  0  0  0  0  0  0  0  0
   38.9690   29.1580   44.0600 H   0  0  0  0  0  0  0  0  0  0  0  0
   37.2460   24.8410   42.1420 H   0  0  0  0  0  0  0  0  0  0  0  0
   38.5540   23.9980   39.9590 C   0  0  0  0  0  0  0  0  0  0  0  0
   39.2310   23.8320   38.7400 C   0  0  0  0  0  0  0  0  0  0  0  0
   39.7080   24.5070   38.0280 H   0  0  0  0  0  0  0  0  0  0  0  0
   39.1920   22.0250   38.4740 S   0  0  0  0  0  0  0  0  0  0  0  0
   38.2400   21.7900   40.1020 C   0  0  0  0  0  0  0  0  0  0  0  0
   37.7890   20.8970   40.7290 H   0  0  0  0  0  0  0  0  0  0  0  0
   38.1490   22.8500   40.4580 N   0  0  0  0  0  0  0  0  0  0  0  0
   36.0100   30.1300   40.6380 C   0  0  0  0  0  0  0  0  0  0  0  0
   36.6950   30.3930   39.4510 F   0  0  0  0  0  0  0  0  0  0  0  0
   35.9170   31.3550   41.2730 F   0  0  0  0  0  0  0  0  0  0  0  0
   34.8050   29.5820   40.3160 F   0  0  0  0  0  0  0  0  0  0  0  0
  1  6  1  0  0  0  0
  2  3  1  0  0  0  0
  2  1  2  0  0  0  0
  3  4  2  0  0  0  0
  4  5  1  0  0  0  0
  5 11  1  0  0  0  0
  6  5  2  0  0  0  0
  7  9  1  0  0  0  0
  8  7  2  0  0  0  0
  9  1  1  0  0  0  0
  9 12  1  0  0  0  0
 10  2  1  0  0  0  0
 13 19  1  0  0  0  0
 13  7  1  0  0  0  0
 14 13  2  0  0  0  0
 15 14  1  0  0  0  0
 16 14  1  0  0  0  0
 16 17  1  0  0  0  0
 17 19  2  0  0  0  0
 17 18  1  0  0  0  0
 20 22  1  0  0  0  0
 20  3  1  0  0  0  0
 21 20  1  0  0  0  0
 23 20  1  0  0  0  0
M  END
>  <minimizedAffinity>
-4.41554546

$$$$

 OpenBabel03252503293D

 23 24  0  0  0  0  0  0  0  0999 V2000
   36.9020   28.7490   40.0690 C   0  0  0  0  0  0  0  0  0  0  0  0
   37.2770   28.0010   41.2080 C   0  0  0  0  0  0  0  0  0  0  0  0
   37.1030   26.6090   41.0980 C   0  0  0  0  0  0  0  0  0  0  0  0
   36.6060   26.1050   39.9550 N   0  0  0  0  0  0  0  0  0  0  0  0
   36.2640   26.8740   38.8950 C   0  0  0  0  0  0  0  0  0  0  0  0
   36.4150   28.2050   38.9590 N   0  0  0  0  0  0  0  0  0  0  0  0
   38.3880   30.5760   39.9610 C   0  0  0  0  0  0  0  0  0  0  0  0
   39.2620   29.6730   39.8380 O   0  0  0  0  0  0  0  0  0  0  0  0
   37.0380   30.1760   40.0710 N   0  0  0  0  0  0  0  0  0  0  0  0
   37.6550   28.5770   42.0320 H   0  0  0  0  0  0  0  0  0  0  0  0
   35.8670   26.3990   37.9970 H   0  0  0  0  0  0  0  0  0  0  0  0
   36.3230   30.9250   40.1400 H   0  0  0  0  0  0  0  0  0  0  0  0
   38.7820   31.9810   39.9870 C   0  0  0  0  0  0  0  0  0  0  0  0
   40.1430   32.2750   39.8000 C   0  0  0  0  0  0  0  0  0  0  0  0
   41.0420   31.6800   39.6290 H   0  0  0  0  0  0  0  0  0  0  0  0
   40.2020   34.0980   39.9020 S   0  0  0  0  0  0  0  0  0  0  0  0
   38.3240   34.1590   40.1890 C   0  0  0  0  0  0  0  0  0  0  0  0
   37.4940   34.9790   40.3640 H   0  0  0  0  0  0  0  0  0  0  0  0
   38.0630   33.0680   40.1610 N   0  0  0  0  0  0  0  0  0  0  0  0
   37.4990   25.8510   42.2920 C   0  0  0  0  0  0  0  0  0  0  0  0
   38.5920   25.0510   41.9600 F   0  0  0  0  0  0  0  0  0  0  0  0
   36.4800   24.9600   42.5750 F   0  0  0  0  0  0  0  0  0  0  0  0
   37.8560   26.6360   43.3480 F   0  0  0  0  0  0  0  0  0  0  0  0
  1  9  1  0  0  0  0
  1  2  1  0  0  0  0
  2 10  1  0  0  0  0
  3  2  2  0  0  0  0
  3 20  1  0  0  0  0
  4  3  1  0  0  0  0
  5  6  1  0  0  0  0
  5  4  2  0  0  0  0
  6  1  2  0  0  0  0
  7 13  1  0  0  0  0
  7  9  1  0  0  0  0
  8  7  2  0  0  0  0
  9 12  1  0  0  0  0
 11  5  1  0  0  0  0
 13 19  1  0  0  0  0
 14 16  1  0  0  0  0
 14 13  2  0  0  0  0
 15 14  1  0  0  0  0
 16 17  1  0  0  0  0
 17 18  1  0  0  0  0
 19 17  2  0  0  0  0
 20 22  1  0  0  0  0
 20 23  1  0  0  0  0
 21 20  1  0  0  0  0
M  END
>  <minimizedAffinity>
-4.39358425

$$$$
