
 OpenBabel03252508363D

 29 31  0  0  0  0  0  0  0  0999 V2000
   47.7950   32.9720   42.7640 C   0  0  0  0  0  0  0  0  0  0  0  0
   47.1470   34.1730   42.6480 C   0  0  0  0  0  0  0  0  0  0  0  0
   47.4380   34.9130   41.5320 C   0  0  0  0  0  0  0  0  0  0  0  0
   48.3240   34.5130   40.5550 C   0  0  0  0  0  0  0  0  0  0  0  0
   48.9470   33.2950   40.7250 C   0  0  0  0  0  0  0  0  0  0  0  0
   48.6880   32.5130   41.8300 C   0  0  0  0  0  0  0  0  0  0  0  0
   46.9460   35.8670   41.4060 H   0  0  0  0  0  0  0  0  0  0  0  0
   48.5430   35.1100   39.6790 H   0  0  0  0  0  0  0  0  0  0  0  0
   49.6340   32.9820   39.9700 H   0  0  0  0  0  0  0  0  0  0  0  0
   45.2290   34.2600   45.8850 C   0  0  0  0  0  0  0  0  0  0  0  0
   46.1340   33.8530   44.8990 C   0  0  0  0  0  0  0  0  0  0  0  0
   46.2270   34.5570   43.6900 C   0  0  0  0  0  0  0  0  0  0  0  0
   45.3890   35.6280   43.5740 N   0  0  0  0  0  0  0  0  0  0  0  0
   44.5310   35.9980   44.5280 C   0  0  0  0  0  0  0  0  0  0  0  0
   44.4590   35.3090   45.6790 N   0  0  0  0  0  0  0  0  0  0  0  0
   45.1750   33.5140   47.0890 N   0  0  0  0  0  0  0  0  0  0  0  0
   46.7660   32.9940   45.0650 H   0  0  0  0  0  0  0  0  0  0  0  0
   43.9010   36.8710   44.3390 H   0  0  0  0  0  0  0  0  0  0  0  0
   45.3550   32.5120   47.1850 H   0  0  0  0  0  0  0  0  0  0  0  0
   44.9280   34.0070   47.9800 H   0  0  0  0  0  0  0  0  0  0  0  0
   49.3340   31.2110   42.0400 C   0  0  0  0  0  0  0  0  0  0  0  0
   48.7930   30.0260   41.3150 C   0  0  0  0  0  0  0  0  0  0  0  0
   47.9780   29.9900   40.6450 H   0  0  0  0  0  0  0  0  0  0  0  0
   49.8420   28.7160   41.8510 S   0  0  0  0  0  0  0  0  0  0  0  0
   50.8670   29.8710   42.9620 C   0  0  0  0  0  0  0  0  0  0  0  0
   51.7590   29.7040   43.6470 H   0  0  0  0  0  0  0  0  0  0  0  0
   50.3650   30.9080   42.8040 N   0  0  0  0  0  0  0  0  0  0  0  0
   47.3500   31.4290   44.8530 N   0  0  0  0  0  0  0  0  0  0  0  0
   47.5440   32.1310   43.9170 C   0  0  0  0  0  0  0  0  0  0  0  0
  1 29  1  0  0  0  0
  2  1  1  0  0  0  0
  2 12  1  0  0  0  0
  3  2  2  0  0  0  0
  4  5  2  0  0  0  0
  4  3  1  0  0  0  0
  5  6  1  0  0  0  0
  6 21  1  0  0  0  0
  6  1  2  0  0  0  0
  7  3  1  0  0  0  0
  8  4  1  0  0  0  0
  9  5  1  0  0  0  0
 10 16  1  0  0  0  0
 11 17  1  0  0  0  0
 11 10  2  0  0  0  0
 12 11  1  0  0  0  0
 13 12  2  0  0  0  0
 13 14  1  0  0  0  0
 14 15  2  0  0  0  0
 15 10  1  0  0  0  0
 16 19  1  0  0  0  0
 16 20  1  0  0  0  0
 18 14  1  0  0  0  0
 21 27  1  0  0  0  0
 22 24  1  0  0  0  0
 22 21  2  0  0  0  0
 23 22  1  0  0  0  0
 24 25  1  0  0  0  0
 25 26  1  0  0  0  0
 27 25  2  0  0  0  0
 29 28  3  0  0  0  0
M  END
>  <minimizedAffinity>
-5.07383919

>  <minimizedRMSD>
4.62666368

$$$$
