
 OpenBabel03252509043D

 46 48  0  0  1  0  0  0  0  0999 V2000
   46.7110   34.3790   43.4840 N   0  0  0  0  0  0  0  0  0  0  0  0
   46.4400   34.9230   42.2140 C   0  0  0  0  0  0  0  0  0  0  0  0
   44.9760   34.9310   41.8290 C   0  0  0  0  0  0  0  0  0  0  0  0
   44.0510   35.1960   42.9920 C   0  0  0  0  0  0  0  0  0  0  0  0
   44.8050   35.4210   44.2830 C   0  0  0  0  0  0  0  0  0  0  0  0
   45.7140   34.1410   44.4030 C   0  0  2  0  0  0  0  0  0  0  0  0
   46.9940   34.5070   41.3730 H   0  0  0  0  0  0  0  0  0  0  0  0
   46.7350   36.0120   42.2520 H   0  0  0  0  0  0  0  0  0  0  0  0
   44.8010   35.6030   40.9770 H   0  0  0  0  0  0  0  0  0  0  0  0
   44.7530   33.9000   41.4640 H   0  0  0  0  0  0  0  0  0  0  0  0
   43.2950   34.4330   43.1640 H   0  0  0  0  0  0  0  0  0  0  0  0
   43.5330   36.1600   42.7710 H   0  0  0  0  0  0  0  0  0  0  0  0
   45.4510   36.3040   44.2100 H   0  0  0  0  0  0  0  0  0  0  0  0
   44.0860   35.4290   45.1090 H   0  0  0  0  0  0  0  0  0  0  0  0
   45.0190   33.3100   44.2190 H   0  0  0  0  0  0  0  0  0  0  0  0
   47.8980   33.5590   43.5360 C   0  0  0  0  0  0  0  0  0  0  0  0
   48.1290   33.3090   44.5710 H   0  0  0  0  0  0  0  0  0  0  0  0
   48.7440   34.1740   43.1490 H   0  0  0  0  0  0  0  0  0  0  0  0
   47.6790   32.3430   42.7130 C   0  0  0  0  0  0  0  0  0  0  0  0
   47.5010   31.4620   43.3410 H   0  0  0  0  0  0  0  0  0  0  0  0
   46.7800   32.4460   42.0530 H   0  0  0  0  0  0  0  0  0  0  0  0
   51.2180   32.1930   41.4720 C   0  0  0  0  0  0  0  0  0  0  0  0
   50.1010   32.3980   42.2900 C   0  0  0  0  0  0  0  0  0  0  0  0
   48.8520   32.1180   41.8280 C   0  0  0  0  0  0  0  0  0  0  0  0
   48.7420   31.6470   40.5790 N   0  0  0  0  0  0  0  0  0  0  0  0
   49.8080   31.4450   39.7850 C   0  0  0  0  0  0  0  0  0  0  0  0
   51.0500   31.7120   40.2120 N   0  0  0  0  0  0  0  0  0  0  0  0
   52.2190   32.3940   41.7810 H   0  0  0  0  0  0  0  0  0  0  0  0
   50.3130   32.7820   43.2810 H   0  0  0  0  0  0  0  0  0  0  0  0
   49.5450   31.0650   38.8170 H   0  0  0  0  0  0  0  0  0  0  0  0
   46.1550   34.2270   45.7100 O   0  0  0  0  0  0  0  0  0  0  0  0
   45.6840   31.6170   45.5950 O   0  0  0  0  0  0  0  0  0  0  0  0
   46.0610   32.7800   46.5400 P   0  0  2  0  0  0  0  0  0  0  0  0
   44.7140   32.9100   47.5900 O   0  0  0  0  0  0  0  0  0  0  0  0
   44.9930   32.8160   48.5330 H   0  0  0  0  0  0  0  0  0  0  0  0
   47.4090   32.4280   47.4400 O   0  0  0  0  0  0  0  0  0  0  0  0
   47.5150   31.0570   47.5990 C   0  0  0  0  0  0  0  0  0  0  0  0
   46.5870   30.6120   47.9770 H   0  0  0  0  0  0  0  0  0  0  0  0
   47.7390   30.5700   46.6120 H   0  0  0  0  0  0  0  0  0  0  0  0
   48.6260   30.6970   48.5540 C   0  0  0  0  0  0  0  0  0  0  0  0
   49.1490   29.3410   48.5800 C   0  0  0  0  0  0  0  0  0  0  0  0
   48.7790   28.5500   47.9410 H   0  0  0  0  0  0  0  0  0  0  0  0
   50.4330   29.4850   49.8780 S   0  0  0  0  0  0  0  0  0  0  0  0
   50.0600   31.3050   50.1630 C   0  0  0  0  0  0  0  0  0  0  0  0
   50.5410   31.9790   50.8700 H   0  0  0  0  0  0  0  0  0  0  0  0
   49.1700   31.5590   49.3890 N   0  0  0  0  0  0  0  0  0  0  0  0
  1 16  1  0  0  0  0
  1  6  1  0  0  0  0
  2  8  1  0  0  0  0
  2  1  1  0  0  0  0
  3  2  1  0  0  0  0
  3  4  1  0  0  0  0
  4 11  1  0  0  0  0
  4  5  1  0  0  0  0
  5  6  1  0  0  0  0
  5 14  1  0  0  0  0
  6 15  1  6  0  0  0
  6 31  1  0  0  0  0
  7  2  1  0  0  0  0
  9  3  1  0  0  0  0
 10  3  1  0  0  0  0
 12  4  1  0  0  0  0
 13  5  1  0  0  0  0
 16 17  1  0  0  0  0
 18 16  1  0  0  0  0
 19 20  1  0  0  0  0
 19 16  1  0  0  0  0
 21 19  1  0  0  0  0
 22 28  1  0  0  0  0
 22 23  1  0  0  0  0
 23 29  1  0  0  0  0
 24 23  2  0  0  0  0
 24 19  1  0  0  0  0
 25 24  1  0  0  0  0
 26 27  1  0  0  0  0
 26 25  2  0  0  0  0
 27 22  2  0  0  0  0
 30 26  1  0  0  0  0
 31 33  1  0  0  0  0
 33 32  2  6  0  0  0
 33 36  1  0  0  0  0
 33 34  1  0  0  0  0
 34 35  1  0  0  0  0
 36 37  1  0  0  0  0
 37 38  1  0  0  0  0
 37 40  1  0  0  0  0
 39 37  1  0  0  0  0
 40 41  2  0  0  0  0
 40 46  1  0  0  0  0
 41 43  1  0  0  0  0
 42 41  1  0  0  0  0
 43 44  1  0  0  0  0
 44 45  1  0  0  0  0
 46 44  2  0  0  0  0
M  END
>  <minimizedAffinity>
-4.9102025

>  <minimizedRMSD>
2.9852078

$$$$
