
 OpenBabel03242523423D

 22 23  0  0  1  0  0  0  0  0999 V2000
   47.3920   35.1420   41.8460 C   0  0  2  0  0  0  0  0  0  0  0  0
   47.4610   36.2170   41.5500 H   0  0  0  0  0  0  0  0  0  0  0  0
   45.5060   36.0560   43.1730 C   0  0  0  0  0  0  0  0  0  0  0  0
   46.4780   35.0720   42.9950 C   0  0  0  0  0  0  0  0  0  0  0  0
   46.5610   34.0150   43.9420 C   0  0  0  0  0  0  0  0  0  0  0  0
   45.6720   34.0360   44.9760 N   0  0  0  0  0  0  0  0  0  0  0  0
   44.7580   35.0010   45.1060 C   0  0  0  0  0  0  0  0  0  0  0  0
   44.6820   35.9930   44.2110 N   0  0  0  0  0  0  0  0  0  0  0  0
   45.3770   36.8900   42.4990 H   0  0  0  0  0  0  0  0  0  0  0  0
   47.2990   33.2360   43.8350 H   0  0  0  0  0  0  0  0  0  0  0  0
   44.0590   34.9940   45.9410 H   0  0  0  0  0  0  0  0  0  0  0  0
   46.9730   34.3070   40.6890 C   0  0  0  0  0  0  0  0  0  0  0  0
   45.5870   33.8400   40.5910 C   0  0  0  0  0  0  0  0  0  0  0  0
   44.8340   34.0460   41.2810 H   0  0  0  0  0  0  0  0  0  0  0  0
   45.6090   32.9020   39.0560 S   0  0  0  0  0  0  0  0  0  0  0  0
   47.4670   33.2710   38.7750 C   0  0  0  0  0  0  0  0  0  0  0  0
   48.0180   32.9010   37.9140 H   0  0  0  0  0  0  0  0  0  0  0  0
   47.7690   33.9330   39.7050 N   0  0  0  0  0  0  0  0  0  0  0  0
   48.7810   34.7770   42.3240 C   0  0  0  0  0  0  0  0  0  0  0  0
   49.4840   35.6480   42.3260 H   0  0  0  0  0  0  0  0  0  0  0  0
   49.2080   34.0820   41.5420 H   0  0  0  0  0  0  0  0  0  0  0  0
   48.7070   34.2910   43.3000 H   0  0  0  0  0  0  0  0  0  0  0  0
  1  2  1  6  0  0  0
  1 19  1  0  0  0  0
  1  4  1  0  0  0  0
  3  8  1  0  0  0  0
  4  3  2  0  0  0  0
  4  5  1  0  0  0  0
  5  6  2  0  0  0  0
  6  7  1  0  0  0  0
  7 11  1  0  0  0  0
  8  7  2  0  0  0  0
  9  3  1  0  0  0  0
 10  5  1  0  0  0  0
 12  1  1  0  0  0  0
 13 12  2  0  0  0  0
 13 14  1  0  0  0  0
 15 13  1  0  0  0  0
 16 15  1  0  0  0  0
 16 18  2  0  0  0  0
 17 16  1  0  0  0  0
 18 12  1  0  0  0  0
 19 20  1  0  0  0  0
 19 22  1  0  0  0  0
 21 19  1  0  0  0  0
M  END
>  <minimizedAffinity>
-3.93747354

>  <minimizedRMSD>
1.34716225

$$$$
