
 OpenBabel03252505513D

 23 24  0  0  0  0  0  0  0  0999 V2000
   44.7400   35.3510   45.0420 C   0  0  0  0  0  0  0  0  0  0  0  0
   45.6140   34.9100   44.0500 C   0  0  0  0  0  0  0  0  0  0  0  0
   46.3710   33.7720   44.3110 C   0  0  0  0  0  0  0  0  0  0  0  0
   46.2290   33.1510   45.4960 N   0  0  0  0  0  0  0  0  0  0  0  0
   45.3840   33.5930   46.4320 C   0  0  0  0  0  0  0  0  0  0  0  0
   44.6250   34.6940   46.2300 N   0  0  0  0  0  0  0  0  0  0  0  0
   44.1190   36.2280   44.9120 H   0  0  0  0  0  0  0  0  0  0  0  0
   47.0380   33.4600   43.5170 H   0  0  0  0  0  0  0  0  0  0  0  0
   45.6570   35.7120   42.7760 C   0  0  0  0  0  0  0  0  0  0  0  0
   45.2240   36.9640   43.1020 F   0  0  0  0  0  0  0  0  0  0  0  0
   44.7520   35.1020   41.9110 F   0  0  0  0  0  0  0  0  0  0  0  0
   46.9370   35.6650   42.2930 F   0  0  0  0  0  0  0  0  0  0  0  0
   45.2180   32.9780   47.6550 O   0  0  0  0  0  0  0  0  0  0  0  0
   46.2390   32.2570   48.2950 C   0  0  0  0  0  0  0  0  0  0  0  0
   47.2410   32.6940   48.1080 H   0  0  0  0  0  0  0  0  0  0  0  0
   46.0970   32.3280   49.3910 H   0  0  0  0  0  0  0  0  0  0  0  0
   46.2010   30.7860   47.9620 C   0  0  0  0  0  0  0  0  0  0  0  0
   44.9950   30.0480   47.8890 C   0  0  0  0  0  0  0  0  0  0  0  0
   43.9870   30.3560   48.0410 H   0  0  0  0  0  0  0  0  0  0  0  0
   45.5570   28.3770   47.4640 S   0  0  0  0  0  0  0  0  0  0  0  0
   47.3690   28.9540   47.4510 C   0  0  0  0  0  0  0  0  0  0  0  0
   48.4540   28.4580   47.2520 H   0  0  0  0  0  0  0  0  0  0  0  0
   47.2640   30.0420   47.7080 N   0  0  0  0  0  0  0  0  0  0  0  0
  1  6  1  0  0  0  0
  2  3  1  0  0  0  0
  2  1  2  0  0  0  0
  3  4  2  0  0  0  0
  4  5  1  0  0  0  0
  5 13  1  0  0  0  0
  6  5  2  0  0  0  0
  7  1  1  0  0  0  0
  8  3  1  0  0  0  0
  9 10  1  0  0  0  0
  9  2  1  0  0  0  0
 11  9  1  0  0  0  0
 12  9  1  0  0  0  0
 13 14  1  0  0  0  0
 14 16  1  0  0  0  0
 15 14  1  0  0  0  0
 17 14  1  0  0  0  0
 18 17  2  0  0  0  0
 18 19  1  0  0  0  0
 20 18  1  0  0  0  0
 21 20  1  0  0  0  0
 21 23  2  0  0  0  0
 22 21  1  0  0  0  0
 23 17  1  0  0  0  0
M  END
>  <minimizedAffinity>
-4.62181997

>  <minimizedRMSD>
0.736116409

$$$$
