
 OpenBabel03252509263D

 28 30  0  0  1  0  0  0  0  0999 V2000
   46.5550   35.0160   41.9530 C   0  0  1  0  0  0  0  0  0  0  0  0
   48.0790   35.3350   41.9640 C   0  0  0  0  0  0  0  0  0  0  0  0
   47.3990   34.0460   41.3930 C   0  0  2  0  0  0  0  0  0  0  0  0
   45.9660   35.7300   41.3420 H   0  0  0  0  0  0  0  0  0  0  0  0
   48.6310   35.2420   42.8980 H   0  0  0  0  0  0  0  0  0  0  0  0
   48.4010   36.0150   41.1670 H   0  0  0  0  0  0  0  0  0  0  0  0
   47.7280   33.1260   41.9680 H   0  0  0  0  0  0  0  0  0  0  0  0
   44.6310   35.4420   45.1500 C   0  0  0  0  0  0  0  0  0  0  0  0
   45.1040   35.7180   43.8260 C   0  0  0  0  0  0  0  0  0  0  0  0
   46.0430   34.8560   43.3640 C   0  0  0  0  0  0  0  0  0  0  0  0
   46.5030   33.7980   44.1160 N   0  0  0  0  0  0  0  0  0  0  0  0
   46.0330   33.5730   45.3560 C   0  0  0  0  0  0  0  0  0  0  0  0
   45.0940   34.3970   45.8730 N   0  0  0  0  0  0  0  0  0  0  0  0
   43.8730   36.1480   45.5050 H   0  0  0  0  0  0  0  0  0  0  0  0
   46.4120   32.7370   45.9220 H   0  0  0  0  0  0  0  0  0  0  0  0
   44.6520   36.8180   43.0770 N   0  0  0  0  0  0  0  0  0  0  0  0
   45.4090   37.5080   43.3450 H   0  0  0  0  0  0  0  0  0  0  0  0
   43.8340   36.9570   42.4420 H   0  0  0  0  0  0  0  0  0  0  0  0
   47.4930   33.8190   39.9050 C   0  0  0  0  0  0  0  0  0  0  0  0
   48.5080   33.4610   39.6360 H   0  0  0  0  0  0  0  0  0  0  0  0
   47.4050   34.8180   39.4320 H   0  0  0  0  0  0  0  0  0  0  0  0
   46.4540   32.8510   39.4260 C   0  0  0  0  0  0  0  0  0  0  0  0
   46.5640   31.4800   39.6440 C   0  0  0  0  0  0  0  0  0  0  0  0
   47.4190   30.9980   40.1830 H   0  0  0  0  0  0  0  0  0  0  0  0
   45.0260   30.8230   38.8460 S   0  0  0  0  0  0  0  0  0  0  0  0
   44.5100   32.5700   38.3570 C   0  0  0  0  0  0  0  0  0  0  0  0
   43.5930   32.8260   37.8080 H   0  0  0  0  0  0  0  0  0  0  0  0
   45.3650   33.2230   38.7670 N   0  0  0  0  0  0  0  0  0  0  0  0
  1  4  1  6  0  0  0
  1  2  1  0  0  0  0
  1 10  1  0  0  0  0
  2  5  1  0  0  0  0
  3  1  1  0  0  0  0
  3  2  1  0  0  0  0
  3  7  1  1  0  0  0
  6  2  1  0  0  0  0
  8 14  1  0  0  0  0
  8 13  1  0  0  0  0
  9  8  2  0  0  0  0
 10  9  1  0  0  0  0
 10 11  2  0  0  0  0
 11 12  1  0  0  0  0
 12 13  2  0  0  0  0
 12 15  1  0  0  0  0
 16 17  1  0  0  0  0
 16  9  1  0  0  0  0
 18 16  1  0  0  0  0
 19  3  1  0  0  0  0
 20 19  1  0  0  0  0
 21 19  1  0  0  0  0
 22 23  2  0  0  0  0
 22 19  1  0  0  0  0
 23 24  1  0  0  0  0
 25 23  1  0  0  0  0
 26 28  2  0  0  0  0
 26 25  1  0  0  0  0
 27 26  1  0  0  0  0
 28 22  1  0  0  0  0
M  END
>  <minimizedAffinity>
-4.39265394

>  <minimizedRMSD>
0.890613616

$$$$
