
 OpenBabel03252506143D

 34 36  0  0  0  0  0  0  0  0999 V2000
   40.3020   30.4320   39.6390 F   0  0  0  0  0  0  0  0  0  0  0  0
   39.2720   31.2550   39.7360 C   0  0  0  0  0  0  0  0  0  0  0  0
   39.4800   32.6210   39.6280 C   0  0  0  0  0  0  0  0  0  0  0  0
   38.4530   33.5540   39.7170 C   0  0  0  0  0  0  0  0  0  0  0  0
   37.1440   33.1180   39.9240 C   0  0  0  0  0  0  0  0  0  0  0  0
   36.9730   31.7480   40.0270 C   0  0  0  0  0  0  0  0  0  0  0  0
   37.9640   30.8210   39.9420 C   0  0  0  0  0  0  0  0  0  0  0  0
   38.6980   34.6200   39.6210 H   0  0  0  0  0  0  0  0  0  0  0  0
   36.3830   33.8780   39.9850 H   0  0  0  0  0  0  0  0  0  0  0  0
   35.9160   31.5460   40.1760 H   0  0  0  0  0  0  0  0  0  0  0  0
   42.4420   33.9640   37.9280 C   0  0  0  0  0  0  0  0  0  0  0  0
   43.3570   34.0880   38.9960 C   0  0  0  0  0  0  0  0  0  0  0  0
   42.9470   33.7060   40.3090 C   0  0  0  0  0  0  0  0  0  0  0  0
   41.6720   33.2380   40.4380 N   0  0  0  0  0  0  0  0  0  0  0  0
   40.8360   33.1350   39.4050 C   0  0  0  0  0  0  0  0  0  0  0  0
   41.2190   33.4940   38.1660 N   0  0  0  0  0  0  0  0  0  0  0  0
   44.3580   34.4580   38.8810 H   0  0  0  0  0  0  0  0  0  0  0  0
   43.6080   33.7850   41.1400 H   0  0  0  0  0  0  0  0  0  0  0  0
   42.8700   34.3490   36.6380 N   0  0  0  0  0  0  0  0  0  0  0  0
   42.8280   33.6530   35.8540 H   0  0  0  0  0  0  0  0  0  0  0  0
   43.2070   35.3360   36.5740 H   0  0  0  0  0  0  0  0  0  0  0  0
   37.6790   29.4910   40.0600 O   0  0  0  0  0  0  0  0  0  0  0  0
   35.1770   28.9090   40.7250 O   0  0  0  0  0  0  0  0  0  0  0  0
   36.6100   28.7880   41.1530 P   0  0  2  0  0  0  0  0  0  0  0  0
   36.8570   29.4890   42.6830 O   0  0  0  0  0  0  0  0  0  0  0  0
   36.3380   28.9400   43.3340 H   0  0  0  0  0  0  0  0  0  0  0  0
   36.9460   27.1250   41.3930 O   0  0  0  0  0  0  0  0  0  0  0  0
   38.0630   26.7530   42.1730 C   0  0  0  0  0  0  0  0  0  0  0  0
   38.3520   25.3950   42.1370 C   0  0  0  0  0  0  0  0  0  0  0  0
   38.0170   24.4480   41.7060 H   0  0  0  0  0  0  0  0  0  0  0  0
   39.8510   25.2370   43.2480 S   0  0  0  0  0  0  0  0  0  0  0  0
   39.7890   27.1090   43.5520 C   0  0  0  0  0  0  0  0  0  0  0  0
   40.2850   28.1320   44.1210 H   0  0  0  0  0  0  0  0  0  0  0  0
   38.9050   27.4210   42.9380 N   0  0  0  0  0  0  0  0  0  0  0  0
  1  2  1  0  0  0  0
  2  7  1  0  0  0  0
  3  4  1  0  0  0  0
  3  2  2  0  0  0  0
  4  5  2  0  0  0  0
  5  9  1  0  0  0  0
  5  6  1  0  0  0  0
  6 10  1  0  0  0  0
  7  6  2  0  0  0  0
  7 22  1  0  0  0  0
  8  4  1  0  0  0  0
 11 16  2  0  0  0  0
 11 12  1  0  0  0  0
 12 13  2  0  0  0  0
 13 14  1  0  0  0  0
 13 18  1  0  0  0  0
 15  3  1  0  0  0  0
 15 14  2  0  0  0  0
 16 15  1  0  0  0  0
 17 12  1  0  0  0  0
 19 11  1  0  0  0  0
 20 19  1  0  0  0  0
 21 19  1  0  0  0  0
 22 24  1  0  0  0  0
 24 23  2  6  0  0  0
 24 27  1  0  0  0  0
 24 25  1  0  0  0  0
 25 26  1  0  0  0  0
 27 28  1  0  0  0  0
 28 34  1  0  0  0  0
 29 28  2  0  0  0  0
 29 31  1  0  0  0  0
 30 29  1  0  0  0  0
 31 32  1  0  0  0  0
 32 33  1  0  0  0  0
 34 32  2  0  0  0  0
M  END
>  <minimizedAffinity>
-6.13182163

$$$$

 OpenBabel03252506143D

 34 36  0  0  0  0  0  0  0  0999 V2000
   37.9980   27.7730   39.5580 F   0  0  0  0  0  0  0  0  0  0  0  0
   37.7150   27.8340   40.8480 C   0  0  0  0  0  0  0  0  0  0  0  0
   37.2560   26.7000   41.4990 C   0  0  0  0  0  0  0  0  0  0  0  0
   36.9380   26.6790   42.8520 C   0  0  0  0  0  0  0  0  0  0  0  0
   37.0800   27.8420   43.6100 C   0  0  0  0  0  0  0  0  0  0  0  0
   37.5410   28.9550   42.9280 C   0  0  0  0  0  0  0  0  0  0  0  0
   37.8570   28.9940   41.6070 C   0  0  0  0  0  0  0  0  0  0  0  0
   36.5800   25.7400   43.2970 H   0  0  0  0  0  0  0  0  0  0  0  0
   36.8220   27.7760   44.6540 H   0  0  0  0  0  0  0  0  0  0  0  0
   37.6130   29.7800   43.6310 H   0  0  0  0  0  0  0  0  0  0  0  0
   37.6100   23.1850   40.5040 C   0  0  0  0  0  0  0  0  0  0  0  0
   36.7870   23.1250   39.3580 C   0  0  0  0  0  0  0  0  0  0  0  0
   36.1070   24.3050   38.9290 C   0  0  0  0  0  0  0  0  0  0  0  0
   36.3070   25.4300   39.6750 N   0  0  0  0  0  0  0  0  0  0  0  0
   37.0930   25.4480   40.7520 C   0  0  0  0  0  0  0  0  0  0  0  0
   37.7350   24.3380   41.1590 N   0  0  0  0  0  0  0  0  0  0  0  0
   36.6380   22.2330   38.7800 H   0  0  0  0  0  0  0  0  0  0  0  0
   35.4770   24.3000   38.0710 H   0  0  0  0  0  0  0  0  0  0  0  0
   38.2720   22.0060   40.9090 N   0  0  0  0  0  0  0  0  0  0  0  0
   39.3170   22.0080   40.9970 H   0  0  0  0  0  0  0  0  0  0  0  0
   37.6360   21.1970   41.0930 H   0  0  0  0  0  0  0  0  0  0  0  0
   38.3020   30.1530   41.0360 O   0  0  0  0  0  0  0  0  0  0  0  0
   37.9610   32.7570   40.6620 O   0  0  0  0  0  0  0  0  0  0  0  0
   37.3520   31.4050   40.4380 P   0  0  2  0  0  0  0  0  0  0  0  0
   35.8070   31.3000   41.1420 O   0  0  0  0  0  0  0  0  0  0  0  0
   35.2250   31.9400   40.6460 H   0  0  0  0  0  0  0  0  0  0  0  0
   37.0590   31.2350   38.7570 O   0  0  0  0  0  0  0  0  0  0  0  0
   36.3080   30.1320   38.2960 C   0  0  0  0  0  0  0  0  0  0  0  0
   36.7190   29.6420   37.0630 C   0  0  0  0  0  0  0  0  0  0  0  0
   37.4500   29.8010   36.2670 H   0  0  0  0  0  0  0  0  0  0  0  0
   35.5460   28.2170   36.7450 S   0  0  0  0  0  0  0  0  0  0  0  0
   34.7010   28.5780   38.4060 C   0  0  0  0  0  0  0  0  0  0  0  0
   33.7980   28.2810   39.2500 H   0  0  0  0  0  0  0  0  0  0  0  0
   35.2880   29.4540   38.7860 N   0  0  0  0  0  0  0  0  0  0  0  0
  1  2  1  0  0  0  0
  2  3  2  0  0  0  0
  2  7  1  0  0  0  0
  3  4  1  0  0  0  0
  4  8  1  0  0  0  0
  4  5  2  0  0  0  0
  5  9  1  0  0  0  0
  6  5  1  0  0  0  0
  6 10  1  0  0  0  0
  7  6  2  0  0  0  0
 11 19  1  0  0  0  0
 11 16  1  0  0  0  0
 12 11  2  0  0  0  0
 13 12  1  0  0  0  0
 13 14  2  0  0  0  0
 14 15  1  0  0  0  0
 15 16  2  0  0  0  0
 15  3  1  0  0  0  0
 17 12  1  0  0  0  0
 18 13  1  0  0  0  0
 19 20  1  0  0  0  0
 19 21  1  0  0  0  0
 22  7  1  0  0  0  0
 24 23  2  1  0  0  0
 24 22  1  0  0  0  0
 24 25  1  0  0  0  0
 26 25  1  0  0  0  0
 27 24  1  0  0  0  0
 28 27  1  0  0  0  0
 28 34  1  0  0  0  0
 29 28  2  0  0  0  0
 30 29  1  0  0  0  0
 31 29  1  0  0  0  0
 31 32  1  0  0  0  0
 32 34  2  0  0  0  0
 32 33  1  0  0  0  0
M  END
>  <minimizedAffinity>
-5.81678295

$$$$

 OpenBabel03252506143D

 34 36  0  0  0  0  0  0  0  0999 V2000
   38.1110   28.2600   39.7220 F   0  0  0  0  0  0  0  0  0  0  0  0
   37.7430   28.0400   40.9720 C   0  0  0  0  0  0  0  0  0  0  0  0
   37.8160   29.0710   41.8950 C   0  0  0  0  0  0  0  0  0  0  0  0
   37.4480   28.9250   43.2280 C   0  0  0  0  0  0  0  0  0  0  0  0
   36.9800   27.6910   43.6790 C   0  0  0  0  0  0  0  0  0  0  0  0
   36.9190   26.6830   42.7310 C   0  0  0  0  0  0  0  0  0  0  0  0
   37.2740   26.8080   41.4250 C   0  0  0  0  0  0  0  0  0  0  0  0
   37.5350   29.7900   43.8990 H   0  0  0  0  0  0  0  0  0  0  0  0
   36.7060   27.6260   44.7200 H   0  0  0  0  0  0  0  0  0  0  0  0
   36.5330   25.7880   43.2090 H   0  0  0  0  0  0  0  0  0  0  0  0
   37.8450   32.4730   40.5180 C   0  0  0  0  0  0  0  0  0  0  0  0
   39.1970   32.8430   40.6900 C   0  0  0  0  0  0  0  0  0  0  0  0
   40.1010   31.9130   41.2860 C   0  0  0  0  0  0  0  0  0  0  0  0
   39.5800   30.7060   41.6530 N   0  0  0  0  0  0  0  0  0  0  0  0
   38.2970   30.3920   41.4730 C   0  0  0  0  0  0  0  0  0  0  0  0
   37.4420   31.2660   40.9120 N   0  0  0  0  0  0  0  0  0  0  0  0
   39.5930   33.7970   40.3980 H   0  0  0  0  0  0  0  0  0  0  0  0
   41.1270   32.1550   41.4340 H   0  0  0  0  0  0  0  0  0  0  0  0
   36.9690   33.4100   39.9270 N   0  0  0  0  0  0  0  0  0  0  0  0
   36.4410   33.1440   39.0600 H   0  0  0  0  0  0  0  0  0  0  0  0
   36.9220   34.3280   40.4250 H   0  0  0  0  0  0  0  0  0  0  0  0
   37.1740   25.7430   40.5760 O   0  0  0  0  0  0  0  0  0  0  0  0
   37.9860   23.5920   39.2520 O   0  0  0  0  0  0  0  0  0  0  0  0
   38.2600   24.4650   40.4410 P   0  0  2  0  0  0  0  0  0  0  0  0
   38.2280   23.5680   41.8860 O   0  0  0  0  0  0  0  0  0  0  0  0
   38.9940   22.9310   41.8410 H   0  0  0  0  0  0  0  0  0  0  0  0
   39.8790   25.0150   40.3230 O   0  0  0  0  0  0  0  0  0  0  0  0
   40.6010   25.2900   41.5050 C   0  0  0  0  0  0  0  0  0  0  0  0
   41.9800   25.2960   41.3390 C   0  0  0  0  0  0  0  0  0  0  0  0
   42.7630   25.1580   40.5900 H   0  0  0  0  0  0  0  0  0  0  0  0
   42.6260   25.6820   43.0530 S   0  0  0  0  0  0  0  0  0  0  0  0
   40.8360   25.7640   43.6800 C   0  0  0  0  0  0  0  0  0  0  0  0
   40.0350   25.9470   44.6490 H   0  0  0  0  0  0  0  0  0  0  0  0
   40.2490   25.5460   42.7500 N   0  0  0  0  0  0  0  0  0  0  0  0
  1  2  1  0  0  0  0
  2  7  2  0  0  0  0
  2  3  1  0  0  0  0
  3  4  2  0  0  0  0
  4  5  1  0  0  0  0
  4  8  1  0  0  0  0
  5  9  1  0  0  0  0
  6 10  1  0  0  0  0
  6  5  2  0  0  0  0
  7  6  1  0  0  0  0
 11 12  2  0  0  0  0
 11 16  1  0  0  0  0
 12 13  1  0  0  0  0
 13 18  1  0  0  0  0
 13 14  2  0  0  0  0
 15 14  1  0  0  0  0
 15  3  1  0  0  0  0
 16 15  2  0  0  0  0
 17 12  1  0  0  0  0
 19 21  1  0  0  0  0
 19 11  1  0  0  0  0
 20 19  1  0  0  0  0
 22  7  1  0  0  0  0
 24 23  2  6  0  0  0
 24 22  1  0  0  0  0
 24 25  1  0  0  0  0
 26 25  1  0  0  0  0
 27 24  1  0  0  0  0
 27 28  1  0  0  0  0
 28 34  1  0  0  0  0
 29 28  2  0  0  0  0
 29 31  1  0  0  0  0
 30 29  1  0  0  0  0
 31 32  1  0  0  0  0
 32 33  1  0  0  0  0
 34 32  2  0  0  0  0
M  END
>  <minimizedAffinity>
-5.68384743

$$$$

 OpenBabel03252506143D

 34 36  0  0  0  0  0  0  0  0999 V2000
   38.9810   30.3280   37.4110 F   0  0  0  0  0  0  0  0  0  0  0  0
   38.5410   31.1280   38.3660 C   0  0  0  0  0  0  0  0  0  0  0  0
   39.4130   32.0310   38.9540 C   0  0  0  0  0  0  0  0  0  0  0  0
   39.0310   32.9080   39.9630 C   0  0  0  0  0  0  0  0  0  0  0  0
   37.7130   32.8970   40.4200 C   0  0  0  0  0  0  0  0  0  0  0  0
   36.8690   31.9840   39.8110 C   0  0  0  0  0  0  0  0  0  0  0  0
   37.2250   31.1200   38.8240 C   0  0  0  0  0  0  0  0  0  0  0  0
   39.7810   33.5940   40.3790 H   0  0  0  0  0  0  0  0  0  0  0  0
   37.4640   33.5960   41.2020 H   0  0  0  0  0  0  0  0  0  0  0  0
   35.8810   32.0860   40.2510 H   0  0  0  0  0  0  0  0  0  0  0  0
   42.5070   33.2400   37.3950 C   0  0  0  0  0  0  0  0  0  0  0  0
   43.4050   32.1890   37.6810 C   0  0  0  0  0  0  0  0  0  0  0  0
   42.9380   31.0580   38.4170 C   0  0  0  0  0  0  0  0  0  0  0  0
   41.6280   31.0770   38.7980 N   0  0  0  0  0  0  0  0  0  0  0  0
   40.8090   32.0880   38.5080 C   0  0  0  0  0  0  0  0  0  0  0  0
   41.2460   33.1550   37.8150 N   0  0  0  0  0  0  0  0  0  0  0  0
   44.4340   32.1870   37.3760 H   0  0  0  0  0  0  0  0  0  0  0  0
   43.5840   30.2460   38.6530 H   0  0  0  0  0  0  0  0  0  0  0  0
   42.9920   34.3480   36.6660 N   0  0  0  0  0  0  0  0  0  0  0  0
   42.5220   34.6170   35.7670 H   0  0  0  0  0  0  0  0  0  0  0  0
   43.8130   34.8250   37.1030 H   0  0  0  0  0  0  0  0  0  0  0  0
   36.3060   30.2580   38.2960 O   0  0  0  0  0  0  0  0  0  0  0  0
   34.6090   28.2200   38.2120 O   0  0  0  0  0  0  0  0  0  0  0  0
   35.5830   28.9580   39.0820 P   0  0  2  0  0  0  0  0  0  0  0  0
   34.8350   29.5280   40.5000 O   0  0  0  0  0  0  0  0  0  0  0  0
   34.5680   28.7220   41.0230 H   0  0  0  0  0  0  0  0  0  0  0  0
   36.7430   27.8280   39.6440 O   0  0  0  0  0  0  0  0  0  0  0  0
   37.0630   27.7950   41.0190 C   0  0  0  0  0  0  0  0  0  0  0  0
   38.3840   28.1160   41.3000 C   0  0  0  0  0  0  0  0  0  0  0  0
   39.3270   28.4020   40.8270 H   0  0  0  0  0  0  0  0  0  0  0  0
   38.4790   27.9810   43.1660 S   0  0  0  0  0  0  0  0  0  0  0  0
   36.6440   27.5000   43.1970 C   0  0  0  0  0  0  0  0  0  0  0  0
   35.6200   27.1740   43.8760 H   0  0  0  0  0  0  0  0  0  0  0  0
   36.3740   27.5210   42.1090 N   0  0  0  0  0  0  0  0  0  0  0  0
  1  2  1  0  0  0  0
  2  7  2  0  0  0  0
  2  3  1  0  0  0  0
  3  4  2  0  0  0  0
  4  8  1  0  0  0  0
  4  5  1  0  0  0  0
  5  9  1  0  0  0  0
  6 10  1  0  0  0  0
  6  5  2  0  0  0  0
  7  6  1  0  0  0  0
 11 12  2  0  0  0  0
 11 16  1  0  0  0  0
 12 13  1  0  0  0  0
 13 18  1  0  0  0  0
 13 14  2  0  0  0  0
 15 14  1  0  0  0  0
 15  3  1  0  0  0  0
 16 15  2  0  0  0  0
 17 12  1  0  0  0  0
 19 21  1  0  0  0  0
 19 11  1  0  0  0  0
 20 19  1  0  0  0  0
 22  7  1  0  0  0  0
 22 24  1  0  0  0  0
 24 23  2  6  0  0  0
 24 27  1  0  0  0  0
 24 25  1  0  0  0  0
 25 26  1  0  0  0  0
 27 28  1  0  0  0  0
 28 29  2  0  0  0  0
 28 34  1  0  0  0  0
 29 31  1  0  0  0  0
 30 29  1  0  0  0  0
 31 32  1  0  0  0  0
 32 33  1  0  0  0  0
 34 32  2  0  0  0  0
M  END
>  <minimizedAffinity>
-5.64322519

$$$$

 OpenBabel03252506143D

 34 36  0  0  0  0  0  0  0  0999 V2000
   39.4190   28.4360   39.6830 F   0  0  0  0  0  0  0  0  0  0  0  0
   38.1540   28.7190   39.9390 C   0  0  0  0  0  0  0  0  0  0  0  0
   37.5270   28.1200   41.0210 C   0  0  0  0  0  0  0  0  0  0  0  0
   36.2010   28.3640   41.3600 C   0  0  0  0  0  0  0  0  0  0  0  0
   35.4470   29.2510   40.5910 C   0  0  0  0  0  0  0  0  0  0  0  0
   36.1040   29.8310   39.5190 C   0  0  0  0  0  0  0  0  0  0  0  0
   37.3990   29.6050   39.1730 C   0  0  0  0  0  0  0  0  0  0  0  0
   35.7750   27.8500   42.2320 H   0  0  0  0  0  0  0  0  0  0  0  0
   34.4250   29.4080   40.8930 H   0  0  0  0  0  0  0  0  0  0  0  0
   35.4120   30.4990   39.0160 H   0  0  0  0  0  0  0  0  0  0  0  0
   38.8480   24.9820   42.3900 C   0  0  0  0  0  0  0  0  0  0  0  0
   39.6660   25.4470   43.4430 C   0  0  0  0  0  0  0  0  0  0  0  0
   39.7600   26.8520   43.6800 C   0  0  0  0  0  0  0  0  0  0  0  0
   39.0360   27.6600   42.8520 N   0  0  0  0  0  0  0  0  0  0  0  0
   38.2740   27.1830   41.8670 C   0  0  0  0  0  0  0  0  0  0  0  0
   38.1830   25.8600   41.6410 N   0  0  0  0  0  0  0  0  0  0  0  0
   40.2300   24.8000   44.0870 H   0  0  0  0  0  0  0  0  0  0  0  0
   40.3650   27.2420   44.4630 H   0  0  0  0  0  0  0  0  0  0  0  0
   38.7720   23.5880   42.1740 N   0  0  0  0  0  0  0  0  0  0  0  0
   37.8350   23.1160   42.1960 H   0  0  0  0  0  0  0  0  0  0  0  0
   39.6950   23.1270   42.0050 H   0  0  0  0  0  0  0  0  0  0  0  0
   37.9460   30.2340   38.0910 O   0  0  0  0  0  0  0  0  0  0  0  0
   38.4400   32.6200   39.1390 O   0  0  0  0  0  0  0  0  0  0  0  0
   38.8910   31.6250   38.1120 P   0  0  2  0  0  0  0  0  0  0  0  0
   38.8940   32.3050   36.5530 O   0  0  0  0  0  0  0  0  0  0  0  0
   39.5900   33.0190   36.5560 H   0  0  0  0  0  0  0  0  0  0  0  0
   40.5400   31.2690   38.4180 O   0  0  0  0  0  0  0  0  0  0  0  0
   41.4950   32.3070   38.3440 C   0  0  0  0  0  0  0  0  0  0  0  0
   42.1980   32.5140   39.5230 C   0  0  0  0  0  0  0  0  0  0  0  0
   42.2960   32.1530   40.5490 H   0  0  0  0  0  0  0  0  0  0  0  0
   43.3550   33.9250   39.1000 S   0  0  0  0  0  0  0  0  0  0  0  0
   42.6310   33.9560   37.3450 C   0  0  0  0  0  0  0  0  0  0  0  0
   42.6240   34.4740   36.1850 H   0  0  0  0  0  0  0  0  0  0  0  0
   41.8700   33.1350   37.3880 N   0  0  0  0  0  0  0  0  0  0  0  0
  1  2  1  0  0  0  0
  2  3  1  0  0  0  0
  3  4  2  0  0  0  0
  3 15  1  0  0  0  0
  4  8  1  0  0  0  0
  5  9  1  0  0  0  0
  5  4  1  0  0  0  0
  6  5  2  0  0  0  0
  7  6  1  0  0  0  0
  7  2  2  0  0  0  0
 10  6  1  0  0  0  0
 11 12  1  0  0  0  0
 12 13  2  0  0  0  0
 12 17  1  0  0  0  0
 13 18  1  0  0  0  0
 14 13  1  0  0  0  0
 15 14  2  0  0  0  0
 16 15  1  0  0  0  0
 16 11  2  0  0  0  0
 19 20  1  0  0  0  0
 19 11  1  0  0  0  0
 21 19  1  0  0  0  0
 22 24  1  0  0  0  0
 22  7  1  0  0  0  0
 24 27  1  0  0  0  0
 24 23  2  1  0  0  0
 25 26  1  0  0  0  0
 25 24  1  0  0  0  0
 28 27  1  0  0  0  0
 28 29  2  0  0  0  0
 29 30  1  0  0  0  0
 31 29  1  0  0  0  0
 32 34  2  0  0  0  0
 32 31  1  0  0  0  0
 33 32  1  0  0  0  0
 34 28  1  0  0  0  0
M  END
>  <minimizedAffinity>
-5.62923574

$$$$

 OpenBabel03252506143D

 34 36  0  0  0  0  0  0  0  0999 V2000
   36.8910   31.6660   38.0490 F   0  0  0  0  0  0  0  0  0  0  0  0
   36.5890   30.8210   39.0190 C   0  0  0  0  0  0  0  0  0  0  0  0
   35.9000   29.6560   38.7180 C   0  0  0  0  0  0  0  0  0  0  0  0
   35.5450   28.7140   39.6760 C   0  0  0  0  0  0  0  0  0  0  0  0
   35.8880   28.9300   41.0110 C   0  0  0  0  0  0  0  0  0  0  0  0
   36.5750   30.1020   41.2770 C   0  0  0  0  0  0  0  0  0  0  0  0
   36.9310   31.0330   40.3530 C   0  0  0  0  0  0  0  0  0  0  0  0
   34.9990   27.8160   39.3580 H   0  0  0  0  0  0  0  0  0  0  0  0
   35.5920   28.1720   41.7170 H   0  0  0  0  0  0  0  0  0  0  0  0
   36.7860   30.1400   42.3420 H   0  0  0  0  0  0  0  0  0  0  0  0
   36.1570   29.0380   35.1090 C   0  0  0  0  0  0  0  0  0  0  0  0
   34.8040   28.8570   34.7490 C   0  0  0  0  0  0  0  0  0  0  0  0
   33.7990   28.9480   35.7590 C   0  0  0  0  0  0  0  0  0  0  0  0
   34.2310   29.2100   37.0270 N   0  0  0  0  0  0  0  0  0  0  0  0
   35.5190   29.3760   37.3290 C   0  0  0  0  0  0  0  0  0  0  0  0
   36.4680   29.2910   36.3790 N   0  0  0  0  0  0  0  0  0  0  0  0
   34.4780   28.6500   33.7480 H   0  0  0  0  0  0  0  0  0  0  0  0
   32.7680   28.8170   35.5280 H   0  0  0  0  0  0  0  0  0  0  0  0
   37.1330   28.9430   34.0930 N   0  0  0  0  0  0  0  0  0  0  0  0
   37.7800   29.7520   33.9250 H   0  0  0  0  0  0  0  0  0  0  0  0
   37.1260   28.0360   33.5730 H   0  0  0  0  0  0  0  0  0  0  0  0
   37.6080   32.1580   40.7300 O   0  0  0  0  0  0  0  0  0  0  0  0
   39.7510   31.4860   42.1420 O   0  0  0  0  0  0  0  0  0  0  0  0
   39.2670   32.2930   40.9740 P   0  0  2  0  0  0  0  0  0  0  0  0
   39.6570   33.9390   41.1580 O   0  0  0  0  0  0  0  0  0  0  0  0
   40.6530   33.9990   41.1290 H   0  0  0  0  0  0  0  0  0  0  0  0
   40.1570   31.8020   39.5940 O   0  0  0  0  0  0  0  0  0  0  0  0
   41.2020   32.6240   39.1190 C   0  0  0  0  0  0  0  0  0  0  0  0
   41.1360   32.8950   37.7590 C   0  0  0  0  0  0  0  0  0  0  0  0
   40.5420   32.6990   36.8630 H   0  0  0  0  0  0  0  0  0  0  0  0
   42.6310   33.9820   37.4560 S   0  0  0  0  0  0  0  0  0  0  0  0
   43.0650   33.8510   39.2990 C   0  0  0  0  0  0  0  0  0  0  0  0
   43.8460   34.1600   40.2530 H   0  0  0  0  0  0  0  0  0  0  0  0
   42.2420   33.1990   39.6910 N   0  0  0  0  0  0  0  0  0  0  0  0
  1  2  1  0  0  0  0
  2  7  1  0  0  0  0
  3  2  2  0  0  0  0
  3  4  1  0  0  0  0
  4  5  2  0  0  0  0
  5  6  1  0  0  0  0
  5  9  1  0  0  0  0
  6 10  1  0  0  0  0
  7 22  1  0  0  0  0
  7  6  2  0  0  0  0
  8  4  1  0  0  0  0
 11 16  1  0  0  0  0
 12 11  2  0  0  0  0
 12 13  1  0  0  0  0
 13 14  2  0  0  0  0
 14 15  1  0  0  0  0
 15  3  1  0  0  0  0
 16 15  2  0  0  0  0
 17 12  1  0  0  0  0
 18 13  1  0  0  0  0
 19 11  1  0  0  0  0
 20 19  1  0  0  0  0
 21 19  1  0  0  0  0
 22 24  1  0  0  0  0
 24 25  1  0  0  0  0
 24 23  2  1  0  0  0
 26 25  1  0  0  0  0
 27 24  1  0  0  0  0
 28 27  1  0  0  0  0
 28 34  1  0  0  0  0
 29 28  2  0  0  0  0
 30 29  1  0  0  0  0
 31 29  1  0  0  0  0
 31 32  1  0  0  0  0
 32 34  2  0  0  0  0
 32 33  1  0  0  0  0
M  END
>  <minimizedAffinity>
-5.56763268

$$$$

 OpenBabel03252506143D

 34 36  0  0  0  0  0  0  0  0999 V2000
   39.2560   30.1980   42.4750 F   0  0  0  0  0  0  0  0  0  0  0  0
   38.1140   29.7700   41.9660 C   0  0  0  0  0  0  0  0  0  0  0  0
   37.4180   30.5770   41.0800 C   0  0  0  0  0  0  0  0  0  0  0  0
   36.2120   30.2030   40.4990 C   0  0  0  0  0  0  0  0  0  0  0  0
   35.6580   28.9600   40.8060 C   0  0  0  0  0  0  0  0  0  0  0  0
   36.3790   28.1790   41.6930 C   0  0  0  0  0  0  0  0  0  0  0  0
   37.5590   28.5290   42.2710 C   0  0  0  0  0  0  0  0  0  0  0  0
   35.7210   30.8980   39.8050 H   0  0  0  0  0  0  0  0  0  0  0  0
   34.7230   28.7140   40.3300 H   0  0  0  0  0  0  0  0  0  0  0  0
   35.8460   27.2440   41.8370 H   0  0  0  0  0  0  0  0  0  0  0  0
   39.7570   33.3800   40.6990 C   0  0  0  0  0  0  0  0  0  0  0  0
   38.9540   34.3390   40.0420 C   0  0  0  0  0  0  0  0  0  0  0  0
   37.6000   34.0140   39.7300 C   0  0  0  0  0  0  0  0  0  0  0  0
   37.1700   32.7720   40.0980 N   0  0  0  0  0  0  0  0  0  0  0  0
   37.9580   31.8920   40.7180 C   0  0  0  0  0  0  0  0  0  0  0  0
   39.2340   32.1950   41.0130 N   0  0  0  0  0  0  0  0  0  0  0  0
   39.3060   35.3120   39.7580 H   0  0  0  0  0  0  0  0  0  0  0  0
   36.9640   34.7090   39.2350 H   0  0  0  0  0  0  0  0  0  0  0  0
   41.0930   33.7240   40.9970 N   0  0  0  0  0  0  0  0  0  0  0  0
   41.4260   33.6800   41.9910 H   0  0  0  0  0  0  0  0  0  0  0  0
   41.6610   34.0060   40.1650 H   0  0  0  0  0  0  0  0  0  0  0  0
   38.1840   27.6770   43.1370 O   0  0  0  0  0  0  0  0  0  0  0  0
   39.4800   25.4260   43.6800 O   0  0  0  0  0  0  0  0  0  0  0  0
   39.4390   26.6180   42.7690 P   0  0  2  0  0  0  0  0  0  0  0  0
   40.9060   27.4780   42.8110 O   0  0  0  0  0  0  0  0  0  0  0  0
   41.6000   26.8730   42.4270 H   0  0  0  0  0  0  0  0  0  0  0  0
   39.3350   26.0420   41.1580 O   0  0  0  0  0  0  0  0  0  0  0  0
   38.4690   24.9660   40.8650 C   0  0  0  0  0  0  0  0  0  0  0  0
   39.0940   23.8840   40.2610 C   0  0  0  0  0  0  0  0  0  0  0  0
   40.0650   23.5310   39.9050 H   0  0  0  0  0  0  0  0  0  0  0  0
   37.7010   22.6570   40.0090 S   0  0  0  0  0  0  0  0  0  0  0  0
   36.5030   23.8970   40.8030 C   0  0  0  0  0  0  0  0  0  0  0  0
   35.3190   24.1770   41.1700 H   0  0  0  0  0  0  0  0  0  0  0  0
   37.1780   24.7600   41.0410 N   0  0  0  0  0  0  0  0  0  0  0  0
  2  7  1  0  0  0  0
  2  1  1  0  0  0  0
  3  2  2  0  0  0  0
  4  5  2  0  0  0  0
  4  3  1  0  0  0  0
  5  6  1  0  0  0  0
  6 10  1  0  0  0  0
  6  7  2  0  0  0  0
  7 22  1  0  0  0  0
  8  4  1  0  0  0  0
  9  5  1  0  0  0  0
 11 19  1  0  0  0  0
 11 16  1  0  0  0  0
 12 11  2  0  0  0  0
 13 12  1  0  0  0  0
 13 14  2  0  0  0  0
 14 15  1  0  0  0  0
 15 16  2  0  0  0  0
 15  3  1  0  0  0  0
 17 12  1  0  0  0  0
 18 13  1  0  0  0  0
 19 20  1  0  0  0  0
 21 19  1  0  0  0  0
 24 25  1  0  0  0  0
 24 22  1  0  0  0  0
 24 23  2  1  0  0  0
 26 25  1  0  0  0  0
 27 24  1  0  0  0  0
 28 34  1  0  0  0  0
 28 27  1  0  0  0  0
 29 28  2  0  0  0  0
 30 29  1  0  0  0  0
 31 29  1  0  0  0  0
 31 32  1  0  0  0  0
 32 34  2  0  0  0  0
 32 33  1  0  0  0  0
M  END
>  <minimizedAffinity>
-5.48857832

$$$$

 OpenBabel03252506143D

 34 36  0  0  0  0  0  0  0  0999 V2000
   39.3120   29.8110   39.2060 F   0  0  0  0  0  0  0  0  0  0  0  0
   38.8470   31.0320   39.4090 C   0  0  0  0  0  0  0  0  0  0  0  0
   37.6590   31.4170   38.8070 C   0  0  0  0  0  0  0  0  0  0  0  0
   37.1000   32.6800   38.9700 C   0  0  0  0  0  0  0  0  0  0  0  0
   37.7470   33.6190   39.7730 C   0  0  0  0  0  0  0  0  0  0  0  0
   38.9300   33.2010   40.3600 C   0  0  0  0  0  0  0  0  0  0  0  0
   39.4900   31.9710   40.2120 C   0  0  0  0  0  0  0  0  0  0  0  0
   36.1560   32.9100   38.4590 H   0  0  0  0  0  0  0  0  0  0  0  0
   37.2760   34.5830   39.8690 H   0  0  0  0  0  0  0  0  0  0  0  0
   39.3210   34.0170   40.9590 H   0  0  0  0  0  0  0  0  0  0  0  0
   36.7570   29.3380   35.9210 C   0  0  0  0  0  0  0  0  0  0  0  0
   35.5820   28.7020   36.3780 C   0  0  0  0  0  0  0  0  0  0  0  0
   35.1010   28.9940   37.6900 C   0  0  0  0  0  0  0  0  0  0  0  0
   35.8280   29.8870   38.4220 N   0  0  0  0  0  0  0  0  0  0  0  0
   36.9340   30.4680   37.9560 C   0  0  0  0  0  0  0  0  0  0  0  0
   37.3900   30.1950   36.7200 N   0  0  0  0  0  0  0  0  0  0  0  0
   35.0200   28.0010   35.7920 H   0  0  0  0  0  0  0  0  0  0  0  0
   34.2200   28.5350   38.0710 H   0  0  0  0  0  0  0  0  0  0  0  0
   37.2140   29.0330   34.6200 N   0  0  0  0  0  0  0  0  0  0  0  0
   37.3430   29.8090   33.9250 H   0  0  0  0  0  0  0  0  0  0  0  0
   37.3920   28.0160   34.4530 H   0  0  0  0  0  0  0  0  0  0  0  0
   40.6660   31.6670   40.8390 O   0  0  0  0  0  0  0  0  0  0  0  0
   41.8330   31.3250   43.1960 O   0  0  0  0  0  0  0  0  0  0  0  0
   40.8480   30.7380   42.2290 P   0  0  2  0  0  0  0  0  0  0  0  0
   41.2950   29.1610   41.7740 O   0  0  0  0  0  0  0  0  0  0  0  0
   41.2290   28.5990   42.5950 H   0  0  0  0  0  0  0  0  0  0  0  0
   39.3620   30.5310   43.0570 O   0  0  0  0  0  0  0  0  0  0  0  0
   38.6860   29.2950   42.9620 C   0  0  0  0  0  0  0  0  0  0  0  0
   37.4220   29.3820   42.3950 C   0  0  0  0  0  0  0  0  0  0  0  0
   36.7110   30.0930   41.9680 H   0  0  0  0  0  0  0  0  0  0  0  0
   36.8090   27.6130   42.4150 S   0  0  0  0  0  0  0  0  0  0  0  0
   38.4460   27.0850   43.2170 C   0  0  0  0  0  0  0  0  0  0  0  0
   39.1720   26.1530   43.6870 H   0  0  0  0  0  0  0  0  0  0  0  0
   38.9960   28.0580   43.2990 N   0  0  0  0  0  0  0  0  0  0  0  0
  1  2  1  0  0  0  0
  2  7  1  0  0  0  0
  3  4  1  0  0  0  0
  3  2  2  0  0  0  0
  4  5  2  0  0  0  0
  5  9  1  0  0  0  0
  5  6  1  0  0  0  0
  6 10  1  0  0  0  0
  7  6  2  0  0  0  0
  7 22  1  0  0  0  0
  8  4  1  0  0  0  0
 11 12  2  0  0  0  0
 11 16  1  0  0  0  0
 12 13  1  0  0  0  0
 13 18  1  0  0  0  0
 13 14  2  0  0  0  0
 15 14  1  0  0  0  0
 15  3  1  0  0  0  0
 16 15  2  0  0  0  0
 17 12  1  0  0  0  0
 19 11  1  0  0  0  0
 20 19  1  0  0  0  0
 21 19  1  0  0  0  0
 22 24  1  0  0  0  0
 24 27  1  0  0  0  0
 24 23  2  1  0  0  0
 25 24  1  0  0  0  0
 25 26  1  0  0  0  0
 28 27  1  0  0  0  0
 28 34  1  0  0  0  0
 29 31  1  0  0  0  0
 29 28  2  0  0  0  0
 30 29  1  0  0  0  0
 31 32  1  0  0  0  0
 32 34  2  0  0  0  0
 32 33  1  0  0  0  0
M  END
>  <minimizedAffinity>
-5.44112396

$$$$

 OpenBabel03252506143D

 34 36  0  0  0  0  0  0  0  0999 V2000
   38.7460   28.9280   40.6160 F   0  0  0  0  0  0  0  0  0  0  0  0
   37.7260   29.1210   39.7990 C   0  0  0  0  0  0  0  0  0  0  0  0
   36.7330   28.1580   39.7090 C   0  0  0  0  0  0  0  0  0  0  0  0
   35.6270   28.2830   38.8760 C   0  0  0  0  0  0  0  0  0  0  0  0
   35.4890   29.4240   38.0850 C   0  0  0  0  0  0  0  0  0  0  0  0
   36.4970   30.3650   38.2000 C   0  0  0  0  0  0  0  0  0  0  0  0
   37.5850   30.2600   39.0080 C   0  0  0  0  0  0  0  0  0  0  0  0
   34.8830   27.4760   38.8610 H   0  0  0  0  0  0  0  0  0  0  0  0
   34.6150   29.4760   37.4570 H   0  0  0  0  0  0  0  0  0  0  0  0
   36.2630   31.1980   37.5430 H   0  0  0  0  0  0  0  0  0  0  0  0
   36.8830   24.6090   40.6340 C   0  0  0  0  0  0  0  0  0  0  0  0
   36.9980   24.6820   42.0400 C   0  0  0  0  0  0  0  0  0  0  0  0
   37.0240   25.9630   42.6690 C   0  0  0  0  0  0  0  0  0  0  0  0
   36.9330   27.0480   41.8470 N   0  0  0  0  0  0  0  0  0  0  0  0
   36.8260   26.9400   40.5220 C   0  0  0  0  0  0  0  0  0  0  0  0
   36.8010   25.7350   39.9260 N   0  0  0  0  0  0  0  0  0  0  0  0
   37.0690   23.8200   42.6750 H   0  0  0  0  0  0  0  0  0  0  0  0
   37.1100   26.0590   43.7260 H   0  0  0  0  0  0  0  0  0  0  0  0
   36.8600   23.3310   40.0350 N   0  0  0  0  0  0  0  0  0  0  0  0
   36.0450   23.0620   39.4310 H   0  0  0  0  0  0  0  0  0  0  0  0
   37.6920   22.7370   40.2550 H   0  0  0  0  0  0  0  0  0  0  0  0
   38.5220   31.2530   39.0400 O   0  0  0  0  0  0  0  0  0  0  0  0
   39.1430   32.0430   41.4950 O   0  0  0  0  0  0  0  0  0  0  0  0
   38.6230   32.5000   40.1650 P   0  0  2  0  0  0  0  0  0  0  0  0
   37.0900   33.2210   40.3160 O   0  0  0  0  0  0  0  0  0  0  0  0
   37.2190   34.0530   40.8510 H   0  0  0  0  0  0  0  0  0  0  0  0
   39.6330   33.7720   39.6170 O   0  0  0  0  0  0  0  0  0  0  0  0
   40.8580   33.4570   38.9880 C   0  0  0  0  0  0  0  0  0  0  0  0
   41.9560   33.4960   39.8360 C   0  0  0  0  0  0  0  0  0  0  0  0
   42.2460   33.6910   40.8710 H   0  0  0  0  0  0  0  0  0  0  0  0
   43.3890   33.0430   38.7180 S   0  0  0  0  0  0  0  0  0  0  0  0
   42.1720   32.8840   37.2700 C   0  0  0  0  0  0  0  0  0  0  0  0
   41.9790   32.6310   36.0390 H   0  0  0  0  0  0  0  0  0  0  0  0
   41.1920   33.1310   37.7540 N   0  0  0  0  0  0  0  0  0  0  0  0
  2  1  1  0  0  0  0
  3  2  1  0  0  0  0
  3 15  1  0  0  0  0
  4  3  2  0  0  0  0
  5  6  2  0  0  0  0
  5  4  1  0  0  0  0
  6  7  1  0  0  0  0
  7 22  1  0  0  0  0
  7  2  2  0  0  0  0
  8  4  1  0  0  0  0
  9  5  1  0  0  0  0
 10  6  1  0  0  0  0
 11 12  1  0  0  0  0
 12 13  2  0  0  0  0
 12 17  1  0  0  0  0
 13 18  1  0  0  0  0
 14 13  1  0  0  0  0
 15 14  2  0  0  0  0
 16 15  1  0  0  0  0
 16 11  2  0  0  0  0
 19 21  1  0  0  0  0
 19 11  1  0  0  0  0
 20 19  1  0  0  0  0
 22 24  1  0  0  0  0
 24 25  1  0  0  0  0
 24 23  2  1  0  0  0
 25 26  1  0  0  0  0
 27 24  1  0  0  0  0
 28 27  1  0  0  0  0
 28 29  2  0  0  0  0
 29 30  1  0  0  0  0
 31 29  1  0  0  0  0
 32 34  2  0  0  0  0
 32 31  1  0  0  0  0
 33 32  1  0  0  0  0
 34 28  1  0  0  0  0
M  END
>  <minimizedAffinity>
-5.40701771

$$$$
