
 OpenBabel03252506053D

 41 45  0  0  0  0  0  0  0  0999 V2000
   44.7870   35.9670   43.1990 Cl  0  0  0  0  0  0  0  0  0  0  0  0
   45.5230   34.7340   44.1530 C   0  0  0  0  0  0  0  0  0  0  0  0
   46.6000   34.0100   43.6560 C   0  0  0  0  0  0  0  0  0  0  0  0
   47.1190   33.0490   44.5010 C   0  0  0  0  0  0  0  0  0  0  0  0
   46.6400   32.7750   45.7750 C   0  0  0  0  0  0  0  0  0  0  0  0
   45.5740   33.5090   46.2340 C   0  0  0  0  0  0  0  0  0  0  0  0
   45.0050   33.1290   47.8450 Cl  0  0  0  0  0  0  0  0  0  0  0  0
   45.0240   34.4800   45.4260 C   0  0  0  0  0  0  0  0  0  0  0  0
   47.9600   32.5000   44.0850 H   0  0  0  0  0  0  0  0  0  0  0  0
   44.1860   35.0470   45.8040 H   0  0  0  0  0  0  0  0  0  0  0  0
   47.3280   31.7170   46.5140 C   0  0  0  0  0  0  0  0  0  0  0  0
   47.4320   30.4310   46.0590 C   0  0  0  0  0  0  0  0  0  0  0  0
   48.0780   29.4100   46.7360 C   0  0  0  0  0  0  0  0  0  0  0  0
   48.6640   29.6990   47.9630 C   0  0  0  0  0  0  0  0  0  0  0  0
   49.2790   28.6970   48.5940 N   0  0  0  0  0  0  0  0  0  0  0  0
   49.8830   28.8750   49.8020 C   0  0  0  0  0  0  0  0  0  0  0  0
   49.8220   30.1630   50.3400 C   0  0  0  0  0  0  0  0  0  0  0  0
   49.1830   31.1810   49.6720 C   0  0  0  0  0  0  0  0  0  0  0  0
   48.5830   30.9630   48.4530 C   0  0  0  0  0  0  0  0  0  0  0  0
   47.9280   31.9740   47.7530 C   0  0  0  0  0  0  0  0  0  0  0  0
   46.9580   30.2440   45.0880 H   0  0  0  0  0  0  0  0  0  0  0  0
   48.1090   28.4220   46.2930 H   0  0  0  0  0  0  0  0  0  0  0  0
   50.3920   28.0920   50.3460 H   0  0  0  0  0  0  0  0  0  0  0  0
   50.2820   30.3850   51.3020 H   0  0  0  0  0  0  0  0  0  0  0  0
   49.1380   32.1800   50.0990 H   0  0  0  0  0  0  0  0  0  0  0  0
   47.8970   32.9710   48.2000 H   0  0  0  0  0  0  0  0  0  0  0  0
   48.6660   35.3810   41.0000 C   0  0  0  0  0  0  0  0  0  0  0  0
   48.1930   34.7290   39.8490 C   0  0  0  0  0  0  0  0  0  0  0  0
   47.1490   33.8060   39.9990 C   0  0  0  0  0  0  0  0  0  0  0  0
   46.6850   33.6250   41.2440 N   0  0  0  0  0  0  0  0  0  0  0  0
   47.1400   34.2500   42.3350 C   0  0  0  0  0  0  0  0  0  0  0  0
   48.1490   35.1460   42.2210 N   0  0  0  0  0  0  0  0  0  0  0  0
   49.4560   36.0550   40.7600 H   0  0  0  0  0  0  0  0  0  0  0  0
   48.5870   34.8940   38.8550 H   0  0  0  0  0  0  0  0  0  0  0  0
   46.6000   33.0830   38.8790 C   0  0  0  0  0  0  0  0  0  0  0  0
   46.4880   31.6420   38.8990 C   0  0  0  0  0  0  0  0  0  0  0  0
   46.7540   30.9040   39.6670 H   0  0  0  0  0  0  0  0  0  0  0  0
   45.7330   31.2860   37.1980 S   0  0  0  0  0  0  0  0  0  0  0  0
   45.6970   33.1310   36.7580 C   0  0  0  0  0  0  0  0  0  0  0  0
   45.3480   33.5780   35.8530 H   0  0  0  0  0  0  0  0  0  0  0  0
   46.1300   33.2730   37.7440 N   0  0  0  0  0  0  0  0  0  0  0  0
  1  2  1  0  0  0  0
  2  8  1  0  0  0  0
  3  2  2  0  0  0  0
  3  4  1  0  0  0  0
  4  5  2  0  0  0  0
  5  6  1  0  0  0  0
  5 11  1  0  0  0  0
  6  7  1  0  0  0  0
  8 10  1  0  0  0  0
  8  6  2  0  0  0  0
  9  4  1  0  0  0  0
 11 20  1  0  0  0  0
 12 11  2  0  0  0  0
 12 13  1  0  0  0  0
 13 14  2  0  0  0  0
 14 19  1  0  0  0  0
 14 15  1  0  0  0  0
 15 16  2  0  0  0  0
 16 17  1  0  0  0  0
 16 23  1  0  0  0  0
 17 24  1  0  0  0  0
 18 25  1  0  0  0  0
 18 17  2  0  0  0  0
 19 18  1  0  0  0  0
 20 26  1  0  0  0  0
 20 19  2  0  0  0  0
 21 12  1  0  0  0  0
 22 13  1  0  0  0  0
 27 32  1  0  0  0  0
 28 29  1  0  0  0  0
 28 27  2  0  0  0  0
 29 30  2  0  0  0  0
 30 31  1  0  0  0  0
 31  3  1  0  0  0  0
 32 31  2  0  0  0  0
 33 27  1  0  0  0  0
 34 28  1  0  0  0  0
 35 36  2  0  0  0  0
 35 29  1  0  0  0  0
 36 37  1  0  0  0  0
 38 36  1  0  0  0  0
 39 38  1  0  0  0  0
 39 41  2  0  0  0  0
 40 39  1  0  0  0  0
 41 35  1  0  0  0  0
M  END
>  <minimizedAffinity>
-6.97700167

>  <minimizedRMSD>
0.169148058

$$$$
