
 OpenBabel03252504193D

 36 38  0  0  0  0  0  0  0  0999 V2000
   33.7550   28.9580   38.9760 F   0  0  0  0  0  0  0  0  0  0  0  0
   34.4100   29.1150   37.7650 C   0  0  0  0  0  0  0  0  0  0  0  0
   35.7420   29.4010   37.7540 C   0  0  0  0  0  0  0  0  0  0  0  0
   36.3210   29.5440   36.5060 C   0  0  0  0  0  0  0  0  0  0  0  0
   35.5940   29.4050   35.3580 C   0  0  0  0  0  0  0  0  0  0  0  0
   34.2440   29.1130   35.4300 C   0  0  0  0  0  0  0  0  0  0  0  0
   33.6110   28.9580   36.6630 C   0  0  0  0  0  0  0  0  0  0  0  0
   37.3840   29.7740   36.4570 H   0  0  0  0  0  0  0  0  0  0  0  0
   36.0530   29.5130   34.3720 H   0  0  0  0  0  0  0  0  0  0  0  0
   33.6530   29.0000   34.5120 H   0  0  0  0  0  0  0  0  0  0  0  0
   37.6270   28.4790   40.7520 C   0  0  0  0  0  0  0  0  0  0  0  0
   37.9810   29.7000   41.3080 C   0  0  0  0  0  0  0  0  0  0  0  0
   37.5630   30.8560   40.6370 C   0  0  0  0  0  0  0  0  0  0  0  0
   36.8450   30.7540   39.4990 N   0  0  0  0  0  0  0  0  0  0  0  0
   36.5210   29.5450   38.9920 C   0  0  0  0  0  0  0  0  0  0  0  0
   36.9090   28.4240   39.6150 N   0  0  0  0  0  0  0  0  0  0  0  0
   37.8340   31.8170   41.0580 H   0  0  0  0  0  0  0  0  0  0  0  0
   38.7600   29.7290   42.5450 C   0  0  0  0  0  0  0  0  0  0  0  0
   39.8340   28.8600   42.4700 F   0  0  0  0  0  0  0  0  0  0  0  0
   39.3010   31.0010   42.7020 F   0  0  0  0  0  0  0  0  0  0  0  0
   38.0710   29.4260   43.6790 F   0  0  0  0  0  0  0  0  0  0  0  0
   38.0260   27.3540   41.3920 O   0  0  0  0  0  0  0  0  0  0  0  0
   37.2770   26.5950   42.3310 C   0  0  0  0  0  0  0  0  0  0  0  0
   36.1890   27.3880   42.7020 F   0  0  0  0  0  0  0  0  0  0  0  0
   36.9180   25.4040   41.7850 F   0  0  0  0  0  0  0  0  0  0  0  0
   38.0130   26.4550   43.4900 F   0  0  0  0  0  0  0  0  0  0  0  0
   32.1520   28.6390   36.7730 C   0  0  0  0  0  0  0  0  0  0  0  0
   32.0240   27.9970   37.6670 H   0  0  0  0  0  0  0  0  0  0  0  0
   31.8610   28.0330   35.9010 H   0  0  0  0  0  0  0  0  0  0  0  0
   31.3470   29.8950   36.8780 C   0  0  0  0  0  0  0  0  0  0  0  0
   30.6190   30.2050   38.1250 C   0  0  0  0  0  0  0  0  0  0  0  0
   30.6140   29.6000   38.9780 H   0  0  0  0  0  0  0  0  0  0  0  0
   29.8450   31.7820   37.7160 S   0  0  0  0  0  0  0  0  0  0  0  0
   30.6000   31.7900   35.9650 C   0  0  0  0  0  0  0  0  0  0  0  0
   30.4280   32.5870   35.2530 H   0  0  0  0  0  0  0  0  0  0  0  0
   31.2110   30.8020   35.9320 N   0  0  0  0  0  0  0  0  0  0  0  0
  2  1  1  0  0  0  0
  3  2  1  0  0  0  0
  3 15  1  0  0  0  0
  4  3  2  0  0  0  0
  5  6  2  0  0  0  0
  5  4  1  0  0  0  0
  6  7  1  0  0  0  0
  7 27  1  0  0  0  0
  7  2  2  0  0  0  0
  8  4  1  0  0  0  0
  9  5  1  0  0  0  0
 10  6  1  0  0  0  0
 11 12  1  0  0  0  0
 11 22  1  0  0  0  0
 12 18  1  0  0  0  0
 13 17  1  0  0  0  0
 13 12  2  0  0  0  0
 14 13  1  0  0  0  0
 15 14  2  0  0  0  0
 15 16  1  0  0  0  0
 16 11  2  0  0  0  0
 18 20  1  0  0  0  0
 18 21  1  0  0  0  0
 19 18  1  0  0  0  0
 22 23  1  0  0  0  0
 23 24  1  0  0  0  0
 23 26  1  0  0  0  0
 25 23  1  0  0  0  0
 27 30  1  0  0  0  0
 27 28  1  0  0  0  0
 29 27  1  0  0  0  0
 30 31  2  0  0  0  0
 31 32  1  0  0  0  0
 33 31  1  0  0  0  0
 34 33  1  0  0  0  0
 35 34  1  0  0  0  0
 36 34  2  0  0  0  0
 36 30  1  0  0  0  0
M  END
>  <minimizedAffinity>
-6.0139575

$$$$

 OpenBabel03252504193D

 36 38  0  0  0  0  0  0  0  0999 V2000
   33.4690   28.8740   38.7740 F   0  0  0  0  0  0  0  0  0  0  0  0
   34.2050   29.0490   37.6130 C   0  0  0  0  0  0  0  0  0  0  0  0
   35.5510   29.2490   37.6950 C   0  0  0  0  0  0  0  0  0  0  0  0
   36.2130   29.4170   36.4910 C   0  0  0  0  0  0  0  0  0  0  0  0
   35.5500   29.3840   35.2980 C   0  0  0  0  0  0  0  0  0  0  0  0
   34.1830   29.1770   35.2760 C   0  0  0  0  0  0  0  0  0  0  0  0
   33.4670   29.0010   36.4600 C   0  0  0  0  0  0  0  0  0  0  0  0
   37.2880   29.5800   36.5170 H   0  0  0  0  0  0  0  0  0  0  0  0
   36.0740   29.5120   34.3480 H   0  0  0  0  0  0  0  0  0  0  0  0
   33.6430   29.1490   34.3210 H   0  0  0  0  0  0  0  0  0  0  0  0
   36.8540   28.1250   40.9240 C   0  0  0  0  0  0  0  0  0  0  0  0
   37.5530   29.2260   41.4000 C   0  0  0  0  0  0  0  0  0  0  0  0
   37.5710   30.3710   40.5930 C   0  0  0  0  0  0  0  0  0  0  0  0
   36.9280   30.3720   39.4070 N   0  0  0  0  0  0  0  0  0  0  0  0
   36.2590   29.2790   38.9820 C   0  0  0  0  0  0  0  0  0  0  0  0
   36.2260   28.1710   39.7350 N   0  0  0  0  0  0  0  0  0  0  0  0
   38.1140   31.2370   40.9510 H   0  0  0  0  0  0  0  0  0  0  0  0
   38.2250   29.1470   42.6960 C   0  0  0  0  0  0  0  0  0  0  0  0
   38.8130   30.3570   43.0190 F   0  0  0  0  0  0  0  0  0  0  0  0
   37.2710   28.9060   43.6790 F   0  0  0  0  0  0  0  0  0  0  0  0
   39.1850   28.1890   42.8010 F   0  0  0  0  0  0  0  0  0  0  0  0
   36.8300   27.0110   41.6950 O   0  0  0  0  0  0  0  0  0  0  0  0
   37.3950   25.7460   41.3820 C   0  0  0  0  0  0  0  0  0  0  0  0
   37.6540   25.1160   42.6020 F   0  0  0  0  0  0  0  0  0  0  0  0
   36.5520   25.0450   40.5790 F   0  0  0  0  0  0  0  0  0  0  0  0
   38.6420   25.9320   40.8200 F   0  0  0  0  0  0  0  0  0  0  0  0
   31.9870   28.7720   36.4680 C   0  0  0  0  0  0  0  0  0  0  0  0
   31.7570   28.1520   37.3570 H   0  0  0  0  0  0  0  0  0  0  0  0
   31.7220   28.1730   35.5830 H   0  0  0  0  0  0  0  0  0  0  0  0
   31.2550   30.0750   36.5030 C   0  0  0  0  0  0  0  0  0  0  0  0
   31.1080   30.8740   35.2700 C   0  0  0  0  0  0  0  0  0  0  0  0
   31.4850   30.5990   34.3330 H   0  0  0  0  0  0  0  0  0  0  0  0
   30.1720   32.2980   35.8640 S   0  0  0  0  0  0  0  0  0  0  0  0
   30.1200   31.6210   37.6460 C   0  0  0  0  0  0  0  0  0  0  0  0
   29.6340   32.1430   38.4600 H   0  0  0  0  0  0  0  0  0  0  0  0
   30.6970   30.6160   37.5680 N   0  0  0  0  0  0  0  0  0  0  0  0
  2  3  1  0  0  0  0
  2  1  1  0  0  0  0
  3 15  1  0  0  0  0
  4  8  1  0  0  0  0
  4  3  2  0  0  0  0
  5  4  1  0  0  0  0
  6  5  2  0  0  0  0
  6  7  1  0  0  0  0
  7 27  1  0  0  0  0
  7  2  2  0  0  0  0
  9  5  1  0  0  0  0
 10  6  1  0  0  0  0
 11 12  1  0  0  0  0
 11 22  1  0  0  0  0
 12 18  1  0  0  0  0
 13 17  1  0  0  0  0
 13 12  2  0  0  0  0
 14 13  1  0  0  0  0
 15 14  2  0  0  0  0
 15 16  1  0  0  0  0
 16 11  2  0  0  0  0
 18 21  1  0  0  0  0
 18 19  1  0  0  0  0
 18 20  1  0  0  0  0
 23 22  1  0  0  0  0
 23 24  1  0  0  0  0
 25 23  1  0  0  0  0
 26 23  1  0  0  0  0
 27 30  1  0  0  0  0
 27 28  1  0  0  0  0
 29 27  1  0  0  0  0
 30 36  1  0  0  0  0
 31 33  1  0  0  0  0
 31 30  2  0  0  0  0
 32 31  1  0  0  0  0
 33 34  1  0  0  0  0
 34 35  1  0  0  0  0
 36 34  2  0  0  0  0
M  END
>  <minimizedAffinity>
-5.83199883

$$$$

 OpenBabel03252504193D

 36 38  0  0  0  0  0  0  0  0999 V2000
   40.9320   31.7510   41.4230 F   0  0  0  0  0  0  0  0  0  0  0  0
   39.7860   32.3410   40.9140 C   0  0  0  0  0  0  0  0  0  0  0  0
   38.6280   31.6240   40.8630 C   0  0  0  0  0  0  0  0  0  0  0  0
   37.5300   32.2840   40.3400 C   0  0  0  0  0  0  0  0  0  0  0  0
   37.6090   33.5750   39.9040 C   0  0  0  0  0  0  0  0  0  0  0  0
   38.8120   34.2540   39.9810 C   0  0  0  0  0  0  0  0  0  0  0  0
   39.9490   33.6370   40.5000 C   0  0  0  0  0  0  0  0  0  0  0  0
   36.5870   31.7440   40.2820 H   0  0  0  0  0  0  0  0  0  0  0  0
   36.7410   34.0970   39.4960 H   0  0  0  0  0  0  0  0  0  0  0  0
   38.8850   35.2920   39.6310 H   0  0  0  0  0  0  0  0  0  0  0  0
   38.1330   27.9990   40.8080 C   0  0  0  0  0  0  0  0  0  0  0  0
   38.3710   27.6130   42.1200 C   0  0  0  0  0  0  0  0  0  0  0  0
   38.7070   28.6210   43.0340 C   0  0  0  0  0  0  0  0  0  0  0  0
   38.7870   29.9040   42.6250 N   0  0  0  0  0  0  0  0  0  0  0  0
   38.5460   30.2370   41.3390 C   0  0  0  0  0  0  0  0  0  0  0  0
   38.2230   29.2920   40.4450 N   0  0  0  0  0  0  0  0  0  0  0  0
   38.8970   28.3340   44.0610 H   0  0  0  0  0  0  0  0  0  0  0  0
   38.2640   26.2020   42.4860 C   0  0  0  0  0  0  0  0  0  0  0  0
   38.9190   25.9530   43.6790 F   0  0  0  0  0  0  0  0  0  0  0  0
   36.9250   25.8990   42.7090 F   0  0  0  0  0  0  0  0  0  0  0  0
   38.7450   25.3200   41.5670 F   0  0  0  0  0  0  0  0  0  0  0  0
   37.8080   27.0340   39.9150 O   0  0  0  0  0  0  0  0  0  0  0  0
   36.5170   26.7600   39.3890 C   0  0  0  0  0  0  0  0  0  0  0  0
   36.1730   25.4800   39.8320 F   0  0  0  0  0  0  0  0  0  0  0  0
   35.6410   27.7220   39.7800 F   0  0  0  0  0  0  0  0  0  0  0  0
   36.6030   26.6370   38.0170 F   0  0  0  0  0  0  0  0  0  0  0  0
   41.2650   34.3460   40.5990 C   0  0  0  0  0  0  0  0  0  0  0  0
   41.7310   34.0390   41.5560 H   0  0  0  0  0  0  0  0  0  0  0  0
   41.0730   35.4280   40.6700 H   0  0  0  0  0  0  0  0  0  0  0  0
   42.1340   34.0060   39.4300 C   0  0  0  0  0  0  0  0  0  0  0  0
   43.5760   33.7630   39.6270 C   0  0  0  0  0  0  0  0  0  0  0  0
   44.0680   33.8090   40.5490 H   0  0  0  0  0  0  0  0  0  0  0  0
   44.1210   33.4050   37.9450 S   0  0  0  0  0  0  0  0  0  0  0  0
   42.3630   33.6320   37.2410 C   0  0  0  0  0  0  0  0  0  0  0  0
   42.1300   33.5170   36.1910 H   0  0  0  0  0  0  0  0  0  0  0  0
   41.7310   33.8930   38.1800 N   0  0  0  0  0  0  0  0  0  0  0  0
  2  1  1  0  0  0  0
  3  2  1  0  0  0  0
  3 15  1  0  0  0  0
  4  3  2  0  0  0  0
  5  6  2  0  0  0  0
  5  4  1  0  0  0  0
  6  7  1  0  0  0  0
  7 27  1  0  0  0  0
  7  2  2  0  0  0  0
  8  4  1  0  0  0  0
  9  5  1  0  0  0  0
 10  6  1  0  0  0  0
 11 12  1  0  0  0  0
 12 18  1  0  0  0  0
 12 13  2  0  0  0  0
 13 17  1  0  0  0  0
 14 13  1  0  0  0  0
 15 14  2  0  0  0  0
 16 11  2  0  0  0  0
 16 15  1  0  0  0  0
 18 20  1  0  0  0  0
 18 19  1  0  0  0  0
 21 18  1  0  0  0  0
 22 11  1  0  0  0  0
 23 25  1  0  0  0  0
 23 24  1  0  0  0  0
 23 22  1  0  0  0  0
 26 23  1  0  0  0  0
 27 29  1  0  0  0  0
 27 28  1  0  0  0  0
 30 31  2  0  0  0  0
 30 27  1  0  0  0  0
 31 32  1  0  0  0  0
 33 31  1  0  0  0  0
 34 33  1  0  0  0  0
 34 36  2  0  0  0  0
 35 34  1  0  0  0  0
 36 30  1  0  0  0  0
M  END
>  <minimizedAffinity>
-5.76857758

$$$$

 OpenBabel03252504193D

 36 38  0  0  0  0  0  0  0  0999 V2000
   33.4820   28.7190   38.8080 F   0  0  0  0  0  0  0  0  0  0  0  0
   34.2200   28.9750   37.6630 C   0  0  0  0  0  0  0  0  0  0  0  0
   35.5610   29.1970   37.7650 C   0  0  0  0  0  0  0  0  0  0  0  0
   36.2250   29.4470   36.5770 C   0  0  0  0  0  0  0  0  0  0  0  0
   35.5690   29.4680   35.3790 C   0  0  0  0  0  0  0  0  0  0  0  0
   34.2060   29.2350   35.3370 C   0  0  0  0  0  0  0  0  0  0  0  0
   33.4890   28.9780   36.5050 C   0  0  0  0  0  0  0  0  0  0  0  0
   37.2970   29.6290   36.6180 H   0  0  0  0  0  0  0  0  0  0  0  0
   36.0950   29.6600   34.4410 H   0  0  0  0  0  0  0  0  0  0  0  0
   33.6720   29.2510   34.3790 H   0  0  0  0  0  0  0  0  0  0  0  0
   38.0560   29.9450   40.3340 C   0  0  0  0  0  0  0  0  0  0  0  0
   37.6450   29.1900   41.4240 C   0  0  0  0  0  0  0  0  0  0  0  0
   36.4900   28.4120   41.2660 C   0  0  0  0  0  0  0  0  0  0  0  0
   35.8270   28.4180   40.0910 N   0  0  0  0  0  0  0  0  0  0  0  0
   36.2620   29.1670   39.0560 C   0  0  0  0  0  0  0  0  0  0  0  0
   37.3640   29.9200   39.1800 N   0  0  0  0  0  0  0  0  0  0  0  0
   36.1570   27.8190   42.1090 H   0  0  0  0  0  0  0  0  0  0  0  0
   38.4170   29.2350   42.6640 C   0  0  0  0  0  0  0  0  0  0  0  0
   37.7570   28.5670   43.6800 F   0  0  0  0  0  0  0  0  0  0  0  0
   39.6150   28.5570   42.4690 F   0  0  0  0  0  0  0  0  0  0  0  0
   38.7130   30.4820   43.1250 F   0  0  0  0  0  0  0  0  0  0  0  0
   39.1700   30.7020   40.4750 O   0  0  0  0  0  0  0  0  0  0  0  0
   39.2490   32.1200   40.4300 C   0  0  0  0  0  0  0  0  0  0  0  0
   40.1610   32.4970   41.4180 F   0  0  0  0  0  0  0  0  0  0  0  0
   39.6030   32.5260   39.1820 F   0  0  0  0  0  0  0  0  0  0  0  0
   38.0470   32.6540   40.8480 F   0  0  0  0  0  0  0  0  0  0  0  0
   32.0130   28.7190   36.4910 C   0  0  0  0  0  0  0  0  0  0  0  0
   31.8020   27.9850   37.2940 H   0  0  0  0  0  0  0  0  0  0  0  0
   31.7530   28.2340   35.5380 H   0  0  0  0  0  0  0  0  0  0  0  0
   31.2560   29.9920   36.6970 C   0  0  0  0  0  0  0  0  0  0  0  0
   30.5440   30.2320   37.9690 C   0  0  0  0  0  0  0  0  0  0  0  0
   30.5210   29.5640   38.7740 H   0  0  0  0  0  0  0  0  0  0  0  0
   29.8280   31.8630   37.6870 S   0  0  0  0  0  0  0  0  0  0  0  0
   30.5760   31.9780   35.9360 C   0  0  0  0  0  0  0  0  0  0  0  0
   30.4310   32.8330   35.2890 H   0  0  0  0  0  0  0  0  0  0  0  0
   31.1490   30.9730   35.8250 N   0  0  0  0  0  0  0  0  0  0  0  0
  2  3  1  0  0  0  0
  2  1  1  0  0  0  0
  3 15  1  0  0  0  0
  4  8  1  0  0  0  0
  4  3  2  0  0  0  0
  5  4  1  0  0  0  0
  6  5  2  0  0  0  0
  6  7  1  0  0  0  0
  7  2  2  0  0  0  0
  9  5  1  0  0  0  0
 10  6  1  0  0  0  0
 11 22  1  0  0  0  0
 11 12  1  0  0  0  0
 12 18  1  0  0  0  0
 13 12  2  0  0  0  0
 13 17  1  0  0  0  0
 14 13  1  0  0  0  0
 15 16  1  0  0  0  0
 15 14  2  0  0  0  0
 16 11  2  0  0  0  0
 18 21  1  0  0  0  0
 18 19  1  0  0  0  0
 20 18  1  0  0  0  0
 23 22  1  0  0  0  0
 23 26  1  0  0  0  0
 23 24  1  0  0  0  0
 25 23  1  0  0  0  0
 27  7  1  0  0  0  0
 27 30  1  0  0  0  0
 27 28  1  0  0  0  0
 29 27  1  0  0  0  0
 30 31  2  0  0  0  0
 31 32  1  0  0  0  0
 33 31  1  0  0  0  0
 34 33  1  0  0  0  0
 35 34  1  0  0  0  0
 36 34  2  0  0  0  0
 36 30  1  0  0  0  0
M  END
>  <minimizedAffinity>
-5.67792463

$$$$

 OpenBabel03252504193D

 36 38  0  0  0  0  0  0  0  0999 V2000
   33.6170   27.4620   37.4520 F   0  0  0  0  0  0  0  0  0  0  0  0
   34.6050   28.1880   36.8050 C   0  0  0  0  0  0  0  0  0  0  0  0
   35.8380   28.2990   37.3750 C   0  0  0  0  0  0  0  0  0  0  0  0
   36.7670   29.0410   36.6670 C   0  0  0  0  0  0  0  0  0  0  0  0
   36.4600   29.6220   35.4700 C   0  0  0  0  0  0  0  0  0  0  0  0
   35.1910   29.4740   34.9390 C   0  0  0  0  0  0  0  0  0  0  0  0
   34.2170   28.7370   35.6110 C   0  0  0  0  0  0  0  0  0  0  0  0
   37.7630   29.1540   37.0910 H   0  0  0  0  0  0  0  0  0  0  0  0
   37.1950   30.2040   34.9090 H   0  0  0  0  0  0  0  0  0  0  0  0
   34.9360   29.9390   33.9780 H   0  0  0  0  0  0  0  0  0  0  0  0
   36.6510   27.9620   40.9260 C   0  0  0  0  0  0  0  0  0  0  0  0
   36.7740   26.5920   41.1080 C   0  0  0  0  0  0  0  0  0  0  0  0
   36.5740   25.7760   39.9880 C   0  0  0  0  0  0  0  0  0  0  0  0
   36.2750   26.3290   38.7940 N   0  0  0  0  0  0  0  0  0  0  0  0
   36.1650   27.6680   38.6600 C   0  0  0  0  0  0  0  0  0  0  0  0
   36.3510   28.4710   39.7170 N   0  0  0  0  0  0  0  0  0  0  0  0
   36.6660   24.7040   40.1150 H   0  0  0  0  0  0  0  0  0  0  0  0
   37.1020   26.0680   42.4340 C   0  0  0  0  0  0  0  0  0  0  0  0
   36.8800   24.7040   42.4910 F   0  0  0  0  0  0  0  0  0  0  0  0
   38.4620   26.2490   42.6620 F   0  0  0  0  0  0  0  0  0  0  0  0
   36.4250   26.6330   43.4710 F   0  0  0  0  0  0  0  0  0  0  0  0
   36.8410   28.7620   42.0030 O   0  0  0  0  0  0  0  0  0  0  0  0
   38.0190   29.4880   42.3280 C   0  0  0  0  0  0  0  0  0  0  0  0
   37.8490   30.7720   41.8050 F   0  0  0  0  0  0  0  0  0  0  0  0
   38.2180   29.4730   43.6720 F   0  0  0  0  0  0  0  0  0  0  0  0
   39.0830   28.9670   41.6200 F   0  0  0  0  0  0  0  0  0  0  0  0
   32.8350   28.5560   35.0610 C   0  0  0  0  0  0  0  0  0  0  0  0
   32.3760   27.7060   35.6030 H   0  0  0  0  0  0  0  0  0  0  0  0
   32.9180   28.2540   34.0050 H   0  0  0  0  0  0  0  0  0  0  0  0
   32.0370   29.8090   35.2260 C   0  0  0  0  0  0  0  0  0  0  0  0
   31.3630   30.0940   36.5080 C   0  0  0  0  0  0  0  0  0  0  0  0
   31.3950   29.4720   37.3490 H   0  0  0  0  0  0  0  0  0  0  0  0
   30.5740   31.6790   36.1650 S   0  0  0  0  0  0  0  0  0  0  0  0
   31.2530   31.7230   34.3830 C   0  0  0  0  0  0  0  0  0  0  0  0
   31.0520   32.5340   33.6960 H   0  0  0  0  0  0  0  0  0  0  0  0
   31.8610   30.7350   34.3050 N   0  0  0  0  0  0  0  0  0  0  0  0
  2  3  1  0  0  0  0
  2  1  1  0  0  0  0
  3 15  1  0  0  0  0
  4  8  1  0  0  0  0
  4  3  2  0  0  0  0
  5  4  1  0  0  0  0
  6  5  2  0  0  0  0
  6  7  1  0  0  0  0
  7  2  2  0  0  0  0
  9  5  1  0  0  0  0
 10  6  1  0  0  0  0
 11 12  1  0  0  0  0
 11 22  1  0  0  0  0
 12 18  1  0  0  0  0
 13 17  1  0  0  0  0
 13 12  2  0  0  0  0
 14 13  1  0  0  0  0
 15 14  2  0  0  0  0
 15 16  1  0  0  0  0
 16 11  2  0  0  0  0
 18 19  1  0  0  0  0
 18 20  1  0  0  0  0
 18 21  1  0  0  0  0
 22 23  1  0  0  0  0
 23 25  1  0  0  0  0
 24 23  1  0  0  0  0
 26 23  1  0  0  0  0
 27 30  1  0  0  0  0
 27 28  1  0  0  0  0
 27  7  1  0  0  0  0
 29 27  1  0  0  0  0
 30 31  2  0  0  0  0
 31 32  1  0  0  0  0
 33 31  1  0  0  0  0
 34 33  1  0  0  0  0
 35 34  1  0  0  0  0
 36 34  2  0  0  0  0
 36 30  1  0  0  0  0
M  END
>  <minimizedAffinity>
-5.54541874

$$$$

 OpenBabel03252504193D

 36 38  0  0  0  0  0  0  0  0999 V2000
   39.8810   29.5450   38.9910 F   0  0  0  0  0  0  0  0  0  0  0  0
   38.8770   30.4620   39.2600 C   0  0  0  0  0  0  0  0  0  0  0  0
   37.7060   30.0320   39.8090 C   0  0  0  0  0  0  0  0  0  0  0  0
   36.7540   31.0080   40.0450 C   0  0  0  0  0  0  0  0  0  0  0  0
   36.9810   32.3200   39.7440 C   0  0  0  0  0  0  0  0  0  0  0  0
   38.1900   32.6980   39.1880 C   0  0  0  0  0  0  0  0  0  0  0  0
   39.1840   31.7550   38.9290 C   0  0  0  0  0  0  0  0  0  0  0  0
   35.8050   30.7030   40.4830 H   0  0  0  0  0  0  0  0  0  0  0  0
   36.2310   33.0900   39.9350 H   0  0  0  0  0  0  0  0  0  0  0  0
   38.3800   33.7510   38.9420 H   0  0  0  0  0  0  0  0  0  0  0  0
   37.8280   26.8630   41.6340 C   0  0  0  0  0  0  0  0  0  0  0  0
   37.0830   25.9980   40.8450 C   0  0  0  0  0  0  0  0  0  0  0  0
   36.5330   26.5190   39.6660 C   0  0  0  0  0  0  0  0  0  0  0  0
   36.7370   27.8120   39.3400 N   0  0  0  0  0  0  0  0  0  0  0  0
   37.4680   28.6190   40.1360 C   0  0  0  0  0  0  0  0  0  0  0  0
   38.0060   28.1460   41.2690 N   0  0  0  0  0  0  0  0  0  0  0  0
   35.9470   25.8550   39.0410 H   0  0  0  0  0  0  0  0  0  0  0  0
   36.9070   24.6090   41.2660 C   0  0  0  0  0  0  0  0  0  0  0  0
   38.1090   23.9250   41.2160 F   0  0  0  0  0  0  0  0  0  0  0  0
   36.5090   24.5930   42.5980 F   0  0  0  0  0  0  0  0  0  0  0  0
   36.0000   23.8900   40.5500 F   0  0  0  0  0  0  0  0  0  0  0  0
   38.3640   26.3720   42.7770 O   0  0  0  0  0  0  0  0  0  0  0  0
   39.7240   26.0230   42.9990 C   0  0  0  0  0  0  0  0  0  0  0  0
   40.3010   27.0970   43.6800 F   0  0  0  0  0  0  0  0  0  0  0  0
   39.7970   24.8490   43.6790 F   0  0  0  0  0  0  0  0  0  0  0  0
   40.3860   25.9860   41.7890 F   0  0  0  0  0  0  0  0  0  0  0  0
   40.5040   32.1340   38.3300 C   0  0  0  0  0  0  0  0  0  0  0  0
   40.3030   32.8920   37.5490 H   0  0  0  0  0  0  0  0  0  0  0  0
   40.9210   31.2520   37.8200 H   0  0  0  0  0  0  0  0  0  0  0  0
   41.4260   32.6610   39.3840 C   0  0  0  0  0  0  0  0  0  0  0  0
   42.4930   31.8000   39.9300 C   0  0  0  0  0  0  0  0  0  0  0  0
   42.6730   30.8120   39.6340 H   0  0  0  0  0  0  0  0  0  0  0  0
   43.2780   32.9010   41.1240 S   0  0  0  0  0  0  0  0  0  0  0  0
   42.0780   34.3270   40.7190 C   0  0  0  0  0  0  0  0  0  0  0  0
   42.1260   35.2930   41.2040 H   0  0  0  0  0  0  0  0  0  0  0  0
   41.3870   33.8710   39.9030 N   0  0  0  0  0  0  0  0  0  0  0  0
  1  2  1  0  0  0  0
  2  3  1  0  0  0  0
  3  4  2  0  0  0  0
  3 15  1  0  0  0  0
  4  8  1  0  0  0  0
  5  9  1  0  0  0  0
  5  4  1  0  0  0  0
  6  5  2  0  0  0  0
  7  6  1  0  0  0  0
  7  2  2  0  0  0  0
 10  6  1  0  0  0  0
 11 22  1  0  0  0  0
 12 18  1  0  0  0  0
 12 11  2  0  0  0  0
 13 12  1  0  0  0  0
 14 13  2  0  0  0  0
 14 15  1  0  0  0  0
 15 16  2  0  0  0  0
 16 11  1  0  0  0  0
 17 13  1  0  0  0  0
 18 20  1  0  0  0  0
 19 18  1  0  0  0  0
 21 18  1  0  0  0  0
 22 23  1  0  0  0  0
 23 25  1  0  0  0  0
 23 24  1  0  0  0  0
 26 23  1  0  0  0  0
 27  7  1  0  0  0  0
 27 30  1  0  0  0  0
 28 27  1  0  0  0  0
 29 27  1  0  0  0  0
 30 36  1  0  0  0  0
 30 31  2  0  0  0  0
 31 33  1  0  0  0  0
 32 31  1  0  0  0  0
 34 33  1  0  0  0  0
 34 35  1  0  0  0  0
 36 34  2  0  0  0  0
M  END
>  <minimizedAffinity>
-5.53382635

$$$$

 OpenBabel03252504193D

 36 38  0  0  0  0  0  0  0  0999 V2000
   36.9630   27.2400   41.3080 F   0  0  0  0  0  0  0  0  0  0  0  0
   38.1010   26.8640   42.0040 C   0  0  0  0  0  0  0  0  0  0  0  0
   39.0990   27.7720   42.1990 C   0  0  0  0  0  0  0  0  0  0  0  0
   40.2020   27.3180   42.9010 C   0  0  0  0  0  0  0  0  0  0  0  0
   40.2780   26.0370   43.3670 C   0  0  0  0  0  0  0  0  0  0  0  0
   39.2340   25.1590   43.1400 C   0  0  0  0  0  0  0  0  0  0  0  0
   38.0990   25.5650   42.4380 C   0  0  0  0  0  0  0  0  0  0  0  0
   41.0200   28.0140   43.0760 H   0  0  0  0  0  0  0  0  0  0  0  0
   41.1470   25.6810   43.9260 H   0  0  0  0  0  0  0  0  0  0  0  0
   39.2880   24.1270   43.5110 H   0  0  0  0  0  0  0  0  0  0  0  0
   38.7400   30.5580   39.8540 C   0  0  0  0  0  0  0  0  0  0  0  0
   38.8250   31.6830   40.6630 C   0  0  0  0  0  0  0  0  0  0  0  0
   39.0080   31.4740   42.0350 C   0  0  0  0  0  0  0  0  0  0  0  0
   39.0960   30.2180   42.5210 N   0  0  0  0  0  0  0  0  0  0  0  0
   39.0090   29.1510   41.7000 C   0  0  0  0  0  0  0  0  0  0  0  0
   38.8340   29.3230   40.3820 N   0  0  0  0  0  0  0  0  0  0  0  0
   39.0750   32.3430   42.6790 H   0  0  0  0  0  0  0  0  0  0  0  0
   38.7210   33.0110   40.0610 C   0  0  0  0  0  0  0  0  0  0  0  0
   37.4550   33.2190   39.5430 F   0  0  0  0  0  0  0  0  0  0  0  0
   38.8940   33.9670   41.0560 F   0  0  0  0  0  0  0  0  0  0  0  0
   39.6140   33.2760   39.0680 F   0  0  0  0  0  0  0  0  0  0  0  0
   38.5610   30.7470   38.5250 O   0  0  0  0  0  0  0  0  0  0  0  0
   37.3920   30.4570   37.7730 C   0  0  0  0  0  0  0  0  0  0  0  0
   36.3120   30.6040   38.6470 F   0  0  0  0  0  0  0  0  0  0  0  0
   37.3240   31.2710   36.6860 F   0  0  0  0  0  0  0  0  0  0  0  0
   37.3860   29.1170   37.4410 F   0  0  0  0  0  0  0  0  0  0  0  0
   36.9510   24.6380   42.1780 C   0  0  0  0  0  0  0  0  0  0  0  0
   36.0300   25.2550   42.1640 H   0  0  0  0  0  0  0  0  0  0  0  0
   36.8600   23.9490   43.0320 H   0  0  0  0  0  0  0  0  0  0  0  0
   37.1460   23.9100   40.8870 C   0  0  0  0  0  0  0  0  0  0  0  0
   36.3450   24.2760   39.7030 C   0  0  0  0  0  0  0  0  0  0  0  0
   35.6220   25.0320   39.6830 H   0  0  0  0  0  0  0  0  0  0  0  0
   36.9690   23.1210   38.4660 S   0  0  0  0  0  0  0  0  0  0  0  0
   38.1890   22.3330   39.7010 C   0  0  0  0  0  0  0  0  0  0  0  0
   38.8560   21.5230   39.4340 H   0  0  0  0  0  0  0  0  0  0  0  0
   38.0000   22.9280   40.6800 N   0  0  0  0  0  0  0  0  0  0  0  0
  1  2  1  0  0  0  0
  2  3  2  0  0  0  0
  2  7  1  0  0  0  0
  3  4  1  0  0  0  0
  4  8  1  0  0  0  0
  4  5  2  0  0  0  0
  5  9  1  0  0  0  0
  6  5  1  0  0  0  0
  6 10  1  0  0  0  0
  7  6  2  0  0  0  0
 11 16  2  0  0  0  0
 11 12  1  0  0  0  0
 12 13  2  0  0  0  0
 13 14  1  0  0  0  0
 13 17  1  0  0  0  0
 15  3  1  0  0  0  0
 15 14  2  0  0  0  0
 16 15  1  0  0  0  0
 18 12  1  0  0  0  0
 18 20  1  0  0  0  0
 19 18  1  0  0  0  0
 21 18  1  0  0  0  0
 22 11  1  0  0  0  0
 23 22  1  0  0  0  0
 23 24  1  0  0  0  0
 25 23  1  0  0  0  0
 26 23  1  0  0  0  0
 27  7  1  0  0  0  0
 27 29  1  0  0  0  0
 28 27  1  0  0  0  0
 30 27  1  0  0  0  0
 31 30  2  0  0  0  0
 32 31  1  0  0  0  0
 33 34  1  0  0  0  0
 33 31  1  0  0  0  0
 34 36  2  0  0  0  0
 35 34  1  0  0  0  0
 36 30  1  0  0  0  0
M  END
>  <minimizedAffinity>
-5.51178885

$$$$

 OpenBabel03252504193D

 36 38  0  0  0  0  0  0  0  0999 V2000
   39.1760   27.2910   40.4940 F   0  0  0  0  0  0  0  0  0  0  0  0
   38.2760   27.3510   41.5460 C   0  0  0  0  0  0  0  0  0  0  0  0
   37.9250   28.5640   42.0600 C   0  0  0  0  0  0  0  0  0  0  0  0
   37.0240   28.5380   43.1100 C   0  0  0  0  0  0  0  0  0  0  0  0
   36.5210   27.3650   43.5950 C   0  0  0  0  0  0  0  0  0  0  0  0
   36.9130   26.1640   43.0330 C   0  0  0  0  0  0  0  0  0  0  0  0
   37.8190   26.1330   41.9730 C   0  0  0  0  0  0  0  0  0  0  0  0
   36.7200   29.4870   43.5470 H   0  0  0  0  0  0  0  0  0  0  0  0
   35.8060   27.3460   44.4200 H   0  0  0  0  0  0  0  0  0  0  0  0
   36.5140   25.2170   43.4180 H   0  0  0  0  0  0  0  0  0  0  0  0
   38.4250   31.4120   39.8180 C   0  0  0  0  0  0  0  0  0  0  0  0
   39.4020   32.1660   40.4550 C   0  0  0  0  0  0  0  0  0  0  0  0
   39.8930   31.6810   41.6740 C   0  0  0  0  0  0  0  0  0  0  0  0
   39.4160   30.5260   42.1820 N   0  0  0  0  0  0  0  0  0  0  0  0
   38.4660   29.8230   41.5300 C   0  0  0  0  0  0  0  0  0  0  0  0
   37.9790   30.2650   40.3620 N   0  0  0  0  0  0  0  0  0  0  0  0
   40.6540   32.2600   42.1820 H   0  0  0  0  0  0  0  0  0  0  0  0
   39.8680   33.4080   39.8390 C   0  0  0  0  0  0  0  0  0  0  0  0
   38.8540   34.3490   39.8020 F   0  0  0  0  0  0  0  0  0  0  0  0
   40.8720   33.9500   40.6340 F   0  0  0  0  0  0  0  0  0  0  0  0
   40.3550   33.2870   38.5740 F   0  0  0  0  0  0  0  0  0  0  0  0
   37.9410   31.8710   38.6390 O   0  0  0  0  0  0  0  0  0  0  0  0
   37.8180   31.1400   37.4270 C   0  0  0  0  0  0  0  0  0  0  0  0
   37.7350   32.0850   36.4020 F   0  0  0  0  0  0  0  0  0  0  0  0
   38.8650   30.2840   37.2910 F   0  0  0  0  0  0  0  0  0  0  0  0
   36.5950   30.5010   37.4050 F   0  0  0  0  0  0  0  0  0  0  0  0
   38.2610   24.8480   41.3410 C   0  0  0  0  0  0  0  0  0  0  0  0
   38.2940   24.0840   42.1430 H   0  0  0  0  0  0  0  0  0  0  0  0
   39.2920   24.9760   40.9780 H   0  0  0  0  0  0  0  0  0  0  0  0
   37.3240   24.4540   40.2440 C   0  0  0  0  0  0  0  0  0  0  0  0
   37.6510   24.7760   38.8410 C   0  0  0  0  0  0  0  0  0  0  0  0
   38.5160   25.2760   38.5300 H   0  0  0  0  0  0  0  0  0  0  0  0
   36.2290   24.0940   37.9670 S   0  0  0  0  0  0  0  0  0  0  0  0
   35.4210   23.4900   39.5850 C   0  0  0  0  0  0  0  0  0  0  0  0
   34.4710   22.9720   39.6120 H   0  0  0  0  0  0  0  0  0  0  0  0
   36.1810   23.8180   40.4010 N   0  0  0  0  0  0  0  0  0  0  0  0
  1  2  1  0  0  0  0
  2  7  2  0  0  0  0
  2  3  1  0  0  0  0
  3  4  2  0  0  0  0
  4  8  1  0  0  0  0
  4  5  1  0  0  0  0
  5  9  1  0  0  0  0
  6 10  1  0  0  0  0
  6  5  2  0  0  0  0
  7  6  1  0  0  0  0
 11 16  2  0  0  0  0
 11 12  1  0  0  0  0
 12 13  2  0  0  0  0
 13 17  1  0  0  0  0
 13 14  1  0  0  0  0
 15  3  1  0  0  0  0
 15 14  2  0  0  0  0
 16 15  1  0  0  0  0
 18 12  1  0  0  0  0
 18 20  1  0  0  0  0
 19 18  1  0  0  0  0
 21 18  1  0  0  0  0
 22 11  1  0  0  0  0
 23 22  1  0  0  0  0
 24 23  1  0  0  0  0
 25 23  1  0  0  0  0
 26 23  1  0  0  0  0
 27  7  1  0  0  0  0
 27 28  1  0  0  0  0
 29 27  1  0  0  0  0
 30 36  1  0  0  0  0
 30 27  1  0  0  0  0
 31 30  2  0  0  0  0
 32 31  1  0  0  0  0
 33 31  1  0  0  0  0
 33 34  1  0  0  0  0
 34 35  1  0  0  0  0
 34 36  2  0  0  0  0
M  END
>  <minimizedAffinity>
-5.49160051

$$$$

 OpenBabel03252504193D

 36 38  0  0  0  0  0  0  0  0999 V2000
   37.1190   28.2220   40.7080 F   0  0  0  0  0  0  0  0  0  0  0  0
   36.9440   26.8520   40.8260 C   0  0  0  0  0  0  0  0  0  0  0  0
   36.5910   26.1250   39.7290 C   0  0  0  0  0  0  0  0  0  0  0  0
   36.4330   24.7650   39.9300 C   0  0  0  0  0  0  0  0  0  0  0  0
   36.6230   24.1940   41.1560 C   0  0  0  0  0  0  0  0  0  0  0  0
   36.9820   24.9830   42.2340 C   0  0  0  0  0  0  0  0  0  0  0  0
   37.1530   26.3590   42.0870 C   0  0  0  0  0  0  0  0  0  0  0  0
   36.1510   24.1500   39.0770 H   0  0  0  0  0  0  0  0  0  0  0  0
   36.5030   23.1190   41.3130 H   0  0  0  0  0  0  0  0  0  0  0  0
   37.1350   24.5320   43.2230 H   0  0  0  0  0  0  0  0  0  0  0  0
   36.2730   28.7160   37.1660 C   0  0  0  0  0  0  0  0  0  0  0  0
   36.0430   28.0010   35.9990 C   0  0  0  0  0  0  0  0  0  0  0  0
   35.9960   26.6040   36.1020 C   0  0  0  0  0  0  0  0  0  0  0  0
   36.1720   26.0090   37.3010 N   0  0  0  0  0  0  0  0  0  0  0  0
   36.3930   26.7430   38.4110 C   0  0  0  0  0  0  0  0  0  0  0  0
   36.4430   28.0810   38.3400 N   0  0  0  0  0  0  0  0  0  0  0  0
   35.8190   26.0330   35.1990 H   0  0  0  0  0  0  0  0  0  0  0  0
   35.8610   28.7180   34.7380 C   0  0  0  0  0  0  0  0  0  0  0  0
   35.6200   27.8350   33.7010 F   0  0  0  0  0  0  0  0  0  0  0  0
   34.7280   29.5170   34.8380 F   0  0  0  0  0  0  0  0  0  0  0  0
   36.9000   29.5120   34.3610 F   0  0  0  0  0  0  0  0  0  0  0  0
   36.3210   30.0670   37.0790 O   0  0  0  0  0  0  0  0  0  0  0  0
   37.4430   30.8990   37.3420 C   0  0  0  0  0  0  0  0  0  0  0  0
   37.1810   31.5470   38.5500 F   0  0  0  0  0  0  0  0  0  0  0  0
   38.5800   30.1530   37.3620 F   0  0  0  0  0  0  0  0  0  0  0  0
   37.4840   31.9140   36.4080 F   0  0  0  0  0  0  0  0  0  0  0  0
   37.5440   27.2390   43.2340 C   0  0  0  0  0  0  0  0  0  0  0  0
   37.2160   26.7310   44.1620 H   0  0  0  0  0  0  0  0  0  0  0  0
   36.9720   28.1770   43.1640 H   0  0  0  0  0  0  0  0  0  0  0  0
   39.0200   27.4800   43.2310 C   0  0  0  0  0  0  0  0  0  0  0  0
   39.9440   26.4190   43.6780 C   0  0  0  0  0  0  0  0  0  0  0  0
   39.6480   25.4720   44.0100 H   0  0  0  0  0  0  0  0  0  0  0  0
   41.5480   27.2180   43.4730 S   0  0  0  0  0  0  0  0  0  0  0  0
   40.7540   28.8290   42.8310 C   0  0  0  0  0  0  0  0  0  0  0  0
   41.3330   29.6960   42.5430 H   0  0  0  0  0  0  0  0  0  0  0  0
   39.6160   28.5930   42.8530 N   0  0  0  0  0  0  0  0  0  0  0  0
  1  2  1  0  0  0  0
  2  7  1  0  0  0  0
  3  4  1  0  0  0  0
  3  2  2  0  0  0  0
  4  5  2  0  0  0  0
  5  9  1  0  0  0  0
  5  6  1  0  0  0  0
  6 10  1  0  0  0  0
  7  6  2  0  0  0  0
  7 27  1  0  0  0  0
  8  4  1  0  0  0  0
 11 16  1  0  0  0  0
 12 13  1  0  0  0  0
 12 11  2  0  0  0  0
 13 14  2  0  0  0  0
 14 15  1  0  0  0  0
 15  3  1  0  0  0  0
 16 15  2  0  0  0  0
 17 13  1  0  0  0  0
 18 20  1  0  0  0  0
 18 12  1  0  0  0  0
 19 18  1  0  0  0  0
 21 18  1  0  0  0  0
 22 11  1  0  0  0  0
 22 23  1  0  0  0  0
 23 25  1  0  0  0  0
 23 24  1  0  0  0  0
 26 23  1  0  0  0  0
 27 28  1  0  0  0  0
 29 27  1  0  0  0  0
 30 27  1  0  0  0  0
 30 31  2  0  0  0  0
 31 32  1  0  0  0  0
 33 31  1  0  0  0  0
 34 36  2  0  0  0  0
 34 33  1  0  0  0  0
 35 34  1  0  0  0  0
 36 30  1  0  0  0  0
M  END
>  <minimizedAffinity>
-5.48117161

$$$$
