
 OpenBabel03252508563D

 22 23  0  0  0  0  0  0  0  0999 V2000
   42.7150   33.8810   41.5250 C   0  0  0  0  0  0  0  0  0  0  0  0
   42.2740   32.9560   41.9520 H   0  0  0  0  0  0  0  0  0  0  0  0
   42.0480   34.7140   41.7380 H   0  0  0  0  0  0  0  0  0  0  0  0
   45.7760   35.6080   42.8850 C   0  0  0  0  0  0  0  0  0  0  0  0
   44.5300   35.4060   42.2350 C   0  0  0  0  0  0  0  0  0  0  0  0
   44.0170   34.1180   42.1990 C   0  0  0  0  0  0  0  0  0  0  0  0
   44.7350   33.1300   42.7860 N   0  0  0  0  0  0  0  0  0  0  0  0
   45.9210   33.3430   43.4010 C   0  0  0  0  0  0  0  0  0  0  0  0
   46.4260   34.5730   43.4440 N   0  0  0  0  0  0  0  0  0  0  0  0
   46.0730   36.6480   42.8490 H   0  0  0  0  0  0  0  0  0  0  0  0
   43.9600   36.1970   41.7670 H   0  0  0  0  0  0  0  0  0  0  0  0
   46.4810   32.5430   43.8650 H   0  0  0  0  0  0  0  0  0  0  0  0
   42.9540   33.6590   40.0530 C   0  0  0  0  0  0  0  0  0  0  0  0
   43.0990   34.6510   39.5760 H   0  0  0  0  0  0  0  0  0  0  0  0
   43.8790   33.0990   39.8800 H   0  0  0  0  0  0  0  0  0  0  0  0
   41.7740   32.9250   39.4790 C   0  0  0  0  0  0  0  0  0  0  0  0
   41.2820   33.0950   38.1270 C   0  0  0  0  0  0  0  0  0  0  0  0
   41.7480   33.7780   37.4370 H   0  0  0  0  0  0  0  0  0  0  0  0
   39.8940   31.9660   38.0730 S   0  0  0  0  0  0  0  0  0  0  0  0
   40.1850   31.4350   39.8790 C   0  0  0  0  0  0  0  0  0  0  0  0
   39.5710   30.6740   40.4650 H   0  0  0  0  0  0  0  0  0  0  0  0
   41.0890   32.0520   40.1920 N   0  0  0  0  0  0  0  0  0  0  0  0
  1  3  1  0  0  0  0
  1  2  1  0  0  0  0
  1  6  1  0  0  0  0
  4  9  1  0  0  0  0
  5  4  2  0  0  0  0
  6  5  1  0  0  0  0
  6  7  2  0  0  0  0
  7  8  1  0  0  0  0
  8  9  2  0  0  0  0
  8 12  1  0  0  0  0
 10  4  1  0  0  0  0
 11  5  1  0  0  0  0
 13  1  1  0  0  0  0
 14 13  1  0  0  0  0
 15 13  1  0  0  0  0
 16 13  1  0  0  0  0
 16 22  1  0  0  0  0
 17 16  2  0  0  0  0
 18 17  1  0  0  0  0
 19 17  1  0  0  0  0
 19 20  1  0  0  0  0
 20 22  2  0  0  0  0
 20 21  1  0  0  0  0
M  END
>  <minimizedAffinity>
-2.70356774

>  <minimizedRMSD>
6.16256046

$$$$
