
 OpenBabel03242511393D

 22 23  0  0  0  0  0  0  0  0999 V2000
   46.5320   32.7160   45.2370 C   0  0  0  0  0  0  0  0  0  0  0  0
   45.8470   31.8490   45.1730 H   0  0  0  0  0  0  0  0  0  0  0  0
   47.4910   32.5330   44.7230 H   0  0  0  0  0  0  0  0  0  0  0  0
   44.5520   35.7810   44.6420 C   0  0  0  0  0  0  0  0  0  0  0  0
   45.0180   36.1770   43.3440 C   0  0  0  0  0  0  0  0  0  0  0  0
   45.9820   35.3790   42.7410 C   0  0  0  0  0  0  0  0  0  0  0  0
   46.4270   34.2810   43.3990 N   0  0  0  0  0  0  0  0  0  0  0  0
   45.9570   33.9410   44.6330 C   0  0  0  0  0  0  0  0  0  0  0  0
   45.0310   34.6760   45.2550 N   0  0  0  0  0  0  0  0  0  0  0  0
   43.7980   36.3730   45.1560 H   0  0  0  0  0  0  0  0  0  0  0  0
   44.5750   37.0760   42.9370 H   0  0  0  0  0  0  0  0  0  0  0  0
   46.3220   35.6830   41.7740 H   0  0  0  0  0  0  0  0  0  0  0  0
   46.7820   33.0220   46.6940 C   0  0  0  0  0  0  0  0  0  0  0  0
   46.5130   34.0310   46.9890 H   0  0  0  0  0  0  0  0  0  0  0  0
   47.8780   32.9160   46.9260 H   0  0  0  0  0  0  0  0  0  0  0  0
   46.1340   31.9830   47.5640 C   0  0  0  0  0  0  0  0  0  0  0  0
   45.8890   30.7060   46.9700 C   0  0  0  0  0  0  0  0  0  0  0  0
   46.1100   30.3710   45.9550 H   0  0  0  0  0  0  0  0  0  0  0  0
   45.1270   29.7890   48.3120 S   0  0  0  0  0  0  0  0  0  0  0  0
   45.2490   31.2690   49.4880 C   0  0  0  0  0  0  0  0  0  0  0  0
   44.9450   31.3950   50.5360 H   0  0  0  0  0  0  0  0  0  0  0  0
   45.7480   32.0790   48.8260 N   0  0  0  0  0  0  0  0  0  0  0  0
  1 13  1  0  0  0  0
  2  1  1  0  0  0  0
  3  1  1  0  0  0  0
  4 10  1  0  0  0  0
  4  9  1  0  0  0  0
  5  4  2  0  0  0  0
  6  5  1  0  0  0  0
  6  7  2  0  0  0  0
  7  8  1  0  0  0  0
  8  1  1  0  0  0  0
  8  9  2  0  0  0  0
 11  5  1  0  0  0  0
 12  6  1  0  0  0  0
 13 15  1  0  0  0  0
 13 14  1  0  0  0  0
 13 16  1  0  0  0  0
 16 22  1  0  0  0  0
 17 16  2  0  0  0  0
 17 19  1  0  0  0  0
 18 17  1  0  0  0  0
 19 20  1  0  0  0  0
 20 21  1  0  0  0  0
 22 20  2  0  0  0  0
M  END
>  <minimizedAffinity>
-4.18782616

>  <minimizedRMSD>
1.21998394

$$$$
