
 OpenBabel03252508593D

 43 45  0  0  1  0  0  0  0  0999 V2000
   46.6710   34.5410   43.5280 N   0  0  0  0  0  0  0  0  0  0  0  0
   46.1900   35.5840   42.6930 C   0  0  0  0  0  0  0  0  0  0  0  0
   44.6880   35.7660   42.6990 C   0  0  0  0  0  0  0  0  0  0  0  0
   44.0160   35.4350   44.0040 C   0  0  0  0  0  0  0  0  0  0  0  0
   45.0350   35.1200   45.0750 C   0  0  0  0  0  0  0  0  0  0  0  0
   45.8470   33.9250   44.4540 C   0  0  2  0  0  0  0  0  0  0  0  0
   46.5070   35.5420   41.6460 H   0  0  0  0  0  0  0  0  0  0  0  0
   46.6390   36.5310   43.1040 H   0  0  0  0  0  0  0  0  0  0  0  0
   44.2190   35.2120   41.8450 H   0  0  0  0  0  0  0  0  0  0  0  0
   44.4750   36.8370   42.4930 H   0  0  0  0  0  0  0  0  0  0  0  0
   43.4370   34.5010   43.8420 H   0  0  0  0  0  0  0  0  0  0  0  0
   43.2920   36.2090   44.3120 H   0  0  0  0  0  0  0  0  0  0  0  0
   45.6830   35.9970   45.1800 H   0  0  0  0  0  0  0  0  0  0  0  0
   44.5380   34.7830   45.9890 H   0  0  0  0  0  0  0  0  0  0  0  0
   45.0940   33.2090   44.0660 H   0  0  0  0  0  0  0  0  0  0  0  0
   47.7580   33.7950   42.9690 C   0  0  0  0  0  0  0  0  0  0  0  0
   48.3870   33.3690   43.7780 H   0  0  0  0  0  0  0  0  0  0  0  0
   48.3940   34.5060   42.3900 H   0  0  0  0  0  0  0  0  0  0  0  0
   47.2090   32.7130   42.0970 C   0  0  0  0  0  0  0  0  0  0  0  0
   47.3880   31.7030   42.4710 H   0  0  0  0  0  0  0  0  0  0  0  0
   46.0960   32.8330   41.9770 H   0  0  0  0  0  0  0  0  0  0  0  0
   49.0680   32.0010   38.9090 C   0  0  0  0  0  0  0  0  0  0  0  0
   48.5400   31.8610   40.2060 C   0  0  0  0  0  0  0  0  0  0  0  0
   47.7620   32.8700   40.7260 C   0  0  0  0  0  0  0  0  0  0  0  0
   47.5430   33.9490   39.9570 N   0  0  0  0  0  0  0  0  0  0  0  0
   48.0500   34.0730   38.7200 C   0  0  0  0  0  0  0  0  0  0  0  0
   48.8150   33.1060   38.1830 N   0  0  0  0  0  0  0  0  0  0  0  0
   49.6830   31.1930   38.5090 H   0  0  0  0  0  0  0  0  0  0  0  0
   48.7820   30.9480   40.7350 H   0  0  0  0  0  0  0  0  0  0  0  0
   47.7590   35.0120   38.2680 H   0  0  0  0  0  0  0  0  0  0  0  0
   46.5550   33.4640   45.5530 O   0  0  0  0  0  0  0  0  0  0  0  0
   45.5990   31.1270   44.7260 O   0  0  0  0  0  0  0  0  0  0  0  0
   46.2260   31.8580   45.9180 P   0  0  2  0  0  0  0  0  0  0  0  0
   44.9990   31.8830   47.1090 O   0  0  0  0  0  0  0  0  0  0  0  0
   45.1830   32.6040   47.7560 H   0  0  0  0  0  0  0  0  0  0  0  0
   47.5410   31.0670   46.5480 O   0  0  0  0  0  0  0  0  0  0  0  0
   47.5880   29.7200   46.8740 C   0  0  0  0  0  0  0  0  0  0  0  0
   48.7630   28.8800   46.9200 C   0  0  0  0  0  0  0  0  0  0  0  0
   49.7420   29.4110   46.6540 H   0  0  0  0  0  0  0  0  0  0  0  0
   48.0040   27.2250   47.4340 S   0  0  0  0  0  0  0  0  0  0  0  0
   46.2790   28.0170   47.4760 C   0  0  0  0  0  0  0  0  0  0  0  0
   45.4570   27.3440   47.7550 H   0  0  0  0  0  0  0  0  0  0  0  0
   46.4240   29.1500   47.1740 N   0  0  0  0  0  0  0  0  0  0  0  0
  1  6  1  0  0  0  0
  2  3  1  0  0  0  0
  2  8  1  0  0  0  0
  2  1  1  0  0  0  0
  3  4  1  0  0  0  0
  4 12  1  0  0  0  0
  4  5  1  0  0  0  0
  5 13  1  0  0  0  0
  5 14  1  0  0  0  0
  6 15  1  6  0  0  0
  6  5  1  0  0  0  0
  6 31  1  0  0  0  0
  7  2  1  0  0  0  0
  9  3  1  0  0  0  0
 10  3  1  0  0  0  0
 11  4  1  0  0  0  0
 16  1  1  0  0  0  0
 16 17  1  0  0  0  0
 18 16  1  0  0  0  0
 19 20  1  0  0  0  0
 19 16  1  0  0  0  0
 21 19  1  0  0  0  0
 22 23  1  0  0  0  0
 23 24  2  0  0  0  0
 23 29  1  0  0  0  0
 24 19  1  0  0  0  0
 25 24  1  0  0  0  0
 26 25  2  0  0  0  0
 27 26  1  0  0  0  0
 27 22  2  0  0  0  0
 28 22  1  0  0  0  0
 30 26  1  0  0  0  0
 31 33  1  0  0  0  0
 33 32  2  6  0  0  0
 33 36  1  0  0  0  0
 33 34  1  0  0  0  0
 34 35  1  0  0  0  0
 36 37  1  0  0  0  0
 37 38  2  0  0  0  0
 37 43  1  0  0  0  0
 38 40  1  0  0  0  0
 39 38  1  0  0  0  0
 40 41  1  0  0  0  0
 41 42  1  0  0  0  0
 43 41  2  0  0  0  0
M  END
>  <minimizedAffinity>
-4.21250343

>  <minimizedRMSD>
0.933920443

$$$$
