
 OpenBabel03252509273D

 28 30  0  0  1  0  0  0  0  0999 V2000
   46.6340   35.1090   41.9910 C   0  0  1  0  0  0  0  0  0  0  0  0
   48.1910   35.1210   42.0210 C   0  0  0  0  0  0  0  0  0  0  0  0
   47.2790   34.0580   41.3230 C   0  0  2  0  0  0  0  0  0  0  0  0
   46.2020   35.9850   41.4660 H   0  0  0  0  0  0  0  0  0  0  0  0
   48.7030   34.8240   42.9340 H   0  0  0  0  0  0  0  0  0  0  0  0
   48.6480   35.8060   41.2980 H   0  0  0  0  0  0  0  0  0  0  0  0
   47.4150   33.0350   41.7930 H   0  0  0  0  0  0  0  0  0  0  0  0
   44.6160   35.4210   45.1430 C   0  0  0  0  0  0  0  0  0  0  0  0
   45.1220   35.7400   43.8410 C   0  0  0  0  0  0  0  0  0  0  0  0
   46.0840   34.9030   43.3820 C   0  0  0  0  0  0  0  0  0  0  0  0
   46.5370   33.8290   44.1180 N   0  0  0  0  0  0  0  0  0  0  0  0
   46.0360   33.5640   45.3370 C   0  0  0  0  0  0  0  0  0  0  0  0
   45.0720   34.3620   45.8490 N   0  0  0  0  0  0  0  0  0  0  0  0
   43.8400   36.1080   45.4970 H   0  0  0  0  0  0  0  0  0  0  0  0
   46.4100   32.7170   45.8900 H   0  0  0  0  0  0  0  0  0  0  0  0
   44.6770   36.8550   43.1110 N   0  0  0  0  0  0  0  0  0  0  0  0
   45.4170   37.5460   43.4190 H   0  0  0  0  0  0  0  0  0  0  0  0
   43.8750   37.0010   42.4580 H   0  0  0  0  0  0  0  0  0  0  0  0
   47.3430   33.9760   39.8190 C   0  0  0  0  0  0  0  0  0  0  0  0
   48.3550   33.6570   39.4960 H   0  0  0  0  0  0  0  0  0  0  0  0
   47.2370   35.0150   39.4460 H   0  0  0  0  0  0  0  0  0  0  0  0
   46.3020   33.0480   39.2690 C   0  0  0  0  0  0  0  0  0  0  0  0
   46.6370   31.8820   38.5860 C   0  0  0  0  0  0  0  0  0  0  0  0
   47.6890   31.5500   38.3930 H   0  0  0  0  0  0  0  0  0  0  0  0
   44.9780   31.1740   38.1640 S   0  0  0  0  0  0  0  0  0  0  0  0
   44.1220   32.6240   39.0140 C   0  0  0  0  0  0  0  0  0  0  0  0
   43.0340   32.7580   39.0890 H   0  0  0  0  0  0  0  0  0  0  0  0
   45.0000   33.2650   39.3930 N   0  0  0  0  0  0  0  0  0  0  0  0
  1  4  1  6  0  0  0
  1  2  1  0  0  0  0
  1 10  1  0  0  0  0
  2  5  1  0  0  0  0
  3  7  1  1  0  0  0
  3  1  1  0  0  0  0
  3  2  1  0  0  0  0
  6  2  1  0  0  0  0
  8 14  1  0  0  0  0
  8 13  1  0  0  0  0
  9  8  2  0  0  0  0
 10  9  1  0  0  0  0
 10 11  2  0  0  0  0
 11 12  1  0  0  0  0
 12 13  2  0  0  0  0
 12 15  1  0  0  0  0
 16 17  1  0  0  0  0
 16  9  1  0  0  0  0
 18 16  1  0  0  0  0
 19  3  1  0  0  0  0
 20 19  1  0  0  0  0
 21 19  1  0  0  0  0
 22 28  1  0  0  0  0
 22 19  1  0  0  0  0
 23 22  2  0  0  0  0
 24 23  1  0  0  0  0
 25 23  1  0  0  0  0
 25 26  1  0  0  0  0
 26 27  1  0  0  0  0
 26 28  2  0  0  0  0
M  END
>  <minimizedAffinity>
-4.43197918

>  <minimizedRMSD>
0.740808487

$$$$
