
 OpenBabel03252509263D

 28 30  0  0  1  0  0  0  0  0999 V2000
   46.6620   35.1280   42.0050 C   0  0  1  0  0  0  0  0  0  0  0  0
   48.2170   35.0470   42.0460 C   0  0  0  0  0  0  0  0  0  0  0  0
   47.2490   34.0570   41.3150 C   0  0  2  0  0  0  0  0  0  0  0  0
   46.2880   36.0410   41.4980 H   0  0  0  0  0  0  0  0  0  0  0  0
   48.7030   34.6980   42.9550 H   0  0  0  0  0  0  0  0  0  0  0  0
   48.7200   35.7210   41.3430 H   0  0  0  0  0  0  0  0  0  0  0  0
   47.3210   33.0170   41.7620 H   0  0  0  0  0  0  0  0  0  0  0  0
   44.5960   35.4430   45.1250 C   0  0  0  0  0  0  0  0  0  0  0  0
   45.1240   35.7620   43.8320 C   0  0  0  0  0  0  0  0  0  0  0  0
   46.0900   34.9220   43.3870 C   0  0  0  0  0  0  0  0  0  0  0  0
   46.5280   33.8460   44.1280 N   0  0  0  0  0  0  0  0  0  0  0  0
   46.0070   33.5800   45.3390 C   0  0  0  0  0  0  0  0  0  0  0  0
   45.0380   34.3810   45.8370 N   0  0  0  0  0  0  0  0  0  0  0  0
   43.8160   36.1310   45.4680 H   0  0  0  0  0  0  0  0  0  0  0  0
   46.3690   32.7320   45.8960 H   0  0  0  0  0  0  0  0  0  0  0  0
   44.6940   36.8790   43.0970 N   0  0  0  0  0  0  0  0  0  0  0  0
   45.4310   37.5670   43.4170 H   0  0  0  0  0  0  0  0  0  0  0  0
   43.9030   37.0290   42.4310 H   0  0  0  0  0  0  0  0  0  0  0  0
   47.3200   34.0080   39.8100 C   0  0  0  0  0  0  0  0  0  0  0  0
   48.3030   33.6090   39.4870 H   0  0  0  0  0  0  0  0  0  0  0  0
   47.3100   35.0610   39.4640 H   0  0  0  0  0  0  0  0  0  0  0  0
   46.2080   33.1900   39.2290 C   0  0  0  0  0  0  0  0  0  0  0  0
   46.4360   32.2050   38.2710 C   0  0  0  0  0  0  0  0  0  0  0  0
   47.4470   31.9500   37.8640 H   0  0  0  0  0  0  0  0  0  0  0  0
   44.7290   31.5580   37.9490 S   0  0  0  0  0  0  0  0  0  0  0  0
   44.0110   32.7700   39.2030 C   0  0  0  0  0  0  0  0  0  0  0  0
   42.9460   32.8550   39.4590 H   0  0  0  0  0  0  0  0  0  0  0  0
   44.9370   33.3390   39.5810 N   0  0  0  0  0  0  0  0  0  0  0  0
  1  4  1  6  0  0  0
  1  2  1  0  0  0  0
  1 10  1  0  0  0  0
  2  5  1  0  0  0  0
  3  7  1  1  0  0  0
  3  1  1  0  0  0  0
  3  2  1  0  0  0  0
  6  2  1  0  0  0  0
  8 14  1  0  0  0  0
  8 13  1  0  0  0  0
  9  8  2  0  0  0  0
 10  9  1  0  0  0  0
 10 11  2  0  0  0  0
 11 12  1  0  0  0  0
 12 13  2  0  0  0  0
 12 15  1  0  0  0  0
 16 17  1  0  0  0  0
 16  9  1  0  0  0  0
 18 16  1  0  0  0  0
 19  3  1  0  0  0  0
 20 19  1  0  0  0  0
 21 19  1  0  0  0  0
 22 28  1  0  0  0  0
 22 19  1  0  0  0  0
 23 22  2  0  0  0  0
 24 23  1  0  0  0  0
 25 23  1  0  0  0  0
 25 26  1  0  0  0  0
 26 27  1  0  0  0  0
 26 28  2  0  0  0  0
M  END
>  <minimizedAffinity>
-4.47179794

>  <minimizedRMSD>
0.581394851

$$$$
