
 OpenBabel03242513253D

 43 46  0  0  1  0  0  0  0  0999 V2000
   37.4560   26.9150   42.8650 C   0  0  2  0  0  0  0  0  0  0  0  0
   38.6820   27.5060   43.5530 C   0  0  0  0  0  0  0  0  0  0  0  0
   39.5140   26.2300   43.6210 C   0  0  0  0  0  0  0  0  0  0  0  0
   39.3220   25.6320   42.4080 O   0  0  0  0  0  0  0  0  0  0  0  0
   38.1360   26.0520   41.8540 C   0  0  1  0  0  0  0  0  0  0  0  0
   36.9070   26.3750   43.6370 H   0  0  0  0  0  0  0  0  0  0  0  0
   38.3840   27.8620   44.5450 H   0  0  0  0  0  0  0  0  0  0  0  0
   39.1720   28.2700   42.9240 H   0  0  0  0  0  0  0  0  0  0  0  0
   40.5770   26.5210   43.8210 H   0  0  0  0  0  0  0  0  0  0  0  0
   39.1150   25.6200   44.4610 H   0  0  0  0  0  0  0  0  0  0  0  0
   38.3400   26.6160   40.9290 H   0  0  0  0  0  0  0  0  0  0  0  0
   37.3140   24.8640   41.4850 C   0  0  1  0  0  0  0  0  0  0  0  0
   36.6940   25.0020   40.1130 C   0  0  0  0  0  0  0  0  0  0  0  0
   36.9190   23.6420   39.5130 C   0  0  0  0  0  0  0  0  0  0  0  0
   37.2950   22.8170   40.5670 O   0  0  0  0  0  0  0  0  0  0  0  0
   38.1980   23.6360   41.2450 C   0  0  0  0  0  0  0  0  0  0  0  0
   36.5830   24.5660   42.2580 H   0  0  0  0  0  0  0  0  0  0  0  0
   35.5970   25.2080   40.2580 H   0  0  0  0  0  0  0  0  0  0  0  0
   37.1550   25.8160   39.5120 H   0  0  0  0  0  0  0  0  0  0  0  0
   37.8040   23.7200   38.8430 H   0  0  0  0  0  0  0  0  0  0  0  0
   36.0380   23.2610   38.9570 H   0  0  0  0  0  0  0  0  0  0  0  0
   38.9890   23.8640   40.4760 H   0  0  0  0  0  0  0  0  0  0  0  0
   38.5880   23.2190   42.1730 H   0  0  0  0  0  0  0  0  0  0  0  0
   36.5680   27.9560   42.2960 C   0  0  0  0  0  0  0  0  0  0  0  0
   36.0170   27.5390   41.4410 H   0  0  0  0  0  0  0  0  0  0  0  0
   35.8220   28.3050   43.0480 H   0  0  0  0  0  0  0  0  0  0  0  0
   36.6830   30.1820   41.3010 C   0  0  0  0  0  3  0  0  0  0  0  0
   37.3030   29.1450   41.7860 C   0  0  0  0  0  3  0  0  0  0  0  0
   37.4710   33.2980   39.5890 C   0  0  0  0  0  0  0  0  0  0  0  0
   38.8410   33.4800   39.9010 C   0  0  0  0  0  0  0  0  0  0  0  0
   39.4560   32.5210   40.6990 C   0  0  0  0  0  0  0  0  0  0  0  0
   38.7010   31.4620   41.1310 N   0  0  0  0  0  0  0  0  0  0  0  0
   37.4020   31.3250   40.8110 C   0  0  0  0  0  0  0  0  0  0  0  0
   36.7910   32.2260   40.0520 N   0  0  0  0  0  0  0  0  0  0  0  0
   37.0170   34.0590   38.9670 H   0  0  0  0  0  0  0  0  0  0  0  0
   39.3890   34.3160   39.5450 H   0  0  0  0  0  0  0  0  0  0  0  0
   40.8860   32.6230   41.0820 C   0  0  0  0  0  0  0  0  0  0  0  0
   41.4630   31.5920   41.8630 C   0  0  0  0  0  0  0  0  0  0  0  0
   41.0390   30.7330   42.2330 H   0  0  0  0  0  0  0  0  0  0  0  0
   43.2110   32.2140   42.0430 S   0  0  0  0  0  0  0  0  0  0  0  0
   42.8110   33.7590   41.0150 C   0  0  0  0  0  0  0  0  0  0  0  0
   43.4500   34.6330   40.7030 H   0  0  0  0  0  0  0  0  0  0  0  0
   41.6880   33.6230   40.7470 N   0  0  0  0  0  0  0  0  0  0  0  0
  1  2  1  0  0  0  0
  1  6  1  1  0  0  0
  2  3  1  0  0  0  0
  2  7  1  0  0  0  0
  3  9  1  0  0  0  0
  3 10  1  0  0  0  0
  4  3  1  0  0  0  0
  5 11  1  6  0  0  0
  5  4  1  0  0  0  0
  5  1  1  0  0  0  0
  8  2  1  0  0  0  0
 12  5  1  0  0  0  0
 12 17  1  1  0  0  0
 13 18  1  0  0  0  0
 13 12  1  0  0  0  0
 14 13  1  0  0  0  0
 14 15  1  0  0  0  0
 15 16  1  0  0  0  0
 16 12  1  0  0  0  0
 16 23  1  0  0  0  0
 19 13  1  0  0  0  0
 20 14  1  0  0  0  0
 21 14  1  0  0  0  0
 22 16  1  0  0  0  0
 24  1  1  0  0  0  0
 24 26  1  0  0  0  0
 25 24  1  0  0  0  0
 27 28  2  0  0  0  0
 28 24  1  0  0  0  0
 29 30  2  0  0  0  0
 29 34  1  0  0  0  0
 30 31  1  0  0  0  0
 31 37  1  0  0  0  0
 31 32  2  0  0  0  0
 33 32  1  0  0  0  0
 33 27  1  0  0  0  0
 34 33  2  0  0  0  0
 35 29  1  0  0  0  0
 36 30  1  0  0  0  0
 37 38  2  0  0  0  0
 38 40  1  0  0  0  0
 38 39  1  0  0  0  0
 41 40  1  0  0  0  0
 42 41  1  0  0  0  0
 43 41  2  0  0  0  0
 43 37  1  0  0  0  0
M  END
>  <minimizedAffinity>
-5.55367231

$$$$

 OpenBabel03242513253D

 43 46  0  0  1  0  0  0  0  0999 V2000
   38.9660   26.8480   43.5110 C   0  0  2  0  0  0  0  0  0  0  0  0
   40.3750   27.4300   43.5370 C   0  0  0  0  0  0  0  0  0  0  0  0
   41.1050   26.2230   42.9590 C   0  0  0  0  0  0  0  0  0  0  0  0
   40.2950   25.7840   41.9510 O   0  0  0  0  0  0  0  0  0  0  0  0
   38.9990   26.1860   42.1740 C   0  0  1  0  0  0  0  0  0  0  0  0
   38.9030   26.1690   44.3620 H   0  0  0  0  0  0  0  0  0  0  0  0
   40.6510   27.6230   44.5790 H   0  0  0  0  0  0  0  0  0  0  0  0
   40.4650   28.3070   42.8730 H   0  0  0  0  0  0  0  0  0  0  0  0
   42.1160   26.5620   42.6150 H   0  0  0  0  0  0  0  0  0  0  0  0
   41.2060   25.4750   43.7770 H   0  0  0  0  0  0  0  0  0  0  0  0
   38.6880   26.8840   41.3810 H   0  0  0  0  0  0  0  0  0  0  0  0
   38.0960   25.0010   42.1110 C   0  0  1  0  0  0  0  0  0  0  0  0
   36.8760   25.2580   41.2550 C   0  0  0  0  0  0  0  0  0  0  0  0
   36.7650   23.9900   40.4530 C   0  0  0  0  0  0  0  0  0  0  0  0
   37.6110   23.0740   41.0680 O   0  0  0  0  0  0  0  0  0  0  0  0
   38.7360   23.8630   41.3110 C   0  0  0  0  0  0  0  0  0  0  0  0
   37.8450   24.5740   43.0990 H   0  0  0  0  0  0  0  0  0  0  0  0
   35.9980   25.3810   41.9480 H   0  0  0  0  0  0  0  0  0  0  0  0
   36.9820   26.1610   40.6150 H   0  0  0  0  0  0  0  0  0  0  0  0
   37.1990   24.1970   39.4510 H   0  0  0  0  0  0  0  0  0  0  0  0
   35.7220   23.6240   40.3620 H   0  0  0  0  0  0  0  0  0  0  0  0
   39.0410   24.2230   40.2870 H   0  0  0  0  0  0  0  0  0  0  0  0
   39.5330   23.3660   41.8620 H   0  0  0  0  0  0  0  0  0  0  0  0
   37.9210   27.8880   43.6630 C   0  0  0  0  0  0  0  0  0  0  0  0
   36.9750   27.5200   43.2400 H   0  0  0  0  0  0  0  0  0  0  0  0
   37.7450   28.1300   44.7370 H   0  0  0  0  0  0  0  0  0  0  0  0
   37.5370   29.5660   41.9320 C   0  0  0  0  0  3  0  0  0  0  0  0
   38.2390   29.1540   42.9480 C   0  0  0  0  0  3  0  0  0  0  0  0
   37.2090   32.6040   39.9510 C   0  0  0  0  0  0  0  0  0  0  0  0
   38.5290   33.1160   39.9550 C   0  0  0  0  0  0  0  0  0  0  0  0
   39.5000   32.3970   40.6460 C   0  0  0  0  0  0  0  0  0  0  0  0
   39.1190   31.2430   41.2770 N   0  0  0  0  0  0  0  0  0  0  0  0
   37.8530   30.7890   41.2480 C   0  0  0  0  0  0  0  0  0  0  0  0
   36.9080   31.4560   40.5960 N   0  0  0  0  0  0  0  0  0  0  0  0
   36.4730   33.1820   39.4060 H   0  0  0  0  0  0  0  0  0  0  0  0
   38.7820   34.0160   39.4530 H   0  0  0  0  0  0  0  0  0  0  0  0
   40.9110   32.8510   40.7100 C   0  0  0  0  0  0  0  0  0  0  0  0
   41.3450   33.8720   39.8290 C   0  0  0  0  0  0  0  0  0  0  0  0
   40.8210   34.3850   39.1090 H   0  0  0  0  0  0  0  0  0  0  0  0
   43.1330   34.0390   40.3260 S   0  0  0  0  0  0  0  0  0  0  0  0
   42.9380   32.6830   41.6400 C   0  0  0  0  0  0  0  0  0  0  0  0
   43.6740   32.2390   42.3680 H   0  0  0  0  0  0  0  0  0  0  0  0
   41.8230   32.3700   41.5420 N   0  0  0  0  0  0  0  0  0  0  0  0
  1  2  1  0  0  0  0
  1 24  1  0  0  0  0
  1  6  1  1  0  0  0
  2  7  1  0  0  0  0
  3  2  1  0  0  0  0
  3 10  1  0  0  0  0
  4  5  1  0  0  0  0
  4  3  1  0  0  0  0
  5 11  1  6  0  0  0
  5  1  1  0  0  0  0
  8  2  1  0  0  0  0
  9  3  1  0  0  0  0
 12  5  1  0  0  0  0
 12 17  1  1  0  0  0
 13 18  1  0  0  0  0
 13 12  1  0  0  0  0
 14 15  1  0  0  0  0
 14 13  1  0  0  0  0
 15 16  1  0  0  0  0
 16 23  1  0  0  0  0
 16 12  1  0  0  0  0
 19 13  1  0  0  0  0
 20 14  1  0  0  0  0
 21 14  1  0  0  0  0
 22 16  1  0  0  0  0
 24 26  1  0  0  0  0
 25 24  1  0  0  0  0
 27 28  2  0  0  0  0
 28 24  1  0  0  0  0
 29 30  2  0  0  0  0
 29 34  1  0  0  0  0
 30 31  1  0  0  0  0
 31 37  1  0  0  0  0
 31 32  2  0  0  0  0
 33 32  1  0  0  0  0
 33 27  1  0  0  0  0
 34 33  2  0  0  0  0
 35 29  1  0  0  0  0
 36 30  1  0  0  0  0
 37 43  1  0  0  0  0
 38 40  1  0  0  0  0
 38 37  2  0  0  0  0
 39 38  1  0  0  0  0
 40 41  1  0  0  0  0
 41 42  1  0  0  0  0
 43 41  2  0  0  0  0
M  END
>  <minimizedAffinity>
-5.50797462

$$$$

 OpenBabel03242513253D

 43 46  0  0  1  0  0  0  0  0999 V2000
   37.5210   26.7700   43.0400 C   0  0  2  0  0  0  0  0  0  0  0  0
   38.7530   27.4250   43.6530 C   0  0  0  0  0  0  0  0  0  0  0  0
   39.6710   26.2090   43.6150 C   0  0  0  0  0  0  0  0  0  0  0  0
   39.4270   25.6340   42.4010 O   0  0  0  0  0  0  0  0  0  0  0  0
   38.1770   25.9860   41.9510 C   0  0  1  0  0  0  0  0  0  0  0  0
   37.0690   26.1720   43.8320 H   0  0  0  0  0  0  0  0  0  0  0  0
   38.5090   27.7310   44.6770 H   0  0  0  0  0  0  0  0  0  0  0  0
   39.1400   28.2390   43.0160 H   0  0  0  0  0  0  0  0  0  0  0  0
   40.7250   26.5670   43.7450 H   0  0  0  0  0  0  0  0  0  0  0  0
   39.3800   25.5490   44.4620 H   0  0  0  0  0  0  0  0  0  0  0  0
   38.2700   26.5890   41.0330 H   0  0  0  0  0  0  0  0  0  0  0  0
   37.4110   24.7540   41.6050 C   0  0  1  0  0  0  0  0  0  0  0  0
   36.6720   24.8920   40.2930 C   0  0  0  0  0  0  0  0  0  0  0  0
   36.9400   23.5700   39.6260 C   0  0  0  0  0  0  0  0  0  0  0  0
   37.4570   22.7420   40.6160 O   0  0  0  0  0  0  0  0  0  0  0  0
   38.3540   23.6020   41.2500 C   0  0  0  0  0  0  0  0  0  0  0  0
   36.7680   24.3810   42.4230 H   0  0  0  0  0  0  0  0  0  0  0  0
   35.5800   25.0140   40.5320 H   0  0  0  0  0  0  0  0  0  0  0  0
   37.0260   25.7550   39.6880 H   0  0  0  0  0  0  0  0  0  0  0  0
   37.7590   23.7330   38.8920 H   0  0  0  0  0  0  0  0  0  0  0  0
   36.0450   23.1450   39.1290 H   0  0  0  0  0  0  0  0  0  0  0  0
   39.0620   23.9090   40.4300 H   0  0  0  0  0  0  0  0  0  0  0  0
   38.8460   23.1840   42.1280 H   0  0  0  0  0  0  0  0  0  0  0  0
   36.5230   27.7630   42.5740 C   0  0  0  0  0  0  0  0  0  0  0  0
   35.5960   27.2440   42.2900 H   0  0  0  0  0  0  0  0  0  0  0  0
   36.2750   28.4930   43.3800 H   0  0  0  0  0  0  0  0  0  0  0  0
   36.1950   28.6800   40.3360 C   0  0  0  0  0  3  0  0  0  0  0  0
   36.9640   28.5260   41.3750 C   0  0  0  0  0  3  0  0  0  0  0  0
   36.4640   29.9190   36.9220 C   0  0  0  0  0  0  0  0  0  0  0  0
   37.5200   30.8580   37.0200 C   0  0  0  0  0  0  0  0  0  0  0  0
   38.1110   31.0400   38.2660 C   0  0  0  0  0  0  0  0  0  0  0  0
   37.6360   30.3020   39.3180 N   0  0  0  0  0  0  0  0  0  0  0  0
   36.6300   29.4180   39.1830 C   0  0  0  0  0  0  0  0  0  0  0  0
   36.0500   29.2260   38.0060 N   0  0  0  0  0  0  0  0  0  0  0  0
   36.0220   29.7960   35.9410 H   0  0  0  0  0  0  0  0  0  0  0  0
   37.8580   31.4100   36.1790 H   0  0  0  0  0  0  0  0  0  0  0  0
   39.2230   32.0000   38.4710 C   0  0  0  0  0  0  0  0  0  0  0  0
   40.3030   32.0070   37.5550 C   0  0  0  0  0  0  0  0  0  0  0  0
   40.4600   31.4280   36.7210 H   0  0  0  0  0  0  0  0  0  0  0  0
   41.3720   33.3570   38.2690 S   0  0  0  0  0  0  0  0  0  0  0  0
   40.1340   33.6480   39.6790 C   0  0  0  0  0  0  0  0  0  0  0  0
   40.1440   34.3710   40.5430 H   0  0  0  0  0  0  0  0  0  0  0  0
   39.2940   32.8730   39.4650 N   0  0  0  0  0  0  0  0  0  0  0  0
  1  2  1  0  0  0  0
  1  6  1  1  0  0  0
  2  7  1  0  0  0  0
  3  2  1  0  0  0  0
  3  9  1  0  0  0  0
  3 10  1  0  0  0  0
  4  3  1  0  0  0  0
  5 11  1  6  0  0  0
  5  4  1  0  0  0  0
  5  1  1  0  0  0  0
  8  2  1  0  0  0  0
 12  5  1  0  0  0  0
 12 17  1  1  0  0  0
 13 18  1  0  0  0  0
 13 12  1  0  0  0  0
 14 13  1  0  0  0  0
 14 15  1  0  0  0  0
 15 16  1  0  0  0  0
 16 12  1  0  0  0  0
 16 23  1  0  0  0  0
 19 13  1  0  0  0  0
 20 14  1  0  0  0  0
 21 14  1  0  0  0  0
 22 16  1  0  0  0  0
 24  1  1  0  0  0  0
 24 26  1  0  0  0  0
 25 24  1  0  0  0  0
 27 28  2  0  0  0  0
 28 24  1  0  0  0  0
 29 30  2  0  0  0  0
 29 34  1  0  0  0  0
 30 31  1  0  0  0  0
 31 37  1  0  0  0  0
 31 32  2  0  0  0  0
 33 32  1  0  0  0  0
 33 27  1  0  0  0  0
 34 33  2  0  0  0  0
 35 29  1  0  0  0  0
 36 30  1  0  0  0  0
 37 43  1  0  0  0  0
 38 40  1  0  0  0  0
 38 37  2  0  0  0  0
 39 38  1  0  0  0  0
 40 41  1  0  0  0  0
 41 42  1  0  0  0  0
 43 41  2  0  0  0  0
M  END
>  <minimizedAffinity>
-5.41554928

$$$$

 OpenBabel03242513253D

 43 46  0  0  1  0  0  0  0  0999 V2000
   38.9840   26.6920   43.5510 C   0  0  2  0  0  0  0  0  0  0  0  0
   40.3930   27.2710   43.6090 C   0  0  0  0  0  0  0  0  0  0  0  0
   41.1350   26.0640   43.0480 C   0  0  0  0  0  0  0  0  0  0  0  0
   40.3480   25.6260   42.0210 O   0  0  0  0  0  0  0  0  0  0  0  0
   39.0480   26.0290   42.2140 C   0  0  1  0  0  0  0  0  0  0  0  0
   38.9010   26.0120   44.3990 H   0  0  0  0  0  0  0  0  0  0  0  0
   40.6450   27.4650   44.6580 H   0  0  0  0  0  0  0  0  0  0  0  0
   40.4990   28.1490   42.9470 H   0  0  0  0  0  0  0  0  0  0  0  0
   42.1540   26.4020   42.7270 H   0  0  0  0  0  0  0  0  0  0  0  0
   41.2160   25.3160   43.8680 H   0  0  0  0  0  0  0  0  0  0  0  0
   38.7550   26.7290   41.4140 H   0  0  0  0  0  0  0  0  0  0  0  0
   38.1450   24.8450   42.1300 C   0  0  1  0  0  0  0  0  0  0  0  0
   36.8910   25.1390   41.3370 C   0  0  0  0  0  0  0  0  0  0  0  0
   36.7500   23.9110   40.4800 C   0  0  0  0  0  0  0  0  0  0  0  0
   37.6220   22.9700   41.0160 O   0  0  0  0  0  0  0  0  0  0  0  0
   38.7550   23.7500   41.2510 C   0  0  0  0  0  0  0  0  0  0  0  0
   37.9340   24.3710   43.1050 H   0  0  0  0  0  0  0  0  0  0  0  0
   36.0410   25.2250   42.0690 H   0  0  0  0  0  0  0  0  0  0  0  0
   36.9700   26.0720   40.7370 H   0  0  0  0  0  0  0  0  0  0  0  0
   37.1440   24.1670   39.4720 H   0  0  0  0  0  0  0  0  0  0  0  0
   35.7050   23.5460   40.4120 H   0  0  0  0  0  0  0  0  0  0  0  0
   39.0180   24.1600   40.2350 H   0  0  0  0  0  0  0  0  0  0  0  0
   39.5740   23.2300   41.7460 H   0  0  0  0  0  0  0  0  0  0  0  0
   37.9370   27.7330   43.6780 C   0  0  0  0  0  0  0  0  0  0  0  0
   36.9740   27.2560   43.9110 H   0  0  0  0  0  0  0  0  0  0  0  0
   38.1750   28.4460   44.5020 H   0  0  0  0  0  0  0  0  0  0  0  0
   37.9950   29.7900   42.3660 C   0  0  0  0  0  3  0  0  0  0  0  0
   37.7290   28.5170   42.4310 C   0  0  0  0  0  3  0  0  0  0  0  0
   38.0000   32.5010   39.9350 C   0  0  0  0  0  0  0  0  0  0  0  0
   37.3590   31.9120   38.8180 C   0  0  0  0  0  0  0  0  0  0  0  0
   36.9430   30.5900   38.9340 C   0  0  0  0  0  0  0  0  0  0  0  0
   37.1790   29.9420   40.1180 N   0  0  0  0  0  0  0  0  0  0  0  0
   37.7910   30.5380   41.1570 C   0  0  0  0  0  0  0  0  0  0  0  0
   38.1970   31.7990   41.0720 N   0  0  0  0  0  0  0  0  0  0  0  0
   38.3130   33.5320   39.8180 H   0  0  0  0  0  0  0  0  0  0  0  0
   37.1960   32.4500   37.9180 H   0  0  0  0  0  0  0  0  0  0  0  0
   36.2630   29.8830   37.8200 C   0  0  0  0  0  0  0  0  0  0  0  0
   35.1230   29.0920   38.1030 C   0  0  0  0  0  0  0  0  0  0  0  0
   34.6540   28.9110   38.9990 H   0  0  0  0  0  0  0  0  0  0  0  0
   34.6930   28.4610   36.4020 S   0  0  0  0  0  0  0  0  0  0  0  0
   36.1550   29.4020   35.6390 C   0  0  0  0  0  0  0  0  0  0  0  0
   36.5210   29.4760   34.5760 H   0  0  0  0  0  0  0  0  0  0  0  0
   36.6430   29.9300   36.5520 N   0  0  0  0  0  0  0  0  0  0  0  0
  1  2  1  0  0  0  0
  1 24  1  0  0  0  0
  1  6  1  1  0  0  0
  2  7  1  0  0  0  0
  3  2  1  0  0  0  0
  3 10  1  0  0  0  0
  4  5  1  0  0  0  0
  4  3  1  0  0  0  0
  5 11  1  6  0  0  0
  5  1  1  0  0  0  0
  8  2  1  0  0  0  0
  9  3  1  0  0  0  0
 12  5  1  0  0  0  0
 12 17  1  1  0  0  0
 13 18  1  0  0  0  0
 13 12  1  0  0  0  0
 14 15  1  0  0  0  0
 14 13  1  0  0  0  0
 15 16  1  0  0  0  0
 16 23  1  0  0  0  0
 16 12  1  0  0  0  0
 19 13  1  0  0  0  0
 20 14  1  0  0  0  0
 21 14  1  0  0  0  0
 22 16  1  0  0  0  0
 24 25  1  0  0  0  0
 24 26  1  0  0  0  0
 27 28  2  0  0  0  0
 28 24  1  0  0  0  0
 29 34  1  0  0  0  0
 30 31  1  0  0  0  0
 30 29  2  0  0  0  0
 31 32  2  0  0  0  0
 32 33  1  0  0  0  0
 33 27  1  0  0  0  0
 34 33  2  0  0  0  0
 35 29  1  0  0  0  0
 36 30  1  0  0  0  0
 37 38  2  0  0  0  0
 37 31  1  0  0  0  0
 38 39  1  0  0  0  0
 40 38  1  0  0  0  0
 41 40  1  0  0  0  0
 41 43  2  0  0  0  0
 42 41  1  0  0  0  0
 43 37  1  0  0  0  0
M  END
>  <minimizedAffinity>
-5.32775831

$$$$

 OpenBabel03242513253D

 43 46  0  0  1  0  0  0  0  0999 V2000
   38.7350   31.4820   40.9880 C   0  0  2  0  0  0  0  0  0  0  0  0
   38.8930   32.9990   40.9580 C   0  0  0  0  0  0  0  0  0  0  0  0
   38.0300   33.2690   39.7310 C   0  0  0  0  0  0  0  0  0  0  0  0
   36.9510   32.4470   39.8840 O   0  0  0  0  0  0  0  0  0  0  0  0
   37.2750   31.3830   40.6920 C   0  0  1  0  0  0  0  0  0  0  0  0
   39.3920   31.0940   40.2090 H   0  0  0  0  0  0  0  0  0  0  0  0
   39.9490   33.2330   40.7840 H   0  0  0  0  0  0  0  0  0  0  0  0
   38.4650   33.4700   41.8600 H   0  0  0  0  0  0  0  0  0  0  0  0
   37.7720   34.3600   39.7230 H   0  0  0  0  0  0  0  0  0  0  0  0
   38.6370   33.0090   38.8360 H   0  0  0  0  0  0  0  0  0  0  0  0
   36.6810   31.4280   41.6190 H   0  0  0  0  0  0  0  0  0  0  0  0
   36.9280   30.1100   39.9960 C   0  0  1  0  0  0  0  0  0  0  0  0
   35.7850   29.3850   40.6690 C   0  0  0  0  0  0  0  0  0  0  0  0
   34.9380   28.9540   39.5030 C   0  0  0  0  0  0  0  0  0  0  0  0
   35.7260   29.1350   38.3720 O   0  0  0  0  0  0  0  0  0  0  0  0
   36.2910   30.3850   38.6310 C   0  0  0  0  0  0  0  0  0  0  0  0
   37.7960   29.4540   39.8010 H   0  0  0  0  0  0  0  0  0  0  0  0
   36.2180   28.4980   41.2090 H   0  0  0  0  0  0  0  0  0  0  0  0
   35.2290   30.0290   41.3860 H   0  0  0  0  0  0  0  0  0  0  0  0
   34.0980   29.6780   39.4220 H   0  0  0  0  0  0  0  0  0  0  0  0
   34.5550   27.9180   39.6040 H   0  0  0  0  0  0  0  0  0  0  0  0
   35.4020   31.0670   38.7410 H   0  0  0  0  0  0  0  0  0  0  0  0
   37.0190   30.7190   37.8940 H   0  0  0  0  0  0  0  0  0  0  0  0
   39.1460   30.8950   42.2860 C   0  0  0  0  0  0  0  0  0  0  0  0
   40.0990   31.3430   42.6040 H   0  0  0  0  0  0  0  0  0  0  0  0
   38.3890   31.0990   43.0790 H   0  0  0  0  0  0  0  0  0  0  0  0
   38.6710   28.5920   42.9390 C   0  0  0  0  0  3  0  0  0  0  0  0
   39.3700   29.4250   42.2240 C   0  0  0  0  0  3  0  0  0  0  0  0
   39.9850   25.2630   43.6120 C   0  0  0  0  0  0  0  0  0  0  0  0
   39.2780   24.4610   42.6830 C   0  0  0  0  0  0  0  0  0  0  0  0
   38.3620   25.0940   41.8480 C   0  0  0  0  0  0  0  0  0  0  0  0
   38.2020   26.4480   41.9760 N   0  0  0  0  0  0  0  0  0  0  0  0
   38.8950   27.1740   42.8720 C   0  0  0  0  0  0  0  0  0  0  0  0
   39.7740   26.5960   43.6800 N   0  0  0  0  0  0  0  0  0  0  0  0
   40.6920   24.7460   44.2490 H   0  0  0  0  0  0  0  0  0  0  0  0
   39.4330   23.4140   42.6160 H   0  0  0  0  0  0  0  0  0  0  0  0
   37.5720   24.3410   40.8430 C   0  0  0  0  0  0  0  0  0  0  0  0
   37.8270   22.9590   40.6620 C   0  0  0  0  0  0  0  0  0  0  0  0
   38.5050   22.3500   41.1350 H   0  0  0  0  0  0  0  0  0  0  0  0
   36.5960   22.5380   39.3280 S   0  0  0  0  0  0  0  0  0  0  0  0
   35.9740   24.3310   39.2780 C   0  0  0  0  0  0  0  0  0  0  0  0
   35.1790   24.8270   38.6530 H   0  0  0  0  0  0  0  0  0  0  0  0
   36.6250   24.8660   40.0790 N   0  0  0  0  0  0  0  0  0  0  0  0
  1  6  1  6  0  0  0
  1 24  1  0  0  0  0
  2  1  1  0  0  0  0
  2  8  1  0  0  0  0
  3  4  1  0  0  0  0
  3  2  1  0  0  0  0
  4  5  1  0  0  0  0
  5  1  1  0  0  0  0
  5 11  1  1  0  0  0
  7  2  1  0  0  0  0
  9  3  1  0  0  0  0
 10  3  1  0  0  0  0
 12 17  1  6  0  0  0
 12 13  1  0  0  0  0
 12  5  1  0  0  0  0
 13 18  1  0  0  0  0
 13 19  1  0  0  0  0
 14 21  1  0  0  0  0
 14 13  1  0  0  0  0
 15 16  1  0  0  0  0
 15 14  1  0  0  0  0
 16 22  1  0  0  0  0
 16 12  1  0  0  0  0
 20 14  1  0  0  0  0
 23 16  1  0  0  0  0
 24 25  1  0  0  0  0
 24 26  1  0  0  0  0
 28 24  1  0  0  0  0
 28 27  2  0  0  0  0
 29 34  1  0  0  0  0
 29 35  1  0  0  0  0
 30 29  2  0  0  0  0
 31 32  2  0  0  0  0
 31 30  1  0  0  0  0
 32 33  1  0  0  0  0
 33 27  1  0  0  0  0
 33 34  2  0  0  0  0
 36 30  1  0  0  0  0
 37 31  1  0  0  0  0
 38 37  2  0  0  0  0
 38 39  1  0  0  0  0
 40 38  1  0  0  0  0
 41 40  1  0  0  0  0
 41 43  2  0  0  0  0
 42 41  1  0  0  0  0
 43 37  1  0  0  0  0
M  END
>  <minimizedAffinity>
-5.24710035

$$$$

 OpenBabel03242513253D

 43 46  0  0  1  0  0  0  0  0999 V2000
   37.7620   25.9780   42.0910 C   0  0  2  0  0  0  0  0  0  0  0  0
   36.8540   24.7620   41.9470 C   0  0  0  0  0  0  0  0  0  0  0  0
   37.9250   23.7530   41.5500 C   0  0  0  0  0  0  0  0  0  0  0  0
   38.9820   24.0360   42.3670 O   0  0  0  0  0  0  0  0  0  0  0  0
   38.9140   25.3410   42.7950 C   0  0  1  0  0  0  0  0  0  0  0  0
   37.9730   26.3200   41.0770 H   0  0  0  0  0  0  0  0  0  0  0  0
   36.1430   24.9550   41.1360 H   0  0  0  0  0  0  0  0  0  0  0  0
   36.3840   24.4890   42.9080 H   0  0  0  0  0  0  0  0  0  0  0  0
   37.5030   22.7240   41.6940 H   0  0  0  0  0  0  0  0  0  0  0  0
   38.1610   23.9270   40.4770 H   0  0  0  0  0  0  0  0  0  0  0  0
   38.7690   25.3640   43.8880 H   0  0  0  0  0  0  0  0  0  0  0  0
   40.2040   26.0270   42.4980 C   0  0  1  0  0  0  0  0  0  0  0  0
   41.3890   25.0970   42.6290 C   0  0  0  0  0  0  0  0  0  0  0  0
   42.2090   25.4380   41.4160 C   0  0  0  0  0  0  0  0  0  0  0  0
   41.6830   26.6250   40.9200 O   0  0  0  0  0  0  0  0  0  0  0  0
   40.3130   26.3740   41.0110 C   0  0  0  0  0  0  0  0  0  0  0  0
   40.3430   26.9780   43.0440 H   0  0  0  0  0  0  0  0  0  0  0  0
   41.9300   25.3700   43.5770 H   0  0  0  0  0  0  0  0  0  0  0  0
   41.0940   24.0250   42.6580 H   0  0  0  0  0  0  0  0  0  0  0  0
   42.0030   24.6580   40.6500 H   0  0  0  0  0  0  0  0  0  0  0  0
   43.2960   25.5010   41.6290 H   0  0  0  0  0  0  0  0  0  0  0  0
   40.1630   25.4540   40.3790 H   0  0  0  0  0  0  0  0  0  0  0  0
   39.6750   27.2120   40.7340 H   0  0  0  0  0  0  0  0  0  0  0  0
   37.1150   27.0840   42.8350 C   0  0  0  0  0  0  0  0  0  0  0  0
   36.0650   26.8260   43.0340 H   0  0  0  0  0  0  0  0  0  0  0  0
   37.6170   27.2590   43.8150 H   0  0  0  0  0  0  0  0  0  0  0  0
   38.1000   29.2000   42.1220 C   0  0  0  0  0  3  0  0  0  0  0  0
   37.0980   28.3700   42.0850 C   0  0  0  0  0  3  0  0  0  0  0  0
   36.9020   32.1140   40.2960 C   0  0  0  0  0  0  0  0  0  0  0  0
   38.1030   32.8060   40.0020 C   0  0  0  0  0  0  0  0  0  0  0  0
   39.2970   32.2470   40.4450 C   0  0  0  0  0  0  0  0  0  0  0  0
   39.2370   31.0660   41.1370 N   0  0  0  0  0  0  0  0  0  0  0  0
   38.0750   30.4390   41.3950 C   0  0  0  0  0  0  0  0  0  0  0  0
   36.9220   30.9510   40.9830 N   0  0  0  0  0  0  0  0  0  0  0  0
   35.9870   32.5710   39.9390 H   0  0  0  0  0  0  0  0  0  0  0  0
   38.1040   33.7200   39.4630 H   0  0  0  0  0  0  0  0  0  0  0  0
   40.6060   32.8950   40.1880 C   0  0  0  0  0  0  0  0  0  0  0  0
   40.8540   33.4620   38.9140 C   0  0  0  0  0  0  0  0  0  0  0  0
   40.2480   33.5060   38.0860 H   0  0  0  0  0  0  0  0  0  0  0  0
   42.5860   34.1130   39.1410 S   0  0  0  0  0  0  0  0  0  0  0  0
   42.6320   33.4830   40.9320 C   0  0  0  0  0  0  0  0  0  0  0  0
   43.4350   33.5370   41.7200 H   0  0  0  0  0  0  0  0  0  0  0  0
   41.5890   32.9900   41.0720 N   0  0  0  0  0  0  0  0  0  0  0  0
  1  6  1  6  0  0  0
  1  5  1  0  0  0  0
  1 24  1  0  0  0  0
  2  1  1  0  0  0  0
  2  8  1  0  0  0  0
  3  9  1  0  0  0  0
  3  2  1  0  0  0  0
  3  4  1  0  0  0  0
  4  5  1  0  0  0  0
  5 11  1  1  0  0  0
  7  2  1  0  0  0  0
 10  3  1  0  0  0  0
 12 13  1  0  0  0  0
 12  5  1  0  0  0  0
 12 17  1  1  0  0  0
 13 19  1  0  0  0  0
 13 18  1  0  0  0  0
 14 21  1  0  0  0  0
 14 13  1  0  0  0  0
 15 16  1  0  0  0  0
 15 14  1  0  0  0  0
 16 12  1  0  0  0  0
 20 14  1  0  0  0  0
 22 16  1  0  0  0  0
 23 16  1  0  0  0  0
 24 25  1  0  0  0  0
 24 26  1  0  0  0  0
 28 27  2  0  0  0  0
 28 24  1  0  0  0  0
 29 34  1  0  0  0  0
 30 29  2  0  0  0  0
 30 31  1  0  0  0  0
 31 32  2  0  0  0  0
 32 33  1  0  0  0  0
 33 27  1  0  0  0  0
 34 33  2  0  0  0  0
 35 29  1  0  0  0  0
 36 30  1  0  0  0  0
 37 31  1  0  0  0  0
 37 43  1  0  0  0  0
 38 40  1  0  0  0  0
 38 37  2  0  0  0  0
 39 38  1  0  0  0  0
 40 41  1  0  0  0  0
 41 43  2  0  0  0  0
 41 42  1  0  0  0  0
M  END
>  <minimizedAffinity>
-5.19628763

$$$$

 OpenBabel03242513253D

 43 46  0  0  1  0  0  0  0  0999 V2000
   35.9070   29.7230   38.3600 C   0  0  2  0  0  0  0  0  0  0  0  0
   35.4440   28.8710   37.1830 C   0  0  0  0  0  0  0  0  0  0  0  0
   36.3510   29.4800   36.1210 C   0  0  0  0  0  0  0  0  0  0  0  0
   37.5550   29.6320   36.7460 O   0  0  0  0  0  0  0  0  0  0  0  0
   37.3780   29.7110   38.1060 C   0  0  1  0  0  0  0  0  0  0  0  0
   35.4260   30.6940   38.2400 H   0  0  0  0  0  0  0  0  0  0  0  0
   34.3850   29.0830   36.9980 H   0  0  0  0  0  0  0  0  0  0  0  0
   35.6720   27.8030   37.3400 H   0  0  0  0  0  0  0  0  0  0  0  0
   36.3770   28.7810   35.2460 H   0  0  0  0  0  0  0  0  0  0  0  0
   35.9030   30.4540   35.8230 H   0  0  0  0  0  0  0  0  0  0  0  0
   37.8540   28.8430   38.5920 H   0  0  0  0  0  0  0  0  0  0  0  0
   38.0480   30.9390   38.6220 C   0  0  1  0  0  0  0  0  0  0  0  0
   37.0540   31.9780   39.0890 C   0  0  0  0  0  0  0  0  0  0  0  0
   37.6580   32.4510   40.3830 C   0  0  0  0  0  0  0  0  0  0  0  0
   38.9600   31.9650   40.3970 O   0  0  0  0  0  0  0  0  0  0  0  0
   38.7680   30.6590   39.9450 C   0  0  0  0  0  0  0  0  0  0  0  0
   38.8130   31.3530   37.9410 H   0  0  0  0  0  0  0  0  0  0  0  0
   37.0390   32.8000   38.3210 H   0  0  0  0  0  0  0  0  0  0  0  0
   36.0300   31.5650   39.2210 H   0  0  0  0  0  0  0  0  0  0  0  0
   37.1190   31.9320   41.2060 H   0  0  0  0  0  0  0  0  0  0  0  0
   37.6040   33.5520   40.5110 H   0  0  0  0  0  0  0  0  0  0  0  0
   38.0560   30.2140   40.6950 H   0  0  0  0  0  0  0  0  0  0  0  0
   39.6830   30.0840   39.8050 H   0  0  0  0  0  0  0  0  0  0  0  0
   35.4980   29.1550   39.6670 C   0  0  0  0  0  0  0  0  0  0  0  0
   35.6100   29.9200   40.4490 H   0  0  0  0  0  0  0  0  0  0  0  0
   34.4300   28.8340   39.6510 H   0  0  0  0  0  0  0  0  0  0  0  0
   36.6610   27.8040   41.3340 C   0  0  0  0  0  3  0  0  0  0  0  0
   36.3260   27.9930   40.0910 C   0  0  0  0  0  3  0  0  0  0  0  0
   37.7030   24.3990   42.0990 C   0  0  0  0  0  0  0  0  0  0  0  0
   39.0440   24.5770   42.5190 C   0  0  0  0  0  0  0  0  0  0  0  0
   39.5540   25.8710   42.5250 C   0  0  0  0  0  0  0  0  0  0  0  0
   38.7300   26.8890   42.1250 N   0  0  0  0  0  0  0  0  0  0  0  0
   37.4600   26.6790   41.7340 C   0  0  0  0  0  0  0  0  0  0  0  0
   36.9490   25.4550   41.7200 N   0  0  0  0  0  0  0  0  0  0  0  0
   37.3300   23.3820   42.1050 H   0  0  0  0  0  0  0  0  0  0  0  0
   39.6480   23.7580   42.8210 H   0  0  0  0  0  0  0  0  0  0  0  0
   40.9470   26.1600   42.9460 C   0  0  0  0  0  0  0  0  0  0  0  0
   41.3220   27.5010   43.2050 C   0  0  0  0  0  0  0  0  0  0  0  0
   40.7640   28.3610   43.1500 H   0  0  0  0  0  0  0  0  0  0  0  0
   43.1120   27.2880   43.6790 S   0  0  0  0  0  0  0  0  0  0  0  0
   42.9970   25.4090   43.4300 C   0  0  0  0  0  0  0  0  0  0  0  0
   43.7650   24.5930   43.5490 H   0  0  0  0  0  0  0  0  0  0  0  0
   41.8940   25.2460   43.1040 N   0  0  0  0  0  0  0  0  0  0  0  0
  1  6  1  6  0  0  0
  1 24  1  0  0  0  0
  2  8  1  0  0  0  0
  2  1  1  0  0  0  0
  3  4  1  0  0  0  0
  3  2  1  0  0  0  0
  4  5  1  0  0  0  0
  5  1  1  0  0  0  0
  5 11  1  1  0  0  0
  5 12  1  0  0  0  0
  7  2  1  0  0  0  0
  9  3  1  0  0  0  0
 10  3  1  0  0  0  0
 12 17  1  6  0  0  0
 12 13  1  0  0  0  0
 12 16  1  0  0  0  0
 13 19  1  0  0  0  0
 13 14  1  0  0  0  0
 14 15  1  0  0  0  0
 14 21  1  0  0  0  0
 14 20  1  0  0  0  0
 16 15  1  0  0  0  0
 16 22  1  0  0  0  0
 18 13  1  0  0  0  0
 23 16  1  0  0  0  0
 24 28  1  0  0  0  0
 24 25  1  0  0  0  0
 26 24  1  0  0  0  0
 27 33  1  0  0  0  0
 28 27  2  0  0  0  0
 29 35  1  0  0  0  0
 29 30  1  0  0  0  0
 30 31  2  0  0  0  0
 30 36  1  0  0  0  0
 31 37  1  0  0  0  0
 32 31  1  0  0  0  0
 33 32  2  0  0  0  0
 34 33  1  0  0  0  0
 34 29  2  0  0  0  0
 37 43  1  0  0  0  0
 37 38  2  0  0  0  0
 38 40  1  0  0  0  0
 39 38  1  0  0  0  0
 41 42  1  0  0  0  0
 41 40  1  0  0  0  0
 43 41  2  0  0  0  0
M  END
>  <minimizedAffinity>
-5.04987049

$$$$

 OpenBabel03242513253D

 43 46  0  0  1  0  0  0  0  0999 V2000
   34.1130   28.4100   37.4910 C   0  0  2  0  0  0  0  0  0  0  0  0
   35.5740   28.4150   37.0550 C   0  0  0  0  0  0  0  0  0  0  0  0
   35.3410   28.2660   35.5560 C   0  0  0  0  0  0  0  0  0  0  0  0
   34.2850   29.0900   35.2910 O   0  0  0  0  0  0  0  0  0  0  0  0
   33.5380   29.2870   36.4270 C   0  0  1  0  0  0  0  0  0  0  0  0
   33.7900   27.3700   37.4560 H   0  0  0  0  0  0  0  0  0  0  0  0
   36.0680   27.5380   37.4880 H   0  0  0  0  0  0  0  0  0  0  0  0
   36.0650   29.3760   37.2900 H   0  0  0  0  0  0  0  0  0  0  0  0
   36.2860   28.5540   35.0280 H   0  0  0  0  0  0  0  0  0  0  0  0
   35.1010   27.1960   35.3640 H   0  0  0  0  0  0  0  0  0  0  0  0
   33.5860   30.3470   36.7230 H   0  0  0  0  0  0  0  0  0  0  0  0
   32.1100   28.9630   36.1430 C   0  0  1  0  0  0  0  0  0  0  0  0
   31.1660   29.9900   36.7250 C   0  0  0  0  0  0  0  0  0  0  0  0
   30.1820   30.2020   35.6060 C   0  0  0  0  0  0  0  0  0  0  0  0
   30.3990   29.1640   34.7070 O   0  0  0  0  0  0  0  0  0  0  0  0
   31.7930   29.1350   34.6550 C   0  0  0  0  0  0  0  0  0  0  0  0
   31.8260   27.9260   36.3980 H   0  0  0  0  0  0  0  0  0  0  0  0
   30.6700   29.5240   37.6210 H   0  0  0  0  0  0  0  0  0  0  0  0
   31.6810   30.9290   37.0230 H   0  0  0  0  0  0  0  0  0  0  0  0
   30.4760   31.1380   35.0830 H   0  0  0  0  0  0  0  0  0  0  0  0
   29.1320   30.2600   35.9560 H   0  0  0  0  0  0  0  0  0  0  0  0
   32.0740   30.1690   34.3080 H   0  0  0  0  0  0  0  0  0  0  0  0
   32.2120   28.3340   34.0470 H   0  0  0  0  0  0  0  0  0  0  0  0
   33.9320   28.9120   38.8730 C   0  0  0  0  0  0  0  0  0  0  0  0
   33.3190   29.8240   38.8540 H   0  0  0  0  0  0  0  0  0  0  0  0
   33.4100   28.1600   39.5110 H   0  0  0  0  0  0  0  0  0  0  0  0
   35.4690   28.9340   40.7700 C   0  0  0  0  0  3  0  0  0  0  0  0
   35.2110   29.2780   39.5410 C   0  0  0  0  0  3  0  0  0  0  0  0
   38.3690   28.8760   42.9720 C   0  0  0  0  0  0  0  0  0  0  0  0
   39.0720   30.0420   42.5830 C   0  0  0  0  0  0  0  0  0  0  0  0
   38.5250   30.8180   41.5660 C   0  0  0  0  0  0  0  0  0  0  0  0
   37.3440   30.4070   41.0060 N   0  0  0  0  0  0  0  0  0  0  0  0
   36.7060   29.2920   41.4060 C   0  0  0  0  0  0  0  0  0  0  0  0
   37.2060   28.5350   42.3730 N   0  0  0  0  0  0  0  0  0  0  0  0
   38.8160   28.2900   43.7660 H   0  0  0  0  0  0  0  0  0  0  0  0
   39.9850   30.3240   43.0430 H   0  0  0  0  0  0  0  0  0  0  0  0
   39.1860   32.0570   41.0870 C   0  0  0  0  0  0  0  0  0  0  0  0
   40.5990   32.0900   40.9930 C   0  0  0  0  0  0  0  0  0  0  0  0
   41.2890   31.3600   41.2120 H   0  0  0  0  0  0  0  0  0  0  0  0
   40.8780   33.8210   40.3630 S   0  0  0  0  0  0  0  0  0  0  0  0
   39.0100   34.1610   40.3500 C   0  0  0  0  0  0  0  0  0  0  0  0
   38.4210   35.0760   40.0600 H   0  0  0  0  0  0  0  0  0  0  0  0
   38.5510   33.1640   40.7320 N   0  0  0  0  0  0  0  0  0  0  0  0
  1  6  1  6  0  0  0
  1 24  1  0  0  0  0
  2  8  1  0  0  0  0
  2  7  1  0  0  0  0
  2  1  1  0  0  0  0
  3  2  1  0  0  0  0
  4  3  1  0  0  0  0
  4  5  1  0  0  0  0
  5 11  1  1  0  0  0
  5  1  1  0  0  0  0
  9  3  1  0  0  0  0
 10  3  1  0  0  0  0
 12 17  1  1  0  0  0
 12  5  1  0  0  0  0
 12 13  1  0  0  0  0
 13 19  1  0  0  0  0
 13 18  1  0  0  0  0
 14 21  1  0  0  0  0
 14 13  1  0  0  0  0
 15 14  1  0  0  0  0
 16 15  1  0  0  0  0
 16 12  1  0  0  0  0
 20 14  1  0  0  0  0
 22 16  1  0  0  0  0
 23 16  1  0  0  0  0
 24 26  1  0  0  0  0
 24 28  1  0  0  0  0
 25 24  1  0  0  0  0
 27 33  1  0  0  0  0
 28 27  2  0  0  0  0
 29 35  1  0  0  0  0
 30 29  1  0  0  0  0
 30 36  1  0  0  0  0
 31 30  2  0  0  0  0
 32 33  2  0  0  0  0
 32 31  1  0  0  0  0
 33 34  1  0  0  0  0
 34 29  2  0  0  0  0
 37 31  1  0  0  0  0
 38 37  2  0  0  0  0
 38 39  1  0  0  0  0
 40 38  1  0  0  0  0
 41 40  1  0  0  0  0
 41 43  2  0  0  0  0
 42 41  1  0  0  0  0
 43 37  1  0  0  0  0
M  END
>  <minimizedAffinity>
-4.96459484

$$$$

 OpenBabel03242513253D

 43 46  0  0  1  0  0  0  0  0999 V2000
   36.4270   28.0530   38.7570 C   0  0  2  0  0  0  0  0  0  0  0  0
   35.9950   27.0980   37.6500 C   0  0  0  0  0  0  0  0  0  0  0  0
   36.7650   25.8720   38.1240 C   0  0  0  0  0  0  0  0  0  0  0  0
   36.5980   25.8660   39.4800 O   0  0  0  0  0  0  0  0  0  0  0  0
   36.3170   27.1340   39.9290 C   0  0  1  0  0  0  0  0  0  0  0  0
   37.4430   28.3640   38.5090 H   0  0  0  0  0  0  0  0  0  0  0  0
   36.3700   27.4820   36.6950 H   0  0  0  0  0  0  0  0  0  0  0  0
   34.9050   26.9190   37.6710 H   0  0  0  0  0  0  0  0  0  0  0  0
   36.3370   24.9730   37.6100 H   0  0  0  0  0  0  0  0  0  0  0  0
   37.8280   26.0160   37.8290 H   0  0  0  0  0  0  0  0  0  0  0  0
   35.3000   27.1590   40.3540 H   0  0  0  0  0  0  0  0  0  0  0  0
   37.2690   27.4960   41.0190 C   0  0  1  0  0  0  0  0  0  0  0  0
   36.5740   28.1600   42.1860 C   0  0  0  0  0  0  0  0  0  0  0  0
   37.2100   27.4860   43.3710 C   0  0  0  0  0  0  0  0  0  0  0  0
   38.3250   26.8180   42.8780 O   0  0  0  0  0  0  0  0  0  0  0  0
   37.8060   26.2440   41.7170 C   0  0  0  0  0  0  0  0  0  0  0  0
   38.1560   28.0560   40.6720 H   0  0  0  0  0  0  0  0  0  0  0  0
   36.8310   29.2540   42.1530 H   0  0  0  0  0  0  0  0  0  0  0  0
   35.4700   28.0290   42.1610 H   0  0  0  0  0  0  0  0  0  0  0  0
   36.5030   26.7030   43.7230 H   0  0  0  0  0  0  0  0  0  0  0  0
   37.4550   28.1910   44.1920 H   0  0  0  0  0  0  0  0  0  0  0  0
   36.9570   25.6020   42.0870 H   0  0  0  0  0  0  0  0  0  0  0  0
   38.5330   25.7090   41.1070 H   0  0  0  0  0  0  0  0  0  0  0  0
   35.5710   29.2600   38.8320 C   0  0  0  0  0  0  0  0  0  0  0  0
   35.1540   29.4750   37.8370 H   0  0  0  0  0  0  0  0  0  0  0  0
   34.7190   29.1080   39.5350 H   0  0  0  0  0  0  0  0  0  0  0  0
   37.5110   30.7410   38.8290 C   0  0  0  0  0  3  0  0  0  0  0  0
   36.3090   30.4820   39.2540 C   0  0  0  0  0  3  0  0  0  0  0  0
   38.2510   33.9870   40.3050 C   0  0  0  0  0  0  0  0  0  0  0  0
   39.6210   34.1610   39.9910 C   0  0  0  0  0  0  0  0  0  0  0  0
   40.2550   33.1480   39.2780 C   0  0  0  0  0  0  0  0  0  0  0  0
   39.5160   32.0500   38.9250 N   0  0  0  0  0  0  0  0  0  0  0  0
   38.2150   31.9230   39.2420 C   0  0  0  0  0  0  0  0  0  0  0  0
   37.5870   32.8750   39.9210 N   0  0  0  0  0  0  0  0  0  0  0  0
   37.7810   34.7900   40.8600 H   0  0  0  0  0  0  0  0  0  0  0  0
   40.1560   35.0290   40.2850 H   0  0  0  0  0  0  0  0  0  0  0  0
   41.6870   33.2360   38.9030 C   0  0  0  0  0  0  0  0  0  0  0  0
   42.0860   32.8160   37.6100 C   0  0  0  0  0  0  0  0  0  0  0  0
   41.5220   32.4380   36.8400 H   0  0  0  0  0  0  0  0  0  0  0  0
   43.9220   33.1330   37.6800 S   0  0  0  0  0  0  0  0  0  0  0  0
   43.7850   33.7770   39.4600 C   0  0  0  0  0  0  0  0  0  0  0  0
   44.5640   34.1680   40.1740 H   0  0  0  0  0  0  0  0  0  0  0  0
   42.6500   33.6850   39.6950 N   0  0  0  0  0  0  0  0  0  0  0  0
  1  6  1  6  0  0  0
  1 24  1  0  0  0  0
  1  5  1  0  0  0  0
  2  8  1  0  0  0  0
  2  3  1  0  0  0  0
  2  1  1  0  0  0  0
  3  4  1  0  0  0  0
  4  5  1  0  0  0  0
  5 11  1  1  0  0  0
  5 12  1  0  0  0  0
  7  2  1  0  0  0  0
  9  3  1  0  0  0  0
 10  3  1  0  0  0  0
 12 17  1  6  0  0  0
 12 16  1  0  0  0  0
 12 13  1  0  0  0  0
 13 14  1  0  0  0  0
 14 20  1  0  0  0  0
 14 21  1  0  0  0  0
 15 14  1  0  0  0  0
 16 22  1  0  0  0  0
 16 15  1  0  0  0  0
 18 13  1  0  0  0  0
 19 13  1  0  0  0  0
 23 16  1  0  0  0  0
 24 28  1  0  0  0  0
 24 26  1  0  0  0  0
 25 24  1  0  0  0  0
 27 33  1  0  0  0  0
 27 28  2  0  0  0  0
 29 35  1  0  0  0  0
 30 36  1  0  0  0  0
 30 29  1  0  0  0  0
 31 30  2  0  0  0  0
 32 33  2  0  0  0  0
 32 31  1  0  0  0  0
 33 34  1  0  0  0  0
 34 29  2  0  0  0  0
 37 31  1  0  0  0  0
 37 43  1  0  0  0  0
 38 40  1  0  0  0  0
 38 37  2  0  0  0  0
 39 38  1  0  0  0  0
 40 41  1  0  0  0  0
 41 43  2  0  0  0  0
 41 42  1  0  0  0  0
M  END
>  <minimizedAffinity>
-4.9405756

$$$$
