
 OpenBabel03242513043D

 33 36  0  0  0  0  0  0  0  0999 V2000
   45.9620   33.1680   41.6600 C   0  0  0  0  0  0  0  0  0  0  0  0
   47.1220   33.8730   41.3270 C   0  0  0  0  0  0  0  0  0  0  0  0
   48.1040   33.9580   42.2990 C   0  0  0  0  0  0  0  0  0  0  0  0
   47.8660   33.3530   43.4990 N   0  0  0  0  0  0  0  0  0  0  0  0
   46.7490   32.6840   43.7980 C   0  0  0  0  0  0  0  0  0  0  0  0
   45.7850   32.5890   42.8720 N   0  0  0  0  0  0  0  0  0  0  0  0
   45.1270   33.0210   41.0160 H   0  0  0  0  0  0  0  0  0  0  0  0
   46.9360   30.7680   45.3170 C   0  0  0  0  0  0  0  0  0  0  0  0
   46.5990   32.0800   45.1040 C   0  0  0  0  0  0  0  0  0  0  0  0
   46.0920   32.9110   46.1260 C   0  0  0  0  0  0  0  0  0  0  0  0
   45.9170   32.4030   47.4090 C   0  0  0  0  0  0  0  0  0  0  0  0
   45.4750   32.8730   48.6000 N   0  0  0  0  0  0  0  0  0  0  0  0
   45.5500   31.8510   49.5080 C   0  0  0  0  0  0  0  0  0  0  0  0
   46.0350   30.7710   48.8640 N   0  0  0  0  0  0  0  0  0  0  0  0
   46.2700   31.0770   47.5780 C   0  0  0  0  0  0  0  0  0  0  0  0
   46.7700   30.2390   46.5960 C   0  0  0  0  0  0  0  0  0  0  0  0
   47.3130   30.2100   44.4870 H   0  0  0  0  0  0  0  0  0  0  0  0
   45.8280   33.9410   45.9560 H   0  0  0  0  0  0  0  0  0  0  0  0
   45.1580   33.8520   48.7010 H   0  0  0  0  0  0  0  0  0  0  0  0
   45.2470   31.9990   50.5300 H   0  0  0  0  0  0  0  0  0  0  0  0
   47.0270   29.2210   46.7740 H   0  0  0  0  0  0  0  0  0  0  0  0
   49.3580   34.6890   42.0120 C   0  0  0  0  0  0  0  0  0  0  0  0
   49.0920   35.8200   41.2170 F   0  0  0  0  0  0  0  0  0  0  0  0
   49.9130   35.1690   43.1730 F   0  0  0  0  0  0  0  0  0  0  0  0
   50.2070   33.8460   41.3500 F   0  0  0  0  0  0  0  0  0  0  0  0
   47.2430   34.4350   40.0950 O   0  0  0  0  0  0  0  0  0  0  0  0
   47.3570   33.6670   38.9580 C   0  0  0  0  0  0  0  0  0  0  0  0
   48.3510   34.3710   38.2380 C   0  0  0  0  0  0  0  0  0  0  0  0
   49.1010   35.2540   38.1370 H   0  0  0  0  0  0  0  0  0  0  0  0
   48.5450   33.3860   36.7030 S   0  0  0  0  0  0  0  0  0  0  0  0
   47.2310   32.1700   37.2950 C   0  0  0  0  0  0  0  0  0  0  0  0
   46.5450   31.1770   37.1570 H   0  0  0  0  0  0  0  0  0  0  0  0
   46.9660   32.6220   38.2820 N   0  0  0  0  0  0  0  0  0  0  0  0
  1  6  1  0  0  0  0
  2  1  2  0  0  0  0
  2  3  1  0  0  0  0
  3  4  2  0  0  0  0
  4  5  1  0  0  0  0
  5  9  1  0  0  0  0
  6  5  2  0  0  0  0
  7  1  1  0  0  0  0
  8 16  1  0  0  0  0
  9  8  2  0  0  0  0
  9 10  1  0  0  0  0
 10 11  2  0  0  0  0
 11 15  1  0  0  0  0
 11 12  1  0  0  0  0
 12 19  1  0  0  0  0
 12 13  1  0  0  0  0
 13 20  1  0  0  0  0
 14 13  2  0  0  0  0
 15 14  1  0  0  0  0
 16 21  1  0  0  0  0
 16 15  2  0  0  0  0
 17  8  1  0  0  0  0
 18 10  1  0  0  0  0
 22  3  1  0  0  0  0
 22 24  1  0  0  0  0
 23 22  1  0  0  0  0
 25 22  1  0  0  0  0
 26  2  1  0  0  0  0
 27 26  1  0  0  0  0
 28 27  2  0  0  0  0
 29 28  1  0  0  0  0
 30 31  1  0  0  0  0
 30 28  1  0  0  0  0
 31 33  2  0  0  0  0
 32 31  1  0  0  0  0
 33 27  1  0  0  0  0
M  END
>  <minimizedAffinity>
-5.96530724

>  <minimizedRMSD>
1.19864082

$$$$
