
 OpenBabel03242521503D

 18 19  0  0  0  0  0  0  0  0999 V2000
   37.3000   30.6410   38.0120 C   0  0  0  0  0  0  0  0  0  0  0  0
   37.2720   32.0080   38.2970 C   0  0  0  0  0  0  0  0  0  0  0  0
   37.2330   32.4070   39.6320 C   0  0  0  0  0  0  0  0  0  0  0  0
   37.2250   31.4380   40.5840 N   0  0  0  0  0  0  0  0  0  0  0  0
   37.2540   30.1310   40.2840 C   0  0  0  0  0  0  0  0  0  0  0  0
   37.2910   29.7350   38.9940 N   0  0  0  0  0  0  0  0  0  0  0  0
   37.3310   30.2990   36.9800 H   0  0  0  0  0  0  0  0  0  0  0  0
   37.2790   32.7390   37.4940 H   0  0  0  0  0  0  0  0  0  0  0  0
   37.2390   29.2210   41.4520 C   0  0  0  0  0  0  0  0  0  0  0  0
   36.6420   27.8370   41.3100 C   0  0  0  0  0  0  0  0  0  0  0  0
   36.2370   27.4960   40.4160 H   0  0  0  0  0  0  0  0  0  0  0  0
   36.8500   27.1580   42.9170 S   0  0  0  0  0  0  0  0  0  0  0  0
   37.6870   28.7440   43.5880 C   0  0  0  0  0  0  0  0  0  0  0  0
   38.1470   29.1400   44.5950 H   0  0  0  0  0  0  0  0  0  0  0  0
   37.6890   29.4290   42.6760 N   0  0  0  0  0  0  0  0  0  0  0  0
   37.2030   33.7760   39.9580 N   0  0  0  0  0  0  0  0  0  0  0  0
   36.8820   34.4760   39.2520 H   0  0  0  0  0  0  0  0  0  0  0  0
   37.4980   34.1230   40.9030 H   0  0  0  0  0  0  0  0  0  0  0  0
  1  2  2  0  0  0  0
  1  6  1  0  0  0  0
  2  3  1  0  0  0  0
  3 16  1  0  0  0  0
  3  4  2  0  0  0  0
  5  4  1  0  0  0  0
  5  9  1  0  0  0  0
  6  5  2  0  0  0  0
  7  1  1  0  0  0  0
  8  2  1  0  0  0  0
  9 15  1  0  0  0  0
 10  9  2  0  0  0  0
 10 12  1  0  0  0  0
 11 10  1  0  0  0  0
 12 13  1  0  0  0  0
 13 14  1  0  0  0  0
 15 13  2  0  0  0  0
 16 18  1  0  0  0  0
 17 16  1  0  0  0  0
M  END
>  <minimizedAffinity>
-4.05500221

$$$$

 OpenBabel03242521503D

 18 19  0  0  0  0  0  0  0  0999 V2000
   39.8030   28.2130   43.0290 C   0  0  0  0  0  0  0  0  0  0  0  0
   38.6240   27.6310   43.5000 C   0  0  0  0  0  0  0  0  0  0  0  0
   37.4140   28.2610   43.2190 C   0  0  0  0  0  0  0  0  0  0  0  0
   37.4510   29.4130   42.4990 N   0  0  0  0  0  0  0  0  0  0  0  0
   38.5960   29.9530   42.0580 C   0  0  0  0  0  0  0  0  0  0  0  0
   39.7740   29.3500   42.3260 N   0  0  0  0  0  0  0  0  0  0  0  0
   40.7630   27.7450   43.2330 H   0  0  0  0  0  0  0  0  0  0  0  0
   38.6570   26.7080   44.0710 H   0  0  0  0  0  0  0  0  0  0  0  0
   38.4410   31.2100   41.2910 C   0  0  0  0  0  0  0  0  0  0  0  0
   37.2140   31.4070   40.4250 C   0  0  0  0  0  0  0  0  0  0  0  0
   36.4690   30.6890   40.3470 H   0  0  0  0  0  0  0  0  0  0  0  0
   37.4790   33.0020   39.7370 S   0  0  0  0  0  0  0  0  0  0  0  0
   39.1460   33.2300   40.6500 C   0  0  0  0  0  0  0  0  0  0  0  0
   39.9960   34.0370   40.7450 H   0  0  0  0  0  0  0  0  0  0  0  0
   39.2460   32.2550   41.2320 N   0  0  0  0  0  0  0  0  0  0  0  0
   36.2060   27.7040   43.6770 N   0  0  0  0  0  0  0  0  0  0  0  0
   36.2080   27.0340   44.4780 H   0  0  0  0  0  0  0  0  0  0  0  0
   35.2870   27.9410   43.2300 H   0  0  0  0  0  0  0  0  0  0  0  0
  1  7  1  0  0  0  0
  1  2  1  0  0  0  0
  2  8  1  0  0  0  0
  3  2  2  0  0  0  0
  3 16  1  0  0  0  0
  4  3  1  0  0  0  0
  5  6  1  0  0  0  0
  5  4  2  0  0  0  0
  6  1  2  0  0  0  0
  9  5  1  0  0  0  0
 10  9  2  0  0  0  0
 11 10  1  0  0  0  0
 12 10  1  0  0  0  0
 12 13  1  0  0  0  0
 13 14  1  0  0  0  0
 13 15  2  0  0  0  0
 15  9  1  0  0  0  0
 16 17  1  0  0  0  0
 18 16  1  0  0  0  0
M  END
>  <minimizedAffinity>
-3.99678612

$$$$

 OpenBabel03242521503D

 18 19  0  0  0  0  0  0  0  0999 V2000
   35.8940   27.7520   39.3680 C   0  0  0  0  0  0  0  0  0  0  0  0
   35.4990   29.0330   39.7610 C   0  0  0  0  0  0  0  0  0  0  0  0
   36.0530   29.5730   40.9200 C   0  0  0  0  0  0  0  0  0  0  0  0
   36.9510   28.8180   41.6050 N   0  0  0  0  0  0  0  0  0  0  0  0
   37.3140   27.5900   41.2070 C   0  0  0  0  0  0  0  0  0  0  0  0
   36.7830   27.0580   40.0860 N   0  0  0  0  0  0  0  0  0  0  0  0
   35.4790   27.3040   38.4690 H   0  0  0  0  0  0  0  0  0  0  0  0
   34.7760   29.5910   39.1730 H   0  0  0  0  0  0  0  0  0  0  0  0
   38.3030   26.9170   42.0790 C   0  0  0  0  0  0  0  0  0  0  0  0
   38.4960   25.4190   41.9680 C   0  0  0  0  0  0  0  0  0  0  0  0
   37.9580   24.8380   41.2980 H   0  0  0  0  0  0  0  0  0  0  0  0
   39.7360   25.0980   43.1710 S   0  0  0  0  0  0  0  0  0  0  0  0
   39.8620   26.9400   43.6800 C   0  0  0  0  0  0  0  0  0  0  0  0
   40.4670   27.6070   44.4360 H   0  0  0  0  0  0  0  0  0  0  0  0
   39.0960   27.4380   42.9980 N   0  0  0  0  0  0  0  0  0  0  0  0
   35.6780   30.8610   41.3470 N   0  0  0  0  0  0  0  0  0  0  0  0
   34.7800   31.2800   41.0200 H   0  0  0  0  0  0  0  0  0  0  0  0
   36.2840   31.4230   41.9930 H   0  0  0  0  0  0  0  0  0  0  0  0
  1  2  2  0  0  0  0
  1  6  1  0  0  0  0
  2  3  1  0  0  0  0
  3 16  1  0  0  0  0
  3  4  2  0  0  0  0
  5  4  1  0  0  0  0
  5  9  1  0  0  0  0
  6  5  2  0  0  0  0
  7  1  1  0  0  0  0
  8  2  1  0  0  0  0
  9 15  1  0  0  0  0
 10  9  2  0  0  0  0
 10 12  1  0  0  0  0
 11 10  1  0  0  0  0
 12 13  1  0  0  0  0
 13 14  1  0  0  0  0
 15 13  2  0  0  0  0
 16 18  1  0  0  0  0
 17 16  1  0  0  0  0
M  END
>  <minimizedAffinity>
-3.97124171

$$$$

 OpenBabel03242521503D

 18 19  0  0  0  0  0  0  0  0999 V2000
   40.0810   26.6430   43.6790 C   0  0  0  0  0  0  0  0  0  0  0  0
   39.8060   25.3100   43.3640 C   0  0  0  0  0  0  0  0  0  0  0  0
   38.7220   25.0330   42.5350 C   0  0  0  0  0  0  0  0  0  0  0  0
   37.9900   26.0820   42.0770 N   0  0  0  0  0  0  0  0  0  0  0  0
   38.2740   27.3540   42.3930 C   0  0  0  0  0  0  0  0  0  0  0  0
   39.3220   27.6320   43.1970 N   0  0  0  0  0  0  0  0  0  0  0  0
   40.9200   26.8900   44.3240 H   0  0  0  0  0  0  0  0  0  0  0  0
   40.4270   24.5120   43.7610 H   0  0  0  0  0  0  0  0  0  0  0  0
   37.3660   28.3630   41.8020 C   0  0  0  0  0  0  0  0  0  0  0  0
   37.7360   29.8300   41.8730 C   0  0  0  0  0  0  0  0  0  0  0  0
   38.6110   30.1600   42.3240 H   0  0  0  0  0  0  0  0  0  0  0  0
   36.3870   30.6090   41.0610 S   0  0  0  0  0  0  0  0  0  0  0  0
   35.4990   28.9470   40.7230 C   0  0  0  0  0  0  0  0  0  0  0  0
   34.5110   28.5620   40.2150 H   0  0  0  0  0  0  0  0  0  0  0  0
   36.2120   28.1860   41.1840 N   0  0  0  0  0  0  0  0  0  0  0  0
   38.4150   23.7020   42.1960 N   0  0  0  0  0  0  0  0  0  0  0  0
   38.7570   22.9170   42.7940 H   0  0  0  0  0  0  0  0  0  0  0  0
   37.8440   23.4680   41.3480 H   0  0  0  0  0  0  0  0  0  0  0  0
  1  7  1  0  0  0  0
  2  1  1  0  0  0  0
  2  8  1  0  0  0  0
  3  2  2  0  0  0  0
  4  5  2  0  0  0  0
  4  3  1  0  0  0  0
  5  6  1  0  0  0  0
  6  1  2  0  0  0  0
  9 10  2  0  0  0  0
  9  5  1  0  0  0  0
 10 11  1  0  0  0  0
 12 10  1  0  0  0  0
 13 12  1  0  0  0  0
 13 15  2  0  0  0  0
 14 13  1  0  0  0  0
 15  9  1  0  0  0  0
 16  3  1  0  0  0  0
 16 17  1  0  0  0  0
 18 16  1  0  0  0  0
M  END
>  <minimizedAffinity>
-3.91698384

$$$$

 OpenBabel03242521503D

 18 19  0  0  0  0  0  0  0  0999 V2000
   36.8240   29.7970   37.9540 C   0  0  0  0  0  0  0  0  0  0  0  0
   36.0600   29.9150   39.1170 C   0  0  0  0  0  0  0  0  0  0  0  0
   36.4690   30.8220   40.0920 C   0  0  0  0  0  0  0  0  0  0  0  0
   37.5950   31.5440   39.8540 N   0  0  0  0  0  0  0  0  0  0  0  0
   38.3130   31.4130   38.7290 C   0  0  0  0  0  0  0  0  0  0  0  0
   37.9240   30.5360   37.7780 N   0  0  0  0  0  0  0  0  0  0  0  0
   36.5300   29.0980   37.1760 H   0  0  0  0  0  0  0  0  0  0  0  0
   35.1680   29.3110   39.2530 H   0  0  0  0  0  0  0  0  0  0  0  0
   39.5090   32.2810   38.6440 C   0  0  0  0  0  0  0  0  0  0  0  0
   40.4670   32.1180   37.4820 C   0  0  0  0  0  0  0  0  0  0  0  0
   40.3170   31.4140   36.7340 H   0  0  0  0  0  0  0  0  0  0  0  0
   41.6900   33.3340   37.8160 S   0  0  0  0  0  0  0  0  0  0  0  0
   40.8210   33.9140   39.4210 C   0  0  0  0  0  0  0  0  0  0  0  0
   40.9810   34.7080   40.2730 H   0  0  0  0  0  0  0  0  0  0  0  0
   39.9060   33.2360   39.4660 N   0  0  0  0  0  0  0  0  0  0  0  0
   35.7240   30.9680   41.2770 N   0  0  0  0  0  0  0  0  0  0  0  0
   35.0820   30.2060   41.5890 H   0  0  0  0  0  0  0  0  0  0  0  0
   35.7930   31.8330   41.8670 H   0  0  0  0  0  0  0  0  0  0  0  0
  1  2  1  0  0  0  0
  2  8  1  0  0  0  0
  2  3  2  0  0  0  0
  3 16  1  0  0  0  0
  4  3  1  0  0  0  0
  5  4  2  0  0  0  0
  6  1  2  0  0  0  0
  6  5  1  0  0  0  0
  7  1  1  0  0  0  0
  9  5  1  0  0  0  0
  9 15  1  0  0  0  0
 10 12  1  0  0  0  0
 10  9  2  0  0  0  0
 11 10  1  0  0  0  0
 12 13  1  0  0  0  0
 13 15  2  0  0  0  0
 13 14  1  0  0  0  0
 16 17  1  0  0  0  0
 16 18  1  0  0  0  0
M  END
>  <minimizedAffinity>
-3.88425112

$$$$

 OpenBabel03242521503D

 18 19  0  0  0  0  0  0  0  0999 V2000
   40.5340   32.7920   40.6680 C   0  0  0  0  0  0  0  0  0  0  0  0
   39.4160   33.4600   40.1640 C   0  0  0  0  0  0  0  0  0  0  0  0
   38.1590   32.8890   40.3550 C   0  0  0  0  0  0  0  0  0  0  0  0
   38.0940   31.7090   41.0250 N   0  0  0  0  0  0  0  0  0  0  0  0
   39.1830   31.0870   41.4990 C   0  0  0  0  0  0  0  0  0  0  0  0
   40.4050   31.6320   41.3190 N   0  0  0  0  0  0  0  0  0  0  0  0
   41.5280   33.2130   40.5340 H   0  0  0  0  0  0  0  0  0  0  0  0
   39.5290   34.4020   39.6360 H   0  0  0  0  0  0  0  0  0  0  0  0
   38.9190   29.8100   42.2010 C   0  0  0  0  0  0  0  0  0  0  0  0
   37.4890   29.4010   42.4900 C   0  0  0  0  0  0  0  0  0  0  0  0
   36.6780   29.9870   42.2120 H   0  0  0  0  0  0  0  0  0  0  0  0
   37.6850   27.8620   43.3140 S   0  0  0  0  0  0  0  0  0  0  0  0
   39.5950   27.9240   43.1900 C   0  0  0  0  0  0  0  0  0  0  0  0
   40.5210   27.2690   43.5010 H   0  0  0  0  0  0  0  0  0  0  0  0
   39.7760   28.9110   42.6480 N   0  0  0  0  0  0  0  0  0  0  0  0
   37.0100   33.5330   39.8610 N   0  0  0  0  0  0  0  0  0  0  0  0
   37.0910   34.2330   39.0910 H   0  0  0  0  0  0  0  0  0  0  0  0
   36.0560   33.3300   40.2500 H   0  0  0  0  0  0  0  0  0  0  0  0
  1  6  1  0  0  0  0
  2  3  1  0  0  0  0
  2  1  2  0  0  0  0
  3  4  2  0  0  0  0
  4  5  1  0  0  0  0
  5  9  1  0  0  0  0
  6  5  2  0  0  0  0
  7  1  1  0  0  0  0
  8  2  1  0  0  0  0
  9 10  2  0  0  0  0
  9 15  1  0  0  0  0
 10 12  1  0  0  0  0
 11 10  1  0  0  0  0
 13 12  1  0  0  0  0
 13 14  1  0  0  0  0
 15 13  2  0  0  0  0
 16 18  1  0  0  0  0
 16  3  1  0  0  0  0
 17 16  1  0  0  0  0
M  END
>  <minimizedAffinity>
-3.85091519

$$$$

 OpenBabel03242521503D

 18 19  0  0  0  0  0  0  0  0999 V2000
   38.5900   29.1870   42.8670 C   0  0  0  0  0  0  0  0  0  0  0  0
   37.2660   29.2560   42.4260 C   0  0  0  0  0  0  0  0  0  0  0  0
   36.9110   30.2780   41.5480 C   0  0  0  0  0  0  0  0  0  0  0  0
   37.8790   31.1530   41.1690 N   0  0  0  0  0  0  0  0  0  0  0  0
   39.1440   31.0660   41.6060 C   0  0  0  0  0  0  0  0  0  0  0  0
   39.4970   30.0790   42.4570 N   0  0  0  0  0  0  0  0  0  0  0  0
   38.8970   28.4010   43.5520 H   0  0  0  0  0  0  0  0  0  0  0  0
   36.5350   28.5280   42.7630 H   0  0  0  0  0  0  0  0  0  0  0  0
   40.0590   32.1070   41.0870 C   0  0  0  0  0  0  0  0  0  0  0  0
   39.5180   33.1850   40.1710 C   0  0  0  0  0  0  0  0  0  0  0  0
   38.5190   33.2240   39.8900 H   0  0  0  0  0  0  0  0  0  0  0  0
   40.9420   34.1550   39.8310 S   0  0  0  0  0  0  0  0  0  0  0  0
   42.0750   33.0550   40.9130 C   0  0  0  0  0  0  0  0  0  0  0  0
   43.2040   33.0010   41.2380 H   0  0  0  0  0  0  0  0  0  0  0  0
   41.3530   32.2630   41.3020 N   0  0  0  0  0  0  0  0  0  0  0  0
   35.5870   30.3800   41.0830 N   0  0  0  0  0  0  0  0  0  0  0  0
   34.8090   29.9310   41.6150 H   0  0  0  0  0  0  0  0  0  0  0  0
   35.3520   30.9010   40.2030 H   0  0  0  0  0  0  0  0  0  0  0  0
  1  7  1  0  0  0  0
  2  8  1  0  0  0  0
  2  1  2  0  0  0  0
  3  2  1  0  0  0  0
  4  3  2  0  0  0  0
  4  5  1  0  0  0  0
  5  6  2  0  0  0  0
  6  1  1  0  0  0  0
  9 15  1  0  0  0  0
  9  5  1  0  0  0  0
 10  9  2  0  0  0  0
 11 10  1  0  0  0  0
 12 10  1  0  0  0  0
 12 13  1  0  0  0  0
 13 14  1  0  0  0  0
 13 15  2  0  0  0  0
 16  3  1  0  0  0  0
 16 17  1  0  0  0  0
 18 16  1  0  0  0  0
M  END
>  <minimizedAffinity>
-3.72669697

$$$$

 OpenBabel03242521503D

 18 19  0  0  0  0  0  0  0  0999 V2000
   37.5110   27.6980   39.8730 C   0  0  0  0  0  0  0  0  0  0  0  0
   37.0030   27.2980   41.1120 C   0  0  0  0  0  0  0  0  0  0  0  0
   36.7890   28.2690   42.0870 C   0  0  0  0  0  0  0  0  0  0  0  0
   37.0870   29.5580   41.7760 N   0  0  0  0  0  0  0  0  0  0  0  0
   37.5730   29.9170   40.5790 C   0  0  0  0  0  0  0  0  0  0  0  0
   37.7850   28.9830   39.6280 N   0  0  0  0  0  0  0  0  0  0  0  0
   37.6890   26.9630   39.0930 H   0  0  0  0  0  0  0  0  0  0  0  0
   36.7830   26.2520   41.3040 H   0  0  0  0  0  0  0  0  0  0  0  0
   37.8390   31.3650   40.4210 C   0  0  0  0  0  0  0  0  0  0  0  0
   39.0550   31.9760   41.0870 C   0  0  0  0  0  0  0  0  0  0  0  0
   39.7170   31.4140   41.6560 H   0  0  0  0  0  0  0  0  0  0  0  0
   38.9410   33.6660   40.6230 S   0  0  0  0  0  0  0  0  0  0  0  0
   37.3340   33.3890   39.6200 C   0  0  0  0  0  0  0  0  0  0  0  0
   36.5780   34.0160   38.9740 H   0  0  0  0  0  0  0  0  0  0  0  0
   37.1480   32.2720   39.7540 N   0  0  0  0  0  0  0  0  0  0  0  0
   36.2790   27.9030   43.3470 N   0  0  0  0  0  0  0  0  0  0  0  0
   36.3660   26.9180   43.6810 H   0  0  0  0  0  0  0  0  0  0  0  0
   35.8040   28.6000   43.9710 H   0  0  0  0  0  0  0  0  0  0  0  0
  1  2  1  0  0  0  0
  2  8  1  0  0  0  0
  2  3  2  0  0  0  0
  3 16  1  0  0  0  0
  4  3  1  0  0  0  0
  5  4  2  0  0  0  0
  6  1  2  0  0  0  0
  6  5  1  0  0  0  0
  7  1  1  0  0  0  0
  9  5  1  0  0  0  0
  9 10  2  0  0  0  0
 10 11  1  0  0  0  0
 12 10  1  0  0  0  0
 13 15  2  0  0  0  0
 13 12  1  0  0  0  0
 14 13  1  0  0  0  0
 15  9  1  0  0  0  0
 16 17  1  0  0  0  0
 16 18  1  0  0  0  0
M  END
>  <minimizedAffinity>
-3.67514729

$$$$

 OpenBabel03242521503D

 18 19  0  0  0  0  0  0  0  0999 V2000
   37.2830   27.8060   43.6210 C   0  0  0  0  0  0  0  0  0  0  0  0
   37.0230   26.7820   42.7070 C   0  0  0  0  0  0  0  0  0  0  0  0
   37.0580   27.0820   41.3470 C   0  0  0  0  0  0  0  0  0  0  0  0
   37.3460   28.3600   40.9860 N   0  0  0  0  0  0  0  0  0  0  0  0
   37.5930   29.3260   41.8840 C   0  0  0  0  0  0  0  0  0  0  0  0
   37.5600   29.0450   43.2030 N   0  0  0  0  0  0  0  0  0  0  0  0
   37.2630   27.6030   44.6890 H   0  0  0  0  0  0  0  0  0  0  0  0
   36.7980   25.7780   43.0540 H   0  0  0  0  0  0  0  0  0  0  0  0
   37.8870   30.6570   41.3060 C   0  0  0  0  0  0  0  0  0  0  0  0
   39.2590   31.2680   41.5030 C   0  0  0  0  0  0  0  0  0  0  0  0
   40.0100   30.7850   42.0330 H   0  0  0  0  0  0  0  0  0  0  0  0
   39.1230   32.8030   40.6600 S   0  0  0  0  0  0  0  0  0  0  0  0
   37.3070   32.4780   40.1490 C   0  0  0  0  0  0  0  0  0  0  0  0
   36.4490   33.0160   39.5520 H   0  0  0  0  0  0  0  0  0  0  0  0
   37.1020   31.4520   40.6020 N   0  0  0  0  0  0  0  0  0  0  0  0
   36.8010   26.0770   40.3960 N   0  0  0  0  0  0  0  0  0  0  0  0
   36.2730   25.2190   40.6710 H   0  0  0  0  0  0  0  0  0  0  0  0
   37.1290   26.1630   39.4030 H   0  0  0  0  0  0  0  0  0  0  0  0
  1  7  1  0  0  0  0
  2  8  1  0  0  0  0
  2  1  2  0  0  0  0
  3  2  1  0  0  0  0
  4  3  2  0  0  0  0
  4  5  1  0  0  0  0
  5  6  2  0  0  0  0
  6  1  1  0  0  0  0
  9 10  2  0  0  0  0
  9  5  1  0  0  0  0
 10 11  1  0  0  0  0
 12 10  1  0  0  0  0
 13 15  2  0  0  0  0
 13 12  1  0  0  0  0
 14 13  1  0  0  0  0
 15  9  1  0  0  0  0
 16 17  1  0  0  0  0
 16  3  1  0  0  0  0
 18 16  1  0  0  0  0
M  END
>  <minimizedAffinity>
-3.66686702

$$$$
