
 OpenBabel03242513053D

 33 36  0  0  0  0  0  0  0  0999 V2000
   46.1150   32.9370   41.6230 C   0  0  0  0  0  0  0  0  0  0  0  0
   47.2260   33.7200   41.3000 C   0  0  0  0  0  0  0  0  0  0  0  0
   48.1620   33.9210   42.3000 C   0  0  0  0  0  0  0  0  0  0  0  0
   47.9300   33.3450   43.5150 N   0  0  0  0  0  0  0  0  0  0  0  0
   46.8600   32.5990   43.8040 C   0  0  0  0  0  0  0  0  0  0  0  0
   45.9410   32.3910   42.8500 N   0  0  0  0  0  0  0  0  0  0  0  0
   45.3180   32.6990   40.9570 H   0  0  0  0  0  0  0  0  0  0  0  0
   47.1290   30.7570   45.4000 C   0  0  0  0  0  0  0  0  0  0  0  0
   46.7100   32.0330   45.1270 C   0  0  0  0  0  0  0  0  0  0  0  0
   46.1150   32.8640   46.1010 C   0  0  0  0  0  0  0  0  0  0  0  0
   45.9360   32.3930   47.3970 C   0  0  0  0  0  0  0  0  0  0  0  0
   45.4250   32.8730   48.5560 N   0  0  0  0  0  0  0  0  0  0  0  0
   45.5410   31.8930   49.5040 C   0  0  0  0  0  0  0  0  0  0  0  0
   46.1190   30.8270   48.9170 N   0  0  0  0  0  0  0  0  0  0  0  0
   46.3730   31.1010   47.6270 C   0  0  0  0  0  0  0  0  0  0  0  0
   46.9600   30.2640   46.6930 C   0  0  0  0  0  0  0  0  0  0  0  0
   47.5700   30.1970   44.6030 H   0  0  0  0  0  0  0  0  0  0  0  0
   45.7860   33.8660   45.8840 H   0  0  0  0  0  0  0  0  0  0  0  0
   45.0380   33.8310   48.6100 H   0  0  0  0  0  0  0  0  0  0  0  0
   45.1970   32.0570   50.5110 H   0  0  0  0  0  0  0  0  0  0  0  0
   47.2810   29.2750   46.9180 H   0  0  0  0  0  0  0  0  0  0  0  0
   49.3640   34.7400   42.0260 C   0  0  0  0  0  0  0  0  0  0  0  0
   49.0360   35.8210   41.1860 F   0  0  0  0  0  0  0  0  0  0  0  0
   49.8420   35.2980   43.1860 F   0  0  0  0  0  0  0  0  0  0  0  0
   50.2970   33.9470   41.4190 F   0  0  0  0  0  0  0  0  0  0  0  0
   47.3480   34.2440   40.0520 O   0  0  0  0  0  0  0  0  0  0  0  0
   47.9220   33.5330   39.0220 C   0  0  0  0  0  0  0  0  0  0  0  0
   46.8950   33.5630   38.0480 C   0  0  0  0  0  0  0  0  0  0  0  0
   45.8330   33.8840   37.6990 H   0  0  0  0  0  0  0  0  0  0  0  0
   47.6110   32.6250   36.6430 S   0  0  0  0  0  0  0  0  0  0  0  0
   49.2000   32.3430   37.6180 C   0  0  0  0  0  0  0  0  0  0  0  0
   50.3230   31.8940   37.7370 H   0  0  0  0  0  0  0  0  0  0  0  0
   48.9530   32.8730   38.5690 N   0  0  0  0  0  0  0  0  0  0  0  0
  1  6  1  0  0  0  0
  2  1  2  0  0  0  0
  2  3  1  0  0  0  0
  3  4  2  0  0  0  0
  4  5  1  0  0  0  0
  5  9  1  0  0  0  0
  6  5  2  0  0  0  0
  7  1  1  0  0  0  0
  8 16  1  0  0  0  0
  9  8  2  0  0  0  0
  9 10  1  0  0  0  0
 10 11  2  0  0  0  0
 11 15  1  0  0  0  0
 11 12  1  0  0  0  0
 12 19  1  0  0  0  0
 12 13  1  0  0  0  0
 13 20  1  0  0  0  0
 14 13  2  0  0  0  0
 15 14  1  0  0  0  0
 16 21  1  0  0  0  0
 16 15  2  0  0  0  0
 17  8  1  0  0  0  0
 18 10  1  0  0  0  0
 22  3  1  0  0  0  0
 22 24  1  0  0  0  0
 23 22  1  0  0  0  0
 25 22  1  0  0  0  0
 26  2  1  0  0  0  0
 27 26  1  0  0  0  0
 28 27  2  0  0  0  0
 29 28  1  0  0  0  0
 30 31  1  0  0  0  0
 30 28  1  0  0  0  0
 31 32  1  0  0  0  0
 31 33  2  0  0  0  0
 33 27  1  0  0  0  0
M  END
>  <minimizedAffinity>
-5.72106314

>  <minimizedRMSD>
1.67241108

$$$$
