
 OpenBabel03252501523D

 43 46  0  0  1  0  0  0  0  0999 V2000
   32.1960   29.1560   35.1830 C   0  0  0  0  0  0  0  0  0  0  0  0
   31.9240   28.1510   34.7510 H   0  0  0  0  0  0  0  0  0  0  0  0
   32.9350   29.5920   34.4800 H   0  0  0  0  0  0  0  0  0  0  0  0
   31.0490   29.9930   35.2770 N   0  0  0  0  0  0  0  0  0  0  0  0
   30.8680   30.4580   36.6300 C   0  0  0  0  0  0  0  0  0  0  0  0
   30.2420   31.8160   36.5630 C   0  0  0  0  0  0  0  0  0  0  0  0
   30.7540   32.3510   35.2520 C   0  0  0  0  0  0  0  0  0  0  0  0
   31.1520   31.1500   34.4360 C   0  0  2  0  0  0  0  0  0  0  0  0
   31.8620   30.5980   37.1070 H   0  0  0  0  0  0  0  0  0  0  0  0
   30.2920   29.7140   37.2110 H   0  0  0  0  0  0  0  0  0  0  0  0
   30.5100   32.4620   37.4190 H   0  0  0  0  0  0  0  0  0  0  0  0
   29.1290   31.6660   36.5690 H   0  0  0  0  0  0  0  0  0  0  0  0
   29.8980   32.8390   34.7280 H   0  0  0  0  0  0  0  0  0  0  0  0
   31.5570   33.0800   35.3870 H   0  0  0  0  0  0  0  0  0  0  0  0
   32.2330   31.2680   34.2100 H   0  0  0  0  0  0  0  0  0  0  0  0
   30.3790   31.0430   33.1740 C   0  0  0  0  0  0  0  0  0  0  0  0
   29.9770   32.3710   32.9410 C   0  0  0  0  0  0  0  0  0  0  0  0
   29.9630   33.4390   33.2440 H   0  0  0  0  0  0  0  0  0  0  0  0
   28.9900   32.2210   31.3300 S   0  0  0  0  0  0  0  0  0  0  0  0
   29.3400   30.3550   31.3170 C   0  0  0  0  0  0  0  0  0  0  0  0
   29.2390   29.2220   30.8120 H   0  0  0  0  0  0  0  0  0  0  0  0
   29.9530   30.2150   32.2470 N   0  0  0  0  0  0  0  0  0  0  0  0
   34.1990   28.9050   36.6090 C   0  0  0  0  0  3  0  0  0  0  0  0
   32.8670   28.9570   36.5190 C   0  0  0  0  0  3  0  0  0  0  0  0
   34.3240   29.0980   39.1560 C   0  0  0  0  0  0  0  0  0  0  0  0
   34.8770   28.7090   37.9140 C   0  0  0  0  0  0  0  0  0  0  0  0
   36.1470   28.0960   37.8840 C   0  0  0  0  0  0  0  0  0  0  0  0
   36.7900   27.9050   39.0700 N   0  0  0  0  0  0  0  0  0  0  0  0
   36.2410   28.2840   40.2230 C   0  0  0  0  0  0  0  0  0  0  0  0
   35.0300   28.8680   40.2440 N   0  0  0  0  0  0  0  0  0  0  0  0
   33.3590   29.5560   39.0990 H   0  0  0  0  0  0  0  0  0  0  0  0
   36.5910   27.7900   36.9560 H   0  0  0  0  0  0  0  0  0  0  0  0
   37.0800   30.3970   41.8010 F   0  0  0  0  0  0  0  0  0  0  0  0
   37.3660   29.1460   42.2430 C   0  0  0  0  0  0  0  0  0  0  0  0
   36.9590   28.0630   41.4750 C   0  0  0  0  0  0  0  0  0  0  0  0
   37.2120   26.7620   41.8580 C   0  0  0  0  0  0  0  0  0  0  0  0
   37.8990   26.5620   43.0540 C   0  0  0  0  0  0  0  0  0  0  0  0
   38.3210   27.6340   43.8480 C   0  0  0  0  0  0  0  0  0  0  0  0
   38.0490   28.9240   43.4320 C   0  0  0  0  0  0  0  0  0  0  0  0
   36.8790   25.9500   41.2330 H   0  0  0  0  0  0  0  0  0  0  0  0
   38.0920   25.5430   43.3450 H   0  0  0  0  0  0  0  0  0  0  0  0
   38.8490   27.4090   44.7650 H   0  0  0  0  0  0  0  0  0  0  0  0
   38.3710   29.7550   44.0370 H   0  0  0  0  0  0  0  0  0  0  0  0
  1  4  1  0  0  0  0
  1 24  1  0  0  0  0
  2  1  1  0  0  0  0
  3  1  1  0  0  0  0
  4  5  1  0  0  0  0
  5  9  1  0  0  0  0
  5 10  1  0  0  0  0
  6 12  1  0  0  0  0
  6  5  1  0  0  0  0
  6 11  1  0  0  0  0
  7 14  1  0  0  0  0
  7  6  1  0  0  0  0
  8 15  1  6  0  0  0
  8  7  1  0  0  0  0
  8  4  1  0  0  0  0
 13  7  1  0  0  0  0
 16  8  1  0  0  0  0
 17 16  2  0  0  0  0
 17 18  1  0  0  0  0
 19 17  1  0  0  0  0
 20 19  1  0  0  0  0
 20 22  2  0  0  0  0
 21 20  1  0  0  0  0
 22 16  1  0  0  0  0
 23 26  1  0  0  0  0
 24 23  2  0  0  0  0
 25 30  1  0  0  0  0
 26 25  2  0  0  0  0
 27 26  1  0  0  0  0
 27 28  2  0  0  0  0
 28 29  1  0  0  0  0
 29 30  2  0  0  0  0
 29 35  1  0  0  0  0
 31 25  1  0  0  0  0
 32 27  1  0  0  0  0
 33 34  1  0  0  0  0
 34 39  1  0  0  0  0
 35 36  1  0  0  0  0
 35 34  2  0  0  0  0
 36 37  2  0  0  0  0
 37 41  1  0  0  0  0
 37 38  1  0  0  0  0
 38 42  1  0  0  0  0
 39 38  2  0  0  0  0
 39 43  1  0  0  0  0
 40 36  1  0  0  0  0
M  END
>  <minimizedAffinity>
-6.02973747

$$$$

 OpenBabel03252501523D

 43 46  0  0  1  0  0  0  0  0999 V2000
   36.3480   28.3690   39.4690 C   0  0  0  0  0  0  0  0  0  0  0  0
   37.3360   28.1660   38.9670 H   0  0  0  0  0  0  0  0  0  0  0  0
   35.9400   27.3730   39.7360 H   0  0  0  0  0  0  0  0  0  0  0  0
   36.5270   29.1590   40.6390 N   0  0  0  0  0  0  0  0  0  0  0  0
   36.4450   28.3410   41.8230 C   0  0  0  0  0  0  0  0  0  0  0  0
   37.3420   28.9470   42.8570 C   0  0  0  0  0  0  0  0  0  0  0  0
   38.4060   29.6100   42.0230 C   0  0  0  0  0  0  0  0  0  0  0  0
   37.8010   29.8170   40.6590 C   0  0  2  0  0  0  0  0  0  0  0  0
   36.8610   27.3330   41.6040 H   0  0  0  0  0  0  0  0  0  0  0  0
   35.3900   28.2340   42.1360 H   0  0  0  0  0  0  0  0  0  0  0  0
   37.7570   28.2050   43.5630 H   0  0  0  0  0  0  0  0  0  0  0  0
   36.7240   29.6820   43.4390 H   0  0  0  0  0  0  0  0  0  0  0  0
   38.5980   30.6200   42.4570 H   0  0  0  0  0  0  0  0  0  0  0  0
   39.3380   29.0400   42.0100 H   0  0  0  0  0  0  0  0  0  0  0  0
   38.4430   29.2620   39.9420 H   0  0  0  0  0  0  0  0  0  0  0  0
   37.7400   31.2500   40.2810 C   0  0  0  0  0  0  0  0  0  0  0  0
   38.8660   31.7920   40.9290 C   0  0  0  0  0  0  0  0  0  0  0  0
   39.7600   31.6620   41.5740 H   0  0  0  0  0  0  0  0  0  0  0  0
   38.7760   33.6210   40.4390 S   0  0  0  0  0  0  0  0  0  0  0  0
   37.2020   33.2530   39.4420 C   0  0  0  0  0  0  0  0  0  0  0  0
   36.2580   33.6030   38.7110 H   0  0  0  0  0  0  0  0  0  0  0  0
   37.0630   32.1500   39.6040 N   0  0  0  0  0  0  0  0  0  0  0  0
   34.4210   28.3200   37.9220 C   0  0  0  0  0  3  0  0  0  0  0  0
   35.4130   29.0190   38.4800 C   0  0  0  0  0  3  0  0  0  0  0  0
   32.1900   29.3880   37.2720 C   0  0  0  0  0  0  0  0  0  0  0  0
   33.4920   28.9430   36.9470 C   0  0  0  0  0  0  0  0  0  0  0  0
   33.9630   29.0860   35.6240 C   0  0  0  0  0  0  0  0  0  0  0  0
   33.1280   29.6560   34.7110 N   0  0  0  0  0  0  0  0  0  0  0  0
   31.9060   30.0640   35.0500 C   0  0  0  0  0  0  0  0  0  0  0  0
   31.4650   29.9240   36.3120 N   0  0  0  0  0  0  0  0  0  0  0  0
   31.9040   29.2460   38.2930 H   0  0  0  0  0  0  0  0  0  0  0  0
   34.9460   28.7580   35.3500 H   0  0  0  0  0  0  0  0  0  0  0  0
   31.3670   32.7790   35.0470 F   0  0  0  0  0  0  0  0  0  0  0  0
   30.7890   32.0360   34.0710 C   0  0  0  0  0  0  0  0  0  0  0  0
   31.0390   30.6700   34.0430 C   0  0  0  0  0  0  0  0  0  0  0  0
   30.4890   29.8470   33.0810 C   0  0  0  0  0  0  0  0  0  0  0  0
   29.6620   30.4350   32.1250 C   0  0  0  0  0  0  0  0  0  0  0  0
   29.3930   31.8080   32.1280 C   0  0  0  0  0  0  0  0  0  0  0  0
   29.9630   32.6000   33.1080 C   0  0  0  0  0  0  0  0  0  0  0  0
   30.7080   28.7930   33.0950 H   0  0  0  0  0  0  0  0  0  0  0  0
   29.2370   29.7860   31.3780 H   0  0  0  0  0  0  0  0  0  0  0  0
   28.7430   32.1990   31.3570 H   0  0  0  0  0  0  0  0  0  0  0  0
   29.7610   33.6580   33.1180 H   0  0  0  0  0  0  0  0  0  0  0  0
  1  3  1  0  0  0  0
  1  4  1  0  0  0  0
  2  1  1  0  0  0  0
  4  8  1  0  0  0  0
  4  5  1  0  0  0  0
  5 10  1  0  0  0  0
  5  6  1  0  0  0  0
  6 12  1  0  0  0  0
  6 11  1  0  0  0  0
  7 13  1  0  0  0  0
  7  6  1  0  0  0  0
  8 15  1  6  0  0  0
  8  7  1  0  0  0  0
  9  5  1  0  0  0  0
 14  7  1  0  0  0  0
 16  8  1  0  0  0  0
 16 17  2  0  0  0  0
 17 18  1  0  0  0  0
 19 17  1  0  0  0  0
 20 22  2  0  0  0  0
 20 19  1  0  0  0  0
 21 20  1  0  0  0  0
 22 16  1  0  0  0  0
 23 24  2  0  0  0  0
 24  1  1  0  0  0  0
 25 31  1  0  0  0  0
 26 25  1  0  0  0  0
 26 23  1  0  0  0  0
 27 26  2  0  0  0  0
 28 29  2  0  0  0  0
 28 27  1  0  0  0  0
 29 30  1  0  0  0  0
 30 25  2  0  0  0  0
 32 27  1  0  0  0  0
 34 33  1  0  0  0  0
 35 34  1  0  0  0  0
 35 29  1  0  0  0  0
 36 40  1  0  0  0  0
 36 35  2  0  0  0  0
 37 38  2  0  0  0  0
 37 36  1  0  0  0  0
 38 39  1  0  0  0  0
 39 43  1  0  0  0  0
 39 34  2  0  0  0  0
 41 37  1  0  0  0  0
 42 38  1  0  0  0  0
M  END
>  <minimizedAffinity>
-5.89951277

$$$$

 OpenBabel03252501523D

 43 46  0  0  1  0  0  0  0  0999 V2000
   36.2390   28.1010   38.9610 C   0  0  0  0  0  0  0  0  0  0  0  0
   36.9370   27.3220   38.5420 H   0  0  0  0  0  0  0  0  0  0  0  0
   35.5570   27.5530   39.6440 H   0  0  0  0  0  0  0  0  0  0  0  0
   36.9610   29.0950   39.6790 N   0  0  0  0  0  0  0  0  0  0  0  0
   36.9860   30.3360   38.9430 C   0  0  0  0  0  0  0  0  0  0  0  0
   37.0200   31.4530   39.9400 C   0  0  0  0  0  0  0  0  0  0  0  0
   36.2960   30.8630   41.1220 C   0  0  0  0  0  0  0  0  0  0  0  0
   36.3820   29.3680   40.9610 C   0  0  2  0  0  0  0  0  0  0  0  0
   36.0330   30.4490   38.3820 H   0  0  0  0  0  0  0  0  0  0  0  0
   37.8280   30.3340   38.2270 H   0  0  0  0  0  0  0  0  0  0  0  0
   36.5440   32.3800   39.5700 H   0  0  0  0  0  0  0  0  0  0  0  0
   38.1000   31.6700   40.1540 H   0  0  0  0  0  0  0  0  0  0  0  0
   36.8710   31.1310   42.0390 H   0  0  0  0  0  0  0  0  0  0  0  0
   35.2750   31.2390   41.2130 H   0  0  0  0  0  0  0  0  0  0  0  0
   35.3360   28.9960   40.9090 H   0  0  0  0  0  0  0  0  0  0  0  0
   37.0940   28.7190   42.0890 C   0  0  0  0  0  0  0  0  0  0  0  0
   38.4330   28.7240   41.6580 C   0  0  0  0  0  0  0  0  0  0  0  0
   39.1960   28.9790   40.8920 H   0  0  0  0  0  0  0  0  0  0  0  0
   39.3310   27.8930   43.1050 S   0  0  0  0  0  0  0  0  0  0  0  0
   37.6670   27.7120   44.0020 C   0  0  0  0  0  0  0  0  0  0  0  0
   36.9750   27.3500   44.9710 H   0  0  0  0  0  0  0  0  0  0  0  0
   36.9460   28.1710   43.2740 N   0  0  0  0  0  0  0  0  0  0  0  0
   34.0970   28.5080   37.7960 C   0  0  0  0  0  3  0  0  0  0  0  0
   35.4200   28.6890   37.8400 C   0  0  0  0  0  3  0  0  0  0  0  0
   33.7310   29.2290   35.3700 C   0  0  0  0  0  0  0  0  0  0  0  0
   33.2760   29.0780   36.7000 C   0  0  0  0  0  0  0  0  0  0  0  0
   31.9670   29.4850   37.0340 C   0  0  0  0  0  0  0  0  0  0  0  0
   31.1920   30.0110   36.0440 N   0  0  0  0  0  0  0  0  0  0  0  0
   31.6520   30.1410   34.8010 C   0  0  0  0  0  0  0  0  0  0  0  0
   32.9010   29.7510   34.4900 N   0  0  0  0  0  0  0  0  0  0  0  0
   34.7330   28.8990   35.1940 H   0  0  0  0  0  0  0  0  0  0  0  0
   31.5950   29.3820   38.0350 H   0  0  0  0  0  0  0  0  0  0  0  0
   31.0810   32.8480   34.7230 F   0  0  0  0  0  0  0  0  0  0  0  0
   30.5280   32.0740   33.7560 C   0  0  0  0  0  0  0  0  0  0  0  0
   30.7940   30.7100   33.7660 C   0  0  0  0  0  0  0  0  0  0  0  0
   30.2690   29.8580   32.8160 C   0  0  0  0  0  0  0  0  0  0  0  0
   29.4500   30.4110   31.8330 C   0  0  0  0  0  0  0  0  0  0  0  0
   29.1650   31.7800   31.7980 C   0  0  0  0  0  0  0  0  0  0  0  0
   29.7100   32.6030   32.7660 C   0  0  0  0  0  0  0  0  0  0  0  0
   30.5000   28.8060   32.8600 H   0  0  0  0  0  0  0  0  0  0  0  0
   29.0450   29.7390   31.0960 H   0  0  0  0  0  0  0  0  0  0  0  0
   28.5230   32.1450   31.0080 H   0  0  0  0  0  0  0  0  0  0  0  0
   29.4950   33.6590   32.7470 H   0  0  0  0  0  0  0  0  0  0  0  0
  1  3  1  0  0  0  0
  1  4  1  0  0  0  0
  2  1  1  0  0  0  0
  4  8  1  0  0  0  0
  5  4  1  0  0  0  0
  5  6  1  0  0  0  0
  6 12  1  0  0  0  0
  6  7  1  0  0  0  0
  7 14  1  0  0  0  0
  7 13  1  0  0  0  0
  8 15  1  6  0  0  0
  8  7  1  0  0  0  0
  8 16  1  0  0  0  0
  9  5  1  0  0  0  0
 10  5  1  0  0  0  0
 11  6  1  0  0  0  0
 16 22  1  0  0  0  0
 17 16  2  0  0  0  0
 17 19  1  0  0  0  0
 18 17  1  0  0  0  0
 19 20  1  0  0  0  0
 20 21  1  0  0  0  0
 22 20  2  0  0  0  0
 23 24  2  0  0  0  0
 24  1  1  0  0  0  0
 25 26  1  0  0  0  0
 26 27  2  0  0  0  0
 26 23  1  0  0  0  0
 27 32  1  0  0  0  0
 28 27  1  0  0  0  0
 29 28  2  0  0  0  0
 30 29  1  0  0  0  0
 30 25  2  0  0  0  0
 31 25  1  0  0  0  0
 34 35  1  0  0  0  0
 34 33  1  0  0  0  0
 35 29  1  0  0  0  0
 36 40  1  0  0  0  0
 36 35  2  0  0  0  0
 37 36  1  0  0  0  0
 38 37  2  0  0  0  0
 38 39  1  0  0  0  0
 39 34  2  0  0  0  0
 41 37  1  0  0  0  0
 42 38  1  0  0  0  0
 43 39  1  0  0  0  0
M  END
>  <minimizedAffinity>
-5.83126545

$$$$

 OpenBabel03252501523D

 43 46  0  0  1  0  0  0  0  0999 V2000
   32.6170   29.2940   35.1850 C   0  0  0  0  0  0  0  0  0  0  0  0
   32.4980   28.2910   34.6840 H   0  0  0  0  0  0  0  0  0  0  0  0
   33.2710   29.8860   34.5140 H   0  0  0  0  0  0  0  0  0  0  0  0
   31.3560   29.9350   35.3390 N   0  0  0  0  0  0  0  0  0  0  0  0
   31.1370   30.3030   36.7160 C   0  0  0  0  0  0  0  0  0  0  0  0
   30.3040   31.5470   36.7270 C   0  0  0  0  0  0  0  0  0  0  0  0
   30.6950   32.2160   35.4350 C   0  0  0  0  0  0  0  0  0  0  0  0
   31.2570   31.1310   34.5550 C   0  0  2  0  0  0  0  0  0  0  0  0
   32.1080   30.5750   37.1840 H   0  0  0  0  0  0  0  0  0  0  0  0
   30.6980   29.4520   37.2700 H   0  0  0  0  0  0  0  0  0  0  0  0
   30.4890   32.1870   37.6090 H   0  0  0  0  0  0  0  0  0  0  0  0
   29.2290   31.2230   36.7430 H   0  0  0  0  0  0  0  0  0  0  0  0
   29.7610   32.5870   34.9500 H   0  0  0  0  0  0  0  0  0  0  0  0
   31.3770   33.0550   35.5930 H   0  0  0  0  0  0  0  0  0  0  0  0
   32.3000   31.4280   34.3170 H   0  0  0  0  0  0  0  0  0  0  0  0
   30.4790   30.9620   33.3030 C   0  0  0  0  0  0  0  0  0  0  0  0
   30.0550   32.2730   33.0190 C   0  0  0  0  0  0  0  0  0  0  0  0
   30.0260   33.3520   33.2790 H   0  0  0  0  0  0  0  0  0  0  0  0
   29.0640   32.0440   31.4200 S   0  0  0  0  0  0  0  0  0  0  0  0
   29.4430   30.1840   31.4800 C   0  0  0  0  0  0  0  0  0  0  0  0
   29.3580   29.0300   31.0210 H   0  0  0  0  0  0  0  0  0  0  0  0
   30.0620   30.0910   32.4110 N   0  0  0  0  0  0  0  0  0  0  0  0
   34.6180   28.7660   36.5370 C   0  0  0  0  0  3  0  0  0  0  0  0
   33.3270   29.1090   36.5030 C   0  0  0  0  0  3  0  0  0  0  0  0
   35.7710   29.6440   38.6450 C   0  0  0  0  0  0  0  0  0  0  0  0
   35.3330   28.5790   37.8230 C   0  0  0  0  0  0  0  0  0  0  0  0
   35.5760   27.2500   38.2270 C   0  0  0  0  0  0  0  0  0  0  0  0
   36.2310   27.0520   39.4060 N   0  0  0  0  0  0  0  0  0  0  0  0
   36.6310   28.0780   40.1550 C   0  0  0  0  0  0  0  0  0  0  0  0
   36.3960   29.3430   39.7640 N   0  0  0  0  0  0  0  0  0  0  0  0
   35.5510   30.6230   38.2730 H   0  0  0  0  0  0  0  0  0  0  0  0
   35.2540   26.4220   37.6250 H   0  0  0  0  0  0  0  0  0  0  0  0
   39.3640   27.6480   40.2290 F   0  0  0  0  0  0  0  0  0  0  0  0
   38.7030   27.6160   41.4140 C   0  0  0  0  0  0  0  0  0  0  0  0
   37.3310   27.8280   41.4120 C   0  0  0  0  0  0  0  0  0  0  0  0
   36.5890   27.8120   42.5760 C   0  0  0  0  0  0  0  0  0  0  0  0
   37.2660   27.5720   43.7700 C   0  0  0  0  0  0  0  0  0  0  0  0
   38.6480   27.3560   43.8020 C   0  0  0  0  0  0  0  0  0  0  0  0
   39.3570   27.3790   42.6160 C   0  0  0  0  0  0  0  0  0  0  0  0
   35.5260   27.9820   42.5310 H   0  0  0  0  0  0  0  0  0  0  0  0
   36.6800   27.5620   44.6740 H   0  0  0  0  0  0  0  0  0  0  0  0
   39.1110   27.1760   44.7620 H   0  0  0  0  0  0  0  0  0  0  0  0
   40.4220   27.2130   42.6310 H   0  0  0  0  0  0  0  0  0  0  0  0
  1  4  1  0  0  0  0
  1 24  1  0  0  0  0
  2  1  1  0  0  0  0
  3  1  1  0  0  0  0
  4  5  1  0  0  0  0
  5  6  1  0  0  0  0
  5  9  1  0  0  0  0
  5 10  1  0  0  0  0
  6 12  1  0  0  0  0
  6 11  1  0  0  0  0
  7 14  1  0  0  0  0
  7  6  1  0  0  0  0
  8 15  1  6  0  0  0
  8  4  1  0  0  0  0
  8  7  1  0  0  0  0
 13  7  1  0  0  0  0
 16  8  1  0  0  0  0
 17 18  1  0  0  0  0
 17 16  2  0  0  0  0
 19 20  1  0  0  0  0
 19 17  1  0  0  0  0
 20 22  2  0  0  0  0
 21 20  1  0  0  0  0
 22 16  1  0  0  0  0
 23 26  1  0  0  0  0
 24 23  2  0  0  0  0
 25 30  1  0  0  0  0
 26 27  1  0  0  0  0
 26 25  2  0  0  0  0
 27 28  2  0  0  0  0
 28 29  1  0  0  0  0
 29 35  1  0  0  0  0
 30 29  2  0  0  0  0
 31 25  1  0  0  0  0
 32 27  1  0  0  0  0
 33 34  1  0  0  0  0
 34 39  1  0  0  0  0
 35 34  2  0  0  0  0
 35 36  1  0  0  0  0
 36 37  2  0  0  0  0
 37 38  1  0  0  0  0
 37 41  1  0  0  0  0
 38 42  1  0  0  0  0
 39 43  1  0  0  0  0
 39 38  2  0  0  0  0
 40 36  1  0  0  0  0
M  END
>  <minimizedAffinity>
-5.81102705

$$$$

 OpenBabel03252501523D

 43 46  0  0  1  0  0  0  0  0999 V2000
   36.9010   27.3530   40.4550 C   0  0  0  0  0  0  0  0  0  0  0  0
   37.9130   27.3950   39.9600 H   0  0  0  0  0  0  0  0  0  0  0  0
   36.7800   26.3050   40.7970 H   0  0  0  0  0  0  0  0  0  0  0  0
   36.8420   28.2450   41.5620 N   0  0  0  0  0  0  0  0  0  0  0  0
   36.6310   27.5180   42.7900 C   0  0  0  0  0  0  0  0  0  0  0  0
   37.3120   28.2740   43.8880 C   0  0  0  0  0  0  0  0  0  0  0  0
   38.4460   28.9540   43.1660 C   0  0  0  0  0  0  0  0  0  0  0  0
   38.0480   29.0030   41.7140 C   0  0  2  0  0  0  0  0  0  0  0  0
   37.1430   26.5330   42.7270 H   0  0  0  0  0  0  0  0  0  0  0  0
   35.5490   27.3510   42.9490 H   0  0  0  0  0  0  0  0  0  0  0  0
   37.6610   27.6260   44.7120 H   0  0  0  0  0  0  0  0  0  0  0  0
   36.5620   29.0000   44.3020 H   0  0  0  0  0  0  0  0  0  0  0  0
   38.4990   30.0060   43.5320 H   0  0  0  0  0  0  0  0  0  0  0  0
   39.4050   28.4610   43.3450 H   0  0  0  0  0  0  0  0  0  0  0  0
   38.8310   28.4470   41.1550 H   0  0  0  0  0  0  0  0  0  0  0  0
   37.9510   30.3920   41.2030 C   0  0  0  0  0  0  0  0  0  0  0  0
   39.2070   30.9350   41.5310 C   0  0  0  0  0  0  0  0  0  0  0  0
   40.2170   30.8210   41.9790 H   0  0  0  0  0  0  0  0  0  0  0  0
   39.0690   32.7070   40.8750 S   0  0  0  0  0  0  0  0  0  0  0  0
   37.3050   32.3270   40.2870 C   0  0  0  0  0  0  0  0  0  0  0  0
   36.2340   32.6530   39.7410 H   0  0  0  0  0  0  0  0  0  0  0  0
   37.1700   31.2560   40.5940 N   0  0  0  0  0  0  0  0  0  0  0  0
   36.0820   28.4770   38.4110 C   0  0  0  0  0  3  0  0  0  0  0  0
   35.8360   27.6470   39.4290 C   0  0  0  0  0  3  0  0  0  0  0  0
   35.3290   29.0230   36.0290 C   0  0  0  0  0  0  0  0  0  0  0  0
   35.0460   28.7780   37.3930 C   0  0  0  0  0  0  0  0  0  0  0  0
   33.7080   28.8150   37.8400 C   0  0  0  0  0  0  0  0  0  0  0  0
   32.7390   29.0890   36.9230 N   0  0  0  0  0  0  0  0  0  0  0  0
   33.0390   29.3160   35.6450 C   0  0  0  0  0  0  0  0  0  0  0  0
   34.3160   29.2800   35.2270 N   0  0  0  0  0  0  0  0  0  0  0  0
   36.3650   28.9790   35.7660 H   0  0  0  0  0  0  0  0  0  0  0  0
   33.4650   28.6320   38.8680 H   0  0  0  0  0  0  0  0  0  0  0  0
   31.7450   27.2990   34.2600 F   0  0  0  0  0  0  0  0  0  0  0  0
   31.3440   28.5720   34.0130 C   0  0  0  0  0  0  0  0  0  0  0  0
   31.9730   29.6080   34.6910 C   0  0  0  0  0  0  0  0  0  0  0  0
   31.6210   30.9280   34.4940 C   0  0  0  0  0  0  0  0  0  0  0  0
   30.6030   31.1950   33.5810 C   0  0  0  0  0  0  0  0  0  0  0  0
   29.9520   30.1720   32.8830 C   0  0  0  0  0  0  0  0  0  0  0  0
   30.3310   28.8620   33.1070 C   0  0  0  0  0  0  0  0  0  0  0  0
   32.1340   31.7020   35.0400 H   0  0  0  0  0  0  0  0  0  0  0  0
   30.3340   32.2280   33.4330 H   0  0  0  0  0  0  0  0  0  0  0  0
   29.1700   30.4490   32.1900 H   0  0  0  0  0  0  0  0  0  0  0  0
   29.8360   28.0680   32.5750 H   0  0  0  0  0  0  0  0  0  0  0  0
  1  3  1  0  0  0  0
  1  4  1  0  0  0  0
  2  1  1  0  0  0  0
  4  8  1  0  0  0  0
  4  5  1  0  0  0  0
  5 10  1  0  0  0  0
  5  6  1  0  0  0  0
  6 12  1  0  0  0  0
  6 11  1  0  0  0  0
  7 14  1  0  0  0  0
  7 13  1  0  0  0  0
  7  6  1  0  0  0  0
  8 15  1  6  0  0  0
  8  7  1  0  0  0  0
  9  5  1  0  0  0  0
 16 17  2  0  0  0  0
 16  8  1  0  0  0  0
 17 18  1  0  0  0  0
 19 17  1  0  0  0  0
 20 22  2  0  0  0  0
 20 19  1  0  0  0  0
 21 20  1  0  0  0  0
 22 16  1  0  0  0  0
 23 24  2  0  0  0  0
 24  1  1  0  0  0  0
 25 26  1  0  0  0  0
 26 27  2  0  0  0  0
 26 23  1  0  0  0  0
 27 32  1  0  0  0  0
 28 27  1  0  0  0  0
 29 28  2  0  0  0  0
 30 29  1  0  0  0  0
 30 25  2  0  0  0  0
 31 25  1  0  0  0  0
 34 33  1  0  0  0  0
 34 35  1  0  0  0  0
 35 29  1  0  0  0  0
 36 35  2  0  0  0  0
 36 40  1  0  0  0  0
 37 36  1  0  0  0  0
 38 39  1  0  0  0  0
 38 37  2  0  0  0  0
 39 34  2  0  0  0  0
 41 37  1  0  0  0  0
 42 38  1  0  0  0  0
 43 39  1  0  0  0  0
M  END
>  <minimizedAffinity>
-5.42257357

$$$$

 OpenBabel03252501523D

 43 46  0  0  1  0  0  0  0  0999 V2000
   40.0890   31.9380   41.3160 C   0  0  0  0  0  0  0  0  0  0  0  0
   41.2000   31.9250   41.5040 H   0  0  0  0  0  0  0  0  0  0  0  0
   39.6250   32.1960   42.2890 H   0  0  0  0  0  0  0  0  0  0  0  0
   39.7530   32.9120   40.3350 N   0  0  0  0  0  0  0  0  0  0  0  0
   38.4340   33.4430   40.5770 C   0  0  0  0  0  0  0  0  0  0  0  0
   38.4240   34.8650   40.1050 C   0  0  0  0  0  0  0  0  0  0  0  0
   39.8580   35.2860   40.2990 C   0  0  0  0  0  0  0  0  0  0  0  0
   40.6660   34.0160   40.3310 C   0  0  2  0  0  0  0  0  0  0  0  0
   38.2460   33.4780   41.6720 H   0  0  0  0  0  0  0  0  0  0  0  0
   37.6730   32.7970   40.1010 H   0  0  0  0  0  0  0  0  0  0  0  0
   37.7150   35.5030   40.6630 H   0  0  0  0  0  0  0  0  0  0  0  0
   38.1160   34.8510   39.0260 H   0  0  0  0  0  0  0  0  0  0  0  0
   40.1690   35.8550   39.3920 H   0  0  0  0  0  0  0  0  0  0  0  0
   39.9890   35.9150   41.1830 H   0  0  0  0  0  0  0  0  0  0  0  0
   41.1780   33.9930   41.3170 H   0  0  0  0  0  0  0  0  0  0  0  0
   41.6690   33.9590   39.2390 C   0  0  0  0  0  0  0  0  0  0  0  0
   42.8920   33.9800   39.9360 C   0  0  0  0  0  0  0  0  0  0  0  0
   43.4520   34.0160   40.8940 H   0  0  0  0  0  0  0  0  0  0  0  0
   44.1630   33.9080   38.5330 S   0  0  0  0  0  0  0  0  0  0  0  0
   42.7390   33.8660   37.2770 C   0  0  0  0  0  0  0  0  0  0  0  0
   42.3020   33.8190   36.1120 H   0  0  0  0  0  0  0  0  0  0  0  0
   41.8310   33.9020   37.9360 N   0  0  0  0  0  0  0  0  0  0  0  0
   38.8640   29.8330   41.7400 C   0  0  0  0  0  3  0  0  0  0  0  0
   39.6380   30.5530   40.9230 C   0  0  0  0  0  3  0  0  0  0  0  0
   37.4280   27.7450   42.0850 C   0  0  0  0  0  0  0  0  0  0  0  0
   38.4110   28.4700   41.3710 C   0  0  0  0  0  0  0  0  0  0  0  0
   39.0120   27.8870   40.2360 C   0  0  0  0  0  0  0  0  0  0  0  0
   38.6110   26.6350   39.8770 N   0  0  0  0  0  0  0  0  0  0  0  0
   37.6830   25.9790   40.5720 C   0  0  0  0  0  0  0  0  0  0  0  0
   37.1150   26.5410   41.6530 N   0  0  0  0  0  0  0  0  0  0  0  0
   37.0190   28.2520   42.9340 H   0  0  0  0  0  0  0  0  0  0  0  0
   39.7590   28.4130   39.6750 H   0  0  0  0  0  0  0  0  0  0  0  0
   39.1500   23.7410   41.2810 F   0  0  0  0  0  0  0  0  0  0  0  0
   38.0380   23.5370   40.5300 C   0  0  0  0  0  0  0  0  0  0  0  0
   37.2790   24.6380   40.1570 C   0  0  0  0  0  0  0  0  0  0  0  0
   36.1360   24.5110   39.3950 C   0  0  0  0  0  0  0  0  0  0  0  0
   35.7590   23.2280   39.0040 C   0  0  0  0  0  0  0  0  0  0  0  0
   36.5040   22.1000   39.3660 C   0  0  0  0  0  0  0  0  0  0  0  0
   37.6440   22.2670   40.1300 C   0  0  0  0  0  0  0  0  0  0  0  0
   35.5750   25.3920   39.1270 H   0  0  0  0  0  0  0  0  0  0  0  0
   34.8650   23.1380   38.4100 H   0  0  0  0  0  0  0  0  0  0  0  0
   36.1560   21.1330   39.0300 H   0  0  0  0  0  0  0  0  0  0  0  0
   38.2230   21.4040   40.4120 H   0  0  0  0  0  0  0  0  0  0  0  0
  1  2  1  0  0  0  0
  1  3  1  0  0  0  0
  4  5  1  0  0  0  0
  4  1  1  0  0  0  0
  5  9  1  0  0  0  0
  6  7  1  0  0  0  0
  6  5  1  0  0  0  0
  6 11  1  0  0  0  0
  7  8  1  0  0  0  0
  7 14  1  0  0  0  0
  8  4  1  0  0  0  0
  8 15  1  1  0  0  0
 10  5  1  0  0  0  0
 12  6  1  0  0  0  0
 13  7  1  0  0  0  0
 16 17  2  0  0  0  0
 16  8  1  0  0  0  0
 17 18  1  0  0  0  0
 19 17  1  0  0  0  0
 20 22  2  0  0  0  0
 20 19  1  0  0  0  0
 21 20  1  0  0  0  0
 22 16  1  0  0  0  0
 24  1  1  0  0  0  0
 24 23  2  0  0  0  0
 25 31  1  0  0  0  0
 26 23  1  0  0  0  0
 26 25  2  0  0  0  0
 27 26  1  0  0  0  0
 28 27  2  0  0  0  0
 28 29  1  0  0  0  0
 29 30  2  0  0  0  0
 30 25  1  0  0  0  0
 32 27  1  0  0  0  0
 34 33  1  0  0  0  0
 35 34  1  0  0  0  0
 35 29  1  0  0  0  0
 36 35  2  0  0  0  0
 37 38  2  0  0  0  0
 37 36  1  0  0  0  0
 38 39  1  0  0  0  0
 39 43  1  0  0  0  0
 39 34  2  0  0  0  0
 40 36  1  0  0  0  0
 41 37  1  0  0  0  0
 42 38  1  0  0  0  0
M  END
>  <minimizedAffinity>
-5.35338974

$$$$

 OpenBabel03252501523D

 43 46  0  0  1  0  0  0  0  0999 V2000
   36.8460   24.9010   38.1530 C   0  0  0  0  0  0  0  0  0  0  0  0
   37.8790   25.1600   37.7840 H   0  0  0  0  0  0  0  0  0  0  0  0
   36.5160   24.0420   37.5360 H   0  0  0  0  0  0  0  0  0  0  0  0
   36.8770   24.5380   39.5290 N   0  0  0  0  0  0  0  0  0  0  0  0
   37.0520   23.1140   39.6750 C   0  0  0  0  0  0  0  0  0  0  0  0
   37.8160   22.8780   40.9410 C   0  0  0  0  0  0  0  0  0  0  0  0
   38.6460   24.1300   41.0630 C   0  0  0  0  0  0  0  0  0  0  0  0
   37.9480   25.1770   40.2350 C   0  0  2  0  0  0  0  0  0  0  0  0
   37.6930   22.7350   38.8500 H   0  0  0  0  0  0  0  0  0  0  0  0
   36.0700   22.6060   39.6310 H   0  0  0  0  0  0  0  0  0  0  0  0
   38.4320   21.9610   40.9130 H   0  0  0  0  0  0  0  0  0  0  0  0
   37.0620   22.7730   41.7660 H   0  0  0  0  0  0  0  0  0  0  0  0
   38.6020   24.4630   42.1260 H   0  0  0  0  0  0  0  0  0  0  0  0
   39.6880   23.9650   40.7790 H   0  0  0  0  0  0  0  0  0  0  0  0
   38.6750   25.5010   39.4600 H   0  0  0  0  0  0  0  0  0  0  0  0
   37.5190   26.3430   41.0460 C   0  0  0  0  0  0  0  0  0  0  0  0
   38.3480   26.2560   42.1800 C   0  0  0  0  0  0  0  0  0  0  0  0
   39.1550   25.7430   42.7450 H   0  0  0  0  0  0  0  0  0  0  0  0
   37.7900   27.7480   43.2060 S   0  0  0  0  0  0  0  0  0  0  0  0
   36.5290   28.1780   41.8540 C   0  0  0  0  0  0  0  0  0  0  0  0
   35.6220   28.8880   41.3840 H   0  0  0  0  0  0  0  0  0  0  0  0
   36.6980   27.3670   41.0960 N   0  0  0  0  0  0  0  0  0  0  0  0
   34.7700   25.8800   37.2370 C   0  0  0  0  0  3  0  0  0  0  0  0
   35.9200   26.0630   37.8910 C   0  0  0  0  0  3  0  0  0  0  0  0
   32.7220   26.9250   36.1160 C   0  0  0  0  0  0  0  0  0  0  0  0
   33.8470   27.0100   36.9690 C   0  0  0  0  0  0  0  0  0  0  0  0
   34.1310   28.2300   37.6190 C   0  0  0  0  0  0  0  0  0  0  0  0
   33.2970   29.2820   37.3890 N   0  0  0  0  0  0  0  0  0  0  0  0
   32.2460   29.1690   36.5780 C   0  0  0  0  0  0  0  0  0  0  0  0
   31.9820   28.0030   35.9630 N   0  0  0  0  0  0  0  0  0  0  0  0
   32.5710   25.9690   35.6590 H   0  0  0  0  0  0  0  0  0  0  0  0
   34.9770   28.3230   38.2720 H   0  0  0  0  0  0  0  0  0  0  0  0
   32.2810   30.5700   34.1920 F   0  0  0  0  0  0  0  0  0  0  0  0
   31.4170   31.0000   35.1460 C   0  0  0  0  0  0  0  0  0  0  0  0
   31.3750   30.3190   36.3560 C   0  0  0  0  0  0  0  0  0  0  0  0
   30.5230   30.6940   37.3740 C   0  0  0  0  0  0  0  0  0  0  0  0
   29.6950   31.7940   37.1520 C   0  0  0  0  0  0  0  0  0  0  0  0
   29.7160   32.4980   35.9440 C   0  0  0  0  0  0  0  0  0  0  0  0
   30.5830   32.0920   34.9460 C   0  0  0  0  0  0  0  0  0  0  0  0
   30.5210   30.1390   38.2970 H   0  0  0  0  0  0  0  0  0  0  0  0
   29.0340   32.0800   37.9520 H   0  0  0  0  0  0  0  0  0  0  0  0
   29.0480   33.3420   35.8360 H   0  0  0  0  0  0  0  0  0  0  0  0
   30.6060   32.6290   34.0130 H   0  0  0  0  0  0  0  0  0  0  0  0
  1  4  1  0  0  0  0
  2  1  1  0  0  0  0
  3  1  1  0  0  0  0
  4  5  1  0  0  0  0
  4  8  1  0  0  0  0
  5  6  1  0  0  0  0
  6  7  1  0  0  0  0
  6 12  1  0  0  0  0
  7 13  1  0  0  0  0
  8 15  1  6  0  0  0
  8 16  1  0  0  0  0
  8  7  1  0  0  0  0
  9  5  1  0  0  0  0
 10  5  1  0  0  0  0
 11  6  1  0  0  0  0
 14  7  1  0  0  0  0
 16 22  1  0  0  0  0
 16 17  2  0  0  0  0
 17 18  1  0  0  0  0
 17 19  1  0  0  0  0
 20 19  1  0  0  0  0
 21 20  1  0  0  0  0
 22 20  2  0  0  0  0
 23 24  2  0  0  0  0
 24  1  1  0  0  0  0
 25 26  1  0  0  0  0
 26 23  1  0  0  0  0
 26 27  2  0  0  0  0
 27 32  1  0  0  0  0
 28 27  1  0  0  0  0
 29 28  2  0  0  0  0
 30 25  2  0  0  0  0
 30 29  1  0  0  0  0
 31 25  1  0  0  0  0
 33 34  1  0  0  0  0
 34 35  1  0  0  0  0
 35 29  1  0  0  0  0
 35 36  2  0  0  0  0
 36 40  1  0  0  0  0
 37 36  1  0  0  0  0
 37 41  1  0  0  0  0
 38 37  2  0  0  0  0
 39 34  2  0  0  0  0
 39 38  1  0  0  0  0
 42 38  1  0  0  0  0
 43 39  1  0  0  0  0
M  END
>  <minimizedAffinity>
-5.27088451

$$$$

 OpenBabel03252501523D

 43 46  0  0  1  0  0  0  0  0999 V2000
   33.0590   29.5190   34.9440 C   0  0  0  0  0  0  0  0  0  0  0  0
   33.1180   28.9310   33.9850 H   0  0  0  0  0  0  0  0  0  0  0  0
   33.6670   30.4310   34.7730 H   0  0  0  0  0  0  0  0  0  0  0  0
   31.7130   29.8720   35.2410 N   0  0  0  0  0  0  0  0  0  0  0  0
   31.5160   29.9770   36.6660 C   0  0  0  0  0  0  0  0  0  0  0  0
   30.4670   31.0190   36.9030 C   0  0  0  0  0  0  0  0  0  0  0  0
   30.6430   31.9380   35.7230 C   0  0  0  0  0  0  0  0  0  0  0  0
   31.3420   31.1290   34.6620 C   0  0  2  0  0  0  0  0  0  0  0  0
   32.4470   30.3600   37.1380 H   0  0  0  0  0  0  0  0  0  0  0  0
   31.2800   28.9830   37.0890 H   0  0  0  0  0  0  0  0  0  0  0  0
   30.5840   31.5410   37.8700 H   0  0  0  0  0  0  0  0  0  0  0  0
   29.4750   30.4930   36.9030 H   0  0  0  0  0  0  0  0  0  0  0  0
   29.6270   32.1880   35.3350 H   0  0  0  0  0  0  0  0  0  0  0  0
   31.1640   32.8600   35.9900 H   0  0  0  0  0  0  0  0  0  0  0  0
   32.2940   31.6560   34.4400 H   0  0  0  0  0  0  0  0  0  0  0  0
   30.5320   31.0030   33.4250 C   0  0  0  0  0  0  0  0  0  0  0  0
   30.0870   32.3200   33.2070 C   0  0  0  0  0  0  0  0  0  0  0  0
   30.0550   33.3870   33.5120 H   0  0  0  0  0  0  0  0  0  0  0  0
   29.0550   32.1450   31.6280 S   0  0  0  0  0  0  0  0  0  0  0  0
   29.4540   30.2890   31.6000 C   0  0  0  0  0  0  0  0  0  0  0  0
   29.3680   29.1540   31.0960 H   0  0  0  0  0  0  0  0  0  0  0  0
   30.1000   30.1650   32.5100 N   0  0  0  0  0  0  0  0  0  0  0  0
   34.8700   29.0950   36.5720 C   0  0  0  0  0  3  0  0  0  0  0  0
   33.6970   28.7210   36.0540 C   0  0  0  0  0  3  0  0  0  0  0  0
   35.3370   28.6040   39.0390 C   0  0  0  0  0  0  0  0  0  0  0  0
   35.5130   28.3230   37.6640 C   0  0  0  0  0  0  0  0  0  0  0  0
   36.3430   27.2490   37.2780 C   0  0  0  0  0  0  0  0  0  0  0  0
   36.9440   26.5240   38.2630 N   0  0  0  0  0  0  0  0  0  0  0  0
   36.7580   26.8170   39.5490 C   0  0  0  0  0  0  0  0  0  0  0  0
   35.9660   27.8420   39.9090 N   0  0  0  0  0  0  0  0  0  0  0  0
   34.6950   29.4330   39.2530 H   0  0  0  0  0  0  0  0  0  0  0  0
   36.4940   27.0120   36.2430 H   0  0  0  0  0  0  0  0  0  0  0  0
   35.8610   24.2840   40.2150 F   0  0  0  0  0  0  0  0  0  0  0  0
   36.9430   24.7500   40.8860 C   0  0  0  0  0  0  0  0  0  0  0  0
   37.4200   26.0180   40.5770 C   0  0  0  0  0  0  0  0  0  0  0  0
   38.5160   26.5610   41.2160 C   0  0  0  0  0  0  0  0  0  0  0  0
   39.1400   25.7910   42.1950 C   0  0  0  0  0  0  0  0  0  0  0  0
   38.6820   24.5110   42.5280 C   0  0  0  0  0  0  0  0  0  0  0  0
   37.5810   24.0000   41.8660 C   0  0  0  0  0  0  0  0  0  0  0  0
   38.8530   27.5480   40.9450 H   0  0  0  0  0  0  0  0  0  0  0  0
   39.9950   26.2220   42.6880 H   0  0  0  0  0  0  0  0  0  0  0  0
   39.2130   23.9670   43.2970 H   0  0  0  0  0  0  0  0  0  0  0  0
   37.2220   23.0160   42.1160 H   0  0  0  0  0  0  0  0  0  0  0  0
  1  4  1  0  0  0  0
  1 24  1  0  0  0  0
  2  1  1  0  0  0  0
  3  1  1  0  0  0  0
  4  5  1  0  0  0  0
  5  6  1  0  0  0  0
  5 10  1  0  0  0  0
  5  9  1  0  0  0  0
  6 11  1  0  0  0  0
  7 14  1  0  0  0  0
  7  6  1  0  0  0  0
  8 15  1  6  0  0  0
  8  4  1  0  0  0  0
  8  7  1  0  0  0  0
 12  6  1  0  0  0  0
 13  7  1  0  0  0  0
 16  8  1  0  0  0  0
 17 16  2  0  0  0  0
 17 18  1  0  0  0  0
 19 17  1  0  0  0  0
 20 19  1  0  0  0  0
 20 22  2  0  0  0  0
 21 20  1  0  0  0  0
 22 16  1  0  0  0  0
 23 26  1  0  0  0  0
 24 23  2  0  0  0  0
 25 31  1  0  0  0  0
 25 30  1  0  0  0  0
 26 25  2  0  0  0  0
 27 26  1  0  0  0  0
 27 28  2  0  0  0  0
 28 29  1  0  0  0  0
 29 30  2  0  0  0  0
 29 35  1  0  0  0  0
 32 27  1  0  0  0  0
 33 34  1  0  0  0  0
 34 39  1  0  0  0  0
 35 34  2  0  0  0  0
 35 36  1  0  0  0  0
 36 37  2  0  0  0  0
 37 38  1  0  0  0  0
 37 41  1  0  0  0  0
 38 42  1  0  0  0  0
 39 43  1  0  0  0  0
 39 38  2  0  0  0  0
 40 36  1  0  0  0  0
M  END
>  <minimizedAffinity>
-5.24749708

$$$$

 OpenBabel03252501523D

 43 46  0  0  1  0  0  0  0  0999 V2000
   37.1610   25.3150   41.8580 C   0  0  0  0  0  0  0  0  0  0  0  0
   36.2000   25.2010   41.2810 H   0  0  0  0  0  0  0  0  0  0  0  0
   36.8800   25.2150   42.9260 H   0  0  0  0  0  0  0  0  0  0  0  0
   38.0930   24.3020   41.4950 N   0  0  0  0  0  0  0  0  0  0  0  0
   37.4450   23.2640   40.7320 C   0  0  0  0  0  0  0  0  0  0  0  0
   38.4530   22.7080   39.7750 C   0  0  0  0  0  0  0  0  0  0  0  0
   39.3560   23.8870   39.5250 C   0  0  0  0  0  0  0  0  0  0  0  0
   39.1670   24.8150   40.6960 C   0  0  2  0  0  0  0  0  0  0  0  0
   36.6400   23.7130   40.1100 H   0  0  0  0  0  0  0  0  0  0  0  0
   36.9980   22.5170   41.4150 H   0  0  0  0  0  0  0  0  0  0  0  0
   38.0000   22.3150   38.8470 H   0  0  0  0  0  0  0  0  0  0  0  0
   38.9740   21.8630   40.3000 H   0  0  0  0  0  0  0  0  0  0  0  0
   40.4090   23.5210   39.5580 H   0  0  0  0  0  0  0  0  0  0  0  0
   39.1670   24.3560   38.5560 H   0  0  0  0  0  0  0  0  0  0  0  0
   38.8050   25.7790   40.2800 H   0  0  0  0  0  0  0  0  0  0  0  0
   40.4250   25.0310   41.4530 C   0  0  0  0  0  0  0  0  0  0  0  0
   41.3340   25.4080   40.4460 C   0  0  0  0  0  0  0  0  0  0  0  0
   41.5530   25.6170   39.3790 H   0  0  0  0  0  0  0  0  0  0  0  0
   42.9340   25.6790   41.4240 S   0  0  0  0  0  0  0  0  0  0  0  0
   42.0120   25.2150   43.0180 C   0  0  0  0  0  0  0  0  0  0  0  0
   41.9700   25.0280   44.2470 H   0  0  0  0  0  0  0  0  0  0  0  0
   40.9740   25.0020   42.6460 N   0  0  0  0  0  0  0  0  0  0  0  0
   37.0900   27.5580   40.8220 C   0  0  0  0  0  3  0  0  0  0  0  0
   37.7120   26.7020   41.6370 C   0  0  0  0  0  3  0  0  0  0  0  0
   37.1620   29.7830   39.5620 C   0  0  0  0  0  0  0  0  0  0  0  0
   37.6160   28.9250   40.5910 C   0  0  0  0  0  0  0  0  0  0  0  0
   38.6290   29.3710   41.4660 C   0  0  0  0  0  0  0  0  0  0  0  0
   39.1290   30.6240   41.2740 N   0  0  0  0  0  0  0  0  0  0  0  0
   38.6790   31.4060   40.2940 C   0  0  0  0  0  0  0  0  0  0  0  0
   37.7130   30.9740   39.4640 N   0  0  0  0  0  0  0  0  0  0  0  0
   36.3930   29.3750   38.9390 H   0  0  0  0  0  0  0  0  0  0  0  0
   38.9930   28.7430   42.2550 H   0  0  0  0  0  0  0  0  0  0  0  0
   41.1850   31.7920   39.1840 F   0  0  0  0  0  0  0  0  0  0  0  0
   40.4990   32.9020   39.5580 C   0  0  0  0  0  0  0  0  0  0  0  0
   39.2380   32.7440   40.1190 C   0  0  0  0  0  0  0  0  0  0  0  0
   38.4800   33.8230   40.5240 C   0  0  0  0  0  0  0  0  0  0  0  0
   39.0230   35.0950   40.3530 C   0  0  0  0  0  0  0  0  0  0  0  0
   40.2900   35.2850   39.7910 C   0  0  0  0  0  0  0  0  0  0  0  0
   41.0210   34.1790   39.3970 C   0  0  0  0  0  0  0  0  0  0  0  0
   37.5060   33.6560   40.9550 H   0  0  0  0  0  0  0  0  0  0  0  0
   38.4240   35.9320   40.6720 H   0  0  0  0  0  0  0  0  0  0  0  0
   40.6520   36.2980   39.6860 H   0  0  0  0  0  0  0  0  0  0  0  0
   41.9970   34.3160   38.9630 H   0  0  0  0  0  0  0  0  0  0  0  0
  1  3  1  0  0  0  0
  2  1  1  0  0  0  0
  4  1  1  0  0  0  0
  5 10  1  0  0  0  0
  5  4  1  0  0  0  0
  6 12  1  0  0  0  0
  6  5  1  0  0  0  0
  7 13  1  0  0  0  0
  7  6  1  0  0  0  0
  7  8  1  0  0  0  0
  8 15  1  6  0  0  0
  8 16  1  0  0  0  0
  8  4  1  0  0  0  0
  9  5  1  0  0  0  0
 11  6  1  0  0  0  0
 14  7  1  0  0  0  0
 16 22  1  0  0  0  0
 17 19  1  0  0  0  0
 17 16  2  0  0  0  0
 18 17  1  0  0  0  0
 19 20  1  0  0  0  0
 20 21  1  0  0  0  0
 22 20  2  0  0  0  0
 23 24  2  0  0  0  0
 24  1  1  0  0  0  0
 25 26  1  0  0  0  0
 26 23  1  0  0  0  0
 26 27  2  0  0  0  0
 27 32  1  0  0  0  0
 28 27  1  0  0  0  0
 29 28  2  0  0  0  0
 30 25  2  0  0  0  0
 30 29  1  0  0  0  0
 31 25  1  0  0  0  0
 33 34  1  0  0  0  0
 34 35  1  0  0  0  0
 35 29  1  0  0  0  0
 35 36  2  0  0  0  0
 36 40  1  0  0  0  0
 37 36  1  0  0  0  0
 37 41  1  0  0  0  0
 38 37  2  0  0  0  0
 39 34  2  0  0  0  0
 39 38  1  0  0  0  0
 42 38  1  0  0  0  0
 43 39  1  0  0  0  0
M  END
>  <minimizedAffinity>
-5.17493057

$$$$
