
 OpenBabel03252503193D

 37 40  0  0  0  0  0  0  0  0999 V2000
   45.8470   33.9650   40.6850 C   0  0  0  0  0  0  0  0  0  0  0  0
   44.5270   33.6000   40.6590 C   0  0  0  0  0  0  0  0  0  0  0  0
   44.3410   32.9890   39.4620 N   0  0  0  0  0  0  0  0  0  0  0  0
   45.5000   32.9870   38.7970 C   0  0  0  0  0  0  0  0  0  0  0  0
   46.4270   33.5880   39.5490 N   0  0  0  0  0  0  0  0  0  0  0  0
   45.8140   32.4670   37.5110 N   0  0  0  0  0  0  0  0  0  0  0  0
   43.7970   33.7610   41.4160 H   0  0  0  0  0  0  0  0  0  0  0  0
   45.6910   33.1670   36.7250 H   0  0  0  0  0  0  0  0  0  0  0  0
   46.1380   31.4750   37.3660 H   0  0  0  0  0  0  0  0  0  0  0  0
   43.1260   32.4150   38.9310 C   0  0  0  0  0  0  0  0  0  0  0  0
   43.3740   31.7970   38.0190 H   0  0  0  0  0  0  0  0  0  0  0  0
   42.7240   31.6780   39.6540 H   0  0  0  0  0  0  0  0  0  0  0  0
   42.1190   33.4510   38.5380 C   0  0  0  0  0  0  0  0  0  0  0  0
   40.7550   33.0980   38.2450 C   0  0  0  0  0  0  0  0  0  0  0  0
   40.3720   32.1180   38.2820 H   0  0  0  0  0  0  0  0  0  0  0  0
   40.0440   34.7150   37.8460 S   0  0  0  0  0  0  0  0  0  0  0  0
   41.7000   35.6050   38.1390 C   0  0  0  0  0  0  0  0  0  0  0  0
   41.8490   36.6790   38.0300 H   0  0  0  0  0  0  0  0  0  0  0  0
   42.3860   34.7420   38.4280 N   0  0  0  0  0  0  0  0  0  0  0  0
   46.5720   34.6790   41.7930 C   0  0  0  0  0  0  0  0  0  0  0  0
   47.7450   35.1300   41.7130 O   0  0  0  0  0  0  0  0  0  0  0  0
   45.2730   36.0990   43.3040 C   0  0  0  0  0  0  0  0  0  0  0  0
   45.9220   34.8800   43.0410 C   0  0  0  0  0  0  0  0  0  0  0  0
   45.8570   33.9630   44.0730 C   0  0  0  0  0  0  0  0  0  0  0  0
   45.2340   34.1980   45.2260 N   0  0  0  0  0  0  0  0  0  0  0  0
   44.6190   35.4010   45.4270 C   0  0  0  0  0  0  0  0  0  0  0  0
   44.6460   36.3310   44.4700 N   0  0  0  0  0  0  0  0  0  0  0  0
   45.2660   36.8920   42.5520 H   0  0  0  0  0  0  0  0  0  0  0  0
   44.1100   35.6030   46.3610 H   0  0  0  0  0  0  0  0  0  0  0  0
   46.4960   32.6990   43.8830 C   0  0  0  0  0  0  0  0  0  0  0  0
   47.7660   32.2290   43.9380 C   0  0  0  0  0  0  0  0  0  0  0  0
   48.0870   30.9800   43.7120 C   0  0  0  0  0  0  0  0  0  0  0  0
   47.0640   30.1680   43.4160 C   0  0  0  0  0  0  0  0  0  0  0  0
   45.5850   31.2230   43.4590 S   0  0  0  0  0  0  0  0  0  0  0  0
   48.5020   33.0200   44.1960 H   0  0  0  0  0  0  0  0  0  0  0  0
   49.0830   30.5560   43.7440 H   0  0  0  0  0  0  0  0  0  0  0  0
   47.0890   29.0190   43.1750 H   0  0  0  0  0  0  0  0  0  0  0  0
  1 20  1  0  0  0  0
  2  1  2  0  0  0  0
  2  7  1  0  0  0  0
  3  2  1  0  0  0  0
  4  3  1  0  0  0  0
  4  5  2  0  0  0  0
  5  1  1  0  0  0  0
  6  4  1  0  0  0  0
  8  6  1  0  0  0  0
  9  6  1  0  0  0  0
 10  3  1  0  0  0  0
 10 12  1  0  0  0  0
 11 10  1  0  0  0  0
 13 10  1  0  0  0  0
 14 15  1  0  0  0  0
 14 13  2  0  0  0  0
 16 17  1  0  0  0  0
 16 14  1  0  0  0  0
 17 19  2  0  0  0  0
 18 17  1  0  0  0  0
 19 13  1  0  0  0  0
 20 23  1  0  0  0  0
 21 20  2  0  0  0  0
 22 27  1  0  0  0  0
 23 22  2  0  0  0  0
 23 24  1  0  0  0  0
 24 25  2  0  0  0  0
 25 26  1  0  0  0  0
 26 29  1  0  0  0  0
 27 26  2  0  0  0  0
 28 22  1  0  0  0  0
 30 31  2  0  0  0  0
 30 24  1  0  0  0  0
 31 35  1  0  0  0  0
 32 36  1  0  0  0  0
 32 31  1  0  0  0  0
 33 34  1  0  0  0  0
 33 32  2  0  0  0  0
 34 30  1  0  0  0  0
 37 33  1  0  0  0  0
M  END
>  <minimizedAffinity>
-5.21358538

>  <minimizedRMSD>
0.834964931

$$$$
