
 OpenBabel03252508593D

 43 45  0  0  1  0  0  0  0  0999 V2000
   47.1660   34.1520   43.0830 N   0  0  0  0  0  0  0  0  0  0  0  0
   46.6600   35.3500   42.5130 C   0  0  0  0  0  0  0  0  0  0  0  0
   45.1850   35.5940   42.7420 C   0  0  0  0  0  0  0  0  0  0  0  0
   44.6500   35.0580   44.0440 C   0  0  0  0  0  0  0  0  0  0  0  0
   45.7650   34.5080   44.9030 C   0  0  0  0  0  0  0  0  0  0  0  0
   46.4170   33.4130   43.9830 C   0  0  2  0  0  0  0  0  0  0  0  0
   46.8490   35.4870   41.4430 H   0  0  0  0  0  0  0  0  0  0  0  0
   47.2160   36.1850   43.0240 H   0  0  0  0  0  0  0  0  0  0  0  0
   44.5840   35.2260   41.8700 H   0  0  0  0  0  0  0  0  0  0  0  0
   45.0200   36.6920   42.7570 H   0  0  0  0  0  0  0  0  0  0  0  0
   43.9960   34.1960   43.7930 H   0  0  0  0  0  0  0  0  0  0  0  0
   44.0200   35.7940   44.5720 H   0  0  0  0  0  0  0  0  0  0  0  0
   46.4770   35.3220   45.0780 H   0  0  0  0  0  0  0  0  0  0  0  0
   45.3570   34.0310   45.7990 H   0  0  0  0  0  0  0  0  0  0  0  0
   45.5790   32.8140   43.5730 H   0  0  0  0  0  0  0  0  0  0  0  0
   48.1290   33.4750   42.2670 C   0  0  0  0  0  0  0  0  0  0  0  0
   48.7890   32.8430   42.8980 H   0  0  0  0  0  0  0  0  0  0  0  0
   48.7680   34.2500   41.7830 H   0  0  0  0  0  0  0  0  0  0  0  0
   47.4110   32.6450   41.2540 C   0  0  0  0  0  0  0  0  0  0  0  0
   47.4310   31.5720   41.4570 H   0  0  0  0  0  0  0  0  0  0  0  0
   46.3290   32.9520   41.1900 H   0  0  0  0  0  0  0  0  0  0  0  0
   49.3320   32.2650   38.0450 C   0  0  0  0  0  0  0  0  0  0  0  0
   48.7960   32.0010   39.3200 C   0  0  0  0  0  0  0  0  0  0  0  0
   47.9710   32.9330   39.9070 C   0  0  0  0  0  0  0  0  0  0  0  0
   47.7160   34.0610   39.2240 N   0  0  0  0  0  0  0  0  0  0  0  0
   48.2320   34.3030   38.0080 C   0  0  0  0  0  0  0  0  0  0  0  0
   49.0410   33.4140   37.4070 N   0  0  0  0  0  0  0  0  0  0  0  0
   49.9840   31.5170   37.5920 H   0  0  0  0  0  0  0  0  0  0  0  0
   49.0690   31.0590   39.7780 H   0  0  0  0  0  0  0  0  0  0  0  0
   47.9080   35.2620   37.6280 H   0  0  0  0  0  0  0  0  0  0  0  0
   47.2180   32.7280   44.8840 O   0  0  0  0  0  0  0  0  0  0  0  0
   46.1880   30.4860   43.8960 O   0  0  0  0  0  0  0  0  0  0  0  0
   46.6810   31.1640   45.1790 P   0  0  2  0  0  0  0  0  0  0  0  0
   45.2850   31.3170   46.1550 O   0  0  0  0  0  0  0  0  0  0  0  0
   45.4300   32.0220   46.8290 H   0  0  0  0  0  0  0  0  0  0  0  0
   47.7940   30.2560   46.0090 O   0  0  0  0  0  0  0  0  0  0  0  0
   47.5610   29.0030   46.5560 C   0  0  0  0  0  0  0  0  0  0  0  0
   48.5240   27.9390   46.7290 C   0  0  0  0  0  0  0  0  0  0  0  0
   49.5790   28.1870   46.3650 H   0  0  0  0  0  0  0  0  0  0  0  0
   47.4460   26.6020   47.5250 S   0  0  0  0  0  0  0  0  0  0  0  0
   45.9410   27.7590   47.4530 C   0  0  0  0  0  0  0  0  0  0  0  0
   45.0070   27.3420   47.8530 H   0  0  0  0  0  0  0  0  0  0  0  0
   46.3170   28.7670   46.9630 N   0  0  0  0  0  0  0  0  0  0  0  0
  1  6  1  0  0  0  0
  2  3  1  0  0  0  0
  2  8  1  0  0  0  0
  2  1  1  0  0  0  0
  3 10  1  0  0  0  0
  3  4  1  0  0  0  0
  4 12  1  0  0  0  0
  4  5  1  0  0  0  0
  5 13  1  0  0  0  0
  5 14  1  0  0  0  0
  6 15  1  6  0  0  0
  6 31  1  0  0  0  0
  6  5  1  0  0  0  0
  7  2  1  0  0  0  0
  9  3  1  0  0  0  0
 11  4  1  0  0  0  0
 16 17  1  0  0  0  0
 16  1  1  0  0  0  0
 18 16  1  0  0  0  0
 19 20  1  0  0  0  0
 19 16  1  0  0  0  0
 21 19  1  0  0  0  0
 22 23  1  0  0  0  0
 23 29  1  0  0  0  0
 23 24  2  0  0  0  0
 24 19  1  0  0  0  0
 25 24  1  0  0  0  0
 26 25  2  0  0  0  0
 27 26  1  0  0  0  0
 27 22  2  0  0  0  0
 28 22  1  0  0  0  0
 30 26  1  0  0  0  0
 31 33  1  0  0  0  0
 33 32  2  6  0  0  0
 33 36  1  0  0  0  0
 33 34  1  0  0  0  0
 34 35  1  0  0  0  0
 36 37  1  0  0  0  0
 37 38  2  0  0  0  0
 37 43  1  0  0  0  0
 38 40  1  0  0  0  0
 39 38  1  0  0  0  0
 41 40  1  0  0  0  0
 41 42  1  0  0  0  0
 43 41  2  0  0  0  0
M  END
>  <minimizedAffinity>
-3.95660353

>  <minimizedRMSD>
0.234377831

$$$$
