
 OpenBabel03252508363D

 29 31  0  0  0  0  0  0  0  0999 V2000
   46.2130   33.8630   40.1050 C   0  0  0  0  0  0  0  0  0  0  0  0
   45.5050   34.3050   41.1900 C   0  0  0  0  0  0  0  0  0  0  0  0
   46.2160   34.9940   42.1370 C   0  0  0  0  0  0  0  0  0  0  0  0
   47.5670   35.2510   42.0470 C   0  0  0  0  0  0  0  0  0  0  0  0
   48.2280   34.7820   40.9320 C   0  0  0  0  0  0  0  0  0  0  0  0
   47.5580   34.0840   39.9510 C   0  0  0  0  0  0  0  0  0  0  0  0
   45.6900   35.3590   43.0090 H   0  0  0  0  0  0  0  0  0  0  0  0
   48.1140   35.7980   42.8050 H   0  0  0  0  0  0  0  0  0  0  0  0
   49.2750   34.9800   40.8590 H   0  0  0  0  0  0  0  0  0  0  0  0
   42.2160   32.6190   41.9000 C   0  0  0  0  0  0  0  0  0  0  0  0
   43.5940   32.8600   41.8630 C   0  0  0  0  0  0  0  0  0  0  0  0
   44.0940   34.0170   41.2490 C   0  0  0  0  0  0  0  0  0  0  0  0
   43.1500   34.8470   40.7170 N   0  0  0  0  0  0  0  0  0  0  0  0
   41.8390   34.5980   40.7620 C   0  0  0  0  0  0  0  0  0  0  0  0
   41.3820   33.4820   41.3550 N   0  0  0  0  0  0  0  0  0  0  0  0
   41.7630   31.4350   42.5320 N   0  0  0  0  0  0  0  0  0  0  0  0
   44.2790   32.1540   42.3070 H   0  0  0  0  0  0  0  0  0  0  0  0
   41.1630   35.3260   40.3060 H   0  0  0  0  0  0  0  0  0  0  0  0
   42.2650   30.5450   42.5750 H   0  0  0  0  0  0  0  0  0  0  0  0
   40.8290   31.4390   43.0080 H   0  0  0  0  0  0  0  0  0  0  0  0
   48.2330   33.5710   38.7510 C   0  0  0  0  0  0  0  0  0  0  0  0
   49.0600   32.3370   38.8770 C   0  0  0  0  0  0  0  0  0  0  0  0
   49.2360   31.7580   39.7410 H   0  0  0  0  0  0  0  0  0  0  0  0
   49.6640   32.0920   37.2400 S   0  0  0  0  0  0  0  0  0  0  0  0
   48.7630   33.6320   36.5810 C   0  0  0  0  0  0  0  0  0  0  0  0
   48.6950   34.1170   35.5550 H   0  0  0  0  0  0  0  0  0  0  0  0
   48.2230   34.0490   37.5230 N   0  0  0  0  0  0  0  0  0  0  0  0
   44.9920   32.5060   38.2050 N   0  0  0  0  0  0  0  0  0  0  0  0
   45.5350   33.1240   39.0580 C   0  0  0  0  0  0  0  0  0  0  0  0
  1  2  1  0  0  0  0
  2 12  1  0  0  0  0
  2  3  2  0  0  0  0
  3  7  1  0  0  0  0
  4  3  1  0  0  0  0
  4  8  1  0  0  0  0
  5  4  2  0  0  0  0
  6  1  2  0  0  0  0
  6  5  1  0  0  0  0
  9  5  1  0  0  0  0
 10 16  1  0  0  0  0
 11 10  1  0  0  0  0
 11 17  1  0  0  0  0
 12 11  2  0  0  0  0
 13 14  2  0  0  0  0
 13 12  1  0  0  0  0
 14 15  1  0  0  0  0
 15 10  2  0  0  0  0
 16 19  1  0  0  0  0
 16 20  1  0  0  0  0
 18 14  1  0  0  0  0
 21 22  2  0  0  0  0
 21  6  1  0  0  0  0
 22 23  1  0  0  0  0
 24 22  1  0  0  0  0
 25 24  1  0  0  0  0
 25 27  2  0  0  0  0
 26 25  1  0  0  0  0
 27 21  1  0  0  0  0
 28 29  3  0  0  0  0
 29  1  1  0  0  0  0
M  END
>  <minimizedAffinity>
-4.90300083

>  <minimizedRMSD>
3.96890187

$$$$
