
 OpenBabel03252509263D

 28 30  0  0  1  0  0  0  0  0999 V2000
   46.8690   35.1510   41.9660 C   0  0  1  0  0  0  0  0  0  0  0  0
   48.4220   35.2140   42.0470 C   0  0  0  0  0  0  0  0  0  0  0  0
   47.5700   34.1560   41.2710 C   0  0  2  0  0  0  0  0  0  0  0  0
   46.4230   36.0360   41.4690 H   0  0  0  0  0  0  0  0  0  0  0  0
   48.9170   34.8910   42.9610 H   0  0  0  0  0  0  0  0  0  0  0  0
   48.8770   35.9480   41.3720 H   0  0  0  0  0  0  0  0  0  0  0  0
   47.7280   33.1170   41.6970 H   0  0  0  0  0  0  0  0  0  0  0  0
   44.7250   35.2210   45.0500 C   0  0  0  0  0  0  0  0  0  0  0  0
   45.2560   35.6190   43.7790 C   0  0  0  0  0  0  0  0  0  0  0  0
   46.2850   34.8600   43.3280 C   0  0  0  0  0  0  0  0  0  0  0  0
   46.7780   33.7900   44.0420 N   0  0  0  0  0  0  0  0  0  0  0  0
   46.2530   33.4490   45.2320 C   0  0  0  0  0  0  0  0  0  0  0  0
   45.2230   34.1670   45.7350 N   0  0  0  0  0  0  0  0  0  0  0  0
   43.8960   35.8450   45.3980 H   0  0  0  0  0  0  0  0  0  0  0  0
   46.6590   32.6080   45.7690 H   0  0  0  0  0  0  0  0  0  0  0  0
   44.7680   36.7300   43.0720 N   0  0  0  0  0  0  0  0  0  0  0  0
   45.4510   37.4540   43.4310 H   0  0  0  0  0  0  0  0  0  0  0  0
   43.9820   36.8510   42.3950 H   0  0  0  0  0  0  0  0  0  0  0  0
   47.6830   34.1480   39.7670 C   0  0  0  0  0  0  0  0  0  0  0  0
   48.6900   33.7990   39.4610 H   0  0  0  0  0  0  0  0  0  0  0  0
   47.6360   35.2080   39.4470 H   0  0  0  0  0  0  0  0  0  0  0  0
   46.6220   33.2990   39.1360 C   0  0  0  0  0  0  0  0  0  0  0  0
   46.5050   33.1630   37.7550 C   0  0  0  0  0  0  0  0  0  0  0  0
   47.1800   33.6680   37.0180 H   0  0  0  0  0  0  0  0  0  0  0  0
   45.0540   32.0230   37.5850 S   0  0  0  0  0  0  0  0  0  0  0  0
   44.8740   31.9420   39.4600 C   0  0  0  0  0  0  0  0  0  0  0  0
   44.1100   31.3610   39.9960 H   0  0  0  0  0  0  0  0  0  0  0  0
   45.7250   32.6180   39.8390 N   0  0  0  0  0  0  0  0  0  0  0  0
  1  4  1  6  0  0  0
  1  2  1  0  0  0  0
  1 10  1  0  0  0  0
  2  5  1  0  0  0  0
  3  7  1  1  0  0  0
  3  1  1  0  0  0  0
  3  2  1  0  0  0  0
  6  2  1  0  0  0  0
  8 14  1  0  0  0  0
  8 13  1  0  0  0  0
  9  8  2  0  0  0  0
 10  9  1  0  0  0  0
 10 11  2  0  0  0  0
 11 12  1  0  0  0  0
 12 13  2  0  0  0  0
 12 15  1  0  0  0  0
 16 17  1  0  0  0  0
 16  9  1  0  0  0  0
 18 16  1  0  0  0  0
 19  3  1  0  0  0  0
 20 19  1  0  0  0  0
 21 19  1  0  0  0  0
 22 19  1  0  0  0  0
 22 28  1  0  0  0  0
 23 22  2  0  0  0  0
 24 23  1  0  0  0  0
 25 23  1  0  0  0  0
 25 26  1  0  0  0  0
 26 28  2  0  0  0  0
 26 27  1  0  0  0  0
M  END
>  <minimizedAffinity>
-4.461761

>  <minimizedRMSD>
0.758445561

$$$$
