
 OpenBabel03252507043D

 45 48  0  0  0  0  0  0  0  0999 V2000
   41.9200   33.9150   41.2230 C   0  0  0  0  0  0  0  0  0  0  0  0
   41.5760   33.8900   42.2790 H   0  0  0  0  0  0  0  0  0  0  0  0
   42.1930   35.0160   41.0710 H   0  0  0  0  0  0  0  0  0  0  0  0
   41.0090   33.4640   40.3590 N   0  0  0  0  0  0  0  0  0  0  0  0
   40.3140   32.2190   40.3930 C   0  0  0  0  0  0  0  0  0  0  0  0
   38.9480   32.7210   40.8520 C   0  0  0  0  0  0  0  0  0  0  0  0
   38.3380   33.6810   39.9500 C   0  0  0  0  0  0  0  0  0  0  0  0
   39.1840   34.4580   39.0720 C   0  0  0  0  0  0  0  0  0  0  0  0
   40.6840   34.4010   39.2590 C   0  0  0  0  0  0  0  0  0  0  0  0
   40.6930   31.6160   41.2450 H   0  0  0  0  0  0  0  0  0  0  0  0
   40.2980   31.5950   39.5170 H   0  0  0  0  0  0  0  0  0  0  0  0
   39.0810   33.0920   41.9060 H   0  0  0  0  0  0  0  0  0  0  0  0
   38.3240   31.7890   40.9670 H   0  0  0  0  0  0  0  0  0  0  0  0
   37.5950   33.1360   39.2970 H   0  0  0  0  0  0  0  0  0  0  0  0
   37.7070   34.3930   40.5360 H   0  0  0  0  0  0  0  0  0  0  0  0
   38.8650   35.0960   38.3050 H   0  0  0  0  0  0  0  0  0  0  0  0
   41.8170   35.2830   38.3030 S   0  0  0  0  0  0  0  0  0  0  0  0
   41.2190   36.5790   37.2830 C   0  0  0  0  0  0  0  0  0  0  0  0
   41.1390   36.8460   35.8290 C   0  0  0  0  0  0  0  0  0  0  0  0
   41.5340   35.9070   35.1160 H   0  0  0  0  0  0  0  0  0  0  0  0
   40.4000   38.5780   35.7820 S   0  0  0  0  0  0  0  0  0  0  0  0
   40.3480   38.5900   37.6770 C   0  0  0  0  0  0  0  0  0  0  0  0
   39.9110   39.5970   37.9270 H   0  0  0  0  0  0  0  0  0  0  0  0
   40.7730   37.5780   38.0050 N   0  0  0  0  0  0  0  0  0  0  0  0
   43.2260   33.2070   41.1480 C   0  0  0  0  0  0  0  0  0  0  0  0
   43.5200   32.9710   40.1030 H   0  0  0  0  0  0  0  0  0  0  0  0
   43.2210   32.2270   41.7040 H   0  0  0  0  0  0  0  0  0  0  0  0
   44.2530   34.0570   41.7730 C   0  0  0  0  0  0  0  0  0  0  0  0
   43.8980   35.2400   42.3800 C   0  0  0  0  0  0  0  0  0  0  0  0
   44.8990   36.0180   42.9480 C   0  0  0  0  0  0  0  0  0  0  0  0
   46.1890   35.5610   42.8740 N   0  0  0  0  0  0  0  0  0  0  0  0
   46.4900   34.4130   42.2810 C   0  0  0  0  0  0  0  0  0  0  0  0
   45.5120   33.6810   41.7400 N   0  0  0  0  0  0  0  0  0  0  0  0
   42.9660   35.7510   42.5540 H   0  0  0  0  0  0  0  0  0  0  0  0
   44.8130   36.9730   43.4640 H   0  0  0  0  0  0  0  0  0  0  0  0
   47.8900   33.9950   42.2690 C   0  0  0  0  0  0  0  0  0  0  0  0
   48.2330   32.6670   42.0400 C   0  0  0  0  0  0  0  0  0  0  0  0
   49.5510   32.2800   42.0360 C   0  0  0  0  0  0  0  0  0  0  0  0
   50.4470   33.3060   42.2730 C   0  0  0  0  0  0  0  0  0  0  0  0
   50.1580   34.6470   42.5080 C   0  0  0  0  0  0  0  0  0  0  0  0
   48.8340   34.9440   42.4940 N   0  0  0  0  0  0  0  0  0  0  0  0
   47.4730   31.9040   41.8600 H   0  0  0  0  0  0  0  0  0  0  0  0
   49.9120   31.2910   41.8710 H   0  0  0  0  0  0  0  0  0  0  0  0
   51.5100   33.0580   42.2820 H   0  0  0  0  0  0  0  0  0  0  0  0
   50.9310   35.3600   42.6800 H   0  0  0  0  0  0  0  0  0  0  0  0
  1  2  1  0  0  0  0
  3  1  1  0  0  0  0
  4  5  1  0  0  0  0
  4  1  1  0  0  0  0
  5  6  1  0  0  0  0
  5 10  1  0  0  0  0
  6 13  1  0  0  0  0
  6 12  1  0  0  0  0
  7 15  1  0  0  0  0
  7  6  1  0  0  0  0
  8  9  2  0  0  0  0
  8  7  1  0  0  0  0
  9  4  1  0  0  0  0
 11  5  1  0  0  0  0
 14  7  1  0  0  0  0
 16  8  1  0  0  0  0
 17  9  1  0  0  0  0
 18 24  1  0  0  0  0
 18 17  1  0  0  0  0
 19 18  2  0  0  0  0
 20 19  1  0  0  0  0
 21 19  1  0  0  0  0
 21 22  1  0  0  0  0
 22 23  1  0  0  0  0
 22 24  2  0  0  0  0
 25  1  1  0  0  0  0
 25 27  1  0  0  0  0
 25 28  1  0  0  0  0
 26 25  1  0  0  0  0
 28 29  1  0  0  0  0
 29 34  1  0  0  0  0
 29 30  2  0  0  0  0
 30 35  1  0  0  0  0
 31 30  1  0  0  0  0
 32 31  2  0  0  0  0
 33 28  2  0  0  0  0
 33 32  1  0  0  0  0
 36 32  1  0  0  0  0
 36 41  1  0  0  0  0
 37 36  2  0  0  0  0
 38 37  1  0  0  0  0
 38 39  2  0  0  0  0
 39 44  1  0  0  0  0
 39 40  1  0  0  0  0
 40 45  1  0  0  0  0
 41 40  2  0  0  0  0
 42 37  1  0  0  0  0
 43 38  1  0  0  0  0
M  END
>  <minimizedAffinity>
-2.42068887

>  <minimizedRMSD>
0.304036617

$$$$
