
 OpenBabel03252505513D

 23 24  0  0  0  0  0  0  0  0999 V2000
   44.6980   35.1500   45.1650 C   0  0  0  0  0  0  0  0  0  0  0  0
   45.4100   34.9270   43.9880 C   0  0  0  0  0  0  0  0  0  0  0  0
   46.3570   33.9070   43.9860 C   0  0  0  0  0  0  0  0  0  0  0  0
   46.5440   33.1870   45.1060 N   0  0  0  0  0  0  0  0  0  0  0  0
   45.8490   33.4200   46.2230 C   0  0  0  0  0  0  0  0  0  0  0  0
   44.9170   34.3980   46.2800 N   0  0  0  0  0  0  0  0  0  0  0  0
   43.9460   35.9240   45.2440 H   0  0  0  0  0  0  0  0  0  0  0  0
   46.8900   33.7640   43.0540 H   0  0  0  0  0  0  0  0  0  0  0  0
   45.0840   35.8160   42.8180 C   0  0  0  0  0  0  0  0  0  0  0  0
   45.3010   37.0940   43.2410 F   0  0  0  0  0  0  0  0  0  0  0  0
   43.7300   35.6210   42.5560 F   0  0  0  0  0  0  0  0  0  0  0  0
   45.8680   35.4300   41.7640 F   0  0  0  0  0  0  0  0  0  0  0  0
   46.0190   32.6990   47.3860 O   0  0  0  0  0  0  0  0  0  0  0  0
   47.2810   32.3860   47.9160 C   0  0  0  0  0  0  0  0  0  0  0  0
   48.0820   33.0310   47.5000 H   0  0  0  0  0  0  0  0  0  0  0  0
   47.2790   32.6030   49.0030 H   0  0  0  0  0  0  0  0  0  0  0  0
   47.6160   30.9220   47.7820 C   0  0  0  0  0  0  0  0  0  0  0  0
   46.7180   29.9780   47.2290 C   0  0  0  0  0  0  0  0  0  0  0  0
   45.7340   30.1060   46.8410 H   0  0  0  0  0  0  0  0  0  0  0  0
   47.6430   28.4210   47.3240 S   0  0  0  0  0  0  0  0  0  0  0  0
   49.1260   29.3110   48.1110 C   0  0  0  0  0  0  0  0  0  0  0  0
   50.2260   29.0100   48.5150 H   0  0  0  0  0  0  0  0  0  0  0  0
   48.7580   30.3720   48.1560 N   0  0  0  0  0  0  0  0  0  0  0  0
  1  7  1  0  0  0  0
  1  6  1  0  0  0  0
  2  1  2  0  0  0  0
  3  2  1  0  0  0  0
  3  4  2  0  0  0  0
  4  5  1  0  0  0  0
  5  6  2  0  0  0  0
  5 13  1  0  0  0  0
  8  3  1  0  0  0  0
  9 10  1  0  0  0  0
  9  2  1  0  0  0  0
 11  9  1  0  0  0  0
 12  9  1  0  0  0  0
 13 14  1  0  0  0  0
 14 16  1  0  0  0  0
 15 14  1  0  0  0  0
 17 14  1  0  0  0  0
 17 23  1  0  0  0  0
 18 20  1  0  0  0  0
 18 17  2  0  0  0  0
 19 18  1  0  0  0  0
 20 21  1  0  0  0  0
 21 23  2  0  0  0  0
 21 22  1  0  0  0  0
M  END
>  <minimizedAffinity>
-4.38395786

>  <minimizedRMSD>
1.166906

$$$$
