
 OpenBabel03252509083D

 39 42  0  0  0  0  0  0  0  0999 V2000
   47.5870   31.7910   38.9460 C   0  0  0  0  0  0  0  0  0  0  0  0
   47.1590   33.0850   38.9590 C   0  0  0  0  0  0  0  0  0  0  0  0
   47.8080   34.0320   38.1850 C   0  0  0  0  0  0  0  0  0  0  0  0
   48.8780   33.6830   37.4020 C   0  0  0  0  0  0  0  0  0  0  0  0
   49.3480   32.3740   37.3580 C   0  0  0  0  0  0  0  0  0  0  0  0
   48.6800   31.4300   38.1480 C   0  0  0  0  0  0  0  0  0  0  0  0
   47.5020   35.0730   38.1640 H   0  0  0  0  0  0  0  0  0  0  0  0
   49.4530   34.3340   36.7660 H   0  0  0  0  0  0  0  0  0  0  0  0
   50.1710   31.9650   36.7910 H   0  0  0  0  0  0  0  0  0  0  0  0
   48.9970   30.3830   38.1600 H   0  0  0  0  0  0  0  0  0  0  0  0
   45.3860   35.4230   43.2110 Cl  0  0  0  0  0  0  0  0  0  0  0  0
   45.2020   34.6380   41.6660 C   0  0  0  0  0  0  0  0  0  0  0  0
   46.2790   34.2080   40.9580 C   0  0  0  0  0  0  0  0  0  0  0  0
   46.0280   33.5750   39.7500 C   0  0  0  0  0  0  0  0  0  0  0  0
   44.7510   33.3890   39.2850 C   0  0  0  0  0  0  0  0  0  0  0  0
   43.6840   33.8230   40.0010 C   0  0  0  0  0  0  0  0  0  0  0  0
   43.9210   34.4500   41.1990 C   0  0  0  0  0  0  0  0  0  0  0  0
   44.6240   32.8930   38.3410 H   0  0  0  0  0  0  0  0  0  0  0  0
   42.6750   33.6760   39.6350 H   0  0  0  0  0  0  0  0  0  0  0  0
   43.0590   34.7910   41.7620 H   0  0  0  0  0  0  0  0  0  0  0  0
   49.5750   35.7870   41.8950 C   0  0  0  0  0  0  0  0  0  0  0  0
   48.2950   35.5980   41.3640 C   0  0  0  0  0  0  0  0  0  0  0  0
   47.6060   34.4120   41.5060 C   0  0  0  0  0  0  0  0  0  0  0  0
   48.2700   33.4470   42.2020 N   0  0  0  0  0  0  0  0  0  0  0  0
   49.4890   33.6210   42.7120 C   0  0  0  0  0  0  0  0  0  0  0  0
   50.1340   34.7790   42.5590 N   0  0  0  0  0  0  0  0  0  0  0  0
   50.0720   36.7280   41.7590 H   0  0  0  0  0  0  0  0  0  0  0  0
   47.8090   36.3940   40.8190 H   0  0  0  0  0  0  0  0  0  0  0  0
   49.9530   32.8080   43.2530 H   0  0  0  0  0  0  0  0  0  0  0  0
   46.7820   30.6110   39.8430 S   0  0  0  0  0  0  0  0  0  0  0  0
   45.5530   30.0980   39.1220 O   0  0  0  0  0  0  0  0  0  0  0  0
   47.7610   29.3720   39.7380 O   0  0  0  0  0  0  0  0  0  0  0  0
   46.4790   30.7120   41.5370 C   0  0  0  0  0  0  0  0  0  0  0  0
   47.7220   30.0380   42.2970 C   0  0  0  0  0  0  0  0  0  0  0  0
   48.7040   29.5400   42.0110 H   0  0  0  0  0  0  0  0  0  0  0  0
   47.3230   30.1730   44.0510 S   0  0  0  0  0  0  0  0  0  0  0  0
   45.6900   31.0370   43.6500 C   0  0  0  0  0  0  0  0  0  0  0  0
   44.8520   31.4500   44.2090 H   0  0  0  0  0  0  0  0  0  0  0  0
   45.6850   31.0850   42.5100 N   0  0  0  0  0  0  0  0  0  0  0  0
  1  2  1  0  0  0  0
  1 30  1  0  0  0  0
  2 14  1  0  0  0  0
  3  2  2  0  0  0  0
  4  3  1  0  0  0  0
  5  4  2  0  0  0  0
  5  6  1  0  0  0  0
  6 10  1  0  0  0  0
  6  1  2  0  0  0  0
  7  3  1  0  0  0  0
  8  4  1  0  0  0  0
  9  5  1  0  0  0  0
 12 11  1  0  0  0  0
 13 23  1  0  0  0  0
 13 12  2  0  0  0  0
 14 13  1  0  0  0  0
 15 14  2  0  0  0  0
 15 16  1  0  0  0  0
 16 17  2  0  0  0  0
 17 12  1  0  0  0  0
 17 20  1  0  0  0  0
 18 15  1  0  0  0  0
 19 16  1  0  0  0  0
 21 26  1  0  0  0  0
 22 23  1  0  0  0  0
 22 21  2  0  0  0  0
 23 24  2  0  0  0  0
 24 25  1  0  0  0  0
 25 29  1  0  0  0  0
 26 25  2  0  0  0  0
 27 21  1  0  0  0  0
 28 22  1  0  0  0  0
 30 33  1  0  0  0  0
 31 30  2  0  0  0  0
 32 30  2  0  0  0  0
 33 34  2  0  0  0  0
 33 39  1  0  0  0  0
 34 36  1  0  0  0  0
 35 34  1  0  0  0  0
 37 36  1  0  0  0  0
 37 38  1  0  0  0  0
 39 37  2  0  0  0  0
M  END
>  <minimizedAffinity>
-4.68738461

>  <minimizedRMSD>
1.0910573

$$$$
