
 OpenBabel03252508033D

 40 43  0  0  1  0  0  0  0  0999 V2000
   44.2340   34.3610   41.5450 C   0  0  0  0  0  0  0  0  0  0  0  0
   45.1140   34.2490   40.6200 O   0  0  0  0  0  0  0  0  0  0  0  0
   42.0470   33.2740   41.1530 C   0  0  0  0  0  0  0  0  0  0  0  0
   42.7840   34.4100   41.3190 C   0  0  0  0  0  0  0  0  0  0  0  0
   42.1380   35.6530   41.2540 C   0  0  0  0  0  0  0  0  0  0  0  0
   40.7910   35.7880   41.0300 C   0  0  0  0  0  0  0  0  0  0  0  0
   40.0480   34.6530   40.8640 C   0  0  0  0  0  0  0  0  0  0  0  0
   40.6680   33.4440   40.9260 C   0  0  0  0  0  0  0  0  0  0  0  0
   42.6570   36.5930   41.3660 H   0  0  0  0  0  0  0  0  0  0  0  0
   40.2950   36.7410   40.9800 H   0  0  0  0  0  0  0  0  0  0  0  0
   38.9870   34.6270   40.6840 H   0  0  0  0  0  0  0  0  0  0  0  0
   40.0860   32.5170   40.7930 H   0  0  0  0  0  0  0  0  0  0  0  0
   42.7030   31.7190   41.2630 S   0  0  0  0  0  0  0  0  0  0  0  0
   41.5560   30.8720   40.6780 O   0  0  0  0  0  0  0  0  0  0  0  0
   42.8630   31.2740   42.6760 O   0  0  0  0  0  0  0  0  0  0  0  0
   43.7680   31.0130   40.1260 C   0  0  0  0  0  0  0  0  0  0  0  0
   43.3970   29.5080   39.8800 C   0  0  0  0  0  0  0  0  0  0  0  0
   42.5170   28.7720   40.3960 H   0  0  0  0  0  0  0  0  0  0  0  0
   44.4860   28.9990   38.6920 S   0  0  0  0  0  0  0  0  0  0  0  0
   45.3610   30.6070   38.5200 C   0  0  0  0  0  0  0  0  0  0  0  0
   46.1860   30.9160   37.8910 H   0  0  0  0  0  0  0  0  0  0  0  0
   44.7570   31.2250   39.3090 N   0  0  0  0  0  0  0  0  0  0  0  0
   44.5770   34.4570   42.9330 C   0  0  0  0  0  0  0  0  0  0  0  0
   44.3030   35.7050   43.5650 C   0  0  0  0  0  0  0  0  0  0  0  0
   44.6270   35.8070   44.9070 C   0  0  0  0  0  0  0  0  0  0  0  0
   45.1750   34.7330   45.5330 N   0  0  0  0  0  0  0  0  0  0  0  0
   45.4220   33.5500   44.8860 C   0  0  0  0  0  0  0  0  0  0  0  0
   45.1140   33.4800   43.6450 N   0  0  0  0  0  0  0  0  0  0  0  0
   43.8840   36.5880   43.1630 H   0  0  0  0  0  0  0  0  0  0  0  0
   44.4610   36.7180   45.4920 H   0  0  0  0  0  0  0  0  0  0  0  0
   46.0140   32.4340   45.6470 C   0  0  1  0  0  0  0  0  0  0  0  0
   46.9760   32.7550   46.7730 C   0  0  0  0  0  0  0  0  0  0  0  0
   45.5520   32.3450   47.0590 C   0  0  1  0  0  0  0  0  0  0  0  0
   46.1110   31.4600   45.1410 H   0  0  0  0  0  0  0  0  0  0  0  0
   47.7840   31.9940   46.9080 H   0  0  0  0  0  0  0  0  0  0  0  0
   47.2910   33.8010   46.7830 H   0  0  0  0  0  0  0  0  0  0  0  0
   45.4390   31.3550   47.5410 H   0  0  0  0  0  0  0  0  0  0  0  0
   44.7680   33.3940   47.6420 N   0  0  0  0  0  0  0  0  0  0  0  0
   43.9250   33.0710   48.1350 H   0  0  0  0  0  0  0  0  0  0  0  0
   45.3220   34.1180   48.1410 H   0  0  0  0  0  0  0  0  0  0  0  0
  1 23  1  0  0  0  0
  2  1  2  0  0  0  0
  3 13  1  0  0  0  0
  3  4  1  0  0  0  0
  4  1  1  0  0  0  0
  5  4  2  0  0  0  0
  5  9  1  0  0  0  0
  6  5  1  0  0  0  0
  7  8  1  0  0  0  0
  7  6  2  0  0  0  0
  8  3  2  0  0  0  0
 10  6  1  0  0  0  0
 11  7  1  0  0  0  0
 12  8  1  0  0  0  0
 13 15  2  0  0  0  0
 14 13  2  0  0  0  0
 16 13  1  0  0  0  0
 17 16  2  0  0  0  0
 17 18  1  0  0  0  0
 19 17  1  0  0  0  0
 20 19  1  0  0  0  0
 20 22  2  0  0  0  0
 21 20  1  0  0  0  0
 22 16  1  0  0  0  0
 23 24  2  0  0  0  0
 23 28  1  0  0  0  0
 24 25  1  0  0  0  0
 25 30  1  0  0  0  0
 25 26  2  0  0  0  0
 27 26  1  0  0  0  0
 27 31  1  0  0  0  0
 28 27  2  0  0  0  0
 29 24  1  0  0  0  0
 31 34  1  6  0  0  0
 31 32  1  0  0  0  0
 31 33  1  0  0  0  0
 32 36  1  0  0  0  0
 32 35  1  0  0  0  0
 32 33  1  0  0  0  0
 33 37  1  1  0  0  0
 33 38  1  0  0  0  0
 38 39  1  0  0  0  0
 38 40  1  0  0  0  0
M  END
>  <minimizedAffinity>
-5.678514

>  <minimizedRMSD>
1.15472865

$$$$
