
 OpenBabel03242513243D

 43 46  0  0  1  0  0  0  0  0999 V2000
   46.0160   30.3550   47.5520 C   0  0  2  0  0  0  0  0  0  0  0  0
   44.7550   30.9450   48.1750 C   0  0  0  0  0  0  0  0  0  0  0  0
   45.3780   31.4270   49.4800 C   0  0  0  0  0  0  0  0  0  0  0  0
   46.5760   31.9670   49.1090 O   0  0  0  0  0  0  0  0  0  0  0  0
   46.9920   31.4250   47.9160 C   0  0  1  0  0  0  0  0  0  0  0  0
   46.1780   29.3970   48.0460 H   0  0  0  0  0  0  0  0  0  0  0  0
   44.0350   30.1350   48.3310 H   0  0  0  0  0  0  0  0  0  0  0  0
   44.3670   31.7910   47.5800 H   0  0  0  0  0  0  0  0  0  0  0  0
   44.6730   32.1620   49.9490 H   0  0  0  0  0  0  0  0  0  0  0  0
   45.5000   30.5370   50.1360 H   0  0  0  0  0  0  0  0  0  0  0  0
   47.0210   32.2110   47.1430 H   0  0  0  0  0  0  0  0  0  0  0  0
   48.3770   30.8950   48.0700 C   0  0  1  0  0  0  0  0  0  0  0  0
   49.0400   31.3900   49.3360 C   0  0  0  0  0  0  0  0  0  0  0  0
   49.6980   30.1460   49.8680 C   0  0  0  0  0  0  0  0  0  0  0  0
   49.6630   29.2220   48.8310 O   0  0  0  0  0  0  0  0  0  0  0  0
   48.3610   29.3910   48.3590 C   0  0  0  0  0  0  0  0  0  0  0  0
   49.0110   31.0260   47.1740 H   0  0  0  0  0  0  0  0  0  0  0  0
   49.8040   32.1590   49.0380 H   0  0  0  0  0  0  0  0  0  0  0  0
   48.3180   31.8320   50.0560 H   0  0  0  0  0  0  0  0  0  0  0  0
   49.0410   29.7450   50.6710 H   0  0  0  0  0  0  0  0  0  0  0  0
   50.7220   30.3270   50.2540 H   0  0  0  0  0  0  0  0  0  0  0  0
   47.7160   29.1680   49.2550 H   0  0  0  0  0  0  0  0  0  0  0  0
   48.1140   28.8020   47.4760 H   0  0  0  0  0  0  0  0  0  0  0  0
   45.8720   30.1150   46.0970 C   0  0  0  0  0  0  0  0  0  0  0  0
   46.3650   29.1690   45.8320 H   0  0  0  0  0  0  0  0  0  0  0  0
   44.7980   30.0360   45.8060 H   0  0  0  0  0  0  0  0  0  0  0  0
   47.3330   30.8810   44.2980 C   0  0  0  0  0  0  0  0  0  0  0  0
   46.5040   31.1710   45.2590 C   0  0  0  0  0  0  0  0  0  0  0  0
   48.2320   34.1480   42.9620 C   0  0  0  0  0  0  0  0  0  0  0  0
   49.1240   33.8140   41.9130 C   0  0  0  0  0  0  0  0  0  0  0  0
   49.3930   32.4670   41.6970 C   0  0  0  0  0  0  0  0  0  0  0  0
   48.7810   31.5490   42.5090 N   0  0  0  0  0  0  0  0  0  0  0  0
   47.9380   31.9070   43.4950 C   0  0  0  0  0  0  0  0  0  0  0  0
   47.6640   33.1850   43.7220 N   0  0  0  0  0  0  0  0  0  0  0  0
   48.0390   35.2030   43.1090 H   0  0  0  0  0  0  0  0  0  0  0  0
   49.5770   34.5580   41.3070 H   0  0  0  0  0  0  0  0  0  0  0  0
   50.3140   32.0170   40.6250 C   0  0  0  0  0  0  0  0  0  0  0  0
   51.6720   31.7690   40.9440 C   0  0  0  0  0  0  0  0  0  0  0  0
   52.1600   31.8520   41.8440 H   0  0  0  0  0  0  0  0  0  0  0  0
   52.3430   31.2500   39.2840 S   0  0  0  0  0  0  0  0  0  0  0  0
   50.6370   31.4730   38.4790 C   0  0  0  0  0  0  0  0  0  0  0  0
   50.2880   31.3230   37.4190 H   0  0  0  0  0  0  0  0  0  0  0  0
   49.9660   31.8230   39.3610 N   0  0  0  0  0  0  0  0  0  0  0  0
  1  5  1  0  0  0  0
  1  6  1  1  0  0  0
  1  2  1  0  0  0  0
  2  7  1  0  0  0  0
  2  3  1  0  0  0  0
  3  9  1  0  0  0  0
  3 10  1  0  0  0  0
  4  3  1  0  0  0  0
  5 11  1  6  0  0  0
  5 12  1  0  0  0  0
  5  4  1  0  0  0  0
  8  2  1  0  0  0  0
 12 17  1  6  0  0  0
 12 16  1  0  0  0  0
 12 13  1  0  0  0  0
 13 14  1  0  0  0  0
 13 19  1  0  0  0  0
 14 21  1  0  0  0  0
 14 20  1  0  0  0  0
 15 14  1  0  0  0  0
 16 15  1  0  0  0  0
 16 22  1  0  0  0  0
 18 13  1  0  0  0  0
 23 16  1  0  0  0  0
 24  1  1  0  0  0  0
 25 24  1  0  0  0  0
 26 24  1  0  0  0  0
 27 28  2  0  0  0  0
 28 24  1  0  0  0  0
 29 35  1  0  0  0  0
 29 34  1  0  0  0  0
 30 29  2  0  0  0  0
 31 30  1  0  0  0  0
 31 32  2  0  0  0  0
 32 33  1  0  0  0  0
 33 34  2  0  0  0  0
 33 27  1  0  0  0  0
 36 30  1  0  0  0  0
 37 38  2  0  0  0  0
 37 31  1  0  0  0  0
 38 39  1  0  0  0  0
 40 38  1  0  0  0  0
 41 40  1  0  0  0  0
 41 43  2  0  0  0  0
 42 41  1  0  0  0  0
 43 37  1  0  0  0  0
M  END
>  <minimizedAffinity>
-4.76629543

>  <minimizedRMSD>
2.00441742

$$$$
