
 OpenBabel03252506153D

 37 39  0  0  0  0  0  0  0  0999 V2000
   45.3910   32.8700   41.5950 F   0  0  0  0  0  0  0  0  0  0  0  0
   46.4420   33.6170   41.3220 C   0  0  0  0  0  0  0  0  0  0  0  0
   46.7910   34.6130   42.2120 C   0  0  0  0  0  0  0  0  0  0  0  0
   47.8950   35.4710   42.0210 C   0  0  0  0  0  0  0  0  0  0  0  0
   48.6780   35.3000   40.8670 C   0  0  0  0  0  0  0  0  0  0  0  0
   48.2930   34.2970   40.0130 C   0  0  0  0  0  0  0  0  0  0  0  0
   47.2380   33.4720   40.1860 C   0  0  0  0  0  0  0  0  0  0  0  0
   48.1090   36.2370   42.7690 H   0  0  0  0  0  0  0  0  0  0  0  0
   49.5080   35.9790   40.7680 H   0  0  0  0  0  0  0  0  0  0  0  0
   48.9940   34.2800   39.1730 H   0  0  0  0  0  0  0  0  0  0  0  0
   45.4460   34.0990   45.5810 C   0  0  0  0  0  0  0  0  0  0  0  0
   44.5710   35.2040   45.7220 C   0  0  0  0  0  0  0  0  0  0  0  0
   44.4530   36.1240   44.6410 C   0  0  0  0  0  0  0  0  0  0  0  0
   45.2040   35.8750   43.5230 N   0  0  0  0  0  0  0  0  0  0  0  0
   46.0100   34.8290   43.4340 C   0  0  0  0  0  0  0  0  0  0  0  0
   46.1330   33.9450   44.4520 N   0  0  0  0  0  0  0  0  0  0  0  0
   43.9820   35.4100   46.5840 H   0  0  0  0  0  0  0  0  0  0  0  0
   43.7950   36.9780   44.7120 H   0  0  0  0  0  0  0  0  0  0  0  0
   45.5440   33.2070   46.6630 N   0  0  0  0  0  0  0  0  0  0  0  0
   45.5160   33.5350   47.6620 H   0  0  0  0  0  0  0  0  0  0  0  0
   45.6470   32.1750   46.4710 H   0  0  0  0  0  0  0  0  0  0  0  0
   46.9530   32.5080   39.2630 O   0  0  0  0  0  0  0  0  0  0  0  0
   44.8500   33.2130   37.8210 O   0  0  0  0  0  0  0  0  0  0  0  0
   46.2830   32.7280   37.7440 P   0  0  2  0  0  0  0  0  0  0  0  0
   46.3500   31.2750   36.8680 O   0  0  0  0  0  0  0  0  0  0  0  0
   45.2230   30.8920   36.1110 C   0  0  0  0  0  0  0  0  0  0  0  0
   44.8830   31.3660   34.7970 C   0  0  0  0  0  0  0  0  0  0  0  0
   45.4910   32.0430   34.3400 H   0  0  0  0  0  0  0  0  0  0  0  0
   43.3130   30.4000   34.5390 S   0  0  0  0  0  0  0  0  0  0  0  0
   43.4330   29.5640   36.2320 C   0  0  0  0  0  0  0  0  0  0  0  0
   42.6330   28.8850   36.4450 H   0  0  0  0  0  0  0  0  0  0  0  0
   44.4620   30.0010   36.7640 N   0  0  0  0  0  0  0  0  0  0  0  0
   47.1550   33.8390   36.8010 O   0  0  0  0  0  0  0  0  0  0  0  0
   48.4780   33.3900   36.6040 C   0  0  0  0  0  0  0  0  0  0  0  0
   48.5810   33.2240   35.2210 F   0  0  0  0  0  0  0  0  0  0  0  0
   49.3840   34.3620   36.9730 F   0  0  0  0  0  0  0  0  0  0  0  0
   48.7790   32.2480   37.2920 F   0  0  0  0  0  0  0  0  0  0  0  0
  2  1  1  0  0  0  0
  2  3  1  0  0  0  0
  3 15  1  0  0  0  0
  4  3  2  0  0  0  0
  4  8  1  0  0  0  0
  5  4  1  0  0  0  0
  6  7  1  0  0  0  0
  6  5  2  0  0  0  0
  7  2  2  0  0  0  0
  9  5  1  0  0  0  0
 10  6  1  0  0  0  0
 11 12  1  0  0  0  0
 11 19  1  0  0  0  0
 12 17  1  0  0  0  0
 13 18  1  0  0  0  0
 13 12  2  0  0  0  0
 14 13  1  0  0  0  0
 15 14  2  0  0  0  0
 15 16  1  0  0  0  0
 16 11  2  0  0  0  0
 19 20  1  0  0  0  0
 21 19  1  0  0  0  0
 22  7  1  0  0  0  0
 24 23  2  1  0  0  0
 24 22  1  0  0  0  0
 25 24  1  0  0  0  0
 26 32  1  0  0  0  0
 26 25  1  0  0  0  0
 27 26  2  0  0  0  0
 28 27  1  0  0  0  0
 29 27  1  0  0  0  0
 29 30  1  0  0  0  0
 30 31  1  0  0  0  0
 30 32  2  0  0  0  0
 33 24  1  0  0  0  0
 34 33  1  0  0  0  0
 34 36  1  0  0  0  0
 34 37  1  0  0  0  0
 35 34  1  0  0  0  0
M  END
>  <minimizedAffinity>
-5.73026514

>  <minimizedRMSD>
2.64901161

$$$$
