
 OpenBabel03252509043D

 46 48  0  0  1  0  0  0  0  0999 V2000
   46.9020   34.4350   43.2830 N   0  0  0  0  0  0  0  0  0  0  0  0
   46.5660   34.8860   41.9920 C   0  0  0  0  0  0  0  0  0  0  0  0
   45.1310   34.6230   41.5840 C   0  0  0  0  0  0  0  0  0  0  0  0
   44.1500   34.7540   42.7240 C   0  0  0  0  0  0  0  0  0  0  0  0
   44.8250   35.1450   44.0180 C   0  0  0  0  0  0  0  0  0  0  0  0
   45.9430   34.0510   44.1940 C   0  0  2  0  0  0  0  0  0  0  0  0
   47.2020   34.5520   41.1740 H   0  0  0  0  0  0  0  0  0  0  0  0
   46.6620   36.0120   42.0010 H   0  0  0  0  0  0  0  0  0  0  0  0
   44.8580   35.2300   40.7090 H   0  0  0  0  0  0  0  0  0  0  0  0
   45.1020   33.5600   41.2490 H   0  0  0  0  0  0  0  0  0  0  0  0
   43.5380   33.8740   42.9080 H   0  0  0  0  0  0  0  0  0  0  0  0
   43.4750   35.6040   42.4640 H   0  0  0  0  0  0  0  0  0  0  0  0
   45.3070   36.1270   43.9280 H   0  0  0  0  0  0  0  0  0  0  0  0
   44.0990   35.0500   44.8330 H   0  0  0  0  0  0  0  0  0  0  0  0
   45.4100   33.1050   44.0250 H   0  0  0  0  0  0  0  0  0  0  0  0
   48.2140   33.8400   43.3800 C   0  0  0  0  0  0  0  0  0  0  0  0
   48.5920   33.9440   44.3960 H   0  0  0  0  0  0  0  0  0  0  0  0
   48.8930   34.4240   42.7140 H   0  0  0  0  0  0  0  0  0  0  0  0
   48.1280   32.4170   42.9680 C   0  0  0  0  0  0  0  0  0  0  0  0
   48.2880   31.7450   43.8190 H   0  0  0  0  0  0  0  0  0  0  0  0
   47.1170   32.1660   42.5540 H   0  0  0  0  0  0  0  0  0  0  0  0
   51.4020   31.9750   41.1890 C   0  0  0  0  0  0  0  0  0  0  0  0
   50.4510   32.2290   42.1820 C   0  0  0  0  0  0  0  0  0  0  0  0
   49.1230   32.1430   41.8980 C   0  0  0  0  0  0  0  0  0  0  0  0
   48.7740   31.8110   40.6480 N   0  0  0  0  0  0  0  0  0  0  0  0
   49.6800   31.5640   39.6850 C   0  0  0  0  0  0  0  0  0  0  0  0
   50.9950   31.6410   39.9360 N   0  0  0  0  0  0  0  0  0  0  0  0
   52.4550   32.0270   41.3540 H   0  0  0  0  0  0  0  0  0  0  0  0
   50.8500   32.4880   43.1560 H   0  0  0  0  0  0  0  0  0  0  0  0
   49.2340   31.3130   38.7430 H   0  0  0  0  0  0  0  0  0  0  0  0
   46.3350   34.2500   45.5040 O   0  0  0  0  0  0  0  0  0  0  0  0
   45.5940   31.7060   45.6600 O   0  0  0  0  0  0  0  0  0  0  0  0
   46.0980   32.9150   46.4790 P   0  0  2  0  0  0  0  0  0  0  0  0
   44.7810   33.2930   47.5080 O   0  0  0  0  0  0  0  0  0  0  0  0
   45.0580   33.2680   48.4560 H   0  0  0  0  0  0  0  0  0  0  0  0
   47.4100   32.5190   47.4140 O   0  0  0  0  0  0  0  0  0  0  0  0
   47.5260   31.1420   47.4920 C   0  0  0  0  0  0  0  0  0  0  0  0
   46.5840   30.6660   47.7880 H   0  0  0  0  0  0  0  0  0  0  0  0
   47.8100   30.7220   46.4900 H   0  0  0  0  0  0  0  0  0  0  0  0
   48.5860   30.7330   48.4840 C   0  0  0  0  0  0  0  0  0  0  0  0
   49.0520   29.3580   48.5200 C   0  0  0  0  0  0  0  0  0  0  0  0
   48.6740   28.5850   47.8630 H   0  0  0  0  0  0  0  0  0  0  0  0
   50.2950   29.4430   49.8640 S   0  0  0  0  0  0  0  0  0  0  0  0
   49.9860   31.2760   50.1450 C   0  0  0  0  0  0  0  0  0  0  0  0
   50.4690   31.9270   50.8720 H   0  0  0  0  0  0  0  0  0  0  0  0
   49.1360   31.5690   49.3420 N   0  0  0  0  0  0  0  0  0  0  0  0
  1 16  1  0  0  0  0
  1  6  1  0  0  0  0
  2  8  1  0  0  0  0
  2  1  1  0  0  0  0
  3  2  1  0  0  0  0
  3  4  1  0  0  0  0
  4 11  1  0  0  0  0
  4  5  1  0  0  0  0
  5  6  1  0  0  0  0
  5 14  1  0  0  0  0
  6 15  1  6  0  0  0
  6 31  1  0  0  0  0
  7  2  1  0  0  0  0
  9  3  1  0  0  0  0
 10  3  1  0  0  0  0
 12  4  1  0  0  0  0
 13  5  1  0  0  0  0
 16 17  1  0  0  0  0
 18 16  1  0  0  0  0
 19 16  1  0  0  0  0
 19 20  1  0  0  0  0
 21 19  1  0  0  0  0
 22 28  1  0  0  0  0
 22 23  1  0  0  0  0
 23 29  1  0  0  0  0
 24 23  2  0  0  0  0
 24 19  1  0  0  0  0
 25 24  1  0  0  0  0
 26 27  1  0  0  0  0
 26 25  2  0  0  0  0
 27 22  2  0  0  0  0
 30 26  1  0  0  0  0
 31 33  1  0  0  0  0
 33 32  2  6  0  0  0
 33 36  1  0  0  0  0
 33 34  1  0  0  0  0
 34 35  1  0  0  0  0
 36 37  1  0  0  0  0
 37 38  1  0  0  0  0
 37 40  1  0  0  0  0
 39 37  1  0  0  0  0
 40 41  2  0  0  0  0
 40 46  1  0  0  0  0
 41 43  1  0  0  0  0
 42 41  1  0  0  0  0
 43 44  1  0  0  0  0
 44 45  1  0  0  0  0
 46 44  2  0  0  0  0
M  END
>  <minimizedAffinity>
-4.80321312

>  <minimizedRMSD>
2.9492197

$$$$
