
 OpenBabel03252501513D

 43 46  0  0  1  0  0  0  0  0999 V2000
   48.0780   34.9160   42.2840 C   0  0  0  0  0  0  0  0  0  0  0  0
   48.0370   34.5220   43.3390 H   0  0  0  0  0  0  0  0  0  0  0  0
   48.1910   36.0150   42.3810 H   0  0  0  0  0  0  0  0  0  0  0  0
   49.1870   34.3670   41.5800 N   0  0  0  0  0  0  0  0  0  0  0  0
   50.2170   33.9490   42.4990 C   0  0  0  0  0  0  0  0  0  0  0  0
   50.9180   32.7740   41.8920 C   0  0  0  0  0  0  0  0  0  0  0  0
   49.8370   32.1420   41.0550 C   0  0  0  0  0  0  0  0  0  0  0  0
   48.8200   33.2230   40.7990 C   0  0  2  0  0  0  0  0  0  0  0  0
   49.7460   33.5800   43.4360 H   0  0  0  0  0  0  0  0  0  0  0  0
   50.8770   34.8030   42.7410 H   0  0  0  0  0  0  0  0  0  0  0  0
   51.3330   32.0790   42.6450 H   0  0  0  0  0  0  0  0  0  0  0  0
   51.7650   33.1780   41.2770 H   0  0  0  0  0  0  0  0  0  0  0  0
   50.2860   31.8690   40.0720 H   0  0  0  0  0  0  0  0  0  0  0  0
   49.4210   31.2460   41.5230 H   0  0  0  0  0  0  0  0  0  0  0  0
   47.8600   32.8590   41.2220 H   0  0  0  0  0  0  0  0  0  0  0  0
   48.6590   33.5130   39.3520 C   0  0  0  0  0  0  0  0  0  0  0  0
   49.0470   32.3040   38.7460 C   0  0  0  0  0  0  0  0  0  0  0  0
   49.4070   31.2570   38.8320 H   0  0  0  0  0  0  0  0  0  0  0  0
   48.8370   32.6880   36.9020 S   0  0  0  0  0  0  0  0  0  0  0  0
   48.2590   34.4380   37.3560 C   0  0  0  0  0  0  0  0  0  0  0  0
   47.8570   35.5760   37.0510 H   0  0  0  0  0  0  0  0  0  0  0  0
   48.3090   34.4290   38.4770 N   0  0  0  0  0  0  0  0  0  0  0  0
   45.6170   35.0630   42.1160 C   0  0  0  0  0  0  0  0  0  0  0  0
   46.7680   34.6290   41.5950 C   0  0  0  0  0  0  0  0  0  0  0  0
   44.0550   33.6360   40.6800 C   0  0  0  0  0  0  0  0  0  0  0  0
   44.3180   34.7900   41.4540 C   0  0  0  0  0  0  0  0  0  0  0  0
   43.3030   35.7550   41.6230 C   0  0  0  0  0  0  0  0  0  0  0  0
   42.1010   35.5260   41.0250 N   0  0  0  0  0  0  0  0  0  0  0  0
   41.8860   34.4280   40.3010 C   0  0  0  0  0  0  0  0  0  0  0  0
   42.8580   33.5130   40.1440 N   0  0  0  0  0  0  0  0  0  0  0  0
   44.8720   32.9500   40.5960 H   0  0  0  0  0  0  0  0  0  0  0  0
   43.4750   36.6400   42.2050 H   0  0  0  0  0  0  0  0  0  0  0  0
   39.6750   33.6580   41.7790 F   0  0  0  0  0  0  0  0  0  0  0  0
   39.4950   33.8300   40.4450 C   0  0  0  0  0  0  0  0  0  0  0  0
   40.5840   34.2170   39.6740 C   0  0  0  0  0  0  0  0  0  0  0  0
   40.4810   34.4130   38.3120 C   0  0  0  0  0  0  0  0  0  0  0  0
   39.2340   34.2080   37.7230 C   0  0  0  0  0  0  0  0  0  0  0  0
   38.1200   33.8190   38.4740 C   0  0  0  0  0  0  0  0  0  0  0  0
   38.2630   33.6330   39.8370 C   0  0  0  0  0  0  0  0  0  0  0  0
   41.3500   34.7130   37.7510 H   0  0  0  0  0  0  0  0  0  0  0  0
   39.1620   34.3630   36.6600 H   0  0  0  0  0  0  0  0  0  0  0  0
   37.1820   33.6780   37.9550 H   0  0  0  0  0  0  0  0  0  0  0  0
   37.4100   33.3330   40.4230 H   0  0  0  0  0  0  0  0  0  0  0  0
  1  3  1  0  0  0  0
  1  2  1  0  0  0  0
  4  1  1  0  0  0  0
  4  5  1  0  0  0  0
  5 10  1  0  0  0  0
  5  9  1  0  0  0  0
  6  5  1  0  0  0  0
  6 11  1  0  0  0  0
  7 14  1  0  0  0  0
  7  6  1  0  0  0  0
  8  7  1  0  0  0  0
  8 15  1  1  0  0  0
  8  4  1  0  0  0  0
 12  6  1  0  0  0  0
 13  7  1  0  0  0  0
 16  8  1  0  0  0  0
 17 18  1  0  0  0  0
 17 16  2  0  0  0  0
 19 20  1  0  0  0  0
 19 17  1  0  0  0  0
 20 22  2  0  0  0  0
 21 20  1  0  0  0  0
 22 16  1  0  0  0  0
 24 23  2  0  0  0  0
 24  1  1  0  0  0  0
 25 26  1  0  0  0  0
 26 27  2  0  0  0  0
 26 23  1  0  0  0  0
 27 32  1  0  0  0  0
 28 27  1  0  0  0  0
 29 28  2  0  0  0  0
 30 29  1  0  0  0  0
 30 25  2  0  0  0  0
 31 25  1  0  0  0  0
 34 33  1  0  0  0  0
 35 29  1  0  0  0  0
 35 34  2  0  0  0  0
 36 35  1  0  0  0  0
 37 36  2  0  0  0  0
 37 38  1  0  0  0  0
 38 39  2  0  0  0  0
 39 43  1  0  0  0  0
 39 34  1  0  0  0  0
 40 36  1  0  0  0  0
 41 37  1  0  0  0  0
 42 38  1  0  0  0  0
M  END
>  <minimizedAffinity>
-6.64309549

>  <minimizedRMSD>
0.193978742

$$$$
