
 OpenBabel03242523423D

 22 23  0  0  1  0  0  0  0  0999 V2000
   46.5100   35.1400   42.0700 C   0  0  2  0  0  0  0  0  0  0  0  0
   46.1890   36.2070   42.0040 H   0  0  0  0  0  0  0  0  0  0  0  0
   45.1460   35.2880   44.1370 C   0  0  0  0  0  0  0  0  0  0  0  0
   46.1760   34.6760   43.4250 C   0  0  0  0  0  0  0  0  0  0  0  0
   46.8850   33.6050   44.0340 C   0  0  0  0  0  0  0  0  0  0  0  0
   46.5060   33.2460   45.2940 N   0  0  0  0  0  0  0  0  0  0  0  0
   45.5130   33.8640   45.9380 C   0  0  0  0  0  0  0  0  0  0  0  0
   44.8470   34.8700   45.3600 N   0  0  0  0  0  0  0  0  0  0  0  0
   44.5600   36.1060   43.7450 H   0  0  0  0  0  0  0  0  0  0  0  0
   47.6870   33.1060   43.5120 H   0  0  0  0  0  0  0  0  0  0  0  0
   45.2290   33.5570   46.9440 H   0  0  0  0  0  0  0  0  0  0  0  0
   45.8870   34.3370   40.9850 C   0  0  0  0  0  0  0  0  0  0  0  0
   46.7330   33.5490   40.0840 C   0  0  0  0  0  0  0  0  0  0  0  0
   47.7720   33.4940   40.1300 H   0  0  0  0  0  0  0  0  0  0  0  0
   45.5210   32.7920   38.9900 S   0  0  0  0  0  0  0  0  0  0  0  0
   44.0650   33.6400   39.9000 C   0  0  0  0  0  0  0  0  0  0  0  0
   43.0280   33.5020   39.6090 H   0  0  0  0  0  0  0  0  0  0  0  0
   44.5900   34.2680   40.7520 N   0  0  0  0  0  0  0  0  0  0  0  0
   48.0180   35.1770   41.9410 C   0  0  0  0  0  0  0  0  0  0  0  0
   48.4250   36.2170   41.8810 H   0  0  0  0  0  0  0  0  0  0  0  0
   48.2560   34.7300   40.9310 H   0  0  0  0  0  0  0  0  0  0  0  0
   48.4610   34.5960   42.7540 H   0  0  0  0  0  0  0  0  0  0  0  0
  1  2  1  6  0  0  0
  1  4  1  0  0  0  0
  3  8  1  0  0  0  0
  4  5  1  0  0  0  0
  4  3  2  0  0  0  0
  5  6  2  0  0  0  0
  6  7  1  0  0  0  0
  7 11  1  0  0  0  0
  8  7  2  0  0  0  0
  9  3  1  0  0  0  0
 10  5  1  0  0  0  0
 12  1  1  0  0  0  0
 13 14  1  0  0  0  0
 13 12  2  0  0  0  0
 15 16  1  0  0  0  0
 15 13  1  0  0  0  0
 16 18  2  0  0  0  0
 17 16  1  0  0  0  0
 18 12  1  0  0  0  0
 19  1  1  0  0  0  0
 19 22  1  0  0  0  0
 20 19  1  0  0  0  0
 21 19  1  0  0  0  0
M  END
>  <minimizedAffinity>
-3.89914107

>  <minimizedRMSD>
0.64154768

$$$$
