
 OpenBabel03242512593D

 33 36  0  0  0  0  0  0  0  0999 V2000
   45.0950   33.3050   41.1660 F   0  0  0  0  0  0  0  0  0  0  0  0
   46.2850   33.9530   40.9900 C   0  0  0  0  0  0  0  0  0  0  0  0
   46.8280   34.7310   41.9920 C   0  0  0  0  0  0  0  0  0  0  0  0
   48.0200   35.3440   41.7350 C   0  0  0  0  0  0  0  0  0  0  0  0
   48.6950   35.2260   40.5430 C   0  0  0  0  0  0  0  0  0  0  0  0
   48.1140   34.4390   39.5760 C   0  0  0  0  0  0  0  0  0  0  0  0
   46.9250   33.8050   39.7780 C   0  0  0  0  0  0  0  0  0  0  0  0
   48.4170   35.9500   42.5520 H   0  0  0  0  0  0  0  0  0  0  0  0
   49.6230   35.7560   40.4630 H   0  0  0  0  0  0  0  0  0  0  0  0
   48.6660   34.3600   38.6390 H   0  0  0  0  0  0  0  0  0  0  0  0
   44.4920   35.9280   44.7320 C   0  0  0  0  0  0  0  0  0  0  0  0
   45.1810   35.8500   43.5190 C   0  0  0  0  0  0  0  0  0  0  0  0
   46.0910   34.8410   43.2490 C   0  0  0  0  0  0  0  0  0  0  0  0
   46.2620   33.9270   44.2610 N   0  0  0  0  0  0  0  0  0  0  0  0
   45.5910   34.0120   45.4280 C   0  0  0  0  0  0  0  0  0  0  0  0
   44.7240   34.9870   45.6650 N   0  0  0  0  0  0  0  0  0  0  0  0
   43.7910   36.7360   44.8980 H   0  0  0  0  0  0  0  0  0  0  0  0
   45.0160   36.5850   42.7580 H   0  0  0  0  0  0  0  0  0  0  0  0
   45.8620   33.2010   46.0970 H   0  0  0  0  0  0  0  0  0  0  0  0
   46.3170   32.9780   38.7540 C   0  0  0  0  0  0  0  0  0  0  0  0
   45.1340   33.2250   38.0790 C   0  0  0  0  0  0  0  0  0  0  0  0
   44.9250   32.1740   37.1800 C   0  0  0  0  0  0  0  0  0  0  0  0
   45.9760   31.3310   37.3350 N   0  0  0  0  0  0  0  0  0  0  0  0
   46.8020   31.7990   38.2620 N   0  0  0  0  0  0  0  0  0  0  0  0
   44.5090   34.1030   38.2560 H   0  0  0  0  0  0  0  0  0  0  0  0
   44.0760   32.1120   36.5260 H   0  0  0  0  0  0  0  0  0  0  0  0
   46.1520   30.1020   36.5890 C   0  0  0  0  0  0  0  0  0  0  0  0
   45.8600   28.7020   37.0170 C   0  0  0  0  0  0  0  0  0  0  0  0
   45.4610   28.7070   38.0520 H   0  0  0  0  0  0  0  0  0  0  0  0
   46.3990   27.8440   35.4180 S   0  0  0  0  0  0  0  0  0  0  0  0
   46.8640   29.4090   34.5820 C   0  0  0  0  0  0  0  0  0  0  0  0
   47.2310   29.2410   33.5910 H   0  0  0  0  0  0  0  0  0  0  0  0
   46.6450   30.3940   35.3790 N   0  0  0  0  0  0  0  0  0  0  0  0
  2  1  1  0  0  0  0
  2  3  1  0  0  0  0
  3 13  1  0  0  0  0
  4  3  2  0  0  0  0
  4  8  1  0  0  0  0
  5  4  1  0  0  0  0
  6  7  1  0  0  0  0
  6  5  2  0  0  0  0
  7  2  2  0  0  0  0
  9  5  1  0  0  0  0
 10  6  1  0  0  0  0
 11 17  1  0  0  0  0
 11 16  1  0  0  0  0
 12 11  2  0  0  0  0
 13 12  1  0  0  0  0
 13 14  2  0  0  0  0
 14 15  1  0  0  0  0
 15 16  2  0  0  0  0
 15 19  1  0  0  0  0
 18 12  1  0  0  0  0
 20  7  1  0  0  0  0
 21 25  1  0  0  0  0
 21 20  1  0  0  0  0
 22 23  1  0  0  0  0
 22 21  2  0  0  0  0
 23 24  1  0  0  0  0
 24 20  2  0  0  0  0
 26 22  1  0  0  0  0
 27 28  2  0  0  0  0
 27 23  1  0  0  0  0
 28 29  1  0  0  0  0
 30 28  1  0  0  0  0
 31 33  2  0  0  0  0
 31 30  1  0  0  0  0
 32 31  1  0  0  0  0
 33 27  1  0  0  0  0
M  END
>  <minimizedAffinity>
-5.50305748

>  <minimizedRMSD>
2.41916752

$$$$
