
 OpenBabel03252506373D

 42 45  0  0  1  0  0  0  0  0999 V2000
   44.5130   35.4960   45.1290 C   0  0  0  0  0  0  0  0  0  0  0  0
   45.1860   35.4950   43.8930 C   0  0  0  0  0  0  0  0  0  0  0  0
   46.1240   34.5450   43.6510 C   0  0  0  0  0  0  0  0  0  0  0  0
   46.3540   33.6440   44.6360 N   0  0  0  0  0  0  0  0  0  0  0  0
   45.7170   33.6510   45.7980 C   0  0  0  0  0  0  0  0  0  0  0  0
   44.7940   34.5700   46.0580 N   0  0  0  0  0  0  0  0  0  0  0  0
   46.0470   32.6460   46.7720 N   0  0  0  0  0  0  0  0  0  0  0  0
   45.2980   32.3870   47.9460 C   0  0  0  0  0  0  0  0  0  0  0  0
   46.3680   32.0760   48.9770 C   0  0  0  0  0  0  0  0  0  0  0  0
   47.6590   31.9740   48.2210 C   0  0  0  0  0  0  0  0  0  0  0  0
   47.1890   31.7550   46.7830 C   0  0  1  0  0  0  0  0  0  0  0  0
   43.7550   36.2580   45.3350 H   0  0  0  0  0  0  0  0  0  0  0  0
   46.6450   34.5270   42.7230 H   0  0  0  0  0  0  0  0  0  0  0  0
   44.5260   31.6960   48.0490 H   0  0  0  0  0  0  0  0  0  0  0  0
   44.8740   33.3850   48.2820 H   0  0  0  0  0  0  0  0  0  0  0  0
   46.5100   32.8860   49.7210 H   0  0  0  0  0  0  0  0  0  0  0  0
   46.1270   31.1630   49.5640 H   0  0  0  0  0  0  0  0  0  0  0  0
   48.2540   31.0970   48.5420 H   0  0  0  0  0  0  0  0  0  0  0  0
   48.2340   32.9290   48.2330 H   0  0  0  0  0  0  0  0  0  0  0  0
   47.9970   32.0890   46.1320 H   0  0  0  0  0  0  0  0  0  0  0  0
   44.8270   36.5200   42.9520 N   0  0  0  0  0  0  0  0  0  0  0  0
   43.8640   36.4050   42.5690 H   0  0  0  0  0  0  0  0  0  0  0  0
   45.4810   37.3000   42.6890 H   0  0  0  0  0  0  0  0  0  0  0  0
   46.7100   30.0570   46.5990 S   0  0  0  0  0  0  0  0  0  0  0  0
   45.5830   30.5680   43.4930 O   0  0  0  0  0  0  0  0  0  0  0  0
   45.0020   29.9950   44.4280 C   0  0  0  0  0  0  0  0  0  0  0  0
   45.1520   29.7390   45.8900 C   0  0  1  0  0  0  0  0  0  0  0  0
   44.6580   28.3230   45.9970 C   0  0  0  0  0  0  0  0  0  0  0  0
   43.2970   28.5220   45.2900 C   0  0  0  0  0  0  0  0  0  0  0  0
   43.7700   29.3170   44.1360 N   0  0  0  0  0  0  0  0  0  0  0  0
   44.2600   30.3110   46.2700 H   0  0  0  0  0  0  0  0  0  0  0  0
   44.5160   28.0110   47.0400 H   0  0  0  0  0  0  0  0  0  0  0  0
   45.2560   27.6270   45.3840 H   0  0  0  0  0  0  0  0  0  0  0  0
   42.9170   27.5420   44.9680 H   0  0  0  0  0  0  0  0  0  0  0  0
   42.6130   29.0930   45.9280 H   0  0  0  0  0  0  0  0  0  0  0  0
   42.9330   29.2690   42.9520 C   0  0  0  0  0  0  0  0  0  0  0  0
   41.9340   30.1840   42.6790 C   0  0  0  0  0  0  0  0  0  0  0  0
   41.7270   31.0350   43.4020 H   0  0  0  0  0  0  0  0  0  0  0  0
   41.3180   29.4840   41.0230 S   0  0  0  0  0  0  0  0  0  0  0  0
   42.5820   28.0840   41.0830 C   0  0  0  0  0  0  0  0  0  0  0  0
   42.6170   27.3600   40.2770 H   0  0  0  0  0  0  0  0  0  0  0  0
   43.2110   28.2570   42.1350 N   0  0  0  0  0  0  0  0  0  0  0  0
  1 12  1  0  0  0  0
  1  6  1  0  0  0  0
  2  1  2  0  0  0  0
  3  2  1  0  0  0  0
  3  4  2  0  0  0  0
  4  5  1  0  0  0  0
  5  6  2  0  0  0  0
  5  7  1  0  0  0  0
  7 11  1  0  0  0  0
  7  8  1  0  0  0  0
  8 14  1  0  0  0  0
  8 15  1  0  0  0  0
  8  9  1  0  0  0  0
  9 17  1  0  0  0  0
  9 16  1  0  0  0  0
 10 19  1  0  0  0  0
 10 18  1  0  0  0  0
 10  9  1  0  0  0  0
 11 20  1  6  0  0  0
 11 10  1  0  0  0  0
 13  3  1  0  0  0  0
 21  2  1  0  0  0  0
 22 21  1  0  0  0  0
 23 21  1  0  0  0  0
 24 11  1  0  0  0  0
 25 26  2  0  0  0  0
 26 27  1  0  0  0  0
 27 28  1  0  0  0  0
 27 31  1  1  0  0  0
 27 24  1  0  0  0  0
 28 32  1  0  0  0  0
 29 35  1  0  0  0  0
 29 28  1  0  0  0  0
 30 26  1  0  0  0  0
 30 29  1  0  0  0  0
 33 28  1  0  0  0  0
 34 29  1  0  0  0  0
 36 30  1  0  0  0  0
 37 36  2  0  0  0  0
 37 38  1  0  0  0  0
 39 40  1  0  0  0  0
 39 37  1  0  0  0  0
 40 42  2  0  0  0  0
 41 40  1  0  0  0  0
 42 36  1  0  0  0  0
M  END
>  <minimizedAffinity>
-5.18970728

>  <minimizedRMSD>
0.066557467

$$$$
