
 OpenBabel03242514103D

 44 47  0  0  1  0  0  0  0  0999 V2000
   47.8520   33.7580   42.0650 C   0  0  0  0  0  0  0  0  0  0  0  0
   48.3480   35.0400   42.0400 C   0  0  0  0  0  0  0  0  0  0  0  0
   48.7600   35.6910   40.8830 C   0  0  0  0  0  0  0  0  0  0  0  0
   48.6260   34.9220   39.7190 C   0  0  0  0  0  0  0  0  0  0  0  0
   48.1180   33.6120   39.7450 C   0  0  0  0  0  0  0  0  0  0  0  0
   47.7410   33.0510   40.9080 N   0  0  0  0  0  0  0  0  0  0  0  0
   48.4150   35.5590   42.9970 H   0  0  0  0  0  0  0  0  0  0  0  0
   49.1380   36.6840   40.9130 H   0  0  0  0  0  0  0  0  0  0  0  0
   48.9610   35.4750   38.8520 H   0  0  0  0  0  0  0  0  0  0  0  0
   47.9870   32.8780   38.4930 C   0  0  1  0  0  0  0  0  0  0  0  0
   46.8150   33.4850   37.6160 C   0  0  0  0  0  0  0  0  0  0  0  0
   46.5540   32.3310   36.6010 C   0  0  0  0  0  0  0  0  0  0  0  0
   47.7440   32.4520   35.6400 C   0  0  0  0  0  0  0  0  0  0  0  0
   49.0130   32.1460   36.3470 C   0  0  0  0  0  0  0  0  0  0  0  0
   49.1750   32.6930   37.7150 C   0  0  2  0  0  0  0  0  0  0  0  0
   47.5150   31.8880   38.7660 H   0  0  0  0  0  0  0  0  0  0  0  0
   45.9320   33.6040   38.2510 H   0  0  0  0  0  0  0  0  0  0  0  0
   47.1690   34.3830   37.1120 H   0  0  0  0  0  0  0  0  0  0  0  0
   46.5960   31.3910   37.1810 H   0  0  0  0  0  0  0  0  0  0  0  0
   45.6150   32.4890   36.0570 H   0  0  0  0  0  0  0  0  0  0  0  0
   47.6920   33.4850   35.2290 H   0  0  0  0  0  0  0  0  0  0  0  0
   47.5680   31.7440   34.8300 H   0  0  0  0  0  0  0  0  0  0  0  0
   49.8580   32.4600   35.6960 H   0  0  0  0  0  0  0  0  0  0  0  0
   49.0920   31.0190   36.3480 H   0  0  0  0  0  0  0  0  0  0  0  0
   49.7120   33.6830   37.5830 H   0  0  0  0  0  0  0  0  0  0  0  0
   50.2120   31.4960   38.6200 S   0  0  0  0  0  0  0  0  0  0  0  0
   51.4960   31.4350   38.0690 H   0  0  0  0  0  0  0  0  0  0  0  0
   47.3840   31.4910   44.8910 C   0  0  0  0  0  0  0  0  0  0  0  0
   46.5430   32.1920   45.7500 C   0  0  0  0  0  0  0  0  0  0  0  0
   46.1550   33.4420   45.3290 C   0  0  0  0  0  0  0  0  0  0  0  0
   46.6040   33.9050   44.1290 N   0  0  0  0  0  0  0  0  0  0  0  0
   47.4390   33.1620   43.3170 C   0  0  0  0  0  0  0  0  0  0  0  0
   47.8080   31.9920   43.7030 N   0  0  0  0  0  0  0  0  0  0  0  0
   45.3130   34.2860   46.0470 N   0  0  0  0  0  0  0  0  0  0  0  0
   47.7220   30.5110   45.1630 H   0  0  0  0  0  0  0  0  0  0  0  0
   44.3150   34.0780   46.2530 H   0  0  0  0  0  0  0  0  0  0  0  0
   45.8500   35.1470   46.3370 H   0  0  0  0  0  0  0  0  0  0  0  0
   46.0750   31.6770   47.0310 C   0  0  0  0  0  0  0  0  0  0  0  0
   45.5540   30.3300   47.0940 C   0  0  0  0  0  0  0  0  0  0  0  0
   45.4600   29.6030   46.2540 H   0  0  0  0  0  0  0  0  0  0  0  0
   45.1180   30.1900   48.8860 S   0  0  0  0  0  0  0  0  0  0  0  0
   45.7130   31.9600   49.2250 C   0  0  0  0  0  0  0  0  0  0  0  0
   45.6690   32.3990   50.2030 H   0  0  0  0  0  0  0  0  0  0  0  0
   46.0870   32.3470   48.1620 N   0  0  0  0  0  0  0  0  0  0  0  0
  1 32  1  0  0  0  0
  2  1  1  0  0  0  0
  2  7  1  0  0  0  0
  3  8  1  0  0  0  0
  3  2  2  0  0  0  0
  4  5  2  0  0  0  0
  4  3  1  0  0  0  0
  5  6  1  0  0  0  0
  6  1  2  0  0  0  0
  9  4  1  0  0  0  0
 10 16  1  1  0  0  0
 10  5  1  0  0  0  0
 11 17  1  0  0  0  0
 11 10  1  0  0  0  0
 12 19  1  0  0  0  0
 12 11  1  0  0  0  0
 13 14  1  0  0  0  0
 13 12  1  0  0  0  0
 14 24  1  0  0  0  0
 14 15  1  0  0  0  0
 15 25  1  6  0  0  0
 15 10  1  0  0  0  0
 15 26  1  0  0  0  0
 18 11  1  0  0  0  0
 20 12  1  0  0  0  0
 21 13  1  0  0  0  0
 22 13  1  0  0  0  0
 23 14  1  0  0  0  0
 27 26  1  0  0  0  0
 28 35  1  0  0  0  0
 28 29  1  0  0  0  0
 29 38  1  0  0  0  0
 30 29  2  0  0  0  0
 30 34  1  0  0  0  0
 31 30  1  0  0  0  0
 32 33  1  0  0  0  0
 32 31  2  0  0  0  0
 33 28  2  0  0  0  0
 34 36  1  0  0  0  0
 34 37  1  0  0  0  0
 38 39  2  0  0  0  0
 38 44  1  0  0  0  0
 39 41  1  0  0  0  0
 40 39  1  0  0  0  0
 41 42  1  0  0  0  0
 42 43  1  0  0  0  0
 44 42  2  0  0  0  0
M  END
>  <minimizedAffinity>
-6.05933428

>  <minimizedRMSD>
1.55795264

$$$$
