
 OpenBabel03252509233D

 25 27  0  0  1  0  0  0  0  0999 V2000
   46.5230   35.0200   41.8660 C   0  0  1  0  0  0  0  0  0  0  0  0
   48.0470   35.3030   41.8290 C   0  0  0  0  0  0  0  0  0  0  0  0
   47.3360   34.0360   41.2520 C   0  0  2  0  0  0  0  0  0  0  0  0
   45.9350   35.7720   41.3050 H   0  0  0  0  0  0  0  0  0  0  0  0
   48.4070   36.0080   41.0480 H   0  0  0  0  0  0  0  0  0  0  0  0
   48.6450   35.1590   42.7200 H   0  0  0  0  0  0  0  0  0  0  0  0
   47.5650   33.0840   41.7990 H   0  0  0  0  0  0  0  0  0  0  0  0
   44.6810   35.3830   45.1170 C   0  0  0  0  0  0  0  0  0  0  0  0
   45.1240   35.6850   43.7900 C   0  0  0  0  0  0  0  0  0  0  0  0
   46.0630   34.8240   43.2890 C   0  0  0  0  0  0  0  0  0  0  0  0
   46.5360   33.7540   44.0250 N   0  0  0  0  0  0  0  0  0  0  0  0
   46.0850   33.5180   45.2660 C   0  0  0  0  0  0  0  0  0  0  0  0
   45.1510   34.3390   45.8130 N   0  0  0  0  0  0  0  0  0  0  0  0
   43.9360   36.0570   45.5220 H   0  0  0  0  0  0  0  0  0  0  0  0
   46.4240   32.6950   45.8780 H   0  0  0  0  0  0  0  0  0  0  0  0
   44.6500   36.8110   43.0550 N   0  0  0  0  0  0  0  0  0  0  0  0
   44.7310   37.8000   43.4210 H   0  0  0  0  0  0  0  0  0  0  0  0
   44.2080   36.6750   42.1330 H   0  0  0  0  0  0  0  0  0  0  0  0
   47.3550   33.9090   39.7710 C   0  0  0  0  0  0  0  0  0  0  0  0
   46.2910   33.1570   39.1400 C   0  0  0  0  0  0  0  0  0  0  0  0
   45.4450   32.6540   39.6520 H   0  0  0  0  0  0  0  0  0  0  0  0
   46.7110   33.2600   37.3120 S   0  0  0  0  0  0  0  0  0  0  0  0
   48.2380   34.2950   37.7530 C   0  0  0  0  0  0  0  0  0  0  0  0
   49.1510   34.8350   37.1770 H   0  0  0  0  0  0  0  0  0  0  0  0
   48.2140   34.3840   38.8710 N   0  0  0  0  0  0  0  0  0  0  0  0
  1  4  1  6  0  0  0
  1 10  1  0  0  0  0
  2  1  1  0  0  0  0
  2  6  1  0  0  0  0
  3  7  1  1  0  0  0
  3  2  1  0  0  0  0
  3  1  1  0  0  0  0
  5  2  1  0  0  0  0
  8 14  1  0  0  0  0
  8 13  1  0  0  0  0
  9  8  2  0  0  0  0
 10  9  1  0  0  0  0
 10 11  2  0  0  0  0
 11 12  1  0  0  0  0
 12 13  2  0  0  0  0
 12 15  1  0  0  0  0
 16 17  1  0  0  0  0
 16  9  1  0  0  0  0
 18 16  1  0  0  0  0
 19  3  1  0  0  0  0
 20 21  1  0  0  0  0
 20 19  2  0  0  0  0
 22 23  1  0  0  0  0
 22 20  1  0  0  0  0
 23 25  2  0  0  0  0
 24 23  1  0  0  0  0
 25 19  1  0  0  0  0
M  END
>  <minimizedAffinity>
-5.03819561

>  <minimizedRMSD>
0.202506304

$$$$
