
 OpenBabel03242522323D

 37 40  0  0  0  0  0  0  0  0999 V2000
   39.4690   26.9470   41.0060 F   0  0  0  0  0  0  0  0  0  0  0  0
   38.5650   27.2370   41.9640 C   0  0  0  0  0  0  0  0  0  0  0  0
   38.7110   28.3200   42.7630 C   0  0  0  0  0  0  0  0  0  0  0  0
   37.7350   28.5340   43.7160 C   0  0  0  0  0  0  0  0  0  0  0  0
   36.6570   27.7030   43.8670 C   0  0  0  0  0  0  0  0  0  0  0  0
   36.5760   26.6270   43.0230 C   0  0  0  0  0  0  0  0  0  0  0  0
   37.5030   26.3640   42.0680 C   0  0  0  0  0  0  0  0  0  0  0  0
   37.8510   29.4050   44.3590 H   0  0  0  0  0  0  0  0  0  0  0  0
   35.9040   27.8920   44.6210 H   0  0  0  0  0  0  0  0  0  0  0  0
   35.7180   25.9730   43.1490 H   0  0  0  0  0  0  0  0  0  0  0  0
   37.3120   25.1980   41.2340 C   0  0  0  0  0  0  0  0  0  0  0  0
   36.5690   25.3020   40.0710 C   0  0  0  0  0  0  0  0  0  0  0  0
   36.4040   24.1910   39.2940 C   0  0  0  0  0  0  0  0  0  0  0  0
   36.9730   22.9620   39.6600 C   0  0  0  0  0  0  0  0  0  0  0  0
   37.7090   22.9210   40.8410 C   0  0  0  0  0  0  0  0  0  0  0  0
   37.8830   24.0290   41.6310 C   0  0  0  0  0  0  0  0  0  0  0  0
   36.1430   26.2830   39.8240 H   0  0  0  0  0  0  0  0  0  0  0  0
   35.8170   24.3130   38.3960 H   0  0  0  0  0  0  0  0  0  0  0  0
   36.7950   22.1460   38.9980 H   0  0  0  0  0  0  0  0  0  0  0  0
   38.0920   21.9220   41.0080 H   0  0  0  0  0  0  0  0  0  0  0  0
   38.6400   23.7250   42.7280 O   0  0  0  0  0  0  0  0  0  0  0  0
   38.4660   22.9950   43.3860 H   0  0  0  0  0  0  0  0  0  0  0  0
   42.2410   29.6880   42.8230 C   0  0  0  0  0  0  0  0  0  0  0  0
   41.1410   28.8500   43.0300 C   0  0  0  0  0  0  0  0  0  0  0  0
   39.8870   29.1820   42.5600 C   0  0  0  0  0  0  0  0  0  0  0  0
   39.8010   30.3580   41.8960 N   0  0  0  0  0  0  0  0  0  0  0  0
   40.8580   31.1490   41.7040 C   0  0  0  0  0  0  0  0  0  0  0  0
   42.0620   30.8240   42.1590 N   0  0  0  0  0  0  0  0  0  0  0  0
   43.2000   29.3760   43.2130 H   0  0  0  0  0  0  0  0  0  0  0  0
   41.2510   27.9140   43.5690 H   0  0  0  0  0  0  0  0  0  0  0  0
   40.6790   32.4210   40.9670 C   0  0  0  0  0  0  0  0  0  0  0  0
   41.7740   33.0980   40.3370 C   0  0  0  0  0  0  0  0  0  0  0  0
   42.7530   32.7520   40.3530 H   0  0  0  0  0  0  0  0  0  0  0  0
   40.9200   34.5360   39.6350 S   0  0  0  0  0  0  0  0  0  0  0  0
   39.2340   33.9860   40.3050 C   0  0  0  0  0  0  0  0  0  0  0  0
   38.2530   34.5020   40.1860 H   0  0  0  0  0  0  0  0  0  0  0  0
   39.4850   32.9830   40.8630 N   0  0  0  0  0  0  0  0  0  0  0  0
  1  2  1  0  0  0  0
  2  7  2  0  0  0  0
  2  3  1  0  0  0  0
  3  4  2  0  0  0  0
  4  5  1  0  0  0  0
  4  8  1  0  0  0  0
  5  9  1  0  0  0  0
  6 10  1  0  0  0  0
  6  5  2  0  0  0  0
  7  6  1  0  0  0  0
 11 16  1  0  0  0  0
 11  7  1  0  0  0  0
 12 11  2  0  0  0  0
 13 14  2  0  0  0  0
 13 12  1  0  0  0  0
 14 15  1  0  0  0  0
 15 20  1  0  0  0  0
 15 16  2  0  0  0  0
 16 21  1  0  0  0  0
 17 12  1  0  0  0  0
 18 13  1  0  0  0  0
 19 14  1  0  0  0  0
 21 22  1  0  0  0  0
 23 24  1  0  0  0  0
 23 29  1  0  0  0  0
 24 30  1  0  0  0  0
 25  3  1  0  0  0  0
 25 24  2  0  0  0  0
 26 25  1  0  0  0  0
 27 26  2  0  0  0  0
 27 28  1  0  0  0  0
 28 23  2  0  0  0  0
 31 27  1  0  0  0  0
 32 33  1  0  0  0  0
 32 31  2  0  0  0  0
 34 35  1  0  0  0  0
 34 32  1  0  0  0  0
 35 37  2  0  0  0  0
 36 35  1  0  0  0  0
 37 31  1  0  0  0  0
M  END
>  <minimizedAffinity>
-6.36400461

$$$$

 OpenBabel03242522323D

 37 40  0  0  0  0  0  0  0  0999 V2000
   40.3780   30.6750   40.5390 F   0  0  0  0  0  0  0  0  0  0  0  0
   39.2560   31.3880   40.3130 C   0  0  0  0  0  0  0  0  0  0  0  0
   38.0470   30.9480   40.7340 C   0  0  0  0  0  0  0  0  0  0  0  0
   36.9550   31.7460   40.4550 C   0  0  0  0  0  0  0  0  0  0  0  0
   37.0630   32.9350   39.7840 C   0  0  0  0  0  0  0  0  0  0  0  0
   38.3180   33.3160   39.3880 C   0  0  0  0  0  0  0  0  0  0  0  0
   39.4280   32.5750   39.6330 C   0  0  0  0  0  0  0  0  0  0  0  0
   35.9820   31.3940   40.7930 H   0  0  0  0  0  0  0  0  0  0  0  0
   36.1930   33.5440   39.5770 H   0  0  0  0  0  0  0  0  0  0  0  0
   38.3960   34.2600   38.8570 H   0  0  0  0  0  0  0  0  0  0  0  0
   40.7020   33.0790   39.1670 C   0  0  0  0  0  0  0  0  0  0  0  0
   41.5740   33.6700   40.0660 C   0  0  0  0  0  0  0  0  0  0  0  0
   42.7730   34.1360   39.6080 C   0  0  0  0  0  0  0  0  0  0  0  0
   43.1250   34.0210   38.2550 C   0  0  0  0  0  0  0  0  0  0  0  0
   42.2050   33.4160   37.4010 C   0  0  0  0  0  0  0  0  0  0  0  0
   40.9960   32.9450   37.8470 C   0  0  0  0  0  0  0  0  0  0  0  0
   41.2570   33.7370   41.1140 H   0  0  0  0  0  0  0  0  0  0  0  0
   43.4250   34.5910   40.3390 H   0  0  0  0  0  0  0  0  0  0  0  0
   44.0780   34.4110   37.9810 H   0  0  0  0  0  0  0  0  0  0  0  0
   42.5950   33.3900   36.3910 H   0  0  0  0  0  0  0  0  0  0  0  0
   40.2820   32.4010   36.8160 O   0  0  0  0  0  0  0  0  0  0  0  0
   40.0540   32.8460   35.9520 H   0  0  0  0  0  0  0  0  0  0  0  0
   38.2810   28.3020   43.4320 C   0  0  0  0  0  0  0  0  0  0  0  0
   38.3510   29.5340   42.7740 C   0  0  0  0  0  0  0  0  0  0  0  0
   37.9830   29.6640   41.4510 C   0  0  0  0  0  0  0  0  0  0  0  0
   37.5560   28.5310   40.8470 N   0  0  0  0  0  0  0  0  0  0  0  0
   37.4930   27.3610   41.4840 C   0  0  0  0  0  0  0  0  0  0  0  0
   37.8490   27.2430   42.7570 N   0  0  0  0  0  0  0  0  0  0  0  0
   38.5820   28.2600   44.4690 H   0  0  0  0  0  0  0  0  0  0  0  0
   38.7000   30.4210   43.2950 H   0  0  0  0  0  0  0  0  0  0  0  0
   37.0150   26.1670   40.7490 C   0  0  0  0  0  0  0  0  0  0  0  0
   36.5860   26.2330   39.3840 C   0  0  0  0  0  0  0  0  0  0  0  0
   36.5790   27.1060   38.8230 H   0  0  0  0  0  0  0  0  0  0  0  0
   36.1390   24.4990   39.0890 S   0  0  0  0  0  0  0  0  0  0  0  0
   36.6050   23.9760   40.8500 C   0  0  0  0  0  0  0  0  0  0  0  0
   36.5450   22.9570   41.2960 H   0  0  0  0  0  0  0  0  0  0  0  0
   36.9670   24.9820   41.3390 N   0  0  0  0  0  0  0  0  0  0  0  0
  2  1  1  0  0  0  0
  2  3  1  0  0  0  0
  3 25  1  0  0  0  0
  4  3  2  0  0  0  0
  4  8  1  0  0  0  0
  5  4  1  0  0  0  0
  6  7  1  0  0  0  0
  6  5  2  0  0  0  0
  7  2  2  0  0  0  0
  9  5  1  0  0  0  0
 10  6  1  0  0  0  0
 11  7  1  0  0  0  0
 11 12  1  0  0  0  0
 12 17  1  0  0  0  0
 13 12  2  0  0  0  0
 13 18  1  0  0  0  0
 14 13  1  0  0  0  0
 15 16  1  0  0  0  0
 15 14  2  0  0  0  0
 16 11  2  0  0  0  0
 19 14  1  0  0  0  0
 20 15  1  0  0  0  0
 21 16  1  0  0  0  0
 22 21  1  0  0  0  0
 23 29  1  0  0  0  0
 24 30  1  0  0  0  0
 24 23  1  0  0  0  0
 25 24  2  0  0  0  0
 26 25  1  0  0  0  0
 26 27  2  0  0  0  0
 27 28  1  0  0  0  0
 28 23  2  0  0  0  0
 31 37  1  0  0  0  0
 31 27  1  0  0  0  0
 32 31  2  0  0  0  0
 33 32  1  0  0  0  0
 34 32  1  0  0  0  0
 34 35  1  0  0  0  0
 35 36  1  0  0  0  0
 35 37  2  0  0  0  0
M  END
>  <minimizedAffinity>
-6.3251915

$$$$

 OpenBabel03242522323D

 37 40  0  0  0  0  0  0  0  0999 V2000
   37.8360   27.8280   39.7840 F   0  0  0  0  0  0  0  0  0  0  0  0
   37.7870   27.8810   41.1300 C   0  0  0  0  0  0  0  0  0  0  0  0
   37.6660   26.7560   41.8740 C   0  0  0  0  0  0  0  0  0  0  0  0
   37.6230   26.9100   43.2450 C   0  0  0  0  0  0  0  0  0  0  0  0
   37.6970   28.1360   43.8520 C   0  0  0  0  0  0  0  0  0  0  0  0
   37.8180   29.2300   43.0360 C   0  0  0  0  0  0  0  0  0  0  0  0
   37.8660   29.1410   41.6830 C   0  0  0  0  0  0  0  0  0  0  0  0
   37.5260   26.0060   43.8450 H   0  0  0  0  0  0  0  0  0  0  0  0
   37.6620   28.2320   44.9290 H   0  0  0  0  0  0  0  0  0  0  0  0
   37.8770   30.1970   43.5250 H   0  0  0  0  0  0  0  0  0  0  0  0
   37.9950   30.3660   40.9230 C   0  0  0  0  0  0  0  0  0  0  0  0
   39.2180   30.7000   40.3670 C   0  0  0  0  0  0  0  0  0  0  0  0
   39.3200   31.8580   39.6490 C   0  0  0  0  0  0  0  0  0  0  0  0
   38.2110   32.6990   39.4740 C   0  0  0  0  0  0  0  0  0  0  0  0
   37.0090   32.3080   40.0580 C   0  0  0  0  0  0  0  0  0  0  0  0
   36.8930   31.1480   40.7820 C   0  0  0  0  0  0  0  0  0  0  0  0
   40.0570   30.0120   40.5300 H   0  0  0  0  0  0  0  0  0  0  0  0
   40.2900   32.0830   39.2320 H   0  0  0  0  0  0  0  0  0  0  0  0
   38.3770   33.5820   38.9010 H   0  0  0  0  0  0  0  0  0  0  0  0
   36.2370   33.0380   39.8490 H   0  0  0  0  0  0  0  0  0  0  0  0
   35.6170   30.9970   41.2470 O   0  0  0  0  0  0  0  0  0  0  0  0
   35.0970   31.6590   41.7840 H   0  0  0  0  0  0  0  0  0  0  0  0
   38.5300   23.3320   40.5070 C   0  0  0  0  0  0  0  0  0  0  0  0
   38.6280   24.5540   41.1800 C   0  0  0  0  0  0  0  0  0  0  0  0
   37.5910   25.4630   41.1740 C   0  0  0  0  0  0  0  0  0  0  0  0
   36.4890   25.0920   40.4820 N   0  0  0  0  0  0  0  0  0  0  0  0
   36.4060   23.9230   39.8430 C   0  0  0  0  0  0  0  0  0  0  0  0
   37.4090   23.0530   39.8520 N   0  0  0  0  0  0  0  0  0  0  0  0
   39.3750   22.6590   40.5460 H   0  0  0  0  0  0  0  0  0  0  0  0
   39.5310   24.8150   41.7240 H   0  0  0  0  0  0  0  0  0  0  0  0
   35.1640   23.5930   39.1070 C   0  0  0  0  0  0  0  0  0  0  0  0
   34.8690   24.1500   37.8210 C   0  0  0  0  0  0  0  0  0  0  0  0
   35.4920   24.8130   37.3220 H   0  0  0  0  0  0  0  0  0  0  0  0
   33.2640   23.3760   37.4800 S   0  0  0  0  0  0  0  0  0  0  0  0
   33.2580   22.4320   39.1240 C   0  0  0  0  0  0  0  0  0  0  0  0
   32.4760   21.7380   39.5090 H   0  0  0  0  0  0  0  0  0  0  0  0
   34.2720   22.7590   39.6210 N   0  0  0  0  0  0  0  0  0  0  0  0
  1  2  1  0  0  0  0
  2  7  2  0  0  0  0
  2  3  1  0  0  0  0
  3  4  2  0  0  0  0
  4  8  1  0  0  0  0
  4  5  1  0  0  0  0
  5  9  1  0  0  0  0
  6 10  1  0  0  0  0
  6  5  2  0  0  0  0
  7  6  1  0  0  0  0
 11  7  1  0  0  0  0
 12 17  1  0  0  0  0
 12 11  2  0  0  0  0
 13 12  1  0  0  0  0
 14 13  2  0  0  0  0
 14 15  1  0  0  0  0
 15 16  2  0  0  0  0
 16 11  1  0  0  0  0
 16 21  1  0  0  0  0
 18 13  1  0  0  0  0
 19 14  1  0  0  0  0
 20 15  1  0  0  0  0
 21 22  1  0  0  0  0
 23 29  1  0  0  0  0
 23 24  1  0  0  0  0
 24 30  1  0  0  0  0
 25 24  2  0  0  0  0
 25  3  1  0  0  0  0
 26 25  1  0  0  0  0
 27 28  1  0  0  0  0
 27 26  2  0  0  0  0
 28 23  2  0  0  0  0
 31 37  1  0  0  0  0
 31 27  1  0  0  0  0
 32 31  2  0  0  0  0
 33 32  1  0  0  0  0
 34 32  1  0  0  0  0
 34 35  1  0  0  0  0
 35 36  1  0  0  0  0
 35 37  2  0  0  0  0
M  END
>  <minimizedAffinity>
-6.24708509

$$$$

 OpenBabel03242522323D

 37 40  0  0  0  0  0  0  0  0999 V2000
   38.7940   29.9340   40.9300 F   0  0  0  0  0  0  0  0  0  0  0  0
   37.9070   29.8830   39.9160 C   0  0  0  0  0  0  0  0  0  0  0  0
   37.6790   30.9580   39.1250 C   0  0  0  0  0  0  0  0  0  0  0  0
   36.7520   30.8100   38.1130 C   0  0  0  0  0  0  0  0  0  0  0  0
   36.0790   29.6380   37.8960 C   0  0  0  0  0  0  0  0  0  0  0  0
   36.3600   28.5920   38.7350 C   0  0  0  0  0  0  0  0  0  0  0  0
   37.2600   28.6770   39.7470 C   0  0  0  0  0  0  0  0  0  0  0  0
   36.5680   31.6740   37.4760 H   0  0  0  0  0  0  0  0  0  0  0  0
   35.3570   29.5450   37.0960 H   0  0  0  0  0  0  0  0  0  0  0  0
   35.8220   27.6660   38.5560 H   0  0  0  0  0  0  0  0  0  0  0  0
   37.4750   27.5060   40.5690 C   0  0  0  0  0  0  0  0  0  0  0  0
   38.2770   26.4790   40.1000 C   0  0  0  0  0  0  0  0  0  0  0  0
   38.4720   25.3840   40.8930 C   0  0  0  0  0  0  0  0  0  0  0  0
   37.8760   25.2920   42.1600 C   0  0  0  0  0  0  0  0  0  0  0  0
   37.0810   26.3580   42.5740 C   0  0  0  0  0  0  0  0  0  0  0  0
   36.8760   27.4640   41.7890 C   0  0  0  0  0  0  0  0  0  0  0  0
   38.7220   26.5940   39.1050 H   0  0  0  0  0  0  0  0  0  0  0  0
   39.1020   24.6040   40.4920 H   0  0  0  0  0  0  0  0  0  0  0  0
   38.0790   24.4040   42.7120 H   0  0  0  0  0  0  0  0  0  0  0  0
   36.6840   26.1650   43.5630 H   0  0  0  0  0  0  0  0  0  0  0  0
   36.0610   28.3600   42.4220 O   0  0  0  0  0  0  0  0  0  0  0  0
   35.1570   28.1750   42.8030 H   0  0  0  0  0  0  0  0  0  0  0  0
   38.5850   34.4620   40.2390 C   0  0  0  0  0  0  0  0  0  0  0  0
   37.8490   33.3000   39.9890 C   0  0  0  0  0  0  0  0  0  0  0  0
   38.4290   32.1950   39.4000 C   0  0  0  0  0  0  0  0  0  0  0  0
   39.7400   32.3170   39.0870 N   0  0  0  0  0  0  0  0  0  0  0  0
   40.4320   33.4320   39.3290 C   0  0  0  0  0  0  0  0  0  0  0  0
   39.8680   34.4910   39.8960 N   0  0  0  0  0  0  0  0  0  0  0  0
   38.0780   35.2970   40.7020 H   0  0  0  0  0  0  0  0  0  0  0  0
   36.7980   33.2410   40.2550 H   0  0  0  0  0  0  0  0  0  0  0  0
   41.8640   33.4840   38.9550 C   0  0  0  0  0  0  0  0  0  0  0  0
   42.8460   34.1210   39.7820 C   0  0  0  0  0  0  0  0  0  0  0  0
   42.6280   34.5820   40.6860 H   0  0  0  0  0  0  0  0  0  0  0  0
   44.3440   33.8470   38.7950 S   0  0  0  0  0  0  0  0  0  0  0  0
   43.3990   32.9230   37.4360 C   0  0  0  0  0  0  0  0  0  0  0  0
   43.8120   32.4790   36.5010 H   0  0  0  0  0  0  0  0  0  0  0  0
   42.2910   32.9370   37.8270 N   0  0  0  0  0  0  0  0  0  0  0  0
  2  1  1  0  0  0  0
  3 25  1  0  0  0  0
  3  2  2  0  0  0  0
  4  3  1  0  0  0  0
  5  4  2  0  0  0  0
  5  6  1  0  0  0  0
  6  7  2  0  0  0  0
  7  2  1  0  0  0  0
  7 11  1  0  0  0  0
  8  4  1  0  0  0  0
  9  5  1  0  0  0  0
 10  6  1  0  0  0  0
 11 16  1  0  0  0  0
 12 11  2  0  0  0  0
 12 13  1  0  0  0  0
 13 14  2  0  0  0  0
 14 15  1  0  0  0  0
 14 19  1  0  0  0  0
 15 20  1  0  0  0  0
 16 21  1  0  0  0  0
 16 15  2  0  0  0  0
 17 12  1  0  0  0  0
 18 13  1  0  0  0  0
 21 22  1  0  0  0  0
 23 29  1  0  0  0  0
 24 23  1  0  0  0  0
 24 30  1  0  0  0  0
 25 24  2  0  0  0  0
 26 27  2  0  0  0  0
 26 25  1  0  0  0  0
 27 28  1  0  0  0  0
 28 23  2  0  0  0  0
 31 27  1  0  0  0  0
 31 32  2  0  0  0  0
 32 33  1  0  0  0  0
 34 32  1  0  0  0  0
 35 37  2  0  0  0  0
 35 34  1  0  0  0  0
 36 35  1  0  0  0  0
 37 31  1  0  0  0  0
M  END
>  <minimizedAffinity>
-6.11306238

$$$$

 OpenBabel03242522323D

 37 40  0  0  0  0  0  0  0  0999 V2000
   39.3460   28.0980   41.4210 F   0  0  0  0  0  0  0  0  0  0  0  0
   38.2540   28.8670   41.2370 C   0  0  0  0  0  0  0  0  0  0  0  0
   38.3340   30.2180   41.2540 C   0  0  0  0  0  0  0  0  0  0  0  0
   37.1620   30.9210   41.0570 C   0  0  0  0  0  0  0  0  0  0  0  0
   35.9580   30.3020   40.8520 C   0  0  0  0  0  0  0  0  0  0  0  0
   35.9520   28.9320   40.8480 C   0  0  0  0  0  0  0  0  0  0  0  0
   37.0710   28.1880   41.0360 C   0  0  0  0  0  0  0  0  0  0  0  0
   37.2250   32.0080   41.0700 H   0  0  0  0  0  0  0  0  0  0  0  0
   35.0510   30.8740   40.6990 H   0  0  0  0  0  0  0  0  0  0  0  0
   34.9940   28.4490   40.6850 H   0  0  0  0  0  0  0  0  0  0  0  0
   36.9440   26.7470   41.0110 C   0  0  0  0  0  0  0  0  0  0  0  0
   36.9940   26.0350   42.1980 C   0  0  0  0  0  0  0  0  0  0  0  0
   36.8670   24.6750   42.1540 C   0  0  0  0  0  0  0  0  0  0  0  0
   36.6890   24.0050   40.9350 C   0  0  0  0  0  0  0  0  0  0  0  0
   36.6470   24.7770   39.7770 C   0  0  0  0  0  0  0  0  0  0  0  0
   36.7740   26.1420   39.8060 C   0  0  0  0  0  0  0  0  0  0  0  0
   37.1340   26.6020   43.1260 H   0  0  0  0  0  0  0  0  0  0  0  0
   36.9120   24.1570   43.1000 H   0  0  0  0  0  0  0  0  0  0  0  0
   36.6000   22.9440   40.9910 H   0  0  0  0  0  0  0  0  0  0  0  0
   36.5060   24.1430   38.9110 H   0  0  0  0  0  0  0  0  0  0  0  0
   36.7000   26.6590   38.5430 O   0  0  0  0  0  0  0  0  0  0  0  0
   37.2550   26.3910   37.7570 H   0  0  0  0  0  0  0  0  0  0  0  0
   41.5890   31.3050   42.8530 C   0  0  0  0  0  0  0  0  0  0  0  0
   40.3380   30.7090   42.6670 C   0  0  0  0  0  0  0  0  0  0  0  0
   39.6520   30.8350   41.4780 C   0  0  0  0  0  0  0  0  0  0  0  0
   40.2680   31.5650   40.5190 N   0  0  0  0  0  0  0  0  0  0  0  0
   41.4620   32.1300   40.7080 C   0  0  0  0  0  0  0  0  0  0  0  0
   42.1170   32.0050   41.8550 N   0  0  0  0  0  0  0  0  0  0  0  0
   42.0810   31.1730   43.8070 H   0  0  0  0  0  0  0  0  0  0  0  0
   39.8770   30.1310   43.4620 H   0  0  0  0  0  0  0  0  0  0  0  0
   42.0680   32.9140   39.6070 C   0  0  0  0  0  0  0  0  0  0  0  0
   41.3280   33.2850   38.4380 C   0  0  0  0  0  0  0  0  0  0  0  0
   40.3330   33.0350   38.2810 H   0  0  0  0  0  0  0  0  0  0  0  0
   42.5960   34.1960   37.5130 S   0  0  0  0  0  0  0  0  0  0  0  0
   43.9090   33.9260   38.8540 C   0  0  0  0  0  0  0  0  0  0  0  0
   44.9660   34.2800   38.8540 H   0  0  0  0  0  0  0  0  0  0  0  0
   43.3330   33.3040   39.6680 N   0  0  0  0  0  0  0  0  0  0  0  0
  2  3  1  0  0  0  0
  2  1  1  0  0  0  0
  3 25  1  0  0  0  0
  4  8  1  0  0  0  0
  4  3  2  0  0  0  0
  5  4  1  0  0  0  0
  6  5  2  0  0  0  0
  6  7  1  0  0  0  0
  7  2  2  0  0  0  0
  9  5  1  0  0  0  0
 10  6  1  0  0  0  0
 11  7  1  0  0  0  0
 11 12  1  0  0  0  0
 12 17  1  0  0  0  0
 13 12  2  0  0  0  0
 13 18  1  0  0  0  0
 14 19  1  0  0  0  0
 14 13  1  0  0  0  0
 15 16  1  0  0  0  0
 15 14  2  0  0  0  0
 16 11  2  0  0  0  0
 20 15  1  0  0  0  0
 21 16  1  0  0  0  0
 22 21  1  0  0  0  0
 23 29  1  0  0  0  0
 24 23  1  0  0  0  0
 24 30  1  0  0  0  0
 25 24  2  0  0  0  0
 26 27  2  0  0  0  0
 26 25  1  0  0  0  0
 27 28  1  0  0  0  0
 28 23  2  0  0  0  0
 31 37  1  0  0  0  0
 31 27  1  0  0  0  0
 32 31  2  0  0  0  0
 33 32  1  0  0  0  0
 34 32  1  0  0  0  0
 34 35  1  0  0  0  0
 35 37  2  0  0  0  0
 36 35  1  0  0  0  0
M  END
>  <minimizedAffinity>
-6.08637619

$$$$

 OpenBabel03242522323D

 37 40  0  0  0  0  0  0  0  0999 V2000
   37.9260   27.8890   39.7600 F   0  0  0  0  0  0  0  0  0  0  0  0
   37.7860   27.8480   41.1010 C   0  0  0  0  0  0  0  0  0  0  0  0
   37.6290   26.6740   41.7560 C   0  0  0  0  0  0  0  0  0  0  0  0
   37.4920   26.7320   43.1280 C   0  0  0  0  0  0  0  0  0  0  0  0
   37.5100   27.9130   43.8210 C   0  0  0  0  0  0  0  0  0  0  0  0
   37.6720   29.0620   43.0930 C   0  0  0  0  0  0  0  0  0  0  0  0
   37.8110   29.0680   41.7430 C   0  0  0  0  0  0  0  0  0  0  0  0
   37.3670   25.7880   43.6560 H   0  0  0  0  0  0  0  0  0  0  0  0
   37.4010   27.9340   44.8980 H   0  0  0  0  0  0  0  0  0  0  0  0
   37.6850   29.9940   43.6490 H   0  0  0  0  0  0  0  0  0  0  0  0
   37.9760   30.3430   41.0800 C   0  0  0  0  0  0  0  0  0  0  0  0
   39.2380   30.7500   40.6830 C   0  0  0  0  0  0  0  0  0  0  0  0
   39.3730   31.9550   40.0540 C   0  0  0  0  0  0  0  0  0  0  0  0
   38.2590   32.7720   39.8110 C   0  0  0  0  0  0  0  0  0  0  0  0
   37.0160   32.3070   40.2340 C   0  0  0  0  0  0  0  0  0  0  0  0
   36.8660   31.0990   40.8670 C   0  0  0  0  0  0  0  0  0  0  0  0
   40.0800   30.0790   40.8940 H   0  0  0  0  0  0  0  0  0  0  0  0
   40.3740   32.2370   39.7610 H   0  0  0  0  0  0  0  0  0  0  0  0
   38.4520   33.6960   39.3160 H   0  0  0  0  0  0  0  0  0  0  0  0
   36.2450   33.0260   39.9870 H   0  0  0  0  0  0  0  0  0  0  0  0
   35.5540   30.8790   41.1780 O   0  0  0  0  0  0  0  0  0  0  0  0
   34.9550   31.4880   41.6950 H   0  0  0  0  0  0  0  0  0  0  0  0
   36.5200   23.4490   40.1110 C   0  0  0  0  0  0  0  0  0  0  0  0
   36.5040   24.6230   40.8690 C   0  0  0  0  0  0  0  0  0  0  0  0
   37.6180   25.4320   40.9650 C   0  0  0  0  0  0  0  0  0  0  0  0
   38.7080   25.0120   40.2820 N   0  0  0  0  0  0  0  0  0  0  0  0
   38.7120   23.8890   39.5620 C   0  0  0  0  0  0  0  0  0  0  0  0
   37.6370   23.1160   39.4740 N   0  0  0  0  0  0  0  0  0  0  0  0
   35.6180   22.8540   40.0720 H   0  0  0  0  0  0  0  0  0  0  0  0
   35.6080   24.9260   41.4030 H   0  0  0  0  0  0  0  0  0  0  0  0
   39.9480   23.5000   38.8440 C   0  0  0  0  0  0  0  0  0  0  0  0
   40.0260   22.3100   38.0500 C   0  0  0  0  0  0  0  0  0  0  0  0
   39.2370   21.6480   37.9230 H   0  0  0  0  0  0  0  0  0  0  0  0
   41.7410   22.4090   37.4670 S   0  0  0  0  0  0  0  0  0  0  0  0
   42.0660   24.0330   38.3880 C   0  0  0  0  0  0  0  0  0  0  0  0
   43.0090   24.6260   38.4120 H   0  0  0  0  0  0  0  0  0  0  0  0
   41.0380   24.2490   38.9150 N   0  0  0  0  0  0  0  0  0  0  0  0
  1  2  1  0  0  0  0
  2  7  2  0  0  0  0
  2  3  1  0  0  0  0
  3  4  2  0  0  0  0
  4  8  1  0  0  0  0
  4  5  1  0  0  0  0
  5  9  1  0  0  0  0
  6 10  1  0  0  0  0
  6  5  2  0  0  0  0
  7  6  1  0  0  0  0
 11  7  1  0  0  0  0
 12 17  1  0  0  0  0
 12 11  2  0  0  0  0
 13 12  1  0  0  0  0
 14 13  2  0  0  0  0
 14 15  1  0  0  0  0
 15 16  2  0  0  0  0
 16 11  1  0  0  0  0
 16 21  1  0  0  0  0
 18 13  1  0  0  0  0
 19 14  1  0  0  0  0
 20 15  1  0  0  0  0
 21 22  1  0  0  0  0
 23 24  1  0  0  0  0
 24 25  2  0  0  0  0
 24 30  1  0  0  0  0
 25  3  1  0  0  0  0
 26 25  1  0  0  0  0
 27 26  2  0  0  0  0
 28 27  1  0  0  0  0
 28 23  2  0  0  0  0
 29 23  1  0  0  0  0
 31 37  1  0  0  0  0
 31 27  1  0  0  0  0
 32 31  2  0  0  0  0
 33 32  1  0  0  0  0
 34 32  1  0  0  0  0
 34 35  1  0  0  0  0
 35 36  1  0  0  0  0
 35 37  2  0  0  0  0
M  END
>  <minimizedAffinity>
-5.99845648

$$$$

 OpenBabel03242522323D

 37 40  0  0  0  0  0  0  0  0999 V2000
   38.0540   28.0500   39.8070 F   0  0  0  0  0  0  0  0  0  0  0  0
   37.7600   27.9760   41.1220 C   0  0  0  0  0  0  0  0  0  0  0  0
   37.6680   29.0900   41.8850 C   0  0  0  0  0  0  0  0  0  0  0  0
   37.3630   28.9150   43.2200 C   0  0  0  0  0  0  0  0  0  0  0  0
   37.1590   27.6790   43.7730 C   0  0  0  0  0  0  0  0  0  0  0  0
   37.2690   26.5960   42.9410 C   0  0  0  0  0  0  0  0  0  0  0  0
   37.5660   26.7060   41.6210 C   0  0  0  0  0  0  0  0  0  0  0  0
   37.2880   29.8100   43.8350 H   0  0  0  0  0  0  0  0  0  0  0  0
   36.9210   27.5660   44.8230 H   0  0  0  0  0  0  0  0  0  0  0  0
   37.1050   25.6200   43.3860 H   0  0  0  0  0  0  0  0  0  0  0  0
   37.6560   25.4920   40.8390 C   0  0  0  0  0  0  0  0  0  0  0  0
   36.5140   24.9670   40.2560 C   0  0  0  0  0  0  0  0  0  0  0  0
   36.6200   23.8230   39.5180 C   0  0  0  0  0  0  0  0  0  0  0  0
   37.8570   23.1840   39.3470 C   0  0  0  0  0  0  0  0  0  0  0  0
   38.9680   23.7610   39.9580 C   0  0  0  0  0  0  0  0  0  0  0  0
   38.8770   24.9100   40.7030 C   0  0  0  0  0  0  0  0  0  0  0  0
   35.5690   25.5010   40.4170 H   0  0  0  0  0  0  0  0  0  0  0  0
   35.7080   23.4450   39.0810 H   0  0  0  0  0  0  0  0  0  0  0  0
   37.8510   22.2970   38.7570 H   0  0  0  0  0  0  0  0  0  0  0  0
   39.8550   23.1760   39.7500 H   0  0  0  0  0  0  0  0  0  0  0  0
   40.1020   25.2650   41.1920 O   0  0  0  0  0  0  0  0  0  0  0  0
   40.7190   24.6900   41.7260 H   0  0  0  0  0  0  0  0  0  0  0  0
   37.1400   32.3260   39.9900 C   0  0  0  0  0  0  0  0  0  0  0  0
   36.8960   31.0870   40.5920 C   0  0  0  0  0  0  0  0  0  0  0  0
   37.8960   30.3950   41.2430 C   0  0  0  0  0  0  0  0  0  0  0  0
   39.1100   30.9930   41.2580 N   0  0  0  0  0  0  0  0  0  0  0  0
   39.3310   32.1760   40.6800 C   0  0  0  0  0  0  0  0  0  0  0  0
   38.3640   32.8360   40.0550 N   0  0  0  0  0  0  0  0  0  0  0  0
   36.3180   32.8220   39.4940 H   0  0  0  0  0  0  0  0  0  0  0  0
   35.9070   30.6400   40.5580 H   0  0  0  0  0  0  0  0  0  0  0  0
   40.6900   32.7620   40.7410 C   0  0  0  0  0  0  0  0  0  0  0  0
   41.0430   33.9460   40.0150 C   0  0  0  0  0  0  0  0  0  0  0  0
   40.3840   34.4680   39.4070 H   0  0  0  0  0  0  0  0  0  0  0  0
   42.7820   34.1290   40.4980 S   0  0  0  0  0  0  0  0  0  0  0  0
   42.7440   32.5830   41.5940 C   0  0  0  0  0  0  0  0  0  0  0  0
   43.5770   32.1550   42.1970 H   0  0  0  0  0  0  0  0  0  0  0  0
   41.6380   32.2020   41.4770 N   0  0  0  0  0  0  0  0  0  0  0  0
  1  2  1  0  0  0  0
  2  7  2  0  0  0  0
  2  3  1  0  0  0  0
  3  4  2  0  0  0  0
  4  5  1  0  0  0  0
  4  8  1  0  0  0  0
  5  9  1  0  0  0  0
  6 10  1  0  0  0  0
  6  5  2  0  0  0  0
  7  6  1  0  0  0  0
 11  7  1  0  0  0  0
 12 17  1  0  0  0  0
 12 11  2  0  0  0  0
 13 12  1  0  0  0  0
 14 13  2  0  0  0  0
 14 15  1  0  0  0  0
 15 16  2  0  0  0  0
 16 11  1  0  0  0  0
 16 21  1  0  0  0  0
 18 13  1  0  0  0  0
 19 14  1  0  0  0  0
 20 15  1  0  0  0  0
 21 22  1  0  0  0  0
 23 28  2  0  0  0  0
 23 24  1  0  0  0  0
 24 25  2  0  0  0  0
 25 26  1  0  0  0  0
 25  3  1  0  0  0  0
 27 31  1  0  0  0  0
 27 26  2  0  0  0  0
 28 27  1  0  0  0  0
 29 23  1  0  0  0  0
 30 24  1  0  0  0  0
 31 37  1  0  0  0  0
 32 34  1  0  0  0  0
 32 31  2  0  0  0  0
 33 32  1  0  0  0  0
 34 35  1  0  0  0  0
 35 36  1  0  0  0  0
 37 35  2  0  0  0  0
M  END
>  <minimizedAffinity>
-5.91480589

$$$$

 OpenBabel03242522323D

 37 40  0  0  0  0  0  0  0  0999 V2000
   39.2540   29.8820   39.4300 F   0  0  0  0  0  0  0  0  0  0  0  0
   38.9680   31.1930   39.5620 C   0  0  0  0  0  0  0  0  0  0  0  0
   39.9390   32.1030   39.8100 C   0  0  0  0  0  0  0  0  0  0  0  0
   39.5500   33.4220   39.9300 C   0  0  0  0  0  0  0  0  0  0  0  0
   38.2450   33.8190   39.8080 C   0  0  0  0  0  0  0  0  0  0  0  0
   37.3160   32.8440   39.5570 C   0  0  0  0  0  0  0  0  0  0  0  0
   37.6390   31.5320   39.4290 C   0  0  0  0  0  0  0  0  0  0  0  0
   40.3300   34.1550   40.1300 H   0  0  0  0  0  0  0  0  0  0  0  0
   37.9630   34.8600   39.9060 H   0  0  0  0  0  0  0  0  0  0  0  0
   36.2840   33.1670   39.4620 H   0  0  0  0  0  0  0  0  0  0  0  0
   36.5730   30.5900   39.1640 C   0  0  0  0  0  0  0  0  0  0  0  0
   36.3850   30.1140   37.8780 C   0  0  0  0  0  0  0  0  0  0  0  0
   35.3760   29.2220   37.6480 C   0  0  0  0  0  0  0  0  0  0  0  0
   34.5410   28.7910   38.6900 C   0  0  0  0  0  0  0  0  0  0  0  0
   34.7810   29.3070   39.9610 C   0  0  0  0  0  0  0  0  0  0  0  0
   35.7900   30.2030   40.2060 C   0  0  0  0  0  0  0  0  0  0  0  0
   37.0620   30.4780   37.0960 H   0  0  0  0  0  0  0  0  0  0  0  0
   35.2610   28.8740   36.6320 H   0  0  0  0  0  0  0  0  0  0  0  0
   33.7780   28.0950   38.4240 H   0  0  0  0  0  0  0  0  0  0  0  0
   34.0720   28.8970   40.6700 H   0  0  0  0  0  0  0  0  0  0  0  0
   35.8120   30.5540   41.5270 O   0  0  0  0  0  0  0  0  0  0  0  0
   35.0480   30.9120   42.0600 H   0  0  0  0  0  0  0  0  0  0  0  0
   43.1590   30.6740   41.1990 C   0  0  0  0  0  0  0  0  0  0  0  0
   41.8370   31.1210   41.1100 C   0  0  0  0  0  0  0  0  0  0  0  0
   41.3270   31.6260   39.9320 C   0  0  0  0  0  0  0  0  0  0  0  0
   42.1840   31.6550   38.8860 N   0  0  0  0  0  0  0  0  0  0  0  0
   43.4440   31.2250   38.9820 C   0  0  0  0  0  0  0  0  0  0  0  0
   43.9280   30.7410   40.1190 N   0  0  0  0  0  0  0  0  0  0  0  0
   43.5040   30.2880   42.1480 H   0  0  0  0  0  0  0  0  0  0  0  0
   41.1800   31.0810   41.9740 H   0  0  0  0  0  0  0  0  0  0  0  0
   44.3190   31.2930   37.7890 C   0  0  0  0  0  0  0  0  0  0  0  0
   44.2550   30.3180   36.7410 C   0  0  0  0  0  0  0  0  0  0  0  0
   43.6040   29.5100   36.7420 H   0  0  0  0  0  0  0  0  0  0  0  0
   45.5360   30.9470   35.6190 S   0  0  0  0  0  0  0  0  0  0  0  0
   45.9420   32.4160   36.7480 C   0  0  0  0  0  0  0  0  0  0  0  0
   46.7010   33.2140   36.5800 H   0  0  0  0  0  0  0  0  0  0  0  0
   45.2020   32.2700   37.6490 N   0  0  0  0  0  0  0  0  0  0  0  0
  1  2  1  0  0  0  0
  2  3  1  0  0  0  0
  3  4  2  0  0  0  0
  3 25  1  0  0  0  0
  4  8  1  0  0  0  0
  5  9  1  0  0  0  0
  5  4  1  0  0  0  0
  6  5  2  0  0  0  0
  7  6  1  0  0  0  0
  7  2  2  0  0  0  0
 10  6  1  0  0  0  0
 11  7  1  0  0  0  0
 11 16  1  0  0  0  0
 12 11  2  0  0  0  0
 13 12  1  0  0  0  0
 13 14  2  0  0  0  0
 14 15  1  0  0  0  0
 15 16  2  0  0  0  0
 15 20  1  0  0  0  0
 16 21  1  0  0  0  0
 17 12  1  0  0  0  0
 18 13  1  0  0  0  0
 19 14  1  0  0  0  0
 21 22  1  0  0  0  0
 23 29  1  0  0  0  0
 24 23  1  0  0  0  0
 24 30  1  0  0  0  0
 25 24  2  0  0  0  0
 26 27  2  0  0  0  0
 26 25  1  0  0  0  0
 27 28  1  0  0  0  0
 28 23  2  0  0  0  0
 31 27  1  0  0  0  0
 32 33  1  0  0  0  0
 32 31  2  0  0  0  0
 34 32  1  0  0  0  0
 34 35  1  0  0  0  0
 35 37  2  0  0  0  0
 36 35  1  0  0  0  0
 37 31  1  0  0  0  0
M  END
>  <minimizedAffinity>
-5.88689899

$$$$

 OpenBabel03242522323D

 37 40  0  0  0  0  0  0  0  0999 V2000
   39.0900   28.4490   39.8540 F   0  0  0  0  0  0  0  0  0  0  0  0
   37.9520   29.1330   40.0940 C   0  0  0  0  0  0  0  0  0  0  0  0
   37.8740   30.4660   39.8720 C   0  0  0  0  0  0  0  0  0  0  0  0
   36.6680   31.0800   40.1470 C   0  0  0  0  0  0  0  0  0  0  0  0
   35.5840   30.3940   40.6240 C   0  0  0  0  0  0  0  0  0  0  0  0
   35.7360   29.0470   40.8250 C   0  0  0  0  0  0  0  0  0  0  0  0
   36.8960   28.3890   40.5740 C   0  0  0  0  0  0  0  0  0  0  0  0
   36.6030   32.1520   39.9680 H   0  0  0  0  0  0  0  0  0  0  0  0
   34.6480   30.8970   40.8330 H   0  0  0  0  0  0  0  0  0  0  0  0
   34.8720   28.5100   41.2040 H   0  0  0  0  0  0  0  0  0  0  0  0
   36.9400   26.9650   40.8240 C   0  0  0  0  0  0  0  0  0  0  0  0
   37.2630   26.5010   42.0880 C   0  0  0  0  0  0  0  0  0  0  0  0
   37.2950   25.1530   42.3060 C   0  0  0  0  0  0  0  0  0  0  0  0
   37.0060   24.2470   41.2740 C   0  0  0  0  0  0  0  0  0  0  0  0
   36.6870   24.7750   40.0260 C   0  0  0  0  0  0  0  0  0  0  0  0
   36.6520   26.1270   39.7930 C   0  0  0  0  0  0  0  0  0  0  0  0
   37.4820   27.2460   42.8630 H   0  0  0  0  0  0  0  0  0  0  0  0
   37.5520   24.8320   43.3040 H   0  0  0  0  0  0  0  0  0  0  0  0
   37.0540   23.2140   41.5290 H   0  0  0  0  0  0  0  0  0  0  0  0
   36.4860   23.9770   39.3230 H   0  0  0  0  0  0  0  0  0  0  0  0
   36.3160   26.3820   38.4930 O   0  0  0  0  0  0  0  0  0  0  0  0
   36.7660   26.0180   37.6800 H   0  0  0  0  0  0  0  0  0  0  0  0
   40.4850   31.9220   37.5480 C   0  0  0  0  0  0  0  0  0  0  0  0
   39.3440   31.2580   38.0100 C   0  0  0  0  0  0  0  0  0  0  0  0
   39.0670   31.1580   39.3570 C   0  0  0  0  0  0  0  0  0  0  0  0
   39.9650   31.7400   40.1860 N   0  0  0  0  0  0  0  0  0  0  0  0
   41.0510   32.3710   39.7340 C   0  0  0  0  0  0  0  0  0  0  0  0
   41.3110   32.4630   38.4360 N   0  0  0  0  0  0  0  0  0  0  0  0
   40.6510   31.9690   36.4810 H   0  0  0  0  0  0  0  0  0  0  0  0
   38.6480   30.8040   37.3120 H   0  0  0  0  0  0  0  0  0  0  0  0
   41.9850   32.9810   40.7080 C   0  0  0  0  0  0  0  0  0  0  0  0
   42.3020   34.3780   40.6890 C   0  0  0  0  0  0  0  0  0  0  0  0
   41.9070   35.0500   40.0040 H   0  0  0  0  0  0  0  0  0  0  0  0
   43.4580   34.4780   42.0840 S   0  0  0  0  0  0  0  0  0  0  0  0
   43.3210   32.6250   42.4600 C   0  0  0  0  0  0  0  0  0  0  0  0
   43.8370   32.0540   43.2650 H   0  0  0  0  0  0  0  0  0  0  0  0
   42.5670   32.2440   41.6420 N   0  0  0  0  0  0  0  0  0  0  0  0
  1  2  1  0  0  0  0
  2  7  1  0  0  0  0
  3  2  2  0  0  0  0
  3  4  1  0  0  0  0
  4  5  2  0  0  0  0
  5  6  1  0  0  0  0
  5  9  1  0  0  0  0
  6 10  1  0  0  0  0
  7 11  1  0  0  0  0
  7  6  2  0  0  0  0
  8  4  1  0  0  0  0
 11 12  1  0  0  0  0
 12 13  2  0  0  0  0
 12 17  1  0  0  0  0
 13 18  1  0  0  0  0
 14 19  1  0  0  0  0
 14 13  1  0  0  0  0
 15 14  2  0  0  0  0
 16 15  1  0  0  0  0
 16 11  2  0  0  0  0
 20 15  1  0  0  0  0
 21 16  1  0  0  0  0
 22 21  1  0  0  0  0
 23 24  2  0  0  0  0
 23 28  1  0  0  0  0
 24 25  1  0  0  0  0
 25  3  1  0  0  0  0
 25 26  2  0  0  0  0
 27 26  1  0  0  0  0
 27 31  1  0  0  0  0
 28 27  2  0  0  0  0
 29 23  1  0  0  0  0
 30 24  1  0  0  0  0
 31 37  1  0  0  0  0
 32 31  2  0  0  0  0
 32 34  1  0  0  0  0
 33 32  1  0  0  0  0
 34 35  1  0  0  0  0
 35 36  1  0  0  0  0
 37 35  2  0  0  0  0
M  END
>  <minimizedAffinity>
-5.86734056

$$$$
