
 OpenBabel03252505513D

 23 24  0  0  0  0  0  0  0  0999 V2000
   44.6580   35.4110   45.1580 C   0  0  0  0  0  0  0  0  0  0  0  0
   45.5050   34.9940   44.1340 C   0  0  0  0  0  0  0  0  0  0  0  0
   46.2660   33.8490   44.3480 C   0  0  0  0  0  0  0  0  0  0  0  0
   46.1540   33.1990   45.5210 N   0  0  0  0  0  0  0  0  0  0  0  0
   45.3330   33.6190   46.4880 C   0  0  0  0  0  0  0  0  0  0  0  0
   44.5710   34.7250   46.3330 N   0  0  0  0  0  0  0  0  0  0  0  0
   44.0350   36.2910   45.0660 H   0  0  0  0  0  0  0  0  0  0  0  0
   46.9130   33.5550   43.5310 H   0  0  0  0  0  0  0  0  0  0  0  0
   45.5180   35.8260   42.8800 C   0  0  0  0  0  0  0  0  0  0  0  0
   45.2020   37.0960   43.2650 F   0  0  0  0  0  0  0  0  0  0  0  0
   44.5110   35.3080   42.0690 F   0  0  0  0  0  0  0  0  0  0  0  0
   46.7530   35.7010   42.3040 F   0  0  0  0  0  0  0  0  0  0  0  0
   45.1970   32.9740   47.7000 O   0  0  0  0  0  0  0  0  0  0  0  0
   46.2410   32.2590   48.3080 C   0  0  0  0  0  0  0  0  0  0  0  0
   47.2330   32.7050   48.0980 H   0  0  0  0  0  0  0  0  0  0  0  0
   46.1270   32.3230   49.4090 H   0  0  0  0  0  0  0  0  0  0  0  0
   46.2060   30.7890   47.9690 C   0  0  0  0  0  0  0  0  0  0  0  0
   45.0010   30.0490   47.8890 C   0  0  0  0  0  0  0  0  0  0  0  0
   43.9930   30.3560   48.0400 H   0  0  0  0  0  0  0  0  0  0  0  0
   45.5680   28.3820   47.4580 S   0  0  0  0  0  0  0  0  0  0  0  0
   47.3780   28.9610   47.4520 C   0  0  0  0  0  0  0  0  0  0  0  0
   48.4640   28.4680   47.2530 H   0  0  0  0  0  0  0  0  0  0  0  0
   47.2700   30.0490   47.7140 N   0  0  0  0  0  0  0  0  0  0  0  0
  1  6  1  0  0  0  0
  2  3  1  0  0  0  0
  2  1  2  0  0  0  0
  3  4  2  0  0  0  0
  4  5  1  0  0  0  0
  5 13  1  0  0  0  0
  6  5  2  0  0  0  0
  7  1  1  0  0  0  0
  8  3  1  0  0  0  0
  9 10  1  0  0  0  0
  9  2  1  0  0  0  0
 11  9  1  0  0  0  0
 12  9  1  0  0  0  0
 13 14  1  0  0  0  0
 14 16  1  0  0  0  0
 15 14  1  0  0  0  0
 17 14  1  0  0  0  0
 18 17  2  0  0  0  0
 18 19  1  0  0  0  0
 20 18  1  0  0  0  0
 21 20  1  0  0  0  0
 21 23  2  0  0  0  0
 22 21  1  0  0  0  0
 23 17  1  0  0  0  0
M  END
>  <minimizedAffinity>
-4.62419271

>  <minimizedRMSD>
0.849518895

$$$$
