
 OpenBabel03242523423D

 22 23  0  0  1  0  0  0  0  0999 V2000
   46.4470   35.1680   41.8840 C   0  0  2  0  0  0  0  0  0  0  0  0
   46.2360   36.2010   41.5170 H   0  0  0  0  0  0  0  0  0  0  0  0
   44.9910   36.0510   43.6880 C   0  0  0  0  0  0  0  0  0  0  0  0
   45.8640   35.0650   43.2300 C   0  0  0  0  0  0  0  0  0  0  0  0
   46.1720   33.9730   44.0860 C   0  0  0  0  0  0  0  0  0  0  0  0
   45.5860   33.9650   45.3180 N   0  0  0  0  0  0  0  0  0  0  0  0
   44.7560   34.9330   45.7140 C   0  0  0  0  0  0  0  0  0  0  0  0
   44.4670   35.9580   44.9040 N   0  0  0  0  0  0  0  0  0  0  0  0
   44.7070   36.9100   43.1000 H   0  0  0  0  0  0  0  0  0  0  0  0
   46.8410   33.1910   43.7640 H   0  0  0  0  0  0  0  0  0  0  0  0
   44.3000   34.9020   46.7030 H   0  0  0  0  0  0  0  0  0  0  0  0
   45.9330   34.1550   40.9240 C   0  0  0  0  0  0  0  0  0  0  0  0
   44.5030   34.1200   40.5990 C   0  0  0  0  0  0  0  0  0  0  0  0
   43.7820   34.7620   40.9910 H   0  0  0  0  0  0  0  0  0  0  0  0
   44.4120   32.7560   39.4300 S   0  0  0  0  0  0  0  0  0  0  0  0
   46.2970   32.4360   39.5480 C   0  0  0  0  0  0  0  0  0  0  0  0
   46.7990   31.6510   38.9890 H   0  0  0  0  0  0  0  0  0  0  0  0
   46.6770   33.2520   40.3150 N   0  0  0  0  0  0  0  0  0  0  0  0
   47.9530   35.0990   42.0140 C   0  0  0  0  0  0  0  0  0  0  0  0
   48.4560   36.0720   41.7850 H   0  0  0  0  0  0  0  0  0  0  0  0
   48.3070   34.4080   41.1930 H   0  0  0  0  0  0  0  0  0  0  0  0
   48.2090   34.7130   43.0040 H   0  0  0  0  0  0  0  0  0  0  0  0
  1  2  1  6  0  0  0
  1 19  1  0  0  0  0
  1  4  1  0  0  0  0
  3  8  1  0  0  0  0
  4  3  2  0  0  0  0
  4  5  1  0  0  0  0
  5  6  2  0  0  0  0
  6  7  1  0  0  0  0
  7 11  1  0  0  0  0
  8  7  2  0  0  0  0
  9  3  1  0  0  0  0
 10  5  1  0  0  0  0
 12  1  1  0  0  0  0
 13 12  2  0  0  0  0
 13 14  1  0  0  0  0
 15 16  1  0  0  0  0
 15 13  1  0  0  0  0
 16 18  2  0  0  0  0
 17 16  1  0  0  0  0
 18 12  1  0  0  0  0
 19 22  1  0  0  0  0
 20 19  1  0  0  0  0
 21 19  1  0  0  0  0
M  END
>  <minimizedAffinity>
-3.86190677

>  <minimizedRMSD>
0.848627925

$$$$
