
 OpenBabel03252509043D

 46 48  0  0  1  0  0  0  0  0999 V2000
   46.7340   34.3810   43.4740 N   0  0  0  0  0  0  0  0  0  0  0  0
   46.4450   34.9240   42.2070 C   0  0  0  0  0  0  0  0  0  0  0  0
   44.9790   34.9100   41.8310 C   0  0  0  0  0  0  0  0  0  0  0  0
   44.0570   35.1580   43.0020 C   0  0  0  0  0  0  0  0  0  0  0  0
   44.8160   35.3910   44.2880 C   0  0  0  0  0  0  0  0  0  0  0  0
   45.7470   34.1260   44.3990 C   0  0  2  0  0  0  0  0  0  0  0  0
   47.0000   34.5200   41.3610 H   0  0  0  0  0  0  0  0  0  0  0  0
   46.7230   36.0180   42.2460 H   0  0  0  0  0  0  0  0  0  0  0  0
   44.7870   35.5820   40.9830 H   0  0  0  0  0  0  0  0  0  0  0  0
   44.7690   33.8780   41.4660 H   0  0  0  0  0  0  0  0  0  0  0  0
   43.3150   34.3830   43.1770 H   0  0  0  0  0  0  0  0  0  0  0  0
   43.5230   36.1140   42.7870 H   0  0  0  0  0  0  0  0  0  0  0  0
   45.4480   36.2850   44.2140 H   0  0  0  0  0  0  0  0  0  0  0  0
   44.1030   35.3860   45.1190 H   0  0  0  0  0  0  0  0  0  0  0  0
   45.0630   33.2840   44.2170 H   0  0  0  0  0  0  0  0  0  0  0  0
   47.9340   33.5800   43.5150 C   0  0  0  0  0  0  0  0  0  0  0  0
   48.1940   33.3590   44.5500 H   0  0  0  0  0  0  0  0  0  0  0  0
   48.7600   34.1970   43.0910 H   0  0  0  0  0  0  0  0  0  0  0  0
   47.7120   32.3410   42.7290 C   0  0  0  0  0  0  0  0  0  0  0  0
   47.5650   31.4730   43.3830 H   0  0  0  0  0  0  0  0  0  0  0  0
   46.7930   32.4130   42.0910 H   0  0  0  0  0  0  0  0  0  0  0  0
   51.2210   32.1690   41.4120 C   0  0  0  0  0  0  0  0  0  0  0  0
   50.1240   32.3780   42.2540 C   0  0  0  0  0  0  0  0  0  0  0  0
   48.8630   32.1110   41.8180 C   0  0  0  0  0  0  0  0  0  0  0  0
   48.7220   31.6490   40.5680 N   0  0  0  0  0  0  0  0  0  0  0  0
   49.7700   31.4440   39.7500 C   0  0  0  0  0  0  0  0  0  0  0  0
   51.0230   31.6980   40.1520 N   0  0  0  0  0  0  0  0  0  0  0  0
   52.2310   32.3600   41.7000 H   0  0  0  0  0  0  0  0  0  0  0  0
   50.3600   32.7540   43.2430 H   0  0  0  0  0  0  0  0  0  0  0  0
   49.4830   31.0720   38.7860 H   0  0  0  0  0  0  0  0  0  0  0  0
   46.1950   34.2140   45.7030 O   0  0  0  0  0  0  0  0  0  0  0  0
   45.7070   31.6060   45.6060 O   0  0  0  0  0  0  0  0  0  0  0  0
   46.0800   32.7760   46.5450 P   0  0  2  0  0  0  0  0  0  0  0  0
   44.7200   32.9250   47.5770 O   0  0  0  0  0  0  0  0  0  0  0  0
   44.9870   32.8380   48.5240 H   0  0  0  0  0  0  0  0  0  0  0  0
   47.4140   32.4240   47.4660 O   0  0  0  0  0  0  0  0  0  0  0  0
   47.5440   31.0510   47.5870 C   0  0  0  0  0  0  0  0  0  0  0  0
   46.6150   30.5770   47.9230 H   0  0  0  0  0  0  0  0  0  0  0  0
   47.8070   30.6000   46.5930 H   0  0  0  0  0  0  0  0  0  0  0  0
   48.6340   30.6840   48.5640 C   0  0  0  0  0  0  0  0  0  0  0  0
   49.1480   29.3260   48.5990 C   0  0  0  0  0  0  0  0  0  0  0  0
   48.7870   28.5380   47.9520 H   0  0  0  0  0  0  0  0  0  0  0  0
   50.4080   29.4620   49.9230 S   0  0  0  0  0  0  0  0  0  0  0  0
   50.0380   31.2840   50.2020 C   0  0  0  0  0  0  0  0  0  0  0  0
   50.5080   31.9560   50.9180 H   0  0  0  0  0  0  0  0  0  0  0  0
   49.1660   31.5420   49.4110 N   0  0  0  0  0  0  0  0  0  0  0  0
  1 16  1  0  0  0  0
  1  6  1  0  0  0  0
  2  8  1  0  0  0  0
  2  1  1  0  0  0  0
  3  2  1  0  0  0  0
  3  4  1  0  0  0  0
  4 11  1  0  0  0  0
  4  5  1  0  0  0  0
  5  6  1  0  0  0  0
  5 14  1  0  0  0  0
  6 15  1  6  0  0  0
  6 31  1  0  0  0  0
  7  2  1  0  0  0  0
  9  3  1  0  0  0  0
 10  3  1  0  0  0  0
 12  4  1  0  0  0  0
 13  5  1  0  0  0  0
 16 17  1  0  0  0  0
 18 16  1  0  0  0  0
 19 20  1  0  0  0  0
 19 16  1  0  0  0  0
 21 19  1  0  0  0  0
 22 28  1  0  0  0  0
 22 23  1  0  0  0  0
 23 29  1  0  0  0  0
 24 23  2  0  0  0  0
 24 19  1  0  0  0  0
 25 24  1  0  0  0  0
 26 27  1  0  0  0  0
 26 25  2  0  0  0  0
 27 22  2  0  0  0  0
 30 26  1  0  0  0  0
 31 33  1  0  0  0  0
 33 32  2  6  0  0  0
 33 36  1  0  0  0  0
 33 34  1  0  0  0  0
 34 35  1  0  0  0  0
 36 37  1  0  0  0  0
 37 38  1  0  0  0  0
 37 40  1  0  0  0  0
 39 37  1  0  0  0  0
 40 41  2  0  0  0  0
 40 46  1  0  0  0  0
 41 43  1  0  0  0  0
 42 41  1  0  0  0  0
 43 44  1  0  0  0  0
 44 45  1  0  0  0  0
 46 44  2  0  0  0  0
M  END
>  <minimizedAffinity>
-4.89588022

>  <minimizedRMSD>
2.96228027

$$$$
