
 OpenBabel03252509243D

 25 27  0  0  1  0  0  0  0  0999 V2000
   47.4800   34.3310   40.9300 C   0  0  1  0  0  0  0  0  0  0  0  0
   48.6320   35.3010   41.3000 C   0  0  0  0  0  0  0  0  0  0  0  0
   48.5260   33.8000   41.7240 C   0  0  2  0  0  0  0  0  0  0  0  0
   47.3920   34.1700   39.8380 H   0  0  0  0  0  0  0  0  0  0  0  0
   49.3980   35.4920   40.5170 H   0  0  0  0  0  0  0  0  0  0  0  0
   48.4890   36.0360   42.0830 H   0  0  0  0  0  0  0  0  0  0  0  0
   48.3620   33.6370   42.8220 H   0  0  0  0  0  0  0  0  0  0  0  0
   43.8400   34.8630   41.6820 C   0  0  0  0  0  0  0  0  0  0  0  0
   45.0150   34.4860   40.9550 C   0  0  0  0  0  0  0  0  0  0  0  0
   46.1960   34.7710   41.5880 C   0  0  0  0  0  0  0  0  0  0  0  0
   46.2290   35.3780   42.8280 N   0  0  0  0  0  0  0  0  0  0  0  0
   45.0960   35.7110   43.4640 C   0  0  0  0  0  0  0  0  0  0  0  0
   43.8950   35.4490   42.8850 N   0  0  0  0  0  0  0  0  0  0  0  0
   42.9010   34.6400   41.1910 H   0  0  0  0  0  0  0  0  0  0  0  0
   45.0720   36.1850   44.4340 H   0  0  0  0  0  0  0  0  0  0  0  0
   44.9650   33.8890   39.6620 N   0  0  0  0  0  0  0  0  0  0  0  0
   44.4790   34.3510   38.8440 H   0  0  0  0  0  0  0  0  0  0  0  0
   45.4120   32.9740   39.5000 H   0  0  0  0  0  0  0  0  0  0  0  0
   49.5310   32.8900   41.1150 C   0  0  0  0  0  0  0  0  0  0  0  0
   49.1780   32.2210   39.8800 C   0  0  0  0  0  0  0  0  0  0  0  0
   48.2210   32.3150   39.3280 H   0  0  0  0  0  0  0  0  0  0  0  0
   50.7070   31.2020   39.4880 S   0  0  0  0  0  0  0  0  0  0  0  0
   51.5220   31.8740   41.0630 C   0  0  0  0  0  0  0  0  0  0  0  0
   52.5720   31.7580   41.6480 H   0  0  0  0  0  0  0  0  0  0  0  0
   50.7580   32.5600   41.5150 N   0  0  0  0  0  0  0  0  0  0  0  0
  1  4  1  6  0  0  0
  1  2  1  0  0  0  0
  1 10  1  0  0  0  0
  1  3  1  0  0  0  0
  2  3  1  0  0  0  0
  2  6  1  0  0  0  0
  3  7  1  1  0  0  0
  5  2  1  0  0  0  0
  8 13  1  0  0  0  0
  9 10  1  0  0  0  0
  9  8  2  0  0  0  0
 10 11  2  0  0  0  0
 11 12  1  0  0  0  0
 12 15  1  0  0  0  0
 13 12  2  0  0  0  0
 14  8  1  0  0  0  0
 16  9  1  0  0  0  0
 17 16  1  0  0  0  0
 18 16  1  0  0  0  0
 19 25  1  0  0  0  0
 19  3  1  0  0  0  0
 20 19  2  0  0  0  0
 21 20  1  0  0  0  0
 22 20  1  0  0  0  0
 22 23  1  0  0  0  0
 23 25  2  0  0  0  0
 23 24  1  0  0  0  0
M  END
>  <minimizedAffinity>
-4.34899616

>  <minimizedRMSD>
3.20079494

$$$$
