
 OpenBabel03252508023D

 40 43  0  0  1  0  0  0  0  0999 V2000
   44.2400   34.3770   41.5580 C   0  0  0  0  0  0  0  0  0  0  0  0
   45.1230   34.2810   40.6340 O   0  0  0  0  0  0  0  0  0  0  0  0
   42.0680   33.2640   41.1560 C   0  0  0  0  0  0  0  0  0  0  0  0
   42.7900   34.4090   41.3310 C   0  0  0  0  0  0  0  0  0  0  0  0
   42.1280   35.6430   41.2730 C   0  0  0  0  0  0  0  0  0  0  0  0
   40.7800   35.7620   41.0490 C   0  0  0  0  0  0  0  0  0  0  0  0
   40.0520   34.6180   40.8750 C   0  0  0  0  0  0  0  0  0  0  0  0
   40.6880   33.4170   40.9280 C   0  0  0  0  0  0  0  0  0  0  0  0
   42.6340   36.5890   41.3920 H   0  0  0  0  0  0  0  0  0  0  0  0
   40.2710   36.7080   41.0050 H   0  0  0  0  0  0  0  0  0  0  0  0
   38.9920   34.5800   40.6930 H   0  0  0  0  0  0  0  0  0  0  0  0
   40.1180   32.4840   40.7890 H   0  0  0  0  0  0  0  0  0  0  0  0
   42.7450   31.7170   41.2560 S   0  0  0  0  0  0  0  0  0  0  0  0
   41.6530   30.8720   40.5720 O   0  0  0  0  0  0  0  0  0  0  0  0
   42.8240   31.2270   42.6620 O   0  0  0  0  0  0  0  0  0  0  0  0
   43.8920   31.0680   40.1670 C   0  0  0  0  0  0  0  0  0  0  0  0
   43.6660   31.6340   38.7210 C   0  0  0  0  0  0  0  0  0  0  0  0
   42.7920   32.4100   38.2590 H   0  0  0  0  0  0  0  0  0  0  0  0
   44.9160   30.9560   37.8080 S   0  0  0  0  0  0  0  0  0  0  0  0
   45.6800   30.0070   39.1860 C   0  0  0  0  0  0  0  0  0  0  0  0
   46.5410   29.3550   39.2220 H   0  0  0  0  0  0  0  0  0  0  0  0
   44.9470   30.3150   40.0440 N   0  0  0  0  0  0  0  0  0  0  0  0
   44.5810   34.4700   42.9470 C   0  0  0  0  0  0  0  0  0  0  0  0
   44.3060   35.7180   43.5800 C   0  0  0  0  0  0  0  0  0  0  0  0
   44.6280   35.8160   44.9230 C   0  0  0  0  0  0  0  0  0  0  0  0
   45.1740   34.7410   45.5490 N   0  0  0  0  0  0  0  0  0  0  0  0
   45.4220   33.5590   44.9000 C   0  0  0  0  0  0  0  0  0  0  0  0
   45.1160   33.4920   43.6580 N   0  0  0  0  0  0  0  0  0  0  0  0
   43.8880   36.6010   43.1800 H   0  0  0  0  0  0  0  0  0  0  0  0
   44.4610   36.7270   45.5100 H   0  0  0  0  0  0  0  0  0  0  0  0
   46.0120   32.4410   45.6600 C   0  0  1  0  0  0  0  0  0  0  0  0
   46.9730   32.7600   46.7880 C   0  0  0  0  0  0  0  0  0  0  0  0
   45.5480   32.3510   47.0710 C   0  0  1  0  0  0  0  0  0  0  0  0
   46.1090   31.4680   45.1530 H   0  0  0  0  0  0  0  0  0  0  0  0
   47.7800   31.9980   46.9220 H   0  0  0  0  0  0  0  0  0  0  0  0
   47.2890   33.8060   46.7990 H   0  0  0  0  0  0  0  0  0  0  0  0
   45.4330   31.3600   47.5520 H   0  0  0  0  0  0  0  0  0  0  0  0
   44.7650   33.3990   47.6540 N   0  0  0  0  0  0  0  0  0  0  0  0
   43.9210   33.0760   48.1460 H   0  0  0  0  0  0  0  0  0  0  0  0
   45.3180   34.1220   48.1560 H   0  0  0  0  0  0  0  0  0  0  0  0
  1 23  1  0  0  0  0
  2  1  2  0  0  0  0
  3 13  1  0  0  0  0
  3  4  1  0  0  0  0
  4  1  1  0  0  0  0
  5  4  2  0  0  0  0
  5  9  1  0  0  0  0
  6  5  1  0  0  0  0
  7  8  1  0  0  0  0
  7  6  2  0  0  0  0
  8  3  2  0  0  0  0
 10  6  1  0  0  0  0
 11  7  1  0  0  0  0
 12  8  1  0  0  0  0
 13 15  2  0  0  0  0
 14 13  2  0  0  0  0
 16 13  1  0  0  0  0
 17 16  2  0  0  0  0
 18 17  1  0  0  0  0
 19 17  1  0  0  0  0
 19 20  1  0  0  0  0
 20 21  1  0  0  0  0
 20 22  2  0  0  0  0
 22 16  1  0  0  0  0
 23 24  2  0  0  0  0
 23 28  1  0  0  0  0
 24 25  1  0  0  0  0
 25 30  1  0  0  0  0
 25 26  2  0  0  0  0
 27 26  1  0  0  0  0
 27 31  1  0  0  0  0
 28 27  2  0  0  0  0
 29 24  1  0  0  0  0
 31 34  1  6  0  0  0
 31 32  1  0  0  0  0
 31 33  1  0  0  0  0
 32 36  1  0  0  0  0
 32 35  1  0  0  0  0
 32 33  1  0  0  0  0
 33 37  1  1  0  0  0
 33 38  1  0  0  0  0
 38 39  1  0  0  0  0
 38 40  1  0  0  0  0
M  END
>  <minimizedAffinity>
-5.72217226

>  <minimizedRMSD>
1.13240325

$$$$
