
 OpenBabel03252500533D

 22 23  0  0  0  0  0  0  0  0999 V2000
   47.1220   32.4040   44.4320 C   0  0  0  0  0  0  0  0  0  0  0  0
   47.2100   31.4280   45.3980 C   0  0  0  0  0  0  0  0  0  0  0  0
   48.0570   30.3340   45.0580 C   0  0  0  0  0  0  0  0  0  0  0  0
   48.6970   30.3070   43.8650 N   0  0  0  0  0  0  0  0  0  0  0  0
   48.5640   31.2910   42.9690 C   0  0  0  0  0  0  0  0  0  0  0  0
   47.7870   32.3170   43.2600 N   0  0  0  0  0  0  0  0  0  0  0  0
   48.2510   29.4710   45.6970 H   0  0  0  0  0  0  0  0  0  0  0  0
   49.1100   31.1830   42.0480 H   0  0  0  0  0  0  0  0  0  0  0  0
   46.5860   31.3720   46.7070 C   0  0  0  0  0  0  0  0  0  0  0  0
   47.0130   32.2360   47.8510 C   0  0  0  0  0  0  0  0  0  0  0  0
   47.6920   32.9110   48.0310 H   0  0  0  0  0  0  0  0  0  0  0  0
   45.8510   31.8060   49.1370 S   0  0  0  0  0  0  0  0  0  0  0  0
   44.9480   30.5530   48.0300 C   0  0  0  0  0  0  0  0  0  0  0  0
   44.0600   29.8590   48.1840 H   0  0  0  0  0  0  0  0  0  0  0  0
   45.5460   30.5570   46.8730 N   0  0  0  0  0  0  0  0  0  0  0  0
   46.3370   33.6260   44.6610 C   0  0  0  0  0  0  0  0  0  0  0  0
   46.6660   34.1580   45.5640 H   0  0  0  0  0  0  0  0  0  0  0  0
   45.2700   33.3570   44.8650 H   0  0  0  0  0  0  0  0  0  0  0  0
   46.3730   34.4930   43.4320 C   0  0  0  0  0  0  0  0  0  0  0  0
   47.0690   34.1480   42.6440 H   0  0  0  0  0  0  0  0  0  0  0  0
   45.3550   34.3990   42.9220 H   0  0  0  0  0  0  0  0  0  0  0  0
   46.4350   35.5720   43.6710 H   0  0  0  0  0  0  0  0  0  0  0  0
  1 16  1  0  0  0  0
  1  2  1  0  0  0  0
  2  9  1  0  0  0  0
  3  2  2  0  0  0  0
  3  7  1  0  0  0  0
  4  3  1  0  0  0  0
  5  6  1  0  0  0  0
  5  4  2  0  0  0  0
  6  1  2  0  0  0  0
  8  5  1  0  0  0  0
  9 15  1  0  0  0  0
  9 10  2  0  0  0  0
 10 11  1  0  0  0  0
 10 12  1  0  0  0  0
 13 14  1  0  0  0  0
 13 12  1  0  0  0  0
 15 13  2  0  0  0  0
 16 18  1  0  0  0  0
 16 17  1  0  0  0  0
 19 22  1  0  0  0  0
 19 16  1  0  0  0  0
 20 19  1  0  0  0  0
 21 19  1  0  0  0  0
M  END
>  <minimizedAffinity>
-3.10308313

>  <minimizedRMSD>
6.65232134

$$$$
