
 OpenBabel03252507433D

 29 31  0  0  0  0  0  0  0  0999 V2000
   45.5890   34.5820   41.7220 C   0  0  0  0  0  0  0  0  0  0  0  0
   45.6560   33.8520   42.5740 H   0  0  0  0  0  0  0  0  0  0  0  0
   45.8350   35.5730   42.1770 H   0  0  0  0  0  0  0  0  0  0  0  0
   44.2130   34.6130   41.1710 C   0  0  0  0  0  0  0  0  0  0  0  0
   43.3160   35.6780   41.4890 C   0  0  0  0  0  0  0  0  0  0  0  0
   41.7900   35.1950   40.5410 S   0  0  0  0  0  0  0  0  0  0  0  0
   42.6470   33.6450   39.8910 C   0  0  0  0  0  0  0  0  0  0  0  0
   43.6840   33.7220   40.3720 N   0  0  0  0  0  0  0  0  0  0  0  0
   43.5090   36.5230   42.1170 H   0  0  0  0  0  0  0  0  0  0  0  0
   41.9710   32.6800   38.9840 C   0  0  0  0  0  0  0  0  0  0  0  0
   40.6180   32.4370   39.1220 C   0  0  0  0  0  0  0  0  0  0  0  0
   39.9420   32.9330   39.9060 H   0  0  0  0  0  0  0  0  0  0  0  0
   40.3000   31.2090   37.8010 S   0  0  0  0  0  0  0  0  0  0  0  0
   42.1210   31.2430   37.2750 C   0  0  0  0  0  0  0  0  0  0  0  0
   42.6060   30.6650   36.4560 H   0  0  0  0  0  0  0  0  0  0  0  0
   42.5680   32.0060   38.0190 N   0  0  0  0  0  0  0  0  0  0  0  0
   46.6590   34.2490   40.7360 C   0  0  0  0  0  0  0  0  0  0  0  0
   46.6850   35.1180   40.0130 H   0  0  0  0  0  0  0  0  0  0  0  0
   46.4240   33.3820   40.1320 H   0  0  0  0  0  0  0  0  0  0  0  0
   48.0180   34.1800   41.3190 C   0  0  0  0  0  0  0  0  0  0  0  0
   48.7170   32.9840   41.1590 C   0  0  0  0  0  0  0  0  0  0  0  0
   49.9900   32.8470   41.6770 C   0  0  0  0  0  0  0  0  0  0  0  0
   50.5210   33.9240   42.3420 N   0  0  0  0  0  0  0  0  0  0  0  0
   49.8190   35.0660   42.4770 C   0  0  0  0  0  0  0  0  0  0  0  0
   48.5910   35.1840   41.9720 N   0  0  0  0  0  0  0  0  0  0  0  0
   50.5070   31.9040   41.5370 H   0  0  0  0  0  0  0  0  0  0  0  0
   50.3480   35.8480   43.0230 H   0  0  0  0  0  0  0  0  0  0  0  0
   47.9700   31.6020   40.2780 S   0  0  0  0  0  0  0  0  0  0  0  0
   47.0730   30.9630   41.1410 H   0  0  0  0  0  0  0  0  0  0  0  0
  1  3  1  0  0  0  0
  1  2  1  0  0  0  0
  4  5  2  0  0  0  0
  4  1  1  0  0  0  0
  5  9  1  0  0  0  0
  6  5  1  0  0  0  0
  7  8  2  0  0  0  0
  7  6  1  0  0  0  0
  8  4  1  0  0  0  0
 10 11  2  0  0  0  0
 10  7  1  0  0  0  0
 11 12  1  0  0  0  0
 13 11  1  0  0  0  0
 14 13  1  0  0  0  0
 14 16  2  0  0  0  0
 15 14  1  0  0  0  0
 16 10  1  0  0  0  0
 17 20  1  0  0  0  0
 17  1  1  0  0  0  0
 18 17  1  0  0  0  0
 19 17  1  0  0  0  0
 20 25  1  0  0  0  0
 21 20  2  0  0  0  0
 21 22  1  0  0  0  0
 22 23  2  0  0  0  0
 23 24  1  0  0  0  0
 24 27  1  0  0  0  0
 25 24  2  0  0  0  0
 26 22  1  0  0  0  0
 28 29  1  0  0  0  0
 28 21  1  0  0  0  0
M  END
>  <minimizedAffinity>
-4.11642694

>  <minimizedRMSD>
0.859821439

$$$$
