
 OpenBabel03252500533D

 22 23  0  0  0  0  0  0  0  0999 V2000
   45.6000   35.2170   42.3980 C   0  0  0  0  0  0  0  0  0  0  0  0
   45.0610   34.5330   41.3340 C   0  0  0  0  0  0  0  0  0  0  0  0
   46.0220   33.9440   40.4620 C   0  0  0  0  0  0  0  0  0  0  0  0
   47.3460   34.0800   40.7090 N   0  0  0  0  0  0  0  0  0  0  0  0
   47.8020   34.7640   41.7640 C   0  0  0  0  0  0  0  0  0  0  0  0
   46.9330   35.3170   42.5890 N   0  0  0  0  0  0  0  0  0  0  0  0
   45.7840   33.3630   39.5690 H   0  0  0  0  0  0  0  0  0  0  0  0
   48.8710   34.8200   41.8790 H   0  0  0  0  0  0  0  0  0  0  0  0
   43.6680   34.3120   40.9930 C   0  0  0  0  0  0  0  0  0  0  0  0
   42.8860   33.1350   41.4830 C   0  0  0  0  0  0  0  0  0  0  0  0
   43.0430   32.3370   42.0200 H   0  0  0  0  0  0  0  0  0  0  0  0
   41.2490   33.4420   40.8400 S   0  0  0  0  0  0  0  0  0  0  0  0
   41.7780   35.0670   40.0110 C   0  0  0  0  0  0  0  0  0  0  0  0
   41.2370   35.8500   39.3890 H   0  0  0  0  0  0  0  0  0  0  0  0
   43.0450   35.2360   40.2650 N   0  0  0  0  0  0  0  0  0  0  0  0
   44.7360   35.8260   43.4210 C   0  0  0  0  0  0  0  0  0  0  0  0
   43.6900   35.8800   43.0910 H   0  0  0  0  0  0  0  0  0  0  0  0
   45.0360   36.8920   43.5820 H   0  0  0  0  0  0  0  0  0  0  0  0
   44.8960   35.0940   44.7260 C   0  0  0  0  0  0  0  0  0  0  0  0
   45.5050   34.1720   44.6660 H   0  0  0  0  0  0  0  0  0  0  0  0
   45.5210   35.7600   45.4120 H   0  0  0  0  0  0  0  0  0  0  0  0
   43.9420   34.9910   45.2780 H   0  0  0  0  0  0  0  0  0  0  0  0
  1  6  1  0  0  0  0
  1 16  1  0  0  0  0
  2  1  2  0  0  0  0
  3  4  2  0  0  0  0
  3  2  1  0  0  0  0
  4  5  1  0  0  0  0
  5  8  1  0  0  0  0
  5  6  2  0  0  0  0
  7  3  1  0  0  0  0
  9  2  1  0  0  0  0
  9 10  2  0  0  0  0
 10 11  1  0  0  0  0
 12 10  1  0  0  0  0
 13 15  2  0  0  0  0
 13 12  1  0  0  0  0
 14 13  1  0  0  0  0
 15  9  1  0  0  0  0
 16 18  1  0  0  0  0
 16 19  1  0  0  0  0
 17 16  1  0  0  0  0
 19 22  1  0  0  0  0
 19 21  1  0  0  0  0
 20 19  1  0  0  0  0
M  END
>  <minimizedAffinity>
-3.69723916

>  <minimizedRMSD>
4.53974295

$$$$
