
 OpenBabel03242512483D

 28 30  0  0  1  0  0  0  0  0999 V2000
   47.2630   34.6640   42.3380 N   0  0  0  0  0  0  0  0  0  0  0  0
   48.7030   34.7060   42.3030 C   0  0  0  0  0  0  0  0  0  0  0  0
   48.8670   35.5180   41.0280 C   0  0  0  0  0  0  0  0  0  0  0  0
   48.0360   34.6230   40.0980 C   0  0  0  0  0  0  0  0  0  0  0  0
   46.8400   34.3820   40.9690 C   0  0  1  0  0  0  0  0  0  0  0  0
   49.1240   35.3050   43.1300 H   0  0  0  0  0  0  0  0  0  0  0  0
   49.2070   33.7480   42.2370 H   0  0  0  0  0  0  0  0  0  0  0  0
   48.3500   36.4800   41.1570 H   0  0  0  0  0  0  0  0  0  0  0  0
   49.9000   35.6270   40.6990 H   0  0  0  0  0  0  0  0  0  0  0  0
   48.5640   33.6770   39.9170 H   0  0  0  0  0  0  0  0  0  0  0  0
   47.7820   35.1540   39.1590 H   0  0  0  0  0  0  0  0  0  0  0  0
   46.1310   35.2250   40.7330 H   0  0  0  0  0  0  0  0  0  0  0  0
   44.5080   35.9590   44.4750 C   0  0  0  0  0  0  0  0  0  0  0  0
   45.3830   35.8710   43.3940 C   0  0  0  0  0  0  0  0  0  0  0  0
   46.3450   34.8360   43.3850 C   0  0  0  0  0  0  0  0  0  0  0  0
   46.3710   33.9710   44.4370 N   0  0  0  0  0  0  0  0  0  0  0  0
   45.5050   34.0840   45.4740 C   0  0  0  0  0  0  0  0  0  0  0  0
   44.5780   35.0780   45.4870 N   0  0  0  0  0  0  0  0  0  0  0  0
   43.7640   36.7210   44.5300 H   0  0  0  0  0  0  0  0  0  0  0  0
   45.3480   36.5600   42.5760 H   0  0  0  0  0  0  0  0  0  0  0  0
   45.6350   33.3300   46.2450 H   0  0  0  0  0  0  0  0  0  0  0  0
   46.2100   33.0650   40.8240 C   0  0  0  0  0  0  0  0  0  0  0  0
   47.0400   31.9600   40.4970 C   0  0  0  0  0  0  0  0  0  0  0  0
   48.0750   31.9000   40.3290 H   0  0  0  0  0  0  0  0  0  0  0  0
   45.8100   30.5750   40.4320 S   0  0  0  0  0  0  0  0  0  0  0  0
   44.3920   31.7640   40.8630 C   0  0  0  0  0  0  0  0  0  0  0  0
   43.2960   31.5510   40.9910 H   0  0  0  0  0  0  0  0  0  0  0  0
   44.9350   32.7670   40.9640 N   0  0  0  0  0  0  0  0  0  0  0  0
  1 15  1  0  0  0  0
  2  1  1  0  0  0  0
  2  6  1  0  0  0  0
  3  8  1  0  0  0  0
  3  2  1  0  0  0  0
  4  5  1  0  0  0  0
  4  3  1  0  0  0  0
  5 12  1  6  0  0  0
  5  1  1  0  0  0  0
  7  2  1  0  0  0  0
  9  3  1  0  0  0  0
 10  4  1  0  0  0  0
 11  4  1  0  0  0  0
 13 19  1  0  0  0  0
 13 18  1  0  0  0  0
 14 13  2  0  0  0  0
 15 14  1  0  0  0  0
 15 16  2  0  0  0  0
 16 17  1  0  0  0  0
 17 18  2  0  0  0  0
 17 21  1  0  0  0  0
 20 14  1  0  0  0  0
 22 28  1  0  0  0  0
 22  5  1  0  0  0  0
 23 22  2  0  0  0  0
 24 23  1  0  0  0  0
 25 23  1  0  0  0  0
 25 26  1  0  0  0  0
 26 28  2  0  0  0  0
 26 27  1  0  0  0  0
M  END
>  <minimizedAffinity>
-4.58552217

>  <minimizedRMSD>
0.420240283

$$$$
