
 OpenBabel03252502083D

 46 50  0  0  0  0  0  0  0  0999 V2000
   47.4310   32.0740   47.8600 C   0  0  0  0  0  0  0  0  0  0  0  0
   46.8920   30.7830   47.8860 C   0  0  0  0  0  0  0  0  0  0  0  0
   45.9160   30.5070   46.9760 C   0  0  0  0  0  0  0  0  0  0  0  0
   45.5190   31.4440   46.1120 N   0  0  0  0  0  0  0  0  0  0  0  0
   46.0120   32.6620   46.0660 C   0  0  0  0  0  0  0  0  0  0  0  0
   46.9800   32.9620   46.9630 N   0  0  0  0  0  0  0  0  0  0  0  0
   45.3260   29.2650   46.9600 N   0  0  0  0  0  0  0  0  0  0  0  0
   44.1330   28.9060   46.1490 C   0  0  0  0  0  0  0  0  0  0  0  0
   44.0250   27.4110   46.2060 C   0  0  0  0  0  0  0  0  0  0  0  0
   44.6790   27.0660   47.4910 C   0  0  0  0  0  0  0  0  0  0  0  0
   45.7220   28.1030   47.7060 C   0  0  0  0  0  0  0  0  0  0  0  0
   48.2130   32.3460   48.5710 H   0  0  0  0  0  0  0  0  0  0  0  0
   44.2310   29.3090   45.1210 H   0  0  0  0  0  0  0  0  0  0  0  0
   43.2580   29.3540   46.6810 H   0  0  0  0  0  0  0  0  0  0  0  0
   44.4330   26.9050   45.3250 H   0  0  0  0  0  0  0  0  0  0  0  0
   42.9470   27.1200   46.2920 H   0  0  0  0  0  0  0  0  0  0  0  0
   45.2150   26.0920   47.3490 H   0  0  0  0  0  0  0  0  0  0  0  0
   43.9850   26.8950   48.3300 H   0  0  0  0  0  0  0  0  0  0  0  0
   46.7120   27.7940   47.3440 H   0  0  0  0  0  0  0  0  0  0  0  0
   45.6990   28.2810   48.8070 H   0  0  0  0  0  0  0  0  0  0  0  0
   45.7400   33.8230   45.1740 C   0  0  0  0  0  0  0  0  0  0  0  0
   44.8550   34.7800   45.4570 N   0  0  0  0  0  0  0  0  0  0  0  0
   44.5910   35.8300   44.6890 C   0  0  0  0  0  0  0  0  0  0  0  0
   45.2490   35.9840   43.5160 N   0  0  0  0  0  0  0  0  0  0  0  0
   46.1670   35.0820   43.1190 C   0  0  0  0  0  0  0  0  0  0  0  0
   46.8290   35.2420   41.9270 C   0  0  0  0  0  0  0  0  0  0  0  0
   47.7560   34.3420   41.5100 C   0  0  0  0  0  0  0  0  0  0  0  0
   48.0220   33.2450   42.3250 C   0  0  0  0  0  0  0  0  0  0  0  0
   47.3150   33.1420   43.5230 C   0  0  0  0  0  0  0  0  0  0  0  0
   46.3900   34.0200   43.9620 C   0  0  0  0  0  0  0  0  0  0  0  0
   43.8640   36.5840   44.9590 H   0  0  0  0  0  0  0  0  0  0  0  0
   46.5700   36.1180   41.3470 H   0  0  0  0  0  0  0  0  0  0  0  0
   48.2420   34.5220   40.5670 H   0  0  0  0  0  0  0  0  0  0  0  0
   49.0310   32.2540   41.8820 C   0  0  0  0  0  0  0  0  0  0  0  0
   49.4260   31.2100   42.6980 C   0  0  0  0  0  0  0  0  0  0  0  0
   49.0960   30.9520   43.7200 H   0  0  0  0  0  0  0  0  0  0  0  0
   50.6710   30.3370   41.6230 S   0  0  0  0  0  0  0  0  0  0  0  0
   50.4080   31.5970   40.2290 C   0  0  0  0  0  0  0  0  0  0  0  0
   50.8980   31.6210   39.2520 H   0  0  0  0  0  0  0  0  0  0  0  0
   49.6090   32.3120   40.6840 N   0  0  0  0  0  0  0  0  0  0  0  0
   47.7070   31.9720   44.2420 N   0  0  0  0  0  0  0  0  0  0  0  0
   47.0680   31.2370   43.8220 H   0  0  0  0  0  0  0  0  0  0  0  0
   48.4080   31.7610   44.9800 H   0  0  0  0  0  0  0  0  0  0  0  0
   47.4110   29.8940   48.7900 N   0  0  0  0  0  0  0  0  0  0  0  0
   48.1260   29.1370   48.7150 H   0  0  0  0  0  0  0  0  0  0  0  0
   46.8910   30.1560   49.6800 H   0  0  0  0  0  0  0  0  0  0  0  0
  1  2  1  0  0  0  0
  1 12  1  0  0  0  0
  2 44  1  0  0  0  0
  3  2  2  0  0  0  0
  4  3  1  0  0  0  0
  5  4  2  0  0  0  0
  5  6  1  0  0  0  0
  6  1  2  0  0  0  0
  7  3  1  0  0  0  0
  7 11  1  0  0  0  0
  8  9  1  0  0  0  0
  8 14  1  0  0  0  0
  8  7  1  0  0  0  0
  9 16  1  0  0  0  0
  9 10  1  0  0  0  0
 10 11  1  0  0  0  0
 10 18  1  0  0  0  0
 11 20  1  0  0  0  0
 13  8  1  0  0  0  0
 15  9  1  0  0  0  0
 17 10  1  0  0  0  0
 19 11  1  0  0  0  0
 21 22  1  0  0  0  0
 21  5  1  0  0  0  0
 23 31  1  0  0  0  0
 23 22  2  0  0  0  0
 24 23  1  0  0  0  0
 25 24  2  0  0  0  0
 25 30  1  0  0  0  0
 26 25  1  0  0  0  0
 27 26  2  0  0  0  0
 27 28  1  0  0  0  0
 28 29  2  0  0  0  0
 29 30  1  0  0  0  0
 29 41  1  0  0  0  0
 30 21  2  0  0  0  0
 32 26  1  0  0  0  0
 33 27  1  0  0  0  0
 34 28  1  0  0  0  0
 34 35  2  0  0  0  0
 35 36  1  0  0  0  0
 37 35  1  0  0  0  0
 38 40  2  0  0  0  0
 38 37  1  0  0  0  0
 39 38  1  0  0  0  0
 40 34  1  0  0  0  0
 41 43  1  0  0  0  0
 42 41  1  0  0  0  0
 44 46  1  0  0  0  0
 45 44  1  0  0  0  0
M  END
>  <minimizedAffinity>
-6.8813715

>  <minimizedRMSD>
0.0931984931

$$$$
