
 OpenBabel03252505043D

 32 34  0  0  1  0  0  0  0  0999 V2000
   37.1500   27.2770   42.5770 C   0  0  2  0  0  0  0  0  0  0  0  0
   38.0750   27.7520   43.6460 C   0  0  0  0  0  0  0  0  0  0  0  0
   39.4900   27.3690   43.5020 C   0  0  0  0  0  0  0  0  0  0  0  0
   39.5010   25.8540   43.3700 C   0  0  0  0  0  0  0  0  0  0  0  0
   38.8450   25.3840   42.1360 C   0  0  0  0  0  0  0  0  0  0  0  0
   37.6130   26.1650   41.7580 C   0  0  0  0  0  0  0  0  0  0  0  0
   36.1760   26.9970   43.0400 H   0  0  0  0  0  0  0  0  0  0  0  0
   38.0340   28.8630   43.7830 H   0  0  0  0  0  0  0  0  0  0  0  0
   37.7190   27.3510   44.6260 H   0  0  0  0  0  0  0  0  0  0  0  0
   39.9540   27.7840   42.6040 H   0  0  0  0  0  0  0  0  0  0  0  0
   40.0220   27.5940   44.4430 H   0  0  0  0  0  0  0  0  0  0  0  0
   40.5800   25.6060   43.2140 H   0  0  0  0  0  0  0  0  0  0  0  0
   39.1100   25.3400   44.2490 H   0  0  0  0  0  0  0  0  0  0  0  0
   39.0730   24.6010   41.4580 H   0  0  0  0  0  0  0  0  0  0  0  0
   35.3740   29.6410   40.3470 C   0  0  0  0  0  0  0  0  0  0  0  0
   36.3200   30.6870   40.2090 C   0  0  0  0  0  0  0  0  0  0  0  0
   37.5540   30.5490   40.8890 C   0  0  0  0  0  0  0  0  0  0  0  0
   37.7530   29.4310   41.6250 N   0  0  0  0  0  0  0  0  0  0  0  0
   36.8420   28.4650   41.7340 C   0  0  0  0  0  0  0  0  0  0  0  0
   35.6370   28.5580   41.0940 N   0  0  0  0  0  0  0  0  0  0  0  0
   34.4440   29.7820   39.8130 H   0  0  0  0  0  0  0  0  0  0  0  0
   36.1800   31.5730   39.6340 H   0  0  0  0  0  0  0  0  0  0  0  0
   38.5730   31.5970   40.7850 C   0  0  0  0  0  0  0  0  0  0  0  0
   39.9690   31.2470   40.7500 C   0  0  0  0  0  0  0  0  0  0  0  0
   40.3870   30.1900   40.7950 H   0  0  0  0  0  0  0  0  0  0  0  0
   40.7790   32.8710   40.6200 S   0  0  0  0  0  0  0  0  0  0  0  0
   39.1030   33.7660   40.6350 C   0  0  0  0  0  0  0  0  0  0  0  0
   38.9210   34.8590   40.5780 H   0  0  0  0  0  0  0  0  0  0  0  0
   38.3400   32.8920   40.7180 N   0  0  0  0  0  0  0  0  0  0  0  0
   36.8850   25.8210   40.5830 N   0  0  0  0  0  0  0  0  0  0  0  0
   37.5190   26.1060   39.8030 H   0  0  0  0  0  0  0  0  0  0  0  0
   35.9390   25.3860   40.6070 H   0  0  0  0  0  0  0  0  0  0  0  0
  1  7  1  1  0  0  0
  1  2  1  0  0  0  0
  2  8  1  0  0  0  0
  2  9  1  0  0  0  0
  3  2  1  0  0  0  0
  3 11  1  0  0  0  0
  4  3  1  0  0  0  0
  4 13  1  0  0  0  0
  5  4  1  0  0  0  0
  6  5  2  0  0  0  0
  6  1  1  0  0  0  0
 10  3  1  0  0  0  0
 12  4  1  0  0  0  0
 14  5  1  0  0  0  0
 15 20  1  0  0  0  0
 16 15  2  0  0  0  0
 16 17  1  0  0  0  0
 17 18  2  0  0  0  0
 18 19  1  0  0  0  0
 19  1  1  0  0  0  0
 20 19  2  0  0  0  0
 21 15  1  0  0  0  0
 22 16  1  0  0  0  0
 23 17  1  0  0  0  0
 24 23  2  0  0  0  0
 24 25  1  0  0  0  0
 26 27  1  0  0  0  0
 26 24  1  0  0  0  0
 27 29  2  0  0  0  0
 28 27  1  0  0  0  0
 29 23  1  0  0  0  0
 30 32  1  0  0  0  0
 30  6  1  0  0  0  0
 31 30  1  0  0  0  0
M  END
>  <minimizedAffinity>
-5.26952314

$$$$

 OpenBabel03252505043D

 32 34  0  0  1  0  0  0  0  0999 V2000
   40.9420   32.0310   39.2470 C   0  0  2  0  0  0  0  0  0  0  0  0
   41.6950   32.6540   40.3730 C   0  0  0  0  0  0  0  0  0  0  0  0
   42.0580   34.0730   40.2080 C   0  0  0  0  0  0  0  0  0  0  0  0
   42.8210   34.1580   38.8950 C   0  0  0  0  0  0  0  0  0  0  0  0
   41.9820   33.8350   37.7260 C   0  0  0  0  0  0  0  0  0  0  0  0
   41.0080   32.7100   37.9600 C   0  0  0  0  0  0  0  0  0  0  0  0
   41.2940   30.9820   39.1150 H   0  0  0  0  0  0  0  0  0  0  0  0
   41.1610   32.5500   41.3530 H   0  0  0  0  0  0  0  0  0  0  0  0
   42.6430   32.0830   40.5250 H   0  0  0  0  0  0  0  0  0  0  0  0
   41.1880   34.7290   40.1300 H   0  0  0  0  0  0  0  0  0  0  0  0
   42.7800   34.3540   40.9950 H   0  0  0  0  0  0  0  0  0  0  0  0
   43.0360   35.2490   38.7800 H   0  0  0  0  0  0  0  0  0  0  0  0
   43.7460   33.5800   38.8930 H   0  0  0  0  0  0  0  0  0  0  0  0
   41.9300   34.2420   36.7480 H   0  0  0  0  0  0  0  0  0  0  0  0
   37.3300   32.6830   39.7400 C   0  0  0  0  0  0  0  0  0  0  0  0
   36.9450   31.6060   40.5750 C   0  0  0  0  0  0  0  0  0  0  0  0
   37.9450   30.6780   40.9530 C   0  0  0  0  0  0  0  0  0  0  0  0
   39.2030   30.8780   40.4940 N   0  0  0  0  0  0  0  0  0  0  0  0
   39.5320   31.9020   39.7090 C   0  0  0  0  0  0  0  0  0  0  0  0
   38.5970   32.8210   39.3200 N   0  0  0  0  0  0  0  0  0  0  0  0
   36.5380   33.3700   39.4720 H   0  0  0  0  0  0  0  0  0  0  0  0
   35.9600   31.4340   40.9450 H   0  0  0  0  0  0  0  0  0  0  0  0
   37.6090   29.5430   41.8160 C   0  0  0  0  0  0  0  0  0  0  0  0
   36.5520   28.6390   41.4430 C   0  0  0  0  0  0  0  0  0  0  0  0
   35.9190   28.7160   40.5000 H   0  0  0  0  0  0  0  0  0  0  0  0
   36.5490   27.4470   42.8170 S   0  0  0  0  0  0  0  0  0  0  0  0
   37.9760   28.3580   43.6800 C   0  0  0  0  0  0  0  0  0  0  0  0
   38.4620   28.0950   44.6400 H   0  0  0  0  0  0  0  0  0  0  0  0
   38.1980   29.2420   42.9560 N   0  0  0  0  0  0  0  0  0  0  0  0
   40.1320   32.2980   36.9150 N   0  0  0  0  0  0  0  0  0  0  0  0
   39.4610   33.0940   36.8230 H   0  0  0  0  0  0  0  0  0  0  0  0
   40.2260   31.3870   36.4190 H   0  0  0  0  0  0  0  0  0  0  0  0
  1  7  1  6  0  0  0
  1 19  1  0  0  0  0
  1  2  1  0  0  0  0
  2  9  1  0  0  0  0
  2  8  1  0  0  0  0
  3  2  1  0  0  0  0
  3 11  1  0  0  0  0
  4  3  1  0  0  0  0
  5  6  2  0  0  0  0
  5  4  1  0  0  0  0
  6  1  1  0  0  0  0
 10  3  1  0  0  0  0
 12  4  1  0  0  0  0
 13  4  1  0  0  0  0
 14  5  1  0  0  0  0
 15 16  1  0  0  0  0
 16 22  1  0  0  0  0
 16 17  2  0  0  0  0
 17 23  1  0  0  0  0
 18 17  1  0  0  0  0
 19 18  2  0  0  0  0
 20 19  1  0  0  0  0
 20 15  2  0  0  0  0
 21 15  1  0  0  0  0
 23 29  1  0  0  0  0
 24 23  2  0  0  0  0
 24 26  1  0  0  0  0
 25 24  1  0  0  0  0
 26 27  1  0  0  0  0
 27 28  1  0  0  0  0
 29 27  2  0  0  0  0
 30  6  1  0  0  0  0
 31 30  1  0  0  0  0
 32 30  1  0  0  0  0
M  END
>  <minimizedAffinity>
-5.25741005

$$$$

 OpenBabel03252505043D

 32 34  0  0  1  0  0  0  0  0999 V2000
   38.4290   28.5000   41.5990 C   0  0  2  0  0  0  0  0  0  0  0  0
   38.4600   27.4800   40.5110 C   0  0  0  0  0  0  0  0  0  0  0  0
   37.3170   26.5510   40.4550 C   0  0  0  0  0  0  0  0  0  0  0  0
   37.2310   25.9130   41.8330 C   0  0  0  0  0  0  0  0  0  0  0  0
   36.8890   26.8830   42.8900 C   0  0  0  0  0  0  0  0  0  0  0  0
   37.5420   28.2300   42.7230 C   0  0  0  0  0  0  0  0  0  0  0  0
   39.4630   28.6450   41.9870 H   0  0  0  0  0  0  0  0  0  0  0  0
   38.5760   27.9410   39.4960 H   0  0  0  0  0  0  0  0  0  0  0  0
   39.3850   26.8640   40.6290 H   0  0  0  0  0  0  0  0  0  0  0  0
   36.3680   27.0550   40.2620 H   0  0  0  0  0  0  0  0  0  0  0  0
   37.5550   25.7290   39.7560 H   0  0  0  0  0  0  0  0  0  0  0  0
   36.3290   25.2560   41.7680 H   0  0  0  0  0  0  0  0  0  0  0  0
   38.1140   25.3310   42.0970 H   0  0  0  0  0  0  0  0  0  0  0  0
   36.2700   26.8170   43.7480 H   0  0  0  0  0  0  0  0  0  0  0  0
   36.5080   31.4310   40.4000 C   0  0  0  0  0  0  0  0  0  0  0  0
   37.5070   32.1930   39.7450 C   0  0  0  0  0  0  0  0  0  0  0  0
   38.8240   31.6730   39.7300 C   0  0  0  0  0  0  0  0  0  0  0  0
   39.0450   30.4850   40.3400 N   0  0  0  0  0  0  0  0  0  0  0  0
   38.0830   29.7930   40.9470 C   0  0  0  0  0  0  0  0  0  0  0  0
   36.7980   30.2590   40.9850 N   0  0  0  0  0  0  0  0  0  0  0  0
   35.5150   31.8600   40.3910 H   0  0  0  0  0  0  0  0  0  0  0  0
   37.3500   33.1290   39.2610 H   0  0  0  0  0  0  0  0  0  0  0  0
   39.9000   32.4150   39.0680 C   0  0  0  0  0  0  0  0  0  0  0  0
   40.4540   33.5920   39.6860 C   0  0  0  0  0  0  0  0  0  0  0  0
   40.1270   34.0290   40.6850 H   0  0  0  0  0  0  0  0  0  0  0  0
   41.7180   34.1100   38.4860 S   0  0  0  0  0  0  0  0  0  0  0  0
   41.3000   32.6550   37.3380 C   0  0  0  0  0  0  0  0  0  0  0  0
   41.7670   32.4080   36.3640 H   0  0  0  0  0  0  0  0  0  0  0  0
   40.4460   32.1070   37.9090 N   0  0  0  0  0  0  0  0  0  0  0  0
   37.2940   29.2640   43.6710 N   0  0  0  0  0  0  0  0  0  0  0  0
   36.2980   29.5290   43.4970 H   0  0  0  0  0  0  0  0  0  0  0  0
   38.0130   29.6050   44.3430 H   0  0  0  0  0  0  0  0  0  0  0  0
  1  7  1  1  0  0  0
  1  6  1  0  0  0  0
  2  9  1  0  0  0  0
  2  1  1  0  0  0  0
  3  2  1  0  0  0  0
  3  4  1  0  0  0  0
  4 13  1  0  0  0  0
  4  5  1  0  0  0  0
  5 14  1  0  0  0  0
  6  5  2  0  0  0  0
  6 30  1  0  0  0  0
  8  2  1  0  0  0  0
 10  3  1  0  0  0  0
 11  3  1  0  0  0  0
 12  4  1  0  0  0  0
 15 20  1  0  0  0  0
 16 15  2  0  0  0  0
 17 16  1  0  0  0  0
 17 18  2  0  0  0  0
 18 19  1  0  0  0  0
 19 20  2  0  0  0  0
 19  1  1  0  0  0  0
 21 15  1  0  0  0  0
 22 16  1  0  0  0  0
 23 24  2  0  0  0  0
 23 17  1  0  0  0  0
 24 25  1  0  0  0  0
 26 24  1  0  0  0  0
 27 29  2  0  0  0  0
 27 26  1  0  0  0  0
 28 27  1  0  0  0  0
 29 23  1  0  0  0  0
 30 32  1  0  0  0  0
 31 30  1  0  0  0  0
M  END
>  <minimizedAffinity>
-5.20612049

$$$$

 OpenBabel03252505043D

 32 34  0  0  1  0  0  0  0  0999 V2000
   37.6700   30.1090   40.0070 C   0  0  2  0  0  0  0  0  0  0  0  0
   39.0490   30.3860   39.5110 C   0  0  0  0  0  0  0  0  0  0  0  0
   39.6660   31.6440   39.9680 C   0  0  0  0  0  0  0  0  0  0  0  0
   38.6900   32.7480   39.5900 C   0  0  0  0  0  0  0  0  0  0  0  0
   37.4130   32.6550   40.3210 C   0  0  0  0  0  0  0  0  0  0  0  0
   36.9170   31.2460   40.5170 C   0  0  0  0  0  0  0  0  0  0  0  0
   37.0830   29.6300   39.1900 H   0  0  0  0  0  0  0  0  0  0  0  0
   39.7610   29.5520   39.7420 H   0  0  0  0  0  0  0  0  0  0  0  0
   39.0250   30.4130   38.3940 H   0  0  0  0  0  0  0  0  0  0  0  0
   39.8060   31.6800   41.0510 H   0  0  0  0  0  0  0  0  0  0  0  0
   40.5790   31.8320   39.3780 H   0  0  0  0  0  0  0  0  0  0  0  0
   39.1660   33.6750   39.9940 H   0  0  0  0  0  0  0  0  0  0  0  0
   38.5290   32.8330   38.5150 H   0  0  0  0  0  0  0  0  0  0  0  0
   36.7730   33.3900   40.7380 H   0  0  0  0  0  0  0  0  0  0  0  0
   38.1130   28.4300   43.2790 C   0  0  0  0  0  0  0  0  0  0  0  0
   38.0310   27.0610   42.9240 C   0  0  0  0  0  0  0  0  0  0  0  0
   37.8280   26.7490   41.5580 C   0  0  0  0  0  0  0  0  0  0  0  0
   37.7240   27.7740   40.6800 N   0  0  0  0  0  0  0  0  0  0  0  0
   37.8060   29.0510   41.0470 C   0  0  0  0  0  0  0  0  0  0  0  0
   38.0020   29.3970   42.3550 N   0  0  0  0  0  0  0  0  0  0  0  0
   38.2690   28.6300   44.3300 H   0  0  0  0  0  0  0  0  0  0  0  0
   38.1100   26.2430   43.6020 H   0  0  0  0  0  0  0  0  0  0  0  0
   37.7340   25.3510   41.1280 C   0  0  0  0  0  0  0  0  0  0  0  0
   38.8930   24.4980   41.1840 C   0  0  0  0  0  0  0  0  0  0  0  0
   39.9260   24.8100   41.5450 H   0  0  0  0  0  0  0  0  0  0  0  0
   38.2490   22.9170   40.5580 S   0  0  0  0  0  0  0  0  0  0  0  0
   36.5160   23.6570   40.3190 C   0  0  0  0  0  0  0  0  0  0  0  0
   35.6110   23.1460   39.9340 H   0  0  0  0  0  0  0  0  0  0  0  0
   36.6500   24.7570   40.6720 N   0  0  0  0  0  0  0  0  0  0  0  0
   35.6960   31.0120   41.2120 N   0  0  0  0  0  0  0  0  0  0  0  0
   35.9220   31.2580   42.2030 H   0  0  0  0  0  0  0  0  0  0  0  0
   34.8300   30.6720   40.7440 H   0  0  0  0  0  0  0  0  0  0  0  0
  1  7  1  6  0  0  0
  1  6  1  0  0  0  0
  1 19  1  0  0  0  0
  2  8  1  0  0  0  0
  2  3  1  0  0  0  0
  2  1  1  0  0  0  0
  3 10  1  0  0  0  0
  4  3  1  0  0  0  0
  4 12  1  0  0  0  0
  4  5  1  0  0  0  0
  5  6  2  0  0  0  0
  5 14  1  0  0  0  0
  6 30  1  0  0  0  0
  9  2  1  0  0  0  0
 11  3  1  0  0  0  0
 13  4  1  0  0  0  0
 15 21  1  0  0  0  0
 16 15  1  0  0  0  0
 16 22  1  0  0  0  0
 17 16  2  0  0  0  0
 18 19  2  0  0  0  0
 18 17  1  0  0  0  0
 19 20  1  0  0  0  0
 20 15  2  0  0  0  0
 23 24  2  0  0  0  0
 23 17  1  0  0  0  0
 24 25  1  0  0  0  0
 26 24  1  0  0  0  0
 27 26  1  0  0  0  0
 27 29  2  0  0  0  0
 28 27  1  0  0  0  0
 29 23  1  0  0  0  0
 30 31  1  0  0  0  0
 32 30  1  0  0  0  0
M  END
>  <minimizedAffinity>
-5.12778568

$$$$

 OpenBabel03252505043D

 32 34  0  0  1  0  0  0  0  0999 V2000
   36.4120   30.4120   39.0360 C   0  0  2  0  0  0  0  0  0  0  0  0
   37.4110   30.7390   37.9780 C   0  0  0  0  0  0  0  0  0  0  0  0
   38.6360   31.4240   38.4270 C   0  0  0  0  0  0  0  0  0  0  0  0
   38.1700   32.6640   39.1750 C   0  0  0  0  0  0  0  0  0  0  0  0
   37.4330   32.3410   40.4100 C   0  0  0  0  0  0  0  0  0  0  0  0
   36.5210   31.1480   40.2880 C   0  0  0  0  0  0  0  0  0  0  0  0
   35.3880   30.5610   38.6230 H   0  0  0  0  0  0  0  0  0  0  0  0
   37.7200   29.8370   37.3890 H   0  0  0  0  0  0  0  0  0  0  0  0
   36.9210   31.3960   37.2190 H   0  0  0  0  0  0  0  0  0  0  0  0
   39.2310   30.8230   39.1180 H   0  0  0  0  0  0  0  0  0  0  0  0
   39.1870   31.7930   37.5440 H   0  0  0  0  0  0  0  0  0  0  0  0
   39.1190   33.1280   39.5400 H   0  0  0  0  0  0  0  0  0  0  0  0
   37.6140   33.3630   38.5500 H   0  0  0  0  0  0  0  0  0  0  0  0
   37.4190   32.7870   41.3720 H   0  0  0  0  0  0  0  0  0  0  0  0
   35.9660   26.7530   38.6780 C   0  0  0  0  0  0  0  0  0  0  0  0
   36.7630   26.2520   39.7370 C   0  0  0  0  0  0  0  0  0  0  0  0
   37.4340   27.1920   40.5550 C   0  0  0  0  0  0  0  0  0  0  0  0
   37.2750   28.5070   40.2740 N   0  0  0  0  0  0  0  0  0  0  0  0
   36.5180   28.9450   39.2700 C   0  0  0  0  0  0  0  0  0  0  0  0
   35.8520   28.0710   38.4560 N   0  0  0  0  0  0  0  0  0  0  0  0
   35.4690   26.0050   38.0750 H   0  0  0  0  0  0  0  0  0  0  0  0
   36.9000   25.2210   39.9700 H   0  0  0  0  0  0  0  0  0  0  0  0
   38.2730   26.7350   41.6660 C   0  0  0  0  0  0  0  0  0  0  0  0
   38.8930   25.4370   41.6180 C   0  0  0  0  0  0  0  0  0  0  0  0
   38.7960   24.6890   40.7650 H   0  0  0  0  0  0  0  0  0  0  0  0
   39.7950   25.3720   43.1960 S   0  0  0  0  0  0  0  0  0  0  0  0
   39.1920   27.1090   43.6720 C   0  0  0  0  0  0  0  0  0  0  0  0
   39.4210   27.6730   44.5990 H   0  0  0  0  0  0  0  0  0  0  0  0
   38.5360   27.4180   42.7620 N   0  0  0  0  0  0  0  0  0  0  0  0
   35.7530   30.7220   41.4100 N   0  0  0  0  0  0  0  0  0  0  0  0
   36.4650   30.3320   42.0680 H   0  0  0  0  0  0  0  0  0  0  0  0
   34.7170   30.8230   41.4620 H   0  0  0  0  0  0  0  0  0  0  0  0
  1  7  1  6  0  0  0
  1 19  1  0  0  0  0
  1  6  1  0  0  0  0
  2  3  1  0  0  0  0
  2  1  1  0  0  0  0
  3 10  1  0  0  0  0
  3  4  1  0  0  0  0
  4 12  1  0  0  0  0
  4  5  1  0  0  0  0
  5 14  1  0  0  0  0
  6  5  2  0  0  0  0
  6 30  1  0  0  0  0
  8  2  1  0  0  0  0
  9  2  1  0  0  0  0
 11  3  1  0  0  0  0
 13  4  1  0  0  0  0
 15 16  1  0  0  0  0
 16 22  1  0  0  0  0
 16 17  2  0  0  0  0
 17 23  1  0  0  0  0
 18 17  1  0  0  0  0
 19 18  2  0  0  0  0
 20 15  2  0  0  0  0
 20 19  1  0  0  0  0
 21 15  1  0  0  0  0
 23 29  1  0  0  0  0
 24 23  2  0  0  0  0
 24 26  1  0  0  0  0
 25 24  1  0  0  0  0
 26 27  1  0  0  0  0
 27 28  1  0  0  0  0
 29 27  2  0  0  0  0
 30 32  1  0  0  0  0
 30 31  1  0  0  0  0
M  END
>  <minimizedAffinity>
-5.09586

$$$$

 OpenBabel03252505043D

 32 34  0  0  1  0  0  0  0  0999 V2000
   39.1860   30.0870   42.6290 C   0  0  2  0  0  0  0  0  0  0  0  0
   40.5540   29.7090   42.1720 C   0  0  0  0  0  0  0  0  0  0  0  0
   40.7600   28.2900   41.8340 C   0  0  0  0  0  0  0  0  0  0  0  0
   40.3320   27.5020   43.0620 C   0  0  0  0  0  0  0  0  0  0  0  0
   38.8900   27.6270   43.3450 C   0  0  0  0  0  0  0  0  0  0  0  0
   38.3320   29.0050   43.1000 C   0  0  0  0  0  0  0  0  0  0  0  0
   39.2730   30.8500   43.4360 H   0  0  0  0  0  0  0  0  0  0  0  0
   40.8970   30.3220   41.2980 H   0  0  0  0  0  0  0  0  0  0  0  0
   41.2820   29.9690   42.9800 H   0  0  0  0  0  0  0  0  0  0  0  0
   40.1450   27.9590   40.9950 H   0  0  0  0  0  0  0  0  0  0  0  0
   41.8420   28.1010   41.7170 H   0  0  0  0  0  0  0  0  0  0  0  0
   40.4550   26.4350   42.7520 H   0  0  0  0  0  0  0  0  0  0  0  0
   40.9310   27.7190   43.9470 H   0  0  0  0  0  0  0  0  0  0  0  0
   38.1650   26.9330   43.6870 H   0  0  0  0  0  0  0  0  0  0  0  0
   38.2320   32.7680   40.2580 C   0  0  0  0  0  0  0  0  0  0  0  0
   37.3680   32.0830   39.3680 C   0  0  0  0  0  0  0  0  0  0  0  0
   37.1310   30.7090   39.6110 C   0  0  0  0  0  0  0  0  0  0  0  0
   37.7430   30.1360   40.6730 N   0  0  0  0  0  0  0  0  0  0  0  0
   38.5510   30.8090   41.4910 C   0  0  0  0  0  0  0  0  0  0  0  0
   38.8070   32.1370   41.2930 N   0  0  0  0  0  0  0  0  0  0  0  0
   38.3890   33.8160   40.0400 H   0  0  0  0  0  0  0  0  0  0  0  0
   36.8780   32.5180   38.5270 H   0  0  0  0  0  0  0  0  0  0  0  0
   36.2460   29.9460   38.7260 C   0  0  0  0  0  0  0  0  0  0  0  0
   36.5520   29.8290   37.3230 C   0  0  0  0  0  0  0  0  0  0  0  0
   37.4530   30.2890   36.8030 H   0  0  0  0  0  0  0  0  0  0  0  0
   35.1770   28.8130   36.7040 S   0  0  0  0  0  0  0  0  0  0  0  0
   34.4060   28.7060   38.4370 C   0  0  0  0  0  0  0  0  0  0  0  0
   33.4760   28.1780   38.7310 H   0  0  0  0  0  0  0  0  0  0  0  0
   35.1440   29.3240   39.0910 N   0  0  0  0  0  0  0  0  0  0  0  0
   36.9500   29.2640   43.3280 N   0  0  0  0  0  0  0  0  0  0  0  0
   36.4680   28.7420   42.5620 H   0  0  0  0  0  0  0  0  0  0  0  0
   36.6030   29.8560   44.1120 H   0  0  0  0  0  0  0  0  0  0  0  0
  1  6  1  0  0  0  0
  1  7  1  1  0  0  0
  2  1  1  0  0  0  0
  2  9  1  0  0  0  0
  3  2  1  0  0  0  0
  3  4  1  0  0  0  0
  4  5  1  0  0  0  0
  4 13  1  0  0  0  0
  5 14  1  0  0  0  0
  6 30  1  0  0  0  0
  6  5  2  0  0  0  0
  8  2  1  0  0  0  0
 10  3  1  0  0  0  0
 11  3  1  0  0  0  0
 12  4  1  0  0  0  0
 15 20  1  0  0  0  0
 16 17  1  0  0  0  0
 16 15  2  0  0  0  0
 17 18  2  0  0  0  0
 18 19  1  0  0  0  0
 19  1  1  0  0  0  0
 20 19  2  0  0  0  0
 21 15  1  0  0  0  0
 22 16  1  0  0  0  0
 23 29  1  0  0  0  0
 23 17  1  0  0  0  0
 24 23  2  0  0  0  0
 25 24  1  0  0  0  0
 26 24  1  0  0  0  0
 26 27  1  0  0  0  0
 27 28  1  0  0  0  0
 27 29  2  0  0  0  0
 30 32  1  0  0  0  0
 31 30  1  0  0  0  0
M  END
>  <minimizedAffinity>
-5.04858017

$$$$

 OpenBabel03252505043D

 32 34  0  0  1  0  0  0  0  0999 V2000
   37.4000   30.1530   39.5760 C   0  0  2  0  0  0  0  0  0  0  0  0
   37.5520   29.7970   38.1360 C   0  0  0  0  0  0  0  0  0  0  0  0
   36.3140   29.7710   37.3370 C   0  0  0  0  0  0  0  0  0  0  0  0
   35.3700   28.8240   38.0610 C   0  0  0  0  0  0  0  0  0  0  0  0
   34.9640   29.3280   39.3860 C   0  0  0  0  0  0  0  0  0  0  0  0
   36.0660   30.0200   40.1450 C   0  0  0  0  0  0  0  0  0  0  0  0
   38.1060   29.5350   40.1770 H   0  0  0  0  0  0  0  0  0  0  0  0
   38.2860   30.4590   37.6080 H   0  0  0  0  0  0  0  0  0  0  0  0
   38.0140   28.7820   38.0690 H   0  0  0  0  0  0  0  0  0  0  0  0
   35.8260   30.7460   37.2760 H   0  0  0  0  0  0  0  0  0  0  0  0
   36.5260   29.2990   36.3610 H   0  0  0  0  0  0  0  0  0  0  0  0
   34.4310   28.8680   37.4560 H   0  0  0  0  0  0  0  0  0  0  0  0
   35.7440   27.8020   38.1210 H   0  0  0  0  0  0  0  0  0  0  0  0
   34.0430   29.2990   39.9120 H   0  0  0  0  0  0  0  0  0  0  0  0
   37.5270   33.8530   39.6590 C   0  0  0  0  0  0  0  0  0  0  0  0
   38.8780   34.0960   40.0070 C   0  0  0  0  0  0  0  0  0  0  0  0
   39.7180   32.9730   40.2020 C   0  0  0  0  0  0  0  0  0  0  0  0
   39.1790   31.7420   40.0450 N   0  0  0  0  0  0  0  0  0  0  0  0
   37.9020   31.5470   39.7170 C   0  0  0  0  0  0  0  0  0  0  0  0
   37.0570   32.6040   39.5190 N   0  0  0  0  0  0  0  0  0  0  0  0
   36.9170   34.7350   39.5180 H   0  0  0  0  0  0  0  0  0  0  0  0
   39.3190   35.0580   40.1350 H   0  0  0  0  0  0  0  0  0  0  0  0
   41.1260   33.1600   40.5630 C   0  0  0  0  0  0  0  0  0  0  0  0
   41.9170   34.1600   39.8950 C   0  0  0  0  0  0  0  0  0  0  0  0
   41.5470   34.8560   39.0740 H   0  0  0  0  0  0  0  0  0  0  0  0
   43.5390   33.9790   40.6970 S   0  0  0  0  0  0  0  0  0  0  0  0
   42.8930   32.5810   41.8090 C   0  0  0  0  0  0  0  0  0  0  0  0
   43.4560   32.0140   42.5770 H   0  0  0  0  0  0  0  0  0  0  0  0
   41.7810   32.4770   41.4800 N   0  0  0  0  0  0  0  0  0  0  0  0
   35.8090   30.5600   41.4380 N   0  0  0  0  0  0  0  0  0  0  0  0
   35.1860   31.3780   41.2490 H   0  0  0  0  0  0  0  0  0  0  0  0
   36.2030   30.1550   42.3130 H   0  0  0  0  0  0  0  0  0  0  0  0
  1 19  1  0  0  0  0
  1  6  1  0  0  0  0
  1  7  1  1  0  0  0
  2  1  1  0  0  0  0
  3  4  1  0  0  0  0
  3  2  1  0  0  0  0
  4 13  1  0  0  0  0
  4  5  1  0  0  0  0
  5 14  1  0  0  0  0
  5  6  2  0  0  0  0
  6 30  1  0  0  0  0
  8  2  1  0  0  0  0
  9  2  1  0  0  0  0
 10  3  1  0  0  0  0
 11  3  1  0  0  0  0
 12  4  1  0  0  0  0
 15 16  1  0  0  0  0
 16 22  1  0  0  0  0
 16 17  2  0  0  0  0
 17 23  1  0  0  0  0
 18 17  1  0  0  0  0
 19 18  2  0  0  0  0
 20 15  2  0  0  0  0
 20 19  1  0  0  0  0
 21 15  1  0  0  0  0
 23 29  1  0  0  0  0
 24 23  2  0  0  0  0
 24 26  1  0  0  0  0
 25 24  1  0  0  0  0
 26 27  1  0  0  0  0
 27 28  1  0  0  0  0
 29 27  2  0  0  0  0
 30 32  1  0  0  0  0
 31 30  1  0  0  0  0
M  END
>  <minimizedAffinity>
-5.00702238

$$$$

 OpenBabel03252505043D

 32 34  0  0  1  0  0  0  0  0999 V2000
   35.9610   28.6560   40.4190 C   0  0  2  0  0  0  0  0  0  0  0  0
   36.3810   27.7400   39.3200 C   0  0  0  0  0  0  0  0  0  0  0  0
   37.1530   28.3490   38.2220 C   0  0  0  0  0  0  0  0  0  0  0  0
   36.3060   29.5040   37.7090 C   0  0  0  0  0  0  0  0  0  0  0  0
   36.1410   30.5770   38.7070 C   0  0  0  0  0  0  0  0  0  0  0  0
   35.9640   30.0820   40.1190 C   0  0  0  0  0  0  0  0  0  0  0  0
   34.9410   28.3660   40.7600 H   0  0  0  0  0  0  0  0  0  0  0  0
   36.9620   26.8590   39.6970 H   0  0  0  0  0  0  0  0  0  0  0  0
   35.4660   27.2820   38.8710 H   0  0  0  0  0  0  0  0  0  0  0  0
   38.1100   28.7590   38.5500 H   0  0  0  0  0  0  0  0  0  0  0  0
   37.2200   27.6300   37.3860 H   0  0  0  0  0  0  0  0  0  0  0  0
   36.9410   29.9690   36.9150 H   0  0  0  0  0  0  0  0  0  0  0  0
   35.3460   29.1890   37.3000 H   0  0  0  0  0  0  0  0  0  0  0  0
   36.1230   31.6340   38.6250 H   0  0  0  0  0  0  0  0  0  0  0  0
   37.2680   27.1930   43.5600 C   0  0  0  0  0  0  0  0  0  0  0  0
   38.5320   27.8230   43.6770 C   0  0  0  0  0  0  0  0  0  0  0  0
   38.9030   28.7430   42.6680 C   0  0  0  0  0  0  0  0  0  0  0  0
   38.0300   28.9630   41.6560 N   0  0  0  0  0  0  0  0  0  0  0  0
   36.8480   28.3540   41.5760 C   0  0  0  0  0  0  0  0  0  0  0  0
   36.4510   27.4590   42.5290 N   0  0  0  0  0  0  0  0  0  0  0  0
   37.0200   26.4970   44.3500 H   0  0  0  0  0  0  0  0  0  0  0  0
   39.2310   27.6610   44.4650 H   0  0  0  0  0  0  0  0  0  0  0  0
   40.1980   29.4260   42.7330 C   0  0  0  0  0  0  0  0  0  0  0  0
   40.2670   30.8590   42.6010 C   0  0  0  0  0  0  0  0  0  0  0  0
   39.3780   31.5510   42.4430 H   0  0  0  0  0  0  0  0  0  0  0  0
   42.0500   31.1820   42.7520 S   0  0  0  0  0  0  0  0  0  0  0  0
   42.4210   29.3310   42.9690 C   0  0  0  0  0  0  0  0  0  0  0  0
   43.4110   28.8540   43.1160 H   0  0  0  0  0  0  0  0  0  0  0  0
   41.3660   28.8440   42.9080 N   0  0  0  0  0  0  0  0  0  0  0  0
   35.7990   31.0130   41.1840 N   0  0  0  0  0  0  0  0  0  0  0  0
   36.7400   31.4610   41.2720 H   0  0  0  0  0  0  0  0  0  0  0  0
   34.9010   31.1410   41.6950 H   0  0  0  0  0  0  0  0  0  0  0  0
  1  7  1  1  0  0  0
  1 19  1  0  0  0  0
  2  8  1  0  0  0  0
  2  1  1  0  0  0  0
  3 10  1  0  0  0  0
  3  2  1  0  0  0  0
  4  3  1  0  0  0  0
  4  5  1  0  0  0  0
  5  6  2  0  0  0  0
  6  1  1  0  0  0  0
  6 30  1  0  0  0  0
  9  2  1  0  0  0  0
 11  3  1  0  0  0  0
 12  4  1  0  0  0  0
 13  4  1  0  0  0  0
 14  5  1  0  0  0  0
 15 16  1  0  0  0  0
 15 21  1  0  0  0  0
 16 22  1  0  0  0  0
 17 23  1  0  0  0  0
 17 16  2  0  0  0  0
 18 17  1  0  0  0  0
 19 18  2  0  0  0  0
 19 20  1  0  0  0  0
 20 15  2  0  0  0  0
 23 29  1  0  0  0  0
 24 23  2  0  0  0  0
 24 26  1  0  0  0  0
 25 24  1  0  0  0  0
 26 27  1  0  0  0  0
 27 28  1  0  0  0  0
 29 27  2  0  0  0  0
 30 31  1  0  0  0  0
 30 32  1  0  0  0  0
M  END
>  <minimizedAffinity>
-4.95012045

$$$$

 OpenBabel03252505043D

 32 34  0  0  1  0  0  0  0  0999 V2000
   37.9080   27.2960   41.6960 C   0  0  2  0  0  0  0  0  0  0  0  0
   38.3280   26.4950   40.5110 C   0  0  0  0  0  0  0  0  0  0  0  0
   37.4720   25.3470   40.1620 C   0  0  0  0  0  0  0  0  0  0  0  0
   37.3810   24.4990   41.4210 C   0  0  0  0  0  0  0  0  0  0  0  0
   36.6790   25.1850   42.5210 C   0  0  0  0  0  0  0  0  0  0  0  0
   36.9870   26.6560   42.6250 C   0  0  0  0  0  0  0  0  0  0  0  0
   38.8160   27.6140   42.2570 H   0  0  0  0  0  0  0  0  0  0  0  0
   38.4480   27.1240   39.5910 H   0  0  0  0  0  0  0  0  0  0  0  0
   39.3570   26.1000   40.6970 H   0  0  0  0  0  0  0  0  0  0  0  0
   36.4580   25.6410   39.8850 H   0  0  0  0  0  0  0  0  0  0  0  0
   37.9930   24.7230   39.4150 H   0  0  0  0  0  0  0  0  0  0  0  0
   36.6880   23.6690   41.1350 H   0  0  0  0  0  0  0  0  0  0  0  0
   38.3430   24.1040   41.7480 H   0  0  0  0  0  0  0  0  0  0  0  0
   35.9950   24.8440   43.2570 H   0  0  0  0  0  0  0  0  0  0  0  0
   35.4990   29.7770   40.3680 C   0  0  0  0  0  0  0  0  0  0  0  0
   36.3160   30.9220   40.1960 C   0  0  0  0  0  0  0  0  0  0  0  0
   37.6840   30.8090   40.5410 C   0  0  0  0  0  0  0  0  0  0  0  0
   38.1250   29.6180   41.0110 N   0  0  0  0  0  0  0  0  0  0  0  0
   37.3300   28.5600   41.1610 C   0  0  0  0  0  0  0  0  0  0  0  0
   36.0020   28.6260   40.8410 N   0  0  0  0  0  0  0  0  0  0  0  0
   34.4600   29.9010   40.0950 H   0  0  0  0  0  0  0  0  0  0  0  0
   35.9850   31.8650   39.8280 H   0  0  0  0  0  0  0  0  0  0  0  0
   38.5800   31.9580   40.3850 C   0  0  0  0  0  0  0  0  0  0  0  0
   39.9210   31.7680   39.8970 C   0  0  0  0  0  0  0  0  0  0  0  0
   40.3830   30.7700   39.6040 H   0  0  0  0  0  0  0  0  0  0  0  0
   40.5820   33.4630   39.8950 S   0  0  0  0  0  0  0  0  0  0  0  0
   38.9430   34.1600   40.5540 C   0  0  0  0  0  0  0  0  0  0  0  0
   38.7010   35.2180   40.7800 H   0  0  0  0  0  0  0  0  0  0  0  0
   38.2770   33.2110   40.6580 N   0  0  0  0  0  0  0  0  0  0  0  0
   36.3710   27.4420   43.6410 N   0  0  0  0  0  0  0  0  0  0  0  0
   35.3700   27.4930   43.3460 H   0  0  0  0  0  0  0  0  0  0  0  0
   36.8930   27.8310   44.4550 H   0  0  0  0  0  0  0  0  0  0  0  0
  1  7  1  1  0  0  0
  1  6  1  0  0  0  0
  2  9  1  0  0  0  0
  2  1  1  0  0  0  0
  3  2  1  0  0  0  0
  3  4  1  0  0  0  0
  4 13  1  0  0  0  0
  4  5  1  0  0  0  0
  5  6  2  0  0  0  0
  5 14  1  0  0  0  0
  6 30  1  0  0  0  0
  8  2  1  0  0  0  0
 10  3  1  0  0  0  0
 11  3  1  0  0  0  0
 12  4  1  0  0  0  0
 15 20  1  0  0  0  0
 16 15  2  0  0  0  0
 16 17  1  0  0  0  0
 17 18  2  0  0  0  0
 18 19  1  0  0  0  0
 19  1  1  0  0  0  0
 20 19  2  0  0  0  0
 21 15  1  0  0  0  0
 22 16  1  0  0  0  0
 23 17  1  0  0  0  0
 23 29  1  0  0  0  0
 24 23  2  0  0  0  0
 25 24  1  0  0  0  0
 26 24  1  0  0  0  0
 26 27  1  0  0  0  0
 27 29  2  0  0  0  0
 27 28  1  0  0  0  0
 30 32  1  0  0  0  0
 31 30  1  0  0  0  0
M  END
>  <minimizedAffinity>
-4.94838667

$$$$
