
 OpenBabel03252504493D

 22 23  0  0  0  0  0  0  0  0999 V2000
   47.8130   32.1510   43.0760 C   0  0  0  0  0  0  0  0  0  0  0  0
   46.9640   32.9060   42.2680 C   0  0  0  0  0  0  0  0  0  0  0  0
   47.2760   32.9870   40.9120 C   0  0  0  0  0  0  0  0  0  0  0  0
   48.3850   32.3280   40.4530 N   0  0  0  0  0  0  0  0  0  0  0  0
   49.1820   31.6060   41.2650 C   0  0  0  0  0  0  0  0  0  0  0  0
   48.8960   31.5150   42.5880 N   0  0  0  0  0  0  0  0  0  0  0  0
   47.6160   32.0550   44.1440 H   0  0  0  0  0  0  0  0  0  0  0  0
   46.6470   33.5600   40.2510 H   0  0  0  0  0  0  0  0  0  0  0  0
   50.3600   30.9110   40.7550 C   0  0  0  0  0  0  0  0  0  0  0  0
   51.4130   31.6380   40.1150 C   0  0  0  0  0  0  0  0  0  0  0  0
   51.4500   32.6750   39.9560 H   0  0  0  0  0  0  0  0  0  0  0  0
   52.5900   30.2750   39.6960 S   0  0  0  0  0  0  0  0  0  0  0  0
   51.4290   28.9740   40.4690 C   0  0  0  0  0  0  0  0  0  0  0  0
   51.6370   27.8970   40.5080 H   0  0  0  0  0  0  0  0  0  0  0  0
   50.5580   29.6110   40.8300 N   0  0  0  0  0  0  0  0  0  0  0  0
   45.8230   33.5520   42.8700 C   0  0  0  0  0  0  0  0  0  0  0  0
   45.9180   33.6260   43.9550 H   0  0  0  0  0  0  0  0  0  0  0  0
   44.9030   32.9490   42.6230 H   0  0  0  0  0  0  0  0  0  0  0  0
   45.6380   34.9120   42.2230 C   0  0  0  0  0  0  0  0  0  0  0  0
   44.5370   35.1250   42.1090 H   0  0  0  0  0  0  0  0  0  0  0  0
   46.1920   34.9810   41.2870 H   0  0  0  0  0  0  0  0  0  0  0  0
   46.0240   35.6860   42.9500 H   0  0  0  0  0  0  0  0  0  0  0  0
  1  7  1  0  0  0  0
  2 16  1  0  0  0  0
  2  1  2  0  0  0  0
  3  2  1  0  0  0  0
  4  3  2  0  0  0  0
  4  5  1  0  0  0  0
  5  6  2  0  0  0  0
  6  1  1  0  0  0  0
  8  3  1  0  0  0  0
  9 15  1  0  0  0  0
  9  5  1  0  0  0  0
 10  9  2  0  0  0  0
 11 10  1  0  0  0  0
 12 10  1  0  0  0  0
 12 13  1  0  0  0  0
 13 14  1  0  0  0  0
 13 15  2  0  0  0  0
 16 17  1  0  0  0  0
 18 16  1  0  0  0  0
 19 16  1  0  0  0  0
 19 22  1  0  0  0  0
 20 19  1  0  0  0  0
 21 19  1  0  0  0  0
M  END
>  <minimizedAffinity>
-1.9781214

>  <minimizedRMSD>
7.53751707

$$$$
