
 OpenBabel03252506563D

 36 40  0  0  0  0  0  0  0  0999 V2000
   47.1700   31.3220   45.1220 C   0  0  0  0  0  0  0  0  0  0  0  0
   46.8760   32.6750   45.1230 C   0  0  0  0  0  0  0  0  0  0  0  0
   46.3140   33.3100   46.2040 C   0  0  0  0  0  0  0  0  0  0  0  0
   46.0160   32.6040   47.3570 C   0  0  0  0  0  0  0  0  0  0  0  0
   45.4760   32.8840   48.5770 N   0  0  0  0  0  0  0  0  0  0  0  0
   45.4380   31.7370   49.3100 C   0  0  0  0  0  0  0  0  0  0  0  0
   45.9560   30.7650   48.5260 N   0  0  0  0  0  0  0  0  0  0  0  0
   46.3180   31.2640   47.3290 C   0  0  0  0  0  0  0  0  0  0  0  0
   46.8730   30.5890   46.2860 C   0  0  0  0  0  0  0  0  0  0  0  0
   47.6120   30.8300   44.2650 H   0  0  0  0  0  0  0  0  0  0  0  0
   46.0890   34.3700   46.1920 H   0  0  0  0  0  0  0  0  0  0  0  0
   45.1590   33.8470   48.8530 H   0  0  0  0  0  0  0  0  0  0  0  0
   45.0530   31.6620   50.3310 H   0  0  0  0  0  0  0  0  0  0  0  0
   46.5910   35.1430   42.4090 C   0  0  0  0  0  0  0  0  0  0  0  0
   47.7560   34.9430   41.6860 C   0  0  0  0  0  0  0  0  0  0  0  0
   48.6430   33.9550   42.1310 C   0  0  0  0  0  0  0  0  0  0  0  0
   48.3180   33.2430   43.2520 N   0  0  0  0  0  0  0  0  0  0  0  0
   47.1700   33.4670   43.9320 C   0  0  0  0  0  0  0  0  0  0  0  0
   46.3090   34.4110   43.5160 N   0  0  0  0  0  0  0  0  0  0  0  0
   45.8860   35.9060   42.0800 H   0  0  0  0  0  0  0  0  0  0  0  0
   47.9580   35.5420   40.8010 H   0  0  0  0  0  0  0  0  0  0  0  0
   49.5640   33.7720   41.5900 H   0  0  0  0  0  0  0  0  0  0  0  0
   47.1570   29.1550   46.3560 C   0  0  0  0  0  0  0  0  0  0  0  0
   48.4130   28.6030   46.3600 C   0  0  0  0  0  0  0  0  0  0  0  0
   48.1600   27.2230   46.4380 C   0  0  0  0  0  0  0  0  0  0  0  0
   46.7850   27.0170   46.4760 C   0  0  0  0  0  0  0  0  0  0  0  0
   46.2620   28.2220   46.4230 O   0  0  0  0  0  0  0  0  0  0  0  0
   49.3490   29.1020   46.3150 H   0  0  0  0  0  0  0  0  0  0  0  0
   48.9160   26.4570   46.4630 H   0  0  0  0  0  0  0  0  0  0  0  0
   46.0610   25.7310   46.5590 C   0  0  0  0  0  0  0  0  0  0  0  0
   44.7820   25.5920   45.7980 C   0  0  0  0  0  0  0  0  0  0  0  0
   44.3470   26.3230   45.2090 H   0  0  0  0  0  0  0  0  0  0  0  0
   44.3730   23.8130   46.2900 S   0  0  0  0  0  0  0  0  0  0  0  0
   45.9290   23.6450   47.3590 C   0  0  0  0  0  0  0  0  0  0  0  0
   46.1520   22.7330   47.8900 H   0  0  0  0  0  0  0  0  0  0  0  0
   46.5040   24.7200   47.2720 N   0  0  0  0  0  0  0  0  0  0  0  0
  1  2  2  0  0  0  0
  1  9  1  0  0  0  0
  2  3  1  0  0  0  0
  3  4  2  0  0  0  0
  4  5  1  0  0  0  0
  5 12  1  0  0  0  0
  5  6  1  0  0  0  0
  6 13  1  0  0  0  0
  7  6  2  0  0  0  0
  8  4  1  0  0  0  0
  8  7  1  0  0  0  0
  9 23  1  0  0  0  0
  9  8  2  0  0  0  0
 10  1  1  0  0  0  0
 11  3  1  0  0  0  0
 14 19  1  0  0  0  0
 15 16  1  0  0  0  0
 15 14  2  0  0  0  0
 16 17  2  0  0  0  0
 17 18  1  0  0  0  0
 18  2  1  0  0  0  0
 19 18  2  0  0  0  0
 20 14  1  0  0  0  0
 21 15  1  0  0  0  0
 22 16  1  0  0  0  0
 23 24  2  0  0  0  0
 23 27  1  0  0  0  0
 24 25  1  0  0  0  0
 25 29  1  0  0  0  0
 25 26  2  0  0  0  0
 26 30  1  0  0  0  0
 27 26  1  0  0  0  0
 28 24  1  0  0  0  0
 30 36  1  0  0  0  0
 31 33  1  0  0  0  0
 31 30  2  0  0  0  0
 32 31  1  0  0  0  0
 33 34  1  0  0  0  0
 34 35  1  0  0  0  0
 36 34  2  0  0  0  0
M  END
>  <minimizedAffinity>
-5.39599705

>  <minimizedRMSD>
0.383397579

$$$$
