
 OpenBabel03242513193D

 35 38  0  0  0  0  0  0  0  0999 V2000
   39.3150   30.3000   42.7410 Cl  0  0  0  0  0  0  0  0  0  0  0  0
   37.8920   30.0440   41.7250 C   0  0  0  0  0  0  0  0  0  0  0  0
   37.0320   29.0050   41.9870 C   0  0  0  0  0  0  0  0  0  0  0  0
   35.9440   28.8610   41.1820 C   0  0  0  0  0  0  0  0  0  0  0  0
   35.7150   29.7230   40.1420 C   0  0  0  0  0  0  0  0  0  0  0  0
   36.5810   30.7700   39.8740 C   0  0  0  0  0  0  0  0  0  0  0  0
   37.6830   30.9160   40.6910 C   0  0  0  0  0  0  0  0  0  0  0  0
   35.2490   28.0450   41.3730 H   0  0  0  0  0  0  0  0  0  0  0  0
   34.8440   29.5920   39.5120 H   0  0  0  0  0  0  0  0  0  0  0  0
   36.3560   31.4160   39.0490 H   0  0  0  0  0  0  0  0  0  0  0  0
   38.5420   32.0470   40.3240 C   0  0  0  0  0  0  0  0  0  0  0  0
   38.3580   33.4050   40.5310 C   0  0  0  0  0  0  0  0  0  0  0  0
   39.4020   34.1490   40.0340 C   0  0  0  0  0  0  0  0  0  0  0  0
   40.2270   33.1700   39.5150 C   0  0  0  0  0  0  0  0  0  0  0  0
   39.6900   32.0030   39.7080 O   0  0  0  0  0  0  0  0  0  0  0  0
   37.4670   33.8090   41.0400 H   0  0  0  0  0  0  0  0  0  0  0  0
   39.5320   35.2210   40.0510 H   0  0  0  0  0  0  0  0  0  0  0  0
   41.1930   33.3460   39.0130 H   0  0  0  0  0  0  0  0  0  0  0  0
   37.3390   28.1160   43.1040 C   0  0  0  0  0  0  0  0  0  0  0  0
   36.9490   28.4590   44.2420 O   0  0  0  0  0  0  0  0  0  0  0  0
   39.9110   25.5800   43.3600 C   0  0  0  0  0  0  0  0  0  0  0  0
   39.5090   24.5410   42.5110 C   0  0  0  0  0  0  0  0  0  0  0  0
   38.3110   24.7510   41.8400 C   0  0  0  0  0  0  0  0  0  0  0  0
   37.6540   25.9290   42.0730 N   0  0  0  0  0  0  0  0  0  0  0  0
   38.0710   26.8830   42.8850 C   0  0  0  0  0  0  0  0  0  0  0  0
   39.2170   26.6790   43.5240 N   0  0  0  0  0  0  0  0  0  0  0  0
   40.8450   25.4090   43.8780 H   0  0  0  0  0  0  0  0  0  0  0  0
   40.0820   23.6500   42.3840 H   0  0  0  0  0  0  0  0  0  0  0  0
   37.7730   23.7300   40.9100 C   0  0  0  0  0  0  0  0  0  0  0  0
   36.5440   23.8760   40.3150 C   0  0  0  0  0  0  0  0  0  0  0  0
   35.7750   24.7600   40.4340 H   0  0  0  0  0  0  0  0  0  0  0  0
   36.3900   22.3570   39.2930 S   0  0  0  0  0  0  0  0  0  0  0  0
   38.0990   21.7660   39.8800 C   0  0  0  0  0  0  0  0  0  0  0  0
   38.5820   20.8380   39.5760 H   0  0  0  0  0  0  0  0  0  0  0  0
   38.3700   22.6170   40.5560 N   0  0  0  0  0  0  0  0  0  0  0  0
  2  3  1  0  0  0  0
  2  1  1  0  0  0  0
  3 19  1  0  0  0  0
  4  8  1  0  0  0  0
  4  3  2  0  0  0  0
  5  4  1  0  0  0  0
  6  5  2  0  0  0  0
  6  7  1  0  0  0  0
  7  2  2  0  0  0  0
  9  5  1  0  0  0  0
 10  6  1  0  0  0  0
 11 12  2  0  0  0  0
 11  7  1  0  0  0  0
 12 16  1  0  0  0  0
 13 17  1  0  0  0  0
 13 12  1  0  0  0  0
 14 15  1  0  0  0  0
 14 13  2  0  0  0  0
 15 11  1  0  0  0  0
 18 14  1  0  0  0  0
 19 20  2  0  0  0  0
 21 26  1  0  0  0  0
 21 27  1  0  0  0  0
 22 21  2  0  0  0  0
 23 24  2  0  0  0  0
 23 22  1  0  0  0  0
 24 25  1  0  0  0  0
 25 19  1  0  0  0  0
 25 26  2  0  0  0  0
 28 22  1  0  0  0  0
 29 23  1  0  0  0  0
 30 31  1  0  0  0  0
 30 29  2  0  0  0  0
 32 33  1  0  0  0  0
 32 30  1  0  0  0  0
 33 35  2  0  0  0  0
 34 33  1  0  0  0  0
 35 29  1  0  0  0  0
M  END
>  <minimizedAffinity>
-6.22051048

$$$$

 OpenBabel03242513193D

 35 38  0  0  0  0  0  0  0  0999 V2000
   38.9320   29.9460   42.7770 Cl  0  0  0  0  0  0  0  0  0  0  0  0
   37.5410   29.7940   41.6980 C   0  0  0  0  0  0  0  0  0  0  0  0
   36.7150   28.6990   41.7850 C   0  0  0  0  0  0  0  0  0  0  0  0
   35.6510   28.6370   40.9390 C   0  0  0  0  0  0  0  0  0  0  0  0
   35.4120   29.6330   40.0290 C   0  0  0  0  0  0  0  0  0  0  0  0
   36.2440   30.7360   39.9380 C   0  0  0  0  0  0  0  0  0  0  0  0
   37.3230   30.7980   40.7960 C   0  0  0  0  0  0  0  0  0  0  0  0
   34.9820   27.7790   40.9920 H   0  0  0  0  0  0  0  0  0  0  0  0
   34.5600   29.5660   39.3640 H   0  0  0  0  0  0  0  0  0  0  0  0
   36.0130   31.4870   39.2090 H   0  0  0  0  0  0  0  0  0  0  0  0
   38.1470   31.9990   40.6190 C   0  0  0  0  0  0  0  0  0  0  0  0
   37.7790   33.2820   40.2440 C   0  0  0  0  0  0  0  0  0  0  0  0
   38.8560   34.1330   40.1910 C   0  0  0  0  0  0  0  0  0  0  0  0
   39.8960   33.3000   40.5530 C   0  0  0  0  0  0  0  0  0  0  0  0
   39.4360   32.1060   40.7830 O   0  0  0  0  0  0  0  0  0  0  0  0
   36.7340   33.5540   40.0220 H   0  0  0  0  0  0  0  0  0  0  0  0
   38.8730   35.1820   39.9320 H   0  0  0  0  0  0  0  0  0  0  0  0
   40.9550   33.5940   40.6360 H   0  0  0  0  0  0  0  0  0  0  0  0
   37.0310   27.6690   42.7700 C   0  0  0  0  0  0  0  0  0  0  0  0
   36.6840   27.8730   43.9550 O   0  0  0  0  0  0  0  0  0  0  0  0
   37.6360   24.1890   41.9690 C   0  0  0  0  0  0  0  0  0  0  0  0
   38.9880   24.1080   41.6150 C   0  0  0  0  0  0  0  0  0  0  0  0
   39.6900   25.3060   41.6650 C   0  0  0  0  0  0  0  0  0  0  0  0
   39.0010   26.4260   42.0470 N   0  0  0  0  0  0  0  0  0  0  0  0
   37.7220   26.4560   42.3730 C   0  0  0  0  0  0  0  0  0  0  0  0
   37.0550   25.3090   42.3240 N   0  0  0  0  0  0  0  0  0  0  0  0
   37.0980   23.2520   41.9280 H   0  0  0  0  0  0  0  0  0  0  0  0
   39.4530   23.1910   41.3280 H   0  0  0  0  0  0  0  0  0  0  0  0
   41.1290   25.3590   41.3160 C   0  0  0  0  0  0  0  0  0  0  0  0
   41.5680   25.1200   40.0370 C   0  0  0  0  0  0  0  0  0  0  0  0
   40.9300   24.8550   39.0840 H   0  0  0  0  0  0  0  0  0  0  0  0
   43.3890   25.3120   40.1760 S   0  0  0  0  0  0  0  0  0  0  0  0
   43.2260   25.7020   42.0290 C   0  0  0  0  0  0  0  0  0  0  0  0
   44.0560   25.9220   42.7010 H   0  0  0  0  0  0  0  0  0  0  0  0
   42.1140   25.6260   42.1400 N   0  0  0  0  0  0  0  0  0  0  0  0
  2  3  1  0  0  0  0
  2  1  1  0  0  0  0
  3 19  1  0  0  0  0
  4  8  1  0  0  0  0
  4  3  2  0  0  0  0
  5  4  1  0  0  0  0
  6  5  2  0  0  0  0
  6  7  1  0  0  0  0
  7  2  2  0  0  0  0
  9  5  1  0  0  0  0
 10  6  1  0  0  0  0
 11 15  1  0  0  0  0
 11  7  1  0  0  0  0
 12 11  2  0  0  0  0
 13 12  1  0  0  0  0
 13 14  2  0  0  0  0
 14 18  1  0  0  0  0
 14 15  1  0  0  0  0
 16 12  1  0  0  0  0
 17 13  1  0  0  0  0
 19 20  2  0  0  0  0
 21 26  1  0  0  0  0
 22 23  1  0  0  0  0
 22 21  2  0  0  0  0
 23 24  2  0  0  0  0
 24 25  1  0  0  0  0
 25 19  1  0  0  0  0
 26 25  2  0  0  0  0
 27 21  1  0  0  0  0
 28 22  1  0  0  0  0
 29 23  1  0  0  0  0
 29 35  1  0  0  0  0
 30 32  1  0  0  0  0
 30 29  2  0  0  0  0
 31 30  1  0  0  0  0
 32 33  1  0  0  0  0
 33 35  2  0  0  0  0
 33 34  1  0  0  0  0
M  END
>  <minimizedAffinity>
-6.08325434

$$$$

 OpenBabel03242513193D

 35 38  0  0  0  0  0  0  0  0999 V2000
   36.2410   26.6260   38.8110 Cl  0  0  0  0  0  0  0  0  0  0  0  0
   36.6110   27.0850   40.4770 C   0  0  0  0  0  0  0  0  0  0  0  0
   36.2630   28.3290   40.9450 C   0  0  0  0  0  0  0  0  0  0  0  0
   36.5600   28.6280   42.2390 C   0  0  0  0  0  0  0  0  0  0  0  0
   37.1870   27.7170   43.0490 C   0  0  0  0  0  0  0  0  0  0  0  0
   37.5410   26.4640   42.5790 C   0  0  0  0  0  0  0  0  0  0  0  0
   37.2390   26.1620   41.2660 C   0  0  0  0  0  0  0  0  0  0  0  0
   36.2920   29.6070   42.6320 H   0  0  0  0  0  0  0  0  0  0  0  0
   37.4150   27.9730   44.0760 H   0  0  0  0  0  0  0  0  0  0  0  0
   38.0300   25.7890   43.2520 H   0  0  0  0  0  0  0  0  0  0  0  0
   37.6580   24.8160   40.8610 C   0  0  0  0  0  0  0  0  0  0  0  0
   36.9490   23.6250   40.8670 C   0  0  0  0  0  0  0  0  0  0  0  0
   37.7030   22.5720   40.4070 C   0  0  0  0  0  0  0  0  0  0  0  0
   38.9060   23.1870   40.1220 C   0  0  0  0  0  0  0  0  0  0  0  0
   38.8230   24.4540   40.3980 O   0  0  0  0  0  0  0  0  0  0  0  0
   35.9020   23.5650   41.2070 H   0  0  0  0  0  0  0  0  0  0  0  0
   37.4170   21.5360   40.3000 H   0  0  0  0  0  0  0  0  0  0  0  0
   39.8030   22.6870   39.7220 H   0  0  0  0  0  0  0  0  0  0  0  0
   35.6060   29.2560   40.0280 C   0  0  0  0  0  0  0  0  0  0  0  0
   34.3550   29.2870   40.0330 O   0  0  0  0  0  0  0  0  0  0  0  0
   37.0300   30.6540   37.0060 C   0  0  0  0  0  0  0  0  0  0  0  0
   37.8600   31.7010   37.4240 C   0  0  0  0  0  0  0  0  0  0  0  0
   37.9130   31.9070   38.7960 C   0  0  0  0  0  0  0  0  0  0  0  0
   37.1610   31.0820   39.5890 N   0  0  0  0  0  0  0  0  0  0  0  0
   36.3890   30.1050   39.1500 C   0  0  0  0  0  0  0  0  0  0  0  0
   36.3420   29.9110   37.8380 N   0  0  0  0  0  0  0  0  0  0  0  0
   36.9950   30.4990   35.9360 H   0  0  0  0  0  0  0  0  0  0  0  0
   38.4170   32.3000   36.7390 H   0  0  0  0  0  0  0  0  0  0  0  0
   38.7550   32.9830   39.3710 C   0  0  0  0  0  0  0  0  0  0  0  0
   40.1230   32.9690   39.2480 C   0  0  0  0  0  0  0  0  0  0  0  0
   40.8000   32.1690   38.7120 H   0  0  0  0  0  0  0  0  0  0  0  0
   40.6380   34.5000   40.1230 S   0  0  0  0  0  0  0  0  0  0  0  0
   38.8240   34.9070   40.5190 C   0  0  0  0  0  0  0  0  0  0  0  0
   38.4820   35.7820   41.0720 H   0  0  0  0  0  0  0  0  0  0  0  0
   38.3240   34.0290   40.0340 N   0  0  0  0  0  0  0  0  0  0  0  0
  1  2  1  0  0  0  0
  2  3  2  0  0  0  0
  2  7  1  0  0  0  0
  3  4  1  0  0  0  0
  4  8  1  0  0  0  0
  4  5  2  0  0  0  0
  5  9  1  0  0  0  0
  6  5  1  0  0  0  0
  6 10  1  0  0  0  0
  7  6  2  0  0  0  0
 11 12  2  0  0  0  0
 11  7  1  0  0  0  0
 12 16  1  0  0  0  0
 13 12  1  0  0  0  0
 14 15  1  0  0  0  0
 14 13  2  0  0  0  0
 15 11  1  0  0  0  0
 17 13  1  0  0  0  0
 18 14  1  0  0  0  0
 19 20  2  0  0  0  0
 19  3  1  0  0  0  0
 21 22  2  0  0  0  0
 21 26  1  0  0  0  0
 22 23  1  0  0  0  0
 23 29  1  0  0  0  0
 23 24  2  0  0  0  0
 25 24  1  0  0  0  0
 25 19  1  0  0  0  0
 26 25  2  0  0  0  0
 27 21  1  0  0  0  0
 28 22  1  0  0  0  0
 29 35  1  0  0  0  0
 30 29  2  0  0  0  0
 30 32  1  0  0  0  0
 31 30  1  0  0  0  0
 32 33  1  0  0  0  0
 33 34  1  0  0  0  0
 35 33  2  0  0  0  0
M  END
>  <minimizedAffinity>
-6.07441425

$$$$

 OpenBabel03242513193D

 35 38  0  0  0  0  0  0  0  0999 V2000
   36.8710   26.3380   41.1050 Cl  0  0  0  0  0  0  0  0  0  0  0  0
   38.2690   26.0840   42.1570 C   0  0  0  0  0  0  0  0  0  0  0  0
   38.5450   26.9740   43.1670 C   0  0  0  0  0  0  0  0  0  0  0  0
   39.6260   26.7260   43.9560 C   0  0  0  0  0  0  0  0  0  0  0  0
   40.4140   25.6230   43.7490 C   0  0  0  0  0  0  0  0  0  0  0  0
   40.1390   24.7260   42.7310 C   0  0  0  0  0  0  0  0  0  0  0  0
   39.0430   24.9790   41.9320 C   0  0  0  0  0  0  0  0  0  0  0  0
   39.8630   27.4170   44.7630 H   0  0  0  0  0  0  0  0  0  0  0  0
   41.2700   25.4420   44.3870 H   0  0  0  0  0  0  0  0  0  0  0  0
   40.7860   23.8800   42.6120 H   0  0  0  0  0  0  0  0  0  0  0  0
   38.8380   23.9770   40.8800 C   0  0  0  0  0  0  0  0  0  0  0  0
   37.9560   22.9090   40.8310 C   0  0  0  0  0  0  0  0  0  0  0  0
   38.0730   22.1960   39.6610 C   0  0  0  0  0  0  0  0  0  0  0  0
   39.0710   22.8890   39.0040 C   0  0  0  0  0  0  0  0  0  0  0  0
   39.4650   23.8850   39.7400 O   0  0  0  0  0  0  0  0  0  0  0  0
   37.2550   22.6840   41.6520 H   0  0  0  0  0  0  0  0  0  0  0  0
   37.5210   21.3220   39.3470 H   0  0  0  0  0  0  0  0  0  0  0  0
   39.4770   22.6410   38.0100 H   0  0  0  0  0  0  0  0  0  0  0  0
   37.6720   28.1340   43.3270 C   0  0  0  0  0  0  0  0  0  0  0  0
   36.7910   28.0770   44.2140 O   0  0  0  0  0  0  0  0  0  0  0  0
   36.9030   30.7940   40.9940 C   0  0  0  0  0  0  0  0  0  0  0  0
   38.0840   31.5330   40.8550 C   0  0  0  0  0  0  0  0  0  0  0  0
   39.1640   31.0750   41.5990 C   0  0  0  0  0  0  0  0  0  0  0  0
   38.9690   29.9690   42.3810 N   0  0  0  0  0  0  0  0  0  0  0  0
   37.8350   29.3020   42.4820 C   0  0  0  0  0  0  0  0  0  0  0  0
   36.8050   29.7420   41.7690 N   0  0  0  0  0  0  0  0  0  0  0  0
   36.0680   31.1570   40.4110 H   0  0  0  0  0  0  0  0  0  0  0  0
   38.1550   32.3890   40.2210 H   0  0  0  0  0  0  0  0  0  0  0  0
   40.4740   31.7670   41.5420 C   0  0  0  0  0  0  0  0  0  0  0  0
   41.5510   31.3280   42.2710 C   0  0  0  0  0  0  0  0  0  0  0  0
   41.6130   30.4070   43.0020 H   0  0  0  0  0  0  0  0  0  0  0  0
   42.8730   32.5250   41.8290 S   0  0  0  0  0  0  0  0  0  0  0  0
   41.6750   33.4520   40.6800 C   0  0  0  0  0  0  0  0  0  0  0  0
   41.9240   34.3350   40.0910 H   0  0  0  0  0  0  0  0  0  0  0  0
   40.7550   32.8300   40.8260 N   0  0  0  0  0  0  0  0  0  0  0  0
  1  2  1  0  0  0  0
  2  3  1  0  0  0  0
  3 19  1  0  0  0  0
  3  4  2  0  0  0  0
  4  8  1  0  0  0  0
  5  4  1  0  0  0  0
  5  9  1  0  0  0  0
  6  5  2  0  0  0  0
  7  2  2  0  0  0  0
  7  6  1  0  0  0  0
 10  6  1  0  0  0  0
 11  7  1  0  0  0  0
 12 11  2  0  0  0  0
 12 16  1  0  0  0  0
 13 12  1  0  0  0  0
 14 13  2  0  0  0  0
 14 15  1  0  0  0  0
 15 11  1  0  0  0  0
 17 13  1  0  0  0  0
 18 14  1  0  0  0  0
 19 20  2  0  0  0  0
 21 26  1  0  0  0  0
 22 21  2  0  0  0  0
 22 23  1  0  0  0  0
 23 24  2  0  0  0  0
 24 25  1  0  0  0  0
 25 19  1  0  0  0  0
 26 25  2  0  0  0  0
 27 21  1  0  0  0  0
 28 22  1  0  0  0  0
 29 23  1  0  0  0  0
 29 30  2  0  0  0  0
 30 31  1  0  0  0  0
 32 30  1  0  0  0  0
 33 35  2  0  0  0  0
 33 32  1  0  0  0  0
 34 33  1  0  0  0  0
 35 29  1  0  0  0  0
M  END
>  <minimizedAffinity>
-6.06792498

$$$$

 OpenBabel03242513193D

 35 38  0  0  0  0  0  0  0  0999 V2000
   39.4020   27.3470   40.3890 Cl  0  0  0  0  0  0  0  0  0  0  0  0
   38.3680   27.5350   41.8100 C   0  0  0  0  0  0  0  0  0  0  0  0
   38.4590   28.6640   42.5870 C   0  0  0  0  0  0  0  0  0  0  0  0
   37.6310   28.7650   43.6620 C   0  0  0  0  0  0  0  0  0  0  0  0
   36.7350   27.7710   43.9600 C   0  0  0  0  0  0  0  0  0  0  0  0
   36.6430   26.6310   43.1800 C   0  0  0  0  0  0  0  0  0  0  0  0
   37.4830   26.5300   42.0900 C   0  0  0  0  0  0  0  0  0  0  0  0
   37.6850   29.6530   44.2910 H   0  0  0  0  0  0  0  0  0  0  0  0
   36.0840   27.8690   44.8200 H   0  0  0  0  0  0  0  0  0  0  0  0
   35.9260   25.8840   43.4570 H   0  0  0  0  0  0  0  0  0  0  0  0
   37.3140   25.2870   41.3310 C   0  0  0  0  0  0  0  0  0  0  0  0
   37.8570   24.0310   41.5510 C   0  0  0  0  0  0  0  0  0  0  0  0
   37.4520   23.1200   40.6050 C   0  0  0  0  0  0  0  0  0  0  0  0
   36.6340   23.8900   39.8000 C   0  0  0  0  0  0  0  0  0  0  0  0
   36.5940   25.1050   40.2590 O   0  0  0  0  0  0  0  0  0  0  0  0
   38.5330   23.8200   42.3960 H   0  0  0  0  0  0  0  0  0  0  0  0
   37.7120   22.0750   40.5220 H   0  0  0  0  0  0  0  0  0  0  0  0
   36.0970   23.5350   38.9060 H   0  0  0  0  0  0  0  0  0  0  0  0
   39.4410   29.6810   42.2200 C   0  0  0  0  0  0  0  0  0  0  0  0
   40.5740   29.6080   42.7460 O   0  0  0  0  0  0  0  0  0  0  0  0
   37.4770   32.0470   40.3070 C   0  0  0  0  0  0  0  0  0  0  0  0
   38.3900   32.7340   39.4970 C   0  0  0  0  0  0  0  0  0  0  0  0
   39.7170   32.3460   39.6350 C   0  0  0  0  0  0  0  0  0  0  0  0
   39.9950   31.3510   40.5330 N   0  0  0  0  0  0  0  0  0  0  0  0
   39.1000   30.7300   41.2780 C   0  0  0  0  0  0  0  0  0  0  0  0
   37.8330   31.1020   41.1430 N   0  0  0  0  0  0  0  0  0  0  0  0
   36.4470   32.3540   40.1930 H   0  0  0  0  0  0  0  0  0  0  0  0
   38.0910   33.5010   38.8180 H   0  0  0  0  0  0  0  0  0  0  0  0
   40.7840   32.9930   38.8350 C   0  0  0  0  0  0  0  0  0  0  0  0
   41.2130   34.2690   39.1060 C   0  0  0  0  0  0  0  0  0  0  0  0
   40.8380   35.0020   39.9480 H   0  0  0  0  0  0  0  0  0  0  0  0
   42.5120   34.5540   37.8380 S   0  0  0  0  0  0  0  0  0  0  0  0
   42.2310   32.8120   37.1320 C   0  0  0  0  0  0  0  0  0  0  0  0
   42.7680   32.3810   36.2870 H   0  0  0  0  0  0  0  0  0  0  0  0
   41.4200   32.4580   37.8200 N   0  0  0  0  0  0  0  0  0  0  0  0
  1  2  1  0  0  0  0
  2  7  2  0  0  0  0
  2  3  1  0  0  0  0
  3  4  2  0  0  0  0
  4  5  1  0  0  0  0
  4  8  1  0  0  0  0
  5  9  1  0  0  0  0
  6 10  1  0  0  0  0
  6  5  2  0  0  0  0
  7  6  1  0  0  0  0
 11 12  2  0  0  0  0
 11  7  1  0  0  0  0
 12 16  1  0  0  0  0
 13 12  1  0  0  0  0
 14 15  1  0  0  0  0
 14 13  2  0  0  0  0
 15 11  1  0  0  0  0
 17 13  1  0  0  0  0
 18 14  1  0  0  0  0
 19  3  1  0  0  0  0
 19 20  2  0  0  0  0
 21 26  1  0  0  0  0
 22 23  1  0  0  0  0
 22 21  2  0  0  0  0
 23 24  2  0  0  0  0
 24 25  1  0  0  0  0
 25 19  1  0  0  0  0
 26 25  2  0  0  0  0
 27 21  1  0  0  0  0
 28 22  1  0  0  0  0
 29 30  2  0  0  0  0
 29 23  1  0  0  0  0
 30 31  1  0  0  0  0
 32 30  1  0  0  0  0
 33 35  2  0  0  0  0
 33 32  1  0  0  0  0
 34 33  1  0  0  0  0
 35 29  1  0  0  0  0
M  END
>  <minimizedAffinity>
-6.03547812

$$$$

 OpenBabel03242513193D

 35 38  0  0  0  0  0  0  0  0999 V2000
   39.7290   26.6770   40.2440 Cl  0  0  0  0  0  0  0  0  0  0  0  0
   38.6320   27.1110   41.5600 C   0  0  0  0  0  0  0  0  0  0  0  0
   37.3420   27.4970   41.2860 C   0  0  0  0  0  0  0  0  0  0  0  0
   36.5350   27.8090   42.3360 C   0  0  0  0  0  0  0  0  0  0  0  0
   36.9950   27.7410   43.6260 C   0  0  0  0  0  0  0  0  0  0  0  0
   38.2950   27.3550   43.9040 C   0  0  0  0  0  0  0  0  0  0  0  0
   39.1120   27.0390   42.8380 C   0  0  0  0  0  0  0  0  0  0  0  0
   35.5080   28.1160   42.1420 H   0  0  0  0  0  0  0  0  0  0  0  0
   36.3380   27.9930   44.4490 H   0  0  0  0  0  0  0  0  0  0  0  0
   38.6050   27.3180   44.9290 H   0  0  0  0  0  0  0  0  0  0  0  0
   40.4700   26.6470   43.2340 C   0  0  0  0  0  0  0  0  0  0  0  0
   41.4350   27.3630   43.9230 C   0  0  0  0  0  0  0  0  0  0  0  0
   42.5890   26.6380   44.0990 C   0  0  0  0  0  0  0  0  0  0  0  0
   42.2720   25.4450   43.4790 C   0  0  0  0  0  0  0  0  0  0  0  0
   41.0630   25.5080   43.0090 O   0  0  0  0  0  0  0  0  0  0  0  0
   41.2650   28.3940   44.2770 H   0  0  0  0  0  0  0  0  0  0  0  0
   43.5020   26.9350   44.5940 H   0  0  0  0  0  0  0  0  0  0  0  0
   42.9380   24.5700   43.3920 H   0  0  0  0  0  0  0  0  0  0  0  0
   36.9180   27.5580   39.8900 C   0  0  0  0  0  0  0  0  0  0  0  0
   36.4050   26.5300   39.3950 O   0  0  0  0  0  0  0  0  0  0  0  0
   36.8390   29.8810   37.1130 C   0  0  0  0  0  0  0  0  0  0  0  0
   37.3930   31.0730   37.5970 C   0  0  0  0  0  0  0  0  0  0  0  0
   37.7990   31.0450   38.9250 C   0  0  0  0  0  0  0  0  0  0  0  0
   37.6200   29.8770   39.6160 N   0  0  0  0  0  0  0  0  0  0  0  0
   37.0920   28.7740   39.1190 C   0  0  0  0  0  0  0  0  0  0  0  0
   36.7050   28.8050   37.8490 N   0  0  0  0  0  0  0  0  0  0  0  0
   36.5260   29.9110   36.0790 H   0  0  0  0  0  0  0  0  0  0  0  0
   37.4990   31.9450   36.9900 H   0  0  0  0  0  0  0  0  0  0  0  0
   38.4020   32.2400   39.5600 C   0  0  0  0  0  0  0  0  0  0  0  0
   37.6860   33.3980   39.7400 C   0  0  0  0  0  0  0  0  0  0  0  0
   36.5680   33.6190   39.4440 H   0  0  0  0  0  0  0  0  0  0  0  0
   38.8950   34.5190   40.5500 S   0  0  0  0  0  0  0  0  0  0  0  0
   40.2200   33.1560   40.5010 C   0  0  0  0  0  0  0  0  0  0  0  0
   41.2380   33.2540   40.8770 H   0  0  0  0  0  0  0  0  0  0  0  0
   39.6310   32.3400   40.0080 N   0  0  0  0  0  0  0  0  0  0  0  0
  1  2  1  0  0  0  0
  2  7  1  0  0  0  0
  3  2  2  0  0  0  0
  3  4  1  0  0  0  0
  4  5  2  0  0  0  0
  5  6  1  0  0  0  0
  5  9  1  0  0  0  0
  6 10  1  0  0  0  0
  7 11  1  0  0  0  0
  7  6  2  0  0  0  0
  8  4  1  0  0  0  0
 11 12  2  0  0  0  0
 12 13  1  0  0  0  0
 12 16  1  0  0  0  0
 13 17  1  0  0  0  0
 14 13  2  0  0  0  0
 15 11  1  0  0  0  0
 15 14  1  0  0  0  0
 18 14  1  0  0  0  0
 19  3  1  0  0  0  0
 20 19  2  0  0  0  0
 21 22  2  0  0  0  0
 21 26  1  0  0  0  0
 22 23  1  0  0  0  0
 23 29  1  0  0  0  0
 23 24  2  0  0  0  0
 25 24  1  0  0  0  0
 25 19  1  0  0  0  0
 26 25  2  0  0  0  0
 27 21  1  0  0  0  0
 28 22  1  0  0  0  0
 29 30  2  0  0  0  0
 29 35  1  0  0  0  0
 30 32  1  0  0  0  0
 31 30  1  0  0  0  0
 33 32  1  0  0  0  0
 33 34  1  0  0  0  0
 35 33  2  0  0  0  0
M  END
>  <minimizedAffinity>
-5.93287754

$$$$

 OpenBabel03242513193D

 35 38  0  0  0  0  0  0  0  0999 V2000
   40.4210   31.1990   38.1750 Cl  0  0  0  0  0  0  0  0  0  0  0  0
   39.6380   32.5660   38.9790 C   0  0  0  0  0  0  0  0  0  0  0  0
   38.2860   32.5430   39.2220 C   0  0  0  0  0  0  0  0  0  0  0  0
   37.7360   33.6150   39.8550 C   0  0  0  0  0  0  0  0  0  0  0  0
   38.5060   34.6830   40.2360 C   0  0  0  0  0  0  0  0  0  0  0  0
   39.8680   34.7090   39.9910 C   0  0  0  0  0  0  0  0  0  0  0  0
   40.4250   33.6210   39.3490 C   0  0  0  0  0  0  0  0  0  0  0  0
   36.6660   33.6180   40.0590 H   0  0  0  0  0  0  0  0  0  0  0  0
   38.0500   35.5270   40.7390 H   0  0  0  0  0  0  0  0  0  0  0  0
   40.4250   35.5670   40.3090 H   0  0  0  0  0  0  0  0  0  0  0  0
   41.8700   33.7450   39.1290 C   0  0  0  0  0  0  0  0  0  0  0  0
   42.5660   34.1300   37.9940 C   0  0  0  0  0  0  0  0  0  0  0  0
   43.9260   34.1180   38.1940 C   0  0  0  0  0  0  0  0  0  0  0  0
   44.0170   33.7050   39.5090 C   0  0  0  0  0  0  0  0  0  0  0  0
   42.8250   33.5090   39.9860 O   0  0  0  0  0  0  0  0  0  0  0  0
   42.0580   34.4090   37.0570 H   0  0  0  0  0  0  0  0  0  0  0  0
   44.7110   34.3680   37.4950 H   0  0  0  0  0  0  0  0  0  0  0  0
   44.9540   33.5610   40.0720 H   0  0  0  0  0  0  0  0  0  0  0  0
   37.5220   31.3800   38.7810 C   0  0  0  0  0  0  0  0  0  0  0  0
   37.2310   31.3040   37.5670 O   0  0  0  0  0  0  0  0  0  0  0  0
   35.4350   29.1000   40.6690 C   0  0  0  0  0  0  0  0  0  0  0  0
   36.3030   28.4040   41.5190 C   0  0  0  0  0  0  0  0  0  0  0  0
   37.6430   28.7530   41.4180 C   0  0  0  0  0  0  0  0  0  0  0  0
   37.9770   29.7250   40.5130 N   0  0  0  0  0  0  0  0  0  0  0  0
   37.1230   30.3570   39.7290 C   0  0  0  0  0  0  0  0  0  0  0  0
   35.8420   30.0200   39.8290 N   0  0  0  0  0  0  0  0  0  0  0  0
   34.3940   28.8230   40.7540 H   0  0  0  0  0  0  0  0  0  0  0  0
   35.9620   27.6570   42.2000 H   0  0  0  0  0  0  0  0  0  0  0  0
   38.6660   28.0920   42.2620 C   0  0  0  0  0  0  0  0  0  0  0  0
   38.3880   26.9460   42.9650 C   0  0  0  0  0  0  0  0  0  0  0  0
   37.3750   26.3460   43.0130 H   0  0  0  0  0  0  0  0  0  0  0  0
   39.9740   26.5780   43.8140 S   0  0  0  0  0  0  0  0  0  0  0  0
   40.7730   28.1140   43.0290 C   0  0  0  0  0  0  0  0  0  0  0  0
   41.8020   28.4370   43.1840 H   0  0  0  0  0  0  0  0  0  0  0  0
   39.9020   28.4970   42.4370 N   0  0  0  0  0  0  0  0  0  0  0  0
  1  2  1  0  0  0  0
  2  3  2  0  0  0  0
  2  7  1  0  0  0  0
  3  4  1  0  0  0  0
  4  8  1  0  0  0  0
  4  5  2  0  0  0  0
  5  9  1  0  0  0  0
  6  5  1  0  0  0  0
  6 10  1  0  0  0  0
  7  6  2  0  0  0  0
 11  7  1  0  0  0  0
 11 15  1  0  0  0  0
 12 13  1  0  0  0  0
 12 11  2  0  0  0  0
 13 14  2  0  0  0  0
 14 15  1  0  0  0  0
 14 18  1  0  0  0  0
 16 12  1  0  0  0  0
 17 13  1  0  0  0  0
 19  3  1  0  0  0  0
 19 25  1  0  0  0  0
 20 19  2  0  0  0  0
 21 27  1  0  0  0  0
 21 22  1  0  0  0  0
 22 28  1  0  0  0  0
 23 22  2  0  0  0  0
 23 29  1  0  0  0  0
 24 23  1  0  0  0  0
 25 26  1  0  0  0  0
 25 24  2  0  0  0  0
 26 21  2  0  0  0  0
 29 35  1  0  0  0  0
 29 30  2  0  0  0  0
 30 31  1  0  0  0  0
 30 32  1  0  0  0  0
 33 34  1  0  0  0  0
 33 32  1  0  0  0  0
 35 33  2  0  0  0  0
M  END
>  <minimizedAffinity>
-5.91437149

$$$$

 OpenBabel03242513193D

 35 38  0  0  0  0  0  0  0  0999 V2000
   39.9370   29.4120   40.2430 Cl  0  0  0  0  0  0  0  0  0  0  0  0
   38.1750   29.4350   40.3820 C   0  0  0  0  0  0  0  0  0  0  0  0
   37.4330   30.3130   39.6300 C   0  0  0  0  0  0  0  0  0  0  0  0
   36.0800   30.2800   39.7650 C   0  0  0  0  0  0  0  0  0  0  0  0
   35.4760   29.4000   40.6250 C   0  0  0  0  0  0  0  0  0  0  0  0
   36.2210   28.5160   41.3860 C   0  0  0  0  0  0  0  0  0  0  0  0
   37.5940   28.5500   41.2480 C   0  0  0  0  0  0  0  0  0  0  0  0
   35.4720   30.9670   39.1770 H   0  0  0  0  0  0  0  0  0  0  0  0
   34.3970   29.3890   40.7200 H   0  0  0  0  0  0  0  0  0  0  0  0
   35.7010   27.8490   42.0430 H   0  0  0  0  0  0  0  0  0  0  0  0
   38.2950   27.5810   42.0980 C   0  0  0  0  0  0  0  0  0  0  0  0
   38.8610   27.7450   43.3520 C   0  0  0  0  0  0  0  0  0  0  0  0
   39.4300   26.5850   43.8180 C   0  0  0  0  0  0  0  0  0  0  0  0
   39.1790   25.7080   42.7800 C   0  0  0  0  0  0  0  0  0  0  0  0
   38.5350   26.3260   41.8360 O   0  0  0  0  0  0  0  0  0  0  0  0
   38.8390   28.7090   43.8870 H   0  0  0  0  0  0  0  0  0  0  0  0
   39.9390   26.4140   44.7550 H   0  0  0  0  0  0  0  0  0  0  0  0
   39.4770   24.6470   42.7510 H   0  0  0  0  0  0  0  0  0  0  0  0
   38.1380   31.2310   38.7400 C   0  0  0  0  0  0  0  0  0  0  0  0
   38.1980   30.9310   37.5260 O   0  0  0  0  0  0  0  0  0  0  0  0
   38.4630   34.5360   40.1840 C   0  0  0  0  0  0  0  0  0  0  0  0
   39.8390   34.7820   40.2680 C   0  0  0  0  0  0  0  0  0  0  0  0
   40.6570   33.7600   39.8030 C   0  0  0  0  0  0  0  0  0  0  0  0
   40.0470   32.6340   39.3190 N   0  0  0  0  0  0  0  0  0  0  0  0
   38.7420   32.4440   39.2590 C   0  0  0  0  0  0  0  0  0  0  0  0
   37.9640   33.4240   39.7040 N   0  0  0  0  0  0  0  0  0  0  0  0
   37.8340   35.3370   40.5480 H   0  0  0  0  0  0  0  0  0  0  0  0
   40.2370   35.6920   40.6600 H   0  0  0  0  0  0  0  0  0  0  0  0
   42.1320   33.8930   39.8340 C   0  0  0  0  0  0  0  0  0  0  0  0
   42.8220   33.9800   41.0180 C   0  0  0  0  0  0  0  0  0  0  0  0
   42.3940   33.9650   42.1150 H   0  0  0  0  0  0  0  0  0  0  0  0
   44.5710   34.1270   40.4760 S   0  0  0  0  0  0  0  0  0  0  0  0
   44.0330   34.0410   38.6550 C   0  0  0  0  0  0  0  0  0  0  0  0
   44.7050   34.0830   37.7980 H   0  0  0  0  0  0  0  0  0  0  0  0
   42.9250   33.9440   38.7900 N   0  0  0  0  0  0  0  0  0  0  0  0
  1  2  1  0  0  0  0
  2  7  1  0  0  0  0
  3  4  1  0  0  0  0
  3  2  2  0  0  0  0
  4  5  2  0  0  0  0
  5  9  1  0  0  0  0
  5  6  1  0  0  0  0
  6 10  1  0  0  0  0
  7  6  2  0  0  0  0
  7 11  1  0  0  0  0
  8  4  1  0  0  0  0
 11 12  2  0  0  0  0
 12 13  1  0  0  0  0
 12 16  1  0  0  0  0
 13 17  1  0  0  0  0
 14 13  2  0  0  0  0
 15 11  1  0  0  0  0
 15 14  1  0  0  0  0
 18 14  1  0  0  0  0
 19 25  1  0  0  0  0
 19  3  1  0  0  0  0
 20 19  2  0  0  0  0
 21 22  1  0  0  0  0
 21 27  1  0  0  0  0
 22 28  1  0  0  0  0
 23 29  1  0  0  0  0
 23 22  2  0  0  0  0
 24 23  1  0  0  0  0
 25 24  2  0  0  0  0
 25 26  1  0  0  0  0
 26 21  2  0  0  0  0
 29 30  2  0  0  0  0
 30 31  1  0  0  0  0
 32 30  1  0  0  0  0
 33 35  2  0  0  0  0
 33 32  1  0  0  0  0
 34 33  1  0  0  0  0
 35 29  1  0  0  0  0
M  END
>  <minimizedAffinity>
-5.91238785

$$$$

 OpenBabel03242513193D

 35 38  0  0  0  0  0  0  0  0999 V2000
   39.8650   28.1670   43.1190 Cl  0  0  0  0  0  0  0  0  0  0  0  0
   39.1290   26.6090   42.7240 C   0  0  0  0  0  0  0  0  0  0  0  0
   37.7620   26.4910   42.6420 C   0  0  0  0  0  0  0  0  0  0  0  0
   37.2480   25.2720   42.3220 C   0  0  0  0  0  0  0  0  0  0  0  0
   38.0670   24.1980   42.0890 C   0  0  0  0  0  0  0  0  0  0  0  0
   39.4440   24.3140   42.1720 C   0  0  0  0  0  0  0  0  0  0  0  0
   39.9640   25.5500   42.4970 C   0  0  0  0  0  0  0  0  0  0  0  0
   36.1670   25.1560   42.2500 H   0  0  0  0  0  0  0  0  0  0  0  0
   37.6390   23.2360   41.8350 H   0  0  0  0  0  0  0  0  0  0  0  0
   40.0390   23.4440   41.9810 H   0  0  0  0  0  0  0  0  0  0  0  0
   41.4300   25.5710   42.5670 C   0  0  0  0  0  0  0  0  0  0  0  0
   42.3660   25.6610   41.5490 C   0  0  0  0  0  0  0  0  0  0  0  0
   43.6540   25.6490   42.0300 C   0  0  0  0  0  0  0  0  0  0  0  0
   43.4480   25.5470   43.3920 C   0  0  0  0  0  0  0  0  0  0  0  0
   42.1730   25.5070   43.6370 O   0  0  0  0  0  0  0  0  0  0  0  0
   42.0780   25.7340   40.4880 H   0  0  0  0  0  0  0  0  0  0  0  0
   44.5790   25.7060   41.4760 H   0  0  0  0  0  0  0  0  0  0  0  0
   44.2390   25.5040   44.1580 H   0  0  0  0  0  0  0  0  0  0  0  0
   36.9470   27.6710   42.9110 C   0  0  0  0  0  0  0  0  0  0  0  0
   36.5810   27.8660   44.0920 O   0  0  0  0  0  0  0  0  0  0  0  0
   36.6070   30.7160   40.9810 C   0  0  0  0  0  0  0  0  0  0  0  0
   35.9200   30.3540   39.8150 C   0  0  0  0  0  0  0  0  0  0  0  0
   35.5740   29.0120   39.7200 C   0  0  0  0  0  0  0  0  0  0  0  0
   35.9330   28.1920   40.7560 N   0  0  0  0  0  0  0  0  0  0  0  0
   36.5830   28.5770   41.8390 C   0  0  0  0  0  0  0  0  0  0  0  0
   36.9110   29.8610   41.9260 N   0  0  0  0  0  0  0  0  0  0  0  0
   36.8720   31.7620   41.0470 H   0  0  0  0  0  0  0  0  0  0  0  0
   35.6750   31.0580   39.0510 H   0  0  0  0  0  0  0  0  0  0  0  0
   34.8430   28.4980   38.5380 C   0  0  0  0  0  0  0  0  0  0  0  0
   35.2300   27.3470   37.8980 C   0  0  0  0  0  0  0  0  0  0  0  0
   36.1320   26.6340   38.1570 H   0  0  0  0  0  0  0  0  0  0  0  0
   34.0040   27.1890   36.5390 S   0  0  0  0  0  0  0  0  0  0  0  0
   33.1430   28.7860   37.1060 C   0  0  0  0  0  0  0  0  0  0  0  0
   32.2670   29.2300   36.6330 H   0  0  0  0  0  0  0  0  0  0  0  0
   33.7900   29.0480   37.9820 N   0  0  0  0  0  0  0  0  0  0  0  0
  2  1  1  0  0  0  0
  3  2  1  0  0  0  0
  3 19  1  0  0  0  0
  4  3  2  0  0  0  0
  5  6  2  0  0  0  0
  5  4  1  0  0  0  0
  6  7  1  0  0  0  0
  7 11  1  0  0  0  0
  7  2  2  0  0  0  0
  8  4  1  0  0  0  0
  9  5  1  0  0  0  0
 10  6  1  0  0  0  0
 11 15  1  0  0  0  0
 12 13  1  0  0  0  0
 12 11  2  0  0  0  0
 13 14  2  0  0  0  0
 14 15  1  0  0  0  0
 14 18  1  0  0  0  0
 16 12  1  0  0  0  0
 17 13  1  0  0  0  0
 19 20  2  0  0  0  0
 21 27  1  0  0  0  0
 21 26  1  0  0  0  0
 22 21  2  0  0  0  0
 23 22  1  0  0  0  0
 23 24  2  0  0  0  0
 24 25  1  0  0  0  0
 25 26  2  0  0  0  0
 25 19  1  0  0  0  0
 28 22  1  0  0  0  0
 29 23  1  0  0  0  0
 30 31  1  0  0  0  0
 30 29  2  0  0  0  0
 32 33  1  0  0  0  0
 32 30  1  0  0  0  0
 33 35  2  0  0  0  0
 34 33  1  0  0  0  0
 35 29  1  0  0  0  0
M  END
>  <minimizedAffinity>
-5.80292845

$$$$
