
 OpenBabel03242512253D

 18 19  0  0  0  0  0  0  0  0999 V2000
   44.9170   35.0320   44.4660 C   0  0  0  0  0  0  0  0  0  0  0  0
   45.8370   34.8790   43.4020 C   0  0  0  0  0  0  0  0  0  0  0  0
   46.9370   33.9960   43.5620 C   0  0  0  0  0  0  0  0  0  0  0  0
   47.0240   33.3510   44.7500 N   0  0  0  0  0  0  0  0  0  0  0  0
   46.1390   33.5130   45.7420 C   0  0  0  0  0  0  0  0  0  0  0  0
   45.0980   34.3430   45.6040 N   0  0  0  0  0  0  0  0  0  0  0  0
   43.8220   35.9150   44.3010 N   0  0  0  0  0  0  0  0  0  0  0  0
   45.7330   35.4070   42.4780 H   0  0  0  0  0  0  0  0  0  0  0  0
   47.6350   33.8770   42.7590 H   0  0  0  0  0  0  0  0  0  0  0  0
   43.0150   35.8320   44.9670 H   0  0  0  0  0  0  0  0  0  0  0  0
   43.8410   36.6260   43.5230 H   0  0  0  0  0  0  0  0  0  0  0  0
   46.3000   32.7730   47.0140 C   0  0  0  0  0  0  0  0  0  0  0  0
   45.1590   32.5550   47.7740 C   0  0  0  0  0  0  0  0  0  0  0  0
   44.1360   32.8280   47.6160 H   0  0  0  0  0  0  0  0  0  0  0  0
   45.8230   31.6240   49.2250 S   0  0  0  0  0  0  0  0  0  0  0  0
   47.5810   31.7120   48.5000 C   0  0  0  0  0  0  0  0  0  0  0  0
   48.6680   31.3540   48.7900 H   0  0  0  0  0  0  0  0  0  0  0  0
   47.4050   32.2780   47.5450 N   0  0  0  0  0  0  0  0  0  0  0  0
  1  6  1  0  0  0  0
  2  3  1  0  0  0  0
  2  1  2  0  0  0  0
  3  4  2  0  0  0  0
  4  5  1  0  0  0  0
  5 12  1  0  0  0  0
  6  5  2  0  0  0  0
  7  1  1  0  0  0  0
  7 10  1  0  0  0  0
  8  2  1  0  0  0  0
  9  3  1  0  0  0  0
 11  7  1  0  0  0  0
 12 18  1  0  0  0  0
 12 13  2  0  0  0  0
 13 15  1  0  0  0  0
 14 13  1  0  0  0  0
 16 17  1  0  0  0  0
 16 15  1  0  0  0  0
 18 16  2  0  0  0  0
M  END
>  <minimizedAffinity>
-4.6489315

>  <minimizedRMSD>
1.2040422

$$$$
