
 OpenBabel03252505093D

 41 44  0  0  1  0  0  0  0  0999 V2000
   37.4280   32.5130   39.9410 C   0  0  0  0  0  0  0  0  0  0  0  0
   37.0540   31.3620   40.6720 C   0  0  0  0  0  0  0  0  0  0  0  0
   38.0420   30.3480   40.8360 C   0  0  0  0  0  0  0  0  0  0  0  0
   39.2750   30.5270   40.2940 N   0  0  0  0  0  0  0  0  0  0  0  0
   39.5820   31.6450   39.6050 C   0  0  0  0  0  0  0  0  0  0  0  0
   38.6630   32.6430   39.4240 N   0  0  0  0  0  0  0  0  0  0  0  0
   36.7130   33.3110   39.7900 H   0  0  0  0  0  0  0  0  0  0  0  0
   36.0550   31.2700   41.0830 H   0  0  0  0  0  0  0  0  0  0  0  0
   40.9430   31.7910   39.0290 C   0  0  2  0  0  0  0  0  0  0  0  0
   41.8180   32.2610   40.1560 C   0  0  0  0  0  0  0  0  0  0  0  0
   42.2060   33.6770   40.1440 C   0  0  0  0  0  0  0  0  0  0  0  0
   42.8400   33.9360   38.7880 C   0  0  0  0  0  0  0  0  0  0  0  0
   41.9030   33.7520   37.6830 C   0  0  0  0  0  0  0  0  0  0  0  0
   40.9430   32.6330   37.8520 C   0  0  0  0  0  0  0  0  0  0  0  0
   41.2400   30.7570   38.7290 H   0  0  0  0  0  0  0  0  0  0  0  0
   41.3720   32.0420   41.1610 H   0  0  0  0  0  0  0  0  0  0  0  0
   42.7480   31.6480   40.1400 H   0  0  0  0  0  0  0  0  0  0  0  0
   43.0220   33.8140   40.8830 H   0  0  0  0  0  0  0  0  0  0  0  0
   41.3820   34.3880   40.3490 H   0  0  0  0  0  0  0  0  0  0  0  0
   43.1070   34.9980   38.7910 H   0  0  0  0  0  0  0  0  0  0  0  0
   43.6920   33.2590   38.6650 H   0  0  0  0  0  0  0  0  0  0  0  0
   41.7610   34.2640   36.7610 H   0  0  0  0  0  0  0  0  0  0  0  0
   39.9770   32.3530   36.8400 N   0  0  0  0  0  0  0  0  0  0  0  0
   40.0780   31.4450   36.3330 H   0  0  0  0  0  0  0  0  0  0  0  0
   39.2280   33.0890   36.6790 H   0  0  0  0  0  0  0  0  0  0  0  0
   37.6950   29.1490   41.5840 C   0  0  0  0  0  0  0  0  0  0  0  0
   37.5760   29.2410   42.9320 C   0  0  0  0  0  0  0  0  0  0  0  0
   37.2390   28.0540   43.6090 C   0  0  0  0  0  0  0  0  0  0  0  0
   37.0680   26.9300   42.8320 C   0  0  0  0  0  0  0  0  0  0  0  0
   37.1860   26.8370   41.4850 C   0  0  0  0  0  0  0  0  0  0  0  0
   37.5140   28.0270   40.8990 N   0  0  0  0  0  0  0  0  0  0  0  0
   37.7160   30.1400   43.5210 H   0  0  0  0  0  0  0  0  0  0  0  0
   37.1180   28.0050   44.6710 H   0  0  0  0  0  0  0  0  0  0  0  0
   36.8040   26.0080   43.3740 H   0  0  0  0  0  0  0  0  0  0  0  0
   36.9940   25.6140   40.6980 C   0  0  0  0  0  0  0  0  0  0  0  0
   36.4960   25.7100   39.4330 C   0  0  0  0  0  0  0  0  0  0  0  0
   36.1610   26.4930   38.7500 H   0  0  0  0  0  0  0  0  0  0  0  0
   36.4280   23.9600   38.8450 S   0  0  0  0  0  0  0  0  0  0  0  0
   37.1260   23.3950   40.5180 C   0  0  0  0  0  0  0  0  0  0  0  0
   37.4720   22.3730   41.1740 H   0  0  0  0  0  0  0  0  0  0  0  0
   37.2420   24.3730   41.0510 N   0  0  0  0  0  0  0  0  0  0  0  0
  1  2  1  0  0  0  0
  2  3  2  0  0  0  0
  2  8  1  0  0  0  0
  3 26  1  0  0  0  0
  4  3  1  0  0  0  0
  5  4  2  0  0  0  0
  6  5  1  0  0  0  0
  6  1  2  0  0  0  0
  7  1  1  0  0  0  0
  9 15  1  6  0  0  0
  9  5  1  0  0  0  0
  9 10  1  0  0  0  0
 10 16  1  0  0  0  0
 11 10  1  0  0  0  0
 11 19  1  0  0  0  0
 11 18  1  0  0  0  0
 12 20  1  0  0  0  0
 12 11  1  0  0  0  0
 13 14  2  0  0  0  0
 13 12  1  0  0  0  0
 14  9  1  0  0  0  0
 17 10  1  0  0  0  0
 21 12  1  0  0  0  0
 22 13  1  0  0  0  0
 23 14  1  0  0  0  0
 24 23  1  0  0  0  0
 25 23  1  0  0  0  0
 26 27  1  0  0  0  0
 27 32  1  0  0  0  0
 27 28  2  0  0  0  0
 28 33  1  0  0  0  0
 29 34  1  0  0  0  0
 29 28  1  0  0  0  0
 30 29  2  0  0  0  0
 31 30  1  0  0  0  0
 31 26  2  0  0  0  0
 35 41  1  0  0  0  0
 35 30  1  0  0  0  0
 36 35  2  0  0  0  0
 37 36  1  0  0  0  0
 38 36  1  0  0  0  0
 38 39  1  0  0  0  0
 39 41  2  0  0  0  0
 39 40  1  0  0  0  0
M  END
>  <minimizedAffinity>
-6.34964085

$$$$

 OpenBabel03252505093D

 41 44  0  0  1  0  0  0  0  0999 V2000
   36.2260   29.1650   37.8300 C   0  0  0  0  0  0  0  0  0  0  0  0
   36.4140   28.4660   39.0450 C   0  0  0  0  0  0  0  0  0  0  0  0
   37.2310   29.0890   40.0320 C   0  0  0  0  0  0  0  0  0  0  0  0
   37.7850   30.3010   39.7690 N   0  0  0  0  0  0  0  0  0  0  0  0
   37.5750   30.9270   38.5930 C   0  0  0  0  0  0  0  0  0  0  0  0
   36.7960   30.3640   37.6180 N   0  0  0  0  0  0  0  0  0  0  0  0
   35.6130   28.7340   37.0500 H   0  0  0  0  0  0  0  0  0  0  0  0
   35.9490   27.5000   39.2030 H   0  0  0  0  0  0  0  0  0  0  0  0
   38.2050   32.2500   38.3530 C   0  0  2  0  0  0  0  0  0  0  0  0
   39.5610   31.9620   37.7730 C   0  0  0  0  0  0  0  0  0  0  0  0
   40.7110   32.1380   38.6670 C   0  0  0  0  0  0  0  0  0  0  0  0
   40.6180   33.5520   39.2130 C   0  0  0  0  0  0  0  0  0  0  0  0
   39.4230   33.7650   40.0260 C   0  0  0  0  0  0  0  0  0  0  0  0
   38.2020   33.0730   39.5430 C   0  0  0  0  0  0  0  0  0  0  0  0
   37.5620   32.7380   37.5800 H   0  0  0  0  0  0  0  0  0  0  0  0
   39.6260   30.9310   37.3360 H   0  0  0  0  0  0  0  0  0  0  0  0
   39.7010   32.6310   36.8930 H   0  0  0  0  0  0  0  0  0  0  0  0
   41.6320   32.1210   38.0470 H   0  0  0  0  0  0  0  0  0  0  0  0
   40.7870   31.3930   39.4830 H   0  0  0  0  0  0  0  0  0  0  0  0
   41.4720   33.6590   39.8890 H   0  0  0  0  0  0  0  0  0  0  0  0
   40.6200   34.2530   38.3720 H   0  0  0  0  0  0  0  0  0  0  0  0
   39.2400   34.3250   40.9120 H   0  0  0  0  0  0  0  0  0  0  0  0
   36.9720   33.2030   40.2530 N   0  0  0  0  0  0  0  0  0  0  0  0
   36.1980   33.7060   39.7630 H   0  0  0  0  0  0  0  0  0  0  0  0
   36.9350   32.7790   41.2260 H   0  0  0  0  0  0  0  0  0  0  0  0
   37.4460   28.4010   41.2970 C   0  0  0  0  0  0  0  0  0  0  0  0
   36.3650   28.0960   42.0580 C   0  0  0  0  0  0  0  0  0  0  0  0
   36.6260   27.4320   43.2710 C   0  0  0  0  0  0  0  0  0  0  0  0
   37.9470   27.1640   43.5530 C   0  0  0  0  0  0  0  0  0  0  0  0
   39.0270   27.4680   42.7940 C   0  0  0  0  0  0  0  0  0  0  0  0
   38.6960   28.1110   41.6340 N   0  0  0  0  0  0  0  0  0  0  0  0
   35.3330   28.3190   41.8110 H   0  0  0  0  0  0  0  0  0  0  0  0
   35.8540   27.1410   43.9510 H   0  0  0  0  0  0  0  0  0  0  0  0
   38.1370   26.6430   44.5050 H   0  0  0  0  0  0  0  0  0  0  0  0
   40.4210   27.1620   43.1380 C   0  0  0  0  0  0  0  0  0  0  0  0
   40.8080   25.8590   43.2380 C   0  0  0  0  0  0  0  0  0  0  0  0
   40.3610   24.8690   43.1310 H   0  0  0  0  0  0  0  0  0  0  0  0
   42.5990   25.9580   43.6790 S   0  0  0  0  0  0  0  0  0  0  0  0
   42.4790   27.8530   43.6440 C   0  0  0  0  0  0  0  0  0  0  0  0
   43.1510   28.9100   43.8060 H   0  0  0  0  0  0  0  0  0  0  0  0
   41.4020   28.0010   43.3780 N   0  0  0  0  0  0  0  0  0  0  0  0
  1  2  1  0  0  0  0
  2  8  1  0  0  0  0
  2  3  2  0  0  0  0
  3 26  1  0  0  0  0
  4  3  1  0  0  0  0
  5  4  2  0  0  0  0
  6  1  2  0  0  0  0
  6  5  1  0  0  0  0
  7  1  1  0  0  0  0
  9 15  1  6  0  0  0
  9  5  1  0  0  0  0
  9 14  1  0  0  0  0
 10  9  1  0  0  0  0
 10 11  1  0  0  0  0
 11 12  1  0  0  0  0
 11 19  1  0  0  0  0
 12 20  1  0  0  0  0
 12 13  1  0  0  0  0
 13 22  1  0  0  0  0
 14 13  2  0  0  0  0
 14 23  1  0  0  0  0
 16 10  1  0  0  0  0
 17 10  1  0  0  0  0
 18 11  1  0  0  0  0
 21 12  1  0  0  0  0
 23 25  1  0  0  0  0
 24 23  1  0  0  0  0
 26 31  2  0  0  0  0
 26 27  1  0  0  0  0
 27 28  2  0  0  0  0
 28 29  1  0  0  0  0
 28 33  1  0  0  0  0
 29 34  1  0  0  0  0
 30 35  1  0  0  0  0
 30 29  2  0  0  0  0
 31 30  1  0  0  0  0
 32 27  1  0  0  0  0
 35 36  2  0  0  0  0
 35 41  1  0  0  0  0
 36 38  1  0  0  0  0
 37 36  1  0  0  0  0
 39 38  1  0  0  0  0
 39 40  1  0  0  0  0
 41 39  2  0  0  0  0
M  END
>  <minimizedAffinity>
-6.05608892

$$$$

 OpenBabel03252505093D

 41 44  0  0  1  0  0  0  0  0999 V2000
   35.4580   29.2240   39.4650 C   0  0  0  0  0  0  0  0  0  0  0  0
   36.2170   30.4150   39.3970 C   0  0  0  0  0  0  0  0  0  0  0  0
   37.2540   30.5780   40.3600 C   0  0  0  0  0  0  0  0  0  0  0  0
   37.4640   29.6050   41.2840 N   0  0  0  0  0  0  0  0  0  0  0  0
   36.7110   28.4870   41.3060 C   0  0  0  0  0  0  0  0  0  0  0  0
   35.7050   28.2890   40.3990 N   0  0  0  0  0  0  0  0  0  0  0  0
   34.6590   29.0530   38.7550 H   0  0  0  0  0  0  0  0  0  0  0  0
   36.0060   31.1610   38.6380 H   0  0  0  0  0  0  0  0  0  0  0  0
   36.9780   27.4520   42.3380 C   0  0  2  0  0  0  0  0  0  0  0  0
   37.7850   28.1340   43.4060 C   0  0  0  0  0  0  0  0  0  0  0  0
   39.2200   27.8280   43.4450 C   0  0  0  0  0  0  0  0  0  0  0  0
   39.3320   26.3150   43.5300 C   0  0  0  0  0  0  0  0  0  0  0  0
   38.7950   25.6430   42.3490 C   0  0  0  0  0  0  0  0  0  0  0  0
   37.5800   26.2660   41.7690 C   0  0  0  0  0  0  0  0  0  0  0  0
   35.9720   27.1840   42.7420 H   0  0  0  0  0  0  0  0  0  0  0  0
   37.6790   29.2510   43.3710 H   0  0  0  0  0  0  0  0  0  0  0  0
   37.3450   27.8570   44.3910 H   0  0  0  0  0  0  0  0  0  0  0  0
   39.6240   28.2070   44.4060 H   0  0  0  0  0  0  0  0  0  0  0  0
   39.8070   28.2300   42.5970 H   0  0  0  0  0  0  0  0  0  0  0  0
   40.4060   26.1040   43.5410 H   0  0  0  0  0  0  0  0  0  0  0  0
   38.7980   25.9730   44.4230 H   0  0  0  0  0  0  0  0  0  0  0  0
   39.1000   24.7800   41.8060 H   0  0  0  0  0  0  0  0  0  0  0  0
   36.9630   25.7010   40.6140 N   0  0  0  0  0  0  0  0  0  0  0  0
   36.0080   25.2960   40.7420 H   0  0  0  0  0  0  0  0  0  0  0  0
   37.5200   25.7350   39.7100 H   0  0  0  0  0  0  0  0  0  0  0  0
   38.0590   31.7910   40.3210 C   0  0  0  0  0  0  0  0  0  0  0  0
   37.4480   32.9620   40.0130 C   0  0  0  0  0  0  0  0  0  0  0  0
   38.2700   34.1040   39.9880 C   0  0  0  0  0  0  0  0  0  0  0  0
   39.6020   33.9100   40.2780 C   0  0  0  0  0  0  0  0  0  0  0  0
   40.2130   32.7400   40.5860 C   0  0  0  0  0  0  0  0  0  0  0  0
   39.3530   31.6780   40.5910 N   0  0  0  0  0  0  0  0  0  0  0  0
   36.3950   33.0880   39.7880 H   0  0  0  0  0  0  0  0  0  0  0  0
   37.9000   35.0810   39.7580 H   0  0  0  0  0  0  0  0  0  0  0  0
   40.2340   34.8120   40.2560 H   0  0  0  0  0  0  0  0  0  0  0  0
   41.6400   32.5820   40.8890 C   0  0  0  0  0  0  0  0  0  0  0  0
   42.2560   31.4040   40.5870 C   0  0  0  0  0  0  0  0  0  0  0  0
   41.9940   30.4410   40.1450 H   0  0  0  0  0  0  0  0  0  0  0  0
   44.0020   31.6600   41.1330 S   0  0  0  0  0  0  0  0  0  0  0  0
   43.5440   33.4140   41.6990 C   0  0  0  0  0  0  0  0  0  0  0  0
   44.0160   34.4590   42.2270 H   0  0  0  0  0  0  0  0  0  0  0  0
   42.4560   33.4530   41.4370 N   0  0  0  0  0  0  0  0  0  0  0  0
  1  6  1  0  0  0  0
  2  1  2  0  0  0  0
  2  3  1  0  0  0  0
  3  4  2  0  0  0  0
  4  5  1  0  0  0  0
  5  9  1  0  0  0  0
  6  5  2  0  0  0  0
  7  1  1  0  0  0  0
  8  2  1  0  0  0  0
  9 15  1  1  0  0  0
  9 10  1  0  0  0  0
 10 11  1  0  0  0  0
 10 17  1  0  0  0  0
 11 12  1  0  0  0  0
 11 18  1  0  0  0  0
 12 20  1  0  0  0  0
 12 21  1  0  0  0  0
 13 12  1  0  0  0  0
 14  9  1  0  0  0  0
 14 13  2  0  0  0  0
 16 10  1  0  0  0  0
 19 11  1  0  0  0  0
 22 13  1  0  0  0  0
 23 24  1  0  0  0  0
 23 14  1  0  0  0  0
 25 23  1  0  0  0  0
 26  3  1  0  0  0  0
 26 31  1  0  0  0  0
 27 26  2  0  0  0  0
 28 27  1  0  0  0  0
 28 29  2  0  0  0  0
 29 30  1  0  0  0  0
 30 31  2  0  0  0  0
 30 35  1  0  0  0  0
 32 27  1  0  0  0  0
 33 28  1  0  0  0  0
 34 29  1  0  0  0  0
 35 41  1  0  0  0  0
 36 35  2  0  0  0  0
 36 38  1  0  0  0  0
 37 36  1  0  0  0  0
 38 39  1  0  0  0  0
 39 40  1  0  0  0  0
 41 39  2  0  0  0  0
M  END
>  <minimizedAffinity>
-5.92951107

$$$$

 OpenBabel03252505093D

 41 44  0  0  1  0  0  0  0  0999 V2000
   35.2960   29.5210   40.1290 C   0  0  0  0  0  0  0  0  0  0  0  0
   36.2220   30.5360   39.7970 C   0  0  0  0  0  0  0  0  0  0  0  0
   37.4950   30.4870   40.4340 C   0  0  0  0  0  0  0  0  0  0  0  0
   37.7600   29.4880   41.3160 N   0  0  0  0  0  0  0  0  0  0  0  0
   36.8410   28.5420   41.5990 C   0  0  0  0  0  0  0  0  0  0  0  0
   35.6060   28.5520   41.0090 N   0  0  0  0  0  0  0  0  0  0  0  0
   34.3160   29.5150   39.6710 H   0  0  0  0  0  0  0  0  0  0  0  0
   35.9590   31.3120   39.0860 H   0  0  0  0  0  0  0  0  0  0  0  0
   37.1780   27.4720   42.5720 C   0  0  2  0  0  0  0  0  0  0  0  0
   38.1340   28.0910   43.5510 C   0  0  0  0  0  0  0  0  0  0  0  0
   39.5480   27.7200   43.4170 C   0  0  0  0  0  0  0  0  0  0  0  0
   39.5980   26.2020   43.4580 C   0  0  0  0  0  0  0  0  0  0  0  0
   38.8970   25.5840   42.3360 C   0  0  0  0  0  0  0  0  0  0  0  0
   37.6530   26.2750   41.9140 C   0  0  0  0  0  0  0  0  0  0  0  0
   36.2130   27.2380   43.0860 H   0  0  0  0  0  0  0  0  0  0  0  0
   38.0780   29.2110   43.5510 H   0  0  0  0  0  0  0  0  0  0  0  0
   37.7990   27.8100   44.5750 H   0  0  0  0  0  0  0  0  0  0  0  0
   40.0790   28.0580   44.3300 H   0  0  0  0  0  0  0  0  0  0  0  0
   40.0510   28.1170   42.5130 H   0  0  0  0  0  0  0  0  0  0  0  0
   40.6550   25.9440   43.3400 H   0  0  0  0  0  0  0  0  0  0  0  0
   39.1550   25.8630   44.4000 H   0  0  0  0  0  0  0  0  0  0  0  0
   39.0960   24.7220   41.7440 H   0  0  0  0  0  0  0  0  0  0  0  0
   36.8800   25.7660   40.8280 N   0  0  0  0  0  0  0  0  0  0  0  0
   35.9290   25.4010   41.0590 H   0  0  0  0  0  0  0  0  0  0  0  0
   37.3290   25.7980   39.8660 H   0  0  0  0  0  0  0  0  0  0  0  0
   38.4770   31.5140   40.1160 C   0  0  0  0  0  0  0  0  0  0  0  0
   38.3160   32.7490   40.6540 C   0  0  0  0  0  0  0  0  0  0  0  0
   39.2910   33.7060   40.3160 C   0  0  0  0  0  0  0  0  0  0  0  0
   40.2990   33.2860   39.4770 C   0  0  0  0  0  0  0  0  0  0  0  0
   40.4610   32.0530   38.9390 C   0  0  0  0  0  0  0  0  0  0  0  0
   39.4780   31.1800   39.3120 N   0  0  0  0  0  0  0  0  0  0  0  0
   37.5110   33.0530   41.3140 H   0  0  0  0  0  0  0  0  0  0  0  0
   39.2690   34.7110   40.6800 H   0  0  0  0  0  0  0  0  0  0  0  0
   41.0560   34.0450   39.2210 H   0  0  0  0  0  0  0  0  0  0  0  0
   41.5550   31.6520   38.0480 C   0  0  0  0  0  0  0  0  0  0  0  0
   41.4270   30.5120   37.3120 C   0  0  0  0  0  0  0  0  0  0  0  0
   40.6910   29.7210   37.1620 H   0  0  0  0  0  0  0  0  0  0  0  0
   43.0100   30.4130   36.3640 S   0  0  0  0  0  0  0  0  0  0  0  0
   43.5780   32.0260   37.1880 C   0  0  0  0  0  0  0  0  0  0  0  0
   44.5330   32.8500   37.2410 H   0  0  0  0  0  0  0  0  0  0  0  0
   42.7000   32.2610   37.8420 N   0  0  0  0  0  0  0  0  0  0  0  0
  1  6  1  0  0  0  0
  2  1  2  0  0  0  0
  2  3  1  0  0  0  0
  3  4  2  0  0  0  0
  4  5  1  0  0  0  0
  5  9  1  0  0  0  0
  6  5  2  0  0  0  0
  7  1  1  0  0  0  0
  8  2  1  0  0  0  0
  9 15  1  1  0  0  0
  9 10  1  0  0  0  0
 10 16  1  0  0  0  0
 10 17  1  0  0  0  0
 11 12  1  0  0  0  0
 11 10  1  0  0  0  0
 11 18  1  0  0  0  0
 12 21  1  0  0  0  0
 13 12  1  0  0  0  0
 14 13  2  0  0  0  0
 14  9  1  0  0  0  0
 19 11  1  0  0  0  0
 20 12  1  0  0  0  0
 22 13  1  0  0  0  0
 23 24  1  0  0  0  0
 23 14  1  0  0  0  0
 25 23  1  0  0  0  0
 26  3  1  0  0  0  0
 26 27  1  0  0  0  0
 27 32  1  0  0  0  0
 28 27  2  0  0  0  0
 28 33  1  0  0  0  0
 29 28  1  0  0  0  0
 30 31  1  0  0  0  0
 30 29  2  0  0  0  0
 31 26  2  0  0  0  0
 34 29  1  0  0  0  0
 35 30  1  0  0  0  0
 36 35  2  0  0  0  0
 37 36  1  0  0  0  0
 38 39  1  0  0  0  0
 38 36  1  0  0  0  0
 39 40  1  0  0  0  0
 39 41  2  0  0  0  0
 41 35  1  0  0  0  0
M  END
>  <minimizedAffinity>
-5.91060543

$$$$

 OpenBabel03252505093D

 41 44  0  0  1  0  0  0  0  0999 V2000
   36.2900   26.3250   39.2920 C   0  0  0  0  0  0  0  0  0  0  0  0
   37.2820   26.1190   40.2780 C   0  0  0  0  0  0  0  0  0  0  0  0
   37.8790   27.2790   40.8500 C   0  0  0  0  0  0  0  0  0  0  0  0
   37.4790   28.5080   40.4320 N   0  0  0  0  0  0  0  0  0  0  0  0
   36.5280   28.6510   39.4870 C   0  0  0  0  0  0  0  0  0  0  0  0
   35.9280   27.5630   38.9120 N   0  0  0  0  0  0  0  0  0  0  0  0
   35.8080   25.4750   38.8280 H   0  0  0  0  0  0  0  0  0  0  0  0
   37.5650   25.1150   40.5750 H   0  0  0  0  0  0  0  0  0  0  0  0
   36.1260   30.0160   39.0620 C   0  0  2  0  0  0  0  0  0  0  0  0
   36.8920   30.2970   37.8010 C   0  0  0  0  0  0  0  0  0  0  0  0
   38.0350   31.2110   37.9130 C   0  0  0  0  0  0  0  0  0  0  0  0
   37.5040   32.4850   38.5480 C   0  0  0  0  0  0  0  0  0  0  0  0
   37.0060   32.2730   39.9050 C   0  0  0  0  0  0  0  0  0  0  0  0
   36.3020   30.9840   40.1220 C   0  0  0  0  0  0  0  0  0  0  0  0
   35.0370   29.9350   38.8290 H   0  0  0  0  0  0  0  0  0  0  0  0
   37.2580   29.3580   37.3070 H   0  0  0  0  0  0  0  0  0  0  0  0
   36.1790   30.7250   37.0600 H   0  0  0  0  0  0  0  0  0  0  0  0
   38.3440   31.5000   36.8870 H   0  0  0  0  0  0  0  0  0  0  0  0
   38.9010   30.8100   38.4740 H   0  0  0  0  0  0  0  0  0  0  0  0
   38.3710   33.1470   38.6390 H   0  0  0  0  0  0  0  0  0  0  0  0
   36.7000   32.8810   37.9190 H   0  0  0  0  0  0  0  0  0  0  0  0
   37.0440   32.8620   40.7910 H   0  0  0  0  0  0  0  0  0  0  0  0
   35.7710   30.6620   41.4070 N   0  0  0  0  0  0  0  0  0  0  0  0
   34.7310   30.5960   41.4810 H   0  0  0  0  0  0  0  0  0  0  0  0
   36.4730   30.5130   42.1890 H   0  0  0  0  0  0  0  0  0  0  0  0
   38.9030   27.1080   41.8710 C   0  0  0  0  0  0  0  0  0  0  0  0
   38.8990   25.9660   42.6030 C   0  0  0  0  0  0  0  0  0  0  0  0
   39.9090   25.8480   43.5770 C   0  0  0  0  0  0  0  0  0  0  0  0
   40.7890   26.9020   43.6800 C   0  0  0  0  0  0  0  0  0  0  0  0
   40.7940   28.0430   42.9480 C   0  0  0  0  0  0  0  0  0  0  0  0
   39.7870   28.0850   42.0260 N   0  0  0  0  0  0  0  0  0  0  0  0
   38.1930   25.1500   42.5010 H   0  0  0  0  0  0  0  0  0  0  0  0
   40.0060   24.9940   44.2130 H   0  0  0  0  0  0  0  0  0  0  0  0
   41.5750   26.7980   44.4450 H   0  0  0  0  0  0  0  0  0  0  0  0
   41.7550   29.1420   43.0950 C   0  0  0  0  0  0  0  0  0  0  0  0
   42.9930   28.8770   43.6000 C   0  0  0  0  0  0  0  0  0  0  0  0
   43.5530   28.0150   43.9680 H   0  0  0  0  0  0  0  0  0  0  0  0
   43.8360   30.5210   43.6010 S   0  0  0  0  0  0  0  0  0  0  0  0
   42.2640   31.3020   42.8760 C   0  0  0  0  0  0  0  0  0  0  0  0
   41.7680   32.3960   42.4870 H   0  0  0  0  0  0  0  0  0  0  0  0
   41.5920   30.4100   42.7960 N   0  0  0  0  0  0  0  0  0  0  0  0
  1  2  1  0  0  0  0
  2  8  1  0  0  0  0
  2  3  2  0  0  0  0
  3 26  1  0  0  0  0
  4  3  1  0  0  0  0
  5  4  2  0  0  0  0
  6  1  2  0  0  0  0
  6  5  1  0  0  0  0
  7  1  1  0  0  0  0
  9 15  1  6  0  0  0
  9  5  1  0  0  0  0
  9 14  1  0  0  0  0
 10 11  1  0  0  0  0
 10  9  1  0  0  0  0
 11 19  1  0  0  0  0
 11 12  1  0  0  0  0
 12 20  1  0  0  0  0
 12 13  1  0  0  0  0
 13 14  2  0  0  0  0
 13 22  1  0  0  0  0
 14 23  1  0  0  0  0
 16 10  1  0  0  0  0
 17 10  1  0  0  0  0
 18 11  1  0  0  0  0
 21 12  1  0  0  0  0
 23 24  1  0  0  0  0
 23 25  1  0  0  0  0
 26 31  2  0  0  0  0
 26 27  1  0  0  0  0
 27 28  2  0  0  0  0
 28 29  1  0  0  0  0
 28 33  1  0  0  0  0
 29 34  1  0  0  0  0
 30 35  1  0  0  0  0
 30 29  2  0  0  0  0
 31 30  1  0  0  0  0
 32 27  1  0  0  0  0
 35 36  2  0  0  0  0
 36 38  1  0  0  0  0
 36 37  1  0  0  0  0
 39 38  1  0  0  0  0
 40 39  1  0  0  0  0
 41 39  2  0  0  0  0
 41 35  1  0  0  0  0
M  END
>  <minimizedAffinity>
-5.88902664

$$$$

 OpenBabel03252505093D

 41 44  0  0  1  0  0  0  0  0999 V2000
   32.9250   26.7790   36.0510 C   0  0  0  0  0  0  0  0  0  0  0  0
   34.1210   27.2610   36.6310 C   0  0  0  0  0  0  0  0  0  0  0  0
   34.0890   28.5740   37.1850 C   0  0  0  0  0  0  0  0  0  0  0  0
   32.9360   29.2910   37.1320 N   0  0  0  0  0  0  0  0  0  0  0  0
   31.8220   28.7850   36.5660 C   0  0  0  0  0  0  0  0  0  0  0  0
   31.8080   27.5280   36.0240 N   0  0  0  0  0  0  0  0  0  0  0  0
   32.8980   25.7880   35.6170 H   0  0  0  0  0  0  0  0  0  0  0  0
   35.0140   26.6470   36.6460 H   0  0  0  0  0  0  0  0  0  0  0  0
   30.5870   29.6090   36.5310 C   0  0  2  0  0  0  0  0  0  0  0  0
   30.6090   30.3270   35.2120 C   0  0  0  0  0  0  0  0  0  0  0  0
   30.9590   31.7520   35.2420 C   0  0  0  0  0  0  0  0  0  0  0  0
   30.0050   32.4060   36.2270 C   0  0  0  0  0  0  0  0  0  0  0  0
   30.1740   31.9080   37.5900 C   0  0  0  0  0  0  0  0  0  0  0  0
   30.4730   30.4580   37.6970 C   0  0  0  0  0  0  0  0  0  0  0  0
   29.7490   28.8710   36.5430 H   0  0  0  0  0  0  0  0  0  0  0  0
   31.2840   29.8290   34.4680 H   0  0  0  0  0  0  0  0  0  0  0  0
   29.5960   30.2290   34.7570 H   0  0  0  0  0  0  0  0  0  0  0  0
   30.7050   32.1870   34.2530 H   0  0  0  0  0  0  0  0  0  0  0  0
   32.0150   31.9690   35.4950 H   0  0  0  0  0  0  0  0  0  0  0  0
   30.2910   33.4630   36.2490 H   0  0  0  0  0  0  0  0  0  0  0  0
   28.9780   32.2260   35.8940 H   0  0  0  0  0  0  0  0  0  0  0  0
   30.1250   32.3780   38.5440 H   0  0  0  0  0  0  0  0  0  0  0  0
   30.6580   29.8540   38.9760 N   0  0  0  0  0  0  0  0  0  0  0  0
   29.9420   29.1530   39.2720 H   0  0  0  0  0  0  0  0  0  0  0  0
   31.5110   30.1610   39.5290 H   0  0  0  0  0  0  0  0  0  0  0  0
   35.3000   29.1050   37.7930 C   0  0  0  0  0  0  0  0  0  0  0  0
   36.0940   29.9160   37.0500 C   0  0  0  0  0  0  0  0  0  0  0  0
   37.2520   30.4030   37.6840 C   0  0  0  0  0  0  0  0  0  0  0  0
   37.4540   30.0040   38.9860 C   0  0  0  0  0  0  0  0  0  0  0  0
   36.6620   29.1940   39.7300 C   0  0  0  0  0  0  0  0  0  0  0  0
   35.5590   28.7630   39.0490 N   0  0  0  0  0  0  0  0  0  0  0  0
   35.9110   30.2160   36.0240 H   0  0  0  0  0  0  0  0  0  0  0  0
   37.9520   31.0500   37.1980 H   0  0  0  0  0  0  0  0  0  0  0  0
   38.3640   30.3930   39.4710 H   0  0  0  0  0  0  0  0  0  0  0  0
   36.9190   28.7960   41.1180 C   0  0  0  0  0  0  0  0  0  0  0  0
   37.6440   29.6250   41.9220 C   0  0  0  0  0  0  0  0  0  0  0  0
   38.1450   30.5910   41.8510 H   0  0  0  0  0  0  0  0  0  0  0  0
   37.7110   28.7320   43.5380 S   0  0  0  0  0  0  0  0  0  0  0  0
   36.6870   27.3250   42.7780 C   0  0  0  0  0  0  0  0  0  0  0  0
   36.1650   26.2040   43.0340 H   0  0  0  0  0  0  0  0  0  0  0  0
   36.5360   27.7020   41.7340 N   0  0  0  0  0  0  0  0  0  0  0  0
  1  2  1  0  0  0  0
  2  8  1  0  0  0  0
  2  3  2  0  0  0  0
  3 26  1  0  0  0  0
  4  3  1  0  0  0  0
  5  4  2  0  0  0  0
  6  1  2  0  0  0  0
  6  5  1  0  0  0  0
  7  1  1  0  0  0  0
  9 15  1  6  0  0  0
  9  5  1  0  0  0  0
  9 14  1  0  0  0  0
 10 11  1  0  0  0  0
 10  9  1  0  0  0  0
 11 19  1  0  0  0  0
 11 12  1  0  0  0  0
 12 20  1  0  0  0  0
 12 13  1  0  0  0  0
 13 14  2  0  0  0  0
 13 22  1  0  0  0  0
 14 23  1  0  0  0  0
 16 10  1  0  0  0  0
 17 10  1  0  0  0  0
 18 11  1  0  0  0  0
 21 12  1  0  0  0  0
 23 24  1  0  0  0  0
 23 25  1  0  0  0  0
 26 31  1  0  0  0  0
 27 28  1  0  0  0  0
 27 26  2  0  0  0  0
 28 29  2  0  0  0  0
 29 34  1  0  0  0  0
 29 30  1  0  0  0  0
 30 35  1  0  0  0  0
 31 30  2  0  0  0  0
 32 27  1  0  0  0  0
 33 28  1  0  0  0  0
 35 41  1  0  0  0  0
 35 36  2  0  0  0  0
 36 38  1  0  0  0  0
 37 36  1  0  0  0  0
 39 40  1  0  0  0  0
 39 38  1  0  0  0  0
 41 39  2  0  0  0  0
M  END
>  <minimizedAffinity>
-5.86040688

$$$$

 OpenBabel03252505093D

 41 44  0  0  1  0  0  0  0  0999 V2000
   35.1620   27.8580   37.5450 C   0  0  0  0  0  0  0  0  0  0  0  0
   35.7210   26.8710   38.3890 C   0  0  0  0  0  0  0  0  0  0  0  0
   36.5980   27.3190   39.4190 C   0  0  0  0  0  0  0  0  0  0  0  0
   36.8560   28.6470   39.5420 N   0  0  0  0  0  0  0  0  0  0  0  0
   36.2960   29.5490   38.7110 C   0  0  0  0  0  0  0  0  0  0  0  0
   35.4480   29.1620   37.7090 N   0  0  0  0  0  0  0  0  0  0  0  0
   34.4890   27.5680   36.7490 H   0  0  0  0  0  0  0  0  0  0  0  0
   35.4830   25.8230   38.2460 H   0  0  0  0  0  0  0  0  0  0  0  0
   36.6110   30.9910   38.8850 C   0  0  2  0  0  0  0  0  0  0  0  0
   37.7960   31.2630   38.0030 C   0  0  0  0  0  0  0  0  0  0  0  0
   39.0940   31.4130   38.6700 C   0  0  0  0  0  0  0  0  0  0  0  0
   38.9120   32.4930   39.7240 C   0  0  0  0  0  0  0  0  0  0  0  0
   37.9540   32.1140   40.7590 C   0  0  0  0  0  0  0  0  0  0  0  0
   36.7830   31.3390   40.2790 C   0  0  0  0  0  0  0  0  0  0  0  0
   35.7160   31.5290   38.4900 H   0  0  0  0  0  0  0  0  0  0  0  0
   37.9160   30.4890   37.2010 H   0  0  0  0  0  0  0  0  0  0  0  0
   37.5870   32.2000   37.4380 H   0  0  0  0  0  0  0  0  0  0  0  0
   39.8100   31.8370   37.9350 H   0  0  0  0  0  0  0  0  0  0  0  0
   39.5040   30.4830   39.1100 H   0  0  0  0  0  0  0  0  0  0  0  0
   39.8840   32.5790   40.2210 H   0  0  0  0  0  0  0  0  0  0  0  0
   38.5770   33.4110   39.2310 H   0  0  0  0  0  0  0  0  0  0  0  0
   37.9190   32.2810   41.8100 H   0  0  0  0  0  0  0  0  0  0  0  0
   35.7780   30.9110   41.1960 N   0  0  0  0  0  0  0  0  0  0  0  0
   34.8300   31.3370   41.0860 H   0  0  0  0  0  0  0  0  0  0  0  0
   36.0680   30.1920   41.9210 H   0  0  0  0  0  0  0  0  0  0  0  0
   37.1920   26.3320   40.3090 C   0  0  0  0  0  0  0  0  0  0  0  0
   36.5930   25.1200   40.4210 C   0  0  0  0  0  0  0  0  0  0  0  0
   37.2060   24.2020   41.2940 C   0  0  0  0  0  0  0  0  0  0  0  0
   38.3440   24.6330   41.9390 C   0  0  0  0  0  0  0  0  0  0  0  0
   38.9430   25.8440   41.8290 C   0  0  0  0  0  0  0  0  0  0  0  0
   38.2920   26.6790   40.9650 N   0  0  0  0  0  0  0  0  0  0  0  0
   35.6960   24.8060   39.8990 H   0  0  0  0  0  0  0  0  0  0  0  0
   36.8250   23.2170   41.4620 H   0  0  0  0  0  0  0  0  0  0  0  0
   38.8140   23.9050   42.6190 H   0  0  0  0  0  0  0  0  0  0  0  0
   40.1580   26.2580   42.5390 C   0  0  0  0  0  0  0  0  0  0  0  0
   40.3630   27.5820   42.7860 C   0  0  0  0  0  0  0  0  0  0  0  0
   39.8550   28.5310   42.6020 H   0  0  0  0  0  0  0  0  0  0  0  0
   41.9800   27.6250   43.6790 S   0  0  0  0  0  0  0  0  0  0  0  0
   42.0790   25.7340   43.5430 C   0  0  0  0  0  0  0  0  0  0  0  0
   42.7960   24.7370   43.8370 H   0  0  0  0  0  0  0  0  0  0  0  0
   41.1290   25.5020   42.9960 N   0  0  0  0  0  0  0  0  0  0  0  0
  1  6  2  0  0  0  0
  1  2  1  0  0  0  0
  2  3  2  0  0  0  0
  3  4  1  0  0  0  0
  3 26  1  0  0  0  0
  5  9  1  0  0  0  0
  5  4  2  0  0  0  0
  6  5  1  0  0  0  0
  7  1  1  0  0  0  0
  8  2  1  0  0  0  0
  9 15  1  6  0  0  0
  9 14  1  0  0  0  0
 10 11  1  0  0  0  0
 10  9  1  0  0  0  0
 11 19  1  0  0  0  0
 11 12  1  0  0  0  0
 12 20  1  0  0  0  0
 12 13  1  0  0  0  0
 13 22  1  0  0  0  0
 14 13  2  0  0  0  0
 14 23  1  0  0  0  0
 16 10  1  0  0  0  0
 17 10  1  0  0  0  0
 18 11  1  0  0  0  0
 21 12  1  0  0  0  0
 23 25  1  0  0  0  0
 24 23  1  0  0  0  0
 26 27  2  0  0  0  0
 26 31  1  0  0  0  0
 27 28  1  0  0  0  0
 28 33  1  0  0  0  0
 28 29  2  0  0  0  0
 29 34  1  0  0  0  0
 30 29  1  0  0  0  0
 30 35  1  0  0  0  0
 31 30  2  0  0  0  0
 32 27  1  0  0  0  0
 35 36  2  0  0  0  0
 35 41  1  0  0  0  0
 36 38  1  0  0  0  0
 37 36  1  0  0  0  0
 39 38  1  0  0  0  0
 39 40  1  0  0  0  0
 41 39  2  0  0  0  0
M  END
>  <minimizedAffinity>
-5.85475302

$$$$

 OpenBabel03252505093D

 41 44  0  0  1  0  0  0  0  0999 V2000
   35.8890   24.3250   38.8910 C   0  0  0  0  0  0  0  0  0  0  0  0
   36.0020   25.4860   38.0920 C   0  0  0  0  0  0  0  0  0  0  0  0
   36.5380   26.6510   38.7140 C   0  0  0  0  0  0  0  0  0  0  0  0
   36.9080   26.5980   40.0200 N   0  0  0  0  0  0  0  0  0  0  0  0
   36.7790   25.4640   40.7390 C   0  0  0  0  0  0  0  0  0  0  0  0
   36.2700   24.3230   40.1810 N   0  0  0  0  0  0  0  0  0  0  0  0
   35.4880   23.4150   38.4640 H   0  0  0  0  0  0  0  0  0  0  0  0
   35.6910   25.4740   37.0530 H   0  0  0  0  0  0  0  0  0  0  0  0
   37.1950   25.4580   42.1650 C   0  0  2  0  0  0  0  0  0  0  0  0
   37.2370   26.8990   42.5880 C   0  0  0  0  0  0  0  0  0  0  0  0
   38.5650   27.5080   42.7230 C   0  0  0  0  0  0  0  0  0  0  0  0
   39.3510   26.6170   43.6690 C   0  0  0  0  0  0  0  0  0  0  0  0
   39.5620   25.2750   43.1340 C   0  0  0  0  0  0  0  0  0  0  0  0
   38.4220   24.7180   42.3640 C   0  0  0  0  0  0  0  0  0  0  0  0
   36.3690   24.9320   42.7020 H   0  0  0  0  0  0  0  0  0  0  0  0
   36.6290   27.5580   41.9130 H   0  0  0  0  0  0  0  0  0  0  0  0
   36.7190   26.9770   43.5710 H   0  0  0  0  0  0  0  0  0  0  0  0
   38.4450   28.4730   43.2580 H   0  0  0  0  0  0  0  0  0  0  0  0
   39.1060   27.6650   41.7700 H   0  0  0  0  0  0  0  0  0  0  0  0
   40.3420   27.0770   43.7450 H   0  0  0  0  0  0  0  0  0  0  0  0
   38.8120   26.5530   44.6200 H   0  0  0  0  0  0  0  0  0  0  0  0
   40.3810   24.5970   43.1810 H   0  0  0  0  0  0  0  0  0  0  0  0
   38.5080   23.4140   41.7910 N   0  0  0  0  0  0  0  0  0  0  0  0
   37.8690   22.6860   42.1820 H   0  0  0  0  0  0  0  0  0  0  0  0
   39.2150   23.2820   41.0100 H   0  0  0  0  0  0  0  0  0  0  0  0
   36.6730   27.8660   37.9230 C   0  0  0  0  0  0  0  0  0  0  0  0
   36.3530   27.8170   36.6060 C   0  0  0  0  0  0  0  0  0  0  0  0
   36.5000   29.0180   35.8850 C   0  0  0  0  0  0  0  0  0  0  0  0
   36.9530   30.1080   36.5940 C   0  0  0  0  0  0  0  0  0  0  0  0
   37.2730   30.1580   37.9100 C   0  0  0  0  0  0  0  0  0  0  0  0
   37.1040   28.9570   38.5410 N   0  0  0  0  0  0  0  0  0  0  0  0
   35.9980   26.9430   36.0710 H   0  0  0  0  0  0  0  0  0  0  0  0
   36.2790   29.1000   34.8420 H   0  0  0  0  0  0  0  0  0  0  0  0
   37.0630   31.0410   36.0190 H   0  0  0  0  0  0  0  0  0  0  0  0
   37.7520   31.3470   38.6230 C   0  0  0  0  0  0  0  0  0  0  0  0
   39.0840   31.4720   38.8850 C   0  0  0  0  0  0  0  0  0  0  0  0
   40.0010   30.9060   38.7130 H   0  0  0  0  0  0  0  0  0  0  0  0
   39.2150   33.0840   39.7760 S   0  0  0  0  0  0  0  0  0  0  0  0
   37.3350   33.2980   39.6180 C   0  0  0  0  0  0  0  0  0  0  0  0
   36.3800   34.0760   39.8990 H   0  0  0  0  0  0  0  0  0  0  0  0
   37.0510   32.3630   39.0710 N   0  0  0  0  0  0  0  0  0  0  0  0
  1  6  1  0  0  0  0
  2  3  1  0  0  0  0
  2  1  2  0  0  0  0
  3  4  2  0  0  0  0
  4  5  1  0  0  0  0
  5  9  1  0  0  0  0
  6  5  2  0  0  0  0
  7  1  1  0  0  0  0
  8  2  1  0  0  0  0
  9 14  1  0  0  0  0
  9 10  1  0  0  0  0
  9 15  1  1  0  0  0
 10 11  1  0  0  0  0
 10 17  1  0  0  0  0
 11 18  1  0  0  0  0
 11 12  1  0  0  0  0
 12 20  1  0  0  0  0
 12 21  1  0  0  0  0
 13 22  1  0  0  0  0
 13 12  1  0  0  0  0
 14 13  2  0  0  0  0
 16 10  1  0  0  0  0
 19 11  1  0  0  0  0
 23 24  1  0  0  0  0
 23 14  1  0  0  0  0
 25 23  1  0  0  0  0
 26 31  1  0  0  0  0
 26  3  1  0  0  0  0
 27 26  2  0  0  0  0
 28 29  2  0  0  0  0
 28 27  1  0  0  0  0
 29 30  1  0  0  0  0
 30 31  2  0  0  0  0
 30 35  1  0  0  0  0
 32 27  1  0  0  0  0
 33 28  1  0  0  0  0
 34 29  1  0  0  0  0
 35 36  2  0  0  0  0
 35 41  1  0  0  0  0
 36 38  1  0  0  0  0
 37 36  1  0  0  0  0
 39 38  1  0  0  0  0
 39 40  1  0  0  0  0
 41 39  2  0  0  0  0
M  END
>  <minimizedAffinity>
-5.83510971

$$$$

 OpenBabel03252505093D

 41 44  0  0  1  0  0  0  0  0999 V2000
   38.1120   32.9290   40.1470 C   0  0  0  0  0  0  0  0  0  0  0  0
   37.3260   32.2080   39.2190 C   0  0  0  0  0  0  0  0  0  0  0  0
   37.1680   30.8100   39.4510 C   0  0  0  0  0  0  0  0  0  0  0  0
   37.7670   30.2430   40.5300 N   0  0  0  0  0  0  0  0  0  0  0  0
   38.5080   30.9760   41.3860 C   0  0  0  0  0  0  0  0  0  0  0  0
   38.6840   32.3210   41.2010 N   0  0  0  0  0  0  0  0  0  0  0  0
   38.2610   33.9920   40.0150 H   0  0  0  0  0  0  0  0  0  0  0  0
   36.8700   32.7100   38.3730 H   0  0  0  0  0  0  0  0  0  0  0  0
   39.1450   30.3090   42.5500 C   0  0  2  0  0  0  0  0  0  0  0  0
   40.5650   30.0390   42.1430 C   0  0  0  0  0  0  0  0  0  0  0  0
   40.9010   28.6520   41.8010 C   0  0  0  0  0  0  0  0  0  0  0  0
   40.4810   27.8040   42.9900 C   0  0  0  0  0  0  0  0  0  0  0  0
   39.0400   27.8370   43.2250 C   0  0  0  0  0  0  0  0  0  0  0  0
   38.3940   29.1510   42.9850 C   0  0  0  0  0  0  0  0  0  0  0  0
   39.1260   31.0730   43.3650 H   0  0  0  0  0  0  0  0  0  0  0  0
   40.8930   30.6860   41.2880 H   0  0  0  0  0  0  0  0  0  0  0  0
   41.2230   30.3570   42.9840 H   0  0  0  0  0  0  0  0  0  0  0  0
   42.0060   28.5680   41.7560 H   0  0  0  0  0  0  0  0  0  0  0  0
   40.4510   28.2800   40.8600 H   0  0  0  0  0  0  0  0  0  0  0  0
   40.7230   26.7730   42.7110 H   0  0  0  0  0  0  0  0  0  0  0  0
   41.0080   28.1630   43.8800 H   0  0  0  0  0  0  0  0  0  0  0  0
   38.3400   27.0990   43.5400 H   0  0  0  0  0  0  0  0  0  0  0  0
   36.9900   29.3090   43.1800 N   0  0  0  0  0  0  0  0  0  0  0  0
   36.6920   29.9390   43.9590 H   0  0  0  0  0  0  0  0  0  0  0  0
   36.3520   28.7750   42.5190 H   0  0  0  0  0  0  0  0  0  0  0  0
   36.3630   30.0340   38.5190 C   0  0  0  0  0  0  0  0  0  0  0  0
   35.4550   29.1610   39.0210 C   0  0  0  0  0  0  0  0  0  0  0  0
   34.7030   28.4350   38.0790 C   0  0  0  0  0  0  0  0  0  0  0  0
   34.9710   28.6880   36.7520 C   0  0  0  0  0  0  0  0  0  0  0  0
   35.8780   29.5600   36.2490 C   0  0  0  0  0  0  0  0  0  0  0  0
   36.5680   30.2270   37.2220 N   0  0  0  0  0  0  0  0  0  0  0  0
   35.2630   28.9810   40.0730 H   0  0  0  0  0  0  0  0  0  0  0  0
   33.9580   27.7200   38.3570 H   0  0  0  0  0  0  0  0  0  0  0  0
   34.3750   28.1140   36.0250 H   0  0  0  0  0  0  0  0  0  0  0  0
   36.1290   29.7960   34.8220 C   0  0  0  0  0  0  0  0  0  0  0  0
   36.1910   28.7310   33.9750 C   0  0  0  0  0  0  0  0  0  0  0  0
   36.1050   27.6440   34.0290 H   0  0  0  0  0  0  0  0  0  0  0  0
   36.5160   29.4920   32.3240 S   0  0  0  0  0  0  0  0  0  0  0  0
   36.5050   31.2080   33.1380 C   0  0  0  0  0  0  0  0  0  0  0  0
   36.6330   32.4400   32.8960 H   0  0  0  0  0  0  0  0  0  0  0  0
   36.3110   30.9420   34.2090 N   0  0  0  0  0  0  0  0  0  0  0  0
  1  6  1  0  0  0  0
  2  3  1  0  0  0  0
  2  1  2  0  0  0  0
  3  4  2  0  0  0  0
  4  5  1  0  0  0  0
  5  9  1  0  0  0  0
  6  5  2  0  0  0  0
  7  1  1  0  0  0  0
  8  2  1  0  0  0  0
  9 14  1  0  0  0  0
  9 15  1  1  0  0  0
 10  9  1  0  0  0  0
 10 17  1  0  0  0  0
 11 10  1  0  0  0  0
 11 12  1  0  0  0  0
 12 13  1  0  0  0  0
 12 21  1  0  0  0  0
 13 22  1  0  0  0  0
 14 23  1  0  0  0  0
 14 13  2  0  0  0  0
 16 10  1  0  0  0  0
 18 11  1  0  0  0  0
 19 11  1  0  0  0  0
 20 12  1  0  0  0  0
 23 24  1  0  0  0  0
 25 23  1  0  0  0  0
 26 27  1  0  0  0  0
 26  3  1  0  0  0  0
 27 32  1  0  0  0  0
 28 33  1  0  0  0  0
 28 27  2  0  0  0  0
 29 28  1  0  0  0  0
 30 29  2  0  0  0  0
 30 31  1  0  0  0  0
 31 26  2  0  0  0  0
 34 29  1  0  0  0  0
 35 30  1  0  0  0  0
 36 37  1  0  0  0  0
 36 35  2  0  0  0  0
 38 39  1  0  0  0  0
 38 36  1  0  0  0  0
 39 41  2  0  0  0  0
 40 39  1  0  0  0  0
 41 35  1  0  0  0  0
M  END
>  <minimizedAffinity>
-5.75072765

$$$$
