
 OpenBabel03252501433D

 43 46  0  0  0  0  0  0  0  0999 V2000
   39.0680   32.5560   38.8560 O   0  0  0  0  0  0  0  0  0  0  0  0
   39.0520   31.3880   41.5910 Cl  0  0  0  0  0  0  0  0  0  0  0  0
   38.6390   30.5740   40.0960 C   0  0  0  0  0  0  0  0  0  0  0  0
   38.6750   31.2060   38.8510 C   0  0  0  0  0  0  0  0  0  0  0  0
   38.3460   30.5270   37.7240 C   0  0  0  0  0  0  0  0  0  0  0  0
   37.9610   29.2010   37.7200 C   0  0  0  0  0  0  0  0  0  0  0  0
   37.9140   28.5340   38.9650 C   0  0  0  0  0  0  0  0  0  0  0  0
   37.4370   26.8470   39.0620 Cl  0  0  0  0  0  0  0  0  0  0  0  0
   38.2550   29.2530   40.0900 C   0  0  0  0  0  0  0  0  0  0  0  0
   38.4000   31.0910   36.8010 H   0  0  0  0  0  0  0  0  0  0  0  0
   37.7010   28.6780   36.8110 H   0  0  0  0  0  0  0  0  0  0  0  0
   35.9000   29.0680   41.4450 F   0  0  0  0  0  0  0  0  0  0  0  0
   37.0010   28.4970   42.0430 C   0  0  0  0  0  0  0  0  0  0  0  0
   38.2110   28.5740   41.3800 C   0  0  0  0  0  0  0  0  0  0  0  0
   39.3040   27.9820   42.0190 C   0  0  0  0  0  0  0  0  0  0  0  0
   39.1110   27.3700   43.2480 C   0  0  0  0  0  0  0  0  0  0  0  0
   37.8640   27.3260   43.8640 C   0  0  0  0  0  0  0  0  0  0  0  0
   36.7550   27.9040   43.2590 C   0  0  0  0  0  0  0  0  0  0  0  0
   40.2380   28.0460   41.4990 H   0  0  0  0  0  0  0  0  0  0  0  0
   40.0090   26.9290   43.6860 H   0  0  0  0  0  0  0  0  0  0  0  0
   37.7810   26.8370   44.8140 H   0  0  0  0  0  0  0  0  0  0  0  0
   35.7840   27.8890   43.7010 H   0  0  0  0  0  0  0  0  0  0  0  0
   40.4380   32.8310   38.8830 C   0  0  0  0  0  0  0  0  0  0  0  0
   41.4100   31.9870   38.8310 O   0  0  0  0  0  0  0  0  0  0  0  0
   40.9000   34.1840   38.9790 N   0  0  0  0  0  0  0  0  0  0  0  0
   40.2820   34.9940   38.9970 H   0  0  0  0  0  0  0  0  0  0  0  0
   42.3470   34.1830   39.0430 C   0  0  0  0  0  0  0  0  0  0  0  0
   43.2030   34.2260   37.9880 C   0  0  0  0  0  0  0  0  0  0  0  0
   44.5490   34.2180   38.2600 C   0  0  0  0  0  0  0  0  0  0  0  0
   44.9320   34.1670   39.5660 N   0  0  0  0  0  0  0  0  0  0  0  0
   44.0570   34.1240   40.5810 C   0  0  0  0  0  0  0  0  0  0  0  0
   42.7320   34.1320   40.3310 N   0  0  0  0  0  0  0  0  0  0  0  0
   45.2390   34.2520   37.4270 H   0  0  0  0  0  0  0  0  0  0  0  0
   44.5960   34.0710   41.9570 C   0  0  0  0  0  0  0  0  0  0  0  0
   45.2960   35.1040   42.6010 C   0  0  0  0  0  0  0  0  0  0  0  0
   45.4780   36.0840   42.0250 H   0  0  0  0  0  0  0  0  0  0  0  0
   45.6480   34.3530   44.2500 S   0  0  0  0  0  0  0  0  0  0  0  0
   44.7670   32.7530   43.7530 C   0  0  0  0  0  0  0  0  0  0  0  0
   44.7010   31.9230   44.4560 H   0  0  0  0  0  0  0  0  0  0  0  0
   44.4360   32.9890   42.6940 N   0  0  0  0  0  0  0  0  0  0  0  0
   42.6320   34.2760   36.6960 N   0  0  0  0  0  0  0  0  0  0  0  0
   43.1230   33.8400   35.8610 H   0  0  0  0  0  0  0  0  0  0  0  0
   41.7280   34.7330   36.5240 H   0  0  0  0  0  0  0  0  0  0  0  0
  1 23  1  0  0  0  0
  3  2  1  0  0  0  0
  4  1  1  0  0  0  0
  4  3  2  0  0  0  0
  5  4  1  0  0  0  0
  6  5  2  0  0  0  0
  6  7  1  0  0  0  0
  7  8  1  0  0  0  0
  7  9  2  0  0  0  0
  9  3  1  0  0  0  0
  9 14  1  0  0  0  0
 10  5  1  0  0  0  0
 11  6  1  0  0  0  0
 12 13  1  0  0  0  0
 13 18  1  0  0  0  0
 14 15  1  0  0  0  0
 14 13  2  0  0  0  0
 15 16  2  0  0  0  0
 16 20  1  0  0  0  0
 16 17  1  0  0  0  0
 17 21  1  0  0  0  0
 18 22  1  0  0  0  0
 18 17  2  0  0  0  0
 19 15  1  0  0  0  0
 23 25  1  0  0  0  0
 24 23  2  0  0  0  0
 25 26  1  0  0  0  0
 25 27  1  0  0  0  0
 27 32  1  0  0  0  0
 28 29  1  0  0  0  0
 28 27  2  0  0  0  0
 29 30  2  0  0  0  0
 30 31  1  0  0  0  0
 31 34  1  0  0  0  0
 32 31  2  0  0  0  0
 33 29  1  0  0  0  0
 34 35  2  0  0  0  0
 34 40  1  0  0  0  0
 35 37  1  0  0  0  0
 36 35  1  0  0  0  0
 38 37  1  0  0  0  0
 38 39  1  0  0  0  0
 40 38  2  0  0  0  0
 41 28  1  0  0  0  0
 42 41  1  0  0  0  0
 43 41  1  0  0  0  0
M  END
>  <minimizedAffinity>
-6.95711708

$$$$

 OpenBabel03252501433D

 43 46  0  0  0  0  0  0  0  0999 V2000
   38.3230   30.5580   40.2730 O   0  0  0  0  0  0  0  0  0  0  0  0
   37.4860   27.8370   39.4090 Cl  0  0  0  0  0  0  0  0  0  0  0  0
   38.4150   28.2500   40.8360 C   0  0  0  0  0  0  0  0  0  0  0  0
   38.7640   29.5630   41.1630 C   0  0  0  0  0  0  0  0  0  0  0  0
   39.4850   29.8250   42.2810 C   0  0  0  0  0  0  0  0  0  0  0  0
   39.9170   28.8460   43.1550 C   0  0  0  0  0  0  0  0  0  0  0  0
   39.5800   27.5090   42.8500 C   0  0  0  0  0  0  0  0  0  0  0  0
   40.0830   26.1950   43.9010 Cl  0  0  0  0  0  0  0  0  0  0  0  0
   38.8470   27.2770   41.7070 C   0  0  0  0  0  0  0  0  0  0  0  0
   39.7120   30.8680   42.4610 H   0  0  0  0  0  0  0  0  0  0  0  0
   40.4910   29.0760   44.0410 H   0  0  0  0  0  0  0  0  0  0  0  0
   36.5480   26.2010   42.6950 F   0  0  0  0  0  0  0  0  0  0  0  0
   37.3190   25.3820   41.9010 C   0  0  0  0  0  0  0  0  0  0  0  0
   38.4920   25.8990   41.3840 C   0  0  0  0  0  0  0  0  0  0  0  0
   39.2460   25.0370   40.5840 C   0  0  0  0  0  0  0  0  0  0  0  0
   38.7820   23.7500   40.3620 C   0  0  0  0  0  0  0  0  0  0  0  0
   37.5900   23.2890   40.9130 C   0  0  0  0  0  0  0  0  0  0  0  0
   36.8140   24.1180   41.7150 C   0  0  0  0  0  0  0  0  0  0  0  0
   40.1530   25.4450   40.1860 H   0  0  0  0  0  0  0  0  0  0  0  0
   39.4230   23.1350   39.7270 H   0  0  0  0  0  0  0  0  0  0  0  0
   37.2870   22.2830   40.7030 H   0  0  0  0  0  0  0  0  0  0  0  0
   35.8950   23.7990   42.1520 H   0  0  0  0  0  0  0  0  0  0  0  0
   39.2580   31.5050   39.8490 C   0  0  0  0  0  0  0  0  0  0  0  0
   39.1280   32.7870   39.8350 O   0  0  0  0  0  0  0  0  0  0  0  0
   40.5370   31.0860   39.3560 N   0  0  0  0  0  0  0  0  0  0  0  0
   40.8400   30.1140   39.3210 H   0  0  0  0  0  0  0  0  0  0  0  0
   41.2840   32.2530   38.9360 C   0  0  0  0  0  0  0  0  0  0  0  0
   41.2130   32.8670   37.7250 C   0  0  0  0  0  0  0  0  0  0  0  0
   42.0070   33.9680   37.5220 C   0  0  0  0  0  0  0  0  0  0  0  0
   42.8090   34.3690   38.5470 N   0  0  0  0  0  0  0  0  0  0  0  0
   42.8520   33.7370   39.7290 C   0  0  0  0  0  0  0  0  0  0  0  0
   42.0790   32.6550   39.9450 N   0  0  0  0  0  0  0  0  0  0  0  0
   41.9580   34.4640   36.5610 H   0  0  0  0  0  0  0  0  0  0  0  0
   43.7640   34.2690   40.7650 C   0  0  0  0  0  0  0  0  0  0  0  0
   45.1670   34.2470   40.7080 C   0  0  0  0  0  0  0  0  0  0  0  0
   45.6700   33.7790   39.7860 H   0  0  0  0  0  0  0  0  0  0  0  0
   45.6240   35.0620   42.3000 S   0  0  0  0  0  0  0  0  0  0  0  0
   43.8000   35.2860   42.7550 C   0  0  0  0  0  0  0  0  0  0  0  0
   43.5250   35.7630   43.6940 H   0  0  0  0  0  0  0  0  0  0  0  0
   43.2800   34.8250   41.8580 N   0  0  0  0  0  0  0  0  0  0  0  0
   40.3250   32.3160   36.7740 N   0  0  0  0  0  0  0  0  0  0  0  0
   40.5270   32.3740   35.7330 H   0  0  0  0  0  0  0  0  0  0  0  0
   39.4580   31.8420   37.0580 H   0  0  0  0  0  0  0  0  0  0  0  0
  1  4  1  0  0  0  0
  2  3  1  0  0  0  0
  3  4  2  0  0  0  0
  3  9  1  0  0  0  0
  4  5  1  0  0  0  0
  5 10  1  0  0  0  0
  5  6  2  0  0  0  0
  6 11  1  0  0  0  0
  7  6  1  0  0  0  0
  7  8  1  0  0  0  0
  9  7  2  0  0  0  0
 13 12  1  0  0  0  0
 14  9  1  0  0  0  0
 14 13  2  0  0  0  0
 15 14  1  0  0  0  0
 16 15  2  0  0  0  0
 16 17  1  0  0  0  0
 17 18  2  0  0  0  0
 18 13  1  0  0  0  0
 18 22  1  0  0  0  0
 19 15  1  0  0  0  0
 20 16  1  0  0  0  0
 21 17  1  0  0  0  0
 23  1  1  0  0  0  0
 24 23  2  0  0  0  0
 25 23  1  0  0  0  0
 26 25  1  0  0  0  0
 27 25  1  0  0  0  0
 27 32  1  0  0  0  0
 28 27  2  0  0  0  0
 29 28  1  0  0  0  0
 29 30  2  0  0  0  0
 30 31  1  0  0  0  0
 31 32  2  0  0  0  0
 31 34  1  0  0  0  0
 33 29  1  0  0  0  0
 34 40  1  0  0  0  0
 35 34  2  0  0  0  0
 35 37  1  0  0  0  0
 36 35  1  0  0  0  0
 37 38  1  0  0  0  0
 38 39  1  0  0  0  0
 40 38  2  0  0  0  0
 41 43  1  0  0  0  0
 41 28  1  0  0  0  0
 42 41  1  0  0  0  0
M  END
>  <minimizedAffinity>
-6.91677761

$$$$

 OpenBabel03252501433D

 43 46  0  0  0  0  0  0  0  0999 V2000
   37.2200   29.6430   41.9510 O   0  0  0  0  0  0  0  0  0  0  0  0
   36.7600   27.5530   39.8850 Cl  0  0  0  0  0  0  0  0  0  0  0  0
   37.6720   27.3830   41.3710 C   0  0  0  0  0  0  0  0  0  0  0  0
   37.8360   28.4250   42.2870 C   0  0  0  0  0  0  0  0  0  0  0  0
   38.5520   28.2370   43.4230 C   0  0  0  0  0  0  0  0  0  0  0  0
   39.1560   27.0400   43.7520 C   0  0  0  0  0  0  0  0  0  0  0  0
   39.0090   25.9670   42.8460 C   0  0  0  0  0  0  0  0  0  0  0  0
   39.7400   24.4050   43.1770 Cl  0  0  0  0  0  0  0  0  0  0  0  0
   38.2750   26.1910   41.7010 C   0  0  0  0  0  0  0  0  0  0  0  0
   38.6300   29.0960   44.0780 H   0  0  0  0  0  0  0  0  0  0  0  0
   39.7240   26.9110   44.6620 H   0  0  0  0  0  0  0  0  0  0  0  0
   36.2240   24.4270   42.0140 F   0  0  0  0  0  0  0  0  0  0  0  0
   37.0640   24.2100   40.9450 C   0  0  0  0  0  0  0  0  0  0  0  0
   38.1150   25.0890   40.7580 C   0  0  0  0  0  0  0  0  0  0  0  0
   38.9450   24.8360   39.6630 C   0  0  0  0  0  0  0  0  0  0  0  0
   38.6690   23.7470   38.8500 C   0  0  0  0  0  0  0  0  0  0  0  0
   37.5920   22.8990   39.0920 C   0  0  0  0  0  0  0  0  0  0  0  0
   36.7470   23.1190   40.1730 C   0  0  0  0  0  0  0  0  0  0  0  0
   39.7560   25.5210   39.5260 H   0  0  0  0  0  0  0  0  0  0  0  0
   39.3590   23.6130   38.0150 H   0  0  0  0  0  0  0  0  0  0  0  0
   37.4330   22.0750   38.4260 H   0  0  0  0  0  0  0  0  0  0  0  0
   35.9120   22.4900   40.3870 H   0  0  0  0  0  0  0  0  0  0  0  0
   37.9360   30.5270   41.1390 C   0  0  0  0  0  0  0  0  0  0  0  0
   37.6430   30.9110   39.9450 O   0  0  0  0  0  0  0  0  0  0  0  0
   39.1500   31.1210   41.6160 N   0  0  0  0  0  0  0  0  0  0  0  0
   39.5280   30.9670   42.5500 H   0  0  0  0  0  0  0  0  0  0  0  0
   39.7130   31.9450   40.5660 C   0  0  0  0  0  0  0  0  0  0  0  0
   39.6090   33.2970   40.4550 C   0  0  0  0  0  0  0  0  0  0  0  0
   40.2200   33.8950   39.3810 C   0  0  0  0  0  0  0  0  0  0  0  0
   40.8850   33.0950   38.5030 N   0  0  0  0  0  0  0  0  0  0  0  0
   40.9650   31.7640   38.6450 C   0  0  0  0  0  0  0  0  0  0  0  0
   40.3720   31.1610   39.6940 N   0  0  0  0  0  0  0  0  0  0  0  0
   40.1430   34.9710   39.2830 H   0  0  0  0  0  0  0  0  0  0  0  0
   41.7170   31.0030   37.6240 C   0  0  0  0  0  0  0  0  0  0  0  0
   42.7830   31.4990   36.8560 C   0  0  0  0  0  0  0  0  0  0  0  0
   43.1140   32.5890   37.0180 H   0  0  0  0  0  0  0  0  0  0  0  0
   43.2200   30.0320   35.8230 S   0  0  0  0  0  0  0  0  0  0  0  0
   41.8560   29.0030   36.6380 C   0  0  0  0  0  0  0  0  0  0  0  0
   41.6990   27.9670   36.3380 H   0  0  0  0  0  0  0  0  0  0  0  0
   41.4090   29.7460   37.3680 N   0  0  0  0  0  0  0  0  0  0  0  0
   38.8800   33.9720   41.4600 N   0  0  0  0  0  0  0  0  0  0  0  0
   38.3420   34.8620   41.2440 H   0  0  0  0  0  0  0  0  0  0  0  0
   38.8450   33.6240   42.4260 H   0  0  0  0  0  0  0  0  0  0  0  0
  1  4  1  0  0  0  0
  2  3  1  0  0  0  0
  3  9  2  0  0  0  0
  3  4  1  0  0  0  0
  4  5  2  0  0  0  0
  5  6  1  0  0  0  0
  5 10  1  0  0  0  0
  6 11  1  0  0  0  0
  7  8  1  0  0  0  0
  7  6  2  0  0  0  0
  9  7  1  0  0  0  0
 13 12  1  0  0  0  0
 14 13  1  0  0  0  0
 14  9  1  0  0  0  0
 15 14  2  0  0  0  0
 16 17  2  0  0  0  0
 16 15  1  0  0  0  0
 17 18  1  0  0  0  0
 18 22  1  0  0  0  0
 18 13  2  0  0  0  0
 19 15  1  0  0  0  0
 20 16  1  0  0  0  0
 21 17  1  0  0  0  0
 23 25  1  0  0  0  0
 23  1  1  0  0  0  0
 24 23  2  0  0  0  0
 25 26  1  0  0  0  0
 27 25  1  0  0  0  0
 28 27  1  0  0  0  0
 28 41  1  0  0  0  0
 29 28  2  0  0  0  0
 30 31  2  0  0  0  0
 30 29  1  0  0  0  0
 31 32  1  0  0  0  0
 32 27  2  0  0  0  0
 33 29  1  0  0  0  0
 34 31  1  0  0  0  0
 35 36  1  0  0  0  0
 35 34  2  0  0  0  0
 37 38  1  0  0  0  0
 37 35  1  0  0  0  0
 38 40  2  0  0  0  0
 39 38  1  0  0  0  0
 40 34  1  0  0  0  0
 41 43  1  0  0  0  0
 42 41  1  0  0  0  0
M  END
>  <minimizedAffinity>
-6.88020134

$$$$

 OpenBabel03252501433D

 43 46  0  0  0  0  0  0  0  0999 V2000
   36.6630   31.0520   40.9880 O   0  0  0  0  0  0  0  0  0  0  0  0
   38.0610   28.8300   42.3860 Cl  0  0  0  0  0  0  0  0  0  0  0  0
   37.0930   28.7150   40.9300 C   0  0  0  0  0  0  0  0  0  0  0  0
   36.4700   29.8180   40.3420 C   0  0  0  0  0  0  0  0  0  0  0  0
   35.7320   29.6710   39.2140 C   0  0  0  0  0  0  0  0  0  0  0  0
   35.5440   28.4590   38.5810 C   0  0  0  0  0  0  0  0  0  0  0  0
   36.1600   27.3240   39.1520 C   0  0  0  0  0  0  0  0  0  0  0  0
   35.9800   25.7390   38.4180 Cl  0  0  0  0  0  0  0  0  0  0  0  0
   36.9040   27.5080   40.2970 C   0  0  0  0  0  0  0  0  0  0  0  0
   35.2840   30.5760   38.8240 H   0  0  0  0  0  0  0  0  0  0  0  0
   34.9500   28.3630   37.6830 H   0  0  0  0  0  0  0  0  0  0  0  0
   39.4410   26.8370   39.5690 F   0  0  0  0  0  0  0  0  0  0  0  0
   38.8350   26.0290   40.5040 C   0  0  0  0  0  0  0  0  0  0  0  0
   37.5470   26.3430   40.8960 C   0  0  0  0  0  0  0  0  0  0  0  0
   36.9670   25.4990   41.8460 C   0  0  0  0  0  0  0  0  0  0  0  0
   37.7010   24.4260   42.3270 C   0  0  0  0  0  0  0  0  0  0  0  0
   38.9970   24.1630   41.8920 C   0  0  0  0  0  0  0  0  0  0  0  0
   39.6060   24.9800   40.9470 C   0  0  0  0  0  0  0  0  0  0  0  0
   35.9690   25.7500   42.1440 H   0  0  0  0  0  0  0  0  0  0  0  0
   37.1840   23.8120   43.0670 H   0  0  0  0  0  0  0  0  0  0  0  0
   39.5110   23.3180   42.3030 H   0  0  0  0  0  0  0  0  0  0  0  0
   40.5970   24.8090   40.5920 H   0  0  0  0  0  0  0  0  0  0  0  0
   37.6560   31.8970   40.4840 C   0  0  0  0  0  0  0  0  0  0  0  0
   37.6060   32.6220   39.4200 O   0  0  0  0  0  0  0  0  0  0  0  0
   38.9060   32.0310   41.1720 N   0  0  0  0  0  0  0  0  0  0  0  0
   39.1220   31.5630   42.0520 H   0  0  0  0  0  0  0  0  0  0  0  0
   39.7660   32.9160   40.4150 C   0  0  0  0  0  0  0  0  0  0  0  0
   39.7670   34.2760   40.4590 C   0  0  0  0  0  0  0  0  0  0  0  0
   40.6670   34.9370   39.6600 C   0  0  0  0  0  0  0  0  0  0  0  0
   41.4950   34.1870   38.8820 N   0  0  0  0  0  0  0  0  0  0  0  0
   41.4630   32.8460   38.8650 C   0  0  0  0  0  0  0  0  0  0  0  0
   40.5860   32.1820   39.6430 N   0  0  0  0  0  0  0  0  0  0  0  0
   40.6770   36.0190   39.6880 H   0  0  0  0  0  0  0  0  0  0  0  0
   42.4130   32.1430   37.9750 C   0  0  0  0  0  0  0  0  0  0  0  0
   43.8020   32.3490   37.9360 C   0  0  0  0  0  0  0  0  0  0  0  0
   44.2590   33.1280   38.6480 H   0  0  0  0  0  0  0  0  0  0  0  0
   44.3250   31.1580   36.6270 S   0  0  0  0  0  0  0  0  0  0  0  0
   42.5370   30.5920   36.3710 C   0  0  0  0  0  0  0  0  0  0  0  0
   42.3060   29.8260   35.6320 H   0  0  0  0  0  0  0  0  0  0  0  0
   41.9810   31.2330   37.1240 N   0  0  0  0  0  0  0  0  0  0  0  0
   38.8390   34.8930   41.3270 N   0  0  0  0  0  0  0  0  0  0  0  0
   38.4240   35.8450   41.1010 H   0  0  0  0  0  0  0  0  0  0  0  0
   38.5350   34.4430   42.2000 H   0  0  0  0  0  0  0  0  0  0  0  0
  3  2  1  0  0  0  0
  4  3  1  0  0  0  0
  4  1  1  0  0  0  0
  5  4  2  0  0  0  0
  6  7  2  0  0  0  0
  6  5  1  0  0  0  0
  7  9  1  0  0  0  0
  8  7  1  0  0  0  0
  9 14  1  0  0  0  0
  9  3  2  0  0  0  0
 10  5  1  0  0  0  0
 11  6  1  0  0  0  0
 12 13  1  0  0  0  0
 13 14  2  0  0  0  0
 13 18  1  0  0  0  0
 14 15  1  0  0  0  0
 15 19  1  0  0  0  0
 15 16  2  0  0  0  0
 16 20  1  0  0  0  0
 17 21  1  0  0  0  0
 17 16  1  0  0  0  0
 18 17  2  0  0  0  0
 22 18  1  0  0  0  0
 23  1  1  0  0  0  0
 23 25  1  0  0  0  0
 24 23  2  0  0  0  0
 25 26  1  0  0  0  0
 27 28  1  0  0  0  0
 27 25  1  0  0  0  0
 28 41  1  0  0  0  0
 29 33  1  0  0  0  0
 29 28  2  0  0  0  0
 30 29  1  0  0  0  0
 31 30  2  0  0  0  0
 31 32  1  0  0  0  0
 32 27  2  0  0  0  0
 34 31  1  0  0  0  0
 35 34  2  0  0  0  0
 35 36  1  0  0  0  0
 37 35  1  0  0  0  0
 38 37  1  0  0  0  0
 38 40  2  0  0  0  0
 39 38  1  0  0  0  0
 40 34  1  0  0  0  0
 41 43  1  0  0  0  0
 42 41  1  0  0  0  0
M  END
>  <minimizedAffinity>
-6.8127718

$$$$

 OpenBabel03252501433D

 43 46  0  0  0  0  0  0  0  0999 V2000
   37.3090   29.3620   41.9360 O   0  0  0  0  0  0  0  0  0  0  0  0
   36.9290   27.2940   39.8320 Cl  0  0  0  0  0  0  0  0  0  0  0  0
   37.8050   27.1150   41.3380 C   0  0  0  0  0  0  0  0  0  0  0  0
   37.9320   28.1470   42.2710 C   0  0  0  0  0  0  0  0  0  0  0  0
   38.6220   27.9530   43.4220 C   0  0  0  0  0  0  0  0  0  0  0  0
   39.2330   26.7590   43.7510 C   0  0  0  0  0  0  0  0  0  0  0  0
   39.1230   25.6970   42.8260 C   0  0  0  0  0  0  0  0  0  0  0  0
   39.8650   24.1400   43.1550 Cl  0  0  0  0  0  0  0  0  0  0  0  0
   38.4150   25.9270   41.6670 C   0  0  0  0  0  0  0  0  0  0  0  0
   38.6720   28.8040   44.0900 H   0  0  0  0  0  0  0  0  0  0  0  0
   39.7800   26.6250   44.6730 H   0  0  0  0  0  0  0  0  0  0  0  0
   36.2890   24.2310   41.8040 F   0  0  0  0  0  0  0  0  0  0  0  0
   37.2020   23.9920   40.8020 C   0  0  0  0  0  0  0  0  0  0  0  0
   38.2930   24.8360   40.7060 C   0  0  0  0  0  0  0  0  0  0  0  0
   39.1980   24.5610   39.6770 C   0  0  0  0  0  0  0  0  0  0  0  0
   38.9500   23.4870   38.8370 C   0  0  0  0  0  0  0  0  0  0  0  0
   37.8310   22.6740   38.9860 C   0  0  0  0  0  0  0  0  0  0  0  0
   36.9110   22.9160   39.9990 C   0  0  0  0  0  0  0  0  0  0  0  0
   40.0400   25.2200   39.6090 H   0  0  0  0  0  0  0  0  0  0  0  0
   39.6990   23.3340   38.0570 H   0  0  0  0  0  0  0  0  0  0  0  0
   37.6980   21.8590   38.3040 H   0  0  0  0  0  0  0  0  0  0  0  0
   36.0410   22.3140   40.1430 H   0  0  0  0  0  0  0  0  0  0  0  0
   38.1200   30.3920   41.4510 C   0  0  0  0  0  0  0  0  0  0  0  0
   38.8980   31.1640   42.1280 O   0  0  0  0  0  0  0  0  0  0  0  0
   38.1470   30.6900   40.0500 N   0  0  0  0  0  0  0  0  0  0  0  0
   37.6240   30.1660   39.3490 H   0  0  0  0  0  0  0  0  0  0  0  0
   39.0180   31.8260   39.8280 C   0  0  0  0  0  0  0  0  0  0  0  0
   38.6850   33.1380   39.9550 C   0  0  0  0  0  0  0  0  0  0  0  0
   39.6610   34.0690   39.6990 C   0  0  0  0  0  0  0  0  0  0  0  0
   40.8920   33.6150   39.3380 N   0  0  0  0  0  0  0  0  0  0  0  0
   41.1830   32.3110   39.2220 C   0  0  0  0  0  0  0  0  0  0  0  0
   40.2370   31.3830   39.4690 N   0  0  0  0  0  0  0  0  0  0  0  0
   39.4060   35.1170   39.7980 H   0  0  0  0  0  0  0  0  0  0  0  0
   42.5580   31.9420   38.8210 C   0  0  0  0  0  0  0  0  0  0  0  0
   42.9970   30.6460   38.5010 C   0  0  0  0  0  0  0  0  0  0  0  0
   42.2370   29.7840   38.5500 H   0  0  0  0  0  0  0  0  0  0  0  0
   44.7760   30.9350   38.1060 S   0  0  0  0  0  0  0  0  0  0  0  0
   44.5930   32.7880   38.4520 C   0  0  0  0  0  0  0  0  0  0  0  0
   45.4510   33.4510   38.3470 H   0  0  0  0  0  0  0  0  0  0  0  0
   43.4980   32.8630   38.7370 N   0  0  0  0  0  0  0  0  0  0  0  0
   37.3580   33.4310   40.3410 N   0  0  0  0  0  0  0  0  0  0  0  0
   36.8730   34.3180   40.0130 H   0  0  0  0  0  0  0  0  0  0  0  0
   36.8210   32.7990   40.9480 H   0  0  0  0  0  0  0  0  0  0  0  0
  1  4  1  0  0  0  0
  2  3  1  0  0  0  0
  3  9  2  0  0  0  0
  3  4  1  0  0  0  0
  4  5  2  0  0  0  0
  5  6  1  0  0  0  0
  5 10  1  0  0  0  0
  6 11  1  0  0  0  0
  7  8  1  0  0  0  0
  7  6  2  0  0  0  0
  9  7  1  0  0  0  0
 13 12  1  0  0  0  0
 14 13  1  0  0  0  0
 14  9  1  0  0  0  0
 15 14  2  0  0  0  0
 16 17  2  0  0  0  0
 16 15  1  0  0  0  0
 17 18  1  0  0  0  0
 18 22  1  0  0  0  0
 18 13  2  0  0  0  0
 19 15  1  0  0  0  0
 20 16  1  0  0  0  0
 21 17  1  0  0  0  0
 23  1  1  0  0  0  0
 23 24  2  0  0  0  0
 25 23  1  0  0  0  0
 26 25  1  0  0  0  0
 27 28  1  0  0  0  0
 27 25  1  0  0  0  0
 28 41  1  0  0  0  0
 29 33  1  0  0  0  0
 29 28  2  0  0  0  0
 30 29  1  0  0  0  0
 31 30  2  0  0  0  0
 31 32  1  0  0  0  0
 32 27  2  0  0  0  0
 34 31  1  0  0  0  0
 35 36  1  0  0  0  0
 35 34  2  0  0  0  0
 37 38  1  0  0  0  0
 37 35  1  0  0  0  0
 38 40  2  0  0  0  0
 39 38  1  0  0  0  0
 40 34  1  0  0  0  0
 41 43  1  0  0  0  0
 42 41  1  0  0  0  0
M  END
>  <minimizedAffinity>
-6.44294214

$$$$

 OpenBabel03252501433D

 43 46  0  0  0  0  0  0  0  0999 V2000
   38.8620   29.0490   42.8840 O   0  0  0  0  0  0  0  0  0  0  0  0
   36.5040   27.7810   41.5890 Cl  0  0  0  0  0  0  0  0  0  0  0  0
   38.1760   27.2770   41.4560 C   0  0  0  0  0  0  0  0  0  0  0  0
   39.2230   27.9370   42.1040 C   0  0  0  0  0  0  0  0  0  0  0  0
   40.5000   27.5030   41.9660 C   0  0  0  0  0  0  0  0  0  0  0  0
   40.8540   26.4110   41.1990 C   0  0  0  0  0  0  0  0  0  0  0  0
   39.8170   25.7220   40.5310 C   0  0  0  0  0  0  0  0  0  0  0  0
   40.1670   24.3200   39.5340 Cl  0  0  0  0  0  0  0  0  0  0  0  0
   38.5310   26.1890   40.6920 C   0  0  0  0  0  0  0  0  0  0  0  0
   41.2510   28.0710   42.5000 H   0  0  0  0  0  0  0  0  0  0  0  0
   41.8780   26.0810   41.1010 H   0  0  0  0  0  0  0  0  0  0  0  0
   37.3040   24.0820   41.9060 F   0  0  0  0  0  0  0  0  0  0  0  0
   36.8490   24.4190   40.6510 C   0  0  0  0  0  0  0  0  0  0  0  0
   37.4520   25.4840   40.0080 C   0  0  0  0  0  0  0  0  0  0  0  0
   36.9630   25.7950   38.7370 C   0  0  0  0  0  0  0  0  0  0  0  0
   35.9290   25.0350   38.2120 C   0  0  0  0  0  0  0  0  0  0  0  0
   35.3630   23.9730   38.9120 C   0  0  0  0  0  0  0  0  0  0  0  0
   35.8250   23.6340   40.1790 C   0  0  0  0  0  0  0  0  0  0  0  0
   37.4340   26.6210   38.2460 H   0  0  0  0  0  0  0  0  0  0  0  0
   35.5990   25.3360   37.2160 H   0  0  0  0  0  0  0  0  0  0  0  0
   34.5670   23.4250   38.4510 H   0  0  0  0  0  0  0  0  0  0  0  0
   35.4150   22.8270   40.7440 H   0  0  0  0  0  0  0  0  0  0  0  0
   39.1480   30.3180   42.3730 C   0  0  0  0  0  0  0  0  0  0  0  0
   39.5990   31.3400   43.0140 O   0  0  0  0  0  0  0  0  0  0  0  0
   38.9430   30.5980   40.9830 N   0  0  0  0  0  0  0  0  0  0  0  0
   38.6230   29.9060   40.3060 H   0  0  0  0  0  0  0  0  0  0  0  0
   39.2620   31.9880   40.7310 C   0  0  0  0  0  0  0  0  0  0  0  0
   38.3760   32.9920   40.4980 C   0  0  0  0  0  0  0  0  0  0  0  0
   38.8820   34.2500   40.2820 C   0  0  0  0  0  0  0  0  0  0  0  0
   40.2340   34.4050   40.3180 N   0  0  0  0  0  0  0  0  0  0  0  0
   41.0780   33.3890   40.5500 C   0  0  0  0  0  0  0  0  0  0  0  0
   40.5980   32.1480   40.7640 N   0  0  0  0  0  0  0  0  0  0  0  0
   38.1840   35.0570   40.0960 H   0  0  0  0  0  0  0  0  0  0  0  0
   42.5270   33.6820   40.5630 C   0  0  0  0  0  0  0  0  0  0  0  0
   43.2430   34.2210   41.6450 C   0  0  0  0  0  0  0  0  0  0  0  0
   42.6700   34.4620   42.6130 H   0  0  0  0  0  0  0  0  0  0  0  0
   44.9550   34.3100   40.9610 S   0  0  0  0  0  0  0  0  0  0  0  0
   44.3750   33.5890   39.3090 C   0  0  0  0  0  0  0  0  0  0  0  0
   45.0870   33.4350   38.4990 H   0  0  0  0  0  0  0  0  0  0  0  0
   43.2670   33.4390   39.4980 N   0  0  0  0  0  0  0  0  0  0  0  0
   37.0040   32.6540   40.4980 N   0  0  0  0  0  0  0  0  0  0  0  0
   36.3090   33.1760   39.8870 H   0  0  0  0  0  0  0  0  0  0  0  0
   36.6360   31.8940   41.0850 H   0  0  0  0  0  0  0  0  0  0  0  0
  3  2  1  0  0  0  0
  3  4  1  0  0  0  0
  4  1  1  0  0  0  0
  5  4  2  0  0  0  0
  5 10  1  0  0  0  0
  6  5  1  0  0  0  0
  7  9  1  0  0  0  0
  7  6  2  0  0  0  0
  8  7  1  0  0  0  0
  9  3  2  0  0  0  0
 11  6  1  0  0  0  0
 13 12  1  0  0  0  0
 14 13  2  0  0  0  0
 14  9  1  0  0  0  0
 15 14  1  0  0  0  0
 16 15  2  0  0  0  0
 16 17  1  0  0  0  0
 17 18  2  0  0  0  0
 18 13  1  0  0  0  0
 18 22  1  0  0  0  0
 19 15  1  0  0  0  0
 20 16  1  0  0  0  0
 21 17  1  0  0  0  0
 23  1  1  0  0  0  0
 23 24  2  0  0  0  0
 25 23  1  0  0  0  0
 26 25  1  0  0  0  0
 27 32  1  0  0  0  0
 27 25  1  0  0  0  0
 28 27  2  0  0  0  0
 29 30  2  0  0  0  0
 29 28  1  0  0  0  0
 30 31  1  0  0  0  0
 31 34  1  0  0  0  0
 31 32  2  0  0  0  0
 33 29  1  0  0  0  0
 34 35  2  0  0  0  0
 35 36  1  0  0  0  0
 37 35  1  0  0  0  0
 38 40  2  0  0  0  0
 38 37  1  0  0  0  0
 39 38  1  0  0  0  0
 40 34  1  0  0  0  0
 41 28  1  0  0  0  0
 41 43  1  0  0  0  0
 42 41  1  0  0  0  0
M  END
>  <minimizedAffinity>
-6.43094063

$$$$

 OpenBabel03252501433D

 43 46  0  0  0  0  0  0  0  0999 V2000
   38.0270   31.1010   40.6680 O   0  0  0  0  0  0  0  0  0  0  0  0
   36.7070   30.8550   38.0140 Cl  0  0  0  0  0  0  0  0  0  0  0  0
   36.9810   29.5740   39.1770 C   0  0  0  0  0  0  0  0  0  0  0  0
   37.6130   29.7840   40.4050 C   0  0  0  0  0  0  0  0  0  0  0  0
   37.7990   28.7540   41.2680 C   0  0  0  0  0  0  0  0  0  0  0  0
   37.3930   27.4610   41.0080 C   0  0  0  0  0  0  0  0  0  0  0  0
   36.7510   27.2160   39.7730 C   0  0  0  0  0  0  0  0  0  0  0  0
   36.1960   25.6040   39.3530 Cl  0  0  0  0  0  0  0  0  0  0  0  0
   36.5770   28.2840   38.9200 C   0  0  0  0  0  0  0  0  0  0  0  0
   38.2970   29.0020   42.1970 H   0  0  0  0  0  0  0  0  0  0  0  0
   37.5510   26.6530   41.7090 H   0  0  0  0  0  0  0  0  0  0  0  0
   33.8800   28.5950   38.7130 F   0  0  0  0  0  0  0  0  0  0  0  0
   34.5440   28.2100   37.5710 C   0  0  0  0  0  0  0  0  0  0  0  0
   35.9140   28.0440   37.6420 C   0  0  0  0  0  0  0  0  0  0  0  0
   36.5520   27.6530   36.4620 C   0  0  0  0  0  0  0  0  0  0  0  0
   35.7890   27.4620   35.3200 C   0  0  0  0  0  0  0  0  0  0  0  0
   34.4100   27.6460   35.3130 C   0  0  0  0  0  0  0  0  0  0  0  0
   33.7420   28.0340   36.4680 C   0  0  0  0  0  0  0  0  0  0  0  0
   37.6130   27.5270   36.5260 H   0  0  0  0  0  0  0  0  0  0  0  0
   36.3560   27.1580   34.4370 H   0  0  0  0  0  0  0  0  0  0  0  0
   33.8780   27.4820   34.3970 H   0  0  0  0  0  0  0  0  0  0  0  0
   32.6860   28.1850   36.4990 H   0  0  0  0  0  0  0  0  0  0  0  0
   39.2100   31.5400   40.0680 C   0  0  0  0  0  0  0  0  0  0  0  0
   40.2940   30.8680   39.8830 O   0  0  0  0  0  0  0  0  0  0  0  0
   39.3130   32.8800   39.5720 N   0  0  0  0  0  0  0  0  0  0  0  0
   38.5490   33.5540   39.5960 H   0  0  0  0  0  0  0  0  0  0  0  0
   40.6490   33.0880   39.0540 C   0  0  0  0  0  0  0  0  0  0  0  0
   41.0680   32.8550   37.7810 C   0  0  0  0  0  0  0  0  0  0  0  0
   42.3830   33.1190   37.4860 C   0  0  0  0  0  0  0  0  0  0  0  0
   43.1740   33.5950   38.4860 N   0  0  0  0  0  0  0  0  0  0  0  0
   42.7250   33.8110   39.7310 C   0  0  0  0  0  0  0  0  0  0  0  0
   41.4370   33.5580   40.0380 N   0  0  0  0  0  0  0  0  0  0  0  0
   42.7260   32.9380   36.4760 H   0  0  0  0  0  0  0  0  0  0  0  0
   43.6820   34.3290   40.7320 C   0  0  0  0  0  0  0  0  0  0  0  0
   45.0800   34.3380   40.5990 C   0  0  0  0  0  0  0  0  0  0  0  0
   45.5400   33.9080   39.6360 H   0  0  0  0  0  0  0  0  0  0  0  0
   45.6080   35.1130   42.1890 S   0  0  0  0  0  0  0  0  0  0  0  0
   43.8080   35.2860   42.7480 C   0  0  0  0  0  0  0  0  0  0  0  0
   43.5760   35.7290   43.7160 H   0  0  0  0  0  0  0  0  0  0  0  0
   43.2480   34.8420   41.8670 N   0  0  0  0  0  0  0  0  0  0  0  0
   40.1100   32.3610   36.8670 N   0  0  0  0  0  0  0  0  0  0  0  0
   40.3920   31.7190   36.0690 H   0  0  0  0  0  0  0  0  0  0  0  0
   39.1150   32.6040   36.9460 H   0  0  0  0  0  0  0  0  0  0  0  0
  2  3  1  0  0  0  0
  3  4  1  0  0  0  0
  4  1  1  0  0  0  0
  4  5  2  0  0  0  0
  5 10  1  0  0  0  0
  6  5  1  0  0  0  0
  6 11  1  0  0  0  0
  7  6  2  0  0  0  0
  8  7  1  0  0  0  0
  9  3  2  0  0  0  0
  9  7  1  0  0  0  0
 13 14  1  0  0  0  0
 13 12  1  0  0  0  0
 14  9  1  0  0  0  0
 15 19  1  0  0  0  0
 15 14  2  0  0  0  0
 16 15  1  0  0  0  0
 17 16  2  0  0  0  0
 17 18  1  0  0  0  0
 18 22  1  0  0  0  0
 18 13  2  0  0  0  0
 20 16  1  0  0  0  0
 21 17  1  0  0  0  0
 23  1  1  0  0  0  0
 24 23  2  0  0  0  0
 25 26  1  0  0  0  0
 25 23  1  0  0  0  0
 27 25  1  0  0  0  0
 27 32  1  0  0  0  0
 28 27  2  0  0  0  0
 29 28  1  0  0  0  0
 29 30  2  0  0  0  0
 30 31  1  0  0  0  0
 31 32  2  0  0  0  0
 31 34  1  0  0  0  0
 33 29  1  0  0  0  0
 34 40  1  0  0  0  0
 35 34  2  0  0  0  0
 35 37  1  0  0  0  0
 36 35  1  0  0  0  0
 37 38  1  0  0  0  0
 38 39  1  0  0  0  0
 40 38  2  0  0  0  0
 41 43  1  0  0  0  0
 41 28  1  0  0  0  0
 42 41  1  0  0  0  0
M  END
>  <minimizedAffinity>
-6.16933775

$$$$

 OpenBabel03252501433D

 43 46  0  0  0  0  0  0  0  0999 V2000
   37.5650   29.8850   41.5610 O   0  0  0  0  0  0  0  0  0  0  0  0
   36.7300   27.6470   39.7880 Cl  0  0  0  0  0  0  0  0  0  0  0  0
   37.7160   27.5350   41.2310 C   0  0  0  0  0  0  0  0  0  0  0  0
   38.0600   28.6460   42.0060 C   0  0  0  0  0  0  0  0  0  0  0  0
   38.8270   28.5010   43.1140 C   0  0  0  0  0  0  0  0  0  0  0  0
   39.3120   27.2840   43.5500 C   0  0  0  0  0  0  0  0  0  0  0  0
   38.9810   26.1420   42.7880 C   0  0  0  0  0  0  0  0  0  0  0  0
   39.5500   24.5500   43.2630 Cl  0  0  0  0  0  0  0  0  0  0  0  0
   38.2000   26.3240   41.6670 C   0  0  0  0  0  0  0  0  0  0  0  0
   39.0470   29.4120   43.6570 H   0  0  0  0  0  0  0  0  0  0  0  0
   39.9220   27.1890   44.4370 H   0  0  0  0  0  0  0  0  0  0  0  0
   39.8660   25.4870   39.6810 F   0  0  0  0  0  0  0  0  0  0  0  0
   38.7180   24.7520   39.8720 C   0  0  0  0  0  0  0  0  0  0  0  0
   37.8520   25.1500   40.8730 C   0  0  0  0  0  0  0  0  0  0  0  0
   36.6990   24.3790   41.0350 C   0  0  0  0  0  0  0  0  0  0  0  0
   36.5000   23.2870   40.2040 C   0  0  0  0  0  0  0  0  0  0  0  0
   37.4130   22.9370   39.2130 C   0  0  0  0  0  0  0  0  0  0  0  0
   38.5700   23.6820   39.0220 C   0  0  0  0  0  0  0  0  0  0  0  0
   36.0330   24.6940   41.8130 H   0  0  0  0  0  0  0  0  0  0  0  0
   35.5780   22.7320   40.3900 H   0  0  0  0  0  0  0  0  0  0  0  0
   37.2010   22.0820   38.6030 H   0  0  0  0  0  0  0  0  0  0  0  0
   39.2920   23.4420   38.2730 H   0  0  0  0  0  0  0  0  0  0  0  0
   38.4040   30.6660   40.7620 C   0  0  0  0  0  0  0  0  0  0  0  0
   38.2600   31.9080   40.4510 O   0  0  0  0  0  0  0  0  0  0  0  0
   39.5840   30.0960   40.1820 N   0  0  0  0  0  0  0  0  0  0  0  0
   39.8870   29.1360   40.3410 H   0  0  0  0  0  0  0  0  0  0  0  0
   40.2370   31.0980   39.3650 C   0  0  0  0  0  0  0  0  0  0  0  0
   39.9510   31.3970   38.0690 C   0  0  0  0  0  0  0  0  0  0  0  0
   40.6870   32.3870   37.4670 C   0  0  0  0  0  0  0  0  0  0  0  0
   41.6510   33.0000   38.2080 N   0  0  0  0  0  0  0  0  0  0  0  0
   41.9050   32.6770   39.4850 C   0  0  0  0  0  0  0  0  0  0  0  0
   41.1910   31.7080   40.0910 N   0  0  0  0  0  0  0  0  0  0  0  0
   40.4680   32.6320   36.4360 H   0  0  0  0  0  0  0  0  0  0  0  0
   42.9780   33.4160   40.1850 C   0  0  0  0  0  0  0  0  0  0  0  0
   42.8900   33.9540   41.4790 C   0  0  0  0  0  0  0  0  0  0  0  0
   41.9070   33.8200   42.0610 H   0  0  0  0  0  0  0  0  0  0  0  0
   44.5600   34.7120   41.6880 S   0  0  0  0  0  0  0  0  0  0  0  0
   45.0760   34.1510   39.9560 C   0  0  0  0  0  0  0  0  0  0  0  0
   46.0720   34.3820   39.5800 H   0  0  0  0  0  0  0  0  0  0  0  0
   44.1410   33.6190   39.5960 N   0  0  0  0  0  0  0  0  0  0  0  0
   38.9160   30.6590   37.4510 N   0  0  0  0  0  0  0  0  0  0  0  0
   38.9340   30.4530   36.4090 H   0  0  0  0  0  0  0  0  0  0  0  0
   38.1160   30.3000   37.9880 H   0  0  0  0  0  0  0  0  0  0  0  0
  1  4  1  0  0  0  0
  2  3  1  0  0  0  0
  3  9  2  0  0  0  0
  3  4  1  0  0  0  0
  4  5  2  0  0  0  0
  5  6  1  0  0  0  0
  5 10  1  0  0  0  0
  6 11  1  0  0  0  0
  7  8  1  0  0  0  0
  7  6  2  0  0  0  0
  9  7  1  0  0  0  0
 12 13  1  0  0  0  0
 13 14  1  0  0  0  0
 14 15  2  0  0  0  0
 14  9  1  0  0  0  0
 15 19  1  0  0  0  0
 16 20  1  0  0  0  0
 16 15  1  0  0  0  0
 17 16  2  0  0  0  0
 18 17  1  0  0  0  0
 18 13  2  0  0  0  0
 21 17  1  0  0  0  0
 22 18  1  0  0  0  0
 23  1  1  0  0  0  0
 24 23  2  0  0  0  0
 25 26  1  0  0  0  0
 25 23  1  0  0  0  0
 27 32  1  0  0  0  0
 27 25  1  0  0  0  0
 28 27  2  0  0  0  0
 29 28  1  0  0  0  0
 29 30  2  0  0  0  0
 30 31  1  0  0  0  0
 31 32  2  0  0  0  0
 31 34  1  0  0  0  0
 33 29  1  0  0  0  0
 34 35  2  0  0  0  0
 35 37  1  0  0  0  0
 35 36  1  0  0  0  0
 38 37  1  0  0  0  0
 39 38  1  0  0  0  0
 40 38  2  0  0  0  0
 40 34  1  0  0  0  0
 41 43  1  0  0  0  0
 41 28  1  0  0  0  0
 42 41  1  0  0  0  0
M  END
>  <minimizedAffinity>
-6.1351037

$$$$

 OpenBabel03252501433D

 43 46  0  0  0  0  0  0  0  0999 V2000
   36.0010   29.3880   40.2410 O   0  0  0  0  0  0  0  0  0  0  0  0
   36.1160   27.2700   38.1560 Cl  0  0  0  0  0  0  0  0  0  0  0  0
   36.4710   27.0890   39.8620 C   0  0  0  0  0  0  0  0  0  0  0  0
   36.3900   28.1460   40.7720 C   0  0  0  0  0  0  0  0  0  0  0  0
   36.6760   27.9480   42.0830 C   0  0  0  0  0  0  0  0  0  0  0  0
   37.0580   26.7280   42.6030 C   0  0  0  0  0  0  0  0  0  0  0  0
   37.1490   25.6390   41.7070 C   0  0  0  0  0  0  0  0  0  0  0  0
   37.6260   24.0470   42.2740 Cl  0  0  0  0  0  0  0  0  0  0  0  0
   36.8520   25.8740   40.3820 C   0  0  0  0  0  0  0  0  0  0  0  0
   36.5880   28.8190   42.7200 H   0  0  0  0  0  0  0  0  0  0  0  0
   37.2820   26.5910   43.6510 H   0  0  0  0  0  0  0  0  0  0  0  0
   39.2000   25.3640   39.1010 F   0  0  0  0  0  0  0  0  0  0  0  0
   38.1480   24.5240   38.8140 C   0  0  0  0  0  0  0  0  0  0  0  0
   36.9420   24.7560   39.4480 C   0  0  0  0  0  0  0  0  0  0  0  0
   35.8990   23.8830   39.1310 C   0  0  0  0  0  0  0  0  0  0  0  0
   36.1330   22.8620   38.2220 C   0  0  0  0  0  0  0  0  0  0  0  0
   37.3730   22.6810   37.6170 C   0  0  0  0  0  0  0  0  0  0  0  0
   38.4330   23.5310   37.9080 C   0  0  0  0  0  0  0  0  0  0  0  0
   34.9680   24.0690   39.6270 H   0  0  0  0  0  0  0  0  0  0  0  0
   35.2720   22.2190   38.0240 H   0  0  0  0  0  0  0  0  0  0  0  0
   37.4890   21.8730   36.9230 H   0  0  0  0  0  0  0  0  0  0  0  0
   39.3970   23.4210   37.4630 H   0  0  0  0  0  0  0  0  0  0  0  0
   36.9840   30.3730   40.1150 C   0  0  0  0  0  0  0  0  0  0  0  0
   37.7720   30.5740   39.1170 O   0  0  0  0  0  0  0  0  0  0  0  0
   37.2050   31.3110   41.1770 N   0  0  0  0  0  0  0  0  0  0  0  0
   36.6560   31.3350   42.0360 H   0  0  0  0  0  0  0  0  0  0  0  0
   38.3050   32.1800   40.8140 C   0  0  0  0  0  0  0  0  0  0  0  0
   38.2220   33.3400   40.1100 C   0  0  0  0  0  0  0  0  0  0  0  0
   39.3880   34.0230   39.8690 C   0  0  0  0  0  0  0  0  0  0  0  0
   40.5450   33.4920   40.3520 N   0  0  0  0  0  0  0  0  0  0  0  0
   40.5880   32.3440   41.0430 C   0  0  0  0  0  0  0  0  0  0  0  0
   39.4530   31.6610   41.2880 N   0  0  0  0  0  0  0  0  0  0  0  0
   39.3330   34.9480   39.3090 H   0  0  0  0  0  0  0  0  0  0  0  0
   41.9070   31.8690   41.5150 C   0  0  0  0  0  0  0  0  0  0  0  0
   42.3780   30.5490   41.4340 C   0  0  0  0  0  0  0  0  0  0  0  0
   41.6940   29.7520   40.9640 H   0  0  0  0  0  0  0  0  0  0  0  0
   44.0530   30.6960   42.1960 S   0  0  0  0  0  0  0  0  0  0  0  0
   43.8010   32.5500   42.4870 C   0  0  0  0  0  0  0  0  0  0  0  0
   44.5850   33.1420   42.9570 H   0  0  0  0  0  0  0  0  0  0  0  0
   42.7590   32.7110   42.0680 N   0  0  0  0  0  0  0  0  0  0  0  0
   36.9370   33.7440   39.6840 N   0  0  0  0  0  0  0  0  0  0  0  0
   36.8030   34.2950   38.7860 H   0  0  0  0  0  0  0  0  0  0  0  0
   36.0930   33.5190   40.2280 H   0  0  0  0  0  0  0  0  0  0  0  0
  1  4  1  0  0  0  0
  2  3  1  0  0  0  0
  3  9  2  0  0  0  0
  3  4  1  0  0  0  0
  4  5  2  0  0  0  0
  5  6  1  0  0  0  0
  5 10  1  0  0  0  0
  6 11  1  0  0  0  0
  7  8  1  0  0  0  0
  7  6  2  0  0  0  0
  9  7  1  0  0  0  0
 13 12  1  0  0  0  0
 13 14  1  0  0  0  0
 14  9  1  0  0  0  0
 15 14  2  0  0  0  0
 15 19  1  0  0  0  0
 16 15  1  0  0  0  0
 17 18  1  0  0  0  0
 17 16  2  0  0  0  0
 18 13  2  0  0  0  0
 20 16  1  0  0  0  0
 21 17  1  0  0  0  0
 22 18  1  0  0  0  0
 23  1  1  0  0  0  0
 23 25  1  0  0  0  0
 24 23  2  0  0  0  0
 25 26  1  0  0  0  0
 27 25  1  0  0  0  0
 27 32  1  0  0  0  0
 28 27  2  0  0  0  0
 29 28  1  0  0  0  0
 29 30  2  0  0  0  0
 30 31  1  0  0  0  0
 31 32  2  0  0  0  0
 31 34  1  0  0  0  0
 33 29  1  0  0  0  0
 34 40  1  0  0  0  0
 35 34  2  0  0  0  0
 35 37  1  0  0  0  0
 36 35  1  0  0  0  0
 37 38  1  0  0  0  0
 38 39  1  0  0  0  0
 40 38  2  0  0  0  0
 41 28  1  0  0  0  0
 41 43  1  0  0  0  0
 42 41  1  0  0  0  0
M  END
>  <minimizedAffinity>
-6.06340408

$$$$
