
 OpenBabel03252506563D

 36 40  0  0  0  0  0  0  0  0999 V2000
   47.2320   31.3290   45.1700 C   0  0  0  0  0  0  0  0  0  0  0  0
   46.8920   32.6700   45.1190 C   0  0  0  0  0  0  0  0  0  0  0  0
   46.2980   33.3230   46.1710 C   0  0  0  0  0  0  0  0  0  0  0  0
   46.0120   32.6480   47.3460 C   0  0  0  0  0  0  0  0  0  0  0  0
   45.4490   32.9540   48.5500 N   0  0  0  0  0  0  0  0  0  0  0  0
   45.4420   31.8320   49.3230 C   0  0  0  0  0  0  0  0  0  0  0  0
   46.0020   30.8520   48.5800 N   0  0  0  0  0  0  0  0  0  0  0  0
   46.3590   31.3200   47.3690 C   0  0  0  0  0  0  0  0  0  0  0  0
   46.9480   30.6280   46.3570 C   0  0  0  0  0  0  0  0  0  0  0  0
   47.7000   30.8220   44.3360 H   0  0  0  0  0  0  0  0  0  0  0  0
   46.0360   34.3740   46.1190 H   0  0  0  0  0  0  0  0  0  0  0  0
   45.0960   33.9140   48.7890 H   0  0  0  0  0  0  0  0  0  0  0  0
   45.0490   31.7800   50.3430 H   0  0  0  0  0  0  0  0  0  0  0  0
   46.6170   35.1190   42.3870 C   0  0  0  0  0  0  0  0  0  0  0  0
   47.7290   34.8400   41.6090 C   0  0  0  0  0  0  0  0  0  0  0  0
   48.5770   33.8050   42.0230 C   0  0  0  0  0  0  0  0  0  0  0  0
   48.2680   33.1280   43.1700 N   0  0  0  0  0  0  0  0  0  0  0  0
   47.1720   33.4290   43.9040 C   0  0  0  0  0  0  0  0  0  0  0  0
   46.3490   34.4190   43.5170 N   0  0  0  0  0  0  0  0  0  0  0  0
   45.9430   35.9200   42.0830 H   0  0  0  0  0  0  0  0  0  0  0  0
   47.9220   35.4150   40.7060 H   0  0  0  0  0  0  0  0  0  0  0  0
   49.4560   33.5600   41.4390 H   0  0  0  0  0  0  0  0  0  0  0  0
   47.2810   29.2080   46.4820 C   0  0  0  0  0  0  0  0  0  0  0  0
   48.5360   28.6790   46.3190 C   0  0  0  0  0  0  0  0  0  0  0  0
   48.3380   27.3040   46.5350 C   0  0  0  0  0  0  0  0  0  0  0  0
   46.9940   27.0790   46.8120 C   0  0  0  0  0  0  0  0  0  0  0  0
   46.4350   28.2680   46.7590 O   0  0  0  0  0  0  0  0  0  0  0  0
   49.4380   29.1890   46.0870 H   0  0  0  0  0  0  0  0  0  0  0  0
   49.1100   26.5550   46.4910 H   0  0  0  0  0  0  0  0  0  0  0  0
   46.3300   25.7910   47.1020 C   0  0  0  0  0  0  0  0  0  0  0  0
   47.1810   24.6440   47.5430 C   0  0  0  0  0  0  0  0  0  0  0  0
   48.2090   24.6660   47.6670 H   0  0  0  0  0  0  0  0  0  0  0  0
   45.8090   23.3580   47.7430 S   0  0  0  0  0  0  0  0  0  0  0  0
   44.4550   24.5750   47.2190 C   0  0  0  0  0  0  0  0  0  0  0  0
   43.4180   24.2800   47.1740 H   0  0  0  0  0  0  0  0  0  0  0  0
   45.0310   25.6280   46.9860 N   0  0  0  0  0  0  0  0  0  0  0  0
  1  9  1  0  0  0  0
  2  1  2  0  0  0  0
  2  3  1  0  0  0  0
  3  4  2  0  0  0  0
  4  8  1  0  0  0  0
  4  5  1  0  0  0  0
  5 12  1  0  0  0  0
  5  6  1  0  0  0  0
  6 13  1  0  0  0  0
  7  6  2  0  0  0  0
  8  7  1  0  0  0  0
  9 23  1  0  0  0  0
  9  8  2  0  0  0  0
 10  1  1  0  0  0  0
 11  3  1  0  0  0  0
 14 19  1  0  0  0  0
 15 16  1  0  0  0  0
 15 14  2  0  0  0  0
 16 17  2  0  0  0  0
 17 18  1  0  0  0  0
 18  2  1  0  0  0  0
 19 18  2  0  0  0  0
 20 14  1  0  0  0  0
 21 15  1  0  0  0  0
 22 16  1  0  0  0  0
 23 27  1  0  0  0  0
 24 23  2  0  0  0  0
 24 25  1  0  0  0  0
 25 26  2  0  0  0  0
 26 30  1  0  0  0  0
 27 26  1  0  0  0  0
 28 24  1  0  0  0  0
 29 25  1  0  0  0  0
 30 31  2  0  0  0  0
 31 32  1  0  0  0  0
 31 33  1  0  0  0  0
 34 33  1  0  0  0  0
 35 34  1  0  0  0  0
 36 30  1  0  0  0  0
 36 34  2  0  0  0  0
M  END
>  <minimizedAffinity>
-5.52438354

>  <minimizedRMSD>
0.537566304

$$$$
