
 OpenBabel03252504413D

 43 46  0  0  0  0  0  0  0  0999 V2000
   46.3300   32.1070   47.9770 C   0  0  0  0  0  0  0  0  0  0  0  0
   45.8580   31.5290   49.1240 C   0  0  0  0  0  0  0  0  0  0  0  0
   46.8760   30.8200   49.6280 N   0  0  0  0  0  0  0  0  0  0  0  0
   47.9630   30.9260   48.8540 C   0  0  0  0  0  0  0  0  0  0  0  0
   47.6020   31.7410   47.8190 N   0  0  0  0  0  0  0  0  0  0  0  0
   49.2580   30.3680   48.9740 N   0  0  0  0  0  0  0  0  0  0  0  0
   50.2580   31.1060   49.7640 C   0  0  0  0  0  0  0  0  0  0  0  0
   50.3590   30.3370   51.0780 C   0  0  0  0  0  0  0  0  0  0  0  0
   50.5160   28.8620   50.8080 C   0  0  0  0  0  0  0  0  0  0  0  0
   50.9160   28.6380   49.3650 C   0  0  0  0  0  0  0  0  0  0  0  0
   49.8390   29.1560   48.4530 C   0  0  0  0  0  0  0  0  0  0  0  0
   44.8650   31.6090   49.5600 H   0  0  0  0  0  0  0  0  0  0  0  0
   46.8550   30.2510   50.5050 H   0  0  0  0  0  0  0  0  0  0  0  0
   51.2280   31.1570   49.2550 H   0  0  0  0  0  0  0  0  0  0  0  0
   49.9060   32.1380   49.9870 H   0  0  0  0  0  0  0  0  0  0  0  0
   49.5320   30.5860   51.7490 H   0  0  0  0  0  0  0  0  0  0  0  0
   51.2860   30.6450   51.6150 H   0  0  0  0  0  0  0  0  0  0  0  0
   49.5910   28.2920   51.0750 H   0  0  0  0  0  0  0  0  0  0  0  0
   51.3330   28.3890   51.4230 H   0  0  0  0  0  0  0  0  0  0  0  0
   51.0880   27.5380   49.2220 H   0  0  0  0  0  0  0  0  0  0  0  0
   51.8830   29.1350   49.2110 H   0  0  0  0  0  0  0  0  0  0  0  0
   50.1990   29.2750   47.4240 H   0  0  0  0  0  0  0  0  0  0  0  0
   49.0210   28.3810   48.4850 H   0  0  0  0  0  0  0  0  0  0  0  0
   45.5660   33.0010   47.0500 C   0  0  0  0  0  0  0  0  0  0  0  0
   45.3260   33.9770   47.5200 H   0  0  0  0  0  0  0  0  0  0  0  0
   44.5840   32.4860   46.8950 H   0  0  0  0  0  0  0  0  0  0  0  0
   45.8160   33.9450   44.7960 C   0  0  0  0  0  3  0  0  0  0  0  0
   46.3020   33.2230   45.7980 C   0  0  0  0  0  3  0  0  0  0  0  0
   46.6580   34.0880   43.6000 C   0  0  0  0  0  0  0  0  0  0  0  0
   46.4410   35.0760   42.6130 C   0  0  0  0  0  0  0  0  0  0  0  0
   47.2830   35.1330   41.5300 C   0  0  0  0  0  0  0  0  0  0  0  0
   48.2940   34.2460   41.4350 N   0  0  0  0  0  0  0  0  0  0  0  0
   48.4880   33.3080   42.3850 C   0  0  0  0  0  0  0  0  0  0  0  0
   47.6970   33.2230   43.4410 N   0  0  0  0  0  0  0  0  0  0  0  0
   45.6100   35.7450   42.7700 H   0  0  0  0  0  0  0  0  0  0  0  0
   47.1340   35.8820   40.7660 H   0  0  0  0  0  0  0  0  0  0  0  0
   49.5720   32.3000   42.3510 C   0  0  0  0  0  0  0  0  0  0  0  0
   50.9610   32.3360   41.7650 C   0  0  0  0  0  0  0  0  0  0  0  0
   51.0150   33.4550   41.2850 H   0  0  0  0  0  0  0  0  0  0  0  0
   51.4940   30.5880   42.2610 S   0  0  0  0  0  0  0  0  0  0  0  0
   49.8390   30.2090   43.0970 C   0  0  0  0  0  0  0  0  0  0  0  0
   49.9360   29.2030   43.4690 H   0  0  0  0  0  0  0  0  0  0  0  0
   49.0830   31.2370   42.9860 N   0  0  0  0  0  0  0  0  0  0  0  0
  1  2  2  0  0  0  0
  2 12  1  0  0  0  0
  2  3  1  0  0  0  0
  3 13  1  0  0  0  0
  4  6  1  0  0  0  0
  4  3  1  0  0  0  0
  5  1  1  0  0  0  0
  5  4  2  0  0  0  0
  6  7  1  0  0  0  0
  7 15  1  0  0  0  0
  7  8  1  0  0  0  0
  8 17  1  0  0  0  0
  8 16  1  0  0  0  0
  9 18  1  0  0  0  0
  9  8  1  0  0  0  0
  9 19  1  0  0  0  0
 10  9  1  0  0  0  0
 11 23  1  0  0  0  0
 11  6  1  0  0  0  0
 11 10  1  0  0  0  0
 14  7  1  0  0  0  0
 20 10  1  0  0  0  0
 21 10  1  0  0  0  0
 22 11  1  0  0  0  0
 24 25  1  0  0  0  0
 24  1  1  0  0  0  0
 26 24  1  0  0  0  0
 27 28  2  0  0  0  0
 28 24  1  0  0  0  0
 29 27  1  0  0  0  0
 30 35  1  0  0  0  0
 30 29  2  0  0  0  0
 31 30  1  0  0  0  0
 32 31  2  0  0  0  0
 32 33  1  0  0  0  0
 33 34  2  0  0  0  0
 34 29  1  0  0  0  0
 36 31  1  0  0  0  0
 37 33  1  0  0  0  0
 37 43  1  0  0  0  0
 38 40  1  0  0  0  0
 38 37  2  0  0  0  0
 39 38  1  0  0  0  0
 40 41  1  0  0  0  0
 41 42  1  0  0  0  0
 43 41  2  0  0  0  0
M  END
>  <minimizedAffinity>
-5.84719992

>  <minimizedRMSD>
0.763937175

$$$$
