
 OpenBabel03252509113D

 29 32  0  0  0  0  0  0  0  0999 V2000
   46.7950   33.1700   46.4730 C   0  0  0  0  0  0  0  0  0  0  0  0
   46.5270   32.7240   45.1880 C   0  0  0  0  0  0  0  0  0  0  0  0
   45.9110   31.5180   44.9420 C   0  0  0  0  0  0  0  0  0  0  0  0
   45.5290   30.6900   45.9970 C   0  0  0  0  0  0  0  0  0  0  0  0
   44.9240   29.4810   46.1170 N   0  0  0  0  0  0  0  0  0  0  0  0
   44.8150   29.1760   47.4330 C   0  0  0  0  0  0  0  0  0  0  0  0
   45.3640   30.2220   48.1170 N   0  0  0  0  0  0  0  0  0  0  0  0
   45.8060   31.1550   47.2580 C   0  0  0  0  0  0  0  0  0  0  0  0
   46.4180   32.3510   47.5450 C   0  0  0  0  0  0  0  0  0  0  0  0
   47.2840   34.1340   46.6040 H   0  0  0  0  0  0  0  0  0  0  0  0
   44.6210   28.9360   45.2780 H   0  0  0  0  0  0  0  0  0  0  0  0
   44.3580   28.2480   47.7420 H   0  0  0  0  0  0  0  0  0  0  0  0
   46.6260   32.6980   48.5490 H   0  0  0  0  0  0  0  0  0  0  0  0
   48.4770   34.1220   42.4080 C   0  0  0  0  0  0  0  0  0  0  0  0
   47.6250   35.1470   41.9370 C   0  0  0  0  0  0  0  0  0  0  0  0
   46.3800   35.3510   42.5810 C   0  0  0  0  0  0  0  0  0  0  0  0
   46.0920   34.5240   43.6340 N   0  0  0  0  0  0  0  0  0  0  0  0
   46.9100   33.5600   44.0640 C   0  0  0  0  0  0  0  0  0  0  0  0
   48.0970   33.3620   43.4520 N   0  0  0  0  0  0  0  0  0  0  0  0
   49.4360   33.9310   41.9460 H   0  0  0  0  0  0  0  0  0  0  0  0
   47.9250   35.7570   41.1020 H   0  0  0  0  0  0  0  0  0  0  0  0
   45.7130   36.1180   42.2510 H   0  0  0  0  0  0  0  0  0  0  0  0
   45.6210   31.0300   43.5860 C   0  0  0  0  0  0  0  0  0  0  0  0
   44.5220   31.4290   42.8210 C   0  0  0  0  0  0  0  0  0  0  0  0
   43.7960   32.1460   43.1960 H   0  0  0  0  0  0  0  0  0  0  0  0
   44.7230   30.4930   41.2880 S   0  0  0  0  0  0  0  0  0  0  0  0
   46.3280   29.6790   41.9560 C   0  0  0  0  0  0  0  0  0  0  0  0
   47.0430   28.9080   41.4650 H   0  0  0  0  0  0  0  0  0  0  0  0
   46.4930   30.1620   43.1250 N   0  0  0  0  0  0  0  0  0  0  0  0
  1 10  1  0  0  0  0
  1  9  1  0  0  0  0
  2  1  2  0  0  0  0
  3  2  1  0  0  0  0
  3  4  2  0  0  0  0
  4  5  1  0  0  0  0
  4  8  1  0  0  0  0
  5  6  1  0  0  0  0
  6 12  1  0  0  0  0
  6  7  2  0  0  0  0
  8  9  2  0  0  0  0
  8  7  1  0  0  0  0
  9 13  1  0  0  0  0
 11  5  1  0  0  0  0
 14 19  1  0  0  0  0
 15 14  2  0  0  0  0
 15 16  1  0  0  0  0
 16 17  2  0  0  0  0
 17 18  1  0  0  0  0
 18  2  1  0  0  0  0
 19 18  2  0  0  0  0
 20 14  1  0  0  0  0
 21 15  1  0  0  0  0
 22 16  1  0  0  0  0
 23  3  1  0  0  0  0
 24 25  1  0  0  0  0
 24 23  2  0  0  0  0
 26 27  1  0  0  0  0
 26 24  1  0  0  0  0
 27 29  2  0  0  0  0
 28 27  1  0  0  0  0
 29 23  1  0  0  0  0
M  END
>  <minimizedAffinity>
-4.22611809

>  <minimizedRMSD>
3.90101576

$$$$
