
 OpenBabel03252505253D

 41 44  0  0  1  0  0  0  0  0999 V2000
   46.6740   33.3750   44.8090 F   0  0  0  0  0  0  0  0  0  0  0  0
   47.3150   32.1880   44.6320 C   0  0  0  0  0  0  0  0  0  0  0  0
   48.1460   32.0640   43.5460 C   0  0  0  0  0  0  0  0  0  0  0  0
   48.7940   30.8640   43.3680 C   0  0  0  0  0  0  0  0  0  0  0  0
   48.5940   29.8370   44.2710 C   0  0  0  0  0  0  0  0  0  0  0  0
   47.7690   29.9570   45.3510 C   0  0  0  0  0  0  0  0  0  0  0  0
   47.1120   31.1850   45.5260 C   0  0  0  0  0  0  0  0  0  0  0  0
   49.4600   30.7110   42.5280 H   0  0  0  0  0  0  0  0  0  0  0  0
   49.1070   28.8930   44.1260 H   0  0  0  0  0  0  0  0  0  0  0  0
   47.6250   29.1440   46.0450 H   0  0  0  0  0  0  0  0  0  0  0  0
   46.2680   31.2630   46.6580 N   0  0  0  0  0  0  0  0  0  0  0  0
   45.1760   30.4330   47.0930 C   0  0  0  0  0  0  0  0  0  0  0  0
   45.5330   30.1590   48.5710 C   0  0  0  0  0  0  0  0  0  0  0  0
   46.4210   31.3150   48.9430 C   0  0  0  0  0  0  0  0  0  0  0  0
   46.2610   32.2410   47.7530 C   0  0  2  0  0  0  0  0  0  0  0  0
   44.2510   31.0230   47.0160 H   0  0  0  0  0  0  0  0  0  0  0  0
   45.1140   29.4730   46.5520 H   0  0  0  0  0  0  0  0  0  0  0  0
   44.5650   30.1720   49.1100 H   0  0  0  0  0  0  0  0  0  0  0  0
   46.0440   29.1780   48.6230 H   0  0  0  0  0  0  0  0  0  0  0  0
   47.4600   31.0330   49.1340 H   0  0  0  0  0  0  0  0  0  0  0  0
   45.9470   31.8230   49.8230 H   0  0  0  0  0  0  0  0  0  0  0  0
   47.2200   32.8000   47.6560 H   0  0  0  0  0  0  0  0  0  0  0  0
   45.0520   33.0910   47.8020 C   0  0  0  0  0  0  0  0  0  0  0  0
   44.3330   32.7150   48.5560 H   0  0  0  0  0  0  0  0  0  0  0  0
   45.3500   34.1120   48.1340 H   0  0  0  0  0  0  0  0  0  0  0  0
   44.6050   33.2220   46.7990 H   0  0  0  0  0  0  0  0  0  0  0  0
   49.0610   35.3440   42.1720 C   0  0  0  0  0  0  0  0  0  0  0  0
   48.6450   35.2410   40.8400 C   0  0  0  0  0  0  0  0  0  0  0  0
   48.0540   34.0360   40.4310 C   0  0  0  0  0  0  0  0  0  0  0  0
   47.9410   33.0860   41.3720 N   0  0  0  0  0  0  0  0  0  0  0  0
   48.3280   33.1770   42.6200 C   0  0  0  0  0  0  0  0  0  0  0  0
   48.8880   34.3110   43.0170 N   0  0  0  0  0  0  0  0  0  0  0  0
   49.5220   36.2720   42.5050 H   0  0  0  0  0  0  0  0  0  0  0  0
   48.7560   36.0270   40.1250 H   0  0  0  0  0  0  0  0  0  0  0  0
   47.5760   33.8150   39.0470 C   0  0  0  0  0  0  0  0  0  0  0  0
   46.4200   33.0920   38.7970 C   0  0  0  0  0  0  0  0  0  0  0  0
   45.7540   32.6220   39.5560 H   0  0  0  0  0  0  0  0  0  0  0  0
   46.3230   33.1400   36.9590 S   0  0  0  0  0  0  0  0  0  0  0  0
   47.9210   34.1650   36.8660 C   0  0  0  0  0  0  0  0  0  0  0  0
   48.4640   34.5660   35.9710 H   0  0  0  0  0  0  0  0  0  0  0  0
   48.1990   34.2750   37.9800 N   0  0  0  0  0  0  0  0  0  0  0  0
  2  1  1  0  0  0  0
  2  7  1  0  0  0  0
  3  2  2  0  0  0  0
  4  3  1  0  0  0  0
  4  5  2  0  0  0  0
  5  6  1  0  0  0  0
  6  7  2  0  0  0  0
  6 10  1  0  0  0  0
  7 11  1  0  0  0  0
  8  4  1  0  0  0  0
  9  5  1  0  0  0  0
 11 12  1  0  0  0  0
 11 15  1  0  0  0  0
 12 13  1  0  0  0  0
 13 19  1  0  0  0  0
 13 14  1  0  0  0  0
 13 18  1  0  0  0  0
 14 20  1  0  0  0  0
 14 21  1  0  0  0  0
 15 22  1  6  0  0  0
 15 23  1  0  0  0  0
 15 14  1  0  0  0  0
 16 12  1  0  0  0  0
 17 12  1  0  0  0  0
 23 25  1  0  0  0  0
 23 24  1  0  0  0  0
 26 23  1  0  0  0  0
 27 33  1  0  0  0  0
 27 32  1  0  0  0  0
 28 27  2  0  0  0  0
 29 28  1  0  0  0  0
 29 30  2  0  0  0  0
 30 31  1  0  0  0  0
 31 32  2  0  0  0  0
 31  3  1  0  0  0  0
 34 28  1  0  0  0  0
 35 29  1  0  0  0  0
 36 35  2  0  0  0  0
 36 37  1  0  0  0  0
 38 36  1  0  0  0  0
 39 38  1  0  0  0  0
 39 41  2  0  0  0  0
 40 39  1  0  0  0  0
 41 35  1  0  0  0  0
M  END
>  <minimizedAffinity>
-5.55501318

>  <minimizedRMSD>
0.83666265

$$$$
