
 OpenBabel03252504493D

 22 23  0  0  0  0  0  0  0  0999 V2000
   47.6720   33.6700   43.4950 C   0  0  0  0  0  0  0  0  0  0  0  0
   48.4270   32.7300   42.7950 C   0  0  0  0  0  0  0  0  0  0  0  0
   48.4480   31.4280   43.2910 C   0  0  0  0  0  0  0  0  0  0  0  0
   47.7350   31.1460   44.4250 N   0  0  0  0  0  0  0  0  0  0  0  0
   47.0150   32.0820   45.0750 C   0  0  0  0  0  0  0  0  0  0  0  0
   46.9820   33.3550   44.6090 N   0  0  0  0  0  0  0  0  0  0  0  0
   47.6210   34.7030   43.1510 H   0  0  0  0  0  0  0  0  0  0  0  0
   49.0190   30.6700   42.7810 H   0  0  0  0  0  0  0  0  0  0  0  0
   46.2600   31.7600   46.2830 C   0  0  0  0  0  0  0  0  0  0  0  0
   45.9910   30.3980   46.6300 C   0  0  0  0  0  0  0  0  0  0  0  0
   46.2850   29.5460   46.0920 H   0  0  0  0  0  0  0  0  0  0  0  0
   45.0360   30.6060   48.1990 S   0  0  0  0  0  0  0  0  0  0  0  0
   45.1830   32.5050   48.0870 C   0  0  0  0  0  0  0  0  0  0  0  0
   44.7630   33.2080   48.8200 H   0  0  0  0  0  0  0  0  0  0  0  0
   45.7790   32.6460   47.1280 N   0  0  0  0  0  0  0  0  0  0  0  0
   49.1330   33.1500   41.6090 C   0  0  0  0  0  0  0  0  0  0  0  0
   48.8680   34.1650   41.3100 H   0  0  0  0  0  0  0  0  0  0  0  0
   48.8730   32.4410   40.7720 H   0  0  0  0  0  0  0  0  0  0  0  0
   50.6240   33.0040   41.8550 C   0  0  0  0  0  0  0  0  0  0  0  0
   51.1260   32.6480   40.9100 H   0  0  0  0  0  0  0  0  0  0  0  0
   50.8190   32.3660   42.7170 H   0  0  0  0  0  0  0  0  0  0  0  0
   51.0360   34.0380   42.0480 H   0  0  0  0  0  0  0  0  0  0  0  0
  1  6  1  0  0  0  0
  2  3  1  0  0  0  0
  2  1  2  0  0  0  0
  3  4  2  0  0  0  0
  4  5  1  0  0  0  0
  5  9  1  0  0  0  0
  6  5  2  0  0  0  0
  7  1  1  0  0  0  0
  8  3  1  0  0  0  0
  9 10  2  0  0  0  0
  9 15  1  0  0  0  0
 10 12  1  0  0  0  0
 11 10  1  0  0  0  0
 13 12  1  0  0  0  0
 13 14  1  0  0  0  0
 15 13  2  0  0  0  0
 16 19  1  0  0  0  0
 16  2  1  0  0  0  0
 17 16  1  0  0  0  0
 18 16  1  0  0  0  0
 19 22  1  0  0  0  0
 19 21  1  0  0  0  0
 20 19  1  0  0  0  0
M  END
>  <minimizedAffinity>
-3.22339296

>  <minimizedRMSD>
2.7872982

$$$$
