
 OpenBabel03252501383D

 33 35  0  0  0  0  0  0  0  0999 V2000
   43.3920   32.7160   39.3300 Cl  0  0  0  0  0  0  0  0  0  0  0  0
   42.1800   33.8340   39.8870 C   0  0  0  0  0  0  0  0  0  0  0  0
   42.4820   35.0000   40.5900 C   0  0  0  0  0  0  0  0  0  0  0  0
   41.4860   35.8300   40.9930 C   0  0  0  0  0  0  0  0  0  0  0  0
   40.1550   35.6020   40.7550 C   0  0  0  0  0  0  0  0  0  0  0  0
   39.8080   34.4380   40.0500 C   0  0  0  0  0  0  0  0  0  0  0  0
   38.1390   34.0380   39.6840 Cl  0  0  0  0  0  0  0  0  0  0  0  0
   40.8440   33.6180   39.6550 C   0  0  0  0  0  0  0  0  0  0  0  0
   41.7570   36.7360   41.5430 H   0  0  0  0  0  0  0  0  0  0  0  0
   39.3620   36.2760   41.0850 H   0  0  0  0  0  0  0  0  0  0  0  0
   40.4930   32.4030   38.9210 C   0  0  0  0  0  0  0  0  0  0  0  0
   40.2990   31.3400   39.8950 C   0  0  0  0  0  0  0  0  0  0  0  0
   40.3200   31.1210   40.9820 H   0  0  0  0  0  0  0  0  0  0  0  0
   39.8540   29.8330   38.8520 S   0  0  0  0  0  0  0  0  0  0  0  0
   40.0160   30.9250   37.3050 C   0  0  0  0  0  0  0  0  0  0  0  0
   39.9690   31.0940   36.0410 H   0  0  0  0  0  0  0  0  0  0  0  0
   40.2940   31.9370   37.7110 N   0  0  0  0  0  0  0  0  0  0  0  0
   43.8330   35.2320   40.8330 O   0  0  0  0  0  0  0  0  0  0  0  0
   44.4150   34.6490   41.9730 C   0  0  0  0  0  0  0  0  0  0  0  0
   44.1000   33.5310   42.4930 O   0  0  0  0  0  0  0  0  0  0  0  0
   45.4730   35.3120   42.6830 N   0  0  0  0  0  0  0  0  0  0  0  0
   45.8410   36.2250   42.3680 H   0  0  0  0  0  0  0  0  0  0  0  0
   45.8520   34.4840   43.8150 C   0  0  0  0  0  0  0  0  0  0  0  0
   45.2510   34.5360   45.0510 C   0  0  0  0  0  0  0  0  0  0  0  0
   45.7470   33.6700   46.0100 C   0  0  0  0  0  0  0  0  0  0  0  0
   46.7630   32.8550   45.6710 N   0  0  0  0  0  0  0  0  0  0  0  0
   47.3260   32.8350   44.4450 C   0  0  0  0  0  0  0  0  0  0  0  0
   46.8640   33.6730   43.4780 N   0  0  0  0  0  0  0  0  0  0  0  0
   45.2850   33.6990   46.9840 H   0  0  0  0  0  0  0  0  0  0  0  0
   48.1480   32.1510   44.2320 H   0  0  0  0  0  0  0  0  0  0  0  0
   44.1970   35.4520   45.2310 N   0  0  0  0  0  0  0  0  0  0  0  0
   44.1760   36.4990   45.1620 H   0  0  0  0  0  0  0  0  0  0  0  0
   43.3880   34.8270   45.4630 H   0  0  0  0  0  0  0  0  0  0  0  0
  1  2  1  0  0  0  0
  2  3  1  0  0  0  0
  3 18  1  0  0  0  0
  3  4  2  0  0  0  0
  4  9  1  0  0  0  0
  5  4  1  0  0  0  0
  5 10  1  0  0  0  0
  6  5  2  0  0  0  0
  7  6  1  0  0  0  0
  8  2  2  0  0  0  0
  8  6  1  0  0  0  0
 11  8  1  0  0  0  0
 11 12  2  0  0  0  0
 12 13  1  0  0  0  0
 14 12  1  0  0  0  0
 15 17  2  0  0  0  0
 15 14  1  0  0  0  0
 16 15  1  0  0  0  0
 17 11  1  0  0  0  0
 18 19  1  0  0  0  0
 19 20  2  0  0  0  0
 19 21  1  0  0  0  0
 21 23  1  0  0  0  0
 22 21  1  0  0  0  0
 23 24  1  0  0  0  0
 24 31  1  0  0  0  0
 24 25  2  0  0  0  0
 25 29  1  0  0  0  0
 26 25  1  0  0  0  0
 27 26  2  0  0  0  0
 28 23  2  0  0  0  0
 28 27  1  0  0  0  0
 30 27  1  0  0  0  0
 31 33  1  0  0  0  0
 32 31  1  0  0  0  0
M  END
>  <minimizedAffinity>
-5.94210577

>  <minimizedRMSD>
0.849272311

$$$$
