
 OpenBabel03242512263D

 18 19  0  0  0  0  0  0  0  0999 V2000
   37.1740   32.2950   39.6330 C   0  0  0  0  0  0  0  0  0  0  0  0
   37.3250   31.8370   38.3030 C   0  0  0  0  0  0  0  0  0  0  0  0
   37.4400   30.4420   38.0630 C   0  0  0  0  0  0  0  0  0  0  0  0
   37.3940   29.6370   39.1510 N   0  0  0  0  0  0  0  0  0  0  0  0
   37.2500   30.0970   40.4000 C   0  0  0  0  0  0  0  0  0  0  0  0
   37.1410   31.4090   40.6410 N   0  0  0  0  0  0  0  0  0  0  0  0
   37.0600   33.6880   39.8670 N   0  0  0  0  0  0  0  0  0  0  0  0
   37.3570   32.5060   37.4690 H   0  0  0  0  0  0  0  0  0  0  0  0
   37.5550   30.0910   37.0570 H   0  0  0  0  0  0  0  0  0  0  0  0
   36.6920   34.0040   40.7970 H   0  0  0  0  0  0  0  0  0  0  0  0
   37.3440   34.3660   39.1120 H   0  0  0  0  0  0  0  0  0  0  0  0
   37.2080   29.1560   41.5420 C   0  0  0  0  0  0  0  0  0  0  0  0
   36.6590   27.9020   41.3160 C   0  0  0  0  0  0  0  0  0  0  0  0
   36.2400   27.4570   40.4370 H   0  0  0  0  0  0  0  0  0  0  0  0
   36.8140   27.0970   42.9720 S   0  0  0  0  0  0  0  0  0  0  0  0
   37.6210   28.6690   43.6790 C   0  0  0  0  0  0  0  0  0  0  0  0
   38.0570   29.0430   44.7120 H   0  0  0  0  0  0  0  0  0  0  0  0
   37.6290   29.3440   42.7820 N   0  0  0  0  0  0  0  0  0  0  0  0
  1  7  1  0  0  0  0
  1  6  1  0  0  0  0
  2  1  2  0  0  0  0
  3  2  1  0  0  0  0
  3  4  2  0  0  0  0
  4  5  1  0  0  0  0
  5  6  2  0  0  0  0
  5 12  1  0  0  0  0
  7 10  1  0  0  0  0
  8  2  1  0  0  0  0
  9  3  1  0  0  0  0
 11  7  1  0  0  0  0
 12 18  1  0  0  0  0
 13 12  2  0  0  0  0
 13 15  1  0  0  0  0
 14 13  1  0  0  0  0
 15 16  1  0  0  0  0
 16 17  1  0  0  0  0
 18 16  2  0  0  0  0
M  END
>  <minimizedAffinity>
-4.08193064

$$$$

 OpenBabel03242512263D

 18 19  0  0  0  0  0  0  0  0999 V2000
   37.8530   33.2080   39.9490 C   0  0  0  0  0  0  0  0  0  0  0  0
   39.2120   33.5890   40.0520 C   0  0  0  0  0  0  0  0  0  0  0  0
   40.1160   32.7390   40.7430 C   0  0  0  0  0  0  0  0  0  0  0  0
   39.5960   31.6000   41.2620 N   0  0  0  0  0  0  0  0  0  0  0  0
   38.3060   31.2630   41.1500 C   0  0  0  0  0  0  0  0  0  0  0  0
   37.4420   32.0550   40.5020 N   0  0  0  0  0  0  0  0  0  0  0  0
   36.9550   34.0590   39.2590 N   0  0  0  0  0  0  0  0  0  0  0  0
   39.5840   34.4970   39.6280 H   0  0  0  0  0  0  0  0  0  0  0  0
   41.1450   33.0240   40.8240 H   0  0  0  0  0  0  0  0  0  0  0  0
   36.0310   33.6630   38.9600 H   0  0  0  0  0  0  0  0  0  0  0  0
   37.2330   35.0570   39.0650 H   0  0  0  0  0  0  0  0  0  0  0  0
   37.8100   30.0010   41.7440 C   0  0  0  0  0  0  0  0  0  0  0  0
   38.4480   29.5390   42.8860 C   0  0  0  0  0  0  0  0  0  0  0  0
   39.2670   29.9320   43.4520 H   0  0  0  0  0  0  0  0  0  0  0  0
   37.5190   27.9850   43.2570 S   0  0  0  0  0  0  0  0  0  0  0  0
   36.4040   28.2690   41.7400 C   0  0  0  0  0  0  0  0  0  0  0  0
   35.4970   27.7330   41.2060 H   0  0  0  0  0  0  0  0  0  0  0  0
   36.8180   29.2290   41.3300 N   0  0  0  0  0  0  0  0  0  0  0  0
  1  2  2  0  0  0  0
  1  6  1  0  0  0  0
  2  3  1  0  0  0  0
  3  9  1  0  0  0  0
  3  4  2  0  0  0  0
  5  4  1  0  0  0  0
  5 12  1  0  0  0  0
  6  5  2  0  0  0  0
  7  1  1  0  0  0  0
  8  2  1  0  0  0  0
 10  7  1  0  0  0  0
 11  7  1  0  0  0  0
 12 13  2  0  0  0  0
 13 15  1  0  0  0  0
 13 14  1  0  0  0  0
 16 15  1  0  0  0  0
 17 16  1  0  0  0  0
 18 16  2  0  0  0  0
 18 12  1  0  0  0  0
M  END
>  <minimizedAffinity>
-4.03042984

$$$$

 OpenBabel03242512263D

 18 19  0  0  0  0  0  0  0  0999 V2000
   37.3450   28.2600   43.1730 C   0  0  0  0  0  0  0  0  0  0  0  0
   38.5960   27.6490   43.4250 C   0  0  0  0  0  0  0  0  0  0  0  0
   39.7760   28.2630   42.9260 C   0  0  0  0  0  0  0  0  0  0  0  0
   39.6100   29.4130   42.2310 N   0  0  0  0  0  0  0  0  0  0  0  0
   38.4130   29.9700   42.0060 C   0  0  0  0  0  0  0  0  0  0  0  0
   37.2930   29.4030   42.4700 N   0  0  0  0  0  0  0  0  0  0  0  0
   36.1710   27.6440   43.6720 N   0  0  0  0  0  0  0  0  0  0  0  0
   38.6860   26.7390   43.9790 H   0  0  0  0  0  0  0  0  0  0  0  0
   40.7250   27.8040   43.1150 H   0  0  0  0  0  0  0  0  0  0  0  0
   35.2930   28.2160   43.7150 H   0  0  0  0  0  0  0  0  0  0  0  0
   36.2070   26.6380   43.9860 H   0  0  0  0  0  0  0  0  0  0  0  0
   38.3090   31.2300   41.2360 C   0  0  0  0  0  0  0  0  0  0  0  0
   37.1980   31.3900   40.4210 C   0  0  0  0  0  0  0  0  0  0  0  0
   36.3590   30.7540   40.2280 H   0  0  0  0  0  0  0  0  0  0  0  0
   37.4870   33.0590   39.6810 S   0  0  0  0  0  0  0  0  0  0  0  0
   39.1170   33.2250   40.6510 C   0  0  0  0  0  0  0  0  0  0  0  0
   39.9850   34.0160   40.7770 H   0  0  0  0  0  0  0  0  0  0  0  0
   39.1480   32.2530   41.2120 N   0  0  0  0  0  0  0  0  0  0  0  0
  1  2  1  0  0  0  0
  1  7  1  0  0  0  0
  2  8  1  0  0  0  0
  3  9  1  0  0  0  0
  3  2  2  0  0  0  0
  4  3  1  0  0  0  0
  5  4  2  0  0  0  0
  5  6  1  0  0  0  0
  6  1  2  0  0  0  0
  7 10  1  0  0  0  0
  7 11  1  0  0  0  0
 12  5  1  0  0  0  0
 13 12  2  0  0  0  0
 14 13  1  0  0  0  0
 15 13  1  0  0  0  0
 15 16  1  0  0  0  0
 16 17  1  0  0  0  0
 16 18  2  0  0  0  0
 18 12  1  0  0  0  0
M  END
>  <minimizedAffinity>
-4.01080656

$$$$

 OpenBabel03242512263D

 18 19  0  0  0  0  0  0  0  0999 V2000
   36.1430   29.7270   41.0040 C   0  0  0  0  0  0  0  0  0  0  0  0
   35.5450   29.2350   39.8200 C   0  0  0  0  0  0  0  0  0  0  0  0
   35.8630   27.9230   39.3800 C   0  0  0  0  0  0  0  0  0  0  0  0
   36.7360   27.2250   40.1460 N   0  0  0  0  0  0  0  0  0  0  0  0
   37.2880   27.7150   41.2630 C   0  0  0  0  0  0  0  0  0  0  0  0
   36.9970   28.9500   41.6890 N   0  0  0  0  0  0  0  0  0  0  0  0
   35.8230   31.0370   41.4390 N   0  0  0  0  0  0  0  0  0  0  0  0
   34.8590   29.8180   39.2430 H   0  0  0  0  0  0  0  0  0  0  0  0
   35.4120   27.5470   38.4840 H   0  0  0  0  0  0  0  0  0  0  0  0
   36.0510   31.2990   42.4290 H   0  0  0  0  0  0  0  0  0  0  0  0
   35.3670   31.7090   40.7670 H   0  0  0  0  0  0  0  0  0  0  0  0
   38.2350   26.8920   42.0500 C   0  0  0  0  0  0  0  0  0  0  0  0
   38.3430   25.5500   41.7170 C   0  0  0  0  0  0  0  0  0  0  0  0
   37.8560   24.9610   40.9680 H   0  0  0  0  0  0  0  0  0  0  0  0
   39.6010   24.9420   42.9270 S   0  0  0  0  0  0  0  0  0  0  0  0
   39.7440   26.6850   43.6800 C   0  0  0  0  0  0  0  0  0  0  0  0
   40.3480   27.2220   44.5410 H   0  0  0  0  0  0  0  0  0  0  0  0
   39.0130   27.2640   43.0530 N   0  0  0  0  0  0  0  0  0  0  0  0
  1  7  1  0  0  0  0
  1  6  1  0  0  0  0
  2  1  2  0  0  0  0
  3  2  1  0  0  0  0
  3  4  2  0  0  0  0
  4  5  1  0  0  0  0
  5  6  2  0  0  0  0
  5 12  1  0  0  0  0
  7 10  1  0  0  0  0
  8  2  1  0  0  0  0
  9  3  1  0  0  0  0
 11  7  1  0  0  0  0
 12 18  1  0  0  0  0
 13 12  2  0  0  0  0
 13 15  1  0  0  0  0
 14 13  1  0  0  0  0
 15 16  1  0  0  0  0
 16 17  1  0  0  0  0
 18 16  2  0  0  0  0
M  END
>  <minimizedAffinity>
-3.93188572

$$$$

 OpenBabel03242512263D

 18 19  0  0  0  0  0  0  0  0999 V2000
   38.6700   25.1330   42.5240 C   0  0  0  0  0  0  0  0  0  0  0  0
   39.7520   25.4600   43.3750 C   0  0  0  0  0  0  0  0  0  0  0  0
   40.0040   26.8240   43.6780 C   0  0  0  0  0  0  0  0  0  0  0  0
   39.1700   27.7310   43.1150 N   0  0  0  0  0  0  0  0  0  0  0  0
   38.1530   27.3950   42.3120 C   0  0  0  0  0  0  0  0  0  0  0  0
   37.9030   26.1130   42.0190 N   0  0  0  0  0  0  0  0  0  0  0  0
   38.4220   23.7710   42.2250 N   0  0  0  0  0  0  0  0  0  0  0  0
   40.3890   24.7130   43.8000 H   0  0  0  0  0  0  0  0  0  0  0  0
   40.8220   27.0750   44.3220 H   0  0  0  0  0  0  0  0  0  0  0  0
   37.4880   23.5160   41.8210 H   0  0  0  0  0  0  0  0  0  0  0  0
   39.1720   23.0540   42.4130 H   0  0  0  0  0  0  0  0  0  0  0  0
   37.2820   28.4430   41.7330 C   0  0  0  0  0  0  0  0  0  0  0  0
   37.7100   29.7580   41.8380 C   0  0  0  0  0  0  0  0  0  0  0  0
   38.5870   30.1890   42.2740 H   0  0  0  0  0  0  0  0  0  0  0  0
   36.3470   30.6860   41.0030 S   0  0  0  0  0  0  0  0  0  0  0  0
   35.4240   29.0560   40.6610 C   0  0  0  0  0  0  0  0  0  0  0  0
   34.4190   28.7080   40.1470 H   0  0  0  0  0  0  0  0  0  0  0  0
   36.1210   28.3010   41.1150 N   0  0  0  0  0  0  0  0  0  0  0  0
  1  2  1  0  0  0  0
  2  3  2  0  0  0  0
  2  8  1  0  0  0  0
  3  9  1  0  0  0  0
  4  3  1  0  0  0  0
  5  4  2  0  0  0  0
  6  5  1  0  0  0  0
  6  1  2  0  0  0  0
  7 11  1  0  0  0  0
  7  1  1  0  0  0  0
 10  7  1  0  0  0  0
 12 13  2  0  0  0  0
 12  5  1  0  0  0  0
 13 14  1  0  0  0  0
 15 13  1  0  0  0  0
 16 15  1  0  0  0  0
 16 18  2  0  0  0  0
 17 16  1  0  0  0  0
 18 12  1  0  0  0  0
M  END
>  <minimizedAffinity>
-3.92928362

$$$$

 OpenBabel03242512263D

 18 19  0  0  0  0  0  0  0  0999 V2000
   37.5740   30.8390   38.1000 C   0  0  0  0  0  0  0  0  0  0  0  0
   37.4140   32.2270   38.3210 C   0  0  0  0  0  0  0  0  0  0  0  0
   37.1930   32.6940   39.6440 C   0  0  0  0  0  0  0  0  0  0  0  0
   37.1510   31.7530   40.6170 N   0  0  0  0  0  0  0  0  0  0  0  0
   37.3050   30.4440   40.3810 C   0  0  0  0  0  0  0  0  0  0  0  0
   37.5150   29.9900   39.1390 N   0  0  0  0  0  0  0  0  0  0  0  0
   37.7940   30.3780   36.7790 N   0  0  0  0  0  0  0  0  0  0  0  0
   37.4530   32.9400   37.5250 H   0  0  0  0  0  0  0  0  0  0  0  0
   37.0710   33.7450   39.8150 H   0  0  0  0  0  0  0  0  0  0  0  0
   38.1670   29.4060   36.6510 H   0  0  0  0  0  0  0  0  0  0  0  0
   37.5810   31.0140   35.9660 H   0  0  0  0  0  0  0  0  0  0  0  0
   37.2480   29.4730   41.4960 C   0  0  0  0  0  0  0  0  0  0  0  0
   36.4200   28.3700   41.3400 C   0  0  0  0  0  0  0  0  0  0  0  0
   35.7850   28.0650   40.5340 H   0  0  0  0  0  0  0  0  0  0  0  0
   36.6630   27.4650   42.9330 S   0  0  0  0  0  0  0  0  0  0  0  0
   37.8800   28.8020   43.5270 C   0  0  0  0  0  0  0  0  0  0  0  0
   38.5410   29.0250   44.4810 H   0  0  0  0  0  0  0  0  0  0  0  0
   37.8880   29.5070   42.6530 N   0  0  0  0  0  0  0  0  0  0  0  0
  1  2  2  0  0  0  0
  1  6  1  0  0  0  0
  2  3  1  0  0  0  0
  3  9  1  0  0  0  0
  3  4  2  0  0  0  0
  5  4  1  0  0  0  0
  5 12  1  0  0  0  0
  6  5  2  0  0  0  0
  7  1  1  0  0  0  0
  8  2  1  0  0  0  0
 10  7  1  0  0  0  0
 11  7  1  0  0  0  0
 12 18  1  0  0  0  0
 13 12  2  0  0  0  0
 13 15  1  0  0  0  0
 14 13  1  0  0  0  0
 15 16  1  0  0  0  0
 16 17  1  0  0  0  0
 18 16  2  0  0  0  0
M  END
>  <minimizedAffinity>
-3.74535584

$$$$

 OpenBabel03242512263D

 18 19  0  0  0  0  0  0  0  0999 V2000
   36.8510   30.3340   41.4490 C   0  0  0  0  0  0  0  0  0  0  0  0
   37.2780   29.3080   42.3240 C   0  0  0  0  0  0  0  0  0  0  0  0
   38.6420   29.2580   42.7160 C   0  0  0  0  0  0  0  0  0  0  0  0
   39.4500   30.2200   42.2100 N   0  0  0  0  0  0  0  0  0  0  0  0
   39.0210   31.1810   41.3830 C   0  0  0  0  0  0  0  0  0  0  0  0
   37.7380   31.2400   41.0050 N   0  0  0  0  0  0  0  0  0  0  0  0
   35.4900   30.3800   41.0610 N   0  0  0  0  0  0  0  0  0  0  0  0
   36.6080   28.5650   42.7020 H   0  0  0  0  0  0  0  0  0  0  0  0
   38.9690   28.4820   43.3780 H   0  0  0  0  0  0  0  0  0  0  0  0
   35.1260   31.2680   40.6370 H   0  0  0  0  0  0  0  0  0  0  0  0
   34.8810   29.5310   41.2050 H   0  0  0  0  0  0  0  0  0  0  0  0
   39.9640   32.2000   40.8700 C   0  0  0  0  0  0  0  0  0  0  0  0
   39.4740   33.1180   39.9510 C   0  0  0  0  0  0  0  0  0  0  0  0
   38.5030   33.2440   39.5200 H   0  0  0  0  0  0  0  0  0  0  0  0
   40.9590   34.1610   39.6030 S   0  0  0  0  0  0  0  0  0  0  0  0
   41.9970   33.1160   40.8100 C   0  0  0  0  0  0  0  0  0  0  0  0
   43.1070   33.0850   41.2120 H   0  0  0  0  0  0  0  0  0  0  0  0
   41.2420   32.3650   41.1680 N   0  0  0  0  0  0  0  0  0  0  0  0
  1  2  1  0  0  0  0
  2  8  1  0  0  0  0
  2  3  2  0  0  0  0
  3  9  1  0  0  0  0
  4  3  1  0  0  0  0
  5  4  2  0  0  0  0
  6  5  1  0  0  0  0
  6  1  2  0  0  0  0
  7 11  1  0  0  0  0
  7  1  1  0  0  0  0
 10  7  1  0  0  0  0
 12 18  1  0  0  0  0
 12  5  1  0  0  0  0
 13 12  2  0  0  0  0
 14 13  1  0  0  0  0
 15 13  1  0  0  0  0
 15 16  1  0  0  0  0
 16 18  2  0  0  0  0
 16 17  1  0  0  0  0
M  END
>  <minimizedAffinity>
-3.71893549

$$$$

 OpenBabel03242512263D

 18 19  0  0  0  0  0  0  0  0999 V2000
   39.9170   32.2840   38.3330 C   0  0  0  0  0  0  0  0  0  0  0  0
   40.6710   33.2610   39.0260 C   0  0  0  0  0  0  0  0  0  0  0  0
   40.6670   33.2560   40.4460 C   0  0  0  0  0  0  0  0  0  0  0  0
   39.9250   32.2920   41.0440 N   0  0  0  0  0  0  0  0  0  0  0  0
   39.2210   31.3790   40.3640 C   0  0  0  0  0  0  0  0  0  0  0  0
   39.2150   31.3720   39.0250 N   0  0  0  0  0  0  0  0  0  0  0  0
   39.9240   32.2940   36.9170 N   0  0  0  0  0  0  0  0  0  0  0  0
   41.2440   34.0060   38.5170 H   0  0  0  0  0  0  0  0  0  0  0  0
   41.2360   33.9940   40.9740 H   0  0  0  0  0  0  0  0  0  0  0  0
   39.5910   31.4340   36.4150 H   0  0  0  0  0  0  0  0  0  0  0  0
   40.2590   33.1530   36.4050 H   0  0  0  0  0  0  0  0  0  0  0  0
   38.4330   30.3550   41.0860 C   0  0  0  0  0  0  0  0  0  0  0  0
   37.4520   29.6830   40.3720 C   0  0  0  0  0  0  0  0  0  0  0  0
   37.1360   29.7600   39.3520 H   0  0  0  0  0  0  0  0  0  0  0  0
   36.7510   28.5380   41.6420 S   0  0  0  0  0  0  0  0  0  0  0  0
   37.9630   29.2140   42.9450 C   0  0  0  0  0  0  0  0  0  0  0  0
   38.2170   29.0330   44.0840 H   0  0  0  0  0  0  0  0  0  0  0  0
   38.5320   29.9800   42.3510 N   0  0  0  0  0  0  0  0  0  0  0  0
  1  6  2  0  0  0  0
  1  2  1  0  0  0  0
  2  3  2  0  0  0  0
  3  9  1  0  0  0  0
  3  4  1  0  0  0  0
  5  4  2  0  0  0  0
  5 12  1  0  0  0  0
  6  5  1  0  0  0  0
  7  1  1  0  0  0  0
  8  2  1  0  0  0  0
 10  7  1  0  0  0  0
 11  7  1  0  0  0  0
 12 18  1  0  0  0  0
 13 12  2  0  0  0  0
 13 15  1  0  0  0  0
 14 13  1  0  0  0  0
 15 16  1  0  0  0  0
 16 17  1  0  0  0  0
 18 16  2  0  0  0  0
M  END
>  <minimizedAffinity>
-3.703686

$$$$

 OpenBabel03242512263D

 18 19  0  0  0  0  0  0  0  0999 V2000
   38.6470   24.4500   42.3460 C   0  0  0  0  0  0  0  0  0  0  0  0
   37.8570   23.6540   41.4830 C   0  0  0  0  0  0  0  0  0  0  0  0
   36.9110   24.2870   40.6340 C   0  0  0  0  0  0  0  0  0  0  0  0
   36.8350   25.6370   40.7160 N   0  0  0  0  0  0  0  0  0  0  0  0
   37.5950   26.3670   41.5420 C   0  0  0  0  0  0  0  0  0  0  0  0
   38.4910   25.7840   42.3480 N   0  0  0  0  0  0  0  0  0  0  0  0
   39.5890   23.8140   43.1910 N   0  0  0  0  0  0  0  0  0  0  0  0
   37.9470   22.5890   41.4480 H   0  0  0  0  0  0  0  0  0  0  0  0
   36.3110   23.6880   39.9800 H   0  0  0  0  0  0  0  0  0  0  0  0
   40.3400   24.4040   43.6260 H   0  0  0  0  0  0  0  0  0  0  0  0
   39.5150   22.7760   43.3610 H   0  0  0  0  0  0  0  0  0  0  0  0
   37.4560   27.8400   41.5770 C   0  0  0  0  0  0  0  0  0  0  0  0
   36.3380   28.3910   40.9670 C   0  0  0  0  0  0  0  0  0  0  0  0
   35.5150   27.9410   40.4510 H   0  0  0  0  0  0  0  0  0  0  0  0
   36.5830   30.2000   41.2510 S   0  0  0  0  0  0  0  0  0  0  0  0
   38.2110   29.8530   42.1740 C   0  0  0  0  0  0  0  0  0  0  0  0
   39.0600   30.4690   42.7180 H   0  0  0  0  0  0  0  0  0  0  0  0
   38.2690   28.7320   42.1200 N   0  0  0  0  0  0  0  0  0  0  0  0
  1  6  1  0  0  0  0
  1  7  1  0  0  0  0
  2  1  2  0  0  0  0
  3  4  2  0  0  0  0
  3  2  1  0  0  0  0
  4  5  1  0  0  0  0
  5 12  1  0  0  0  0
  5  6  2  0  0  0  0
  7 11  1  0  0  0  0
  7 10  1  0  0  0  0
  8  2  1  0  0  0  0
  9  3  1  0  0  0  0
 12 18  1  0  0  0  0
 13 15  1  0  0  0  0
 13 12  2  0  0  0  0
 14 13  1  0  0  0  0
 15 16  1  0  0  0  0
 16 17  1  0  0  0  0
 18 16  2  0  0  0  0
M  END
>  <minimizedAffinity>
-3.68229723

$$$$
