
 OpenBabel03252506103D

 28 30  0  0  0  0  0  0  0  0999 V2000
   45.1110   33.2940   41.1390 F   0  0  0  0  0  0  0  0  0  0  0  0
   46.2700   33.9010   40.9350 C   0  0  0  0  0  0  0  0  0  0  0  0
   46.7840   34.7270   41.9250 C   0  0  0  0  0  0  0  0  0  0  0  0
   47.9810   35.3980   41.7920 C   0  0  0  0  0  0  0  0  0  0  0  0
   48.7280   35.2640   40.6360 C   0  0  0  0  0  0  0  0  0  0  0  0
   48.1780   34.4320   39.6770 C   0  0  0  0  0  0  0  0  0  0  0  0
   46.9750   33.7390   39.7740 C   0  0  0  0  0  0  0  0  0  0  0  0
   48.3850   36.0420   42.5620 H   0  0  0  0  0  0  0  0  0  0  0  0
   49.6680   35.7560   40.4640 H   0  0  0  0  0  0  0  0  0  0  0  0
   48.7840   34.3360   38.7630 H   0  0  0  0  0  0  0  0  0  0  0  0
   45.4190   34.1100   45.2950 C   0  0  0  0  0  0  0  0  0  0  0  0
   44.6320   35.2680   45.4970 C   0  0  0  0  0  0  0  0  0  0  0  0
   44.5760   36.2400   44.4890 C   0  0  0  0  0  0  0  0  0  0  0  0
   45.3000   35.9960   43.3580 N   0  0  0  0  0  0  0  0  0  0  0  0
   46.0350   34.9070   43.1770 C   0  0  0  0  0  0  0  0  0  0  0  0
   46.0880   33.9760   44.1470 N   0  0  0  0  0  0  0  0  0  0  0  0
   44.0760   35.4200   46.4040 H   0  0  0  0  0  0  0  0  0  0  0  0
   43.9880   37.1420   44.5940 H   0  0  0  0  0  0  0  0  0  0  0  0
   45.4720   33.1360   46.3150 N   0  0  0  0  0  0  0  0  0  0  0  0
   45.2010   33.3920   47.2870 H   0  0  0  0  0  0  0  0  0  0  0  0
   45.7800   32.1610   46.1030 H   0  0  0  0  0  0  0  0  0  0  0  0
   46.5220   32.8870   38.6620 C   0  0  0  0  0  0  0  0  0  0  0  0
   46.4680   31.4700   38.8100 C   0  0  0  0  0  0  0  0  0  0  0  0
   46.6640   30.7870   39.5170 H   0  0  0  0  0  0  0  0  0  0  0  0
   45.8530   30.9340   37.1700 S   0  0  0  0  0  0  0  0  0  0  0  0
   45.7730   32.7370   36.5550 C   0  0  0  0  0  0  0  0  0  0  0  0
   45.4570   33.0930   35.5770 H   0  0  0  0  0  0  0  0  0  0  0  0
   46.1500   33.4090   37.4870 N   0  0  0  0  0  0  0  0  0  0  0  0
  2  1  1  0  0  0  0
  2  3  1  0  0  0  0
  3 15  1  0  0  0  0
  4  3  2  0  0  0  0
  4  8  1  0  0  0  0
  5  4  1  0  0  0  0
  6  7  1  0  0  0  0
  6  5  2  0  0  0  0
  7  2  2  0  0  0  0
  9  5  1  0  0  0  0
 10  6  1  0  0  0  0
 11 12  1  0  0  0  0
 11 19  1  0  0  0  0
 12 17  1  0  0  0  0
 13 18  1  0  0  0  0
 13 12  2  0  0  0  0
 14 13  1  0  0  0  0
 15 14  2  0  0  0  0
 15 16  1  0  0  0  0
 16 11  2  0  0  0  0
 19 20  1  0  0  0  0
 21 19  1  0  0  0  0
 22 23  2  0  0  0  0
 22  7  1  0  0  0  0
 23 24  1  0  0  0  0
 25 23  1  0  0  0  0
 26 25  1  0  0  0  0
 26 28  2  0  0  0  0
 27 26  1  0  0  0  0
 28 22  1  0  0  0  0
M  END
>  <minimizedAffinity>
-5.84733057

>  <minimizedRMSD>
0.165210545

$$$$
