
 OpenBabel03242518053D

 18 19  0  0  0  0  0  0  0  0999 V2000
   45.4130   32.8640   47.7570 C   0  0  0  0  0  0  0  0  0  0  0  0
   46.2160   32.6280   46.6300 C   0  0  0  0  0  0  0  0  0  0  0  0
   47.1450   31.5840   46.6690 C   0  0  0  0  0  0  0  0  0  0  0  0
   47.2120   30.8530   47.8130 N   0  0  0  0  0  0  0  0  0  0  0  0
   46.4310   31.1030   48.8720 C   0  0  0  0  0  0  0  0  0  0  0  0
   45.5390   32.1040   48.8390 N   0  0  0  0  0  0  0  0  0  0  0  0
   44.4730   33.9250   47.7070 N   0  0  0  0  0  0  0  0  0  0  0  0
   47.7630   31.3790   45.8430 H   0  0  0  0  0  0  0  0  0  0  0  0
   46.5990   30.4370   49.7110 H   0  0  0  0  0  0  0  0  0  0  0  0
   44.6020   34.7020   48.3860 H   0  0  0  0  0  0  0  0  0  0  0  0
   43.6610   34.0270   47.0660 H   0  0  0  0  0  0  0  0  0  0  0  0
   46.0480   33.4800   45.4680 C   0  0  0  0  0  0  0  0  0  0  0  0
   46.9480   33.3410   44.3520 C   0  0  0  0  0  0  0  0  0  0  0  0
   47.8400   32.6160   44.2170 H   0  0  0  0  0  0  0  0  0  0  0  0
   46.3550   34.6250   43.1110 S   0  0  0  0  0  0  0  0  0  0  0  0
   45.0000   35.1050   44.3440 C   0  0  0  0  0  0  0  0  0  0  0  0
   44.1360   35.9000   44.3200 H   0  0  0  0  0  0  0  0  0  0  0  0
   45.1640   34.4220   45.2310 N   0  0  0  0  0  0  0  0  0  0  0  0
  1  6  1  0  0  0  0
  2  3  1  0  0  0  0
  2  1  2  0  0  0  0
  3  4  2  0  0  0  0
  4  5  1  0  0  0  0
  5  9  1  0  0  0  0
  6  5  2  0  0  0  0
  7  1  1  0  0  0  0
  7 10  1  0  0  0  0
  8  3  1  0  0  0  0
 11  7  1  0  0  0  0
 12  2  1  0  0  0  0
 13 12  2  0  0  0  0
 14 13  1  0  0  0  0
 15 16  1  0  0  0  0
 15 13  1  0  0  0  0
 16 18  2  0  0  0  0
 17 16  1  0  0  0  0
 18 12  1  0  0  0  0
M  END
>  <minimizedAffinity>
-4.58120537

>  <minimizedRMSD>
4.08589411

$$$$
