
 OpenBabel03252507023D

 36 38  0  0  0  0  0  0  0  0999 V2000
   45.7350   34.4740   41.1160 C   0  0  0  0  0  0  0  0  0  0  0  0
   45.9160   35.5560   41.4210 H   0  0  0  0  0  0  0  0  0  0  0  0
   44.8030   34.5710   40.5220 H   0  0  0  0  0  0  0  0  0  0  0  0
   46.6800   33.8340   40.4340 N   0  0  0  0  0  0  0  0  0  0  0  0
   46.6200   32.5580   39.8190 C   0  0  0  0  0  0  0  0  0  0  0  0
   46.4430   33.0160   38.3480 C   0  0  0  0  0  0  0  0  0  0  0  0
   47.5690   33.8090   37.8530 C   0  0  0  0  0  0  0  0  0  0  0  0
   48.4030   34.5150   38.8220 C   0  0  0  0  0  0  0  0  0  0  0  0
   47.9410   34.5680   40.2530 C   0  0  0  0  0  0  0  0  0  0  0  0
   45.7120   31.9950   40.0800 H   0  0  0  0  0  0  0  0  0  0  0  0
   47.4550   31.8870   39.8630 H   0  0  0  0  0  0  0  0  0  0  0  0
   45.5080   33.6270   38.3580 H   0  0  0  0  0  0  0  0  0  0  0  0
   46.3040   32.0990   37.7070 H   0  0  0  0  0  0  0  0  0  0  0  0
   48.2670   33.1240   37.2860 H   0  0  0  0  0  0  0  0  0  0  0  0
   47.1950   34.5320   37.0790 H   0  0  0  0  0  0  0  0  0  0  0  0
   49.3130   35.0270   38.6370 H   0  0  0  0  0  0  0  0  0  0  0  0
   48.8250   35.4570   41.4930 S   0  0  0  0  0  0  0  0  0  0  0  0
   48.6170   36.8340   41.3820 H   0  0  0  0  0  0  0  0  0  0  0  0
   45.3360   33.7660   42.3770 C   0  0  0  0  0  0  0  0  0  0  0  0
   46.1400   33.0570   42.6870 H   0  0  0  0  0  0  0  0  0  0  0  0
   45.1280   34.4660   43.2210 H   0  0  0  0  0  0  0  0  0  0  0  0
   44.0700   33.0410   42.0840 C   0  0  0  0  0  0  0  0  0  0  0  0
   43.8390   31.7700   42.5690 C   0  0  0  0  0  0  0  0  0  0  0  0
   42.6170   31.1520   42.2340 C   0  0  0  0  0  0  0  0  0  0  0  0
   41.7380   31.8460   41.4530 N   0  0  0  0  0  0  0  0  0  0  0  0
   42.0200   33.0730   41.0140 C   0  0  0  0  0  0  0  0  0  0  0  0
   43.1700   33.6480   41.3330 N   0  0  0  0  0  0  0  0  0  0  0  0
   44.5650   31.2580   43.1850 H   0  0  0  0  0  0  0  0  0  0  0  0
   42.4140   30.1510   42.6060 H   0  0  0  0  0  0  0  0  0  0  0  0
   40.9780   33.6980   40.1830 C   0  0  0  0  0  0  0  0  0  0  0  0
   41.3630   33.7270   38.8440 C   0  0  0  0  0  0  0  0  0  0  0  0
   42.2070   33.4260   38.2170 H   0  0  0  0  0  0  0  0  0  0  0  0
   39.9240   34.5440   37.9860 S   0  0  0  0  0  0  0  0  0  0  0  0
   39.0420   34.6940   39.6830 C   0  0  0  0  0  0  0  0  0  0  0  0
   38.0460   35.0710   40.2800 H   0  0  0  0  0  0  0  0  0  0  0  0
   39.7880   34.2300   40.3840 N   0  0  0  0  0  0  0  0  0  0  0  0
  1  2  1  0  0  0  0
  1 19  1  0  0  0  0
  3  1  1  0  0  0  0
  4  1  1  0  0  0  0
  5 11  1  0  0  0  0
  5 10  1  0  0  0  0
  5  4  1  0  0  0  0
  6 12  1  0  0  0  0
  6  5  1  0  0  0  0
  7  6  1  0  0  0  0
  7  8  1  0  0  0  0
  8  9  2  0  0  0  0
  9  4  1  0  0  0  0
  9 17  1  0  0  0  0
 13  6  1  0  0  0  0
 14  7  1  0  0  0  0
 15  7  1  0  0  0  0
 16  8  1  0  0  0  0
 18 17  1  0  0  0  0
 19 20  1  0  0  0  0
 19 21  1  0  0  0  0
 22 19  1  0  0  0  0
 22 23  1  0  0  0  0
 23 28  1  0  0  0  0
 24 23  2  0  0  0  0
 24 29  1  0  0  0  0
 25 24  1  0  0  0  0
 26 27  1  0  0  0  0
 26 25  2  0  0  0  0
 27 22  2  0  0  0  0
 30 36  1  0  0  0  0
 30 26  1  0  0  0  0
 31 30  2  0  0  0  0
 32 31  1  0  0  0  0
 33 31  1  0  0  0  0
 33 34  1  0  0  0  0
 34 35  1  0  0  0  0
 34 36  2  0  0  0  0
M  END
>  <minimizedAffinity>
-4.45261812

>  <minimizedRMSD>
3.8335886

$$$$
