
 OpenBabel03252507433D

 29 31  0  0  0  0  0  0  0  0999 V2000
   45.9120   34.6770   41.7220 C   0  0  0  0  0  0  0  0  0  0  0  0
   46.0020   34.0060   42.6180 H   0  0  0  0  0  0  0  0  0  0  0  0
   46.1680   35.6960   42.1030 H   0  0  0  0  0  0  0  0  0  0  0  0
   44.5230   34.6710   41.2050 C   0  0  0  0  0  0  0  0  0  0  0  0
   43.5840   35.6700   41.6080 C   0  0  0  0  0  0  0  0  0  0  0  0
   42.0590   35.1670   40.6680 S   0  0  0  0  0  0  0  0  0  0  0  0
   42.9730   33.7030   39.9060 C   0  0  0  0  0  0  0  0  0  0  0  0
   44.0170   33.8030   40.3670 N   0  0  0  0  0  0  0  0  0  0  0  0
   43.7520   36.4850   42.2800 H   0  0  0  0  0  0  0  0  0  0  0  0
   42.3210   32.7600   38.9580 C   0  0  0  0  0  0  0  0  0  0  0  0
   43.0810   31.8130   38.2980 C   0  0  0  0  0  0  0  0  0  0  0  0
   44.2160   31.6850   38.4230 H   0  0  0  0  0  0  0  0  0  0  0  0
   41.8330   30.9380   37.2860 S   0  0  0  0  0  0  0  0  0  0  0  0
   40.4500   32.0490   37.9580 C   0  0  0  0  0  0  0  0  0  0  0  0
   39.3670   32.0180   37.7070 H   0  0  0  0  0  0  0  0  0  0  0  0
   41.0340   32.7420   38.6760 N   0  0  0  0  0  0  0  0  0  0  0  0
   46.9570   34.2790   40.7330 C   0  0  0  0  0  0  0  0  0  0  0  0
   47.0650   35.1620   40.0350 H   0  0  0  0  0  0  0  0  0  0  0  0
   46.6530   33.4520   40.1040 H   0  0  0  0  0  0  0  0  0  0  0  0
   48.3010   34.0770   41.3210 C   0  0  0  0  0  0  0  0  0  0  0  0
   48.9440   32.8730   41.0350 C   0  0  0  0  0  0  0  0  0  0  0  0
   50.1990   32.6150   41.5490 C   0  0  0  0  0  0  0  0  0  0  0  0
   50.7700   33.5820   42.3390 N   0  0  0  0  0  0  0  0  0  0  0  0
   50.1200   34.7350   42.5960 C   0  0  0  0  0  0  0  0  0  0  0  0
   48.9090   34.9700   42.0920 N   0  0  0  0  0  0  0  0  0  0  0  0
   50.6730   31.6700   41.3090 H   0  0  0  0  0  0  0  0  0  0  0  0
   50.6760   35.4220   43.2340 H   0  0  0  0  0  0  0  0  0  0  0  0
   48.1470   31.6390   39.9910 S   0  0  0  0  0  0  0  0  0  0  0  0
   47.2050   30.9520   40.7650 H   0  0  0  0  0  0  0  0  0  0  0  0
  1  3  1  0  0  0  0
  1  2  1  0  0  0  0
  4  5  2  0  0  0  0
  4  1  1  0  0  0  0
  5  9  1  0  0  0  0
  6  5  1  0  0  0  0
  7  8  2  0  0  0  0
  7  6  1  0  0  0  0
  8  4  1  0  0  0  0
 10  7  1  0  0  0  0
 11 12  1  0  0  0  0
 11 10  2  0  0  0  0
 13 14  1  0  0  0  0
 13 11  1  0  0  0  0
 14 16  2  0  0  0  0
 15 14  1  0  0  0  0
 16 10  1  0  0  0  0
 17 20  1  0  0  0  0
 17  1  1  0  0  0  0
 18 17  1  0  0  0  0
 19 17  1  0  0  0  0
 20 25  1  0  0  0  0
 21 20  2  0  0  0  0
 21 22  1  0  0  0  0
 22 23  2  0  0  0  0
 23 24  1  0  0  0  0
 24 27  1  0  0  0  0
 25 24  2  0  0  0  0
 26 22  1  0  0  0  0
 28 29  1  0  0  0  0
 28 21  1  0  0  0  0
M  END
>  <minimizedAffinity>
-4.12310696

>  <minimizedRMSD>
0.827670038

$$$$
