
 OpenBabel03252508253D

 39 43  0  0  1  0  0  0  0  0999 V2000
   46.5210   32.3350   45.6610 C   0  0  1  0  0  0  0  0  0  0  0  0
   46.9000   32.7110   47.0310 C   0  0  0  0  0  0  0  0  0  0  0  0
   45.5410   31.9910   46.6750 C   0  0  2  0  0  0  0  0  0  0  0  0
   47.3720   31.6550   45.2980 H   0  0  0  0  0  0  0  0  0  0  0  0
   46.8560   33.7560   47.3750 H   0  0  0  0  0  0  0  0  0  0  0  0
   47.4660   32.0660   47.7170 H   0  0  0  0  0  0  0  0  0  0  0  0
   44.7940   32.7290   47.0990 H   0  0  0  0  0  0  0  0  0  0  0  0
   45.2810   30.6380   47.1750 C   0  0  0  0  0  0  0  0  0  0  0  0
   45.1950   30.2410   48.4730 C   0  0  0  0  0  0  0  0  0  0  0  0
   45.0760   28.9330   48.9180 C   0  0  0  0  0  0  0  0  0  0  0  0
   45.0430   27.9380   47.9210 C   0  0  0  0  0  0  0  0  0  0  0  0
   45.1250   28.3150   46.5850 C   0  0  0  0  0  0  0  0  0  0  0  0
   45.0280   27.3140   45.6390 C   0  0  0  0  0  0  0  0  0  0  0  0
   45.0350   27.6500   44.2920 C   0  0  0  0  0  0  0  0  0  0  0  0
   45.1360   28.9690   43.8950 C   0  0  0  0  0  0  0  0  0  0  0  0
   45.2330   29.9300   44.8780 C   0  0  0  0  0  0  0  0  0  0  0  0
   45.2390   29.6450   46.2290 C   0  0  0  0  0  0  0  0  0  0  0  0
   45.2250   31.0440   49.2060 H   0  0  0  0  0  0  0  0  0  0  0  0
   45.0120   28.6880   49.9720 H   0  0  0  0  0  0  0  0  0  0  0  0
   44.9540   26.9070   48.2250 H   0  0  0  0  0  0  0  0  0  0  0  0
   44.9470   26.2840   45.9790 H   0  0  0  0  0  0  0  0  0  0  0  0
   44.9540   26.7700   43.6320 H   0  0  0  0  0  0  0  0  0  0  0  0
   45.1210   29.0250   42.8330 H   0  0  0  0  0  0  0  0  0  0  0  0
   45.2110   30.8340   44.3410 H   0  0  0  0  0  0  0  0  0  0  0  0
   45.1290   35.3730   44.1020 C   0  0  0  0  0  0  0  0  0  0  0  0
   45.5380   35.2390   42.7340 C   0  0  0  0  0  0  0  0  0  0  0  0
   46.3060   34.0710   42.3960 C   0  0  0  0  0  0  0  0  0  0  0  0
   46.5950   33.1930   43.3470 N   0  0  0  0  0  0  0  0  0  0  0  0
   46.1810   33.3670   44.6430 C   0  0  0  0  0  0  0  0  0  0  0  0
   45.4690   34.4270   45.0020 N   0  0  0  0  0  0  0  0  0  0  0  0
   44.5670   36.2670   44.2450 H   0  0  0  0  0  0  0  0  0  0  0  0
   45.3040   35.9490   41.9720 H   0  0  0  0  0  0  0  0  0  0  0  0
   46.7170   33.9360   41.0080 C   0  0  0  0  0  0  0  0  0  0  0  0
   48.0180   34.5110   40.6190 C   0  0  0  0  0  0  0  0  0  0  0  0
   48.7170   35.0370   41.2800 H   0  0  0  0  0  0  0  0  0  0  0  0
   48.0880   34.0880   38.7830 S   0  0  0  0  0  0  0  0  0  0  0  0
   46.3950   33.2440   38.9060 C   0  0  0  0  0  0  0  0  0  0  0  0
   45.7980   32.7320   38.0940 H   0  0  0  0  0  0  0  0  0  0  0  0
   46.0550   33.3450   40.0140 N   0  0  0  0  0  0  0  0  0  0  0  0
  1  4  1  6  0  0  0
  1  3  1  0  0  0  0
  1  2  1  0  0  0  0
  2  5  1  0  0  0  0
  2  6  1  0  0  0  0
  3  2  1  0  0  0  0
  3  7  1  1  0  0  0
  3  8  1  0  0  0  0
  8  9  1  0  0  0  0
  9 10  2  0  0  0  0
  9 18  1  0  0  0  0
 10 19  1  0  0  0  0
 11 20  1  0  0  0  0
 11 10  1  0  0  0  0
 12 11  2  0  0  0  0
 13 21  1  0  0  0  0
 13 12  1  0  0  0  0
 14 13  2  0  0  0  0
 15 14  1  0  0  0  0
 15 16  2  0  0  0  0
 16 17  1  0  0  0  0
 17 12  1  0  0  0  0
 17  8  2  0  0  0  0
 22 14  1  0  0  0  0
 23 15  1  0  0  0  0
 24 16  1  0  0  0  0
 25 31  1  0  0  0  0
 25 30  1  0  0  0  0
 26 25  2  0  0  0  0
 27 26  1  0  0  0  0
 27 28  2  0  0  0  0
 28 29  1  0  0  0  0
 29 30  2  0  0  0  0
 29  1  1  0  0  0  0
 32 26  1  0  0  0  0
 33 27  1  0  0  0  0
 34 33  2  0  0  0  0
 34 35  1  0  0  0  0
 36 37  1  0  0  0  0
 36 34  1  0  0  0  0
 37 39  2  0  0  0  0
 38 37  1  0  0  0  0
 39 33  1  0  0  0  0
M  END
>  <minimizedAffinity>
-4.77428341

>  <minimizedRMSD>
1.03173959

$$$$
