
 OpenBabel03242522123D

 18 19  0  0  0  0  0  0  0  0999 V2000
   37.2760   32.3070   39.9820 C   0  0  0  0  0  0  0  0  0  0  0  0
   37.0320   31.1440   40.7320 C   0  0  0  0  0  0  0  0  0  0  0  0
   38.0620   30.2380   40.8990 C   0  0  0  0  0  0  0  0  0  0  0  0
   39.2580   30.5550   40.3070 N   0  0  0  0  0  0  0  0  0  0  0  0
   39.4660   31.6680   39.5980 C   0  0  0  0  0  0  0  0  0  0  0  0
   38.4660   32.5500   39.4340 N   0  0  0  0  0  0  0  0  0  0  0  0
   36.4850   33.0210   39.8430 H   0  0  0  0  0  0  0  0  0  0  0  0
   40.4820   31.6850   39.2400 H   0  0  0  0  0  0  0  0  0  0  0  0
   37.8800   29.0000   41.6710 C   0  0  0  0  0  0  0  0  0  0  0  0
   38.0290   27.7570   41.1390 C   0  0  0  0  0  0  0  0  0  0  0  0
   38.2800   27.3130   40.1750 H   0  0  0  0  0  0  0  0  0  0  0  0
   37.6770   26.6420   42.5760 S   0  0  0  0  0  0  0  0  0  0  0  0
   37.3790   28.1310   43.6790 C   0  0  0  0  0  0  0  0  0  0  0  0
   37.1130   28.0720   44.7270 H   0  0  0  0  0  0  0  0  0  0  0  0
   37.5570   28.9880   42.9430 N   0  0  0  0  0  0  0  0  0  0  0  0
   35.7230   30.9970   41.2650 N   0  0  0  0  0  0  0  0  0  0  0  0
   35.1610   30.5060   40.5300 H   0  0  0  0  0  0  0  0  0  0  0  0
   35.8820   31.4570   42.1960 H   0  0  0  0  0  0  0  0  0  0  0  0
  1  2  1  0  0  0  0
  2  3  2  0  0  0  0
  2 16  1  0  0  0  0
  3  9  1  0  0  0  0
  4  3  1  0  0  0  0
  5  4  2  0  0  0  0
  6  5  1  0  0  0  0
  6  1  2  0  0  0  0
  7  1  1  0  0  0  0
  8  5  1  0  0  0  0
  9 15  1  0  0  0  0
 10  9  2  0  0  0  0
 10 12  1  0  0  0  0
 11 10  1  0  0  0  0
 12 13  1  0  0  0  0
 13 14  1  0  0  0  0
 15 13  2  0  0  0  0
 16 18  1  0  0  0  0
 17 16  1  0  0  0  0
M  END
>  <minimizedAffinity>
-4.08493567

$$$$

 OpenBabel03242522123D

 18 19  0  0  0  0  0  0  0  0999 V2000
   39.1440   33.7610   40.1140 C   0  0  0  0  0  0  0  0  0  0  0  0
   38.3920   32.6750   40.5930 C   0  0  0  0  0  0  0  0  0  0  0  0
   39.0600   31.6120   41.1720 C   0  0  0  0  0  0  0  0  0  0  0  0
   40.4270   31.7090   41.2310 N   0  0  0  0  0  0  0  0  0  0  0  0
   41.1210   32.7520   40.7690 C   0  0  0  0  0  0  0  0  0  0  0  0
   40.4730   33.7860   40.2050 N   0  0  0  0  0  0  0  0  0  0  0  0
   38.6390   34.5940   39.6610 H   0  0  0  0  0  0  0  0  0  0  0  0
   42.1730   32.5890   40.9320 H   0  0  0  0  0  0  0  0  0  0  0  0
   38.3390   30.4430   41.6950 C   0  0  0  0  0  0  0  0  0  0  0  0
   38.7240   29.7620   42.8080 C   0  0  0  0  0  0  0  0  0  0  0  0
   39.5180   29.8120   43.5540 H   0  0  0  0  0  0  0  0  0  0  0  0
   37.4460   28.4280   42.9450 S   0  0  0  0  0  0  0  0  0  0  0  0
   36.5900   29.0670   41.4020 C   0  0  0  0  0  0  0  0  0  0  0  0
   35.6980   28.6290   40.9720 H   0  0  0  0  0  0  0  0  0  0  0  0
   37.2590   29.9540   41.1300 N   0  0  0  0  0  0  0  0  0  0  0  0
   36.9830   32.7640   40.4380 N   0  0  0  0  0  0  0  0  0  0  0  0
   36.7650   32.3560   39.4980 H   0  0  0  0  0  0  0  0  0  0  0  0
   36.7540   33.2140   41.3600 H   0  0  0  0  0  0  0  0  0  0  0  0
  1  6  2  0  0  0  0
  1  2  1  0  0  0  0
  2  3  2  0  0  0  0
  3  4  1  0  0  0  0
  3  9  1  0  0  0  0
  5  8  1  0  0  0  0
  5  4  2  0  0  0  0
  6  5  1  0  0  0  0
  7  1  1  0  0  0  0
  9 10  2  0  0  0  0
 10 12  1  0  0  0  0
 10 11  1  0  0  0  0
 13 12  1  0  0  0  0
 14 13  1  0  0  0  0
 15 13  2  0  0  0  0
 15  9  1  0  0  0  0
 16  2  1  0  0  0  0
 16 18  1  0  0  0  0
 17 16  1  0  0  0  0
M  END
>  <minimizedAffinity>
-3.82284045

$$$$

 OpenBabel03242522123D

 18 19  0  0  0  0  0  0  0  0999 V2000
   37.0850   26.9600   42.8520 C   0  0  0  0  0  0  0  0  0  0  0  0
   37.2440   28.3260   42.5640 C   0  0  0  0  0  0  0  0  0  0  0  0
   37.3570   28.7130   41.2420 C   0  0  0  0  0  0  0  0  0  0  0  0
   37.3050   27.7130   40.3050 N   0  0  0  0  0  0  0  0  0  0  0  0
   37.1530   26.4200   40.6040 C   0  0  0  0  0  0  0  0  0  0  0  0
   37.0440   26.0410   41.8880 N   0  0  0  0  0  0  0  0  0  0  0  0
   36.9970   26.6430   43.8750 H   0  0  0  0  0  0  0  0  0  0  0  0
   37.1420   25.8370   39.6970 H   0  0  0  0  0  0  0  0  0  0  0  0
   37.5250   30.1240   40.8660 C   0  0  0  0  0  0  0  0  0  0  0  0
   36.6320   30.8060   40.0990 C   0  0  0  0  0  0  0  0  0  0  0  0
   35.6830   30.6150   39.5970 H   0  0  0  0  0  0  0  0  0  0  0  0
   37.3860   32.4940   39.9790 S   0  0  0  0  0  0  0  0  0  0  0  0
   38.8360   31.9390   41.0350 C   0  0  0  0  0  0  0  0  0  0  0  0
   39.6660   32.5750   41.3160 H   0  0  0  0  0  0  0  0  0  0  0  0
   38.5550   30.8490   41.2370 N   0  0  0  0  0  0  0  0  0  0  0  0
   37.2750   29.2080   43.6770 N   0  0  0  0  0  0  0  0  0  0  0  0
   38.2770   29.2690   43.9750 H   0  0  0  0  0  0  0  0  0  0  0  0
   36.2490   29.4290   43.7280 H   0  0  0  0  0  0  0  0  0  0  0  0
  1  7  1  0  0  0  0
  2  1  1  0  0  0  0
  2 16  1  0  0  0  0
  3  2  2  0  0  0  0
  4  5  2  0  0  0  0
  4  3  1  0  0  0  0
  5  6  1  0  0  0  0
  6  1  2  0  0  0  0
  8  5  1  0  0  0  0
  9 15  1  0  0  0  0
  9  3  1  0  0  0  0
 10  9  2  0  0  0  0
 11 10  1  0  0  0  0
 12 10  1  0  0  0  0
 12 13  1  0  0  0  0
 13 15  2  0  0  0  0
 13 14  1  0  0  0  0
 16 18  1  0  0  0  0
 16 17  1  0  0  0  0
M  END
>  <minimizedAffinity>
-3.68446326

$$$$

 OpenBabel03242522123D

 18 19  0  0  0  0  0  0  0  0999 V2000
   41.9820   33.5830   37.6560 C   0  0  0  0  0  0  0  0  0  0  0  0
   40.7900   32.8950   37.9420 C   0  0  0  0  0  0  0  0  0  0  0  0
   40.3670   32.8250   39.2560 C   0  0  0  0  0  0  0  0  0  0  0  0
   41.1610   33.4440   40.1880 N   0  0  0  0  0  0  0  0  0  0  0  0
   42.2890   34.0930   39.8920 C   0  0  0  0  0  0  0  0  0  0  0  0
   42.7030   34.1610   38.6160 N   0  0  0  0  0  0  0  0  0  0  0  0
   42.3240   33.6450   36.6400 H   0  0  0  0  0  0  0  0  0  0  0  0
   42.7270   34.4890   40.7930 H   0  0  0  0  0  0  0  0  0  0  0  0
   39.1300   32.1240   39.6300 C   0  0  0  0  0  0  0  0  0  0  0  0
   38.1730   32.6670   40.4290 C   0  0  0  0  0  0  0  0  0  0  0  0
   37.9980   33.6010   40.9630 H   0  0  0  0  0  0  0  0  0  0  0  0
   36.8980   31.3260   40.5260 S   0  0  0  0  0  0  0  0  0  0  0  0
   37.9440   30.2290   39.4190 C   0  0  0  0  0  0  0  0  0  0  0  0
   37.6660   29.2300   39.1100 H   0  0  0  0  0  0  0  0  0  0  0  0
   38.8440   30.9080   39.2250 N   0  0  0  0  0  0  0  0  0  0  0  0
   40.1100   32.3200   36.8360 N   0  0  0  0  0  0  0  0  0  0  0  0
   40.5050   31.3580   36.7170 H   0  0  0  0  0  0  0  0  0  0  0  0
   39.4820   33.1300   36.6020 H   0  0  0  0  0  0  0  0  0  0  0  0
  1  2  2  0  0  0  0
  1  6  1  0  0  0  0
  2  3  1  0  0  0  0
  3  9  1  0  0  0  0
  3  4  2  0  0  0  0
  5  4  1  0  0  0  0
  5  8  1  0  0  0  0
  6  5  2  0  0  0  0
  7  1  1  0  0  0  0
  9 10  2  0  0  0  0
 10 12  1  0  0  0  0
 10 11  1  0  0  0  0
 13 12  1  0  0  0  0
 14 13  1  0  0  0  0
 15 13  2  0  0  0  0
 15  9  1  0  0  0  0
 16  2  1  0  0  0  0
 17 16  1  0  0  0  0
 18 16  1  0  0  0  0
M  END
>  <minimizedAffinity>
-3.66341782

$$$$

 OpenBabel03242522123D

 18 19  0  0  0  0  0  0  0  0999 V2000
   36.4800   30.5600   41.2190 C   0  0  0  0  0  0  0  0  0  0  0  0
   36.9020   29.3350   41.7630 C   0  0  0  0  0  0  0  0  0  0  0  0
   37.1550   28.2820   40.9040 C   0  0  0  0  0  0  0  0  0  0  0  0
   36.9690   28.5260   39.5660 N   0  0  0  0  0  0  0  0  0  0  0  0
   36.5680   29.7000   39.0730 C   0  0  0  0  0  0  0  0  0  0  0  0
   36.3200   30.7240   39.9060 N   0  0  0  0  0  0  0  0  0  0  0  0
   36.2790   31.3870   41.8740 H   0  0  0  0  0  0  0  0  0  0  0  0
   36.4980   29.6370   37.9990 H   0  0  0  0  0  0  0  0  0  0  0  0
   37.6000   26.9720   41.4010 C   0  0  0  0  0  0  0  0  0  0  0  0
   37.0730   25.7920   40.9770 C   0  0  0  0  0  0  0  0  0  0  0  0
   36.3090   25.4510   40.2780 H   0  0  0  0  0  0  0  0  0  0  0  0
   38.0250   24.5350   41.9500 S   0  0  0  0  0  0  0  0  0  0  0  0
   39.0020   25.9010   42.7880 C   0  0  0  0  0  0  0  0  0  0  0  0
   39.7760   25.7340   43.5270 H   0  0  0  0  0  0  0  0  0  0  0  0
   38.5450   26.8290   42.3010 N   0  0  0  0  0  0  0  0  0  0  0  0
   37.0350   29.2820   43.1760 N   0  0  0  0  0  0  0  0  0  0  0  0
   36.0980   28.9970   43.5480 H   0  0  0  0  0  0  0  0  0  0  0  0
   38.0460   29.5610   43.2470 H   0  0  0  0  0  0  0  0  0  0  0  0
  1  2  1  0  0  0  0
  1  7  1  0  0  0  0
  2 16  1  0  0  0  0
  3  9  1  0  0  0  0
  3  2  2  0  0  0  0
  4  3  1  0  0  0  0
  5  4  2  0  0  0  0
  5  6  1  0  0  0  0
  6  1  2  0  0  0  0
  8  5  1  0  0  0  0
  9 15  1  0  0  0  0
 10  9  2  0  0  0  0
 10 12  1  0  0  0  0
 11 10  1  0  0  0  0
 12 13  1  0  0  0  0
 13 14  1  0  0  0  0
 15 13  2  0  0  0  0
 16 18  1  0  0  0  0
 16 17  1  0  0  0  0
M  END
>  <minimizedAffinity>
-3.52102757

$$$$

 OpenBabel03242522123D

 18 19  0  0  0  0  0  0  0  0999 V2000
   36.9460   27.2460   41.5810 C   0  0  0  0  0  0  0  0  0  0  0  0
   37.2490   28.4840   40.9880 C   0  0  0  0  0  0  0  0  0  0  0  0
   37.6830   29.5160   41.7990 C   0  0  0  0  0  0  0  0  0  0  0  0
   37.7820   29.2400   43.1400 N   0  0  0  0  0  0  0  0  0  0  0  0
   37.4880   28.0550   43.6800 C   0  0  0  0  0  0  0  0  0  0  0  0
   37.0650   27.0510   42.8940 N   0  0  0  0  0  0  0  0  0  0  0  0
   36.6060   26.4350   40.9640 H   0  0  0  0  0  0  0  0  0  0  0  0
   37.6460   28.0920   44.7450 H   0  0  0  0  0  0  0  0  0  0  0  0
   38.0180   30.8370   41.2490 C   0  0  0  0  0  0  0  0  0  0  0  0
   39.2160   31.4500   41.4510 C   0  0  0  0  0  0  0  0  0  0  0  0
   40.1540   31.2450   41.9680 H   0  0  0  0  0  0  0  0  0  0  0  0
   39.0300   33.0460   40.5290 S   0  0  0  0  0  0  0  0  0  0  0  0
   37.2880   32.5680   40.0200 C   0  0  0  0  0  0  0  0  0  0  0  0
   36.6380   33.1830   39.4110 H   0  0  0  0  0  0  0  0  0  0  0  0
   37.1880   31.5420   40.5160 N   0  0  0  0  0  0  0  0  0  0  0  0
   37.0800   28.5690   39.5810 N   0  0  0  0  0  0  0  0  0  0  0  0
   36.0880   28.8630   39.4220 H   0  0  0  0  0  0  0  0  0  0  0  0
   38.0530   28.2930   39.2910 H   0  0  0  0  0  0  0  0  0  0  0  0
  1  6  1  0  0  0  0
  2  1  2  0  0  0  0
  2  3  1  0  0  0  0
  3  4  2  0  0  0  0
  4  5  1  0  0  0  0
  5  8  1  0  0  0  0
  6  5  2  0  0  0  0
  7  1  1  0  0  0  0
  9 10  2  0  0  0  0
  9  3  1  0  0  0  0
 10 11  1  0  0  0  0
 12 10  1  0  0  0  0
 13 15  2  0  0  0  0
 13 12  1  0  0  0  0
 14 13  1  0  0  0  0
 15  9  1  0  0  0  0
 16  2  1  0  0  0  0
 17 16  1  0  0  0  0
 18 16  1  0  0  0  0
M  END
>  <minimizedAffinity>
-3.48842907

$$$$

 OpenBabel03242522123D

 18 19  0  0  0  0  0  0  0  0999 V2000
   40.8150   34.0020   39.3330 C   0  0  0  0  0  0  0  0  0  0  0  0
   39.7500   33.3090   39.9340 C   0  0  0  0  0  0  0  0  0  0  0  0
   39.2600   32.1790   39.3060 C   0  0  0  0  0  0  0  0  0  0  0  0
   39.8660   31.8230   38.1280 N   0  0  0  0  0  0  0  0  0  0  0  0
   40.8770   32.4980   37.5760 C   0  0  0  0  0  0  0  0  0  0  0  0
   41.3540   33.5970   38.1840 N   0  0  0  0  0  0  0  0  0  0  0  0
   41.2060   34.8830   39.8080 H   0  0  0  0  0  0  0  0  0  0  0  0
   41.1740   32.0200   36.6580 H   0  0  0  0  0  0  0  0  0  0  0  0
   38.1500   31.4030   39.8760 C   0  0  0  0  0  0  0  0  0  0  0  0
   36.9370   31.2760   39.2720 C   0  0  0  0  0  0  0  0  0  0  0  0
   36.4480   31.6170   38.3590 H   0  0  0  0  0  0  0  0  0  0  0  0
   35.9900   30.2080   40.4530 S   0  0  0  0  0  0  0  0  0  0  0  0
   37.4770   30.1270   41.5970 C   0  0  0  0  0  0  0  0  0  0  0  0
   37.4980   29.5860   42.5340 H   0  0  0  0  0  0  0  0  0  0  0  0
   38.2320   30.7650   41.0210 N   0  0  0  0  0  0  0  0  0  0  0  0
   39.2600   33.8390   41.1570 N   0  0  0  0  0  0  0  0  0  0  0  0
   38.5170   34.5300   40.9000 H   0  0  0  0  0  0  0  0  0  0  0  0
   39.8700   33.2940   41.8170 H   0  0  0  0  0  0  0  0  0  0  0  0
  1  7  1  0  0  0  0
  1  2  1  0  0  0  0
  2 16  1  0  0  0  0
  3  9  1  0  0  0  0
  3  2  2  0  0  0  0
  4  3  1  0  0  0  0
  5  4  2  0  0  0  0
  5  6  1  0  0  0  0
  6  1  2  0  0  0  0
  8  5  1  0  0  0  0
  9 15  1  0  0  0  0
 10  9  2  0  0  0  0
 10 12  1  0  0  0  0
 11 10  1  0  0  0  0
 12 13  1  0  0  0  0
 13 14  1  0  0  0  0
 15 13  2  0  0  0  0
 16 18  1  0  0  0  0
 17 16  1  0  0  0  0
M  END
>  <minimizedAffinity>
-3.43222642

$$$$

 OpenBabel03242522123D

 18 19  0  0  0  0  0  0  0  0999 V2000
   39.6110   27.8120   43.0480 C   0  0  0  0  0  0  0  0  0  0  0  0
   39.5680   28.9840   42.2740 C   0  0  0  0  0  0  0  0  0  0  0  0
   38.3690   29.6650   42.1740 C   0  0  0  0  0  0  0  0  0  0  0  0
   37.3030   29.1290   42.8520 N   0  0  0  0  0  0  0  0  0  0  0  0
   37.3700   28.0130   43.5820 C   0  0  0  0  0  0  0  0  0  0  0  0
   38.5330   27.3490   43.6800 N   0  0  0  0  0  0  0  0  0  0  0  0
   40.5360   27.2710   43.1340 H   0  0  0  0  0  0  0  0  0  0  0  0
   36.4040   27.8030   44.0120 H   0  0  0  0  0  0  0  0  0  0  0  0
   38.2480   30.8970   41.3820 C   0  0  0  0  0  0  0  0  0  0  0  0
   37.1670   31.1870   40.6080 C   0  0  0  0  0  0  0  0  0  0  0  0
   36.2130   30.7290   40.3450 H   0  0  0  0  0  0  0  0  0  0  0  0
   37.6020   32.8350   39.8820 S   0  0  0  0  0  0  0  0  0  0  0  0
   39.2390   32.8260   40.8010 C   0  0  0  0  0  0  0  0  0  0  0  0
   39.9750   33.6180   40.7470 H   0  0  0  0  0  0  0  0  0  0  0  0
   39.1750   31.8260   41.3540 N   0  0  0  0  0  0  0  0  0  0  0  0
   40.7810   29.3750   41.6480 N   0  0  0  0  0  0  0  0  0  0  0  0
   40.7990   28.8940   40.7180 H   0  0  0  0  0  0  0  0  0  0  0  0
   41.1540   29.9980   42.4080 H   0  0  0  0  0  0  0  0  0  0  0  0
  1  7  1  0  0  0  0
  1  6  1  0  0  0  0
  2  1  2  0  0  0  0
  3  2  1  0  0  0  0
  3  4  2  0  0  0  0
  4  5  1  0  0  0  0
  5  6  2  0  0  0  0
  5  8  1  0  0  0  0
  9  3  1  0  0  0  0
 10  9  2  0  0  0  0
 11 10  1  0  0  0  0
 12 10  1  0  0  0  0
 12 13  1  0  0  0  0
 13 15  2  0  0  0  0
 14 13  1  0  0  0  0
 15  9  1  0  0  0  0
 16  2  1  0  0  0  0
 16 18  1  0  0  0  0
 17 16  1  0  0  0  0
M  END
>  <minimizedAffinity>
-3.41010261

$$$$

 OpenBabel03242522123D

 18 19  0  0  0  0  0  0  0  0999 V2000
   38.7970   24.8210   42.1750 C   0  0  0  0  0  0  0  0  0  0  0  0
   38.0270   25.8780   41.6600 C   0  0  0  0  0  0  0  0  0  0  0  0
   38.1960   27.1410   42.1970 C   0  0  0  0  0  0  0  0  0  0  0  0
   39.1180   27.2570   43.2070 N   0  0  0  0  0  0  0  0  0  0  0  0
   39.8380   26.2370   43.6800 C   0  0  0  0  0  0  0  0  0  0  0  0
   39.6750   25.0090   43.1600 N   0  0  0  0  0  0  0  0  0  0  0  0
   38.6760   23.8340   41.7680 H   0  0  0  0  0  0  0  0  0  0  0  0
   40.4870   26.5840   44.4670 H   0  0  0  0  0  0  0  0  0  0  0  0
   37.4270   28.2940   41.7090 C   0  0  0  0  0  0  0  0  0  0  0  0
   37.9120   29.5650   41.6930 C   0  0  0  0  0  0  0  0  0  0  0  0
   38.8300   30.0850   41.9660 H   0  0  0  0  0  0  0  0  0  0  0  0
   36.5050   30.5400   40.9850 S   0  0  0  0  0  0  0  0  0  0  0  0
   35.4750   28.9780   40.8370 C   0  0  0  0  0  0  0  0  0  0  0  0
   34.4650   28.9460   40.4480 H   0  0  0  0  0  0  0  0  0  0  0  0
   36.2020   28.1960   41.2470 N   0  0  0  0  0  0  0  0  0  0  0  0
   37.1250   25.5530   40.6120 N   0  0  0  0  0  0  0  0  0  0  0  0
   36.2280   25.2730   41.0750 H   0  0  0  0  0  0  0  0  0  0  0  0
   37.7630   25.7370   39.7970 H   0  0  0  0  0  0  0  0  0  0  0  0
  1  6  1  0  0  0  0
  2  1  2  0  0  0  0
  2  3  1  0  0  0  0
  3  4  2  0  0  0  0
  4  5  1  0  0  0  0
  5  8  1  0  0  0  0
  6  5  2  0  0  0  0
  7  1  1  0  0  0  0
  9  3  1  0  0  0  0
 10  9  2  0  0  0  0
 10 11  1  0  0  0  0
 12 10  1  0  0  0  0
 13 12  1  0  0  0  0
 13 15  2  0  0  0  0
 14 13  1  0  0  0  0
 15  9  1  0  0  0  0
 16 17  1  0  0  0  0
 16  2  1  0  0  0  0
 18 16  1  0  0  0  0
M  END
>  <minimizedAffinity>
-3.39989495

$$$$
