
 OpenBabel03242520223D

 42 45  0  0  0  0  0  0  0  0999 V2000
   39.5520   35.3680   40.2000 C   0  0  0  0  0  0  0  0  0  0  0  0
   39.5020   35.1870   41.2780 H   0  0  0  0  0  0  0  0  0  0  0  0
   38.8010   36.1640   39.9900 H   0  0  0  0  0  0  0  0  0  0  0  0
   38.9370   33.0170   40.0840 C   0  0  0  0  0  0  0  0  0  0  0  0
   38.8810   32.9020   41.3540 O   0  0  0  0  0  0  0  0  0  0  0  0
   39.1820   34.2200   39.3990 N   0  0  0  0  0  0  0  0  0  0  0  0
   39.1160   34.3370   38.3850 H   0  0  0  0  0  0  0  0  0  0  0  0
   38.7330   31.8070   39.2530 C   0  0  0  0  0  0  0  0  0  0  0  0
   38.8900   31.9110   37.8880 C   0  0  0  0  0  0  0  0  0  0  0  0
   38.7410   30.8770   36.9840 C   0  0  0  0  0  0  0  0  0  0  0  0
   38.4070   29.6450   37.5140 C   0  0  0  0  0  0  0  0  0  0  0  0
   38.2570   29.5840   38.8970 C   0  0  0  0  0  0  0  0  0  0  0  0
   38.4110   30.6080   39.7260 N   0  0  0  0  0  0  0  0  0  0  0  0
   39.1540   32.8870   37.4870 H   0  0  0  0  0  0  0  0  0  0  0  0
   38.8760   31.0130   35.9190 H   0  0  0  0  0  0  0  0  0  0  0  0
   38.2900   28.8420   36.8280 H   0  0  0  0  0  0  0  0  0  0  0  0
   37.8970   28.2620   39.4900 C   0  0  0  0  0  0  0  0  0  0  0  0
   38.3080   27.9160   40.8460 C   0  0  0  0  0  0  0  0  0  0  0  0
   38.9060   28.5370   41.5890 H   0  0  0  0  0  0  0  0  0  0  0  0
   37.6290   26.2430   41.0640 S   0  0  0  0  0  0  0  0  0  0  0  0
   36.8970   26.2450   39.3210 C   0  0  0  0  0  0  0  0  0  0  0  0
   36.3250   25.4970   38.7780 H   0  0  0  0  0  0  0  0  0  0  0  0
   37.2120   27.3130   38.8990 N   0  0  0  0  0  0  0  0  0  0  0  0
   40.8880   35.9740   39.7720 C   0  0  0  0  0  0  0  0  0  0  0  0
   40.9280   36.0010   38.6750 H   0  0  0  0  0  0  0  0  0  0  0  0
   41.0090   36.9800   40.1780 H   0  0  0  0  0  0  0  0  0  0  0  0
   43.7760   34.5940   41.7950 C   0  0  0  0  0  0  0  0  0  0  0  0
   42.7250   35.4520   41.3730 C   0  0  0  0  0  0  0  0  0  0  0  0
   41.9930   35.1260   40.2480 C   0  0  0  0  0  0  0  0  0  0  0  0
   42.3500   33.9580   39.6010 N   0  0  0  0  0  0  0  0  0  0  0  0
   43.3670   33.1730   40.0490 C   0  0  0  0  0  0  0  0  0  0  0  0
   44.0770   33.4900   41.1420 N   0  0  0  0  0  0  0  0  0  0  0  0
   42.4660   36.3620   41.8960 H   0  0  0  0  0  0  0  0  0  0  0  0
   43.6070   32.2640   39.5050 H   0  0  0  0  0  0  0  0  0  0  0  0
   44.5570   34.9770   43.0090 C   0  0  0  0  0  0  0  0  0  0  0  0
   46.0440   35.3460   42.6240 C   0  0  0  0  0  0  0  0  0  0  0  0
   45.0930   36.2470   43.2830 C   0  0  0  0  0  0  0  0  0  0  0  0
   44.5320   34.1380   43.7630 H   0  0  0  0  0  0  0  0  0  0  0  0
   46.2460   35.5390   41.5690 H   0  0  0  0  0  0  0  0  0  0  0  0
   46.8240   34.7930   43.1560 H   0  0  0  0  0  0  0  0  0  0  0  0
   44.7180   37.1320   42.7020 H   0  0  0  0  0  0  0  0  0  0  0  0
   45.2940   36.5400   44.3350 H   0  0  0  0  0  0  0  0  0  0  0  0
  1  2  1  0  0  0  0
  3  1  1  0  0  0  0
  4  5  2  0  0  0  0
  6  4  1  0  0  0  0
  6  1  1  0  0  0  0
  7  6  1  0  0  0  0
  8 13  1  0  0  0  0
  8  4  1  0  0  0  0
  9  8  2  0  0  0  0
 10 11  2  0  0  0  0
 10  9  1  0  0  0  0
 11 12  1  0  0  0  0
 12 17  1  0  0  0  0
 12 13  2  0  0  0  0
 14  9  1  0  0  0  0
 15 10  1  0  0  0  0
 16 11  1  0  0  0  0
 17 18  2  0  0  0  0
 18 20  1  0  0  0  0
 18 19  1  0  0  0  0
 21 20  1  0  0  0  0
 22 21  1  0  0  0  0
 23 21  2  0  0  0  0
 23 17  1  0  0  0  0
 24 26  1  0  0  0  0
 24  1  1  0  0  0  0
 24 29  1  0  0  0  0
 25 24  1  0  0  0  0
 27 35  1  0  0  0  0
 28 27  1  0  0  0  0
 28 33  1  0  0  0  0
 29 28  2  0  0  0  0
 30 31  2  0  0  0  0
 30 29  1  0  0  0  0
 31 32  1  0  0  0  0
 32 27  2  0  0  0  0
 34 31  1  0  0  0  0
 35 37  1  0  0  0  0
 35 38  1  0  0  0  0
 36 35  1  0  0  0  0
 36 40  1  0  0  0  0
 36 37  1  0  0  0  0
 37 42  1  0  0  0  0
 39 36  1  0  0  0  0
 41 37  1  0  0  0  0
M  END
>  <minimizedAffinity>
-4.93297338

>  <minimizedRMSD>
1.77951312

$$$$
