
 OpenBabel03252504423D

 43 46  0  0  0  0  0  0  0  0999 V2000
   46.3600   32.2360   47.7940 C   0  0  0  0  0  0  0  0  0  0  0  0
   45.8910   31.8330   49.0150 C   0  0  0  0  0  0  0  0  0  0  0  0
   46.8940   31.1590   49.5940 N   0  0  0  0  0  0  0  0  0  0  0  0
   47.9680   31.1220   48.7960 C   0  0  0  0  0  0  0  0  0  0  0  0
   47.6150   31.8040   47.6670 N   0  0  0  0  0  0  0  0  0  0  0  0
   49.2450   30.5360   48.9690 N   0  0  0  0  0  0  0  0  0  0  0  0
   50.2860   31.3340   49.6380 C   0  0  0  0  0  0  0  0  0  0  0  0
   50.3860   30.7440   51.0410 C   0  0  0  0  0  0  0  0  0  0  0  0
   50.4860   29.2410   50.9690 C   0  0  0  0  0  0  0  0  0  0  0  0
   50.8490   28.8130   49.5620 C   0  0  0  0  0  0  0  0  0  0  0  0
   49.7720   29.2440   48.6060 C   0  0  0  0  0  0  0  0  0  0  0  0
   44.9110   32.0080   49.4530 H   0  0  0  0  0  0  0  0  0  0  0  0
   46.8710   30.7130   50.5390 H   0  0  0  0  0  0  0  0  0  0  0  0
   51.2460   31.2810   49.1120 H   0  0  0  0  0  0  0  0  0  0  0  0
   49.9750   32.3990   49.7270 H   0  0  0  0  0  0  0  0  0  0  0  0
   49.5820   31.1100   51.6860 H   0  0  0  0  0  0  0  0  0  0  0  0
   51.3340   31.0850   51.5180 H   0  0  0  0  0  0  0  0  0  0  0  0
   49.5470   28.7460   51.3230 H   0  0  0  0  0  0  0  0  0  0  0  0
   51.2980   28.8240   51.6280 H   0  0  0  0  0  0  0  0  0  0  0  0
   50.9790   27.6970   49.5640 H   0  0  0  0  0  0  0  0  0  0  0  0
   51.8290   29.2470   49.3280 H   0  0  0  0  0  0  0  0  0  0  0  0
   50.1150   29.2120   47.5650 H   0  0  0  0  0  0  0  0  0  0  0  0
   48.9280   28.5110   48.7540 H   0  0  0  0  0  0  0  0  0  0  0  0
   45.6090   33.0260   46.7680 C   0  0  0  0  0  0  0  0  0  0  0  0
   45.3750   34.0510   47.1250 H   0  0  0  0  0  0  0  0  0  0  0  0
   44.6240   32.5050   46.6660 H   0  0  0  0  0  0  0  0  0  0  0  0
   46.0850   33.9960   44.5620 C   0  0  0  0  0  3  0  0  0  0  0  0
   46.3540   33.1010   45.5040 C   0  0  0  0  0  3  0  0  0  0  0  0
   46.9080   33.9600   43.3450 C   0  0  0  0  0  0  0  0  0  0  0  0
   46.9290   35.0040   42.3930 C   0  0  0  0  0  0  0  0  0  0  0  0
   47.7330   34.8800   41.2860 C   0  0  0  0  0  0  0  0  0  0  0  0
   48.4810   33.7690   41.1370 N   0  0  0  0  0  0  0  0  0  0  0  0
   48.4500   32.7810   42.0550 C   0  0  0  0  0  0  0  0  0  0  0  0
   47.6880   32.8650   43.1320 N   0  0  0  0  0  0  0  0  0  0  0  0
   46.3000   35.8570   42.5920 H   0  0  0  0  0  0  0  0  0  0  0  0
   47.7630   35.6680   40.5480 H   0  0  0  0  0  0  0  0  0  0  0  0
   49.2400   31.5320   41.9610 C   0  0  0  0  0  0  0  0  0  0  0  0
   48.9130   30.1740   41.3970 C   0  0  0  0  0  0  0  0  0  0  0  0
   47.7700   30.3220   41.0000 H   0  0  0  0  0  0  0  0  0  0  0  0
   50.5680   29.3340   41.7700 S   0  0  0  0  0  0  0  0  0  0  0  0
   51.2990   30.8930   42.5560 C   0  0  0  0  0  0  0  0  0  0  0  0
   52.2970   30.6160   42.8550 H   0  0  0  0  0  0  0  0  0  0  0  0
   50.4180   31.8210   42.5120 N   0  0  0  0  0  0  0  0  0  0  0  0
  1  2  2  0  0  0  0
  2 12  1  0  0  0  0
  2  3  1  0  0  0  0
  3 13  1  0  0  0  0
  4  6  1  0  0  0  0
  4  3  1  0  0  0  0
  5  1  1  0  0  0  0
  5  4  2  0  0  0  0
  6  7  1  0  0  0  0
  7 15  1  0  0  0  0
  7  8  1  0  0  0  0
  8 17  1  0  0  0  0
  8 16  1  0  0  0  0
  9  8  1  0  0  0  0
  9 18  1  0  0  0  0
  9 19  1  0  0  0  0
 10 20  1  0  0  0  0
 10  9  1  0  0  0  0
 11 23  1  0  0  0  0
 11  6  1  0  0  0  0
 11 10  1  0  0  0  0
 14  7  1  0  0  0  0
 21 10  1  0  0  0  0
 22 11  1  0  0  0  0
 24 25  1  0  0  0  0
 24  1  1  0  0  0  0
 26 24  1  0  0  0  0
 27 28  2  0  0  0  0
 28 24  1  0  0  0  0
 29 27  1  0  0  0  0
 30 35  1  0  0  0  0
 30 29  2  0  0  0  0
 31 30  1  0  0  0  0
 32 31  2  0  0  0  0
 32 33  1  0  0  0  0
 33 34  2  0  0  0  0
 34 29  1  0  0  0  0
 36 31  1  0  0  0  0
 37 33  1  0  0  0  0
 37 43  1  0  0  0  0
 38 40  1  0  0  0  0
 38 37  2  0  0  0  0
 39 38  1  0  0  0  0
 40 41  1  0  0  0  0
 41 42  1  0  0  0  0
 43 41  2  0  0  0  0
M  END
>  <minimizedAffinity>
-5.57815409

>  <minimizedRMSD>
0.883207977

$$$$
