
 OpenBabel03252506523D

 29 32  0  0  0  0  0  0  0  0999 V2000
   47.2940   31.4090   45.1960 C   0  0  0  0  0  0  0  0  0  0  0  0
   46.8880   32.7170   45.1350 C   0  0  0  0  0  0  0  0  0  0  0  0
   46.2260   33.3270   46.1920 C   0  0  0  0  0  0  0  0  0  0  0  0
   45.9610   32.6100   47.3480 C   0  0  0  0  0  0  0  0  0  0  0  0
   45.3570   32.8590   48.5460 N   0  0  0  0  0  0  0  0  0  0  0  0
   45.3980   31.7380   49.3070 C   0  0  0  0  0  0  0  0  0  0  0  0
   46.0270   30.8000   48.5710 N   0  0  0  0  0  0  0  0  0  0  0  0
   46.3810   31.3070   47.3710 C   0  0  0  0  0  0  0  0  0  0  0  0
   47.0410   30.6640   46.3440 C   0  0  0  0  0  0  0  0  0  0  0  0
   47.8040   30.9950   44.3400 H   0  0  0  0  0  0  0  0  0  0  0  0
   45.9000   34.3530   46.1610 H   0  0  0  0  0  0  0  0  0  0  0  0
   44.9620   33.8260   48.7210 H   0  0  0  0  0  0  0  0  0  0  0  0
   44.9750   31.7020   50.3080 H   0  0  0  0  0  0  0  0  0  0  0  0
   46.4790   35.1660   42.4240 C   0  0  0  0  0  0  0  0  0  0  0  0
   47.6450   35.0000   41.6770 C   0  0  0  0  0  0  0  0  0  0  0  0
   48.5630   34.0400   42.1180 C   0  0  0  0  0  0  0  0  0  0  0  0
   48.2700   33.3220   43.2520 N   0  0  0  0  0  0  0  0  0  0  0  0
   47.1450   33.5030   43.9470 C   0  0  0  0  0  0  0  0  0  0  0  0
   46.2590   34.4250   43.5250 N   0  0  0  0  0  0  0  0  0  0  0  0
   45.7250   35.8880   42.1430 H   0  0  0  0  0  0  0  0  0  0  0  0
   47.8280   35.5830   40.8020 H   0  0  0  0  0  0  0  0  0  0  0  0
   49.4880   33.8610   41.5830 H   0  0  0  0  0  0  0  0  0  0  0  0
   47.4730   29.2490   46.4260 C   0  0  0  0  0  0  0  0  0  0  0  0
   48.8140   28.9050   46.6200 C   0  0  0  0  0  0  0  0  0  0  0  0
   49.6540   29.5790   46.7290 H   0  0  0  0  0  0  0  0  0  0  0  0
   48.7550   27.0750   46.6390 S   0  0  0  0  0  0  0  0  0  0  0  0
   46.8710   27.0950   46.3740 C   0  0  0  0  0  0  0  0  0  0  0  0
   46.1830   26.2330   46.2890 H   0  0  0  0  0  0  0  0  0  0  0  0
   46.6090   28.2320   46.3190 N   0  0  0  0  0  0  0  0  0  0  0  0
  1  9  1  0  0  0  0
  2  1  2  0  0  0  0
  2  3  1  0  0  0  0
  3  4  2  0  0  0  0
  4  8  1  0  0  0  0
  4  5  1  0  0  0  0
  5 12  1  0  0  0  0
  5  6  1  0  0  0  0
  6 13  1  0  0  0  0
  7  6  2  0  0  0  0
  8  7  1  0  0  0  0
  9 23  1  0  0  0  0
  9  8  2  0  0  0  0
 10  1  1  0  0  0  0
 11  3  1  0  0  0  0
 14 19  1  0  0  0  0
 15 16  1  0  0  0  0
 15 14  2  0  0  0  0
 16 17  2  0  0  0  0
 17 18  1  0  0  0  0
 18  2  1  0  0  0  0
 19 18  2  0  0  0  0
 20 14  1  0  0  0  0
 21 15  1  0  0  0  0
 22 16  1  0  0  0  0
 23 24  2  0  0  0  0
 24 26  1  0  0  0  0
 24 25  1  0  0  0  0
 27 26  1  0  0  0  0
 28 27  1  0  0  0  0
 29 27  2  0  0  0  0
 29 23  1  0  0  0  0
M  END
>  <minimizedAffinity>
-5.15380621

>  <minimizedRMSD>
0.499302685

$$$$
