
 OpenBabel03252504493D

 22 23  0  0  0  0  0  0  0  0999 V2000
   45.5420   34.6820   44.3220 C   0  0  0  0  0  0  0  0  0  0  0  0
   46.5240   34.3930   43.3760 C   0  0  0  0  0  0  0  0  0  0  0  0
   47.4040   33.3510   43.6640 C   0  0  0  0  0  0  0  0  0  0  0  0
   47.2570   32.6770   44.8460 N   0  0  0  0  0  0  0  0  0  0  0  0
   46.2940   32.9840   45.7370 C   0  0  0  0  0  0  0  0  0  0  0  0
   45.4280   33.9950   45.4760 N   0  0  0  0  0  0  0  0  0  0  0  0
   44.8280   35.4870   44.1480 H   0  0  0  0  0  0  0  0  0  0  0  0
   48.1780   33.0940   42.9610 H   0  0  0  0  0  0  0  0  0  0  0  0
   46.1550   32.2510   46.9920 C   0  0  0  0  0  0  0  0  0  0  0  0
   45.1560   32.6240   47.9450 C   0  0  0  0  0  0  0  0  0  0  0  0
   44.4660   33.4100   47.8520 H   0  0  0  0  0  0  0  0  0  0  0  0
   45.4500   31.3830   49.2830 S   0  0  0  0  0  0  0  0  0  0  0  0
   46.8750   30.5890   48.2950 C   0  0  0  0  0  0  0  0  0  0  0  0
   47.4700   29.7320   48.6350 H   0  0  0  0  0  0  0  0  0  0  0  0
   46.8990   31.2250   47.3510 N   0  0  0  0  0  0  0  0  0  0  0  0
   46.5740   35.1750   42.1640 C   0  0  0  0  0  0  0  0  0  0  0  0
   46.1290   36.1630   42.2940 H   0  0  0  0  0  0  0  0  0  0  0  0
   46.0090   34.6210   41.3610 H   0  0  0  0  0  0  0  0  0  0  0  0
   48.0170   35.2610   41.7010 C   0  0  0  0  0  0  0  0  0  0  0  0
   48.0520   35.2090   40.5760 H   0  0  0  0  0  0  0  0  0  0  0  0
   48.6310   34.5040   42.1890 H   0  0  0  0  0  0  0  0  0  0  0  0
   48.3960   36.2900   41.9710 H   0  0  0  0  0  0  0  0  0  0  0  0
  1  6  1  0  0  0  0
  2  3  1  0  0  0  0
  2  1  2  0  0  0  0
  3  4  2  0  0  0  0
  4  5  1  0  0  0  0
  5  9  1  0  0  0  0
  6  5  2  0  0  0  0
  7  1  1  0  0  0  0
  8  3  1  0  0  0  0
  9 15  1  0  0  0  0
  9 10  2  0  0  0  0
 10 12  1  0  0  0  0
 11 10  1  0  0  0  0
 13 14  1  0  0  0  0
 13 12  1  0  0  0  0
 15 13  2  0  0  0  0
 16 17  1  0  0  0  0
 16  2  1  0  0  0  0
 18 16  1  0  0  0  0
 19 22  1  0  0  0  0
 19 16  1  0  0  0  0
 19 21  1  0  0  0  0
 20 19  1  0  0  0  0
M  END
>  <minimizedAffinity>
-4.10217237

>  <minimizedRMSD>
1.66125298

$$$$
