
 OpenBabel03252504493D

 22 23  0  0  0  0  0  0  0  0999 V2000
   47.4530   33.5510   43.6190 C   0  0  0  0  0  0  0  0  0  0  0  0
   46.5370   34.4020   43.0020 C   0  0  0  0  0  0  0  0  0  0  0  0
   46.6770   34.6050   41.6290 C   0  0  0  0  0  0  0  0  0  0  0  0
   47.6920   33.9650   40.9720 N   0  0  0  0  0  0  0  0  0  0  0  0
   48.5590   33.1480   41.6030 C   0  0  0  0  0  0  0  0  0  0  0  0
   48.4410   32.9380   42.9380 N   0  0  0  0  0  0  0  0  0  0  0  0
   47.3900   33.3580   44.6900 H   0  0  0  0  0  0  0  0  0  0  0  0
   45.9910   35.2550   41.1120 H   0  0  0  0  0  0  0  0  0  0  0  0
   49.6350   32.4750   40.8810 C   0  0  0  0  0  0  0  0  0  0  0  0
   49.4320   32.0030   39.5470 C   0  0  0  0  0  0  0  0  0  0  0  0
   48.5500   32.0830   38.9820 H   0  0  0  0  0  0  0  0  0  0  0  0
   51.0840   31.2660   39.1660 S   0  0  0  0  0  0  0  0  0  0  0  0
   51.7400   31.7390   40.8940 C   0  0  0  0  0  0  0  0  0  0  0  0
   52.7560   31.5280   41.2560 H   0  0  0  0  0  0  0  0  0  0  0  0
   50.8380   32.2490   41.3660 N   0  0  0  0  0  0  0  0  0  0  0  0
   45.5080   35.0160   43.8040 C   0  0  0  0  0  0  0  0  0  0  0  0
   45.8280   35.1710   44.8350 H   0  0  0  0  0  0  0  0  0  0  0  0
   44.6050   34.3410   43.7980 H   0  0  0  0  0  0  0  0  0  0  0  0
   45.0850   36.3140   43.1410 C   0  0  0  0  0  0  0  0  0  0  0  0
   43.9730   36.4500   43.2600 H   0  0  0  0  0  0  0  0  0  0  0  0
   45.4180   36.3520   42.1040 H   0  0  0  0  0  0  0  0  0  0  0  0
   45.5590   37.1590   43.7220 H   0  0  0  0  0  0  0  0  0  0  0  0
  1  7  1  0  0  0  0
  2  1  1  0  0  0  0
  2 16  1  0  0  0  0
  3  2  2  0  0  0  0
  4  5  2  0  0  0  0
  4  3  1  0  0  0  0
  5  6  1  0  0  0  0
  6  1  2  0  0  0  0
  8  3  1  0  0  0  0
  9 15  1  0  0  0  0
  9  5  1  0  0  0  0
 10  9  2  0  0  0  0
 11 10  1  0  0  0  0
 12 10  1  0  0  0  0
 12 13  1  0  0  0  0
 13 14  1  0  0  0  0
 13 15  2  0  0  0  0
 16 17  1  0  0  0  0
 18 16  1  0  0  0  0
 19 20  1  0  0  0  0
 19 22  1  0  0  0  0
 19 16  1  0  0  0  0
 21 19  1  0  0  0  0
M  END
>  <minimizedAffinity>
-3.37557459

>  <minimizedRMSD>
6.87705564

$$$$
