
 OpenBabel03242516253D

 41 45  0  0  0  0  0  0  0  0999 V2000
   49.7780   30.2270   49.4600 C   0  0  0  0  0  0  0  0  0  0  0  0
   50.0200   31.4050   50.0880 N   0  0  0  0  0  0  0  0  0  0  0  0
   50.6870   31.4930   51.2460 C   0  0  0  0  0  0  0  0  0  0  0  0
   51.1310   30.3520   51.7970 N   0  0  0  0  0  0  0  0  0  0  0  0
   50.9420   29.1470   51.2530 C   0  0  0  0  0  0  0  0  0  0  0  0
   51.4130   27.9720   51.8080 C   0  0  0  0  0  0  0  0  0  0  0  0
   51.1930   26.7560   51.1780 C   0  0  0  0  0  0  0  0  0  0  0  0
   50.5030   26.6670   49.9850 C   0  0  0  0  0  0  0  0  0  0  0  0
   50.0460   27.8520   49.4570 C   0  0  0  0  0  0  0  0  0  0  0  0
   50.2470   29.0700   50.0530 C   0  0  0  0  0  0  0  0  0  0  0  0
   50.8610   32.4440   51.7200 H   0  0  0  0  0  0  0  0  0  0  0  0
   51.9420   28.1090   52.7420 H   0  0  0  0  0  0  0  0  0  0  0  0
   51.6270   25.9280   51.7420 H   0  0  0  0  0  0  0  0  0  0  0  0
   50.4040   25.6640   49.6010 H   0  0  0  0  0  0  0  0  0  0  0  0
   49.3270   27.5720   48.2160 C   0  0  0  0  0  0  0  0  0  0  0  0
   50.1050   27.5440   46.9210 C   0  0  0  0  0  0  0  0  0  0  0  0
   51.1810   27.6600   46.8780 H   0  0  0  0  0  0  0  0  0  0  0  0
   48.7990   27.2940   45.6690 S   0  0  0  0  0  0  0  0  0  0  0  0
   47.4580   27.2670   47.0160 C   0  0  0  0  0  0  0  0  0  0  0  0
   46.3810   27.1390   46.8740 H   0  0  0  0  0  0  0  0  0  0  0  0
   48.0340   27.4120   47.9710 N   0  0  0  0  0  0  0  0  0  0  0  0
   48.9350   30.0920   47.9090 S   0  0  0  0  0  0  0  0  0  0  0  0
   46.0300   32.7120   46.9250 C   0  0  0  0  0  0  0  0  0  0  0  0
   47.1640   31.9300   46.9400 C   0  0  0  0  0  0  0  0  0  0  0  0
   47.4300   31.0610   47.9700 C   0  0  0  0  0  0  0  0  0  0  0  0
   46.5300   30.9560   49.0470 C   0  0  0  0  0  0  0  0  0  0  0  0
   45.4160   31.7200   49.0390 C   0  0  0  0  0  0  0  0  0  0  0  0
   45.1810   32.5760   47.9950 C   0  0  0  0  0  0  0  0  0  0  0  0
   47.8590   32.0050   46.1170 H   0  0  0  0  0  0  0  0  0  0  0  0
   46.7360   30.2740   49.8610 H   0  0  0  0  0  0  0  0  0  0  0  0
   44.7010   31.6610   49.8570 H   0  0  0  0  0  0  0  0  0  0  0  0
   44.2810   33.1740   48.0180 H   0  0  0  0  0  0  0  0  0  0  0  0
   44.5690   35.4970   45.0530 C   0  0  0  0  0  0  0  0  0  0  0  0
   45.2230   35.4350   43.8190 C   0  0  0  0  0  0  0  0  0  0  0  0
   46.1640   34.4450   43.6140 C   0  0  0  0  0  0  0  0  0  0  0  0
   46.4440   33.5440   44.6100 N   0  0  0  0  0  0  0  0  0  0  0  0
   45.7890   33.6340   45.8010 C   0  0  0  0  0  0  0  0  0  0  0  0
   44.8570   34.6060   46.0160 N   0  0  0  0  0  0  0  0  0  0  0  0
   43.8420   36.2890   45.1610 H   0  0  0  0  0  0  0  0  0  0  0  0
   45.0720   36.0900   42.9850 H   0  0  0  0  0  0  0  0  0  0  0  0
   46.7580   34.2420   42.7500 H   0  0  0  0  0  0  0  0  0  0  0  0
  1 10  2  0  0  0  0
  1  2  1  0  0  0  0
  2  3  2  0  0  0  0
  3 11  1  0  0  0  0
  3  4  1  0  0  0  0
  5  4  2  0  0  0  0
  5  6  1  0  0  0  0
  6 12  1  0  0  0  0
  7 13  1  0  0  0  0
  7  6  2  0  0  0  0
  8  7  1  0  0  0  0
  9  8  2  0  0  0  0
  9 10  1  0  0  0  0
 10  5  1  0  0  0  0
 14  8  1  0  0  0  0
 15  9  1  0  0  0  0
 16 15  2  0  0  0  0
 17 16  1  0  0  0  0
 18 16  1  0  0  0  0
 18 19  1  0  0  0  0
 19 21  2  0  0  0  0
 20 19  1  0  0  0  0
 21 15  1  0  0  0  0
 22 25  1  0  0  0  0
 22  1  1  0  0  0  0
 23 24  2  0  0  0  0
 23 28  1  0  0  0  0
 24 25  1  0  0  0  0
 25 26  2  0  0  0  0
 26 30  1  0  0  0  0
 27 26  1  0  0  0  0
 27 31  1  0  0  0  0
 28 32  1  0  0  0  0
 28 27  2  0  0  0  0
 29 24  1  0  0  0  0
 33 39  1  0  0  0  0
 33 38  1  0  0  0  0
 34 33  2  0  0  0  0
 35 34  1  0  0  0  0
 35 36  2  0  0  0  0
 36 37  1  0  0  0  0
 37 38  2  0  0  0  0
 37 23  1  0  0  0  0
 40 34  1  0  0  0  0
 41 35  1  0  0  0  0
M  END
>  <minimizedAffinity>
-6.53704786

>  <minimizedRMSD>
0.702196956

$$$$
