
 OpenBabel03252502473D

 43 46  0  0  1  0  0  0  0  0999 V2000
   47.8730   34.7540   41.1580 C   0  0  1  0  0  0  0  0  0  0  0  0
   48.9930   35.7050   41.4670 C   0  0  0  0  0  0  0  0  0  0  0  0
   48.9250   34.3570   42.0810 C   0  0  2  0  0  0  0  0  0  0  0  0
   47.8430   34.4050   40.1300 H   0  0  0  0  0  0  0  0  0  0  0  0
   49.7280   35.9430   40.6800 H   0  0  0  0  0  0  0  0  0  0  0  0
   48.7070   36.6120   42.0510 H   0  0  0  0  0  0  0  0  0  0  0  0
   48.8520   34.3600   43.1670 H   0  0  0  0  0  0  0  0  0  0  0  0
   49.8760   33.4090   41.4980 N   0  0  0  0  0  0  0  0  0  0  0  0
   49.3060   32.4630   40.6170 C   0  0  0  0  0  0  0  0  0  0  0  0
   50.4710   31.6040   40.1510 C   0  0  0  0  0  0  0  0  0  0  0  0
   51.0510   30.8760   41.2220 N   0  0  0  0  0  0  0  0  0  0  0  0
   50.9470   31.5380   42.5090 C   0  0  0  0  0  0  0  0  0  0  0  0
   50.9630   33.0580   42.3080 C   0  0  0  0  0  0  0  0  0  0  0  0
   48.9260   33.0040   39.7090 H   0  0  0  0  0  0  0  0  0  0  0  0
   48.5300   31.8140   41.0740 H   0  0  0  0  0  0  0  0  0  0  0  0
   50.1300   30.9460   39.3360 H   0  0  0  0  0  0  0  0  0  0  0  0
   51.2470   32.3440   39.8090 H   0  0  0  0  0  0  0  0  0  0  0  0
   52.0040   30.5520   41.0120 H   0  0  0  0  0  0  0  0  0  0  0  0
   50.0340   31.2850   43.0590 H   0  0  0  0  0  0  0  0  0  0  0  0
   51.8240   31.2930   43.1180 H   0  0  0  0  0  0  0  0  0  0  0  0
   50.8440   33.5090   43.3300 H   0  0  0  0  0  0  0  0  0  0  0  0
   51.9550   33.3630   41.9210 H   0  0  0  0  0  0  0  0  0  0  0  0
   46.5300   35.0640   41.7270 C   0  0  0  0  0  0  0  0  0  0  0  0
   45.8120   35.4650   40.9520 H   0  0  0  0  0  0  0  0  0  0  0  0
   46.5960   35.8710   42.4780 H   0  0  0  0  0  0  0  0  0  0  0  0
   46.0290   33.7970   42.3690 C   0  0  0  0  0  0  0  0  0  0  0  0
   45.0690   33.5390   41.8460 H   0  0  0  0  0  0  0  0  0  0  0  0
   46.6500   32.9210   42.2770 H   0  0  0  0  0  0  0  0  0  0  0  0
   44.4810   35.5440   45.3130 C   0  0  0  0  0  0  0  0  0  0  0  0
   44.8730   35.2600   43.9800 C   0  0  0  0  0  0  0  0  0  0  0  0
   45.5870   34.1230   43.7620 C   0  0  0  0  0  0  0  0  0  0  0  0
   45.8940   33.3100   44.8200 N   0  0  0  0  0  0  0  0  0  0  0  0
   45.5260   33.5840   46.0450 C   0  0  0  0  0  0  0  0  0  0  0  0
   44.8160   34.6980   46.3160 N   0  0  0  0  0  0  0  0  0  0  0  0
   43.9120   36.4470   45.4900 H   0  0  0  0  0  0  0  0  0  0  0  0
   44.6030   35.9370   43.1810 H   0  0  0  0  0  0  0  0  0  0  0  0
   45.8760   32.6840   47.1620 C   0  0  0  0  0  0  0  0  0  0  0  0
   47.1950   32.2320   47.3140 C   0  0  0  0  0  0  0  0  0  0  0  0
   48.0450   32.4680   46.6820 H   0  0  0  0  0  0  0  0  0  0  0  0
   47.1080   31.1750   48.8060 S   0  0  0  0  0  0  0  0  0  0  0  0
   45.2460   31.5360   48.9760 C   0  0  0  0  0  0  0  0  0  0  0  0
   44.5480   31.1710   49.7310 H   0  0  0  0  0  0  0  0  0  0  0  0
   45.0590   32.2290   48.0850 N   0  0  0  0  0  0  0  0  0  0  0  0
  1  4  1  6  0  0  0
  1  2  1  0  0  0  0
  1 23  1  0  0  0  0
  1  3  1  0  0  0  0
  2  6  1  0  0  0  0
  2  3  1  0  0  0  0
  3  7  1  1  0  0  0
  5  2  1  0  0  0  0
  8  3  1  0  0  0  0
  8 13  1  0  0  0  0
  9 15  1  0  0  0  0
  9  8  1  0  0  0  0
 10  9  1  0  0  0  0
 10 11  1  0  0  0  0
 11 12  1  0  0  0  0
 12 19  1  0  0  0  0
 12 20  1  0  0  0  0
 13 12  1  0  0  0  0
 13 21  1  0  0  0  0
 14  9  1  0  0  0  0
 16 10  1  0  0  0  0
 17 10  1  0  0  0  0
 18 11  1  0  0  0  0
 22 13  1  0  0  0  0
 23 26  1  0  0  0  0
 23 25  1  0  0  0  0
 24 23  1  0  0  0  0
 26 31  1  0  0  0  0
 27 26  1  0  0  0  0
 28 26  1  0  0  0  0
 29 35  1  0  0  0  0
 29 34  1  0  0  0  0
 30 29  2  0  0  0  0
 31 30  1  0  0  0  0
 31 32  2  0  0  0  0
 32 33  1  0  0  0  0
 33 34  2  0  0  0  0
 33 37  1  0  0  0  0
 36 30  1  0  0  0  0
 37 38  2  0  0  0  0
 37 43  1  0  0  0  0
 38 40  1  0  0  0  0
 39 38  1  0  0  0  0
 40 41  1  0  0  0  0
 41 42  1  0  0  0  0
 43 41  2  0  0  0  0
M  END
>  <minimizedAffinity>
-5.67411613

>  <minimizedRMSD>
1.07345927

$$$$
