
 OpenBabel03252504433D

 43 46  0  0  0  0  0  0  0  0999 V2000
   37.7710   31.9090   40.6200 C   0  0  0  0  0  0  0  0  0  0  0  0
   36.5840   31.3620   40.2140 C   0  0  0  0  0  0  0  0  0  0  0  0
   36.5630   30.1160   40.7040 N   0  0  0  0  0  0  0  0  0  0  0  0
   37.6770   29.8560   41.3980 C   0  0  0  0  0  0  0  0  0  0  0  0
   38.4280   30.9960   41.3350 N   0  0  0  0  0  0  0  0  0  0  0  0
   38.1030   28.6960   42.0900 N   0  0  0  0  0  0  0  0  0  0  0  0
   37.6890   28.5400   43.4950 C   0  0  0  0  0  0  0  0  0  0  0  0
   36.5800   27.4920   43.4570 C   0  0  0  0  0  0  0  0  0  0  0  0
   37.0120   26.3030   42.6360 C   0  0  0  0  0  0  0  0  0  0  0  0
   38.5130   26.3290   42.4370 C   0  0  0  0  0  0  0  0  0  0  0  0
   38.9040   27.5690   41.6840 C   0  0  0  0  0  0  0  0  0  0  0  0
   35.8000   31.8210   39.6150 H   0  0  0  0  0  0  0  0  0  0  0  0
   35.7940   29.4190   40.5790 H   0  0  0  0  0  0  0  0  0  0  0  0
   38.5190   28.2200   44.1340 H   0  0  0  0  0  0  0  0  0  0  0  0
   37.2630   29.4880   43.8920 H   0  0  0  0  0  0  0  0  0  0  0  0
   35.6280   27.9310   43.1450 H   0  0  0  0  0  0  0  0  0  0  0  0
   36.4080   27.1000   44.4860 H   0  0  0  0  0  0  0  0  0  0  0  0
   36.4660   26.2530   41.6610 H   0  0  0  0  0  0  0  0  0  0  0  0
   36.7940   25.3200   43.1410 H   0  0  0  0  0  0  0  0  0  0  0  0
   38.8030   25.3970   41.8820 H   0  0  0  0  0  0  0  0  0  0  0  0
   38.9780   26.2670   43.4300 H   0  0  0  0  0  0  0  0  0  0  0  0
   39.9790   27.7730   41.7620 H   0  0  0  0  0  0  0  0  0  0  0  0
   38.6320   27.3660   40.6080 H   0  0  0  0  0  0  0  0  0  0  0  0
   38.2630   33.2920   40.3240 C   0  0  0  0  0  0  0  0  0  0  0  0
   37.9270   34.0240   41.0880 H   0  0  0  0  0  0  0  0  0  0  0  0
   37.7490   33.5850   39.3730 H   0  0  0  0  0  0  0  0  0  0  0  0
   40.3690   33.1950   39.0640 C   0  0  0  0  0  3  0  0  0  0  0  0
   39.7280   33.3250   40.2180 C   0  0  0  0  0  3  0  0  0  0  0  0
   41.8370   33.2470   39.1010 C   0  0  0  0  0  0  0  0  0  0  0  0
   42.5640   33.9340   40.1000 C   0  0  0  0  0  0  0  0  0  0  0  0
   43.9360   33.9250   40.0510 C   0  0  0  0  0  0  0  0  0  0  0  0
   44.5550   33.2620   39.0540 N   0  0  0  0  0  0  0  0  0  0  0  0
   43.8480   32.6110   38.1070 C   0  0  0  0  0  0  0  0  0  0  0  0
   42.5260   32.5990   38.1220 N   0  0  0  0  0  0  0  0  0  0  0  0
   41.9880   34.4360   40.8610 H   0  0  0  0  0  0  0  0  0  0  0  0
   44.5080   34.4430   40.8070 H   0  0  0  0  0  0  0  0  0  0  0  0
   44.4540   31.8640   36.9810 C   0  0  0  0  0  0  0  0  0  0  0  0
   45.8280   31.9110   36.3660 C   0  0  0  0  0  0  0  0  0  0  0  0
   46.3880   32.7610   37.0380 H   0  0  0  0  0  0  0  0  0  0  0  0
   45.5590   30.5940   35.0320 S   0  0  0  0  0  0  0  0  0  0  0  0
   43.7660   30.2830   35.5570 C   0  0  0  0  0  0  0  0  0  0  0  0
   43.4060   29.5200   34.8860 H   0  0  0  0  0  0  0  0  0  0  0  0
   43.4940   31.0510   36.5440 N   0  0  0  0  0  0  0  0  0  0  0  0
  1  5  1  0  0  0  0
  2  1  2  0  0  0  0
  2  3  1  0  0  0  0
  3  4  1  0  0  0  0
  4  6  1  0  0  0  0
  5  4  2  0  0  0  0
  6  7  1  0  0  0  0
  7 15  1  0  0  0  0
  7 14  1  0  0  0  0
  8  7  1  0  0  0  0
  8 17  1  0  0  0  0
  9 19  1  0  0  0  0
  9  8  1  0  0  0  0
 10  9  1  0  0  0  0
 10 21  1  0  0  0  0
 11 22  1  0  0  0  0
 11  6  1  0  0  0  0
 11 10  1  0  0  0  0
 12  2  1  0  0  0  0
 13  3  1  0  0  0  0
 16  8  1  0  0  0  0
 18  9  1  0  0  0  0
 20 10  1  0  0  0  0
 23 11  1  0  0  0  0
 24  1  1  0  0  0  0
 24 25  1  0  0  0  0
 26 24  1  0  0  0  0
 27 29  1  0  0  0  0
 27 28  2  0  0  0  0
 28 24  1  0  0  0  0
 29 30  1  0  0  0  0
 30 35  1  0  0  0  0
 31 30  2  0  0  0  0
 31 36  1  0  0  0  0
 32 31  1  0  0  0  0
 33 34  1  0  0  0  0
 33 32  2  0  0  0  0
 34 29  2  0  0  0  0
 37 33  1  0  0  0  0
 38 37  2  0  0  0  0
 38 39  1  0  0  0  0
 40 41  1  0  0  0  0
 40 38  1  0  0  0  0
 41 43  2  0  0  0  0
 42 41  1  0  0  0  0
 43 37  1  0  0  0  0
M  END
>  <minimizedAffinity>
-5.93231058

$$$$

 OpenBabel03252504433D

 43 46  0  0  0  0  0  0  0  0999 V2000
   38.4890   27.9580   42.9480 C   0  0  0  0  0  0  0  0  0  0  0  0
   37.3400   28.5790   43.3580 C   0  0  0  0  0  0  0  0  0  0  0  0
   37.2640   29.7180   42.6600 N   0  0  0  0  0  0  0  0  0  0  0  0
   38.3070   29.8420   41.8310 C   0  0  0  0  0  0  0  0  0  0  0  0
   39.0690   28.7260   42.0250 N   0  0  0  0  0  0  0  0  0  0  0  0
   38.6570   30.8580   40.9100 N   0  0  0  0  0  0  0  0  0  0  0  0
   38.1150   30.7680   39.5430 C   0  0  0  0  0  0  0  0  0  0  0  0
   37.0060   31.8150   39.4970 C   0  0  0  0  0  0  0  0  0  0  0  0
   37.5030   33.1260   40.0520 C   0  0  0  0  0  0  0  0  0  0  0  0
   39.0150   33.1230   40.1130 C   0  0  0  0  0  0  0  0  0  0  0  0
   39.4840   32.0320   41.0340 C   0  0  0  0  0  0  0  0  0  0  0  0
   36.6180   28.2400   44.0990 H   0  0  0  0  0  0  0  0  0  0  0  0
   36.5040   30.4340   42.7300 H   0  0  0  0  0  0  0  0  0  0  0  0
   38.8800   30.9630   38.7830 H   0  0  0  0  0  0  0  0  0  0  0  0
   37.6610   29.7680   39.3610 H   0  0  0  0  0  0  0  0  0  0  0  0
   36.0900   31.4460   39.9680 H   0  0  0  0  0  0  0  0  0  0  0  0
   36.7360   32.0200   38.4350 H   0  0  0  0  0  0  0  0  0  0  0  0
   37.0480   33.3530   41.0490 H   0  0  0  0  0  0  0  0  0  0  0  0
   37.2300   34.0060   39.4040 H   0  0  0  0  0  0  0  0  0  0  0  0
   39.3480   34.1360   40.4650 H   0  0  0  0  0  0  0  0  0  0  0  0
   39.3860   33.0060   39.0860 H   0  0  0  0  0  0  0  0  0  0  0  0
   40.5490   31.8090   40.8940 H   0  0  0  0  0  0  0  0  0  0  0  0
   39.3110   32.4250   42.0770 H   0  0  0  0  0  0  0  0  0  0  0  0
   39.0170   26.6450   43.4370 C   0  0  0  0  0  0  0  0  0  0  0  0
   38.6370   26.3980   44.4510 H   0  0  0  0  0  0  0  0  0  0  0  0
   40.1190   26.8010   43.5520 H   0  0  0  0  0  0  0  0  0  0  0  0
   37.4410   25.2930   42.1250 C   0  0  0  0  0  3  0  0  0  0  0  0
   38.6840   25.5580   42.5070 C   0  0  0  0  0  3  0  0  0  0  0  0
   37.2480   24.1770   41.1890 C   0  0  0  0  0  0  0  0  0  0  0  0
   38.1980   23.1470   41.0050 C   0  0  0  0  0  0  0  0  0  0  0  0
   37.9280   22.1440   40.1070 C   0  0  0  0  0  0  0  0  0  0  0  0
   36.7660   22.1660   39.4260 N   0  0  0  0  0  0  0  0  0  0  0  0
   35.8680   23.1560   39.6120 C   0  0  0  0  0  0  0  0  0  0  0  0
   36.0950   24.1380   40.4670 N   0  0  0  0  0  0  0  0  0  0  0  0
   39.1010   23.2080   41.5920 H   0  0  0  0  0  0  0  0  0  0  0  0
   38.6420   21.3470   39.9540 H   0  0  0  0  0  0  0  0  0  0  0  0
   34.5730   23.2510   38.9010 C   0  0  0  0  0  0  0  0  0  0  0  0
   34.1720   23.9500   37.6280 C   0  0  0  0  0  0  0  0  0  0  0  0
   35.2170   24.4660   37.2710 H   0  0  0  0  0  0  0  0  0  0  0  0
   32.3450   23.4500   37.6230 S   0  0  0  0  0  0  0  0  0  0  0  0
   32.5040   22.4690   39.2340 C   0  0  0  0  0  0  0  0  0  0  0  0
   31.5180   22.0760   39.4220 H   0  0  0  0  0  0  0  0  0  0  0  0
   33.7160   22.5450   39.6380 N   0  0  0  0  0  0  0  0  0  0  0  0
  1  2  2  0  0  0  0
  1 24  1  0  0  0  0
  2 12  1  0  0  0  0
  3 13  1  0  0  0  0
  3  2  1  0  0  0  0
  4  5  2  0  0  0  0
  4  3  1  0  0  0  0
  5  1  1  0  0  0  0
  6 11  1  0  0  0  0
  6  4  1  0  0  0  0
  7  6  1  0  0  0  0
  8  7  1  0  0  0  0
  8 16  1  0  0  0  0
  8  9  1  0  0  0  0
  9 10  1  0  0  0  0
  9 18  1  0  0  0  0
 10 20  1  0  0  0  0
 10 11  1  0  0  0  0
 11 23  1  0  0  0  0
 14  7  1  0  0  0  0
 15  7  1  0  0  0  0
 17  8  1  0  0  0  0
 19  9  1  0  0  0  0
 21 10  1  0  0  0  0
 22 11  1  0  0  0  0
 24 26  1  0  0  0  0
 24 25  1  0  0  0  0
 27 28  2  0  0  0  0
 28 24  1  0  0  0  0
 29 27  1  0  0  0  0
 30 29  1  0  0  0  0
 30 35  1  0  0  0  0
 31 30  2  0  0  0  0
 32 33  2  0  0  0  0
 32 31  1  0  0  0  0
 33 34  1  0  0  0  0
 34 29  2  0  0  0  0
 36 31  1  0  0  0  0
 37 33  1  0  0  0  0
 37 43  1  0  0  0  0
 38 37  2  0  0  0  0
 39 38  1  0  0  0  0
 40 38  1  0  0  0  0
 40 41  1  0  0  0  0
 41 42  1  0  0  0  0
 41 43  2  0  0  0  0
M  END
>  <minimizedAffinity>
-5.7976346

$$$$

 OpenBabel03252504433D

 43 46  0  0  0  0  0  0  0  0999 V2000
   38.0760   32.4180   40.1440 C   0  0  0  0  0  0  0  0  0  0  0  0
   38.1340   33.7770   39.9930 C   0  0  0  0  0  0  0  0  0  0  0  0
   39.3820   34.0530   39.5940 N   0  0  0  0  0  0  0  0  0  0  0  0
   40.1080   32.9340   39.4870 C   0  0  0  0  0  0  0  0  0  0  0  0
   39.2710   31.9130   39.8370 N   0  0  0  0  0  0  0  0  0  0  0  0
   41.4550   32.7230   39.1060 N   0  0  0  0  0  0  0  0  0  0  0  0
   41.7490   32.5550   37.6730 C   0  0  0  0  0  0  0  0  0  0  0  0
   42.3690   33.8820   37.2460 C   0  0  0  0  0  0  0  0  0  0  0  0
   43.4470   34.2910   38.2190 C   0  0  0  0  0  0  0  0  0  0  0  0
   43.8520   33.1070   39.0710 C   0  0  0  0  0  0  0  0  0  0  0  0
   42.6730   32.6310   39.8720 C   0  0  0  0  0  0  0  0  0  0  0  0
   37.3450   34.5080   40.1560 H   0  0  0  0  0  0  0  0  0  0  0  0
   39.7660   35.0030   39.3860 H   0  0  0  0  0  0  0  0  0  0  0  0
   42.4320   31.7180   37.4880 H   0  0  0  0  0  0  0  0  0  0  0  0
   40.8140   32.4020   37.0900 H   0  0  0  0  0  0  0  0  0  0  0  0
   41.6030   34.6450   37.0790 H   0  0  0  0  0  0  0  0  0  0  0  0
   42.8830   33.7520   36.2660 H   0  0  0  0  0  0  0  0  0  0  0  0
   43.1310   35.1630   38.8450 H   0  0  0  0  0  0  0  0  0  0  0  0
   44.3920   34.6300   37.7080 H   0  0  0  0  0  0  0  0  0  0  0  0
   44.6990   33.4320   39.7330 H   0  0  0  0  0  0  0  0  0  0  0  0
   44.2510   32.3380   38.3980 H   0  0  0  0  0  0  0  0  0  0  0  0
   42.8350   31.6250   40.2780 H   0  0  0  0  0  0  0  0  0  0  0  0
   42.5650   33.3710   40.7170 H   0  0  0  0  0  0  0  0  0  0  0  0
   36.8850   31.6190   40.5770 C   0  0  0  0  0  0  0  0  0  0  0  0
   36.0810   31.6270   39.8120 H   0  0  0  0  0  0  0  0  0  0  0  0
   36.4730   32.1700   41.4600 H   0  0  0  0  0  0  0  0  0  0  0  0
   37.3650   29.7780   42.1300 C   0  0  0  0  0  3  0  0  0  0  0  0
   37.2590   30.2330   40.8880 C   0  0  0  0  0  3  0  0  0  0  0  0
   37.7460   28.3680   42.2990 C   0  0  0  0  0  0  0  0  0  0  0  0
   38.6480   27.9230   43.2920 C   0  0  0  0  0  0  0  0  0  0  0  0
   38.9420   26.5850   43.3730 C   0  0  0  0  0  0  0  0  0  0  0  0
   38.3640   25.7300   42.5060 N   0  0  0  0  0  0  0  0  0  0  0  0
   37.5060   26.1700   41.5630 C   0  0  0  0  0  0  0  0  0  0  0  0
   37.2000   27.4510   41.4550 N   0  0  0  0  0  0  0  0  0  0  0  0
   39.0630   28.6760   43.9440 H   0  0  0  0  0  0  0  0  0  0  0  0
   39.6290   26.2250   44.1270 H   0  0  0  0  0  0  0  0  0  0  0  0
   36.8330   25.2950   40.5750 C   0  0  0  0  0  0  0  0  0  0  0  0
   36.4430   23.8410   40.6210 C   0  0  0  0  0  0  0  0  0  0  0  0
   36.8250   23.5000   41.7270 H   0  0  0  0  0  0  0  0  0  0  0  0
   35.6680   23.7280   38.8960 S   0  0  0  0  0  0  0  0  0  0  0  0
   36.0150   25.5490   38.5090 C   0  0  0  0  0  0  0  0  0  0  0  0
   35.6280   25.7030   37.5150 H   0  0  0  0  0  0  0  0  0  0  0  0
   36.5980   26.0740   39.5200 N   0  0  0  0  0  0  0  0  0  0  0  0
  1 24  1  0  0  0  0
  2  1  2  0  0  0  0
  2 12  1  0  0  0  0
  3  2  1  0  0  0  0
  4  3  1  0  0  0  0
  4  5  2  0  0  0  0
  5  1  1  0  0  0  0
  6  4  1  0  0  0  0
  6 11  1  0  0  0  0
  7  6  1  0  0  0  0
  8  7  1  0  0  0  0
  8  9  1  0  0  0  0
  9 18  1  0  0  0  0
  9 10  1  0  0  0  0
 10 20  1  0  0  0  0
 10 11  1  0  0  0  0
 11 22  1  0  0  0  0
 11 23  1  0  0  0  0
 13  3  1  0  0  0  0
 14  7  1  0  0  0  0
 15  7  1  0  0  0  0
 16  8  1  0  0  0  0
 17  8  1  0  0  0  0
 19  9  1  0  0  0  0
 21 10  1  0  0  0  0
 24 28  1  0  0  0  0
 24 26  1  0  0  0  0
 25 24  1  0  0  0  0
 27 29  1  0  0  0  0
 28 27  2  0  0  0  0
 29 30  1  0  0  0  0
 30 31  2  0  0  0  0
 30 35  1  0  0  0  0
 31 36  1  0  0  0  0
 32 31  1  0  0  0  0
 33 32  2  0  0  0  0
 34 33  1  0  0  0  0
 34 29  2  0  0  0  0
 37 38  2  0  0  0  0
 37 33  1  0  0  0  0
 38 39  1  0  0  0  0
 40 38  1  0  0  0  0
 41 40  1  0  0  0  0
 41 43  2  0  0  0  0
 42 41  1  0  0  0  0
 43 37  1  0  0  0  0
M  END
>  <minimizedAffinity>
-5.64657164

$$$$

 OpenBabel03252504433D

 43 46  0  0  0  0  0  0  0  0999 V2000
   36.2460   28.4780   38.3850 C   0  0  0  0  0  0  0  0  0  0  0  0
   35.6260   27.3130   38.0220 C   0  0  0  0  0  0  0  0  0  0  0  0
   36.1330   26.3600   38.8140 N   0  0  0  0  0  0  0  0  0  0  0  0
   37.0400   26.8710   39.6560 C   0  0  0  0  0  0  0  0  0  0  0  0
   37.0990   28.2060   39.3720 N   0  0  0  0  0  0  0  0  0  0  0  0
   37.8310   26.2670   40.6620 N   0  0  0  0  0  0  0  0  0  0  0  0
   37.2570   26.1470   42.0130 C   0  0  0  0  0  0  0  0  0  0  0  0
   36.8750   24.6750   42.1430 C   0  0  0  0  0  0  0  0  0  0  0  0
   38.0210   23.7980   41.7040 C   0  0  0  0  0  0  0  0  0  0  0  0
   39.3000   24.6060   41.6500 C   0  0  0  0  0  0  0  0  0  0  0  0
   39.1610   25.7110   40.6410 C   0  0  0  0  0  0  0  0  0  0  0  0
   34.8720   27.1610   37.2530 H   0  0  0  0  0  0  0  0  0  0  0  0
   35.8760   25.3470   38.8020 H   0  0  0  0  0  0  0  0  0  0  0  0
   37.9700   26.4440   42.7910 H   0  0  0  0  0  0  0  0  0  0  0  0
   36.3330   26.7590   42.1080 H   0  0  0  0  0  0  0  0  0  0  0  0
   35.9280   24.4640   41.6370 H   0  0  0  0  0  0  0  0  0  0  0  0
   36.7050   24.4310   43.2170 H   0  0  0  0  0  0  0  0  0  0  0  0
   37.8070   23.2950   40.7270 H   0  0  0  0  0  0  0  0  0  0  0  0
   38.2280   22.9560   42.4230 H   0  0  0  0  0  0  0  0  0  0  0  0
   40.1390   23.9060   41.3860 H   0  0  0  0  0  0  0  0  0  0  0  0
   39.5000   24.9740   42.6640 H   0  0  0  0  0  0  0  0  0  0  0  0
   39.9350   26.4780   40.7680 H   0  0  0  0  0  0  0  0  0  0  0  0
   39.2750   25.2160   39.6350 H   0  0  0  0  0  0  0  0  0  0  0  0
   36.0160   29.8320   37.7880 C   0  0  0  0  0  0  0  0  0  0  0  0
   34.9370   30.0910   37.7510 H   0  0  0  0  0  0  0  0  0  0  0  0
   36.3460   29.7390   36.7230 H   0  0  0  0  0  0  0  0  0  0  0  0
   37.8280   31.4700   38.0440 C   0  0  0  0  0  3  0  0  0  0  0  0
   36.7480   30.8700   38.5270 C   0  0  0  0  0  3  0  0  0  0  0  0
   38.4640   32.4920   38.8880 C   0  0  0  0  0  0  0  0  0  0  0  0
   37.7560   33.2620   39.8390 C   0  0  0  0  0  0  0  0  0  0  0  0
   38.4380   34.1920   40.5840 C   0  0  0  0  0  0  0  0  0  0  0  0
   39.7620   34.3480   40.3890 N   0  0  0  0  0  0  0  0  0  0  0  0
   40.4240   33.6070   39.4770 C   0  0  0  0  0  0  0  0  0  0  0  0
   39.8010   32.7020   38.7430 N   0  0  0  0  0  0  0  0  0  0  0  0
   36.6990   33.0700   39.9290 H   0  0  0  0  0  0  0  0  0  0  0  0
   37.9140   34.7890   41.3170 H   0  0  0  0  0  0  0  0  0  0  0  0
   41.8760   33.7210   39.2050 C   0  0  0  0  0  0  0  0  0  0  0  0
   43.0750   33.7000   40.1170 C   0  0  0  0  0  0  0  0  0  0  0  0
   42.5670   33.5590   41.2160 H   0  0  0  0  0  0  0  0  0  0  0  0
   44.4100   33.9140   38.7910 S   0  0  0  0  0  0  0  0  0  0  0  0
   43.1460   33.9820   37.3830 C   0  0  0  0  0  0  0  0  0  0  0  0
   43.7310   34.1060   36.4870 H   0  0  0  0  0  0  0  0  0  0  0  0
   41.9750   33.8600   37.8840 N   0  0  0  0  0  0  0  0  0  0  0  0
  1  5  1  0  0  0  0
  2  1  2  0  0  0  0
  2  3  1  0  0  0  0
  3  4  1  0  0  0  0
  4  6  1  0  0  0  0
  5  4  2  0  0  0  0
  6  7  1  0  0  0  0
  7 15  1  0  0  0  0
  7  8  1  0  0  0  0
  7 14  1  0  0  0  0
  8 17  1  0  0  0  0
  9  8  1  0  0  0  0
  9 19  1  0  0  0  0
 10  9  1  0  0  0  0
 10 21  1  0  0  0  0
 11  6  1  0  0  0  0
 11 22  1  0  0  0  0
 11 10  1  0  0  0  0
 12  2  1  0  0  0  0
 13  3  1  0  0  0  0
 16  8  1  0  0  0  0
 18  9  1  0  0  0  0
 20 10  1  0  0  0  0
 23 11  1  0  0  0  0
 24  1  1  0  0  0  0
 24 28  1  0  0  0  0
 25 24  1  0  0  0  0
 26 24  1  0  0  0  0
 27 28  2  0  0  0  0
 27 29  1  0  0  0  0
 29 30  1  0  0  0  0
 30 35  1  0  0  0  0
 30 31  2  0  0  0  0
 31 36  1  0  0  0  0
 32 31  1  0  0  0  0
 33 32  2  0  0  0  0
 34 29  2  0  0  0  0
 34 33  1  0  0  0  0
 37 33  1  0  0  0  0
 37 38  2  0  0  0  0
 38 39  1  0  0  0  0
 40 38  1  0  0  0  0
 41 43  2  0  0  0  0
 41 40  1  0  0  0  0
 42 41  1  0  0  0  0
 43 37  1  0  0  0  0
M  END
>  <minimizedAffinity>
-5.62138557

$$$$

 OpenBabel03252504433D

 43 46  0  0  0  0  0  0  0  0999 V2000
   37.5050   31.3930   40.1940 C   0  0  0  0  0  0  0  0  0  0  0  0
   37.1420   32.2600   39.1990 C   0  0  0  0  0  0  0  0  0  0  0  0
   38.2690   32.8640   38.8040 N   0  0  0  0  0  0  0  0  0  0  0  0
   39.3210   32.4190   39.5020 C   0  0  0  0  0  0  0  0  0  0  0  0
   38.8220   31.4930   40.3730 N   0  0  0  0  0  0  0  0  0  0  0  0
   40.6950   32.7550   39.4450 N   0  0  0  0  0  0  0  0  0  0  0  0
   41.5460   32.0230   38.4920 C   0  0  0  0  0  0  0  0  0  0  0  0
   41.7810   33.0050   37.3480 C   0  0  0  0  0  0  0  0  0  0  0  0
   42.1990   34.3490   37.8910 C   0  0  0  0  0  0  0  0  0  0  0  0
   42.6350   34.2110   39.3350 C   0  0  0  0  0  0  0  0  0  0  0  0
   41.4840   33.7210   40.1680 C   0  0  0  0  0  0  0  0  0  0  0  0
   36.1500   32.4410   38.7910 H   0  0  0  0  0  0  0  0  0  0  0  0
   38.3500   33.5890   38.0540 H   0  0  0  0  0  0  0  0  0  0  0  0
   42.4910   31.7050   38.9450 H   0  0  0  0  0  0  0  0  0  0  0  0
   41.0150   31.1340   38.0860 H   0  0  0  0  0  0  0  0  0  0  0  0
   40.9210   33.0420   36.6710 H   0  0  0  0  0  0  0  0  0  0  0  0
   42.6370   32.6520   36.7280 H   0  0  0  0  0  0  0  0  0  0  0  0
   41.3900   35.1130   37.7740 H   0  0  0  0  0  0  0  0  0  0  0  0
   43.0860   34.7820   37.3500 H   0  0  0  0  0  0  0  0  0  0  0  0
   43.0010   35.2140   39.6820 H   0  0  0  0  0  0  0  0  0  0  0  0
   43.4980   33.5320   39.3550 H   0  0  0  0  0  0  0  0  0  0  0  0
   41.8180   33.3410   41.1420 H   0  0  0  0  0  0  0  0  0  0  0  0
   40.8170   34.6180   40.3170 H   0  0  0  0  0  0  0  0  0  0  0  0
   36.5950   30.4830   40.9590 C   0  0  0  0  0  0  0  0  0  0  0  0
   35.6680   30.2530   40.3920 H   0  0  0  0  0  0  0  0  0  0  0  0
   36.2700   31.0780   41.8490 H   0  0  0  0  0  0  0  0  0  0  0  0
   36.6320   28.1790   41.8090 C   0  0  0  0  0  3  0  0  0  0  0  0
   37.2750   29.2320   41.3210 C   0  0  0  0  0  3  0  0  0  0  0  0
   37.4350   26.9900   42.1290 C   0  0  0  0  0  0  0  0  0  0  0  0
   36.9150   25.6760   42.1110 C   0  0  0  0  0  0  0  0  0  0  0  0
   37.7440   24.6270   42.4230 C   0  0  0  0  0  0  0  0  0  0  0  0
   39.0300   24.8760   42.7390 N   0  0  0  0  0  0  0  0  0  0  0  0
   39.5120   26.1360   42.7540 C   0  0  0  0  0  0  0  0  0  0  0  0
   38.7440   27.1700   42.4590 N   0  0  0  0  0  0  0  0  0  0  0  0
   35.8750   25.5690   41.8450 H   0  0  0  0  0  0  0  0  0  0  0  0
   37.3650   23.6150   42.4130 H   0  0  0  0  0  0  0  0  0  0  0  0
   40.9100   26.4900   43.0920 C   0  0  0  0  0  0  0  0  0  0  0  0
   41.5800   27.8170   43.3410 C   0  0  0  0  0  0  0  0  0  0  0  0
   40.6620   28.6060   43.1960 H   0  0  0  0  0  0  0  0  0  0  0  0
   43.3250   27.1640   43.6800 S   0  0  0  0  0  0  0  0  0  0  0  0
   42.8100   25.3590   43.4280 C   0  0  0  0  0  0  0  0  0  0  0  0
   43.7090   24.7860   43.5870 H   0  0  0  0  0  0  0  0  0  0  0  0
   41.5610   25.3300   43.1490 N   0  0  0  0  0  0  0  0  0  0  0  0
  1  5  1  0  0  0  0
  1 24  1  0  0  0  0
  2  1  2  0  0  0  0
  3  2  1  0  0  0  0
  3  4  1  0  0  0  0
  4  5  2  0  0  0  0
  6  4  1  0  0  0  0
  6 11  1  0  0  0  0
  7 14  1  0  0  0  0
  7  6  1  0  0  0  0
  8  9  1  0  0  0  0
  8  7  1  0  0  0  0
  9 10  1  0  0  0  0
 10 21  1  0  0  0  0
 10 20  1  0  0  0  0
 10 11  1  0  0  0  0
 11 23  1  0  0  0  0
 11 22  1  0  0  0  0
 12  2  1  0  0  0  0
 13  3  1  0  0  0  0
 15  7  1  0  0  0  0
 16  8  1  0  0  0  0
 17  8  1  0  0  0  0
 18  9  1  0  0  0  0
 19  9  1  0  0  0  0
 24 28  1  0  0  0  0
 24 26  1  0  0  0  0
 25 24  1  0  0  0  0
 27 29  1  0  0  0  0
 28 27  2  0  0  0  0
 29 34  1  0  0  0  0
 30 29  2  0  0  0  0
 30 31  1  0  0  0  0
 31 32  2  0  0  0  0
 32 33  1  0  0  0  0
 33 37  1  0  0  0  0
 34 33  2  0  0  0  0
 35 30  1  0  0  0  0
 36 31  1  0  0  0  0
 37 43  1  0  0  0  0
 37 38  2  0  0  0  0
 38 40  1  0  0  0  0
 39 38  1  0  0  0  0
 41 42  1  0  0  0  0
 41 40  1  0  0  0  0
 43 41  2  0  0  0  0
M  END
>  <minimizedAffinity>
-5.58770466

$$$$

 OpenBabel03252504433D

 43 46  0  0  0  0  0  0  0  0999 V2000
   36.7660   30.3470   39.7630 C   0  0  0  0  0  0  0  0  0  0  0  0
   36.1220   30.2820   40.9680 C   0  0  0  0  0  0  0  0  0  0  0  0
   36.2110   29.0070   41.3690 N   0  0  0  0  0  0  0  0  0  0  0  0
   36.8800   28.2700   40.4740 C   0  0  0  0  0  0  0  0  0  0  0  0
   37.2220   29.1290   39.4680 N   0  0  0  0  0  0  0  0  0  0  0  0
   37.2210   26.8970   40.4570 N   0  0  0  0  0  0  0  0  0  0  0  0
   38.4770   26.4890   41.1110 C   0  0  0  0  0  0  0  0  0  0  0  0
   38.0390   25.8420   42.4210 C   0  0  0  0  0  0  0  0  0  0  0  0
   36.9350   24.8470   42.1680 C   0  0  0  0  0  0  0  0  0  0  0  0
   36.8720   24.5060   40.6940 C   0  0  0  0  0  0  0  0  0  0  0  0
   36.5590   25.7440   39.9000 C   0  0  0  0  0  0  0  0  0  0  0  0
   35.6290   31.0840   41.5140 H   0  0  0  0  0  0  0  0  0  0  0  0
   35.8220   28.6110   42.2550 H   0  0  0  0  0  0  0  0  0  0  0  0
   39.0540   25.7910   40.4940 H   0  0  0  0  0  0  0  0  0  0  0  0
   39.1060   27.3750   41.3500 H   0  0  0  0  0  0  0  0  0  0  0  0
   37.8000   26.5960   43.1770 H   0  0  0  0  0  0  0  0  0  0  0  0
   38.8860   25.2520   42.8420 H   0  0  0  0  0  0  0  0  0  0  0  0
   35.9500   25.2140   42.5510 H   0  0  0  0  0  0  0  0  0  0  0  0
   37.1020   23.8650   42.6960 H   0  0  0  0  0  0  0  0  0  0  0  0
   36.0870   23.7150   40.5570 H   0  0  0  0  0  0  0  0  0  0  0  0
   37.8330   24.0520   40.4200 H   0  0  0  0  0  0  0  0  0  0  0  0
   36.7800   25.6110   38.8340 H   0  0  0  0  0  0  0  0  0  0  0  0
   35.4550   25.9210   40.0430 H   0  0  0  0  0  0  0  0  0  0  0  0
   36.9390   31.5650   38.9090 C   0  0  0  0  0  0  0  0  0  0  0  0
   36.3220   32.4140   39.2700 H   0  0  0  0  0  0  0  0  0  0  0  0
   36.5170   31.2820   37.9120 H   0  0  0  0  0  0  0  0  0  0  0  0
   38.9150   32.7570   39.7510 C   0  0  0  0  0  3  0  0  0  0  0  0
   38.3490   31.9720   38.8430 C   0  0  0  0  0  3  0  0  0  0  0  0
   40.3350   33.0860   39.5640 C   0  0  0  0  0  0  0  0  0  0  0  0
   40.9920   34.1160   40.2750 C   0  0  0  0  0  0  0  0  0  0  0  0
   42.3230   34.3490   40.0330 C   0  0  0  0  0  0  0  0  0  0  0  0
   42.9690   33.5900   39.1250 N   0  0  0  0  0  0  0  0  0  0  0  0
   42.3290   32.6110   38.4540 C   0  0  0  0  0  0  0  0  0  0  0  0
   41.0480   32.3590   38.6610 N   0  0  0  0  0  0  0  0  0  0  0  0
   40.3980   34.6730   40.9830 H   0  0  0  0  0  0  0  0  0  0  0  0
   42.8430   35.1310   40.5670 H   0  0  0  0  0  0  0  0  0  0  0  0
   42.9680   31.7380   37.4430 C   0  0  0  0  0  0  0  0  0  0  0  0
   42.4210   30.6320   36.5780 C   0  0  0  0  0  0  0  0  0  0  0  0
   41.2470   30.5980   36.9060 H   0  0  0  0  0  0  0  0  0  0  0  0
   44.0270   30.1920   35.6760 S   0  0  0  0  0  0  0  0  0  0  0  0
   45.0260   31.5080   36.5990 C   0  0  0  0  0  0  0  0  0  0  0  0
   46.0280   31.4230   36.2110 H   0  0  0  0  0  0  0  0  0  0  0  0
   44.2440   32.1180   37.4080 N   0  0  0  0  0  0  0  0  0  0  0  0
  1  2  2  0  0  0  0
  2  3  1  0  0  0  0
  2 12  1  0  0  0  0
  3 13  1  0  0  0  0
  4  3  1  0  0  0  0
  5  1  1  0  0  0  0
  5  4  2  0  0  0  0
  6  4  1  0  0  0  0
  6  7  1  0  0  0  0
  7 15  1  0  0  0  0
  7  8  1  0  0  0  0
  8 17  1  0  0  0  0
  8 16  1  0  0  0  0
  9  8  1  0  0  0  0
  9 18  1  0  0  0  0
  9 19  1  0  0  0  0
 10  9  1  0  0  0  0
 11 23  1  0  0  0  0
 11  6  1  0  0  0  0
 11 10  1  0  0  0  0
 14  7  1  0  0  0  0
 20 10  1  0  0  0  0
 21 10  1  0  0  0  0
 22 11  1  0  0  0  0
 24 25  1  0  0  0  0
 24  1  1  0  0  0  0
 26 24  1  0  0  0  0
 28 24  1  0  0  0  0
 28 27  2  0  0  0  0
 29 27  1  0  0  0  0
 29 30  1  0  0  0  0
 30 35  1  0  0  0  0
 31 30  2  0  0  0  0
 31 36  1  0  0  0  0
 32 31  1  0  0  0  0
 33 34  1  0  0  0  0
 33 32  2  0  0  0  0
 34 29  2  0  0  0  0
 37 33  1  0  0  0  0
 38 39  1  0  0  0  0
 38 37  2  0  0  0  0
 40 38  1  0  0  0  0
 40 41  1  0  0  0  0
 41 43  2  0  0  0  0
 42 41  1  0  0  0  0
 43 37  1  0  0  0  0
M  END
>  <minimizedAffinity>
-5.50722551

$$$$

 OpenBabel03252504433D

 43 46  0  0  0  0  0  0  0  0999 V2000
   38.2420   27.0470   42.9490 C   0  0  0  0  0  0  0  0  0  0  0  0
   39.2910   26.2380   43.2940 C   0  0  0  0  0  0  0  0  0  0  0  0
   39.2460   25.1950   42.4560 N   0  0  0  0  0  0  0  0  0  0  0  0
   38.2210   25.3100   41.6030 C   0  0  0  0  0  0  0  0  0  0  0  0
   37.5990   26.4810   41.9270 N   0  0  0  0  0  0  0  0  0  0  0  0
   37.7750   24.4700   40.5540 N   0  0  0  0  0  0  0  0  0  0  0  0
   38.3660   24.6610   39.2190 C   0  0  0  0  0  0  0  0  0  0  0  0
   39.3370   23.4950   39.0550 C   0  0  0  0  0  0  0  0  0  0  0  0
   38.6640   22.1990   39.4300 C   0  0  0  0  0  0  0  0  0  0  0  0
   37.1620   22.3870   39.4690 C   0  0  0  0  0  0  0  0  0  0  0  0
   36.8050   23.4050   40.5150 C   0  0  0  0  0  0  0  0  0  0  0  0
   40.0260   26.3870   44.0810 H   0  0  0  0  0  0  0  0  0  0  0  0
   39.9080   24.3850   42.4450 H   0  0  0  0  0  0  0  0  0  0  0  0
   37.6070   24.6620   38.4290 H   0  0  0  0  0  0  0  0  0  0  0  0
   38.9460   25.6090   39.1720 H   0  0  0  0  0  0  0  0  0  0  0  0
   40.2770   23.6820   39.5830 H   0  0  0  0  0  0  0  0  0  0  0  0
   39.6110   23.3920   37.9790 H   0  0  0  0  0  0  0  0  0  0  0  0
   39.0560   21.7930   40.3960 H   0  0  0  0  0  0  0  0  0  0  0  0
   38.8440   21.3790   38.6780 H   0  0  0  0  0  0  0  0  0  0  0  0
   36.6950   21.3890   39.6830 H   0  0  0  0  0  0  0  0  0  0  0  0
   36.8410   22.6790   38.4600 H   0  0  0  0  0  0  0  0  0  0  0  0
   35.7810   23.7780   40.3890 H   0  0  0  0  0  0  0  0  0  0  0  0
   36.8960   22.8660   41.5020 H   0  0  0  0  0  0  0  0  0  0  0  0
   37.8670   28.3450   43.5950 C   0  0  0  0  0  0  0  0  0  0  0  0
   38.6040   28.6510   44.3670 H   0  0  0  0  0  0  0  0  0  0  0  0
   36.9170   28.1310   44.1460 H   0  0  0  0  0  0  0  0  0  0  0  0
   38.7640   29.9780   41.9940 C   0  0  0  0  0  3  0  0  0  0  0  0
   37.7250   29.4140   42.5970 C   0  0  0  0  0  3  0  0  0  0  0  0
   38.4790   31.0360   41.0150 C   0  0  0  0  0  0  0  0  0  0  0  0
   37.1700   31.4200   40.6470 C   0  0  0  0  0  0  0  0  0  0  0  0
   37.0040   32.4230   39.7230 C   0  0  0  0  0  0  0  0  0  0  0  0
   38.0920   33.0140   39.1920 N   0  0  0  0  0  0  0  0  0  0  0  0
   39.3360   32.6370   39.5530 C   0  0  0  0  0  0  0  0  0  0  0  0
   39.5340   31.6750   40.4380 N   0  0  0  0  0  0  0  0  0  0  0  0
   36.3570   30.8940   41.1220 H   0  0  0  0  0  0  0  0  0  0  0  0
   36.0110   32.7310   39.4300 H   0  0  0  0  0  0  0  0  0  0  0  0
   40.5780   33.2360   39.0140 C   0  0  0  0  0  0  0  0  0  0  0  0
   41.4600   34.3490   39.5190 C   0  0  0  0  0  0  0  0  0  0  0  0
   40.8970   34.6840   40.5470 H   0  0  0  0  0  0  0  0  0  0  0  0
   42.7400   34.3170   38.1230 S   0  0  0  0  0  0  0  0  0  0  0  0
   41.8670   32.9020   37.2170 C   0  0  0  0  0  0  0  0  0  0  0  0
   42.4690   32.7160   36.3420 H   0  0  0  0  0  0  0  0  0  0  0  0
   40.8290   32.5700   37.8880 N   0  0  0  0  0  0  0  0  0  0  0  0
  1  2  2  0  0  0  0
  1 24  1  0  0  0  0
  2 12  1  0  0  0  0
  3  2  1  0  0  0  0
  4  5  2  0  0  0  0
  4  3  1  0  0  0  0
  5  1  1  0  0  0  0
  6  4  1  0  0  0  0
  7  6  1  0  0  0  0
  8  7  1  0  0  0  0
  8  9  1  0  0  0  0
  8 16  1  0  0  0  0
  9 10  1  0  0  0  0
  9 18  1  0  0  0  0
 10 20  1  0  0  0  0
 10 11  1  0  0  0  0
 11  6  1  0  0  0  0
 11 23  1  0  0  0  0
 13  3  1  0  0  0  0
 14  7  1  0  0  0  0
 15  7  1  0  0  0  0
 17  8  1  0  0  0  0
 19  9  1  0  0  0  0
 21 10  1  0  0  0  0
 22 11  1  0  0  0  0
 24 26  1  0  0  0  0
 24 25  1  0  0  0  0
 27 28  2  0  0  0  0
 28 24  1  0  0  0  0
 29 27  1  0  0  0  0
 30 29  1  0  0  0  0
 30 35  1  0  0  0  0
 31 30  2  0  0  0  0
 32 33  2  0  0  0  0
 32 31  1  0  0  0  0
 33 34  1  0  0  0  0
 34 29  2  0  0  0  0
 36 31  1  0  0  0  0
 37 38  2  0  0  0  0
 37 33  1  0  0  0  0
 38 39  1  0  0  0  0
 40 38  1  0  0  0  0
 41 43  2  0  0  0  0
 41 40  1  0  0  0  0
 42 41  1  0  0  0  0
 43 37  1  0  0  0  0
M  END
>  <minimizedAffinity>
-5.46868277

$$$$

 OpenBabel03252504433D

 43 46  0  0  0  0  0  0  0  0999 V2000
   36.0850   28.4630   40.7990 C   0  0  0  0  0  0  0  0  0  0  0  0
   36.7130   28.1360   41.9710 C   0  0  0  0  0  0  0  0  0  0  0  0
   37.1620   26.8840   41.8150 N   0  0  0  0  0  0  0  0  0  0  0  0
   36.8480   26.4110   40.6030 C   0  0  0  0  0  0  0  0  0  0  0  0
   36.1700   27.4170   39.9760 N   0  0  0  0  0  0  0  0  0  0  0  0
   37.1030   25.1610   39.9890 N   0  0  0  0  0  0  0  0  0  0  0  0
   38.3760   24.9950   39.2660 C   0  0  0  0  0  0  0  0  0  0  0  0
   39.2380   24.1420   40.1920 C   0  0  0  0  0  0  0  0  0  0  0  0
   38.4570   22.9470   40.6780 C   0  0  0  0  0  0  0  0  0  0  0  0
   37.2300   22.7430   39.8150 C   0  0  0  0  0  0  0  0  0  0  0  0
   36.3330   23.9450   39.9170 C   0  0  0  0  0  0  0  0  0  0  0  0
   36.8370   28.7460   42.8630 H   0  0  0  0  0  0  0  0  0  0  0  0
   37.6900   26.3260   42.5240 H   0  0  0  0  0  0  0  0  0  0  0  0
   38.2350   24.5110   38.2930 H   0  0  0  0  0  0  0  0  0  0  0  0
   38.8810   25.9750   39.1200 H   0  0  0  0  0  0  0  0  0  0  0  0
   39.6810   24.7440   40.9910 H   0  0  0  0  0  0  0  0  0  0  0  0
   40.0970   23.7260   39.6160 H   0  0  0  0  0  0  0  0  0  0  0  0
   38.1910   23.0380   41.7610 H   0  0  0  0  0  0  0  0  0  0  0  0
   39.0380   21.9850   40.6040 H   0  0  0  0  0  0  0  0  0  0  0  0
   36.7140   21.8090   40.1640 H   0  0  0  0  0  0  0  0  0  0  0  0
   37.5760   22.5520   38.7910 H   0  0  0  0  0  0  0  0  0  0  0  0
   35.5900   23.9690   39.1090 H   0  0  0  0  0  0  0  0  0  0  0  0
   35.8120   23.8480   40.9120 H   0  0  0  0  0  0  0  0  0  0  0  0
   35.4170   29.7640   40.4790 C   0  0  0  0  0  0  0  0  0  0  0  0
   34.6120   30.0050   41.2050 H   0  0  0  0  0  0  0  0  0  0  0  0
   34.9050   29.5930   39.4990 H   0  0  0  0  0  0  0  0  0  0  0  0
   37.3390   30.9490   39.5140 C   0  0  0  0  0  3  0  0  0  0  0  0
   36.3890   30.8650   40.4360 C   0  0  0  0  0  3  0  0  0  0  0  0
   38.2460   32.1040   39.5860 C   0  0  0  0  0  0  0  0  0  0  0  0
   37.8960   33.3260   40.2030 C   0  0  0  0  0  0  0  0  0  0  0  0
   38.8120   34.3490   40.2220 C   0  0  0  0  0  0  0  0  0  0  0  0
   40.0190   34.1620   39.6530 N   0  0  0  0  0  0  0  0  0  0  0  0
   40.3380   32.9890   39.0660 C   0  0  0  0  0  0  0  0  0  0  0  0
   39.4820   31.9830   39.0290 N   0  0  0  0  0  0  0  0  0  0  0  0
   36.9100   33.3880   40.6340 H   0  0  0  0  0  0  0  0  0  0  0  0
   38.5630   35.2900   40.6910 H   0  0  0  0  0  0  0  0  0  0  0  0
   41.6410   32.7080   38.4200 C   0  0  0  0  0  0  0  0  0  0  0  0
   42.3910   31.4230   38.1850 C   0  0  0  0  0  0  0  0  0  0  0  0
   41.6470   30.5910   38.6760 H   0  0  0  0  0  0  0  0  0  0  0  0
   43.8980   32.1610   37.3070 S   0  0  0  0  0  0  0  0  0  0  0  0
   43.2350   33.9300   37.4370 C   0  0  0  0  0  0  0  0  0  0  0  0
   43.9850   34.5450   36.9680 H   0  0  0  0  0  0  0  0  0  0  0  0
   42.1030   33.8960   38.0320 N   0  0  0  0  0  0  0  0  0  0  0  0
  1  2  2  0  0  0  0
  2 12  1  0  0  0  0
  3  2  1  0  0  0  0
  3 13  1  0  0  0  0
  4  3  1  0  0  0  0
  5  4  2  0  0  0  0
  5  1  1  0  0  0  0
  6  4  1  0  0  0  0
  7  6  1  0  0  0  0
  7  8  1  0  0  0  0
  8  9  1  0  0  0  0
  8 16  1  0  0  0  0
  9 18  1  0  0  0  0
 10 11  1  0  0  0  0
 10 20  1  0  0  0  0
 10  9  1  0  0  0  0
 11  6  1  0  0  0  0
 11 23  1  0  0  0  0
 14  7  1  0  0  0  0
 15  7  1  0  0  0  0
 17  8  1  0  0  0  0
 19  9  1  0  0  0  0
 21 10  1  0  0  0  0
 22 11  1  0  0  0  0
 24  1  1  0  0  0  0
 24 25  1  0  0  0  0
 26 24  1  0  0  0  0
 27 29  1  0  0  0  0
 27 28  2  0  0  0  0
 28 24  1  0  0  0  0
 29 30  1  0  0  0  0
 30 31  2  0  0  0  0
 30 35  1  0  0  0  0
 31 36  1  0  0  0  0
 32 31  1  0  0  0  0
 33 32  2  0  0  0  0
 34 33  1  0  0  0  0
 34 29  2  0  0  0  0
 37 33  1  0  0  0  0
 38 37  2  0  0  0  0
 38 39  1  0  0  0  0
 40 41  1  0  0  0  0
 40 38  1  0  0  0  0
 41 43  2  0  0  0  0
 42 41  1  0  0  0  0
 43 37  1  0  0  0  0
M  END
>  <minimizedAffinity>
-5.45968103

$$$$

 OpenBabel03252504433D

 43 46  0  0  0  0  0  0  0  0999 V2000
   37.3270   30.8930   38.3460 C   0  0  0  0  0  0  0  0  0  0  0  0
   37.4520   31.2800   37.0390 C   0  0  0  0  0  0  0  0  0  0  0  0
   38.6030   31.9590   36.9610 N   0  0  0  0  0  0  0  0  0  0  0  0
   39.2060   32.0150   38.1550 C   0  0  0  0  0  0  0  0  0  0  0  0
   38.3900   31.3390   39.0160 N   0  0  0  0  0  0  0  0  0  0  0  0
   40.4230   32.6130   38.5630 N   0  0  0  0  0  0  0  0  0  0  0  0
   41.6580   31.8200   38.4410 C   0  0  0  0  0  0  0  0  0  0  0  0
   42.3720   32.4000   37.2240 C   0  0  0  0  0  0  0  0  0  0  0  0
   42.4190   33.9040   37.3140 C   0  0  0  0  0  0  0  0  0  0  0  0
   42.1120   34.3480   38.7280 C   0  0  0  0  0  0  0  0  0  0  0  0
   40.7250   33.9140   39.1070 C   0  0  0  0  0  0  0  0  0  0  0  0
   36.7710   31.0900   36.2120 H   0  0  0  0  0  0  0  0  0  0  0  0
   39.0030   32.3960   36.1000 H   0  0  0  0  0  0  0  0  0  0  0  0
   42.2810   31.8890   39.3400 H   0  0  0  0  0  0  0  0  0  0  0  0
   41.4250   30.7520   38.2360 H   0  0  0  0  0  0  0  0  0  0  0  0
   41.9430   32.0190   36.2920 H   0  0  0  0  0  0  0  0  0  0  0  0
   43.4350   32.0650   37.2250 H   0  0  0  0  0  0  0  0  0  0  0  0
   41.7350   34.3860   36.5710 H   0  0  0  0  0  0  0  0  0  0  0  0
   43.4380   34.3240   37.0820 H   0  0  0  0  0  0  0  0  0  0  0  0
   42.2240   35.4650   38.7710 H   0  0  0  0  0  0  0  0  0  0  0  0
   42.8870   33.9260   39.3810 H   0  0  0  0  0  0  0  0  0  0  0  0
   40.5650   33.9590   40.1920 H   0  0  0  0  0  0  0  0  0  0  0  0
   40.0310   34.6360   38.5890 H   0  0  0  0  0  0  0  0  0  0  0  0
   36.2010   30.1030   38.9380 C   0  0  0  0  0  0  0  0  0  0  0  0
   35.4510   29.8130   38.1720 H   0  0  0  0  0  0  0  0  0  0  0  0
   35.6780   30.8150   39.6250 H   0  0  0  0  0  0  0  0  0  0  0  0
   36.7840   28.8120   40.9440 C   0  0  0  0  0  3  0  0  0  0  0  0
   36.6960   28.9010   39.6230 C   0  0  0  0  0  3  0  0  0  0  0  0
   37.2970   27.5510   41.5000 C   0  0  0  0  0  0  0  0  0  0  0  0
   38.0660   27.4820   42.6840 C   0  0  0  0  0  0  0  0  0  0  0  0
   38.4990   26.2570   43.1270 C   0  0  0  0  0  0  0  0  0  0  0  0
   38.1810   25.1530   42.4220 N   0  0  0  0  0  0  0  0  0  0  0  0
   37.4480   25.2350   41.2930 C   0  0  0  0  0  0  0  0  0  0  0  0
   37.0140   26.3970   40.8370 N   0  0  0  0  0  0  0  0  0  0  0  0
   38.2720   28.4150   43.1840 H   0  0  0  0  0  0  0  0  0  0  0  0
   39.0870   26.1840   44.0310 H   0  0  0  0  0  0  0  0  0  0  0  0
   37.0600   24.0700   40.4650 C   0  0  0  0  0  0  0  0  0  0  0  0
   35.9050   23.8440   39.5240 C   0  0  0  0  0  0  0  0  0  0  0  0
   35.3030   24.9020   39.5880 H   0  0  0  0  0  0  0  0  0  0  0  0
   36.3380   22.0750   39.0060 S   0  0  0  0  0  0  0  0  0  0  0  0
   37.8830   22.0230   40.0980 C   0  0  0  0  0  0  0  0  0  0  0  0
   38.3050   21.0440   39.9410 H   0  0  0  0  0  0  0  0  0  0  0  0
   37.9900   23.1460   40.7020 N   0  0  0  0  0  0  0  0  0  0  0  0
  1 24  1  0  0  0  0
  1  5  1  0  0  0  0
  2  1  2  0  0  0  0
  3  2  1  0  0  0  0
  3  4  1  0  0  0  0
  4  6  1  0  0  0  0
  4  5  2  0  0  0  0
  6 11  1  0  0  0  0
  7  6  1  0  0  0  0
  7 14  1  0  0  0  0
  8 17  1  0  0  0  0
  8  9  1  0  0  0  0
  8  7  1  0  0  0  0
  9 10  1  0  0  0  0
 10 20  1  0  0  0  0
 10 11  1  0  0  0  0
 10 21  1  0  0  0  0
 11 22  1  0  0  0  0
 12  2  1  0  0  0  0
 13  3  1  0  0  0  0
 15  7  1  0  0  0  0
 16  8  1  0  0  0  0
 18  9  1  0  0  0  0
 19  9  1  0  0  0  0
 23 11  1  0  0  0  0
 24 28  1  0  0  0  0
 24 26  1  0  0  0  0
 25 24  1  0  0  0  0
 27 29  1  0  0  0  0
 28 27  2  0  0  0  0
 29 30  1  0  0  0  0
 30 31  2  0  0  0  0
 30 35  1  0  0  0  0
 31 36  1  0  0  0  0
 32 31  1  0  0  0  0
 33 32  2  0  0  0  0
 34 33  1  0  0  0  0
 34 29  2  0  0  0  0
 37 43  1  0  0  0  0
 37 33  1  0  0  0  0
 38 39  1  0  0  0  0
 38 37  2  0  0  0  0
 40 38  1  0  0  0  0
 40 41  1  0  0  0  0
 41 43  2  0  0  0  0
 42 41  1  0  0  0  0
M  END
>  <minimizedAffinity>
-5.41586924

$$$$
