
 OpenBabel03252509113D

 29 32  0  0  0  0  0  0  0  0999 V2000
   45.7520   29.7480   45.0300 C   0  0  0  0  0  0  0  0  0  0  0  0
   45.6610   30.9630   44.3690 C   0  0  0  0  0  0  0  0  0  0  0  0
   46.0910   32.1420   44.9340 C   0  0  0  0  0  0  0  0  0  0  0  0
   46.6420   32.1540   46.2140 C   0  0  0  0  0  0  0  0  0  0  0  0
   47.1500   33.0970   47.0480 N   0  0  0  0  0  0  0  0  0  0  0  0
   47.5470   32.4960   48.1960 C   0  0  0  0  0  0  0  0  0  0  0  0
   47.2740   31.1670   48.0500 N   0  0  0  0  0  0  0  0  0  0  0  0
   46.7200   30.9390   46.8470 C   0  0  0  0  0  0  0  0  0  0  0  0
   46.3040   29.7420   46.3180 C   0  0  0  0  0  0  0  0  0  0  0  0
   45.3960   28.8490   44.5300 H   0  0  0  0  0  0  0  0  0  0  0  0
   47.1920   34.1040   46.7740 H   0  0  0  0  0  0  0  0  0  0  0  0
   47.9820   33.0790   48.9950 H   0  0  0  0  0  0  0  0  0  0  0  0
   46.3760   28.7940   46.8360 H   0  0  0  0  0  0  0  0  0  0  0  0
   43.2500   31.3810   41.6300 C   0  0  0  0  0  0  0  0  0  0  0  0
   44.0270   31.0400   40.5000 C   0  0  0  0  0  0  0  0  0  0  0  0
   45.3810   30.6660   40.6870 C   0  0  0  0  0  0  0  0  0  0  0  0
   45.8430   30.6640   41.9760 N   0  0  0  0  0  0  0  0  0  0  0  0
   45.0930   30.9910   43.0320 C   0  0  0  0  0  0  0  0  0  0  0  0
   43.8020   31.3470   42.8580 N   0  0  0  0  0  0  0  0  0  0  0  0
   42.2130   31.6710   41.5330 H   0  0  0  0  0  0  0  0  0  0  0  0
   43.5900   31.0660   39.5160 H   0  0  0  0  0  0  0  0  0  0  0  0
   45.9950   30.4030   39.8540 H   0  0  0  0  0  0  0  0  0  0  0  0
   46.0010   33.4390   44.2460 C   0  0  0  0  0  0  0  0  0  0  0  0
   46.8230   33.8300   43.1880 C   0  0  0  0  0  0  0  0  0  0  0  0
   47.6010   33.1790   42.7980 H   0  0  0  0  0  0  0  0  0  0  0  0
   46.2260   35.4900   42.7920 S   0  0  0  0  0  0  0  0  0  0  0  0
   44.9060   35.3820   44.1810 C   0  0  0  0  0  0  0  0  0  0  0  0
   44.1060   36.1520   44.5200 H   0  0  0  0  0  0  0  0  0  0  0  0
   45.0620   34.2330   44.7120 N   0  0  0  0  0  0  0  0  0  0  0  0
  1  9  1  0  0  0  0
  2  3  1  0  0  0  0
  2  1  2  0  0  0  0
  3  4  2  0  0  0  0
  4  8  1  0  0  0  0
  4  5  1  0  0  0  0
  5  6  1  0  0  0  0
  6 12  1  0  0  0  0
  7  6  2  0  0  0  0
  8  7  1  0  0  0  0
  9 13  1  0  0  0  0
  9  8  2  0  0  0  0
 10  1  1  0  0  0  0
 11  5  1  0  0  0  0
 14 19  1  0  0  0  0
 15 16  1  0  0  0  0
 15 14  2  0  0  0  0
 16 17  2  0  0  0  0
 17 18  1  0  0  0  0
 18  2  1  0  0  0  0
 19 18  2  0  0  0  0
 20 14  1  0  0  0  0
 21 15  1  0  0  0  0
 22 16  1  0  0  0  0
 23 29  1  0  0  0  0
 23  3  1  0  0  0  0
 24 23  2  0  0  0  0
 25 24  1  0  0  0  0
 26 24  1  0  0  0  0
 26 27  1  0  0  0  0
 27 28  1  0  0  0  0
 27 29  2  0  0  0  0
M  END
>  <minimizedAffinity>
-4.08334637

>  <minimizedRMSD>
3.15710592

$$$$
