
 OpenBabel03242521353D

 29 32  0  0  0  0  0  0  0  0999 V2000
   37.1670   27.4980   43.6790 C   0  0  0  0  0  0  0  0  0  0  0  0
   37.5140   28.8210   43.2960 C   0  0  0  0  0  0  0  0  0  0  0  0
   37.6380   29.1020   41.9490 C   0  0  0  0  0  0  0  0  0  0  0  0
   37.4270   28.1130   41.0320 N   0  0  0  0  0  0  0  0  0  0  0  0
   37.0930   26.8510   41.4560 C   0  0  0  0  0  0  0  0  0  0  0  0
   36.9710   26.5680   42.7520 N   0  0  0  0  0  0  0  0  0  0  0  0
   37.0690   27.2730   44.7300 H   0  0  0  0  0  0  0  0  0  0  0  0
   37.6810   29.5970   44.0030 H   0  0  0  0  0  0  0  0  0  0  0  0
   37.0180   31.1070   40.7480 C   0  0  0  0  0  0  0  0  0  0  0  0
   37.9880   30.4170   41.4210 C   0  0  0  0  0  0  0  0  0  0  0  0
   39.2310   30.9900   41.5670 C   0  0  0  0  0  0  0  0  0  0  0  0
   39.5410   32.2420   41.0590 C   0  0  0  0  0  0  0  0  0  0  0  0
   40.6670   32.9940   41.0800 N   0  0  0  0  0  0  0  0  0  0  0  0
   40.3780   34.1610   40.4090 C   0  0  0  0  0  0  0  0  0  0  0  0
   39.0920   34.1100   39.9890 N   0  0  0  0  0  0  0  0  0  0  0  0
   38.5540   32.9410   40.3750 C   0  0  0  0  0  0  0  0  0  0  0  0
   37.3050   32.3710   40.2250 C   0  0  0  0  0  0  0  0  0  0  0  0
   36.0350   30.6750   40.6220 H   0  0  0  0  0  0  0  0  0  0  0  0
   39.9600   30.3990   42.1090 H   0  0  0  0  0  0  0  0  0  0  0  0
   41.5360   32.6740   41.5370 H   0  0  0  0  0  0  0  0  0  0  0  0
   41.0950   34.9590   40.2670 H   0  0  0  0  0  0  0  0  0  0  0  0
   36.5130   32.8710   39.7070 H   0  0  0  0  0  0  0  0  0  0  0  0
   36.8980   25.8940   40.3420 C   0  0  0  0  0  0  0  0  0  0  0  0
   36.5010   26.2930   39.0610 C   0  0  0  0  0  0  0  0  0  0  0  0
   36.3090   27.2900   38.7770 H   0  0  0  0  0  0  0  0  0  0  0  0
   36.4450   24.7300   38.1990 S   0  0  0  0  0  0  0  0  0  0  0  0
   36.9810   23.7530   39.7430 C   0  0  0  0  0  0  0  0  0  0  0  0
   37.1260   22.6530   39.8130 H   0  0  0  0  0  0  0  0  0  0  0  0
   37.1060   24.6080   40.5620 N   0  0  0  0  0  0  0  0  0  0  0  0
  1  7  1  0  0  0  0
  2  1  1  0  0  0  0
  2  8  1  0  0  0  0
  3  2  2  0  0  0  0
  4  5  2  0  0  0  0
  4  3  1  0  0  0  0
  5  6  1  0  0  0  0
  6  1  2  0  0  0  0
  9 10  1  0  0  0  0
 10 11  2  0  0  0  0
 10  3  1  0  0  0  0
 11 19  1  0  0  0  0
 12 13  1  0  0  0  0
 12 11  1  0  0  0  0
 13 20  1  0  0  0  0
 14 13  1  0  0  0  0
 15 16  1  0  0  0  0
 15 14  2  0  0  0  0
 16 12  2  0  0  0  0
 17 16  1  0  0  0  0
 17  9  2  0  0  0  0
 18  9  1  0  0  0  0
 21 14  1  0  0  0  0
 22 17  1  0  0  0  0
 23 29  1  0  0  0  0
 23  5  1  0  0  0  0
 24 23  2  0  0  0  0
 25 24  1  0  0  0  0
 26 24  1  0  0  0  0
 26 27  1  0  0  0  0
 27 28  1  0  0  0  0
 27 29  2  0  0  0  0
M  END
>  <minimizedAffinity>
-5.32663488

$$$$

 OpenBabel03242521353D

 29 32  0  0  0  0  0  0  0  0999 V2000
   36.2240   30.7630   41.0070 C   0  0  0  0  0  0  0  0  0  0  0  0
   37.2470   31.6250   40.5270 C   0  0  0  0  0  0  0  0  0  0  0  0
   38.5550   31.1830   40.5780 C   0  0  0  0  0  0  0  0  0  0  0  0
   38.8270   29.9430   41.0800 N   0  0  0  0  0  0  0  0  0  0  0  0
   37.8030   29.1490   41.5300 C   0  0  0  0  0  0  0  0  0  0  0  0
   36.5370   29.5660   41.4870 N   0  0  0  0  0  0  0  0  0  0  0  0
   35.2020   31.1040   40.9700 H   0  0  0  0  0  0  0  0  0  0  0  0
   37.0430   32.5920   40.1360 H   0  0  0  0  0  0  0  0  0  0  0  0
   40.5820   32.4060   41.0640 C   0  0  0  0  0  0  0  0  0  0  0  0
   39.6970   31.9660   40.1190 C   0  0  0  0  0  0  0  0  0  0  0  0
   39.9250   32.2790   38.7980 C   0  0  0  0  0  0  0  0  0  0  0  0
   41.0190   33.0230   38.3850 C   0  0  0  0  0  0  0  0  0  0  0  0
   41.4440   33.4440   37.1690 N   0  0  0  0  0  0  0  0  0  0  0  0
   42.6060   34.1510   37.3770 C   0  0  0  0  0  0  0  0  0  0  0  0
   42.8770   34.1560   38.7040 N   0  0  0  0  0  0  0  0  0  0  0  0
   41.9170   33.4700   39.3470 C   0  0  0  0  0  0  0  0  0  0  0  0
   41.6940   33.1590   40.6730 C   0  0  0  0  0  0  0  0  0  0  0  0
   40.4220   32.1720   42.1070 H   0  0  0  0  0  0  0  0  0  0  0  0
   39.1920   31.9050   38.0930 H   0  0  0  0  0  0  0  0  0  0  0  0
   40.9290   33.2290   36.3000 H   0  0  0  0  0  0  0  0  0  0  0  0
   43.1760   34.6100   36.5790 H   0  0  0  0  0  0  0  0  0  0  0  0
   42.3570   33.4800   41.4500 H   0  0  0  0  0  0  0  0  0  0  0  0
   38.2620   27.8380   42.0440 C   0  0  0  0  0  0  0  0  0  0  0  0
   38.0050   26.6320   41.3820 C   0  0  0  0  0  0  0  0  0  0  0  0
   37.4730   26.5490   40.4750 H   0  0  0  0  0  0  0  0  0  0  0  0
   38.7910   25.4520   42.4660 S   0  0  0  0  0  0  0  0  0  0  0  0
   39.3610   26.8040   43.6790 C   0  0  0  0  0  0  0  0  0  0  0  0
   39.9390   26.6520   44.6160 H   0  0  0  0  0  0  0  0  0  0  0  0
   38.9430   27.7990   43.1750 N   0  0  0  0  0  0  0  0  0  0  0  0
  1  6  1  0  0  0  0
  2  3  1  0  0  0  0
  2  1  2  0  0  0  0
  3  4  2  0  0  0  0
  4  5  1  0  0  0  0
  5 23  1  0  0  0  0
  6  5  2  0  0  0  0
  7  1  1  0  0  0  0
  8  2  1  0  0  0  0
  9 18  1  0  0  0  0
 10  3  1  0  0  0  0
 10  9  2  0  0  0  0
 11 10  1  0  0  0  0
 12 11  2  0  0  0  0
 12 16  1  0  0  0  0
 13 14  1  0  0  0  0
 13 12  1  0  0  0  0
 14 15  2  0  0  0  0
 15 16  1  0  0  0  0
 16 17  2  0  0  0  0
 17  9  1  0  0  0  0
 17 22  1  0  0  0  0
 19 11  1  0  0  0  0
 20 13  1  0  0  0  0
 21 14  1  0  0  0  0
 23 29  1  0  0  0  0
 24 23  2  0  0  0  0
 24 26  1  0  0  0  0
 25 24  1  0  0  0  0
 26 27  1  0  0  0  0
 27 28  1  0  0  0  0
 29 27  2  0  0  0  0
M  END
>  <minimizedAffinity>
-5.28450012

$$$$

 OpenBabel03242521353D

 29 32  0  0  0  0  0  0  0  0999 V2000
   39.5120   26.6540   43.5940 C   0  0  0  0  0  0  0  0  0  0  0  0
   39.6090   28.0260   43.2390 C   0  0  0  0  0  0  0  0  0  0  0  0
   38.9200   28.4660   42.1260 C   0  0  0  0  0  0  0  0  0  0  0  0
   38.1720   27.5810   41.4040 N   0  0  0  0  0  0  0  0  0  0  0  0
   38.1110   26.2660   41.7900 C   0  0  0  0  0  0  0  0  0  0  0  0
   38.7720   25.8300   42.8630 N   0  0  0  0  0  0  0  0  0  0  0  0
   40.0490   26.3060   44.4630 H   0  0  0  0  0  0  0  0  0  0  0  0
   40.1900   28.7220   43.7950 H   0  0  0  0  0  0  0  0  0  0  0  0
   40.1160   30.5310   41.7350 C   0  0  0  0  0  0  0  0  0  0  0  0
   38.9340   29.8460   41.6520 C   0  0  0  0  0  0  0  0  0  0  0  0
   37.8320   30.4840   41.1310 C   0  0  0  0  0  0  0  0  0  0  0  0
   37.8690   31.7950   40.6850 C   0  0  0  0  0  0  0  0  0  0  0  0
   36.9350   32.6140   40.1430 N   0  0  0  0  0  0  0  0  0  0  0  0
   37.5570   33.8160   39.8930 C   0  0  0  0  0  0  0  0  0  0  0  0
   38.8510   33.7220   40.2800 N   0  0  0  0  0  0  0  0  0  0  0  0
   39.0700   32.4900   40.7700 C   0  0  0  0  0  0  0  0  0  0  0  0
   40.1790   31.8550   41.2920 C   0  0  0  0  0  0  0  0  0  0  0  0
   40.9940   30.0490   42.1410 H   0  0  0  0  0  0  0  0  0  0  0  0
   36.9240   29.8940   41.0890 H   0  0  0  0  0  0  0  0  0  0  0  0
   35.9610   32.3100   39.9840 H   0  0  0  0  0  0  0  0  0  0  0  0
   37.0520   34.6680   39.4560 H   0  0  0  0  0  0  0  0  0  0  0  0
   41.1260   32.3480   41.3780 H   0  0  0  0  0  0  0  0  0  0  0  0
   37.2600   25.4360   40.9060 C   0  0  0  0  0  0  0  0  0  0  0  0
   36.8380   24.1470   41.2520 C   0  0  0  0  0  0  0  0  0  0  0  0
   37.0810   23.6600   42.1550 H   0  0  0  0  0  0  0  0  0  0  0  0
   35.8740   23.6890   39.8220 S   0  0  0  0  0  0  0  0  0  0  0  0
   36.1970   25.3520   38.9530 C   0  0  0  0  0  0  0  0  0  0  0  0
   35.8200   25.6620   37.9550 H   0  0  0  0  0  0  0  0  0  0  0  0
   36.8800   25.9280   39.7410 N   0  0  0  0  0  0  0  0  0  0  0  0
  1  7  1  0  0  0  0
  2  1  1  0  0  0  0
  2  8  1  0  0  0  0
  3  2  2  0  0  0  0
  4  5  2  0  0  0  0
  4  3  1  0  0  0  0
  5  6  1  0  0  0  0
  6  1  2  0  0  0  0
  9 18  1  0  0  0  0
 10  9  1  0  0  0  0
 10  3  1  0  0  0  0
 11 10  2  0  0  0  0
 12 16  2  0  0  0  0
 12 11  1  0  0  0  0
 13 12  1  0  0  0  0
 14 13  1  0  0  0  0
 14 15  2  0  0  0  0
 15 16  1  0  0  0  0
 16 17  1  0  0  0  0
 17 22  1  0  0  0  0
 17  9  2  0  0  0  0
 19 11  1  0  0  0  0
 20 13  1  0  0  0  0
 21 14  1  0  0  0  0
 23 24  2  0  0  0  0
 23  5  1  0  0  0  0
 24 25  1  0  0  0  0
 26 24  1  0  0  0  0
 27 29  2  0  0  0  0
 27 26  1  0  0  0  0
 28 27  1  0  0  0  0
 29 23  1  0  0  0  0
M  END
>  <minimizedAffinity>
-5.20487213

$$$$

 OpenBabel03242521353D

 29 32  0  0  0  0  0  0  0  0999 V2000
   37.0290   32.5110   39.9370 C   0  0  0  0  0  0  0  0  0  0  0  0
   36.6990   31.1820   40.3180 C   0  0  0  0  0  0  0  0  0  0  0  0
   37.6810   30.4050   40.9020 C   0  0  0  0  0  0  0  0  0  0  0  0
   38.9270   30.9280   41.0970 N   0  0  0  0  0  0  0  0  0  0  0  0
   39.1930   32.2180   40.7110 C   0  0  0  0  0  0  0  0  0  0  0  0
   38.2540   32.9760   40.1460 N   0  0  0  0  0  0  0  0  0  0  0  0
   36.2660   33.1210   39.4790 H   0  0  0  0  0  0  0  0  0  0  0  0
   35.7320   30.7670   40.1690 H   0  0  0  0  0  0  0  0  0  0  0  0
   37.4010   28.7960   42.6850 C   0  0  0  0  0  0  0  0  0  0  0  0
   37.4760   29.0280   41.3390 C   0  0  0  0  0  0  0  0  0  0  0  0
   37.3550   27.9650   40.4740 C   0  0  0  0  0  0  0  0  0  0  0  0
   37.1580   26.6640   40.9120 C   0  0  0  0  0  0  0  0  0  0  0  0
   37.0100   25.4840   40.2640 N   0  0  0  0  0  0  0  0  0  0  0  0
   36.8420   24.5180   41.2300 C   0  0  0  0  0  0  0  0  0  0  0  0
   36.8890   25.1110   42.4470 N   0  0  0  0  0  0  0  0  0  0  0  0
   37.0820   26.4310   42.2800 C   0  0  0  0  0  0  0  0  0  0  0  0
   37.2030   27.4940   43.1530 C   0  0  0  0  0  0  0  0  0  0  0  0
   37.4930   29.6180   43.3820 H   0  0  0  0  0  0  0  0  0  0  0  0
   37.4220   28.2060   39.4200 H   0  0  0  0  0  0  0  0  0  0  0  0
   37.0330   25.4140   39.2340 H   0  0  0  0  0  0  0  0  0  0  0  0
   36.6990   23.4690   41.0050 H   0  0  0  0  0  0  0  0  0  0  0  0
   37.1510   27.3640   44.2140 H   0  0  0  0  0  0  0  0  0  0  0  0
   40.5870   32.6350   40.9890 C   0  0  0  0  0  0  0  0  0  0  0  0
   41.1270   33.8370   40.5180 C   0  0  0  0  0  0  0  0  0  0  0  0
   40.6010   34.5410   39.9350 H   0  0  0  0  0  0  0  0  0  0  0  0
   42.7880   33.7640   41.1670 S   0  0  0  0  0  0  0  0  0  0  0  0
   42.4910   32.0760   41.9970 C   0  0  0  0  0  0  0  0  0  0  0  0
   43.2260   31.4920   42.5910 H   0  0  0  0  0  0  0  0  0  0  0  0
   41.3580   31.8430   41.7120 N   0  0  0  0  0  0  0  0  0  0  0  0
  1  6  2  0  0  0  0
  1  2  1  0  0  0  0
  2  3  2  0  0  0  0
  3  4  1  0  0  0  0
  3 10  1  0  0  0  0
  5 23  1  0  0  0  0
  5  4  2  0  0  0  0
  6  5  1  0  0  0  0
  7  1  1  0  0  0  0
  8  2  1  0  0  0  0
  9 17  1  0  0  0  0
  9 18  1  0  0  0  0
 10  9  2  0  0  0  0
 11 12  2  0  0  0  0
 11 10  1  0  0  0  0
 12 16  1  0  0  0  0
 13 12  1  0  0  0  0
 13 14  1  0  0  0  0
 14 15  2  0  0  0  0
 16 15  1  0  0  0  0
 16 17  2  0  0  0  0
 17 22  1  0  0  0  0
 19 11  1  0  0  0  0
 20 13  1  0  0  0  0
 21 14  1  0  0  0  0
 23 29  1  0  0  0  0
 24 23  2  0  0  0  0
 24 26  1  0  0  0  0
 25 24  1  0  0  0  0
 26 27  1  0  0  0  0
 27 28  1  0  0  0  0
 29 27  2  0  0  0  0
M  END
>  <minimizedAffinity>
-5.09315777

$$$$

 OpenBabel03242521353D

 29 32  0  0  0  0  0  0  0  0999 V2000
   34.3660   29.0450   35.2860 C   0  0  0  0  0  0  0  0  0  0  0  0
   35.2160   28.7190   36.3770 C   0  0  0  0  0  0  0  0  0  0  0  0
   34.6720   28.6910   37.6460 C   0  0  0  0  0  0  0  0  0  0  0  0
   33.3470   28.9730   37.8180 N   0  0  0  0  0  0  0  0  0  0  0  0
   32.5690   29.2820   36.7300 C   0  0  0  0  0  0  0  0  0  0  0  0
   33.0830   29.3130   35.5010 N   0  0  0  0  0  0  0  0  0  0  0  0
   34.7860   29.0690   34.2930 H   0  0  0  0  0  0  0  0  0  0  0  0
   36.2480   28.4990   36.2530 H   0  0  0  0  0  0  0  0  0  0  0  0
   36.0230   27.1400   38.9180 C   0  0  0  0  0  0  0  0  0  0  0  0
   35.4310   28.3720   38.8510 C   0  0  0  0  0  0  0  0  0  0  0  0
   35.5820   29.2390   39.9080 C   0  0  0  0  0  0  0  0  0  0  0  0
   36.3110   28.9160   41.0420 C   0  0  0  0  0  0  0  0  0  0  0  0
   36.5940   29.5910   42.1820 N   0  0  0  0  0  0  0  0  0  0  0  0
   37.3700   28.7580   42.9550 C   0  0  0  0  0  0  0  0  0  0  0  0
   37.5510   27.5930   42.2870 N   0  0  0  0  0  0  0  0  0  0  0  0
   36.9110   27.6640   41.1080 C   0  0  0  0  0  0  0  0  0  0  0  0
   36.7630   26.7890   40.0500 C   0  0  0  0  0  0  0  0  0  0  0  0
   35.9170   26.4440   38.0970 H   0  0  0  0  0  0  0  0  0  0  0  0
   35.0930   30.2000   39.8010 H   0  0  0  0  0  0  0  0  0  0  0  0
   36.2500   30.5490   42.3560 H   0  0  0  0  0  0  0  0  0  0  0  0
   37.7500   29.0330   43.9310 H   0  0  0  0  0  0  0  0  0  0  0  0
   37.2060   25.8150   40.0540 H   0  0  0  0  0  0  0  0  0  0  0  0
   31.1580   29.5620   37.0820 C   0  0  0  0  0  0  0  0  0  0  0  0
   30.1030   29.3930   36.1770 C   0  0  0  0  0  0  0  0  0  0  0  0
   30.2150   29.0580   35.1840 H   0  0  0  0  0  0  0  0  0  0  0  0
   28.7000   29.8800   37.1670 S   0  0  0  0  0  0  0  0  0  0  0  0
   29.7810   30.2460   38.6900 C   0  0  0  0  0  0  0  0  0  0  0  0
   29.4290   30.6090   39.6800 H   0  0  0  0  0  0  0  0  0  0  0  0
   30.8770   29.9910   38.2990 N   0  0  0  0  0  0  0  0  0  0  0  0
  1  6  2  0  0  0  0
  1  2  1  0  0  0  0
  2  3  2  0  0  0  0
  3  4  1  0  0  0  0
  3 10  1  0  0  0  0
  5 23  1  0  0  0  0
  5  4  2  0  0  0  0
  6  5  1  0  0  0  0
  7  1  1  0  0  0  0
  8  2  1  0  0  0  0
  9 17  1  0  0  0  0
 10  9  2  0  0  0  0
 10 11  1  0  0  0  0
 11 12  2  0  0  0  0
 12 16  1  0  0  0  0
 12 13  1  0  0  0  0
 13 20  1  0  0  0  0
 13 14  1  0  0  0  0
 14 21  1  0  0  0  0
 15 14  2  0  0  0  0
 16 15  1  0  0  0  0
 17 22  1  0  0  0  0
 17 16  2  0  0  0  0
 18  9  1  0  0  0  0
 19 11  1  0  0  0  0
 23 29  1  0  0  0  0
 24 23  2  0  0  0  0
 24 26  1  0  0  0  0
 25 24  1  0  0  0  0
 26 27  1  0  0  0  0
 27 28  1  0  0  0  0
 29 27  2  0  0  0  0
M  END
>  <minimizedAffinity>
-5.01216841

$$$$

 OpenBabel03242521353D

 29 32  0  0  0  0  0  0  0  0999 V2000
   37.0950   32.1710   40.2930 C   0  0  0  0  0  0  0  0  0  0  0  0
   36.8000   30.8900   40.8340 C   0  0  0  0  0  0  0  0  0  0  0  0
   37.6430   29.8400   40.5290 C   0  0  0  0  0  0  0  0  0  0  0  0
   38.7250   30.0560   39.7250 N   0  0  0  0  0  0  0  0  0  0  0  0
   38.9660   31.3130   39.2290 C   0  0  0  0  0  0  0  0  0  0  0  0
   38.1580   32.3340   39.5160 N   0  0  0  0  0  0  0  0  0  0  0  0
   36.4390   32.9940   40.5280 H   0  0  0  0  0  0  0  0  0  0  0  0
   35.9590   30.7120   41.4600 H   0  0  0  0  0  0  0  0  0  0  0  0
   37.0460   28.3210   42.3130 C   0  0  0  0  0  0  0  0  0  0  0  0
   37.4560   28.4770   41.0180 C   0  0  0  0  0  0  0  0  0  0  0  0
   37.6680   27.3560   40.2480 C   0  0  0  0  0  0  0  0  0  0  0  0
   37.4810   26.0710   40.7320 C   0  0  0  0  0  0  0  0  0  0  0  0
   37.6210   24.8440   40.1740 N   0  0  0  0  0  0  0  0  0  0  0  0
   37.2900   23.9260   41.1450 C   0  0  0  0  0  0  0  0  0  0  0  0
   36.9560   24.5940   42.2750 N   0  0  0  0  0  0  0  0  0  0  0  0
   37.0650   25.9140   42.0490 C   0  0  0  0  0  0  0  0  0  0  0  0
   36.8510   27.0350   42.8260 C   0  0  0  0  0  0  0  0  0  0  0  0
   36.8740   29.1880   42.9350 H   0  0  0  0  0  0  0  0  0  0  0  0
   37.9920   27.5390   39.2300 H   0  0  0  0  0  0  0  0  0  0  0  0
   37.9240   24.7150   39.1960 H   0  0  0  0  0  0  0  0  0  0  0  0
   37.3090   22.8560   40.9850 H   0  0  0  0  0  0  0  0  0  0  0  0
   36.5290   26.9660   43.8440 H   0  0  0  0  0  0  0  0  0  0  0  0
   40.1750   31.3830   38.3760 C   0  0  0  0  0  0  0  0  0  0  0  0
   40.8450   30.2440   37.9170 C   0  0  0  0  0  0  0  0  0  0  0  0
   40.5570   29.2530   38.1320 H   0  0  0  0  0  0  0  0  0  0  0  0
   42.1750   30.9660   36.9710 S   0  0  0  0  0  0  0  0  0  0  0  0
   41.6060   32.7430   37.3510 C   0  0  0  0  0  0  0  0  0  0  0  0
   42.0870   33.6820   37.0010 H   0  0  0  0  0  0  0  0  0  0  0  0
   40.6440   32.5680   38.0310 N   0  0  0  0  0  0  0  0  0  0  0  0
  1  7  1  0  0  0  0
  1  2  1  0  0  0  0
  2  8  1  0  0  0  0
  3  2  2  0  0  0  0
  3 10  1  0  0  0  0
  4  3  1  0  0  0  0
  5  6  1  0  0  0  0
  5  4  2  0  0  0  0
  6  1  2  0  0  0  0
  9 17  1  0  0  0  0
  9 18  1  0  0  0  0
 10  9  2  0  0  0  0
 11 12  2  0  0  0  0
 11 10  1  0  0  0  0
 12 16  1  0  0  0  0
 13 12  1  0  0  0  0
 13 14  1  0  0  0  0
 14 15  2  0  0  0  0
 16 15  1  0  0  0  0
 16 17  2  0  0  0  0
 17 22  1  0  0  0  0
 19 11  1  0  0  0  0
 20 13  1  0  0  0  0
 21 14  1  0  0  0  0
 23  5  1  0  0  0  0
 24 25  1  0  0  0  0
 24 23  2  0  0  0  0
 26 27  1  0  0  0  0
 26 24  1  0  0  0  0
 27 29  2  0  0  0  0
 28 27  1  0  0  0  0
 29 23  1  0  0  0  0
M  END
>  <minimizedAffinity>
-4.98180485

$$$$

 OpenBabel03242521353D

 29 32  0  0  0  0  0  0  0  0999 V2000
   37.4680   28.4580   43.5090 C   0  0  0  0  0  0  0  0  0  0  0  0
   37.3500   27.1360   43.0020 C   0  0  0  0  0  0  0  0  0  0  0  0
   37.2760   26.9620   41.6330 C   0  0  0  0  0  0  0  0  0  0  0  0
   37.3170   28.0530   40.8130 N   0  0  0  0  0  0  0  0  0  0  0  0
   37.4320   29.3090   41.3540 C   0  0  0  0  0  0  0  0  0  0  0  0
   37.5040   29.4880   42.6730 N   0  0  0  0  0  0  0  0  0  0  0  0
   37.5250   28.5980   44.5770 H   0  0  0  0  0  0  0  0  0  0  0  0
   37.3160   26.2810   43.6330 H   0  0  0  0  0  0  0  0  0  0  0  0
   37.7110   24.5840   41.6150 C   0  0  0  0  0  0  0  0  0  0  0  0
   37.1540   25.6620   40.9830 C   0  0  0  0  0  0  0  0  0  0  0  0
   36.5110   25.4680   39.7820 C   0  0  0  0  0  0  0  0  0  0  0  0
   36.4050   24.2230   39.1830 C   0  0  0  0  0  0  0  0  0  0  0  0
   35.8310   23.7970   38.0320 N   0  0  0  0  0  0  0  0  0  0  0  0
   36.0430   22.4390   37.9620 C   0  0  0  0  0  0  0  0  0  0  0  0
   36.7360   22.0520   39.0590 N   0  0  0  0  0  0  0  0  0  0  0  0
   36.9720   23.1290   39.8260 C   0  0  0  0  0  0  0  0  0  0  0  0
   37.6180   23.3170   41.0320 C   0  0  0  0  0  0  0  0  0  0  0  0
   38.2200   24.7140   42.5600 H   0  0  0  0  0  0  0  0  0  0  0  0
   36.0890   26.3560   39.3260 H   0  0  0  0  0  0  0  0  0  0  0  0
   35.3470   24.4400   37.3860 H   0  0  0  0  0  0  0  0  0  0  0  0
   35.6920   21.8230   37.1440 H   0  0  0  0  0  0  0  0  0  0  0  0
   38.0690   22.5060   41.5650 H   0  0  0  0  0  0  0  0  0  0  0  0
   37.4630   30.3830   40.3350 C   0  0  0  0  0  0  0  0  0  0  0  0
   37.6180   30.1270   38.9680 C   0  0  0  0  0  0  0  0  0  0  0  0
   37.7240   29.1660   38.5480 H   0  0  0  0  0  0  0  0  0  0  0  0
   37.5760   31.7760   38.2860 S   0  0  0  0  0  0  0  0  0  0  0  0
   37.3490   32.5800   39.9970 C   0  0  0  0  0  0  0  0  0  0  0  0
   37.2550   33.6660   40.2110 H   0  0  0  0  0  0  0  0  0  0  0  0
   37.3390   31.6380   40.7270 N   0  0  0  0  0  0  0  0  0  0  0  0
  1  7  1  0  0  0  0
  2  1  1  0  0  0  0
  2  8  1  0  0  0  0
  3  2  2  0  0  0  0
  4  5  2  0  0  0  0
  4  3  1  0  0  0  0
  5  6  1  0  0  0  0
  6  1  2  0  0  0  0
  9 18  1  0  0  0  0
 10  9  2  0  0  0  0
 10  3  1  0  0  0  0
 11 10  1  0  0  0  0
 12 11  2  0  0  0  0
 12 16  1  0  0  0  0
 13 12  1  0  0  0  0
 14 13  1  0  0  0  0
 14 15  2  0  0  0  0
 15 16  1  0  0  0  0
 16 17  2  0  0  0  0
 17 22  1  0  0  0  0
 17  9  1  0  0  0  0
 19 11  1  0  0  0  0
 20 13  1  0  0  0  0
 21 14  1  0  0  0  0
 23 29  1  0  0  0  0
 23  5  1  0  0  0  0
 24 23  2  0  0  0  0
 25 24  1  0  0  0  0
 26 24  1  0  0  0  0
 26 27  1  0  0  0  0
 27 28  1  0  0  0  0
 27 29  2  0  0  0  0
M  END
>  <minimizedAffinity>
-4.93060112

$$$$

 OpenBabel03242521353D

 29 32  0  0  0  0  0  0  0  0999 V2000
   38.1010   34.1460   40.1460 C   0  0  0  0  0  0  0  0  0  0  0  0
   37.3110   33.1320   39.5400 C   0  0  0  0  0  0  0  0  0  0  0  0
   37.9470   32.1800   38.7680 C   0  0  0  0  0  0  0  0  0  0  0  0
   39.3020   32.2370   38.6090 N   0  0  0  0  0  0  0  0  0  0  0  0
   40.0180   33.2370   39.2170 C   0  0  0  0  0  0  0  0  0  0  0  0
   39.4150   34.1610   39.9640 N   0  0  0  0  0  0  0  0  0  0  0  0
   37.6090   34.8920   40.7500 H   0  0  0  0  0  0  0  0  0  0  0  0
   36.2560   33.0820   39.6580 H   0  0  0  0  0  0  0  0  0  0  0  0
   36.3340   30.3800   38.8110 C   0  0  0  0  0  0  0  0  0  0  0  0
   37.2560   31.0880   38.0910 C   0  0  0  0  0  0  0  0  0  0  0  0
   37.4840   30.7400   36.7790 C   0  0  0  0  0  0  0  0  0  0  0  0
   36.8130   29.6990   36.1550 C   0  0  0  0  0  0  0  0  0  0  0  0
   36.8660   29.1860   34.9020 N   0  0  0  0  0  0  0  0  0  0  0  0
   35.9610   28.1500   34.8590 C   0  0  0  0  0  0  0  0  0  0  0  0
   35.3710   28.0400   36.0730 N   0  0  0  0  0  0  0  0  0  0  0  0
   35.8760   28.9810   36.8890 C   0  0  0  0  0  0  0  0  0  0  0  0
   35.6440   29.3250   38.2050 C   0  0  0  0  0  0  0  0  0  0  0  0
   36.1400   30.6370   39.8430 H   0  0  0  0  0  0  0  0  0  0  0  0
   38.2240   31.3340   36.2560 H   0  0  0  0  0  0  0  0  0  0  0  0
   37.4970   29.5640   34.1780 H   0  0  0  0  0  0  0  0  0  0  0  0
   35.7840   27.5490   33.9760 H   0  0  0  0  0  0  0  0  0  0  0  0
   34.9330   28.8030   38.8110 H   0  0  0  0  0  0  0  0  0  0  0  0
   41.4730   33.1600   38.9480 C   0  0  0  0  0  0  0  0  0  0  0  0
   42.3390   32.3500   39.6910 C   0  0  0  0  0  0  0  0  0  0  0  0
   42.0420   31.7330   40.4930 H   0  0  0  0  0  0  0  0  0  0  0  0
   43.9070   32.6850   38.9060 S   0  0  0  0  0  0  0  0  0  0  0  0
   43.1310   33.8990   37.6620 C   0  0  0  0  0  0  0  0  0  0  0  0
   43.6640   34.4620   36.8650 H   0  0  0  0  0  0  0  0  0  0  0  0
   41.9800   33.8840   37.9670 N   0  0  0  0  0  0  0  0  0  0  0  0
  1  7  1  0  0  0  0
  2  8  1  0  0  0  0
  2  1  2  0  0  0  0
  3  2  1  0  0  0  0
  4  3  2  0  0  0  0
  4  5  1  0  0  0  0
  5  6  2  0  0  0  0
  6  1  1  0  0  0  0
  9 18  1  0  0  0  0
 10  3  1  0  0  0  0
 10  9  2  0  0  0  0
 11 10  1  0  0  0  0
 12 11  2  0  0  0  0
 12 16  1  0  0  0  0
 13 12  1  0  0  0  0
 14 13  1  0  0  0  0
 14 15  2  0  0  0  0
 15 16  1  0  0  0  0
 16 17  2  0  0  0  0
 17  9  1  0  0  0  0
 17 22  1  0  0  0  0
 19 11  1  0  0  0  0
 20 13  1  0  0  0  0
 21 14  1  0  0  0  0
 23  5  1  0  0  0  0
 23 24  2  0  0  0  0
 24 25  1  0  0  0  0
 26 24  1  0  0  0  0
 27 29  2  0  0  0  0
 27 26  1  0  0  0  0
 28 27  1  0  0  0  0
 29 23  1  0  0  0  0
M  END
>  <minimizedAffinity>
-4.86844063

$$$$

 OpenBabel03242521353D

 29 32  0  0  0  0  0  0  0  0999 V2000
   34.4240   28.9150   35.3690 C   0  0  0  0  0  0  0  0  0  0  0  0
   35.3390   29.0320   36.4500 C   0  0  0  0  0  0  0  0  0  0  0  0
   34.8320   29.2470   37.7170 C   0  0  0  0  0  0  0  0  0  0  0  0
   33.4820   29.3400   37.8960 N   0  0  0  0  0  0  0  0  0  0  0  0
   32.6420   29.2200   36.8180 C   0  0  0  0  0  0  0  0  0  0  0  0
   33.1190   29.0130   35.5910 N   0  0  0  0  0  0  0  0  0  0  0  0
   34.8150   28.7480   34.3780 H   0  0  0  0  0  0  0  0  0  0  0  0
   36.3910   28.9610   36.3200 H   0  0  0  0  0  0  0  0  0  0  0  0
   36.6780   30.2980   38.8740 C   0  0  0  0  0  0  0  0  0  0  0  0
   35.6590   29.3840   38.9110 C   0  0  0  0  0  0  0  0  0  0  0  0
   35.4670   28.6510   40.0600 C   0  0  0  0  0  0  0  0  0  0  0  0
   36.2640   28.8010   41.1840 C   0  0  0  0  0  0  0  0  0  0  0  0
   36.2640   28.2070   42.4020 N   0  0  0  0  0  0  0  0  0  0  0  0
   37.2980   28.7670   43.1170 C   0  0  0  0  0  0  0  0  0  0  0  0
   37.9140   29.6880   42.3370 N   0  0  0  0  0  0  0  0  0  0  0  0
   37.2980   29.7290   41.1440 C   0  0  0  0  0  0  0  0  0  0  0  0
   37.4960   30.4670   39.9940 C   0  0  0  0  0  0  0  0  0  0  0  0
   36.8460   30.8840   37.9810 H   0  0  0  0  0  0  0  0  0  0  0  0
   34.6470   27.9440   40.0340 H   0  0  0  0  0  0  0  0  0  0  0  0
   35.5790   27.4790   42.6610 H   0  0  0  0  0  0  0  0  0  0  0  0
   37.5410   28.4850   44.1340 H   0  0  0  0  0  0  0  0  0  0  0  0
   38.2780   31.1930   39.9150 H   0  0  0  0  0  0  0  0  0  0  0  0
   31.2100   29.3440   37.1770 C   0  0  0  0  0  0  0  0  0  0  0  0
   30.1840   28.7790   36.4100 C   0  0  0  0  0  0  0  0  0  0  0  0
   30.3340   28.2240   35.5260 H   0  0  0  0  0  0  0  0  0  0  0  0
   28.7360   29.2630   37.3350 S   0  0  0  0  0  0  0  0  0  0  0  0
   29.7650   30.1790   38.6490 C   0  0  0  0  0  0  0  0  0  0  0  0
   29.3740   30.7190   39.5380 H   0  0  0  0  0  0  0  0  0  0  0  0
   30.8810   30.0160   38.2650 N   0  0  0  0  0  0  0  0  0  0  0  0
  1  6  2  0  0  0  0
  1  2  1  0  0  0  0
  2  3  2  0  0  0  0
  3  4  1  0  0  0  0
  3 10  1  0  0  0  0
  5 23  1  0  0  0  0
  5  4  2  0  0  0  0
  6  5  1  0  0  0  0
  7  1  1  0  0  0  0
  8  2  1  0  0  0  0
  9 10  2  0  0  0  0
  9 17  1  0  0  0  0
 10 11  1  0  0  0  0
 11 12  2  0  0  0  0
 12 13  1  0  0  0  0
 13 20  1  0  0  0  0
 13 14  1  0  0  0  0
 14 21  1  0  0  0  0
 15 14  2  0  0  0  0
 16 12  1  0  0  0  0
 16 15  1  0  0  0  0
 17 16  2  0  0  0  0
 18  9  1  0  0  0  0
 19 11  1  0  0  0  0
 22 17  1  0  0  0  0
 23 29  1  0  0  0  0
 24 23  2  0  0  0  0
 24 26  1  0  0  0  0
 25 24  1  0  0  0  0
 26 27  1  0  0  0  0
 27 28  1  0  0  0  0
 29 27  2  0  0  0  0
M  END
>  <minimizedAffinity>
-4.85478115

$$$$
