
 OpenBabel03252509113D

 29 32  0  0  0  0  0  0  0  0999 V2000
   46.3330   33.7840   44.6060 C   0  0  0  0  0  0  0  0  0  0  0  0
   46.9030   32.5700   44.2540 C   0  0  0  0  0  0  0  0  0  0  0  0
   46.8680   31.4730   45.0840 C   0  0  0  0  0  0  0  0  0  0  0  0
   46.2460   31.5470   46.3290 C   0  0  0  0  0  0  0  0  0  0  0  0
   46.0310   30.6950   47.3640 N   0  0  0  0  0  0  0  0  0  0  0  0
   45.3500   31.3490   48.3350 C   0  0  0  0  0  0  0  0  0  0  0  0
   45.1500   32.6180   47.8750 N   0  0  0  0  0  0  0  0  0  0  0  0
   45.6900   32.7580   46.6540 C   0  0  0  0  0  0  0  0  0  0  0  0
   45.7040   33.8760   45.8540 C   0  0  0  0  0  0  0  0  0  0  0  0
   46.3920   34.6150   43.9060 H   0  0  0  0  0  0  0  0  0  0  0  0
   46.3710   29.7070   47.3380 H   0  0  0  0  0  0  0  0  0  0  0  0
   45.0790   30.8420   49.2490 H   0  0  0  0  0  0  0  0  0  0  0  0
   45.2570   34.8220   46.1310 H   0  0  0  0  0  0  0  0  0  0  0  0
   49.5310   32.5120   41.6900 C   0  0  0  0  0  0  0  0  0  0  0  0
   48.7920   32.2340   40.5170 C   0  0  0  0  0  0  0  0  0  0  0  0
   47.3890   32.0680   40.6160 C   0  0  0  0  0  0  0  0  0  0  0  0
   46.8440   32.1920   41.8670 N   0  0  0  0  0  0  0  0  0  0  0  0
   47.5590   32.4540   42.9640 C   0  0  0  0  0  0  0  0  0  0  0  0
   48.8970   32.6140   42.8730 N   0  0  0  0  0  0  0  0  0  0  0  0
   50.6030   32.6460   41.6600 H   0  0  0  0  0  0  0  0  0  0  0  0
   49.2950   32.1510   39.5690 H   0  0  0  0  0  0  0  0  0  0  0  0
   46.8010   31.8570   39.7500 H   0  0  0  0  0  0  0  0  0  0  0  0
   47.4680   30.1790   44.7260 C   0  0  0  0  0  0  0  0  0  0  0  0
   46.9080   29.2700   43.8250 C   0  0  0  0  0  0  0  0  0  0  0  0
   45.9670   29.4740   43.3200 H   0  0  0  0  0  0  0  0  0  0  0  0
   48.0960   27.9090   43.8170 S   0  0  0  0  0  0  0  0  0  0  0  0
   49.2060   28.8260   45.0870 C   0  0  0  0  0  0  0  0  0  0  0  0
   50.2120   28.5130   45.5710 H   0  0  0  0  0  0  0  0  0  0  0  0
   48.6060   29.9260   45.3310 N   0  0  0  0  0  0  0  0  0  0  0  0
  1  9  1  0  0  0  0
  2  1  2  0  0  0  0
  2  3  1  0  0  0  0
  3  4  2  0  0  0  0
  4  8  1  0  0  0  0
  4  5  1  0  0  0  0
  5  6  1  0  0  0  0
  6 12  1  0  0  0  0
  7  6  2  0  0  0  0
  8  7  1  0  0  0  0
  9 13  1  0  0  0  0
  9  8  2  0  0  0  0
 10  1  1  0  0  0  0
 11  5  1  0  0  0  0
 14 19  1  0  0  0  0
 15 16  1  0  0  0  0
 15 14  2  0  0  0  0
 16 17  2  0  0  0  0
 17 18  1  0  0  0  0
 18  2  1  0  0  0  0
 19 18  2  0  0  0  0
 20 14  1  0  0  0  0
 21 15  1  0  0  0  0
 22 16  1  0  0  0  0
 23  3  1  0  0  0  0
 23 29  1  0  0  0  0
 24 23  2  0  0  0  0
 25 24  1  0  0  0  0
 26 24  1  0  0  0  0
 26 27  1  0  0  0  0
 27 29  2  0  0  0  0
 27 28  1  0  0  0  0
M  END
>  <minimizedAffinity>
-3.7693727

>  <minimizedRMSD>
4.38123465

$$$$
