
 OpenBabel03252504423D

 43 46  0  0  0  0  0  0  0  0999 V2000
   46.3500   32.2080   47.8300 C   0  0  0  0  0  0  0  0  0  0  0  0
   45.8810   31.7720   49.0390 C   0  0  0  0  0  0  0  0  0  0  0  0
   46.8900   31.1000   49.6080 N   0  0  0  0  0  0  0  0  0  0  0  0
   47.9680   31.0940   48.8140 C   0  0  0  0  0  0  0  0  0  0  0  0
   47.6110   31.7970   47.6980 N   0  0  0  0  0  0  0  0  0  0  0  0
   49.2520   30.5220   48.9800 N   0  0  0  0  0  0  0  0  0  0  0  0
   50.2800   31.3200   49.6710 C   0  0  0  0  0  0  0  0  0  0  0  0
   50.3820   30.7000   51.0610 C   0  0  0  0  0  0  0  0  0  0  0  0
   50.5020   29.2000   50.9560 C   0  0  0  0  0  0  0  0  0  0  0  0
   50.8770   28.8090   49.5420 C   0  0  0  0  0  0  0  0  0  0  0  0
   49.7990   29.2460   48.5910 C   0  0  0  0  0  0  0  0  0  0  0  0
   44.8970   31.9240   49.4760 H   0  0  0  0  0  0  0  0  0  0  0  0
   46.8700   30.6330   50.5430 H   0  0  0  0  0  0  0  0  0  0  0  0
   51.2430   31.2910   49.1480 H   0  0  0  0  0  0  0  0  0  0  0  0
   49.9530   32.3780   49.7820 H   0  0  0  0  0  0  0  0  0  0  0  0
   49.5700   31.0410   51.7110 H   0  0  0  0  0  0  0  0  0  0  0  0
   51.3230   31.0430   51.5500 H   0  0  0  0  0  0  0  0  0  0  0  0
   49.5690   28.6850   51.2950 H   0  0  0  0  0  0  0  0  0  0  0  0
   51.3180   28.7800   51.6100 H   0  0  0  0  0  0  0  0  0  0  0  0
   51.0230   27.6950   49.5200 H   0  0  0  0  0  0  0  0  0  0  0  0
   51.8520   29.2620   49.3220 H   0  0  0  0  0  0  0  0  0  0  0  0
   50.1460   29.2420   47.5510 H   0  0  0  0  0  0  0  0  0  0  0  0
   48.9640   28.4990   48.7190 H   0  0  0  0  0  0  0  0  0  0  0  0
   45.5920   33.0110   46.8180 C   0  0  0  0  0  0  0  0  0  0  0  0
   45.2690   33.9920   47.2250 H   0  0  0  0  0  0  0  0  0  0  0  0
   44.6530   32.4320   46.6330 H   0  0  0  0  0  0  0  0  0  0  0  0
   45.9500   33.9280   44.5670 C   0  0  0  0  0  3  0  0  0  0  0  0
   46.3880   33.2200   45.6000 C   0  0  0  0  0  3  0  0  0  0  0  0
   46.8480   34.0580   43.4110 C   0  0  0  0  0  0  0  0  0  0  0  0
   46.7110   35.0680   42.4330 C   0  0  0  0  0  0  0  0  0  0  0  0
   47.6010   35.1090   41.3880 C   0  0  0  0  0  0  0  0  0  0  0  0
   48.5830   34.1880   41.3230 N   0  0  0  0  0  0  0  0  0  0  0  0
   48.7010   33.2290   42.2650 C   0  0  0  0  0  0  0  0  0  0  0  0
   47.8620   33.1580   43.2840 N   0  0  0  0  0  0  0  0  0  0  0  0
   45.8980   35.7640   42.5640 H   0  0  0  0  0  0  0  0  0  0  0  0
   47.5130   35.8750   40.6310 H   0  0  0  0  0  0  0  0  0  0  0  0
   49.7490   32.1830   42.2620 C   0  0  0  0  0  0  0  0  0  0  0  0
   51.1070   32.1230   41.6110 C   0  0  0  0  0  0  0  0  0  0  0  0
   51.1740   33.1970   41.0400 H   0  0  0  0  0  0  0  0  0  0  0  0
   51.6080   30.4010   42.2220 S   0  0  0  0  0  0  0  0  0  0  0  0
   49.9840   30.1500   43.1620 C   0  0  0  0  0  0  0  0  0  0  0  0
   50.0670   29.1740   43.6090 H   0  0  0  0  0  0  0  0  0  0  0  0
   49.2590   31.1920   43.0030 N   0  0  0  0  0  0  0  0  0  0  0  0
  1  2  2  0  0  0  0
  2 12  1  0  0  0  0
  2  3  1  0  0  0  0
  3 13  1  0  0  0  0
  4  6  1  0  0  0  0
  4  3  1  0  0  0  0
  5  1  1  0  0  0  0
  5  4  2  0  0  0  0
  6  7  1  0  0  0  0
  7 15  1  0  0  0  0
  7  8  1  0  0  0  0
  8 17  1  0  0  0  0
  8 16  1  0  0  0  0
  9  8  1  0  0  0  0
  9 18  1  0  0  0  0
  9 19  1  0  0  0  0
 10  9  1  0  0  0  0
 11 23  1  0  0  0  0
 11  6  1  0  0  0  0
 11 10  1  0  0  0  0
 14  7  1  0  0  0  0
 20 10  1  0  0  0  0
 21 10  1  0  0  0  0
 22 11  1  0  0  0  0
 24 25  1  0  0  0  0
 24  1  1  0  0  0  0
 26 24  1  0  0  0  0
 27 28  2  0  0  0  0
 28 24  1  0  0  0  0
 29 27  1  0  0  0  0
 30 35  1  0  0  0  0
 30 29  2  0  0  0  0
 31 30  1  0  0  0  0
 32 31  2  0  0  0  0
 32 33  1  0  0  0  0
 33 34  2  0  0  0  0
 34 29  1  0  0  0  0
 36 31  1  0  0  0  0
 37 33  1  0  0  0  0
 37 43  1  0  0  0  0
 38 40  1  0  0  0  0
 38 37  2  0  0  0  0
 39 38  1  0  0  0  0
 40 41  1  0  0  0  0
 41 42  1  0  0  0  0
 43 41  2  0  0  0  0
M  END
>  <minimizedAffinity>
-5.86101675

>  <minimizedRMSD>
0.366618365

$$$$
