
 OpenBabel03252506563D

 36 40  0  0  0  0  0  0  0  0999 V2000
   47.1690   31.3220   45.1230 C   0  0  0  0  0  0  0  0  0  0  0  0
   46.8750   32.6750   45.1240 C   0  0  0  0  0  0  0  0  0  0  0  0
   46.3140   33.3100   46.2050 C   0  0  0  0  0  0  0  0  0  0  0  0
   46.0160   32.6030   47.3580 C   0  0  0  0  0  0  0  0  0  0  0  0
   45.4760   32.8840   48.5780 N   0  0  0  0  0  0  0  0  0  0  0  0
   45.4380   31.7370   49.3110 C   0  0  0  0  0  0  0  0  0  0  0  0
   45.9560   30.7650   48.5270 N   0  0  0  0  0  0  0  0  0  0  0  0
   46.3170   31.2640   47.3300 C   0  0  0  0  0  0  0  0  0  0  0  0
   46.8720   30.5890   46.2870 C   0  0  0  0  0  0  0  0  0  0  0  0
   47.6110   30.8300   44.2660 H   0  0  0  0  0  0  0  0  0  0  0  0
   46.0890   34.3700   46.1930 H   0  0  0  0  0  0  0  0  0  0  0  0
   45.1590   33.8470   48.8550 H   0  0  0  0  0  0  0  0  0  0  0  0
   45.0540   31.6610   50.3320 H   0  0  0  0  0  0  0  0  0  0  0  0
   46.5890   35.1420   42.4100 C   0  0  0  0  0  0  0  0  0  0  0  0
   47.7550   34.9420   41.6860 C   0  0  0  0  0  0  0  0  0  0  0  0
   48.6420   33.9550   42.1320 C   0  0  0  0  0  0  0  0  0  0  0  0
   48.3170   33.2440   43.2530 N   0  0  0  0  0  0  0  0  0  0  0  0
   47.1690   33.4670   43.9330 C   0  0  0  0  0  0  0  0  0  0  0  0
   46.3080   34.4100   43.5160 N   0  0  0  0  0  0  0  0  0  0  0  0
   45.8840   35.9050   42.0800 H   0  0  0  0  0  0  0  0  0  0  0  0
   47.9570   35.5410   40.8020 H   0  0  0  0  0  0  0  0  0  0  0  0
   49.5640   33.7720   41.5910 H   0  0  0  0  0  0  0  0  0  0  0  0
   47.1560   29.1540   46.3570 C   0  0  0  0  0  0  0  0  0  0  0  0
   48.4110   28.6020   46.3610 C   0  0  0  0  0  0  0  0  0  0  0  0
   48.1590   27.2220   46.4380 C   0  0  0  0  0  0  0  0  0  0  0  0
   46.7840   27.0160   46.4760 C   0  0  0  0  0  0  0  0  0  0  0  0
   46.2600   28.2220   46.4230 O   0  0  0  0  0  0  0  0  0  0  0  0
   49.3480   29.1010   46.3170 H   0  0  0  0  0  0  0  0  0  0  0  0
   48.9140   26.4560   46.4640 H   0  0  0  0  0  0  0  0  0  0  0  0
   46.0590   25.7310   46.5590 C   0  0  0  0  0  0  0  0  0  0  0  0
   44.7810   25.5920   45.7960 C   0  0  0  0  0  0  0  0  0  0  0  0
   44.3470   26.3230   45.2070 H   0  0  0  0  0  0  0  0  0  0  0  0
   44.3720   23.8130   46.2900 S   0  0  0  0  0  0  0  0  0  0  0  0
   45.9260   23.6450   47.3590 C   0  0  0  0  0  0  0  0  0  0  0  0
   46.1480   22.7330   47.8900 H   0  0  0  0  0  0  0  0  0  0  0  0
   46.5010   24.7190   47.2720 N   0  0  0  0  0  0  0  0  0  0  0  0
  1  2  2  0  0  0  0
  1  9  1  0  0  0  0
  2  3  1  0  0  0  0
  3  4  2  0  0  0  0
  4  5  1  0  0  0  0
  5 12  1  0  0  0  0
  5  6  1  0  0  0  0
  6 13  1  0  0  0  0
  7  6  2  0  0  0  0
  8  4  1  0  0  0  0
  8  7  1  0  0  0  0
  9 23  1  0  0  0  0
  9  8  2  0  0  0  0
 10  1  1  0  0  0  0
 11  3  1  0  0  0  0
 14 19  1  0  0  0  0
 15 16  1  0  0  0  0
 15 14  2  0  0  0  0
 16 17  2  0  0  0  0
 17 18  1  0  0  0  0
 18  2  1  0  0  0  0
 19 18  2  0  0  0  0
 20 14  1  0  0  0  0
 21 15  1  0  0  0  0
 22 16  1  0  0  0  0
 23 24  2  0  0  0  0
 23 27  1  0  0  0  0
 24 25  1  0  0  0  0
 25 29  1  0  0  0  0
 25 26  2  0  0  0  0
 26 30  1  0  0  0  0
 27 26  1  0  0  0  0
 28 24  1  0  0  0  0
 30 36  1  0  0  0  0
 31 33  1  0  0  0  0
 31 30  2  0  0  0  0
 32 31  1  0  0  0  0
 33 34  1  0  0  0  0
 34 35  1  0  0  0  0
 36 34  2  0  0  0  0
M  END
>  <minimizedAffinity>
-5.39597797

>  <minimizedRMSD>
0.364690363

$$$$
