
 OpenBabel03252506583D

 36 40  0  0  0  0  0  0  0  0999 V2000
   36.5250   30.5150   38.9700 C   0  0  0  0  0  0  0  0  0  0  0  0
   35.6660   29.4300   38.9390 C   0  0  0  0  0  0  0  0  0  0  0  0
   35.5290   28.5630   39.9960 C   0  0  0  0  0  0  0  0  0  0  0  0
   36.2620   28.7490   41.1560 C   0  0  0  0  0  0  0  0  0  0  0  0
   36.3860   28.1190   42.3590 N   0  0  0  0  0  0  0  0  0  0  0  0
   37.2960   28.7970   43.1130 C   0  0  0  0  0  0  0  0  0  0  0  0
   37.7190   29.8360   42.3590 N   0  0  0  0  0  0  0  0  0  0  0  0
   37.1060   29.8320   41.1600 C   0  0  0  0  0  0  0  0  0  0  0  0
   37.2770   30.7180   40.1420 C   0  0  0  0  0  0  0  0  0  0  0  0
   36.6260   31.1930   38.1330 H   0  0  0  0  0  0  0  0  0  0  0  0
   34.8530   27.7170   39.9590 H   0  0  0  0  0  0  0  0  0  0  0  0
   35.8440   27.2560   42.6110 H   0  0  0  0  0  0  0  0  0  0  0  0
   37.5960   28.5190   44.1270 H   0  0  0  0  0  0  0  0  0  0  0  0
   32.8250   28.6910   36.7210 C   0  0  0  0  0  0  0  0  0  0  0  0
   33.3980   28.7370   35.4590 C   0  0  0  0  0  0  0  0  0  0  0  0
   34.7650   29.0230   35.3700 C   0  0  0  0  0  0  0  0  0  0  0  0
   35.4630   29.2420   36.5250 N   0  0  0  0  0  0  0  0  0  0  0  0
   34.8690   29.1880   37.7400 C   0  0  0  0  0  0  0  0  0  0  0  0
   33.5580   28.9140   37.8400 N   0  0  0  0  0  0  0  0  0  0  0  0
   31.7620   28.4700   36.8130 H   0  0  0  0  0  0  0  0  0  0  0  0
   32.7890   28.5540   34.5770 H   0  0  0  0  0  0  0  0  0  0  0  0
   35.2460   29.0680   34.4000 H   0  0  0  0  0  0  0  0  0  0  0  0
   38.2050   31.8460   40.2460 C   0  0  0  0  0  0  0  0  0  0  0  0
   37.8520   33.1660   40.1300 C   0  0  0  0  0  0  0  0  0  0  0  0
   39.0700   33.8440   40.3010 C   0  0  0  0  0  0  0  0  0  0  0  0
   40.0810   32.9120   40.5060 C   0  0  0  0  0  0  0  0  0  0  0  0
   39.4780   31.7440   40.4570 O   0  0  0  0  0  0  0  0  0  0  0  0
   36.8860   33.5740   39.9560 H   0  0  0  0  0  0  0  0  0  0  0  0
   39.1920   34.9140   40.2740 H   0  0  0  0  0  0  0  0  0  0  0  0
   41.5200   33.1650   40.7310 C   0  0  0  0  0  0  0  0  0  0  0  0
   42.2040   34.1630   39.8520 C   0  0  0  0  0  0  0  0  0  0  0  0
   41.7600   34.7030   39.0900 H   0  0  0  0  0  0  0  0  0  0  0  0
   43.9330   34.0370   40.6070 S   0  0  0  0  0  0  0  0  0  0  0  0
   43.3950   32.7360   41.8760 C   0  0  0  0  0  0  0  0  0  0  0  0
   44.0900   32.3210   42.5860 H   0  0  0  0  0  0  0  0  0  0  0  0
   42.2060   32.5470   41.6660 N   0  0  0  0  0  0  0  0  0  0  0  0
  1  9  1  0  0  0  0
  2  1  2  0  0  0  0
  2  3  1  0  0  0  0
  3  4  2  0  0  0  0
  4  8  1  0  0  0  0
  4  5  1  0  0  0  0
  5 12  1  0  0  0  0
  5  6  1  0  0  0  0
  6 13  1  0  0  0  0
  7  6  2  0  0  0  0
  8  7  1  0  0  0  0
  9 23  1  0  0  0  0
  9  8  2  0  0  0  0
 10  1  1  0  0  0  0
 11  3  1  0  0  0  0
 14 20  1  0  0  0  0
 14 19  1  0  0  0  0
 15 14  2  0  0  0  0
 16 15  1  0  0  0  0
 16 17  2  0  0  0  0
 17 18  1  0  0  0  0
 18 19  2  0  0  0  0
 18  2  1  0  0  0  0
 21 15  1  0  0  0  0
 22 16  1  0  0  0  0
 23 27  1  0  0  0  0
 24 23  2  0  0  0  0
 24 25  1  0  0  0  0
 25 26  2  0  0  0  0
 26 30  1  0  0  0  0
 27 26  1  0  0  0  0
 28 24  1  0  0  0  0
 29 25  1  0  0  0  0
 30 36  1  0  0  0  0
 31 33  1  0  0  0  0
 31 30  2  0  0  0  0
 32 31  1  0  0  0  0
 33 34  1  0  0  0  0
 34 35  1  0  0  0  0
 36 34  2  0  0  0  0
M  END
>  <minimizedAffinity>
-5.98303556

$$$$

 OpenBabel03252506583D

 36 40  0  0  0  0  0  0  0  0999 V2000
   36.9430   25.9900   40.5570 C   0  0  0  0  0  0  0  0  0  0  0  0
   37.3200   24.6870   40.8290 C   0  0  0  0  0  0  0  0  0  0  0  0
   38.2520   24.3700   41.7870 C   0  0  0  0  0  0  0  0  0  0  0  0
   38.8600   25.3660   42.5320 C   0  0  0  0  0  0  0  0  0  0  0  0
   39.7910   25.4300   43.5260 N   0  0  0  0  0  0  0  0  0  0  0  0
   39.9840   26.7360   43.8590 C   0  0  0  0  0  0  0  0  0  0  0  0
   39.1650   27.4580   43.0620 N   0  0  0  0  0  0  0  0  0  0  0  0
   38.4680   26.6500   42.2420 C   0  0  0  0  0  0  0  0  0  0  0  0
   37.5510   27.0150   41.3050 C   0  0  0  0  0  0  0  0  0  0  0  0
   36.2080   26.2300   39.7990 H   0  0  0  0  0  0  0  0  0  0  0  0
   38.5390   23.3450   41.9900 H   0  0  0  0  0  0  0  0  0  0  0  0
   40.2530   24.5770   43.9310 H   0  0  0  0  0  0  0  0  0  0  0  0
   40.6770   27.0880   44.6290 H   0  0  0  0  0  0  0  0  0  0  0  0
   36.7910   21.4290   39.2010 C   0  0  0  0  0  0  0  0  0  0  0  0
   35.5300   21.5650   38.6420 C   0  0  0  0  0  0  0  0  0  0  0  0
   34.8590   22.7800   38.8230 C   0  0  0  0  0  0  0  0  0  0  0  0
   35.4770   23.7660   39.5410 N   0  0  0  0  0  0  0  0  0  0  0  0
   36.7100   23.5970   40.0720 C   0  0  0  0  0  0  0  0  0  0  0  0
   37.3650   22.4360   39.9040 N   0  0  0  0  0  0  0  0  0  0  0  0
   37.3310   20.4920   39.0710 H   0  0  0  0  0  0  0  0  0  0  0  0
   35.0910   20.7430   38.0810 H   0  0  0  0  0  0  0  0  0  0  0  0
   33.8710   22.9210   38.4000 H   0  0  0  0  0  0  0  0  0  0  0  0
   37.2010   28.4170   41.0710 C   0  0  0  0  0  0  0  0  0  0  0  0
   35.9200   28.9030   40.9920 C   0  0  0  0  0  0  0  0  0  0  0  0
   36.1080   30.2760   40.7620 C   0  0  0  0  0  0  0  0  0  0  0  0
   37.4720   30.5440   40.7150 C   0  0  0  0  0  0  0  0  0  0  0  0
   38.0510   29.3790   40.9080 O   0  0  0  0  0  0  0  0  0  0  0  0
   35.0080   28.3670   41.0840 H   0  0  0  0  0  0  0  0  0  0  0  0
   35.3170   30.9970   40.6420 H   0  0  0  0  0  0  0  0  0  0  0  0
   38.1350   31.8460   40.4960 C   0  0  0  0  0  0  0  0  0  0  0  0
   39.6140   31.9280   40.7040 C   0  0  0  0  0  0  0  0  0  0  0  0
   40.2280   31.1460   40.9910 H   0  0  0  0  0  0  0  0  0  0  0  0
   39.8390   33.7580   40.2880 S   0  0  0  0  0  0  0  0  0  0  0  0
   37.9930   34.0100   39.9420 C   0  0  0  0  0  0  0  0  0  0  0  0
   37.6010   34.9700   39.6470 H   0  0  0  0  0  0  0  0  0  0  0  0
   37.4720   32.9210   40.1310 N   0  0  0  0  0  0  0  0  0  0  0  0
  1  2  2  0  0  0  0
  1  9  1  0  0  0  0
  2  3  1  0  0  0  0
  3 11  1  0  0  0  0
  3  4  2  0  0  0  0
  4  5  1  0  0  0  0
  5  6  1  0  0  0  0
  5 12  1  0  0  0  0
  6 13  1  0  0  0  0
  7  6  2  0  0  0  0
  8  4  1  0  0  0  0
  8  7  1  0  0  0  0
  9  8  2  0  0  0  0
 10  1  1  0  0  0  0
 14 19  1  0  0  0  0
 15 16  1  0  0  0  0
 15 14  2  0  0  0  0
 16 17  2  0  0  0  0
 17 18  1  0  0  0  0
 18  2  1  0  0  0  0
 19 18  2  0  0  0  0
 20 14  1  0  0  0  0
 21 15  1  0  0  0  0
 22 16  1  0  0  0  0
 23  9  1  0  0  0  0
 24 23  2  0  0  0  0
 24 28  1  0  0  0  0
 25 24  1  0  0  0  0
 26 25  2  0  0  0  0
 26 27  1  0  0  0  0
 27 23  1  0  0  0  0
 29 25  1  0  0  0  0
 30 31  2  0  0  0  0
 30 26  1  0  0  0  0
 31 32  1  0  0  0  0
 33 31  1  0  0  0  0
 34 36  2  0  0  0  0
 34 33  1  0  0  0  0
 35 34  1  0  0  0  0
 36 30  1  0  0  0  0
M  END
>  <minimizedAffinity>
-5.95857382

$$$$

 OpenBabel03252506583D

 36 40  0  0  0  0  0  0  0  0999 V2000
   39.7150   30.2280   40.8860 C   0  0  0  0  0  0  0  0  0  0  0  0
   38.3670   29.9990   41.1010 C   0  0  0  0  0  0  0  0  0  0  0  0
   37.4130   30.9710   40.9250 C   0  0  0  0  0  0  0  0  0  0  0  0
   37.7750   32.2440   40.5150 C   0  0  0  0  0  0  0  0  0  0  0  0
   37.1330   33.4160   40.2460 N   0  0  0  0  0  0  0  0  0  0  0  0
   38.0580   34.3430   39.8750 C   0  0  0  0  0  0  0  0  0  0  0  0
   39.2590   33.7250   39.9210 N   0  0  0  0  0  0  0  0  0  0  0  0
   39.1170   32.4430   40.3080 C   0  0  0  0  0  0  0  0  0  0  0  0
   40.0990   31.5160   40.4690 C   0  0  0  0  0  0  0  0  0  0  0  0
   40.4600   29.4550   41.0280 H   0  0  0  0  0  0  0  0  0  0  0  0
   36.3610   30.7790   41.0970 H   0  0  0  0  0  0  0  0  0  0  0  0
   36.0910   33.5290   40.3290 H   0  0  0  0  0  0  0  0  0  0  0  0
   37.8290   35.3780   39.6000 H   0  0  0  0  0  0  0  0  0  0  0  0
   36.7330   27.3060   43.0040 C   0  0  0  0  0  0  0  0  0  0  0  0
   37.1270   26.1640   42.3230 C   0  0  0  0  0  0  0  0  0  0  0  0
   37.9580   26.3200   41.2070 C   0  0  0  0  0  0  0  0  0  0  0  0
   38.3360   27.5830   40.8450 N   0  0  0  0  0  0  0  0  0  0  0  0
   37.9310   28.6750   41.5350 C   0  0  0  0  0  0  0  0  0  0  0  0
   37.1340   28.5400   42.6080 N   0  0  0  0  0  0  0  0  0  0  0  0
   36.0870   27.2080   43.8750 H   0  0  0  0  0  0  0  0  0  0  0  0
   36.7930   25.1860   42.6600 H   0  0  0  0  0  0  0  0  0  0  0  0
   38.2850   25.4490   40.6510 H   0  0  0  0  0  0  0  0  0  0  0  0
   41.5080   31.8300   40.2220 C   0  0  0  0  0  0  0  0  0  0  0  0
   42.3950   32.2600   41.1760 C   0  0  0  0  0  0  0  0  0  0  0  0
   43.5910   32.4210   40.4570 C   0  0  0  0  0  0  0  0  0  0  0  0
   43.3670   32.0840   39.1260 C   0  0  0  0  0  0  0  0  0  0  0  0
   42.0980   31.7440   39.0730 O   0  0  0  0  0  0  0  0  0  0  0  0
   42.2170   32.4290   42.2090 H   0  0  0  0  0  0  0  0  0  0  0  0
   44.5260   32.7520   40.8770 H   0  0  0  0  0  0  0  0  0  0  0  0
   44.3350   32.1020   38.0090 C   0  0  0  0  0  0  0  0  0  0  0  0
   44.3910   30.9120   37.1060 C   0  0  0  0  0  0  0  0  0  0  0  0
   43.8070   30.0620   37.1900 H   0  0  0  0  0  0  0  0  0  0  0  0
   45.7530   31.5230   35.9470 S   0  0  0  0  0  0  0  0  0  0  0  0
   45.9470   33.1640   36.8750 C   0  0  0  0  0  0  0  0  0  0  0  0
   46.6630   33.9060   36.5630 H   0  0  0  0  0  0  0  0  0  0  0  0
   45.1380   33.1200   37.7900 N   0  0  0  0  0  0  0  0  0  0  0  0
  1 10  1  0  0  0  0
  1  2  1  0  0  0  0
  2 18  1  0  0  0  0
  3 11  1  0  0  0  0
  3  2  2  0  0  0  0
  4  3  1  0  0  0  0
  5 12  1  0  0  0  0
  5  4  1  0  0  0  0
  6  7  2  0  0  0  0
  6  5  1  0  0  0  0
  7  8  1  0  0  0  0
  8  9  1  0  0  0  0
  8  4  2  0  0  0  0
  9  1  2  0  0  0  0
 13  6  1  0  0  0  0
 14 20  1  0  0  0  0
 15 21  1  0  0  0  0
 15 14  2  0  0  0  0
 16 15  1  0  0  0  0
 17 16  2  0  0  0  0
 17 18  1  0  0  0  0
 18 19  2  0  0  0  0
 19 14  1  0  0  0  0
 22 16  1  0  0  0  0
 23  9  1  0  0  0  0
 23 24  2  0  0  0  0
 24 28  1  0  0  0  0
 25 29  1  0  0  0  0
 25 24  1  0  0  0  0
 26 25  2  0  0  0  0
 27 26  1  0  0  0  0
 27 23  1  0  0  0  0
 30 26  1  0  0  0  0
 31 32  1  0  0  0  0
 31 30  2  0  0  0  0
 33 34  1  0  0  0  0
 33 31  1  0  0  0  0
 34 36  2  0  0  0  0
 35 34  1  0  0  0  0
 36 30  1  0  0  0  0
M  END
>  <minimizedAffinity>
-5.62418032

$$$$

 OpenBabel03252506583D

 36 40  0  0  0  0  0  0  0  0999 V2000
   41.2140   32.0630   41.1380 C   0  0  0  0  0  0  0  0  0  0  0  0
   41.5780   33.2940   40.6190 C   0  0  0  0  0  0  0  0  0  0  0  0
   40.6750   34.1440   40.0290 C   0  0  0  0  0  0  0  0  0  0  0  0
   39.3390   33.7910   39.9290 C   0  0  0  0  0  0  0  0  0  0  0  0
   38.2030   34.3540   39.4280 N   0  0  0  0  0  0  0  0  0  0  0  0
   37.1660   33.4950   39.6320 C   0  0  0  0  0  0  0  0  0  0  0  0
   37.6830   32.4130   40.2560 N   0  0  0  0  0  0  0  0  0  0  0  0
   39.0070   32.5660   40.4500 C   0  0  0  0  0  0  0  0  0  0  0  0
   39.8610   31.6890   41.0440 C   0  0  0  0  0  0  0  0  0  0  0  0
   41.9330   31.3990   41.6020 H   0  0  0  0  0  0  0  0  0  0  0  0
   40.9720   35.1050   39.6260 H   0  0  0  0  0  0  0  0  0  0  0  0
   38.1870   35.2990   38.9700 H   0  0  0  0  0  0  0  0  0  0  0  0
   36.1310   33.6830   39.3310 H   0  0  0  0  0  0  0  0  0  0  0  0
   44.7860   34.5340   41.9260 C   0  0  0  0  0  0  0  0  0  0  0  0
   45.6080   34.4990   40.8100 C   0  0  0  0  0  0  0  0  0  0  0  0
   45.0570   34.0500   39.6040 C   0  0  0  0  0  0  0  0  0  0  0  0
   43.7450   33.6670   39.5870 N   0  0  0  0  0  0  0  0  0  0  0  0
   42.9730   33.7150   40.6980 C   0  0  0  0  0  0  0  0  0  0  0  0
   43.4880   34.1450   41.8620 N   0  0  0  0  0  0  0  0  0  0  0  0
   45.1940   34.8810   42.8750 H   0  0  0  0  0  0  0  0  0  0  0  0
   46.6450   34.8170   40.8870 H   0  0  0  0  0  0  0  0  0  0  0  0
   45.6710   34.0090   38.7110 H   0  0  0  0  0  0  0  0  0  0  0  0
   39.4050   30.4010   41.5720 C   0  0  0  0  0  0  0  0  0  0  0  0
   39.1450   30.1430   42.8930 C   0  0  0  0  0  0  0  0  0  0  0  0
   38.7450   28.7960   42.8880 C   0  0  0  0  0  0  0  0  0  0  0  0
   38.7860   28.3180   41.5820 C   0  0  0  0  0  0  0  0  0  0  0  0
   39.1900   29.3410   40.8610 O   0  0  0  0  0  0  0  0  0  0  0  0
   39.2250   30.8050   43.7200 H   0  0  0  0  0  0  0  0  0  0  0  0
   38.4570   28.2330   43.7590 H   0  0  0  0  0  0  0  0  0  0  0  0
   38.4500   26.9620   41.1000 C   0  0  0  0  0  0  0  0  0  0  0  0
   38.3110   26.7530   39.6260 C   0  0  0  0  0  0  0  0  0  0  0  0
   38.4310   27.4790   38.8980 H   0  0  0  0  0  0  0  0  0  0  0  0
   37.8970   24.9090   39.6590 S   0  0  0  0  0  0  0  0  0  0  0  0
   37.9920   24.8180   41.5490 C   0  0  0  0  0  0  0  0  0  0  0  0
   37.8160   23.8960   42.0780 H   0  0  0  0  0  0  0  0  0  0  0  0
   38.2700   25.9490   41.9180 N   0  0  0  0  0  0  0  0  0  0  0  0
  1 10  1  0  0  0  0
  2 18  1  0  0  0  0
  2  1  2  0  0  0  0
  3  2  1  0  0  0  0
  4  3  2  0  0  0  0
  4  8  1  0  0  0  0
  5  6  1  0  0  0  0
  5  4  1  0  0  0  0
  6  7  2  0  0  0  0
  7  8  1  0  0  0  0
  8  9  2  0  0  0  0
  9  1  1  0  0  0  0
  9 23  1  0  0  0  0
 11  3  1  0  0  0  0
 12  5  1  0  0  0  0
 13  6  1  0  0  0  0
 14 20  1  0  0  0  0
 15 21  1  0  0  0  0
 15 14  2  0  0  0  0
 16 15  1  0  0  0  0
 17 16  2  0  0  0  0
 17 18  1  0  0  0  0
 18 19  2  0  0  0  0
 19 14  1  0  0  0  0
 22 16  1  0  0  0  0
 23 24  2  0  0  0  0
 24 28  1  0  0  0  0
 25 24  1  0  0  0  0
 25 29  1  0  0  0  0
 26 25  2  0  0  0  0
 27 23  1  0  0  0  0
 27 26  1  0  0  0  0
 30 26  1  0  0  0  0
 30 36  1  0  0  0  0
 31 33  1  0  0  0  0
 31 30  2  0  0  0  0
 32 31  1  0  0  0  0
 33 34  1  0  0  0  0
 34 36  2  0  0  0  0
 34 35  1  0  0  0  0
M  END
>  <minimizedAffinity>
-5.55122757

$$$$

 OpenBabel03252506583D

 36 40  0  0  0  0  0  0  0  0999 V2000
   37.1320   27.3160   39.4900 C   0  0  0  0  0  0  0  0  0  0  0  0
   36.8860   26.1410   40.1800 C   0  0  0  0  0  0  0  0  0  0  0  0
   36.9190   26.0670   41.5510 C   0  0  0  0  0  0  0  0  0  0  0  0
   37.2060   27.1910   42.3090 C   0  0  0  0  0  0  0  0  0  0  0  0
   37.3240   27.4860   43.6350 N   0  0  0  0  0  0  0  0  0  0  0  0
   37.6340   28.8060   43.7600 C   0  0  0  0  0  0  0  0  0  0  0  0
   37.7030   29.3040   42.5060 N   0  0  0  0  0  0  0  0  0  0  0  0
   37.4460   28.3410   41.5990 C   0  0  0  0  0  0  0  0  0  0  0  0
   37.4260   28.4670   40.2450 C   0  0  0  0  0  0  0  0  0  0  0  0
   37.1040   27.3640   38.4090 H   0  0  0  0  0  0  0  0  0  0  0  0
   36.7250   25.1420   42.0800 H   0  0  0  0  0  0  0  0  0  0  0  0
   37.1870   26.7720   44.3930 H   0  0  0  0  0  0  0  0  0  0  0  0
   37.7890   29.3230   44.7120 H   0  0  0  0  0  0  0  0  0  0  0  0
   36.1780   22.6250   39.3600 C   0  0  0  0  0  0  0  0  0  0  0  0
   35.9970   22.6590   37.9870 C   0  0  0  0  0  0  0  0  0  0  0  0
   36.1200   23.8940   37.3390 C   0  0  0  0  0  0  0  0  0  0  0  0
   36.4080   24.9990   38.0900 N   0  0  0  0  0  0  0  0  0  0  0  0
   36.5790   24.9270   39.4310 C   0  0  0  0  0  0  0  0  0  0  0  0
   36.4650   23.7480   40.0650 N   0  0  0  0  0  0  0  0  0  0  0  0
   36.0880   21.6740   39.8850 H   0  0  0  0  0  0  0  0  0  0  0  0
   35.7690   21.7440   37.4440 H   0  0  0  0  0  0  0  0  0  0  0  0
   35.9840   23.9570   36.2650 H   0  0  0  0  0  0  0  0  0  0  0  0
   37.6960   29.7440   39.5820 C   0  0  0  0  0  0  0  0  0  0  0  0
   36.7600   30.5000   38.9240 C   0  0  0  0  0  0  0  0  0  0  0  0
   37.4970   31.6070   38.4700 C   0  0  0  0  0  0  0  0  0  0  0  0
   38.8210   31.4620   38.8710 C   0  0  0  0  0  0  0  0  0  0  0  0
   38.8520   30.3240   39.5280 O   0  0  0  0  0  0  0  0  0  0  0  0
   35.7250   30.2960   38.7920 H   0  0  0  0  0  0  0  0  0  0  0  0
   37.0930   32.4290   37.9040 H   0  0  0  0  0  0  0  0  0  0  0  0
   39.9510   32.3800   38.6200 C   0  0  0  0  0  0  0  0  0  0  0  0
   40.7950   32.1440   37.4090 C   0  0  0  0  0  0  0  0  0  0  0  0
   40.6610   31.3870   36.7170 H   0  0  0  0  0  0  0  0  0  0  0  0
   42.0040   33.5780   37.6450 S   0  0  0  0  0  0  0  0  0  0  0  0
   41.1610   34.1590   39.2400 C   0  0  0  0  0  0  0  0  0  0  0  0
   41.5220   35.0140   39.7880 H   0  0  0  0  0  0  0  0  0  0  0  0
   40.2340   33.3840   39.4210 N   0  0  0  0  0  0  0  0  0  0  0  0
  1  2  2  0  0  0  0
  1  9  1  0  0  0  0
  2  3  1  0  0  0  0
  3 11  1  0  0  0  0
  3  4  2  0  0  0  0
  4  5  1  0  0  0  0
  5  6  1  0  0  0  0
  5 12  1  0  0  0  0
  6 13  1  0  0  0  0
  7  6  2  0  0  0  0
  8  4  1  0  0  0  0
  8  7  1  0  0  0  0
  9  8  2  0  0  0  0
 10  1  1  0  0  0  0
 14 20  1  0  0  0  0
 14 19  1  0  0  0  0
 15 14  2  0  0  0  0
 16 15  1  0  0  0  0
 16 17  2  0  0  0  0
 17 18  1  0  0  0  0
 18 19  2  0  0  0  0
 18  2  1  0  0  0  0
 21 15  1  0  0  0  0
 22 16  1  0  0  0  0
 23  9  1  0  0  0  0
 24 23  2  0  0  0  0
 25 26  2  0  0  0  0
 25 24  1  0  0  0  0
 26 27  1  0  0  0  0
 27 23  1  0  0  0  0
 28 24  1  0  0  0  0
 29 25  1  0  0  0  0
 30 26  1  0  0  0  0
 30 36  1  0  0  0  0
 31 33  1  0  0  0  0
 31 30  2  0  0  0  0
 32 31  1  0  0  0  0
 33 34  1  0  0  0  0
 34 36  2  0  0  0  0
 34 35  1  0  0  0  0
M  END
>  <minimizedAffinity>
-5.48763132

$$$$

 OpenBabel03252506583D

 36 40  0  0  0  0  0  0  0  0999 V2000
   33.4680   29.0010   38.2840 C   0  0  0  0  0  0  0  0  0  0  0  0
   32.8200   29.2470   37.0860 C   0  0  0  0  0  0  0  0  0  0  0  0
   33.4690   29.2250   35.8760 C   0  0  0  0  0  0  0  0  0  0  0  0
   34.8250   28.9490   35.8100 C   0  0  0  0  0  0  0  0  0  0  0  0
   35.7670   28.8460   34.8290 N   0  0  0  0  0  0  0  0  0  0  0  0
   36.9630   28.5440   35.4060 C   0  0  0  0  0  0  0  0  0  0  0  0
   36.7380   28.4660   36.7360 N   0  0  0  0  0  0  0  0  0  0  0  0
   35.4420   28.7090   37.0120 C   0  0  0  0  0  0  0  0  0  0  0  0
   34.8460   28.7190   38.2350 C   0  0  0  0  0  0  0  0  0  0  0  0
   32.9490   29.0200   39.2340 H   0  0  0  0  0  0  0  0  0  0  0  0
   32.9500   29.4190   34.9440 H   0  0  0  0  0  0  0  0  0  0  0  0
   35.5490   28.9860   33.8110 H   0  0  0  0  0  0  0  0  0  0  0  0
   37.9000   28.4010   34.8600 H   0  0  0  0  0  0  0  0  0  0  0  0
   29.3210   29.6300   36.0150 C   0  0  0  0  0  0  0  0  0  0  0  0
   28.7000   30.1110   37.1570 C   0  0  0  0  0  0  0  0  0  0  0  0
   29.4850   30.3050   38.2990 C   0  0  0  0  0  0  0  0  0  0  0  0
   30.8190   30.0110   38.2320 N   0  0  0  0  0  0  0  0  0  0  0  0
   31.3910   29.5430   37.0980 C   0  0  0  0  0  0  0  0  0  0  0  0
   30.6480   29.3530   35.9950 N   0  0  0  0  0  0  0  0  0  0  0  0
   28.7280   29.4720   35.1140 H   0  0  0  0  0  0  0  0  0  0  0  0
   27.6340   30.3260   37.1480 H   0  0  0  0  0  0  0  0  0  0  0  0
   29.0320   30.6790   39.2100 H   0  0  0  0  0  0  0  0  0  0  0  0
   35.5960   28.4490   39.4640 C   0  0  0  0  0  0  0  0  0  0  0  0
   35.7550   29.3370   40.4970 C   0  0  0  0  0  0  0  0  0  0  0  0
   36.5360   28.6220   41.4210 C   0  0  0  0  0  0  0  0  0  0  0  0
   36.8040   27.3590   40.9040 C   0  0  0  0  0  0  0  0  0  0  0  0
   36.2060   27.3390   39.7330 O   0  0  0  0  0  0  0  0  0  0  0  0
   35.3770   30.3260   40.5760 H   0  0  0  0  0  0  0  0  0  0  0  0
   36.8690   29.0000   42.3720 H   0  0  0  0  0  0  0  0  0  0  0  0
   37.5870   26.2700   41.5260 C   0  0  0  0  0  0  0  0  0  0  0  0
   38.9070   26.6130   42.1370 C   0  0  0  0  0  0  0  0  0  0  0  0
   39.3330   27.5550   42.1690 H   0  0  0  0  0  0  0  0  0  0  0  0
   39.3810   24.8810   42.7290 S   0  0  0  0  0  0  0  0  0  0  0  0
   37.7860   24.1060   42.0610 C   0  0  0  0  0  0  0  0  0  0  0  0
   37.5850   23.0530   42.1670 H   0  0  0  0  0  0  0  0  0  0  0  0
   37.1620   25.0260   41.5550 N   0  0  0  0  0  0  0  0  0  0  0  0
  1 10  1  0  0  0  0
  2 18  1  0  0  0  0
  2  1  2  0  0  0  0
  3  2  1  0  0  0  0
  4  3  2  0  0  0  0
  4  8  1  0  0  0  0
  5  6  1  0  0  0  0
  5  4  1  0  0  0  0
  6  7  2  0  0  0  0
  7  8  1  0  0  0  0
  8  9  2  0  0  0  0
  9  1  1  0  0  0  0
  9 23  1  0  0  0  0
 11  3  1  0  0  0  0
 12  5  1  0  0  0  0
 13  6  1  0  0  0  0
 14 15  1  0  0  0  0
 15 16  2  0  0  0  0
 16 22  1  0  0  0  0
 17 16  1  0  0  0  0
 18 17  2  0  0  0  0
 19 14  2  0  0  0  0
 19 18  1  0  0  0  0
 20 14  1  0  0  0  0
 21 15  1  0  0  0  0
 23 27  1  0  0  0  0
 23 24  2  0  0  0  0
 24 28  1  0  0  0  0
 24 25  1  0  0  0  0
 25 29  1  0  0  0  0
 26 25  2  0  0  0  0
 26 30  1  0  0  0  0
 27 26  1  0  0  0  0
 30 36  1  0  0  0  0
 30 31  2  0  0  0  0
 31 32  1  0  0  0  0
 31 33  1  0  0  0  0
 34 35  1  0  0  0  0
 34 33  1  0  0  0  0
 36 34  2  0  0  0  0
M  END
>  <minimizedAffinity>
-5.46093082

$$$$

 OpenBabel03252506583D

 36 40  0  0  0  0  0  0  0  0999 V2000
   37.5660   28.8230   40.0930 C   0  0  0  0  0  0  0  0  0  0  0  0
   38.3380   29.1720   41.1880 C   0  0  0  0  0  0  0  0  0  0  0  0
   38.6090   30.4770   41.5170 C   0  0  0  0  0  0  0  0  0  0  0  0
   38.1080   31.5140   40.7480 C   0  0  0  0  0  0  0  0  0  0  0  0
   38.1660   32.8770   40.7650 N   0  0  0  0  0  0  0  0  0  0  0  0
   37.4500   33.3560   39.7110 C   0  0  0  0  0  0  0  0  0  0  0  0
   36.9610   32.2770   39.0580 N   0  0  0  0  0  0  0  0  0  0  0  0
   37.3470   31.1400   39.6680 C   0  0  0  0  0  0  0  0  0  0  0  0
   37.0500   29.8640   39.3000 C   0  0  0  0  0  0  0  0  0  0  0  0
   37.3580   27.7910   39.8410 H   0  0  0  0  0  0  0  0  0  0  0  0
   39.2140   30.7370   42.3770 H   0  0  0  0  0  0  0  0  0  0  0  0
   38.6920   33.4160   41.4970 H   0  0  0  0  0  0  0  0  0  0  0  0
   37.3220   34.4160   39.4740 H   0  0  0  0  0  0  0  0  0  0  0  0
   38.8470   25.9250   42.8430 C   0  0  0  0  0  0  0  0  0  0  0  0
   39.9600   26.1550   43.6380 C   0  0  0  0  0  0  0  0  0  0  0  0
   40.5360   27.4300   43.6060 C   0  0  0  0  0  0  0  0  0  0  0  0
   39.9780   28.3790   42.7960 N   0  0  0  0  0  0  0  0  0  0  0  0
   38.8910   28.1180   42.0340 C   0  0  0  0  0  0  0  0  0  0  0  0
   38.3270   26.8990   42.0560 N   0  0  0  0  0  0  0  0  0  0  0  0
   38.3820   24.9400   42.8530 H   0  0  0  0  0  0  0  0  0  0  0  0
   40.3580   25.3580   44.2620 H   0  0  0  0  0  0  0  0  0  0  0  0
   41.4080   27.6450   44.2140 H   0  0  0  0  0  0  0  0  0  0  0  0
   36.2260   29.5700   38.1270 C   0  0  0  0  0  0  0  0  0  0  0  0
   36.6900   29.5050   36.8380 C   0  0  0  0  0  0  0  0  0  0  0  0
   35.5390   29.2000   36.0930 C   0  0  0  0  0  0  0  0  0  0  0  0
   34.4550   29.0980   36.9580 C   0  0  0  0  0  0  0  0  0  0  0  0
   34.9530   29.3340   38.1520 O   0  0  0  0  0  0  0  0  0  0  0  0
   37.6840   29.6500   36.4900 H   0  0  0  0  0  0  0  0  0  0  0  0
   35.5100   29.0680   35.0240 H   0  0  0  0  0  0  0  0  0  0  0  0
   33.0490   28.7930   36.6210 C   0  0  0  0  0  0  0  0  0  0  0  0
   32.7670   27.5640   35.8190 C   0  0  0  0  0  0  0  0  0  0  0  0
   33.4750   26.8940   35.4710 H   0  0  0  0  0  0  0  0  0  0  0  0
   30.8860   27.7310   35.7290 S   0  0  0  0  0  0  0  0  0  0  0  0
   30.8800   29.3360   36.7370 C   0  0  0  0  0  0  0  0  0  0  0  0
   29.9630   29.8540   36.9660 H   0  0  0  0  0  0  0  0  0  0  0  0
   32.0520   29.5620   37.0000 N   0  0  0  0  0  0  0  0  0  0  0  0
  1  2  1  0  0  0  0
  2  3  2  0  0  0  0
  2 18  1  0  0  0  0
  3 11  1  0  0  0  0
  4  5  1  0  0  0  0
  4  3  1  0  0  0  0
  5 12  1  0  0  0  0
  6  5  1  0  0  0  0
  7  8  1  0  0  0  0
  7  6  2  0  0  0  0
  8  4  2  0  0  0  0
  9  8  1  0  0  0  0
  9  1  2  0  0  0  0
 10  1  1  0  0  0  0
 13  6  1  0  0  0  0
 14 20  1  0  0  0  0
 14 15  1  0  0  0  0
 15 21  1  0  0  0  0
 16 15  2  0  0  0  0
 16 22  1  0  0  0  0
 17 16  1  0  0  0  0
 18 19  1  0  0  0  0
 18 17  2  0  0  0  0
 19 14  2  0  0  0  0
 23 27  1  0  0  0  0
 23  9  1  0  0  0  0
 24 23  2  0  0  0  0
 25 24  1  0  0  0  0
 25 26  2  0  0  0  0
 26 27  1  0  0  0  0
 28 24  1  0  0  0  0
 29 25  1  0  0  0  0
 30 26  1  0  0  0  0
 30 36  1  0  0  0  0
 31 30  2  0  0  0  0
 32 31  1  0  0  0  0
 33 31  1  0  0  0  0
 33 34  1  0  0  0  0
 34 35  1  0  0  0  0
 34 36  2  0  0  0  0
M  END
>  <minimizedAffinity>
-5.44504404

$$$$

 OpenBabel03252506583D

 36 40  0  0  0  0  0  0  0  0999 V2000
   37.7610   30.2890   40.0470 C   0  0  0  0  0  0  0  0  0  0  0  0
   38.4570   30.9190   41.0640 C   0  0  0  0  0  0  0  0  0  0  0  0
   38.4210   30.4850   42.3670 C   0  0  0  0  0  0  0  0  0  0  0  0
   37.6700   29.3750   42.7160 C   0  0  0  0  0  0  0  0  0  0  0  0
   37.4030   28.6810   43.8590 N   0  0  0  0  0  0  0  0  0  0  0  0
   36.5670   27.6500   43.5570 C   0  0  0  0  0  0  0  0  0  0  0  0
   36.3300   27.7260   42.2280 N   0  0  0  0  0  0  0  0  0  0  0  0
   36.9900   28.7690   41.6890 C   0  0  0  0  0  0  0  0  0  0  0  0
   36.9930   29.1590   40.3850 C   0  0  0  0  0  0  0  0  0  0  0  0
   37.7960   30.6380   39.0230 H   0  0  0  0  0  0  0  0  0  0  0  0
   38.9700   30.9880   43.1540 H   0  0  0  0  0  0  0  0  0  0  0  0
   37.8050   28.9430   44.7940 H   0  0  0  0  0  0  0  0  0  0  0  0
   36.1840   26.9240   44.2810 H   0  0  0  0  0  0  0  0  0  0  0  0
   41.3290   33.0720   40.2520 C   0  0  0  0  0  0  0  0  0  0  0  0
   40.7550   34.3310   40.1620 C   0  0  0  0  0  0  0  0  0  0  0  0
   39.3770   34.4410   40.3820 C   0  0  0  0  0  0  0  0  0  0  0  0
   38.6690   33.3070   40.6710 N   0  0  0  0  0  0  0  0  0  0  0  0
   39.2650   32.0950   40.7510 C   0  0  0  0  0  0  0  0  0  0  0  0
   40.5860   31.9750   40.5430 N   0  0  0  0  0  0  0  0  0  0  0  0
   42.4000   32.9640   40.0850 H   0  0  0  0  0  0  0  0  0  0  0  0
   41.3720   35.1950   39.9280 H   0  0  0  0  0  0  0  0  0  0  0  0
   38.8950   35.4100   40.3180 H   0  0  0  0  0  0  0  0  0  0  0  0
   36.2320   28.4420   39.3610 C   0  0  0  0  0  0  0  0  0  0  0  0
   36.5720   27.2170   38.8440 C   0  0  0  0  0  0  0  0  0  0  0  0
   35.5500   26.9620   37.9150 C   0  0  0  0  0  0  0  0  0  0  0  0
   34.6590   28.0300   37.9180 C   0  0  0  0  0  0  0  0  0  0  0  0
   35.1420   28.8690   38.8090 O   0  0  0  0  0  0  0  0  0  0  0  0
   37.4080   26.6100   39.0910 H   0  0  0  0  0  0  0  0  0  0  0  0
   35.4770   26.0790   37.3030 H   0  0  0  0  0  0  0  0  0  0  0  0
   33.4370   28.1970   37.1050 C   0  0  0  0  0  0  0  0  0  0  0  0
   33.1350   27.1630   36.0680 C   0  0  0  0  0  0  0  0  0  0  0  0
   33.7090   26.3280   35.8620 H   0  0  0  0  0  0  0  0  0  0  0  0
   31.5280   27.9110   35.4090 S   0  0  0  0  0  0  0  0  0  0  0  0
   31.6030   29.3790   36.6060 C   0  0  0  0  0  0  0  0  0  0  0  0
   30.8410   30.1420   36.6090 H   0  0  0  0  0  0  0  0  0  0  0  0
   32.6200   29.2140   37.2630 N   0  0  0  0  0  0  0  0  0  0  0  0
  1  9  2  0  0  0  0
  1  2  1  0  0  0  0
  2  3  2  0  0  0  0
  3  4  1  0  0  0  0
  3 11  1  0  0  0  0
  4  5  1  0  0  0  0
  5 12  1  0  0  0  0
  6  5  1  0  0  0  0
  6 13  1  0  0  0  0
  7  6  2  0  0  0  0
  8  7  1  0  0  0  0
  8  4  2  0  0  0  0
  9  8  1  0  0  0  0
 10  1  1  0  0  0  0
 14 19  1  0  0  0  0
 15 14  2  0  0  0  0
 15 16  1  0  0  0  0
 16 17  2  0  0  0  0
 17 18  1  0  0  0  0
 18  2  1  0  0  0  0
 19 18  2  0  0  0  0
 20 14  1  0  0  0  0
 21 15  1  0  0  0  0
 22 16  1  0  0  0  0
 23  9  1  0  0  0  0
 24 28  1  0  0  0  0
 24 23  2  0  0  0  0
 25 26  2  0  0  0  0
 25 24  1  0  0  0  0
 26 27  1  0  0  0  0
 27 23  1  0  0  0  0
 29 25  1  0  0  0  0
 30 36  1  0  0  0  0
 30 26  1  0  0  0  0
 31 30  2  0  0  0  0
 32 31  1  0  0  0  0
 33 31  1  0  0  0  0
 33 34  1  0  0  0  0
 34 35  1  0  0  0  0
 34 36  2  0  0  0  0
M  END
>  <minimizedAffinity>
-5.42542505

$$$$

 OpenBabel03252506583D

 36 40  0  0  0  0  0  0  0  0999 V2000
   37.3430   30.8090   38.7060 C   0  0  0  0  0  0  0  0  0  0  0  0
   36.4800   29.7340   38.5810 C   0  0  0  0  0  0  0  0  0  0  0  0
   36.2380   28.8560   39.6090 C   0  0  0  0  0  0  0  0  0  0  0  0
   36.8620   29.0190   40.8350 C   0  0  0  0  0  0  0  0  0  0  0  0
   36.8670   28.3740   42.0360 N   0  0  0  0  0  0  0  0  0  0  0  0
   37.7090   29.0320   42.8790 C   0  0  0  0  0  0  0  0  0  0  0  0
   38.2110   30.0760   42.1820 N   0  0  0  0  0  0  0  0  0  0  0  0
   37.7120   30.0930   40.9310 C   0  0  0  0  0  0  0  0  0  0  0  0
   37.9850   30.9900   39.9450 C   0  0  0  0  0  0  0  0  0  0  0  0
   37.5280   31.4960   37.8910 H   0  0  0  0  0  0  0  0  0  0  0  0
   35.5600   28.0180   39.4990 H   0  0  0  0  0  0  0  0  0  0  0  0
   36.2950   27.5130   42.2240 H   0  0  0  0  0  0  0  0  0  0  0  0
   37.9110   28.7380   43.9140 H   0  0  0  0  0  0  0  0  0  0  0  0
   35.8020   29.4940   34.9730 C   0  0  0  0  0  0  0  0  0  0  0  0
   34.4760   29.0920   34.9340 C   0  0  0  0  0  0  0  0  0  0  0  0
   33.8120   28.9040   36.1520 C   0  0  0  0  0  0  0  0  0  0  0  0
   34.5010   29.1230   37.3120 N   0  0  0  0  0  0  0  0  0  0  0  0
   35.7960   29.5150   37.3100 C   0  0  0  0  0  0  0  0  0  0  0  0
   36.4450   29.7000   36.1490 N   0  0  0  0  0  0  0  0  0  0  0  0
   36.3380   29.6460   34.0370 H   0  0  0  0  0  0  0  0  0  0  0  0
   33.9820   28.9340   33.9780 H   0  0  0  0  0  0  0  0  0  0  0  0
   32.7740   28.5890   36.1590 H   0  0  0  0  0  0  0  0  0  0  0  0
   38.9110   32.1060   40.1500 C   0  0  0  0  0  0  0  0  0  0  0  0
   38.5340   33.4050   40.3790 C   0  0  0  0  0  0  0  0  0  0  0  0
   39.7600   34.0800   40.5060 C   0  0  0  0  0  0  0  0  0  0  0  0
   40.7970   33.1670   40.3480 C   0  0  0  0  0  0  0  0  0  0  0  0
   40.2020   32.0130   40.1390 O   0  0  0  0  0  0  0  0  0  0  0  0
   37.5510   33.8020   40.4450 H   0  0  0  0  0  0  0  0  0  0  0  0
   39.8680   35.1350   40.6940 H   0  0  0  0  0  0  0  0  0  0  0  0
   42.2510   33.4250   40.4020 C   0  0  0  0  0  0  0  0  0  0  0  0
   42.7390   34.5180   41.2980 C   0  0  0  0  0  0  0  0  0  0  0  0
   42.1470   35.1200   41.8950 H   0  0  0  0  0  0  0  0  0  0  0  0
   44.5870   34.3510   40.9340 S   0  0  0  0  0  0  0  0  0  0  0  0
   44.3220   32.9230   39.7170 C   0  0  0  0  0  0  0  0  0  0  0  0
   45.1490   32.4550   39.2090 H   0  0  0  0  0  0  0  0  0  0  0  0
   43.1150   32.7330   39.6930 N   0  0  0  0  0  0  0  0  0  0  0  0
  1  9  1  0  0  0  0
  2  1  2  0  0  0  0
  2  3  1  0  0  0  0
  3  4  2  0  0  0  0
  4  8  1  0  0  0  0
  4  5  1  0  0  0  0
  5 12  1  0  0  0  0
  5  6  1  0  0  0  0
  6 13  1  0  0  0  0
  7  6  2  0  0  0  0
  8  7  1  0  0  0  0
  9 23  1  0  0  0  0
  9  8  2  0  0  0  0
 10  1  1  0  0  0  0
 11  3  1  0  0  0  0
 14 19  1  0  0  0  0
 15 14  2  0  0  0  0
 15 16  1  0  0  0  0
 16 22  1  0  0  0  0
 16 17  2  0  0  0  0
 18 17  1  0  0  0  0
 18  2  1  0  0  0  0
 19 18  2  0  0  0  0
 20 14  1  0  0  0  0
 21 15  1  0  0  0  0
 23 24  2  0  0  0  0
 24 28  1  0  0  0  0
 24 25  1  0  0  0  0
 25 29  1  0  0  0  0
 26 30  1  0  0  0  0
 26 25  2  0  0  0  0
 27 23  1  0  0  0  0
 27 26  1  0  0  0  0
 30 31  2  0  0  0  0
 31 32  1  0  0  0  0
 33 31  1  0  0  0  0
 34 33  1  0  0  0  0
 35 34  1  0  0  0  0
 36 34  2  0  0  0  0
 36 30  1  0  0  0  0
M  END
>  <minimizedAffinity>
-5.36871815

$$$$
