
 OpenBabel03252502143D

 35 38  0  0  0  0  0  0  0  0999 V2000
   37.0660   24.2010   40.6630 Cl  0  0  0  0  0  0  0  0  0  0  0  0
   36.5500   25.5720   39.7040 C   0  0  0  0  0  0  0  0  0  0  0  0
   36.8520   26.8440   40.0710 C   0  0  0  0  0  0  0  0  0  0  0  0
   36.3910   27.8390   39.2350 C   0  0  0  0  0  0  0  0  0  0  0  0
   35.6760   27.6050   38.1090 C   0  0  0  0  0  0  0  0  0  0  0  0
   35.3750   26.3130   37.7470 C   0  0  0  0  0  0  0  0  0  0  0  0
   35.8230   25.3010   38.5610 C   0  0  0  0  0  0  0  0  0  0  0  0
   35.3120   28.3930   37.4510 H   0  0  0  0  0  0  0  0  0  0  0  0
   34.8070   26.0640   36.8580 H   0  0  0  0  0  0  0  0  0  0  0  0
   35.5830   24.2830   38.2710 H   0  0  0  0  0  0  0  0  0  0  0  0
   37.8210   27.4150   43.6790 C   0  0  0  0  0  0  0  0  0  0  0  0
   37.0570   27.2010   42.5270 C   0  0  0  0  0  0  0  0  0  0  0  0
   37.6120   27.0660   41.2710 C   0  0  0  0  0  0  0  0  0  0  0  0
   38.9840   27.1580   41.2370 N   0  0  0  0  0  0  0  0  0  0  0  0
   39.7220   27.3640   42.3340 C   0  0  0  0  0  0  0  0  0  0  0  0
   39.1620   27.4920   43.5470 N   0  0  0  0  0  0  0  0  0  0  0  0
   37.3510   27.5170   44.6500 H   0  0  0  0  0  0  0  0  0  0  0  0
   35.9780   27.1350   42.6060 H   0  0  0  0  0  0  0  0  0  0  0  0
   40.7900   27.4070   42.1040 H   0  0  0  0  0  0  0  0  0  0  0  0
   36.7010   29.2270   39.6000 C   0  0  0  0  0  0  0  0  0  0  0  0
   35.8670   29.8780   40.4950 C   0  0  0  0  0  0  0  0  0  0  0  0
   36.2300   31.1610   40.7770 C   0  0  0  0  0  0  0  0  0  0  0  0
   37.3210   31.8120   40.2490 C   0  0  0  0  0  0  0  0  0  0  0  0
   38.1120   31.1010   39.3610 C   0  0  0  0  0  0  0  0  0  0  0  0
   37.7460   29.8480   39.0950 N   0  0  0  0  0  0  0  0  0  0  0  0
   35.0180   29.3920   40.9150 H   0  0  0  0  0  0  0  0  0  0  0  0
   35.6150   31.7690   41.4910 H   0  0  0  0  0  0  0  0  0  0  0  0
   37.5810   32.8320   40.4950 H   0  0  0  0  0  0  0  0  0  0  0  0
   39.2700   31.7560   38.7860 C   0  0  0  0  0  0  0  0  0  0  0  0
   39.8600   32.8990   39.4840 C   0  0  0  0  0  0  0  0  0  0  0  0
   39.4430   33.3430   40.5240 H   0  0  0  0  0  0  0  0  0  0  0  0
   41.3080   33.4090   38.3870 S   0  0  0  0  0  0  0  0  0  0  0  0
   40.8410   31.9980   37.2120 C   0  0  0  0  0  0  0  0  0  0  0  0
   41.2770   31.5840   36.1870 H   0  0  0  0  0  0  0  0  0  0  0  0
   39.9390   31.5080   37.6860 N   0  0  0  0  0  0  0  0  0  0  0  0
  2  3  1  0  0  0  0
  2  1  1  0  0  0  0
  3 13  1  0  0  0  0
  4 20  1  0  0  0  0
  4  3  2  0  0  0  0
  5  4  1  0  0  0  0
  6  5  2  0  0  0  0
  6  7  1  0  0  0  0
  7  2  2  0  0  0  0
  8  5  1  0  0  0  0
  9  6  1  0  0  0  0
 10  7  1  0  0  0  0
 11 17  1  0  0  0  0
 12 18  1  0  0  0  0
 12 11  2  0  0  0  0
 13 12  1  0  0  0  0
 14 13  2  0  0  0  0
 14 15  1  0  0  0  0
 15 16  2  0  0  0  0
 16 11  1  0  0  0  0
 19 15  1  0  0  0  0
 20 21  1  0  0  0  0
 21 22  2  0  0  0  0
 21 26  1  0  0  0  0
 22 27  1  0  0  0  0
 23 28  1  0  0  0  0
 23 22  1  0  0  0  0
 24 23  2  0  0  0  0
 25 24  1  0  0  0  0
 25 20  2  0  0  0  0
 29 24  1  0  0  0  0
 29 30  2  0  0  0  0
 30 31  1  0  0  0  0
 32 30  1  0  0  0  0
 33 35  2  0  0  0  0
 33 32  1  0  0  0  0
 34 33  1  0  0  0  0
 35 29  1  0  0  0  0
M  END
>  <minimizedAffinity>
-5.72840738

$$$$

 OpenBabel03252502143D

 35 38  0  0  0  0  0  0  0  0999 V2000
   36.9540   25.4050   40.3340 Cl  0  0  0  0  0  0  0  0  0  0  0  0
   37.1080   26.8220   41.3500 C   0  0  0  0  0  0  0  0  0  0  0  0
   37.3430   28.0500   40.8190 C   0  0  0  0  0  0  0  0  0  0  0  0
   37.4450   29.0890   41.7200 C   0  0  0  0  0  0  0  0  0  0  0  0
   37.3250   28.9370   43.0600 C   0  0  0  0  0  0  0  0  0  0  0  0
   37.0870   27.6900   43.5870 C   0  0  0  0  0  0  0  0  0  0  0  0
   36.9810   26.6350   42.7130 C   0  0  0  0  0  0  0  0  0  0  0  0
   37.4060   29.7590   43.7700 H   0  0  0  0  0  0  0  0  0  0  0  0
   36.9820   27.5070   44.6510 H   0  0  0  0  0  0  0  0  0  0  0  0
   36.7930   25.6530   43.1340 H   0  0  0  0  0  0  0  0  0  0  0  0
   36.5480   28.4890   37.1510 C   0  0  0  0  0  0  0  0  0  0  0  0
   36.3990   28.3590   38.5350 C   0  0  0  0  0  0  0  0  0  0  0  0
   37.4660   28.1840   39.3930 C   0  0  0  0  0  0  0  0  0  0  0  0
   38.6960   28.1460   38.7790 N   0  0  0  0  0  0  0  0  0  0  0  0
   38.8470   28.2690   37.4550 C   0  0  0  0  0  0  0  0  0  0  0  0
   37.7950   28.4390   36.6370 N   0  0  0  0  0  0  0  0  0  0  0  0
   35.6870   28.6250   36.5070 H   0  0  0  0  0  0  0  0  0  0  0  0
   35.4080   28.3960   38.9710 H   0  0  0  0  0  0  0  0  0  0  0  0
   39.8970   28.2130   37.1580 H   0  0  0  0  0  0  0  0  0  0  0  0
   37.6960   30.4300   41.1800 C   0  0  0  0  0  0  0  0  0  0  0  0
   36.6250   31.1530   40.6790 C   0  0  0  0  0  0  0  0  0  0  0  0
   36.9500   32.3870   40.1980 C   0  0  0  0  0  0  0  0  0  0  0  0
   38.2160   32.9260   40.1840 C   0  0  0  0  0  0  0  0  0  0  0  0
   39.2400   32.1480   40.7000 C   0  0  0  0  0  0  0  0  0  0  0  0
   38.9080   30.9440   41.1670 N   0  0  0  0  0  0  0  0  0  0  0  0
   35.6390   30.7550   40.6810 H   0  0  0  0  0  0  0  0  0  0  0  0
   36.1490   33.0460   39.7720 H   0  0  0  0  0  0  0  0  0  0  0  0
   38.4390   33.9090   39.7950 H   0  0  0  0  0  0  0  0  0  0  0  0
   40.5860   32.6840   40.7010 C   0  0  0  0  0  0  0  0  0  0  0  0
   40.9140   33.7850   39.7930 C   0  0  0  0  0  0  0  0  0  0  0  0
   40.1270   34.2870   39.0310 H   0  0  0  0  0  0  0  0  0  0  0  0
   42.7330   34.1400   40.1410 S   0  0  0  0  0  0  0  0  0  0  0  0
   42.7010   32.7500   41.4280 C   0  0  0  0  0  0  0  0  0  0  0  0
   43.5000   32.2770   42.1690 H   0  0  0  0  0  0  0  0  0  0  0  0
   41.6420   32.3540   41.4050 N   0  0  0  0  0  0  0  0  0  0  0  0
  1  2  1  0  0  0  0
  2  7  1  0  0  0  0
  3  2  2  0  0  0  0
  3  4  1  0  0  0  0
  4  5  2  0  0  0  0
  5  6  1  0  0  0  0
  5  8  1  0  0  0  0
  6  9  1  0  0  0  0
  7 10  1  0  0  0  0
  7  6  2  0  0  0  0
 11 12  1  0  0  0  0
 12 18  1  0  0  0  0
 12 13  2  0  0  0  0
 13  3  1  0  0  0  0
 14 13  1  0  0  0  0
 15 14  2  0  0  0  0
 16 11  2  0  0  0  0
 16 15  1  0  0  0  0
 17 11  1  0  0  0  0
 19 15  1  0  0  0  0
 20  4  1  0  0  0  0
 21 26  1  0  0  0  0
 21 20  2  0  0  0  0
 22 21  1  0  0  0  0
 23 22  2  0  0  0  0
 23 24  1  0  0  0  0
 24 29  1  0  0  0  0
 24 25  2  0  0  0  0
 25 20  1  0  0  0  0
 27 22  1  0  0  0  0
 28 23  1  0  0  0  0
 29 35  1  0  0  0  0
 30 32  1  0  0  0  0
 30 29  2  0  0  0  0
 31 30  1  0  0  0  0
 32 33  1  0  0  0  0
 33 34  1  0  0  0  0
 35 33  2  0  0  0  0
M  END
>  <minimizedAffinity>
-5.69297028

$$$$

 OpenBabel03252502143D

 35 38  0  0  0  0  0  0  0  0999 V2000
   36.9270   25.2970   41.0720 Cl  0  0  0  0  0  0  0  0  0  0  0  0
   37.2880   26.8830   41.7170 C   0  0  0  0  0  0  0  0  0  0  0  0
   37.3980   27.9670   40.9060 C   0  0  0  0  0  0  0  0  0  0  0  0
   37.6850   29.1630   41.5310 C   0  0  0  0  0  0  0  0  0  0  0  0
   37.8550   29.2910   42.8680 C   0  0  0  0  0  0  0  0  0  0  0  0
   37.7420   28.1870   43.6800 C   0  0  0  0  0  0  0  0  0  0  0  0
   37.4570   26.9820   43.0840 C   0  0  0  0  0  0  0  0  0  0  0  0
   38.0820   30.2360   43.3600 H   0  0  0  0  0  0  0  0  0  0  0  0
   37.8680   28.2280   44.7560 H   0  0  0  0  0  0  0  0  0  0  0  0
   37.3680   26.1140   43.7290 H   0  0  0  0  0  0  0  0  0  0  0  0
   35.8540   27.8140   37.4600 C   0  0  0  0  0  0  0  0  0  0  0  0
   36.0060   27.9770   38.8400 C   0  0  0  0  0  0  0  0  0  0  0  0
   37.2120   27.8050   39.4900 C   0  0  0  0  0  0  0  0  0  0  0  0
   38.2600   27.4570   38.6700 N   0  0  0  0  0  0  0  0  0  0  0  0
   38.1230   27.2980   37.3490 C   0  0  0  0  0  0  0  0  0  0  0  0
   36.9400   27.4710   36.7360 N   0  0  0  0  0  0  0  0  0  0  0  0
   34.8920   27.9570   36.9830 H   0  0  0  0  0  0  0  0  0  0  0  0
   35.1490   28.2520   39.4430 H   0  0  0  0  0  0  0  0  0  0  0  0
   39.0660   27.0220   36.8720 H   0  0  0  0  0  0  0  0  0  0  0  0
   37.8080   30.3560   40.6840 C   0  0  0  0  0  0  0  0  0  0  0  0
   36.7500   31.2490   40.6430 C   0  0  0  0  0  0  0  0  0  0  0  0
   36.9490   32.3270   39.8320 C   0  0  0  0  0  0  0  0  0  0  0  0
   38.0850   32.5650   39.0920 C   0  0  0  0  0  0  0  0  0  0  0  0
   39.1040   31.6290   39.1810 C   0  0  0  0  0  0  0  0  0  0  0  0
   38.8950   30.5810   39.9770 N   0  0  0  0  0  0  0  0  0  0  0  0
   35.8630   31.0850   41.2080 H   0  0  0  0  0  0  0  0  0  0  0  0
   36.1490   33.1060   39.7340 H   0  0  0  0  0  0  0  0  0  0  0  0
   38.2110   33.4310   38.4590 H   0  0  0  0  0  0  0  0  0  0  0  0
   40.3150   31.8470   38.4150 C   0  0  0  0  0  0  0  0  0  0  0  0
   40.9860   30.6990   37.8040 C   0  0  0  0  0  0  0  0  0  0  0  0
   40.5940   29.5630   37.8940 H   0  0  0  0  0  0  0  0  0  0  0  0
   42.4790   31.4510   36.9300 S   0  0  0  0  0  0  0  0  0  0  0  0
   41.9160   33.1500   37.5530 C   0  0  0  0  0  0  0  0  0  0  0  0
   42.3280   34.2590   37.4460 H   0  0  0  0  0  0  0  0  0  0  0  0
   40.9730   32.9480   38.1440 N   0  0  0  0  0  0  0  0  0  0  0  0
  1  2  1  0  0  0  0
  2  7  1  0  0  0  0
  3  4  1  0  0  0  0
  3  2  2  0  0  0  0
  4  5  2  0  0  0  0
  5  8  1  0  0  0  0
  5  6  1  0  0  0  0
  6  9  1  0  0  0  0
  7  6  2  0  0  0  0
  7 10  1  0  0  0  0
 11 12  1  0  0  0  0
 12 18  1  0  0  0  0
 12 13  2  0  0  0  0
 13  3  1  0  0  0  0
 14 13  1  0  0  0  0
 15 14  2  0  0  0  0
 16 15  1  0  0  0  0
 16 11  2  0  0  0  0
 17 11  1  0  0  0  0
 19 15  1  0  0  0  0
 20  4  1  0  0  0  0
 21 20  1  0  0  0  0
 21 26  1  0  0  0  0
 22 21  2  0  0  0  0
 23 24  2  0  0  0  0
 23 22  1  0  0  0  0
 24 25  1  0  0  0  0
 25 20  2  0  0  0  0
 27 22  1  0  0  0  0
 28 23  1  0  0  0  0
 29 24  1  0  0  0  0
 30 31  1  0  0  0  0
 30 29  2  0  0  0  0
 32 33  1  0  0  0  0
 32 30  1  0  0  0  0
 33 35  2  0  0  0  0
 34 33  1  0  0  0  0
 35 29  1  0  0  0  0
M  END
>  <minimizedAffinity>
-5.57360649

$$$$

 OpenBabel03252502143D

 35 38  0  0  0  0  0  0  0  0999 V2000
   36.6730   26.6840   39.1720 Cl  0  0  0  0  0  0  0  0  0  0  0  0
   36.8130   28.2100   38.3260 C   0  0  0  0  0  0  0  0  0  0  0  0
   37.3320   29.3090   38.9320 C   0  0  0  0  0  0  0  0  0  0  0  0
   37.3910   30.4520   38.1630 C   0  0  0  0  0  0  0  0  0  0  0  0
   36.9660   30.5170   36.8790 C   0  0  0  0  0  0  0  0  0  0  0  0
   36.4420   29.4000   36.2750 C   0  0  0  0  0  0  0  0  0  0  0  0
   36.3710   28.2460   37.0170 C   0  0  0  0  0  0  0  0  0  0  0  0
   37.0130   31.4220   36.2740 H   0  0  0  0  0  0  0  0  0  0  0  0
   36.0860   29.3920   35.2510 H   0  0  0  0  0  0  0  0  0  0  0  0
   35.9570   27.3660   36.5360 H   0  0  0  0  0  0  0  0  0  0  0  0
   37.4140   29.2860   42.7100 C   0  0  0  0  0  0  0  0  0  0  0  0
   36.9560   29.3870   41.3930 C   0  0  0  0  0  0  0  0  0  0  0  0
   37.7760   29.2130   40.2960 C   0  0  0  0  0  0  0  0  0  0  0  0
   39.0870   28.9310   40.5990 N   0  0  0  0  0  0  0  0  0  0  0  0
   39.5340   28.8340   41.8570 C   0  0  0  0  0  0  0  0  0  0  0  0
   38.7200   29.0070   42.9100 N   0  0  0  0  0  0  0  0  0  0  0  0
   36.7420   29.4290   43.5480 H   0  0  0  0  0  0  0  0  0  0  0  0
   35.9120   29.6100   41.2060 H   0  0  0  0  0  0  0  0  0  0  0  0
   40.6020   28.6060   41.8930 H   0  0  0  0  0  0  0  0  0  0  0  0
   37.9490   31.6580   38.7870 C   0  0  0  0  0  0  0  0  0  0  0  0
   37.0980   32.4890   39.4980 C   0  0  0  0  0  0  0  0  0  0  0  0
   37.6990   33.5850   40.0420 C   0  0  0  0  0  0  0  0  0  0  0  0
   39.0360   33.8950   39.9300 C   0  0  0  0  0  0  0  0  0  0  0  0
   39.8280   33.0200   39.2040 C   0  0  0  0  0  0  0  0  0  0  0  0
   39.2270   31.9530   38.6780 N   0  0  0  0  0  0  0  0  0  0  0  0
   36.0620   32.2670   39.5970 H   0  0  0  0  0  0  0  0  0  0  0  0
   37.0920   34.3160   40.6360 H   0  0  0  0  0  0  0  0  0  0  0  0
   39.4810   34.7730   40.3740 H   0  0  0  0  0  0  0  0  0  0  0  0
   41.2400   33.3150   39.0650 C   0  0  0  0  0  0  0  0  0  0  0  0
   41.8250   33.3800   37.7240 C   0  0  0  0  0  0  0  0  0  0  0  0
   41.2020   33.2030   36.7090 H   0  0  0  0  0  0  0  0  0  0  0  0
   43.6420   33.7820   38.0350 S   0  0  0  0  0  0  0  0  0  0  0  0
   43.2650   33.7830   39.8920 C   0  0  0  0  0  0  0  0  0  0  0  0
   43.9070   33.9640   40.8760 H   0  0  0  0  0  0  0  0  0  0  0  0
   42.1610   33.5520   39.9680 N   0  0  0  0  0  0  0  0  0  0  0  0
  2  3  1  0  0  0  0
  2  1  1  0  0  0  0
  3 13  1  0  0  0  0
  4 20  1  0  0  0  0
  4  3  2  0  0  0  0
  5  4  1  0  0  0  0
  6  5  2  0  0  0  0
  6  7  1  0  0  0  0
  7  2  2  0  0  0  0
  8  5  1  0  0  0  0
  9  6  1  0  0  0  0
 10  7  1  0  0  0  0
 11 16  1  0  0  0  0
 11 17  1  0  0  0  0
 12 11  2  0  0  0  0
 13 14  2  0  0  0  0
 13 12  1  0  0  0  0
 14 15  1  0  0  0  0
 15 19  1  0  0  0  0
 15 16  2  0  0  0  0
 18 12  1  0  0  0  0
 20 21  1  0  0  0  0
 21 26  1  0  0  0  0
 21 22  2  0  0  0  0
 22 27  1  0  0  0  0
 23 22  1  0  0  0  0
 23 28  1  0  0  0  0
 24 23  2  0  0  0  0
 25 20  2  0  0  0  0
 25 24  1  0  0  0  0
 29 24  1  0  0  0  0
 29 35  1  0  0  0  0
 30 32  1  0  0  0  0
 30 29  2  0  0  0  0
 31 30  1  0  0  0  0
 32 33  1  0  0  0  0
 33 35  2  0  0  0  0
 33 34  1  0  0  0  0
M  END
>  <minimizedAffinity>
-5.48238611

$$$$

 OpenBabel03252502143D

 35 38  0  0  0  0  0  0  0  0999 V2000
   36.4120   29.8210   34.6840 Cl  0  0  0  0  0  0  0  0  0  0  0  0
   35.5330   29.3650   36.1280 C   0  0  0  0  0  0  0  0  0  0  0  0
   36.1380   29.3360   37.3430 C   0  0  0  0  0  0  0  0  0  0  0  0
   35.3420   28.9610   38.4050 C   0  0  0  0  0  0  0  0  0  0  0  0
   34.0330   28.6340   38.2860 C   0  0  0  0  0  0  0  0  0  0  0  0
   33.4310   28.6670   37.0510 C   0  0  0  0  0  0  0  0  0  0  0  0
   34.2000   29.0370   35.9740 C   0  0  0  0  0  0  0  0  0  0  0  0
   33.4060   28.3380   39.1260 H   0  0  0  0  0  0  0  0  0  0  0  0
   32.3880   28.4160   36.8940 H   0  0  0  0  0  0  0  0  0  0  0  0
   33.7190   29.0620   35.0010 H   0  0  0  0  0  0  0  0  0  0  0  0
   39.3500   31.2840   37.7570 C   0  0  0  0  0  0  0  0  0  0  0  0
   37.9910   30.9700   37.6630 C   0  0  0  0  0  0  0  0  0  0  0  0
   37.5280   29.6880   37.4430 C   0  0  0  0  0  0  0  0  0  0  0  0
   38.5130   28.7360   37.3210 N   0  0  0  0  0  0  0  0  0  0  0  0
   39.8160   29.0280   37.4080 C   0  0  0  0  0  0  0  0  0  0  0  0
   40.2450   30.2820   37.6240 N   0  0  0  0  0  0  0  0  0  0  0  0
   39.6770   32.3020   37.9310 H   0  0  0  0  0  0  0  0  0  0  0  0
   37.2520   31.7560   37.7670 H   0  0  0  0  0  0  0  0  0  0  0  0
   40.4420   28.1410   37.2850 H   0  0  0  0  0  0  0  0  0  0  0  0
   35.9630   28.9210   39.7350 C   0  0  0  0  0  0  0  0  0  0  0  0
   35.9320   30.0660   40.5140 C   0  0  0  0  0  0  0  0  0  0  0  0
   36.5310   29.9390   41.7320 C   0  0  0  0  0  0  0  0  0  0  0  0
   37.1340   28.7960   42.2050 C   0  0  0  0  0  0  0  0  0  0  0  0
   37.1290   27.6880   41.3720 C   0  0  0  0  0  0  0  0  0  0  0  0
   36.5390   27.8270   40.1850 N   0  0  0  0  0  0  0  0  0  0  0  0
   35.4700   30.9600   40.1670 H   0  0  0  0  0  0  0  0  0  0  0  0
   36.5570   30.8130   42.4340 H   0  0  0  0  0  0  0  0  0  0  0  0
   37.6010   28.7290   43.1770 H   0  0  0  0  0  0  0  0  0  0  0  0
   37.7550   26.4670   41.8380 C   0  0  0  0  0  0  0  0  0  0  0  0
   39.0660   26.5420   42.4850 C   0  0  0  0  0  0  0  0  0  0  0  0
   39.6730   27.5680   42.6610 H   0  0  0  0  0  0  0  0  0  0  0  0
   39.4710   24.7490   42.9120 S   0  0  0  0  0  0  0  0  0  0  0  0
   37.8120   24.2510   42.1430 C   0  0  0  0  0  0  0  0  0  0  0  0
   37.2380   23.2230   41.9840 H   0  0  0  0  0  0  0  0  0  0  0  0
   37.3490   25.2210   41.7910 N   0  0  0  0  0  0  0  0  0  0  0  0
  1  2  1  0  0  0  0
  2  3  1  0  0  0  0
  3 13  1  0  0  0  0
  3  4  2  0  0  0  0
  4 20  1  0  0  0  0
  5  4  1  0  0  0  0
  5  8  1  0  0  0  0
  6  5  2  0  0  0  0
  7  2  2  0  0  0  0
  7  6  1  0  0  0  0
  9  6  1  0  0  0  0
 10  7  1  0  0  0  0
 11 17  1  0  0  0  0
 12 11  1  0  0  0  0
 12 18  1  0  0  0  0
 13 12  2  0  0  0  0
 14 15  2  0  0  0  0
 14 13  1  0  0  0  0
 15 16  1  0  0  0  0
 16 11  2  0  0  0  0
 19 15  1  0  0  0  0
 20 25  2  0  0  0  0
 20 21  1  0  0  0  0
 21 22  2  0  0  0  0
 22 23  1  0  0  0  0
 22 27  1  0  0  0  0
 23 28  1  0  0  0  0
 24 29  1  0  0  0  0
 24 23  2  0  0  0  0
 25 24  1  0  0  0  0
 26 21  1  0  0  0  0
 29 30  2  0  0  0  0
 30 31  1  0  0  0  0
 30 32  1  0  0  0  0
 33 32  1  0  0  0  0
 34 33  1  0  0  0  0
 35 29  1  0  0  0  0
 35 33  2  0  0  0  0
M  END
>  <minimizedAffinity>
-5.47640324

$$$$

 OpenBabel03252502143D

 35 38  0  0  0  0  0  0  0  0999 V2000
   41.2210   32.0720   39.9320 Cl  0  0  0  0  0  0  0  0  0  0  0  0
   41.1930   30.7870   41.1200 C   0  0  0  0  0  0  0  0  0  0  0  0
   40.0750   30.0470   41.3330 C   0  0  0  0  0  0  0  0  0  0  0  0
   40.1760   29.0630   42.2950 C   0  0  0  0  0  0  0  0  0  0  0  0
   41.3020   28.8190   43.0060 C   0  0  0  0  0  0  0  0  0  0  0  0
   42.4280   29.5750   42.7820 C   0  0  0  0  0  0  0  0  0  0  0  0
   42.3570   30.5630   41.8300 C   0  0  0  0  0  0  0  0  0  0  0  0
   41.3800   28.0420   43.7650 H   0  0  0  0  0  0  0  0  0  0  0  0
   43.3580   29.4270   43.3200 H   0  0  0  0  0  0  0  0  0  0  0  0
   43.2490   31.1560   41.6570 H   0  0  0  0  0  0  0  0  0  0  0  0
   37.4140   29.9890   38.6510 C   0  0  0  0  0  0  0  0  0  0  0  0
   38.5730   29.6990   39.3770 C   0  0  0  0  0  0  0  0  0  0  0  0
   38.8930   30.3260   40.5650 C   0  0  0  0  0  0  0  0  0  0  0  0
   37.9780   31.2650   40.9820 N   0  0  0  0  0  0  0  0  0  0  0  0
   36.8680   31.5490   40.2920 C   0  0  0  0  0  0  0  0  0  0  0  0
   36.5750   30.9270   39.1390 N   0  0  0  0  0  0  0  0  0  0  0  0
   37.1950   29.4770   37.7210 H   0  0  0  0  0  0  0  0  0  0  0  0
   39.2620   28.9500   39.0070 H   0  0  0  0  0  0  0  0  0  0  0  0
   36.2690   32.3200   40.7840 H   0  0  0  0  0  0  0  0  0  0  0  0
   38.9870   28.2410   42.5500 C   0  0  0  0  0  0  0  0  0  0  0  0
   38.0600   28.6890   43.4770 C   0  0  0  0  0  0  0  0  0  0  0  0
   36.9880   27.8650   43.6510 C   0  0  0  0  0  0  0  0  0  0  0  0
   36.7860   26.6750   42.9900 C   0  0  0  0  0  0  0  0  0  0  0  0
   37.7530   26.2880   42.0760 C   0  0  0  0  0  0  0  0  0  0  0  0
   38.7950   27.1040   41.9170 N   0  0  0  0  0  0  0  0  0  0  0  0
   38.1970   29.6070   43.9980 H   0  0  0  0  0  0  0  0  0  0  0  0
   36.1840   28.1430   44.3810 H   0  0  0  0  0  0  0  0  0  0  0  0
   35.9240   26.0440   43.1520 H   0  0  0  0  0  0  0  0  0  0  0  0
   37.5730   25.0400   41.3620 C   0  0  0  0  0  0  0  0  0  0  0  0
   38.6650   24.0630   41.3500 C   0  0  0  0  0  0  0  0  0  0  0  0
   39.7220   24.2280   41.9030 H   0  0  0  0  0  0  0  0  0  0  0  0
   37.9890   22.6330   40.3230 S   0  0  0  0  0  0  0  0  0  0  0  0
   36.3840   23.6180   40.1100 C   0  0  0  0  0  0  0  0  0  0  0  0
   35.3520   23.4260   39.5540 H   0  0  0  0  0  0  0  0  0  0  0  0
   36.5540   24.5820   40.6760 N   0  0  0  0  0  0  0  0  0  0  0  0
  1  2  1  0  0  0  0
  2  3  2  0  0  0  0
  2  7  1  0  0  0  0
  3  4  1  0  0  0  0
  4 20  1  0  0  0  0
  4  5  2  0  0  0  0
  5  8  1  0  0  0  0
  6  5  1  0  0  0  0
  6  9  1  0  0  0  0
  7  6  2  0  0  0  0
 10  7  1  0  0  0  0
 11 16  2  0  0  0  0
 11 12  1  0  0  0  0
 12 13  2  0  0  0  0
 13 14  1  0  0  0  0
 13  3  1  0  0  0  0
 15 19  1  0  0  0  0
 15 14  2  0  0  0  0
 16 15  1  0  0  0  0
 17 11  1  0  0  0  0
 18 12  1  0  0  0  0
 20 21  1  0  0  0  0
 21 22  2  0  0  0  0
 21 26  1  0  0  0  0
 22 27  1  0  0  0  0
 23 28  1  0  0  0  0
 23 22  1  0  0  0  0
 24 23  2  0  0  0  0
 25 24  1  0  0  0  0
 25 20  2  0  0  0  0
 29 24  1  0  0  0  0
 30 29  2  0  0  0  0
 30 31  1  0  0  0  0
 32 30  1  0  0  0  0
 33 32  1  0  0  0  0
 33 35  2  0  0  0  0
 34 33  1  0  0  0  0
 35 29  1  0  0  0  0
M  END
>  <minimizedAffinity>
-5.43812656

$$$$

 OpenBabel03252502143D

 35 38  0  0  0  0  0  0  0  0999 V2000
   35.7530   25.4460   37.0310 Cl  0  0  0  0  0  0  0  0  0  0  0  0
   35.6040   26.8190   38.1060 C   0  0  0  0  0  0  0  0  0  0  0  0
   36.2800   26.8710   39.2830 C   0  0  0  0  0  0  0  0  0  0  0  0
   36.0830   28.0040   40.0440 C   0  0  0  0  0  0  0  0  0  0  0  0
   35.2710   29.0240   39.6780 C   0  0  0  0  0  0  0  0  0  0  0  0
   34.5910   28.9610   38.4850 C   0  0  0  0  0  0  0  0  0  0  0  0
   34.7690   27.8440   37.7050 C   0  0  0  0  0  0  0  0  0  0  0  0
   35.1160   29.9180   40.2810 H   0  0  0  0  0  0  0  0  0  0  0  0
   33.9290   29.7460   38.1390 H   0  0  0  0  0  0  0  0  0  0  0  0
   34.2310   27.8000   36.7640 H   0  0  0  0  0  0  0  0  0  0  0  0
   37.5620   23.5930   40.6610 C   0  0  0  0  0  0  0  0  0  0  0  0
   36.7070   24.6460   40.3190 C   0  0  0  0  0  0  0  0  0  0  0  0
   37.1360   25.7740   39.6490 C   0  0  0  0  0  0  0  0  0  0  0  0
   38.4760   25.7850   39.3420 N   0  0  0  0  0  0  0  0  0  0  0  0
   39.3000   24.7820   39.6660 C   0  0  0  0  0  0  0  0  0  0  0  0
   38.8630   23.6930   40.3180 N   0  0  0  0  0  0  0  0  0  0  0  0
   37.1910   22.7220   41.1880 H   0  0  0  0  0  0  0  0  0  0  0  0
   35.6580   24.5910   40.5830 H   0  0  0  0  0  0  0  0  0  0  0  0
   40.3250   24.9740   39.3380 H   0  0  0  0  0  0  0  0  0  0  0  0
   36.8000   28.0940   41.3220 C   0  0  0  0  0  0  0  0  0  0  0  0
   36.2080   27.5540   42.4520 C   0  0  0  0  0  0  0  0  0  0  0  0
   36.9430   27.6820   43.5930 C   0  0  0  0  0  0  0  0  0  0  0  0
   38.1760   28.2870   43.6800 C   0  0  0  0  0  0  0  0  0  0  0  0
   38.7090   28.8050   42.5100 C   0  0  0  0  0  0  0  0  0  0  0  0
   37.9790   28.6720   41.4020 N   0  0  0  0  0  0  0  0  0  0  0  0
   35.2550   27.0820   42.4070 H   0  0  0  0  0  0  0  0  0  0  0  0
   36.5460   27.2760   44.5600 H   0  0  0  0  0  0  0  0  0  0  0  0
   38.7330   28.3720   44.6020 H   0  0  0  0  0  0  0  0  0  0  0  0
   40.0060   29.4490   42.5640 C   0  0  0  0  0  0  0  0  0  0  0  0
   40.0880   30.9000   42.3820 C   0  0  0  0  0  0  0  0  0  0  0  0
   39.1340   31.6100   42.1880 H   0  0  0  0  0  0  0  0  0  0  0  0
   41.9310   31.2770   42.5290 S   0  0  0  0  0  0  0  0  0  0  0  0
   42.2300   29.4260   42.8030 C   0  0  0  0  0  0  0  0  0  0  0  0
   43.1900   28.7530   42.9930 H   0  0  0  0  0  0  0  0  0  0  0  0
   41.2040   28.9530   42.7560 N   0  0  0  0  0  0  0  0  0  0  0  0
  1  2  1  0  0  0  0
  2  3  1  0  0  0  0
  3 13  1  0  0  0  0
  3  4  2  0  0  0  0
  4 20  1  0  0  0  0
  5  4  1  0  0  0  0
  5  8  1  0  0  0  0
  6  5  2  0  0  0  0
  7  2  2  0  0  0  0
  7  6  1  0  0  0  0
  9  6  1  0  0  0  0
 10  7  1  0  0  0  0
 11 17  1  0  0  0  0
 12 18  1  0  0  0  0
 12 11  1  0  0  0  0
 13 12  2  0  0  0  0
 14 13  1  0  0  0  0
 14 15  2  0  0  0  0
 15 16  1  0  0  0  0
 16 11  2  0  0  0  0
 19 15  1  0  0  0  0
 20 25  2  0  0  0  0
 20 21  1  0  0  0  0
 21 22  2  0  0  0  0
 22 23  1  0  0  0  0
 22 27  1  0  0  0  0
 23 28  1  0  0  0  0
 24 29  1  0  0  0  0
 24 23  2  0  0  0  0
 25 24  1  0  0  0  0
 26 21  1  0  0  0  0
 29 35  1  0  0  0  0
 30 32  1  0  0  0  0
 30 29  2  0  0  0  0
 31 30  1  0  0  0  0
 32 33  1  0  0  0  0
 33 34  1  0  0  0  0
 35 33  2  0  0  0  0
M  END
>  <minimizedAffinity>
-5.43170118

$$$$

 OpenBabel03252502143D

 35 38  0  0  0  0  0  0  0  0999 V2000
   37.0010   30.2900   36.6770 Cl  0  0  0  0  0  0  0  0  0  0  0  0
   36.7670   28.8900   37.7010 C   0  0  0  0  0  0  0  0  0  0  0  0
   37.1980   28.8760   38.9880 C   0  0  0  0  0  0  0  0  0  0  0  0
   36.9560   27.7170   39.6950 C   0  0  0  0  0  0  0  0  0  0  0  0
   36.3300   26.6360   39.1740 C   0  0  0  0  0  0  0  0  0  0  0  0
   35.8970   26.6600   37.8690 C   0  0  0  0  0  0  0  0  0  0  0  0
   36.1250   27.8020   37.1410 C   0  0  0  0  0  0  0  0  0  0  0  0
   36.1390   25.7210   39.7330 H   0  0  0  0  0  0  0  0  0  0  0  0
   35.3910   25.8250   37.3970 H   0  0  0  0  0  0  0  0  0  0  0  0
   35.7810   27.8160   36.1120 H   0  0  0  0  0  0  0  0  0  0  0  0
   37.8780   32.2110   40.6320 C   0  0  0  0  0  0  0  0  0  0  0  0
   37.2090   31.0930   40.1240 C   0  0  0  0  0  0  0  0  0  0  0  0
   37.8600   30.0380   39.5180 C   0  0  0  0  0  0  0  0  0  0  0  0
   39.2270   30.1700   39.4500 N   0  0  0  0  0  0  0  0  0  0  0  0
   39.8750   31.2360   39.9330 C   0  0  0  0  0  0  0  0  0  0  0  0
   39.2230   32.2530   40.5200 N   0  0  0  0  0  0  0  0  0  0  0  0
   37.3340   33.0220   41.1010 H   0  0  0  0  0  0  0  0  0  0  0  0
   36.1300   31.0360   40.2020 H   0  0  0  0  0  0  0  0  0  0  0  0
   40.9550   31.1580   39.7860 H   0  0  0  0  0  0  0  0  0  0  0  0
   37.4070   27.6690   41.0910 C   0  0  0  0  0  0  0  0  0  0  0  0
   36.4910   27.9480   42.0920 C   0  0  0  0  0  0  0  0  0  0  0  0
   36.9950   27.8800   43.3570 C   0  0  0  0  0  0  0  0  0  0  0  0
   38.2960   27.5670   43.6770 C   0  0  0  0  0  0  0  0  0  0  0  0
   39.1590   27.2990   42.6260 C   0  0  0  0  0  0  0  0  0  0  0  0
   38.6520   27.3690   41.3960 N   0  0  0  0  0  0  0  0  0  0  0  0
   35.4800   28.1920   41.8660 H   0  0  0  0  0  0  0  0  0  0  0  0
   36.3290   28.0900   44.2340 H   0  0  0  0  0  0  0  0  0  0  0  0
   38.6640   27.5210   44.6920 H   0  0  0  0  0  0  0  0  0  0  0  0
   40.5360   26.9650   42.9270 C   0  0  0  0  0  0  0  0  0  0  0  0
   40.9090   25.5580   43.0820 C   0  0  0  0  0  0  0  0  0  0  0  0
   40.1360   24.6400   42.9750 H   0  0  0  0  0  0  0  0  0  0  0  0
   42.7570   25.6110   43.4570 S   0  0  0  0  0  0  0  0  0  0  0  0
   42.6700   27.5000   43.3350 C   0  0  0  0  0  0  0  0  0  0  0  0
   43.4570   28.3830   43.4460 H   0  0  0  0  0  0  0  0  0  0  0  0
   41.5880   27.7290   43.1000 N   0  0  0  0  0  0  0  0  0  0  0  0
  1  2  1  0  0  0  0
  2  3  1  0  0  0  0
  3 13  1  0  0  0  0
  3  4  2  0  0  0  0
  4 20  1  0  0  0  0
  5  4  1  0  0  0  0
  5  8  1  0  0  0  0
  6  5  2  0  0  0  0
  7  2  2  0  0  0  0
  7  6  1  0  0  0  0
  9  6  1  0  0  0  0
 10  7  1  0  0  0  0
 11 17  1  0  0  0  0
 12 18  1  0  0  0  0
 12 11  2  0  0  0  0
 13 12  1  0  0  0  0
 14 13  2  0  0  0  0
 14 15  1  0  0  0  0
 15 16  2  0  0  0  0
 16 11  1  0  0  0  0
 19 15  1  0  0  0  0
 20 25  2  0  0  0  0
 20 21  1  0  0  0  0
 21 22  2  0  0  0  0
 22 23  1  0  0  0  0
 22 27  1  0  0  0  0
 23 28  1  0  0  0  0
 24 29  1  0  0  0  0
 24 23  2  0  0  0  0
 25 24  1  0  0  0  0
 26 21  1  0  0  0  0
 29 30  2  0  0  0  0
 29 35  1  0  0  0  0
 30 32  1  0  0  0  0
 31 30  1  0  0  0  0
 33 34  1  0  0  0  0
 33 32  1  0  0  0  0
 35 33  2  0  0  0  0
M  END
>  <minimizedAffinity>
-5.41172552

$$$$

 OpenBabel03252502143D

 35 38  0  0  0  0  0  0  0  0999 V2000
   37.1710   32.6520   39.1770 Cl  0  0  0  0  0  0  0  0  0  0  0  0
   37.9680   31.6460   40.3670 C   0  0  0  0  0  0  0  0  0  0  0  0
   37.5840   30.3610   40.5770 C   0  0  0  0  0  0  0  0  0  0  0  0
   38.2880   29.6690   41.5410 C   0  0  0  0  0  0  0  0  0  0  0  0
   39.3060   30.2020   42.2560 C   0  0  0  0  0  0  0  0  0  0  0  0
   39.6870   31.5050   42.0360 C   0  0  0  0  0  0  0  0  0  0  0  0
   39.0030   32.2180   41.0820 C   0  0  0  0  0  0  0  0  0  0  0  0
   39.8610   29.6540   43.0170 H   0  0  0  0  0  0  0  0  0  0  0  0
   40.4940   31.9850   42.5780 H   0  0  0  0  0  0  0  0  0  0  0  0
   39.3080   33.2460   40.9110 H   0  0  0  0  0  0  0  0  0  0  0  0
   35.5510   28.8450   37.7750 C   0  0  0  0  0  0  0  0  0  0  0  0
   36.6220   29.3700   38.5040 C   0  0  0  0  0  0  0  0  0  0  0  0
   36.5000   29.8180   39.8040 C   0  0  0  0  0  0  0  0  0  0  0  0
   35.2350   29.7090   40.3320 N   0  0  0  0  0  0  0  0  0  0  0  0
   34.2040   29.2090   39.6410 C   0  0  0  0  0  0  0  0  0  0  0  0
   34.3440   28.7780   38.3770 N   0  0  0  0  0  0  0  0  0  0  0  0
   35.6830   28.5030   36.7560 H   0  0  0  0  0  0  0  0  0  0  0  0
   37.6010   29.4350   38.0430 H   0  0  0  0  0  0  0  0  0  0  0  0
   33.2830   29.2040   40.2290 H   0  0  0  0  0  0  0  0  0  0  0  0
   37.9000   28.2760   41.7920 C   0  0  0  0  0  0  0  0  0  0  0  0
   37.0870   28.0020   42.8800 C   0  0  0  0  0  0  0  0  0  0  0  0
   36.7770   26.6830   43.0380 C   0  0  0  0  0  0  0  0  0  0  0  0
   37.2050   25.6630   42.2190 C   0  0  0  0  0  0  0  0  0  0  0  0
   38.0160   26.0090   41.1500 C   0  0  0  0  0  0  0  0  0  0  0  0
   38.3100   27.3010   41.0080 N   0  0  0  0  0  0  0  0  0  0  0  0
   36.7450   28.7760   43.5250 H   0  0  0  0  0  0  0  0  0  0  0  0
   36.1230   26.3640   43.8910 H   0  0  0  0  0  0  0  0  0  0  0  0
   36.9400   24.6270   42.3730 H   0  0  0  0  0  0  0  0  0  0  0  0
   38.4850   24.9600   40.2670 C   0  0  0  0  0  0  0  0  0  0  0  0
   39.1730   25.3290   39.0280 C   0  0  0  0  0  0  0  0  0  0  0  0
   39.3810   26.4650   38.6850 H   0  0  0  0  0  0  0  0  0  0  0  0
   39.5880   23.6730   38.2240 S   0  0  0  0  0  0  0  0  0  0  0  0
   38.7620   22.8150   39.6980 C   0  0  0  0  0  0  0  0  0  0  0  0
   38.5720   21.6840   40.0080 H   0  0  0  0  0  0  0  0  0  0  0  0
   38.4080   23.6550   40.3660 N   0  0  0  0  0  0  0  0  0  0  0  0
  1  2  1  0  0  0  0
  2  3  2  0  0  0  0
  2  7  1  0  0  0  0
  3  4  1  0  0  0  0
  4 20  1  0  0  0  0
  4  5  2  0  0  0  0
  5  8  1  0  0  0  0
  6  5  1  0  0  0  0
  6  9  1  0  0  0  0
  7  6  2  0  0  0  0
 10  7  1  0  0  0  0
 11 16  2  0  0  0  0
 11 12  1  0  0  0  0
 12 13  2  0  0  0  0
 13 14  1  0  0  0  0
 13  3  1  0  0  0  0
 15 19  1  0  0  0  0
 15 14  2  0  0  0  0
 16 15  1  0  0  0  0
 17 11  1  0  0  0  0
 18 12  1  0  0  0  0
 20 21  1  0  0  0  0
 21 22  2  0  0  0  0
 21 26  1  0  0  0  0
 22 27  1  0  0  0  0
 23 28  1  0  0  0  0
 23 22  1  0  0  0  0
 24 23  2  0  0  0  0
 25 24  1  0  0  0  0
 25 20  2  0  0  0  0
 29 35  1  0  0  0  0
 29 24  1  0  0  0  0
 30 29  2  0  0  0  0
 31 30  1  0  0  0  0
 32 30  1  0  0  0  0
 32 33  1  0  0  0  0
 33 34  1  0  0  0  0
 33 35  2  0  0  0  0
M  END
>  <minimizedAffinity>
-5.37633181

$$$$
