
 OpenBabel03252502083D

 46 50  0  0  0  0  0  0  0  0999 V2000
   47.4230   32.0970   47.8800 C   0  0  0  0  0  0  0  0  0  0  0  0
   46.9200   30.7920   47.8780 C   0  0  0  0  0  0  0  0  0  0  0  0
   45.9760   30.4990   46.9400 C   0  0  0  0  0  0  0  0  0  0  0  0
   45.5760   31.4350   46.0750 N   0  0  0  0  0  0  0  0  0  0  0  0
   46.0360   32.6660   46.0560 C   0  0  0  0  0  0  0  0  0  0  0  0
   46.9720   32.9830   46.9810 N   0  0  0  0  0  0  0  0  0  0  0  0
   45.4210   29.2420   46.8940 N   0  0  0  0  0  0  0  0  0  0  0  0
   44.2600   28.8600   46.0480 C   0  0  0  0  0  0  0  0  0  0  0  0
   44.1910   27.3620   46.0870 C   0  0  0  0  0  0  0  0  0  0  0  0
   44.8210   27.0200   47.3850 C   0  0  0  0  0  0  0  0  0  0  0  0
   45.8290   28.0820   47.6380 C   0  0  0  0  0  0  0  0  0  0  0  0
   48.1790   32.3810   48.6140 H   0  0  0  0  0  0  0  0  0  0  0  0
   44.3730   29.2770   45.0270 H   0  0  0  0  0  0  0  0  0  0  0  0
   43.3590   29.2780   46.5620 H   0  0  0  0  0  0  0  0  0  0  0  0
   44.6360   26.8780   45.2110 H   0  0  0  0  0  0  0  0  0  0  0  0
   43.1200   27.0410   46.1410 H   0  0  0  0  0  0  0  0  0  0  0  0
   45.3870   26.0630   47.2460 H   0  0  0  0  0  0  0  0  0  0  0  0
   44.1110   26.8210   48.2030 H   0  0  0  0  0  0  0  0  0  0  0  0
   46.8360   27.8050   47.2980 H   0  0  0  0  0  0  0  0  0  0  0  0
   45.7730   28.2470   48.7390 H   0  0  0  0  0  0  0  0  0  0  0  0
   45.7560   33.8300   45.1700 C   0  0  0  0  0  0  0  0  0  0  0  0
   44.8260   34.7510   45.4310 N   0  0  0  0  0  0  0  0  0  0  0  0
   44.5530   35.8010   44.6690 C   0  0  0  0  0  0  0  0  0  0  0  0
   45.2480   35.9960   43.5230 N   0  0  0  0  0  0  0  0  0  0  0  0
   46.2120   35.1330   43.1490 C   0  0  0  0  0  0  0  0  0  0  0  0
   46.9120   35.3350   41.9850 C   0  0  0  0  0  0  0  0  0  0  0  0
   47.8860   34.4740   41.5910 C   0  0  0  0  0  0  0  0  0  0  0  0
   48.1600   33.3750   42.4010 C   0  0  0  0  0  0  0  0  0  0  0  0
   47.4140   33.2300   43.5700 C   0  0  0  0  0  0  0  0  0  0  0  0
   46.4420   34.0680   43.9850 C   0  0  0  0  0  0  0  0  0  0  0  0
   43.7900   36.5250   44.9200 H   0  0  0  0  0  0  0  0  0  0  0  0
   46.6430   36.2090   41.4070 H   0  0  0  0  0  0  0  0  0  0  0  0
   48.3990   34.6850   40.6690 H   0  0  0  0  0  0  0  0  0  0  0  0
   49.2200   32.4280   41.9820 C   0  0  0  0  0  0  0  0  0  0  0  0
   50.5550   32.7880   41.9860 C   0  0  0  0  0  0  0  0  0  0  0  0
   51.0250   33.7480   42.2710 H   0  0  0  0  0  0  0  0  0  0  0  0
   51.3720   31.2290   41.3810 S   0  0  0  0  0  0  0  0  0  0  0  0
   49.6930   30.3600   41.2350 C   0  0  0  0  0  0  0  0  0  0  0  0
   49.5000   29.3370   40.9030 H   0  0  0  0  0  0  0  0  0  0  0  0
   48.9510   31.1870   41.5830 N   0  0  0  0  0  0  0  0  0  0  0  0
   47.8210   32.0640   44.2870 N   0  0  0  0  0  0  0  0  0  0  0  0
   47.2250   31.3140   43.8340 H   0  0  0  0  0  0  0  0  0  0  0  0
   48.5020   31.8670   45.0490 H   0  0  0  0  0  0  0  0  0  0  0  0
   47.4400   29.9060   48.7850 N   0  0  0  0  0  0  0  0  0  0  0  0
   48.1770   29.1700   48.7200 H   0  0  0  0  0  0  0  0  0  0  0  0
   46.8900   30.1440   49.6640 H   0  0  0  0  0  0  0  0  0  0  0  0
  1 12  1  0  0  0  0
  2  1  1  0  0  0  0
  2 44  1  0  0  0  0
  3  2  2  0  0  0  0
  4  3  1  0  0  0  0
  5  4  2  0  0  0  0
  5  6  1  0  0  0  0
  6  1  2  0  0  0  0
  7  3  1  0  0  0  0
  7 11  1  0  0  0  0
  8  9  1  0  0  0  0
  8 14  1  0  0  0  0
  8  7  1  0  0  0  0
  9 16  1  0  0  0  0
  9 10  1  0  0  0  0
 10 11  1  0  0  0  0
 10 18  1  0  0  0  0
 11 20  1  0  0  0  0
 13  8  1  0  0  0  0
 15  9  1  0  0  0  0
 17 10  1  0  0  0  0
 19 11  1  0  0  0  0
 21 22  1  0  0  0  0
 21  5  1  0  0  0  0
 23 31  1  0  0  0  0
 23 22  2  0  0  0  0
 24 23  1  0  0  0  0
 25 24  2  0  0  0  0
 25 30  1  0  0  0  0
 26 25  1  0  0  0  0
 27 26  2  0  0  0  0
 27 28  1  0  0  0  0
 28 29  2  0  0  0  0
 29 30  1  0  0  0  0
 29 41  1  0  0  0  0
 30 21  2  0  0  0  0
 32 26  1  0  0  0  0
 33 27  1  0  0  0  0
 34 35  2  0  0  0  0
 34 28  1  0  0  0  0
 35 36  1  0  0  0  0
 37 35  1  0  0  0  0
 38 37  1  0  0  0  0
 38 40  2  0  0  0  0
 39 38  1  0  0  0  0
 40 34  1  0  0  0  0
 41 43  1  0  0  0  0
 42 41  1  0  0  0  0
 44 46  1  0  0  0  0
 45 44  1  0  0  0  0
M  END
>  <minimizedAffinity>
-6.80908203

>  <minimizedRMSD>
0.415840477

$$$$
