
 OpenBabel03252506273D

 43 47  0  0  0  0  0  0  0  0999 V2000
   35.1520   29.3050   38.6440 C   0  0  0  0  0  0  0  0  0  0  0  0
   34.8840   30.2890   39.1210 H   0  0  0  0  0  0  0  0  0  0  0  0
   34.1540   28.8680   38.3740 H   0  0  0  0  0  0  0  0  0  0  0  0
   36.3510   27.2470   39.6030 C   0  0  0  0  0  0  0  0  0  0  0  0
   35.8240   28.5180   39.6630 C   0  0  0  0  0  0  0  0  0  0  0  0
   35.9460   29.1560   40.8950 C   0  0  0  0  0  0  0  0  0  0  0  0
   36.5490   28.5710   41.9870 C   0  0  0  0  0  0  0  0  0  0  0  0
   36.8010   28.9310   43.2470 N   0  0  0  0  0  0  0  0  0  0  0  0
   37.4340   27.9690   43.9290 C   0  0  0  0  0  0  0  0  0  0  0  0
   37.6220   26.9020   43.0890 C   0  0  0  0  0  0  0  0  0  0  0  0
   37.0620   27.3080   41.8910 C   0  0  0  0  0  0  0  0  0  0  0  0
   36.9530   26.6520   40.6780 C   0  0  0  0  0  0  0  0  0  0  0  0
   36.2320   26.7940   38.6270 H   0  0  0  0  0  0  0  0  0  0  0  0
   35.5800   30.1550   41.0900 H   0  0  0  0  0  0  0  0  0  0  0  0
   36.5350   29.8630   43.6670 H   0  0  0  0  0  0  0  0  0  0  0  0
   37.7390   28.0410   44.9760 H   0  0  0  0  0  0  0  0  0  0  0  0
   38.1020   26.0050   43.3810 H   0  0  0  0  0  0  0  0  0  0  0  0
   37.4970   25.2780   40.5350 C   0  0  0  0  0  0  0  0  0  0  0  0
   36.6520   24.1350   40.7670 C   0  0  0  0  0  0  0  0  0  0  0  0
   35.6020   24.1170   41.0510 H   0  0  0  0  0  0  0  0  0  0  0  0
   37.8170   22.7250   40.4570 S   0  0  0  0  0  0  0  0  0  0  0  0
   39.2320   23.9310   40.0710 C   0  0  0  0  0  0  0  0  0  0  0  0
   40.2710   23.6910   39.7920 H   0  0  0  0  0  0  0  0  0  0  0  0
   38.7530   24.9930   40.1970 N   0  0  0  0  0  0  0  0  0  0  0  0
   35.9270   29.6400   37.4270 C   0  0  0  0  0  0  0  0  0  0  0  0
   35.3040   30.3060   36.8120 H   0  0  0  0  0  0  0  0  0  0  0  0
   36.0850   28.7340   36.8020 H   0  0  0  0  0  0  0  0  0  0  0  0
   38.5070   31.8270   38.5900 C   0  0  0  0  0  0  0  0  0  0  0  0
   39.2570   30.7590   38.0340 C   0  0  0  0  0  0  0  0  0  0  0  0
   38.3970   29.8260   37.5390 C   0  0  0  0  0  0  0  0  0  0  0  0
   37.1710   30.3030   37.7820 N   0  0  0  0  0  0  0  0  0  0  0  0
   37.2330   31.4860   38.4040 N   0  0  0  0  0  0  0  0  0  0  0  0
   40.3400   30.7260   38.0230 H   0  0  0  0  0  0  0  0  0  0  0  0
   38.6330   28.9050   37.0560 H   0  0  0  0  0  0  0  0  0  0  0  0
   38.8320   34.8870   40.5460 C   0  0  0  0  0  0  0  0  0  0  0  0
   40.1750   35.2220   40.4000 C   0  0  0  0  0  0  0  0  0  0  0  0
   40.9660   34.3870   39.6230 C   0  0  0  0  0  0  0  0  0  0  0  0
   40.3880   33.2970   39.0540 N   0  0  0  0  0  0  0  0  0  0  0  0
   39.1010   32.9900   39.2030 C   0  0  0  0  0  0  0  0  0  0  0  0
   38.3240   33.7970   39.9560 N   0  0  0  0  0  0  0  0  0  0  0  0
   38.1340   35.4770   41.1330 H   0  0  0  0  0  0  0  0  0  0  0  0
   40.5370   36.1170   40.8980 H   0  0  0  0  0  0  0  0  0  0  0  0
   42.0050   34.6290   39.5000 H   0  0  0  0  0  0  0  0  0  0  0  0
  1  2  1  0  0  0  0
  1  5  1  0  0  0  0
  3  1  1  0  0  0  0
  4  5  2  0  0  0  0
  4 12  1  0  0  0  0
  5  6  1  0  0  0  0
  6 14  1  0  0  0  0
  6  7  2  0  0  0  0
  7  8  1  0  0  0  0
  8 15  1  0  0  0  0
  8  9  1  0  0  0  0
  9 16  1  0  0  0  0
 10 17  1  0  0  0  0
 10  9  2  0  0  0  0
 11  7  1  0  0  0  0
 11 10  1  0  0  0  0
 12 11  2  0  0  0  0
 13  4  1  0  0  0  0
 18 12  1  0  0  0  0
 18 19  2  0  0  0  0
 19 20  1  0  0  0  0
 21 19  1  0  0  0  0
 22 24  2  0  0  0  0
 22 21  1  0  0  0  0
 23 22  1  0  0  0  0
 24 18  1  0  0  0  0
 25 31  1  0  0  0  0
 25  1  1  0  0  0  0
 26 25  1  0  0  0  0
 27 25  1  0  0  0  0
 28 39  1  0  0  0  0
 29 28  1  0  0  0  0
 30 31  1  0  0  0  0
 30 29  2  0  0  0  0
 31 32  1  0  0  0  0
 32 28  2  0  0  0  0
 33 29  1  0  0  0  0
 34 30  1  0  0  0  0
 35 41  1  0  0  0  0
 36 35  1  0  0  0  0
 36 42  1  0  0  0  0
 37 36  2  0  0  0  0
 38 39  2  0  0  0  0
 38 37  1  0  0  0  0
 39 40  1  0  0  0  0
 40 35  2  0  0  0  0
 43 37  1  0  0  0  0
M  END
>  <minimizedAffinity>
-6.55023861

$$$$

 OpenBabel03252506273D

 43 47  0  0  0  0  0  0  0  0999 V2000
   36.1490   30.0230   38.6500 C   0  0  0  0  0  0  0  0  0  0  0  0
   35.5830   30.8520   39.1580 H   0  0  0  0  0  0  0  0  0  0  0  0
   35.3960   29.5920   37.9390 H   0  0  0  0  0  0  0  0  0  0  0  0
   36.8710   27.7450   39.5920 C   0  0  0  0  0  0  0  0  0  0  0  0
   36.5130   29.0720   39.6870 C   0  0  0  0  0  0  0  0  0  0  0  0
   36.4880   29.5920   40.9780 C   0  0  0  0  0  0  0  0  0  0  0  0
   36.7970   28.8460   42.0940 C   0  0  0  0  0  0  0  0  0  0  0  0
   36.8560   29.0700   43.4090 N   0  0  0  0  0  0  0  0  0  0  0  0
   37.2210   27.9780   44.0900 C   0  0  0  0  0  0  0  0  0  0  0  0
   37.4190   26.9600   43.1930 C   0  0  0  0  0  0  0  0  0  0  0  0
   37.1480   27.5310   41.9630 C   0  0  0  0  0  0  0  0  0  0  0  0
   37.1800   26.9900   40.6900 C   0  0  0  0  0  0  0  0  0  0  0  0
   36.8750   27.3880   38.5700 H   0  0  0  0  0  0  0  0  0  0  0  0
   36.2260   30.6160   41.2060 H   0  0  0  0  0  0  0  0  0  0  0  0
   36.6420   29.9980   43.8660 H   0  0  0  0  0  0  0  0  0  0  0  0
   37.3340   27.9270   45.1760 H   0  0  0  0  0  0  0  0  0  0  0  0
   37.7150   25.9830   43.4740 H   0  0  0  0  0  0  0  0  0  0  0  0
   37.5560   25.5660   40.5080 C   0  0  0  0  0  0  0  0  0  0  0  0
   36.5410   24.5460   40.4720 C   0  0  0  0  0  0  0  0  0  0  0  0
   35.4620   24.6620   40.5630 H   0  0  0  0  0  0  0  0  0  0  0  0
   37.5480   23.0070   40.2310 S   0  0  0  0  0  0  0  0  0  0  0  0
   39.1560   24.0160   40.2230 C   0  0  0  0  0  0  0  0  0  0  0  0
   40.1880   23.6480   40.1080 H   0  0  0  0  0  0  0  0  0  0  0  0
   38.8060   25.1250   40.3690 N   0  0  0  0  0  0  0  0  0  0  0  0
   37.2560   30.6760   37.9140 C   0  0  0  0  0  0  0  0  0  0  0  0
   36.8490   31.0310   36.9550 H   0  0  0  0  0  0  0  0  0  0  0  0
   38.0360   29.9330   37.6400 H   0  0  0  0  0  0  0  0  0  0  0  0
   39.2470   33.0520   39.6980 C   0  0  0  0  0  0  0  0  0  0  0  0
   37.9520   33.6220   39.7990 C   0  0  0  0  0  0  0  0  0  0  0  0
   37.0640   32.8150   39.1540 C   0  0  0  0  0  0  0  0  0  0  0  0
   37.7850   31.7940   38.6780 N   0  0  0  0  0  0  0  0  0  0  0  0
   39.0780   31.9320   38.9990 N   0  0  0  0  0  0  0  0  0  0  0  0
   37.7410   34.5510   40.3140 H   0  0  0  0  0  0  0  0  0  0  0  0
   36.0120   32.9520   39.0410 H   0  0  0  0  0  0  0  0  0  0  0  0
   41.5610   35.5840   40.9370 C   0  0  0  0  0  0  0  0  0  0  0  0
   42.6570   34.8380   41.3600 C   0  0  0  0  0  0  0  0  0  0  0  0
   42.5940   33.4590   41.2150 C   0  0  0  0  0  0  0  0  0  0  0  0
   41.4720   32.9190   40.6720 N   0  0  0  0  0  0  0  0  0  0  0  0
   40.4300   33.6450   40.2710 C   0  0  0  0  0  0  0  0  0  0  0  0
   40.4830   34.9880   40.4080 N   0  0  0  0  0  0  0  0  0  0  0  0
   41.5160   36.6660   41.0080 H   0  0  0  0  0  0  0  0  0  0  0  0
   43.5060   35.3700   41.7800 H   0  0  0  0  0  0  0  0  0  0  0  0
   43.4310   32.8690   41.5370 H   0  0  0  0  0  0  0  0  0  0  0  0
  1  2  1  0  0  0  0
  1  5  1  0  0  0  0
  3  1  1  0  0  0  0
  4  5  2  0  0  0  0
  4 12  1  0  0  0  0
  5  6  1  0  0  0  0
  6 14  1  0  0  0  0
  6  7  2  0  0  0  0
  7  8  1  0  0  0  0
  8 15  1  0  0  0  0
  8  9  1  0  0  0  0
  9 16  1  0  0  0  0
 10 17  1  0  0  0  0
 10  9  2  0  0  0  0
 11  7  1  0  0  0  0
 11 10  1  0  0  0  0
 12 11  2  0  0  0  0
 13  4  1  0  0  0  0
 18 12  1  0  0  0  0
 19 18  2  0  0  0  0
 19 20  1  0  0  0  0
 21 19  1  0  0  0  0
 22 21  1  0  0  0  0
 22 24  2  0  0  0  0
 23 22  1  0  0  0  0
 24 18  1  0  0  0  0
 25  1  1  0  0  0  0
 25 31  1  0  0  0  0
 26 25  1  0  0  0  0
 27 25  1  0  0  0  0
 28 29  1  0  0  0  0
 28 39  1  0  0  0  0
 29 33  1  0  0  0  0
 30 29  2  0  0  0  0
 31 32  1  0  0  0  0
 31 30  1  0  0  0  0
 32 28  2  0  0  0  0
 34 30  1  0  0  0  0
 35 41  1  0  0  0  0
 35 36  1  0  0  0  0
 36 42  1  0  0  0  0
 37 36  2  0  0  0  0
 37 43  1  0  0  0  0
 38 37  1  0  0  0  0
 39 40  1  0  0  0  0
 39 38  2  0  0  0  0
 40 35  2  0  0  0  0
M  END
>  <minimizedAffinity>
-6.50717926

$$$$

 OpenBabel03252506273D

 43 47  0  0  0  0  0  0  0  0999 V2000
   38.1720   31.5920   39.4430 C   0  0  0  0  0  0  0  0  0  0  0  0
   37.6190   31.5820   38.4620 H   0  0  0  0  0  0  0  0  0  0  0  0
   39.2490   31.6550   39.1320 H   0  0  0  0  0  0  0  0  0  0  0  0
   37.7370   29.0640   39.5760 C   0  0  0  0  0  0  0  0  0  0  0  0
   37.8770   30.3310   40.1000 C   0  0  0  0  0  0  0  0  0  0  0  0
   37.7030   30.4270   41.4780 C   0  0  0  0  0  0  0  0  0  0  0  0
   37.4120   29.3430   42.2760 C   0  0  0  0  0  0  0  0  0  0  0  0
   37.2000   29.1430   43.5780 N   0  0  0  0  0  0  0  0  0  0  0  0
   36.9470   27.8590   43.8570 C   0  0  0  0  0  0  0  0  0  0  0  0
   36.9900   27.1500   42.6840 C   0  0  0  0  0  0  0  0  0  0  0  0
   37.2810   28.1000   41.7220 C   0  0  0  0  0  0  0  0  0  0  0  0
   37.4480   27.9770   40.3540 C   0  0  0  0  0  0  0  0  0  0  0  0
   37.8820   29.0410   38.5030 H   0  0  0  0  0  0  0  0  0  0  0  0
   37.7820   31.3560   42.0270 H   0  0  0  0  0  0  0  0  0  0  0  0
   37.2260   29.9040   44.3110 H   0  0  0  0  0  0  0  0  0  0  0  0
   36.7430   27.4630   44.8550 H   0  0  0  0  0  0  0  0  0  0  0  0
   36.8240   26.1070   42.6250 H   0  0  0  0  0  0  0  0  0  0  0  0
   37.3130   26.6440   39.7160 C   0  0  0  0  0  0  0  0  0  0  0  0
   38.4440   25.7550   39.6460 C   0  0  0  0  0  0  0  0  0  0  0  0
   39.4550   25.9170   40.0140 H   0  0  0  0  0  0  0  0  0  0  0  0
   37.7240   24.2830   38.7750 S   0  0  0  0  0  0  0  0  0  0  0  0
   36.0300   25.1320   38.6620 C   0  0  0  0  0  0  0  0  0  0  0  0
   35.1030   24.7400   38.2150 H   0  0  0  0  0  0  0  0  0  0  0  0
   36.1900   26.1740   39.1760 N   0  0  0  0  0  0  0  0  0  0  0  0
   37.7500   32.8310   40.1360 C   0  0  0  0  0  0  0  0  0  0  0  0
   37.3790   32.5420   41.1310 H   0  0  0  0  0  0  0  0  0  0  0  0
   36.8760   33.2880   39.6230 H   0  0  0  0  0  0  0  0  0  0  0  0
   40.9180   34.4280   40.5890 C   0  0  0  0  0  0  0  0  0  0  0  0
   40.0670   35.5340   40.3360 C   0  0  0  0  0  0  0  0  0  0  0  0
   38.7980   35.0790   40.1380 C   0  0  0  0  0  0  0  0  0  0  0  0
   38.8700   33.7480   40.2660 N   0  0  0  0  0  0  0  0  0  0  0  0
   40.1240   33.3610   40.5320 N   0  0  0  0  0  0  0  0  0  0  0  0
   40.4070   36.5620   40.3100 H   0  0  0  0  0  0  0  0  0  0  0  0
   37.9210   35.6460   39.9260 H   0  0  0  0  0  0  0  0  0  0  0  0
   44.0480   35.4140   42.1800 C   0  0  0  0  0  0  0  0  0  0  0  0
   45.0180   34.8140   41.3820 C   0  0  0  0  0  0  0  0  0  0  0  0
   44.5860   34.0690   40.2940 C   0  0  0  0  0  0  0  0  0  0  0  0
   43.2500   33.9680   40.0710 N   0  0  0  0  0  0  0  0  0  0  0  0
   42.3330   34.5480   40.8430 C   0  0  0  0  0  0  0  0  0  0  0  0
   42.7440   35.2750   41.9030 N   0  0  0  0  0  0  0  0  0  0  0  0
   44.2860   36.0160   43.0520 H   0  0  0  0  0  0  0  0  0  0  0  0
   46.0600   34.9580   41.6490 H   0  0  0  0  0  0  0  0  0  0  0  0
   45.3210   33.5980   39.6680 H   0  0  0  0  0  0  0  0  0  0  0  0
  1  5  1  0  0  0  0
  1 25  1  0  0  0  0
  2  1  1  0  0  0  0
  3  1  1  0  0  0  0
  4  5  2  0  0  0  0
  4 12  1  0  0  0  0
  5  6  1  0  0  0  0
  6 14  1  0  0  0  0
  6  7  2  0  0  0  0
  7  8  1  0  0  0  0
  8  9  1  0  0  0  0
  8 15  1  0  0  0  0
  9 16  1  0  0  0  0
 10  9  2  0  0  0  0
 11  7  1  0  0  0  0
 11 10  1  0  0  0  0
 12 11  2  0  0  0  0
 13  4  1  0  0  0  0
 17 10  1  0  0  0  0
 18 12  1  0  0  0  0
 19 18  2  0  0  0  0
 19 20  1  0  0  0  0
 21 19  1  0  0  0  0
 22 21  1  0  0  0  0
 22 24  2  0  0  0  0
 23 22  1  0  0  0  0
 24 18  1  0  0  0  0
 25 31  1  0  0  0  0
 25 26  1  0  0  0  0
 27 25  1  0  0  0  0
 28 39  1  0  0  0  0
 29 28  1  0  0  0  0
 30 31  1  0  0  0  0
 30 29  2  0  0  0  0
 31 32  1  0  0  0  0
 32 28  2  0  0  0  0
 33 29  1  0  0  0  0
 34 30  1  0  0  0  0
 35 41  1  0  0  0  0
 36 42  1  0  0  0  0
 36 35  2  0  0  0  0
 37 36  1  0  0  0  0
 38 37  2  0  0  0  0
 38 39  1  0  0  0  0
 39 40  2  0  0  0  0
 40 35  1  0  0  0  0
 43 37  1  0  0  0  0
M  END
>  <minimizedAffinity>
-6.45511389

$$$$

 OpenBabel03252506273D

 43 47  0  0  0  0  0  0  0  0999 V2000
   37.6620   33.7020   39.6640 C   0  0  0  0  0  0  0  0  0  0  0  0
   36.7970   34.2690   40.1080 H   0  0  0  0  0  0  0  0  0  0  0  0
   37.7760   34.1590   38.6450 H   0  0  0  0  0  0  0  0  0  0  0  0
   36.9730   31.5260   38.4860 C   0  0  0  0  0  0  0  0  0  0  0  0
   37.2500   32.3110   39.5840 C   0  0  0  0  0  0  0  0  0  0  0  0
   37.1100   31.6810   40.8180 C   0  0  0  0  0  0  0  0  0  0  0  0
   36.7240   30.3660   40.9500 C   0  0  0  0  0  0  0  0  0  0  0  0
   36.5150   29.5270   41.9670 N   0  0  0  0  0  0  0  0  0  0  0  0
   36.1370   28.3140   41.5500 C   0  0  0  0  0  0  0  0  0  0  0  0
   36.0870   28.3270   40.1800 C   0  0  0  0  0  0  0  0  0  0  0  0
   36.4570   29.6160   39.8380 C   0  0  0  0  0  0  0  0  0  0  0  0
   36.5880   30.2190   38.6000 C   0  0  0  0  0  0  0  0  0  0  0  0
   37.0960   32.0600   37.5520 H   0  0  0  0  0  0  0  0  0  0  0  0
   37.2940   32.1720   41.7640 H   0  0  0  0  0  0  0  0  0  0  0  0
   36.6310   29.7830   42.9850 H   0  0  0  0  0  0  0  0  0  0  0  0
   35.9100   27.4690   42.2060 H   0  0  0  0  0  0  0  0  0  0  0  0
   35.8140   27.4880   39.5960 H   0  0  0  0  0  0  0  0  0  0  0  0
   36.3060   29.4370   37.3700 C   0  0  0  0  0  0  0  0  0  0  0  0
   37.3860   28.8530   36.6180 C   0  0  0  0  0  0  0  0  0  0  0  0
   38.4550   28.8980   36.8230 H   0  0  0  0  0  0  0  0  0  0  0  0
   36.4830   28.0190   35.2290 S   0  0  0  0  0  0  0  0  0  0  0  0
   34.8130   28.6060   35.9130 C   0  0  0  0  0  0  0  0  0  0  0  0
   33.8080   28.4210   35.5020 H   0  0  0  0  0  0  0  0  0  0  0  0
   35.0890   29.2150   36.8770 N   0  0  0  0  0  0  0  0  0  0  0  0
   38.8340   34.0130   40.5150 C   0  0  0  0  0  0  0  0  0  0  0  0
   38.8840   33.2420   41.2990 H   0  0  0  0  0  0  0  0  0  0  0  0
   38.6790   34.9700   41.0590 H   0  0  0  0  0  0  0  0  0  0  0  0
   41.6670   33.2280   38.4790 C   0  0  0  0  0  0  0  0  0  0  0  0
   41.8550   34.6130   38.7200 C   0  0  0  0  0  0  0  0  0  0  0  0
   40.8340   35.0680   39.4980 C   0  0  0  0  0  0  0  0  0  0  0  0
   40.0530   34.0050   39.7250 N   0  0  0  0  0  0  0  0  0  0  0  0
   40.5450   32.9150   39.1230 N   0  0  0  0  0  0  0  0  0  0  0  0
   42.6880   35.1850   38.3290 H   0  0  0  0  0  0  0  0  0  0  0  0
   40.6730   36.0580   39.8600 H   0  0  0  0  0  0  0  0  0  0  0  0
   44.7600   31.9900   36.9950 C   0  0  0  0  0  0  0  0  0  0  0  0
   44.3350   30.9250   36.2060 C   0  0  0  0  0  0  0  0  0  0  0  0
   42.9770   30.6370   36.1900 C   0  0  0  0  0  0  0  0  0  0  0  0
   42.1460   31.4070   36.9400 N   0  0  0  0  0  0  0  0  0  0  0  0
   42.5670   32.4230   37.6900 C   0  0  0  0  0  0  0  0  0  0  0  0
   43.8860   32.7100   37.7120 N   0  0  0  0  0  0  0  0  0  0  0  0
   45.8000   32.2920   37.0740 H   0  0  0  0  0  0  0  0  0  0  0  0
   45.0830   30.3740   35.6450 H   0  0  0  0  0  0  0  0  0  0  0  0
   42.6310   29.8190   35.5870 H   0  0  0  0  0  0  0  0  0  0  0  0
  1  2  1  0  0  0  0
  1 25  1  0  0  0  0
  3  1  1  0  0  0  0
  4 12  2  0  0  0  0
  4  5  1  0  0  0  0
  5  1  1  0  0  0  0
  5  6  2  0  0  0  0
  6  7  1  0  0  0  0
  6 14  1  0  0  0  0
  7  8  1  0  0  0  0
  8 15  1  0  0  0  0
  9  8  1  0  0  0  0
  9 16  1  0  0  0  0
 10  9  2  0  0  0  0
 11 10  1  0  0  0  0
 11  7  2  0  0  0  0
 12 11  1  0  0  0  0
 13  4  1  0  0  0  0
 17 10  1  0  0  0  0
 18 12  1  0  0  0  0
 19 20  1  0  0  0  0
 19 18  2  0  0  0  0
 21 22  1  0  0  0  0
 21 19  1  0  0  0  0
 22 24  2  0  0  0  0
 23 22  1  0  0  0  0
 24 18  1  0  0  0  0
 25 27  1  0  0  0  0
 25 26  1  0  0  0  0
 28 29  1  0  0  0  0
 28 32  2  0  0  0  0
 29 30  2  0  0  0  0
 30 31  1  0  0  0  0
 30 34  1  0  0  0  0
 31 25  1  0  0  0  0
 32 31  1  0  0  0  0
 33 29  1  0  0  0  0
 35 41  1  0  0  0  0
 35 40  1  0  0  0  0
 36 35  2  0  0  0  0
 37 36  1  0  0  0  0
 37 38  2  0  0  0  0
 38 39  1  0  0  0  0
 39 40  2  0  0  0  0
 39 28  1  0  0  0  0
 42 36  1  0  0  0  0
 43 37  1  0  0  0  0
M  END
>  <minimizedAffinity>
-6.22480631

$$$$

 OpenBabel03252506273D

 43 47  0  0  0  0  0  0  0  0999 V2000
   37.3760   32.8060   39.0800 C   0  0  0  0  0  0  0  0  0  0  0  0
   36.4760   33.2090   38.5370 H   0  0  0  0  0  0  0  0  0  0  0  0
   38.1750   32.8050   38.2920 H   0  0  0  0  0  0  0  0  0  0  0  0
   36.5350   30.3980   38.7780 C   0  0  0  0  0  0  0  0  0  0  0  0
   37.0370   31.4570   39.5020 C   0  0  0  0  0  0  0  0  0  0  0  0
   37.2520   31.2070   40.8540 C   0  0  0  0  0  0  0  0  0  0  0  0
   36.9870   29.9900   41.4440 C   0  0  0  0  0  0  0  0  0  0  0  0
   37.0920   29.4800   42.6730 N   0  0  0  0  0  0  0  0  0  0  0  0
   36.6900   28.2050   42.7250 C   0  0  0  0  0  0  0  0  0  0  0  0
   36.2920   27.8300   41.4670 C   0  0  0  0  0  0  0  0  0  0  0  0
   36.4900   28.9610   40.6960 C   0  0  0  0  0  0  0  0  0  0  0  0
   36.2660   29.1840   39.3480 C   0  0  0  0  0  0  0  0  0  0  0  0
   36.3850   30.6420   37.7340 H   0  0  0  0  0  0  0  0  0  0  0  0
   37.6420   31.9430   41.5440 H   0  0  0  0  0  0  0  0  0  0  0  0
   37.4480   30.0130   43.5120 H   0  0  0  0  0  0  0  0  0  0  0  0
   36.6860   27.5860   43.6260 H   0  0  0  0  0  0  0  0  0  0  0  0
   35.9280   26.8640   41.2330 H   0  0  0  0  0  0  0  0  0  0  0  0
   35.7260   28.0900   38.5040 C   0  0  0  0  0  0  0  0  0  0  0  0
   34.3940   28.1800   37.9630 C   0  0  0  0  0  0  0  0  0  0  0  0
   33.6680   28.9820   38.0850 H   0  0  0  0  0  0  0  0  0  0  0  0
   34.2520   26.5890   37.0200 S   0  0  0  0  0  0  0  0  0  0  0  0
   36.0130   26.0900   37.5230 C   0  0  0  0  0  0  0  0  0  0  0  0
   36.5600   25.1710   37.2580 H   0  0  0  0  0  0  0  0  0  0  0  0
   36.3920   26.9810   38.1850 N   0  0  0  0  0  0  0  0  0  0  0  0
   37.6850   33.7890   40.1440 C   0  0  0  0  0  0  0  0  0  0  0  0
   37.6100   33.2650   41.1080 H   0  0  0  0  0  0  0  0  0  0  0  0
   36.9050   34.5800   40.1830 H   0  0  0  0  0  0  0  0  0  0  0  0
   41.1580   34.3660   39.5160 C   0  0  0  0  0  0  0  0  0  0  0  0
   40.7080   35.6610   39.8800 C   0  0  0  0  0  0  0  0  0  0  0  0
   39.3750   35.6040   40.1540 C   0  0  0  0  0  0  0  0  0  0  0  0
   39.0230   34.3260   39.9670 N   0  0  0  0  0  0  0  0  0  0  0  0
   40.0770   33.5920   39.5890 N   0  0  0  0  0  0  0  0  0  0  0  0
   41.3500   36.5320   39.9210 H   0  0  0  0  0  0  0  0  0  0  0  0
   38.7310   36.3980   40.4560 H   0  0  0  0  0  0  0  0  0  0  0  0
   44.0480   33.3730   37.5260 C   0  0  0  0  0  0  0  0  0  0  0  0
   45.1060   33.4710   38.4240 C   0  0  0  0  0  0  0  0  0  0  0  0
   44.8180   33.8810   39.7180 C   0  0  0  0  0  0  0  0  0  0  0  0
   43.5260   34.1610   40.0320 N   0  0  0  0  0  0  0  0  0  0  0  0
   42.5230   34.0630   39.1620 C   0  0  0  0  0  0  0  0  0  0  0  0
   42.7950   33.6640   37.9010 N   0  0  0  0  0  0  0  0  0  0  0  0
   44.1720   33.0620   36.4930 H   0  0  0  0  0  0  0  0  0  0  0  0
   46.1030   33.2230   38.0700 H   0  0  0  0  0  0  0  0  0  0  0  0
   45.6220   33.9630   40.4240 H   0  0  0  0  0  0  0  0  0  0  0  0
  1  5  1  0  0  0  0
  1 25  1  0  0  0  0
  2  1  1  0  0  0  0
  3  1  1  0  0  0  0
  4 12  2  0  0  0  0
  4  5  1  0  0  0  0
  5  6  2  0  0  0  0
  6  7  1  0  0  0  0
  6 14  1  0  0  0  0
  7  8  1  0  0  0  0
  8  9  1  0  0  0  0
  8 15  1  0  0  0  0
  9 16  1  0  0  0  0
 10  9  2  0  0  0  0
 11  7  2  0  0  0  0
 11 10  1  0  0  0  0
 12 11  1  0  0  0  0
 13  4  1  0  0  0  0
 17 10  1  0  0  0  0
 18 12  1  0  0  0  0
 19 20  1  0  0  0  0
 19 18  2  0  0  0  0
 21 22  1  0  0  0  0
 21 19  1  0  0  0  0
 22 24  2  0  0  0  0
 23 22  1  0  0  0  0
 24 18  1  0  0  0  0
 25 27  1  0  0  0  0
 25 26  1  0  0  0  0
 28 32  2  0  0  0  0
 28 29  1  0  0  0  0
 29 33  1  0  0  0  0
 29 30  2  0  0  0  0
 30 34  1  0  0  0  0
 31 25  1  0  0  0  0
 31 30  1  0  0  0  0
 32 31  1  0  0  0  0
 35 40  2  0  0  0  0
 35 36  1  0  0  0  0
 36 37  2  0  0  0  0
 37 38  1  0  0  0  0
 37 43  1  0  0  0  0
 39 28  1  0  0  0  0
 39 38  2  0  0  0  0
 40 39  1  0  0  0  0
 41 35  1  0  0  0  0
 42 36  1  0  0  0  0
M  END
>  <minimizedAffinity>
-6.22464991

$$$$

 OpenBabel03252506273D

 43 47  0  0  0  0  0  0  0  0999 V2000
   36.5740   31.1740   39.7370 C   0  0  0  0  0  0  0  0  0  0  0  0
   36.6780   30.2230   39.1450 H   0  0  0  0  0  0  0  0  0  0  0  0
   35.7330   31.7090   39.2220 H   0  0  0  0  0  0  0  0  0  0  0  0
   39.0430   31.4720   39.0940 C   0  0  0  0  0  0  0  0  0  0  0  0
   37.8300   31.8910   39.5970 C   0  0  0  0  0  0  0  0  0  0  0  0
   37.7960   33.2060   40.0530 C   0  0  0  0  0  0  0  0  0  0  0  0
   38.8890   34.0440   40.0090 C   0  0  0  0  0  0  0  0  0  0  0  0
   39.1400   35.3070   40.3600 N   0  0  0  0  0  0  0  0  0  0  0  0
   40.4040   35.6600   40.1020 C   0  0  0  0  0  0  0  0  0  0  0  0
   41.0450   34.5820   39.5460 C   0  0  0  0  0  0  0  0  0  0  0  0
   40.0760   33.5960   39.5020 C   0  0  0  0  0  0  0  0  0  0  0  0
   40.1370   32.2920   39.0440 C   0  0  0  0  0  0  0  0  0  0  0  0
   39.0180   30.4450   38.7530 H   0  0  0  0  0  0  0  0  0  0  0  0
   36.9150   33.6700   40.4730 H   0  0  0  0  0  0  0  0  0  0  0  0
   38.4300   35.9590   40.7930 H   0  0  0  0  0  0  0  0  0  0  0  0
   40.8340   36.6440   40.3070 H   0  0  0  0  0  0  0  0  0  0  0  0
   42.0600   34.5960   39.2470 H   0  0  0  0  0  0  0  0  0  0  0  0
   41.4090   31.7690   38.4870 C   0  0  0  0  0  0  0  0  0  0  0  0
   42.3870   31.1640   39.3540 C   0  0  0  0  0  0  0  0  0  0  0  0
   42.3370   31.0200   40.4320 H   0  0  0  0  0  0  0  0  0  0  0  0
   43.7310   30.7070   38.1610 S   0  0  0  0  0  0  0  0  0  0  0  0
   42.7330   31.4120   36.7080 C   0  0  0  0  0  0  0  0  0  0  0  0
   43.0140   31.4440   35.6440 H   0  0  0  0  0  0  0  0  0  0  0  0
   41.7450   31.8090   37.1980 N   0  0  0  0  0  0  0  0  0  0  0  0
   36.1790   30.7630   41.1040 C   0  0  0  0  0  0  0  0  0  0  0  0
   35.0790   30.7360   41.1340 H   0  0  0  0  0  0  0  0  0  0  0  0
   36.4700   31.5390   41.8450 H   0  0  0  0  0  0  0  0  0  0  0  0
   38.1100   27.9530   42.1840 C   0  0  0  0  0  0  0  0  0  0  0  0
   36.9810   27.3250   41.5970 C   0  0  0  0  0  0  0  0  0  0  0  0
   36.1350   28.2840   41.1300 C   0  0  0  0  0  0  0  0  0  0  0  0
   36.7210   29.4520   41.4180 N   0  0  0  0  0  0  0  0  0  0  0  0
   37.8900   29.2580   42.0410 N   0  0  0  0  0  0  0  0  0  0  0  0
   36.8480   26.2510   41.5490 H   0  0  0  0  0  0  0  0  0  0  0  0
   35.1990   28.1520   40.6360 H   0  0  0  0  0  0  0  0  0  0  0  0
   40.1800   25.1720   43.3130 C   0  0  0  0  0  0  0  0  0  0  0  0
   41.2750   25.8010   43.8970 C   0  0  0  0  0  0  0  0  0  0  0  0
   41.2950   27.1890   43.8990 C   0  0  0  0  0  0  0  0  0  0  0  0
   40.2500   27.8490   43.3340 N   0  0  0  0  0  0  0  0  0  0  0  0
   39.2090   27.2330   42.7790 C   0  0  0  0  0  0  0  0  0  0  0  0
   39.1810   25.8830   42.7730 N   0  0  0  0  0  0  0  0  0  0  0  0
   40.0730   24.0920   43.2620 H   0  0  0  0  0  0  0  0  0  0  0  0
   42.0570   25.1780   44.3210 H   0  0  0  0  0  0  0  0  0  0  0  0
   42.1320   27.6910   44.3450 H   0  0  0  0  0  0  0  0  0  0  0  0
  1 25  1  0  0  0  0
  2  1  1  0  0  0  0
  3  1  1  0  0  0  0
  4  5  1  0  0  0  0
  5  1  1  0  0  0  0
  5  6  2  0  0  0  0
  6 14  1  0  0  0  0
  7  6  1  0  0  0  0
  7  8  1  0  0  0  0
  8 15  1  0  0  0  0
  9 16  1  0  0  0  0
  9  8  1  0  0  0  0
 10  9  2  0  0  0  0
 11 10  1  0  0  0  0
 11  7  2  0  0  0  0
 12  4  2  0  0  0  0
 12 11  1  0  0  0  0
 13  4  1  0  0  0  0
 17 10  1  0  0  0  0
 18 12  1  0  0  0  0
 18 19  2  0  0  0  0
 19 20  1  0  0  0  0
 21 19  1  0  0  0  0
 22 24  2  0  0  0  0
 22 21  1  0  0  0  0
 23 22  1  0  0  0  0
 24 18  1  0  0  0  0
 25 26  1  0  0  0  0
 25 31  1  0  0  0  0
 25 27  1  0  0  0  0
 28 39  1  0  0  0  0
 29 28  1  0  0  0  0
 30 31  1  0  0  0  0
 30 29  2  0  0  0  0
 31 32  1  0  0  0  0
 32 28  2  0  0  0  0
 33 29  1  0  0  0  0
 34 30  1  0  0  0  0
 35 36  1  0  0  0  0
 36 37  2  0  0  0  0
 36 42  1  0  0  0  0
 37 43  1  0  0  0  0
 38 37  1  0  0  0  0
 39 38  2  0  0  0  0
 40 39  1  0  0  0  0
 40 35  2  0  0  0  0
 41 35  1  0  0  0  0
M  END
>  <minimizedAffinity>
-6.22450018

$$$$

 OpenBabel03252506273D

 43 47  0  0  0  0  0  0  0  0999 V2000
   37.5070   32.2670   40.4480 C   0  0  0  0  0  0  0  0  0  0  0  0
   37.5530   33.0290   41.2750 H   0  0  0  0  0  0  0  0  0  0  0  0
   36.4250   32.2700   40.1530 H   0  0  0  0  0  0  0  0  0  0  0  0
   39.1510   30.4440   41.2040 C   0  0  0  0  0  0  0  0  0  0  0  0
   37.9000   30.9960   41.0320 C   0  0  0  0  0  0  0  0  0  0  0  0
   36.8380   30.2160   41.4810 C   0  0  0  0  0  0  0  0  0  0  0  0
   37.0080   28.9770   42.0600 C   0  0  0  0  0  0  0  0  0  0  0  0
   36.2040   28.0400   42.5670 N   0  0  0  0  0  0  0  0  0  0  0  0
   36.8870   26.9830   43.0210 C   0  0  0  0  0  0  0  0  0  0  0  0
   38.2220   27.2140   42.8130 C   0  0  0  0  0  0  0  0  0  0  0  0
   38.2630   28.4600   42.2150 C   0  0  0  0  0  0  0  0  0  0  0  0
   39.3370   29.2150   41.7760 C   0  0  0  0  0  0  0  0  0  0  0  0
   39.9420   31.0860   40.8400 H   0  0  0  0  0  0  0  0  0  0  0  0
   35.8020   30.5200   41.4120 H   0  0  0  0  0  0  0  0  0  0  0  0
   35.1510   28.1150   42.6080 H   0  0  0  0  0  0  0  0  0  0  0  0
   36.4370   26.0960   43.4770 H   0  0  0  0  0  0  0  0  0  0  0  0
   38.9830   26.5300   43.0840 H   0  0  0  0  0  0  0  0  0  0  0  0
   40.7150   28.6870   41.9270 C   0  0  0  0  0  0  0  0  0  0  0  0
   41.4640   28.2720   40.7690 C   0  0  0  0  0  0  0  0  0  0  0  0
   41.1580   28.2860   39.7250 H   0  0  0  0  0  0  0  0  0  0  0  0
   43.0660   27.7180   41.5240 S   0  0  0  0  0  0  0  0  0  0  0  0
   42.4370   28.1450   43.2630 C   0  0  0  0  0  0  0  0  0  0  0  0
   42.9670   28.0350   44.2230 H   0  0  0  0  0  0  0  0  0  0  0  0
   41.3520   28.5550   43.0900 N   0  0  0  0  0  0  0  0  0  0  0  0
   38.3540   32.7990   39.3550 C   0  0  0  0  0  0  0  0  0  0  0  0
   37.6870   33.2990   38.6360 H   0  0  0  0  0  0  0  0  0  0  0  0
   38.8230   31.9680   38.7850 H   0  0  0  0  0  0  0  0  0  0  0  0
   41.2420   34.5120   40.5850 C   0  0  0  0  0  0  0  0  0  0  0  0
   40.2530   35.5280   40.6420 C   0  0  0  0  0  0  0  0  0  0  0  0
   39.0710   35.0190   40.1950 C   0  0  0  0  0  0  0  0  0  0  0  0
   39.3260   33.7440   39.8790 N   0  0  0  0  0  0  0  0  0  0  0  0
   40.6100   33.4420   40.1090 N   0  0  0  0  0  0  0  0  0  0  0  0
   40.4450   36.5360   40.9890 H   0  0  0  0  0  0  0  0  0  0  0  0
   38.1320   35.5160   40.1090 H   0  0  0  0  0  0  0  0  0  0  0  0
   44.1300   35.6610   42.4920 C   0  0  0  0  0  0  0  0  0  0  0  0
   45.2090   35.1150   41.8040 C   0  0  0  0  0  0  0  0  0  0  0  0
   44.9340   34.3490   40.6790 C   0  0  0  0  0  0  0  0  0  0  0  0
   43.6360   34.1780   40.3170 N   0  0  0  0  0  0  0  0  0  0  0  0
   42.6140   34.7070   40.9860 C   0  0  0  0  0  0  0  0  0  0  0  0
   42.8720   35.4530   42.0810 N   0  0  0  0  0  0  0  0  0  0  0  0
   44.2420   36.2730   43.3830 H   0  0  0  0  0  0  0  0  0  0  0  0
   46.2090   35.3130   42.1780 H   0  0  0  0  0  0  0  0  0  0  0  0
   45.7540   33.9200   40.1350 H   0  0  0  0  0  0  0  0  0  0  0  0
  1  5  1  0  0  0  0
  1  2  1  0  0  0  0
  3  1  1  0  0  0  0
  4 12  1  0  0  0  0
  5  4  2  0  0  0  0
  5  6  1  0  0  0  0
  6  7  2  0  0  0  0
  7 11  1  0  0  0  0
  7  8  1  0  0  0  0
  8 15  1  0  0  0  0
  8  9  1  0  0  0  0
  9 16  1  0  0  0  0
 10  9  2  0  0  0  0
 10 17  1  0  0  0  0
 11 10  1  0  0  0  0
 12 18  1  0  0  0  0
 12 11  2  0  0  0  0
 13  4  1  0  0  0  0
 14  6  1  0  0  0  0
 18 24  1  0  0  0  0
 19 21  1  0  0  0  0
 19 18  2  0  0  0  0
 20 19  1  0  0  0  0
 21 22  1  0  0  0  0
 22 23  1  0  0  0  0
 24 22  2  0  0  0  0
 25 31  1  0  0  0  0
 25  1  1  0  0  0  0
 26 25  1  0  0  0  0
 27 25  1  0  0  0  0
 28 29  1  0  0  0  0
 28 39  1  0  0  0  0
 29 33  1  0  0  0  0
 30 29  2  0  0  0  0
 31 32  1  0  0  0  0
 31 30  1  0  0  0  0
 32 28  2  0  0  0  0
 34 30  1  0  0  0  0
 35 41  1  0  0  0  0
 36 42  1  0  0  0  0
 36 35  2  0  0  0  0
 37 36  1  0  0  0  0
 38 37  2  0  0  0  0
 38 39  1  0  0  0  0
 39 40  2  0  0  0  0
 40 35  1  0  0  0  0
 43 37  1  0  0  0  0
M  END
>  <minimizedAffinity>
-6.18665075

$$$$

 OpenBabel03252506273D

 43 47  0  0  0  0  0  0  0  0999 V2000
   36.8900   28.0050   42.5220 C   0  0  0  0  0  0  0  0  0  0  0  0
   36.6940   27.5470   43.5310 H   0  0  0  0  0  0  0  0  0  0  0  0
   35.9890   28.6510   42.3500 H   0  0  0  0  0  0  0  0  0  0  0  0
   36.6060   26.8610   40.2400 C   0  0  0  0  0  0  0  0  0  0  0  0
   36.9530   26.9070   41.5720 C   0  0  0  0  0  0  0  0  0  0  0  0
   37.4350   25.7140   42.1030 C   0  0  0  0  0  0  0  0  0  0  0  0
   37.5640   24.5600   41.3620 C   0  0  0  0  0  0  0  0  0  0  0  0
   37.9830   23.3140   41.5960 N   0  0  0  0  0  0  0  0  0  0  0  0
   37.9080   22.5440   40.5050 C   0  0  0  0  0  0  0  0  0  0  0  0
   37.4130   23.3040   39.4770 C   0  0  0  0  0  0  0  0  0  0  0  0
   37.2110   24.5510   40.0420 C   0  0  0  0  0  0  0  0  0  0  0  0
   36.7270   25.7240   39.4900 C   0  0  0  0  0  0  0  0  0  0  0  0
   36.2370   27.8110   39.8740 H   0  0  0  0  0  0  0  0  0  0  0  0
   37.7460   25.6000   43.1330 H   0  0  0  0  0  0  0  0  0  0  0  0
   38.3340   22.9680   42.5310 H   0  0  0  0  0  0  0  0  0  0  0  0
   38.1960   21.4900   40.4620 H   0  0  0  0  0  0  0  0  0  0  0  0
   37.2550   22.9330   38.4990 H   0  0  0  0  0  0  0  0  0  0  0  0
   36.3320   25.7530   38.0600 C   0  0  0  0  0  0  0  0  0  0  0  0
   37.2740   26.1720   37.0550 C   0  0  0  0  0  0  0  0  0  0  0  0
   38.3050   26.4960   37.1880 H   0  0  0  0  0  0  0  0  0  0  0  0
   36.2750   26.0170   35.5000 S   0  0  0  0  0  0  0  0  0  0  0  0
   34.7680   25.4140   36.4840 C   0  0  0  0  0  0  0  0  0  0  0  0
   33.7750   25.1310   36.1000 H   0  0  0  0  0  0  0  0  0  0  0  0
   35.1300   25.4090   37.5990 N   0  0  0  0  0  0  0  0  0  0  0  0
   38.1090   28.8320   42.6800 C   0  0  0  0  0  0  0  0  0  0  0  0
   38.9610   28.2360   42.3170 H   0  0  0  0  0  0  0  0  0  0  0  0
   38.3210   29.0140   43.7560 H   0  0  0  0  0  0  0  0  0  0  0  0
   38.5660   31.9730   41.0320 C   0  0  0  0  0  0  0  0  0  0  0  0
   37.2350   31.6430   40.6690 C   0  0  0  0  0  0  0  0  0  0  0  0
   36.9080   30.4470   41.2320 C   0  0  0  0  0  0  0  0  0  0  0  0
   37.9930   30.0600   41.9120 N   0  0  0  0  0  0  0  0  0  0  0  0
   38.9760   30.9620   41.7950 N   0  0  0  0  0  0  0  0  0  0  0  0
   36.6100   32.2670   40.0410 H   0  0  0  0  0  0  0  0  0  0  0  0
   35.9870   29.9150   41.1570 H   0  0  0  0  0  0  0  0  0  0  0  0
   39.1160   35.4750   40.1760 C   0  0  0  0  0  0  0  0  0  0  0  0
   40.4580   35.5110   39.8110 C   0  0  0  0  0  0  0  0  0  0  0  0
   41.1720   34.3210   39.8630 C   0  0  0  0  0  0  0  0  0  0  0  0
   40.5230   33.1970   40.2630 N   0  0  0  0  0  0  0  0  0  0  0  0
   39.2370   33.1780   40.6090 C   0  0  0  0  0  0  0  0  0  0  0  0
   38.5350   34.3300   40.5620 N   0  0  0  0  0  0  0  0  0  0  0  0
   38.4750   36.3520   40.1680 H   0  0  0  0  0  0  0  0  0  0  0  0
   40.8800   36.4630   39.5060 H   0  0  0  0  0  0  0  0  0  0  0  0
   42.2090   34.3300   39.5860 H   0  0  0  0  0  0  0  0  0  0  0  0
  1 25  1  0  0  0  0
  1  2  1  0  0  0  0
  3  1  1  0  0  0  0
  4  5  1  0  0  0  0
  5  6  2  0  0  0  0
  5  1  1  0  0  0  0
  6 14  1  0  0  0  0
  7  8  1  0  0  0  0
  7  6  1  0  0  0  0
  8 15  1  0  0  0  0
  9  8  1  0  0  0  0
 10 11  1  0  0  0  0
 10  9  2  0  0  0  0
 11  7  2  0  0  0  0
 12 11  1  0  0  0  0
 12  4  2  0  0  0  0
 13  4  1  0  0  0  0
 16  9  1  0  0  0  0
 17 10  1  0  0  0  0
 18 12  1  0  0  0  0
 19 20  1  0  0  0  0
 19 18  2  0  0  0  0
 21 22  1  0  0  0  0
 21 19  1  0  0  0  0
 22 24  2  0  0  0  0
 23 22  1  0  0  0  0
 24 18  1  0  0  0  0
 25 27  1  0  0  0  0
 26 25  1  0  0  0  0
 28 32  2  0  0  0  0
 29 28  1  0  0  0  0
 29 30  2  0  0  0  0
 30 31  1  0  0  0  0
 31 25  1  0  0  0  0
 32 31  1  0  0  0  0
 33 29  1  0  0  0  0
 34 30  1  0  0  0  0
 35 40  1  0  0  0  0
 36 37  1  0  0  0  0
 36 35  2  0  0  0  0
 37 38  2  0  0  0  0
 38 39  1  0  0  0  0
 39 28  1  0  0  0  0
 40 39  2  0  0  0  0
 41 35  1  0  0  0  0
 42 36  1  0  0  0  0
 43 37  1  0  0  0  0
M  END
>  <minimizedAffinity>
-6.15823317

$$$$

 OpenBabel03252506273D

 43 47  0  0  0  0  0  0  0  0999 V2000
   37.4110   32.5840   38.9460 C   0  0  0  0  0  0  0  0  0  0  0  0
   36.4720   32.9200   38.4230 H   0  0  0  0  0  0  0  0  0  0  0  0
   38.2080   32.7370   38.1720 H   0  0  0  0  0  0  0  0  0  0  0  0
   37.6000   30.4610   40.3780 C   0  0  0  0  0  0  0  0  0  0  0  0
   37.2300   31.1780   39.2610 C   0  0  0  0  0  0  0  0  0  0  0  0
   36.5870   30.4440   38.2680 C   0  0  0  0  0  0  0  0  0  0  0  0
   36.3280   29.0950   38.3800 C   0  0  0  0  0  0  0  0  0  0  0  0
   35.7480   28.1670   37.6170 N   0  0  0  0  0  0  0  0  0  0  0  0
   35.7490   26.9630   38.2000 C   0  0  0  0  0  0  0  0  0  0  0  0
   36.3610   27.0790   39.4220 C   0  0  0  0  0  0  0  0  0  0  0  0
   36.7090   28.4160   39.5030 C   0  0  0  0  0  0  0  0  0  0  0  0
   37.3510   29.1220   40.5040 C   0  0  0  0  0  0  0  0  0  0  0  0
   38.0960   31.0740   41.1200 H   0  0  0  0  0  0  0  0  0  0  0  0
   36.2400   30.8730   37.3380 H   0  0  0  0  0  0  0  0  0  0  0  0
   35.3340   28.3510   36.6630 H   0  0  0  0  0  0  0  0  0  0  0  0
   35.3300   26.0540   37.7610 H   0  0  0  0  0  0  0  0  0  0  0  0
   36.4930   26.2690   40.0890 H   0  0  0  0  0  0  0  0  0  0  0  0
   37.7800   28.4180   41.7380 C   0  0  0  0  0  0  0  0  0  0  0  0
   39.0600   27.7600   41.7910 C   0  0  0  0  0  0  0  0  0  0  0  0
   39.8180   27.6930   41.0130 H   0  0  0  0  0  0  0  0  0  0  0  0
   39.0690   27.0710   43.5140 S   0  0  0  0  0  0  0  0  0  0  0  0
   37.3460   27.7940   43.8510 C   0  0  0  0  0  0  0  0  0  0  0  0
   36.7490   27.7230   44.7750 H   0  0  0  0  0  0  0  0  0  0  0  0
   37.0550   28.3350   42.8530 N   0  0  0  0  0  0  0  0  0  0  0  0
   37.5970   33.5140   40.0850 C   0  0  0  0  0  0  0  0  0  0  0  0
   37.5360   32.9190   41.0090 H   0  0  0  0  0  0  0  0  0  0  0  0
   36.7500   34.2310   40.1460 H   0  0  0  0  0  0  0  0  0  0  0  0
   41.0410   34.4050   39.7220 C   0  0  0  0  0  0  0  0  0  0  0  0
   40.4420   35.6610   39.9990 C   0  0  0  0  0  0  0  0  0  0  0  0
   39.1020   35.4830   40.1660 C   0  0  0  0  0  0  0  0  0  0  0  0
   38.8900   34.1720   39.9980 N   0  0  0  0  0  0  0  0  0  0  0  0
   40.0360   33.5330   39.7350 N   0  0  0  0  0  0  0  0  0  0  0  0
   40.9940   36.5910   40.0590 H   0  0  0  0  0  0  0  0  0  0  0  0
   38.3620   36.2200   40.3840 H   0  0  0  0  0  0  0  0  0  0  0  0
   44.1920   33.8800   37.9630 C   0  0  0  0  0  0  0  0  0  0  0  0
   45.1360   33.8790   38.9860 C   0  0  0  0  0  0  0  0  0  0  0  0
   44.6790   34.0610   40.2840 C   0  0  0  0  0  0  0  0  0  0  0  0
   43.3450   34.2280   40.4800 N   0  0  0  0  0  0  0  0  0  0  0  0
   42.4540   34.2260   39.4910 C   0  0  0  0  0  0  0  0  0  0  0  0
   42.8890   34.0500   38.2260 N   0  0  0  0  0  0  0  0  0  0  0  0
   44.4510   33.7460   36.9170 H   0  0  0  0  0  0  0  0  0  0  0  0
   46.1790   33.7370   38.7200 H   0  0  0  0  0  0  0  0  0  0  0  0
   45.3930   34.0640   41.0860 H   0  0  0  0  0  0  0  0  0  0  0  0
  1  5  1  0  0  0  0
  1 25  1  0  0  0  0
  2  1  1  0  0  0  0
  3  1  1  0  0  0  0
  4 12  1  0  0  0  0
  4 13  1  0  0  0  0
  5  4  2  0  0  0  0
  6  7  2  0  0  0  0
  6  5  1  0  0  0  0
  7 11  1  0  0  0  0
  8  9  1  0  0  0  0
  8  7  1  0  0  0  0
  9 10  2  0  0  0  0
 10 11  1  0  0  0  0
 10 17  1  0  0  0  0
 11 12  2  0  0  0  0
 12 18  1  0  0  0  0
 14  6  1  0  0  0  0
 15  8  1  0  0  0  0
 16  9  1  0  0  0  0
 18 19  2  0  0  0  0
 18 24  1  0  0  0  0
 19 21  1  0  0  0  0
 20 19  1  0  0  0  0
 21 22  1  0  0  0  0
 22 23  1  0  0  0  0
 24 22  2  0  0  0  0
 25 27  1  0  0  0  0
 25 26  1  0  0  0  0
 28 32  2  0  0  0  0
 28 29  1  0  0  0  0
 29 33  1  0  0  0  0
 29 30  2  0  0  0  0
 30 34  1  0  0  0  0
 31 25  1  0  0  0  0
 31 30  1  0  0  0  0
 32 31  1  0  0  0  0
 35 40  2  0  0  0  0
 35 36  1  0  0  0  0
 36 37  2  0  0  0  0
 37 38  1  0  0  0  0
 37 43  1  0  0  0  0
 39 28  1  0  0  0  0
 39 38  2  0  0  0  0
 40 39  1  0  0  0  0
 41 35  1  0  0  0  0
 42 36  1  0  0  0  0
M  END
>  <minimizedAffinity>
-6.11751842

$$$$
