
 OpenBabel03242512493D

 28 30  0  0  1  0  0  0  0  0999 V2000
   36.0440   29.0020   40.1950 N   0  0  0  0  0  0  0  0  0  0  0  0
   34.6350   29.1370   39.9250 C   0  0  0  0  0  0  0  0  0  0  0  0
   34.6390   28.6430   38.4870 C   0  0  0  0  0  0  0  0  0  0  0  0
   35.6910   29.6140   37.9340 C   0  0  0  0  0  0  0  0  0  0  0  0
   36.7260   29.5200   39.0130 C   0  0  1  0  0  0  0  0  0  0  0  0
   34.0270   28.4270   40.5150 H   0  0  0  0  0  0  0  0  0  0  0  0
   34.2270   30.1390   40.0050 H   0  0  0  0  0  0  0  0  0  0  0  0
   35.0480   27.6230   38.4700 H   0  0  0  0  0  0  0  0  0  0  0  0
   33.6770   28.7280   37.9850 H   0  0  0  0  0  0  0  0  0  0  0  0
   35.2790   30.6320   37.8960 H   0  0  0  0  0  0  0  0  0  0  0  0
   36.0670   29.2720   36.9490 H   0  0  0  0  0  0  0  0  0  0  0  0
   37.3980   28.6720   38.7020 H   0  0  0  0  0  0  0  0  0  0  0  0
   37.7430   26.7290   42.5990 C   0  0  0  0  0  0  0  0  0  0  0  0
   37.0380   27.1310   41.4670 C   0  0  0  0  0  0  0  0  0  0  0  0
   36.7430   28.5030   41.3050 C   0  0  0  0  0  0  0  0  0  0  0  0
   37.1630   29.3700   42.2680 N   0  0  0  0  0  0  0  0  0  0  0  0
   37.8470   28.9470   43.3590 C   0  0  0  0  0  0  0  0  0  0  0  0
   38.1330   27.6280   43.5180 N   0  0  0  0  0  0  0  0  0  0  0  0
   37.9910   25.7060   42.7690 H   0  0  0  0  0  0  0  0  0  0  0  0
   36.7150   26.4350   40.7210 H   0  0  0  0  0  0  0  0  0  0  0  0
   38.1210   29.7420   44.0460 H   0  0  0  0  0  0  0  0  0  0  0  0
   37.4720   30.7560   39.2790 C   0  0  0  0  0  0  0  0  0  0  0  0
   38.8850   30.7250   39.1430 C   0  0  0  0  0  0  0  0  0  0  0  0
   39.5360   29.9450   38.8730 H   0  0  0  0  0  0  0  0  0  0  0  0
   39.3410   32.4690   39.5720 S   0  0  0  0  0  0  0  0  0  0  0  0
   37.5160   32.9150   39.8590 C   0  0  0  0  0  0  0  0  0  0  0  0
   37.0600   33.8950   40.1650 H   0  0  0  0  0  0  0  0  0  0  0  0
   36.9850   31.9250   39.6400 N   0  0  0  0  0  0  0  0  0  0  0  0
  1 15  1  0  0  0  0
  2  7  1  0  0  0  0
  2  1  1  0  0  0  0
  2  6  1  0  0  0  0
  3  2  1  0  0  0  0
  4  3  1  0  0  0  0
  4  5  1  0  0  0  0
  5 12  1  6  0  0  0
  5 22  1  0  0  0  0
  5  1  1  0  0  0  0
  8  3  1  0  0  0  0
  9  3  1  0  0  0  0
 10  4  1  0  0  0  0
 11  4  1  0  0  0  0
 13 19  1  0  0  0  0
 13 18  1  0  0  0  0
 14 13  2  0  0  0  0
 15 14  1  0  0  0  0
 15 16  2  0  0  0  0
 16 17  1  0  0  0  0
 17 18  2  0  0  0  0
 17 21  1  0  0  0  0
 20 14  1  0  0  0  0
 22 28  1  0  0  0  0
 23 22  2  0  0  0  0
 23 25  1  0  0  0  0
 24 23  1  0  0  0  0
 25 26  1  0  0  0  0
 26 27  1  0  0  0  0
 28 26  2  0  0  0  0
M  END
>  <minimizedAffinity>
-4.40378237

$$$$

 OpenBabel03242512493D

 28 30  0  0  1  0  0  0  0  0999 V2000
   38.3880   30.6850   41.0990 N   0  0  0  0  0  0  0  0  0  0  0  0
   39.4160   31.5040   40.5070 C   0  0  0  0  0  0  0  0  0  0  0  0
   38.8280   32.8670   40.8360 C   0  0  0  0  0  0  0  0  0  0  0  0
   37.4490   32.6630   40.1920 C   0  0  0  0  0  0  0  0  0  0  0  0
   37.1210   31.2950   40.7070 C   0  0  1  0  0  0  0  0  0  0  0  0
   40.3770   31.4220   41.0450 H   0  0  0  0  0  0  0  0  0  0  0  0
   39.5690   31.3790   39.4400 H   0  0  0  0  0  0  0  0  0  0  0  0
   38.7070   32.9410   41.9260 H   0  0  0  0  0  0  0  0  0  0  0  0
   39.3770   33.7040   40.4060 H   0  0  0  0  0  0  0  0  0  0  0  0
   37.5450   32.6390   39.0980 H   0  0  0  0  0  0  0  0  0  0  0  0
   36.7320   33.4340   40.5380 H   0  0  0  0  0  0  0  0  0  0  0  0
   36.5960   31.4690   41.6890 H   0  0  0  0  0  0  0  0  0  0  0  0
   39.4310   27.4350   42.5760 C   0  0  0  0  0  0  0  0  0  0  0  0
   39.4460   28.5440   41.7330 C   0  0  0  0  0  0  0  0  0  0  0  0
   38.4500   29.5320   41.8960 C   0  0  0  0  0  0  0  0  0  0  0  0
   37.5190   29.3530   42.8750 N   0  0  0  0  0  0  0  0  0  0  0  0
   37.5330   28.2620   43.6790 C   0  0  0  0  0  0  0  0  0  0  0  0
   38.4890   27.3100   43.5250 N   0  0  0  0  0  0  0  0  0  0  0  0
   40.1600   26.6620   42.4940 H   0  0  0  0  0  0  0  0  0  0  0  0
   40.1850   28.6680   40.9680 H   0  0  0  0  0  0  0  0  0  0  0  0
   36.7350   28.2450   44.4160 H   0  0  0  0  0  0  0  0  0  0  0  0
   36.3370   30.4510   39.7980 C   0  0  0  0  0  0  0  0  0  0  0  0
   36.6960   30.4360   38.4240 C   0  0  0  0  0  0  0  0  0  0  0  0
   37.4560   30.9400   37.9040 H   0  0  0  0  0  0  0  0  0  0  0  0
   35.4470   29.2580   37.7250 S   0  0  0  0  0  0  0  0  0  0  0  0
   34.6680   29.0070   39.4390 C   0  0  0  0  0  0  0  0  0  0  0  0
   33.7970   28.3630   39.7400 H   0  0  0  0  0  0  0  0  0  0  0  0
   35.3120   29.6820   40.1020 N   0  0  0  0  0  0  0  0  0  0  0  0
  1 15  1  0  0  0  0
  2  3  1  0  0  0  0
  2  6  1  0  0  0  0
  2  1  1  0  0  0  0
  3  8  1  0  0  0  0
  4 11  1  0  0  0  0
  4  5  1  0  0  0  0
  4  3  1  0  0  0  0
  5  1  1  0  0  0  0
  5 12  1  1  0  0  0
  7  2  1  0  0  0  0
  9  3  1  0  0  0  0
 10  4  1  0  0  0  0
 13 18  1  0  0  0  0
 14 15  1  0  0  0  0
 14 13  2  0  0  0  0
 15 16  2  0  0  0  0
 16 17  1  0  0  0  0
 17 21  1  0  0  0  0
 18 17  2  0  0  0  0
 19 13  1  0  0  0  0
 20 14  1  0  0  0  0
 22 28  1  0  0  0  0
 22  5  1  0  0  0  0
 23 22  2  0  0  0  0
 24 23  1  0  0  0  0
 25 23  1  0  0  0  0
 25 26  1  0  0  0  0
 26 27  1  0  0  0  0
 26 28  2  0  0  0  0
M  END
>  <minimizedAffinity>
-4.34125471

$$$$

 OpenBabel03242512493D

 28 30  0  0  1  0  0  0  0  0999 V2000
   36.8550   30.2340   39.2050 N   0  0  0  0  0  0  0  0  0  0  0  0
   36.5910   29.4570   38.0200 C   0  0  0  0  0  0  0  0  0  0  0  0
   35.0750   29.4110   38.1220 C   0  0  0  0  0  0  0  0  0  0  0  0
   34.9750   28.8310   39.5390 C   0  0  0  0  0  0  0  0  0  0  0  0
   35.9870   29.6850   40.2420 C   0  0  1  0  0  0  0  0  0  0  0  0
   36.8420   30.0070   37.0950 H   0  0  0  0  0  0  0  0  0  0  0  0
   37.0230   28.4620   37.9970 H   0  0  0  0  0  0  0  0  0  0  0  0
   34.6940   30.4420   38.1280 H   0  0  0  0  0  0  0  0  0  0  0  0
   34.5980   28.7820   37.3720 H   0  0  0  0  0  0  0  0  0  0  0  0
   35.3040   27.7830   39.5400 H   0  0  0  0  0  0  0  0  0  0  0  0
   33.9520   28.9560   39.9480 H   0  0  0  0  0  0  0  0  0  0  0  0
   35.4110   30.5820   40.6070 H   0  0  0  0  0  0  0  0  0  0  0  0
   38.2150   33.5790   40.0960 C   0  0  0  0  0  0  0  0  0  0  0  0
   37.2750   32.5760   39.8750 C   0  0  0  0  0  0  0  0  0  0  0  0
   37.7260   31.3070   39.4480 C   0  0  0  0  0  0  0  0  0  0  0  0
   39.0660   31.1250   39.2740 N   0  0  0  0  0  0  0  0  0  0  0  0
   39.9550   32.1230   39.4980 C   0  0  0  0  0  0  0  0  0  0  0  0
   39.5240   33.3440   39.9090 N   0  0  0  0  0  0  0  0  0  0  0  0
   37.9260   34.5540   40.4190 H   0  0  0  0  0  0  0  0  0  0  0  0
   36.2260   32.7370   40.0160 H   0  0  0  0  0  0  0  0  0  0  0  0
   40.9890   31.8420   39.3210 H   0  0  0  0  0  0  0  0  0  0  0  0
   36.7310   29.0230   41.3190 C   0  0  0  0  0  0  0  0  0  0  0  0
   36.8370   27.6070   41.2860 C   0  0  0  0  0  0  0  0  0  0  0  0
   36.4660   26.9030   40.6000 H   0  0  0  0  0  0  0  0  0  0  0  0
   37.8370   27.2710   42.8100 S   0  0  0  0  0  0  0  0  0  0  0  0
   37.9210   29.1270   43.2090 C   0  0  0  0  0  0  0  0  0  0  0  0
   38.4210   29.6500   44.0690 H   0  0  0  0  0  0  0  0  0  0  0  0
   37.3310   29.5910   42.3450 N   0  0  0  0  0  0  0  0  0  0  0  0
  1 15  1  0  0  0  0
  1  5  1  0  0  0  0
  2  3  1  0  0  0  0
  2  1  1  0  0  0  0
  3  8  1  0  0  0  0
  3  4  1  0  0  0  0
  4 10  1  0  0  0  0
  4 11  1  0  0  0  0
  4  5  1  0  0  0  0
  5 12  1  1  0  0  0
  5 22  1  0  0  0  0
  6  2  1  0  0  0  0
  7  2  1  0  0  0  0
  9  3  1  0  0  0  0
 13 19  1  0  0  0  0
 14 20  1  0  0  0  0
 14 13  2  0  0  0  0
 15 14  1  0  0  0  0
 16 15  2  0  0  0  0
 16 17  1  0  0  0  0
 17 18  2  0  0  0  0
 18 13  1  0  0  0  0
 21 17  1  0  0  0  0
 22 28  1  0  0  0  0
 23 22  2  0  0  0  0
 23 25  1  0  0  0  0
 24 23  1  0  0  0  0
 25 26  1  0  0  0  0
 26 27  1  0  0  0  0
 28 26  2  0  0  0  0
M  END
>  <minimizedAffinity>
-4.28310347

$$$$

 OpenBabel03242512493D

 28 30  0  0  1  0  0  0  0  0999 V2000
   37.5710   28.9540   41.4150 N   0  0  0  0  0  0  0  0  0  0  0  0
   37.2010   27.5660   41.5330 C   0  0  0  0  0  0  0  0  0  0  0  0
   36.5150   27.6370   42.8890 C   0  0  0  0  0  0  0  0  0  0  0  0
   37.6740   28.2610   43.6790 C   0  0  0  0  0  0  0  0  0  0  0  0
   38.0890   29.3400   42.7240 C   0  0  1  0  0  0  0  0  0  0  0  0
   36.4350   27.2730   40.7930 H   0  0  0  0  0  0  0  0  0  0  0  0
   38.0180   26.8530   41.5330 H   0  0  0  0  0  0  0  0  0  0  0  0
   35.6910   28.3620   42.8270 H   0  0  0  0  0  0  0  0  0  0  0  0
   36.2070   26.6690   43.2830 H   0  0  0  0  0  0  0  0  0  0  0  0
   38.4860   27.5310   43.7960 H   0  0  0  0  0  0  0  0  0  0  0  0
   37.3210   28.6620   44.6500 H   0  0  0  0  0  0  0  0  0  0  0  0
   37.4630   30.2350   43.0030 H   0  0  0  0  0  0  0  0  0  0  0  0
   36.9230   31.9720   39.3410 C   0  0  0  0  0  0  0  0  0  0  0  0
   36.9410   31.1450   40.4610 C   0  0  0  0  0  0  0  0  0  0  0  0
   37.5030   29.8550   40.3410 C   0  0  0  0  0  0  0  0  0  0  0  0
   38.0030   29.4800   39.1300 N   0  0  0  0  0  0  0  0  0  0  0  0
   37.9710   30.3090   38.0590 C   0  0  0  0  0  0  0  0  0  0  0  0
   37.4310   31.5510   38.1700 N   0  0  0  0  0  0  0  0  0  0  0  0
   36.5100   32.9550   39.3780 H   0  0  0  0  0  0  0  0  0  0  0  0
   36.5420   31.4560   41.4050 H   0  0  0  0  0  0  0  0  0  0  0  0
   38.4030   29.8850   37.1570 H   0  0  0  0  0  0  0  0  0  0  0  0
   39.5240   29.6460   42.7040 C   0  0  0  0  0  0  0  0  0  0  0  0
   39.9170   31.0100   42.7370 C   0  0  0  0  0  0  0  0  0  0  0  0
   39.3470   31.8910   42.7750 H   0  0  0  0  0  0  0  0  0  0  0  0
   41.7640   30.8680   42.6950 S   0  0  0  0  0  0  0  0  0  0  0  0
   41.6550   28.9720   42.6400 C   0  0  0  0  0  0  0  0  0  0  0  0
   42.4800   28.2100   42.6000 H   0  0  0  0  0  0  0  0  0  0  0  0
   40.5240   28.7910   42.6580 N   0  0  0  0  0  0  0  0  0  0  0  0
  1  2  1  0  0  0  0
  1  5  1  0  0  0  0
  2  7  1  0  0  0  0
  2  3  1  0  0  0  0
  3  9  1  0  0  0  0
  3  4  1  0  0  0  0
  4 10  1  0  0  0  0
  4 11  1  0  0  0  0
  5 12  1  1  0  0  0
  5  4  1  0  0  0  0
  6  2  1  0  0  0  0
  8  3  1  0  0  0  0
 13 19  1  0  0  0  0
 13 14  1  0  0  0  0
 14 20  1  0  0  0  0
 15 14  2  0  0  0  0
 15  1  1  0  0  0  0
 16 15  1  0  0  0  0
 17 18  1  0  0  0  0
 17 16  2  0  0  0  0
 18 13  2  0  0  0  0
 21 17  1  0  0  0  0
 22  5  1  0  0  0  0
 22 23  2  0  0  0  0
 23 24  1  0  0  0  0
 25 23  1  0  0  0  0
 26 28  2  0  0  0  0
 26 25  1  0  0  0  0
 27 26  1  0  0  0  0
 28 22  1  0  0  0  0
M  END
>  <minimizedAffinity>
-4.25074387

$$$$

 OpenBabel03242512493D

 28 30  0  0  1  0  0  0  0  0999 V2000
   36.7330   28.1080   41.4910 N   0  0  0  0  0  0  0  0  0  0  0  0
   37.1410   27.0060   42.3250 C   0  0  0  0  0  0  0  0  0  0  0  0
   36.8490   27.6360   43.6780 C   0  0  0  0  0  0  0  0  0  0  0  0
   37.6920   28.9080   43.5050 C   0  0  0  0  0  0  0  0  0  0  0  0
   37.2790   29.3060   42.1200 C   0  0  1  0  0  0  0  0  0  0  0  0
   36.4740   26.1320   42.2190 H   0  0  0  0  0  0  0  0  0  0  0  0
   38.1790   26.7010   42.2390 H   0  0  0  0  0  0  0  0  0  0  0  0
   35.7860   27.9110   43.7130 H   0  0  0  0  0  0  0  0  0  0  0  0
   37.1650   27.0310   44.5270 H   0  0  0  0  0  0  0  0  0  0  0  0
   38.7610   28.6550   43.5200 H   0  0  0  0  0  0  0  0  0  0  0  0
   37.4240   29.6670   44.2660 H   0  0  0  0  0  0  0  0  0  0  0  0
   36.3770   29.9660   42.2610 H   0  0  0  0  0  0  0  0  0  0  0  0
   34.2440   29.0720   38.9000 C   0  0  0  0  0  0  0  0  0  0  0  0
   34.9350   29.0920   40.1100 C   0  0  0  0  0  0  0  0  0  0  0  0
   35.9780   28.1600   40.3090 C   0  0  0  0  0  0  0  0  0  0  0  0
   36.2600   27.2840   39.3040 N   0  0  0  0  0  0  0  0  0  0  0  0
   35.5690   27.2910   38.1380 C   0  0  0  0  0  0  0  0  0  0  0  0
   34.5650   28.1860   37.9430 N   0  0  0  0  0  0  0  0  0  0  0  0
   33.4490   29.7540   38.7000 H   0  0  0  0  0  0  0  0  0  0  0  0
   34.6990   29.7870   40.8890 H   0  0  0  0  0  0  0  0  0  0  0  0
   35.8960   26.5410   37.4240 H   0  0  0  0  0  0  0  0  0  0  0  0
   38.3220   29.9510   41.3140 C   0  0  0  0  0  0  0  0  0  0  0  0
   38.0840   31.2710   40.8460 C   0  0  0  0  0  0  0  0  0  0  0  0
   37.2600   31.9100   40.9730 H   0  0  0  0  0  0  0  0  0  0  0  0
   39.6450   31.6230   39.9110 S   0  0  0  0  0  0  0  0  0  0  0  0
   40.3310   29.9020   40.3340 C   0  0  0  0  0  0  0  0  0  0  0  0
   41.3140   29.4360   40.0510 H   0  0  0  0  0  0  0  0  0  0  0  0
   39.4850   29.4480   40.9570 N   0  0  0  0  0  0  0  0  0  0  0  0
  1  5  1  0  0  0  0
  1  2  1  0  0  0  0
  2  3  1  0  0  0  0
  3  8  1  0  0  0  0
  3  9  1  0  0  0  0
  4 10  1  0  0  0  0
  4  3  1  0  0  0  0
  4 11  1  0  0  0  0
  5 12  1  1  0  0  0
  5  4  1  0  0  0  0
  6  2  1  0  0  0  0
  7  2  1  0  0  0  0
 13 14  1  0  0  0  0
 14 15  2  0  0  0  0
 14 20  1  0  0  0  0
 15  1  1  0  0  0  0
 16 15  1  0  0  0  0
 17 16  2  0  0  0  0
 18 17  1  0  0  0  0
 18 13  2  0  0  0  0
 19 13  1  0  0  0  0
 21 17  1  0  0  0  0
 22  5  1  0  0  0  0
 23 24  1  0  0  0  0
 23 22  2  0  0  0  0
 25 26  1  0  0  0  0
 25 23  1  0  0  0  0
 26 28  2  0  0  0  0
 27 26  1  0  0  0  0
 28 22  1  0  0  0  0
M  END
>  <minimizedAffinity>
-4.17798328

$$$$

 OpenBabel03242512493D

 28 30  0  0  1  0  0  0  0  0999 V2000
   36.3610   28.9490   40.3800 N   0  0  0  0  0  0  0  0  0  0  0  0
   34.9500   29.1500   40.1620 C   0  0  0  0  0  0  0  0  0  0  0  0
   34.9130   28.8470   38.6730 C   0  0  0  0  0  0  0  0  0  0  0  0
   35.9780   29.8590   38.2250 C   0  0  0  0  0  0  0  0  0  0  0  0
   37.0320   29.6010   39.2590 C   0  0  1  0  0  0  0  0  0  0  0  0
   34.3360   28.3840   40.6690 H   0  0  0  0  0  0  0  0  0  0  0  0
   34.5710   30.1420   40.3810 H   0  0  0  0  0  0  0  0  0  0  0  0
   35.2950   27.8290   38.5130 H   0  0  0  0  0  0  0  0  0  0  0  0
   33.9430   29.0200   38.2080 H   0  0  0  0  0  0  0  0  0  0  0  0
   35.5920   30.8820   38.3290 H   0  0  0  0  0  0  0  0  0  0  0  0
   36.3250   29.6390   37.1960 H   0  0  0  0  0  0  0  0  0  0  0  0
   37.6760   28.7850   38.8250 H   0  0  0  0  0  0  0  0  0  0  0  0
   37.9350   28.1090   43.6420 C   0  0  0  0  0  0  0  0  0  0  0  0
   37.2200   28.8360   42.6940 C   0  0  0  0  0  0  0  0  0  0  0  0
   37.0690   28.2940   41.3980 C   0  0  0  0  0  0  0  0  0  0  0  0
   37.6330   27.0810   41.1370 N   0  0  0  0  0  0  0  0  0  0  0  0
   38.3240   26.3980   42.0830 C   0  0  0  0  0  0  0  0  0  0  0  0
   38.4700   26.9170   43.3310 N   0  0  0  0  0  0  0  0  0  0  0  0
   38.0780   28.4730   44.6340 H   0  0  0  0  0  0  0  0  0  0  0  0
   36.7840   29.7870   42.9160 H   0  0  0  0  0  0  0  0  0  0  0  0
   38.7200   25.4460   41.7420 H   0  0  0  0  0  0  0  0  0  0  0  0
   37.8150   30.7740   39.6650 C   0  0  0  0  0  0  0  0  0  0  0  0
   37.1280   32.0010   39.8610 C   0  0  0  0  0  0  0  0  0  0  0  0
   36.1110   32.2450   39.7660 H   0  0  0  0  0  0  0  0  0  0  0  0
   38.5140   33.1310   40.3490 S   0  0  0  0  0  0  0  0  0  0  0  0
   39.7720   31.7170   40.1940 C   0  0  0  0  0  0  0  0  0  0  0  0
   40.8830   31.7270   40.3660 H   0  0  0  0  0  0  0  0  0  0  0  0
   39.1130   30.8360   39.8780 N   0  0  0  0  0  0  0  0  0  0  0  0
  1 15  1  0  0  0  0
  2  1  1  0  0  0  0
  2  7  1  0  0  0  0
  2  6  1  0  0  0  0
  3  2  1  0  0  0  0
  4 10  1  0  0  0  0
  4  3  1  0  0  0  0
  4  5  1  0  0  0  0
  5 12  1  6  0  0  0
  5 22  1  0  0  0  0
  5  1  1  0  0  0  0
  8  3  1  0  0  0  0
  9  3  1  0  0  0  0
 11  4  1  0  0  0  0
 13 19  1  0  0  0  0
 14 20  1  0  0  0  0
 14 13  2  0  0  0  0
 15 14  1  0  0  0  0
 16 15  2  0  0  0  0
 16 17  1  0  0  0  0
 17 18  2  0  0  0  0
 18 13  1  0  0  0  0
 21 17  1  0  0  0  0
 22 23  2  0  0  0  0
 22 28  1  0  0  0  0
 23 25  1  0  0  0  0
 24 23  1  0  0  0  0
 26 25  1  0  0  0  0
 26 27  1  0  0  0  0
 28 26  2  0  0  0  0
M  END
>  <minimizedAffinity>
-4.17180634

$$$$

 OpenBabel03242512493D

 28 30  0  0  1  0  0  0  0  0999 V2000
   36.8290   28.0820   41.5360 N   0  0  0  0  0  0  0  0  0  0  0  0
   37.2900   26.9410   42.2870 C   0  0  0  0  0  0  0  0  0  0  0  0
   36.9320   27.4360   43.6790 C   0  0  0  0  0  0  0  0  0  0  0  0
   37.6950   28.7680   43.6320 C   0  0  0  0  0  0  0  0  0  0  0  0
   37.2860   29.2540   42.2750 C   0  0  1  0  0  0  0  0  0  0  0  0
   36.6820   26.0390   42.0920 H   0  0  0  0  0  0  0  0  0  0  0  0
   38.3460   26.7090   42.2010 H   0  0  0  0  0  0  0  0  0  0  0  0
   35.8530   27.6420   43.7100 H   0  0  0  0  0  0  0  0  0  0  0  0
   37.2680   26.7830   44.4830 H   0  0  0  0  0  0  0  0  0  0  0  0
   38.7780   28.5820   43.6530 H   0  0  0  0  0  0  0  0  0  0  0  0
   37.3650   29.4430   44.4460 H   0  0  0  0  0  0  0  0  0  0  0  0
   36.3410   29.8430   42.4470 H   0  0  0  0  0  0  0  0  0  0  0  0
   35.6590   27.6520   38.0310 C   0  0  0  0  0  0  0  0  0  0  0  0
   36.4510   27.4910   39.1660 C   0  0  0  0  0  0  0  0  0  0  0  0
   36.0960   28.1860   40.3440 C   0  0  0  0  0  0  0  0  0  0  0  0
   34.9910   28.9830   40.3140 N   0  0  0  0  0  0  0  0  0  0  0  0
   34.2410   29.1170   39.1930 C   0  0  0  0  0  0  0  0  0  0  0  0
   34.5790   28.4510   38.0580 N   0  0  0  0  0  0  0  0  0  0  0  0
   35.8840   27.1510   37.1180 H   0  0  0  0  0  0  0  0  0  0  0  0
   37.3170   26.8620   39.1710 H   0  0  0  0  0  0  0  0  0  0  0  0
   33.3890   29.7820   39.3070 H   0  0  0  0  0  0  0  0  0  0  0  0
   38.3010   30.0280   41.5500 C   0  0  0  0  0  0  0  0  0  0  0  0
   39.6670   29.7110   41.7740 C   0  0  0  0  0  0  0  0  0  0  0  0
   40.1170   28.9900   42.3920 H   0  0  0  0  0  0  0  0  0  0  0  0
   40.5190   30.9270   40.6640 S   0  0  0  0  0  0  0  0  0  0  0  0
   38.8500   31.6410   40.1030 C   0  0  0  0  0  0  0  0  0  0  0  0
   38.6370   32.4720   39.3770 H   0  0  0  0  0  0  0  0  0  0  0  0
   38.1010   31.0070   40.6930 N   0  0  0  0  0  0  0  0  0  0  0  0
  1  5  1  0  0  0  0
  1  2  1  0  0  0  0
  2  3  1  0  0  0  0
  3  8  1  0  0  0  0
  3  9  1  0  0  0  0
  4 10  1  0  0  0  0
  4  3  1  0  0  0  0
  4 11  1  0  0  0  0
  5 12  1  1  0  0  0
  5  4  1  0  0  0  0
  6  2  1  0  0  0  0
  7  2  1  0  0  0  0
 13 18  2  0  0  0  0
 13 14  1  0  0  0  0
 14 20  1  0  0  0  0
 14 15  2  0  0  0  0
 15  1  1  0  0  0  0
 16 15  1  0  0  0  0
 17 21  1  0  0  0  0
 17 16  2  0  0  0  0
 18 17  1  0  0  0  0
 19 13  1  0  0  0  0
 22 23  2  0  0  0  0
 22  5  1  0  0  0  0
 23 24  1  0  0  0  0
 25 23  1  0  0  0  0
 26 25  1  0  0  0  0
 26 28  2  0  0  0  0
 27 26  1  0  0  0  0
 28 22  1  0  0  0  0
M  END
>  <minimizedAffinity>
-4.07794809

$$$$

 OpenBabel03242512493D

 28 30  0  0  1  0  0  0  0  0999 V2000
   38.2920   26.2700   41.5790 N   0  0  0  0  0  0  0  0  0  0  0  0
   39.6970   26.3810   41.8810 C   0  0  0  0  0  0  0  0  0  0  0  0
   39.5990   26.3420   43.3970 C   0  0  0  0  0  0  0  0  0  0  0  0
   38.6140   27.5060   43.5750 C   0  0  0  0  0  0  0  0  0  0  0  0
   37.6150   27.1650   42.5110 C   0  0  1  0  0  0  0  0  0  0  0  0
   40.2640   25.4860   41.5650 H   0  0  0  0  0  0  0  0  0  0  0  0
   40.1910   27.2820   41.5320 H   0  0  0  0  0  0  0  0  0  0  0  0
   39.1050   25.4060   43.6920 H   0  0  0  0  0  0  0  0  0  0  0  0
   40.5460   26.5070   43.9090 H   0  0  0  0  0  0  0  0  0  0  0  0
   39.1080   28.4570   43.3340 H   0  0  0  0  0  0  0  0  0  0  0  0
   38.1740   27.5010   44.5920 H   0  0  0  0  0  0  0  0  0  0  0  0
   36.8610   26.4980   43.0190 H   0  0  0  0  0  0  0  0  0  0  0  0
   37.0310   24.8840   38.3660 C   0  0  0  0  0  0  0  0  0  0  0  0
   37.7640   25.6890   39.2360 C   0  0  0  0  0  0  0  0  0  0  0  0
   37.5950   25.5110   40.6270 C   0  0  0  0  0  0  0  0  0  0  0  0
   36.7200   24.5570   41.0530 N   0  0  0  0  0  0  0  0  0  0  0  0
   36.0220   23.7890   40.1800 C   0  0  0  0  0  0  0  0  0  0  0  0
   36.1820   23.9570   38.8410 N   0  0  0  0  0  0  0  0  0  0  0  0
   37.1220   24.9780   37.3080 H   0  0  0  0  0  0  0  0  0  0  0  0
   38.4460   26.4340   38.8830 H   0  0  0  0  0  0  0  0  0  0  0  0
   35.3620   23.0690   40.6540 H   0  0  0  0  0  0  0  0  0  0  0  0
   36.9850   28.3130   41.8470 C   0  0  0  0  0  0  0  0  0  0  0  0
   37.6360   29.5730   41.9310 C   0  0  0  0  0  0  0  0  0  0  0  0
   38.5300   29.8570   42.4020 H   0  0  0  0  0  0  0  0  0  0  0  0
   36.4820   30.6540   40.9650 S   0  0  0  0  0  0  0  0  0  0  0  0
   35.3260   29.1840   40.6280 C   0  0  0  0  0  0  0  0  0  0  0  0
   34.3610   29.1520   40.0530 H   0  0  0  0  0  0  0  0  0  0  0  0
   35.8600   28.3250   41.1640 N   0  0  0  0  0  0  0  0  0  0  0  0
  1  2  1  0  0  0  0
  1  5  1  0  0  0  0
  2  3  1  0  0  0  0
  3  4  1  0  0  0  0
  3  8  1  0  0  0  0
  3  9  1  0  0  0  0
  4 11  1  0  0  0  0
  5 12  1  1  0  0  0
  5  4  1  0  0  0  0
  6  2  1  0  0  0  0
  7  2  1  0  0  0  0
 10  4  1  0  0  0  0
 13 18  2  0  0  0  0
 13 14  1  0  0  0  0
 14 15  2  0  0  0  0
 15 16  1  0  0  0  0
 15  1  1  0  0  0  0
 17 21  1  0  0  0  0
 17 16  2  0  0  0  0
 18 17  1  0  0  0  0
 19 13  1  0  0  0  0
 20 14  1  0  0  0  0
 22 23  2  0  0  0  0
 22  5  1  0  0  0  0
 23 24  1  0  0  0  0
 25 23  1  0  0  0  0
 26 25  1  0  0  0  0
 26 28  2  0  0  0  0
 27 26  1  0  0  0  0
 28 22  1  0  0  0  0
M  END
>  <minimizedAffinity>
-4.06325674

$$$$

 OpenBabel03242512493D

 28 30  0  0  1  0  0  0  0  0999 V2000
   37.1800   28.1100   41.3460 N   0  0  0  0  0  0  0  0  0  0  0  0
   37.3990   26.8640   42.0360 C   0  0  0  0  0  0  0  0  0  0  0  0
   36.6310   27.1810   43.3090 C   0  0  0  0  0  0  0  0  0  0  0  0
   37.3620   28.4780   43.6800 C   0  0  0  0  0  0  0  0  0  0  0  0
   37.3810   29.1570   42.3440 C   0  0  1  0  0  0  0  0  0  0  0  0
   36.8850   26.0180   41.5440 H   0  0  0  0  0  0  0  0  0  0  0  0
   38.4330   26.6090   42.2420 H   0  0  0  0  0  0  0  0  0  0  0  0
   35.5920   27.4180   43.0410 H   0  0  0  0  0  0  0  0  0  0  0  0
   36.7110   26.4140   44.0790 H   0  0  0  0  0  0  0  0  0  0  0  0
   38.3880   28.2530   44.0010 H   0  0  0  0  0  0  0  0  0  0  0  0
   36.7940   29.0500   44.4410 H   0  0  0  0  0  0  0  0  0  0  0  0
   36.4240   29.7500   42.3020 H   0  0  0  0  0  0  0  0  0  0  0  0
   35.4440   29.3830   38.3120 C   0  0  0  0  0  0  0  0  0  0  0  0
   35.6940   29.1410   39.6610 C   0  0  0  0  0  0  0  0  0  0  0  0
   36.8430   28.3990   40.0150 C   0  0  0  0  0  0  0  0  0  0  0  0
   37.6560   27.9550   39.0150 N   0  0  0  0  0  0  0  0  0  0  0  0
   37.3840   28.2080   37.7110 C   0  0  0  0  0  0  0  0  0  0  0  0
   36.2800   28.9210   37.3680 N   0  0  0  0  0  0  0  0  0  0  0  0
   34.5910   29.9370   37.9930 H   0  0  0  0  0  0  0  0  0  0  0  0
   35.0440   29.4970   40.4330 H   0  0  0  0  0  0  0  0  0  0  0  0
   38.1130   27.7960   37.0190 H   0  0  0  0  0  0  0  0  0  0  0  0
   38.5630   29.9840   42.0740 C   0  0  0  0  0  0  0  0  0  0  0  0
   39.8130   29.5520   42.5910 C   0  0  0  0  0  0  0  0  0  0  0  0
   40.0690   28.7080   43.1610 H   0  0  0  0  0  0  0  0  0  0  0  0
   40.9470   30.8920   41.9960 S   0  0  0  0  0  0  0  0  0  0  0  0
   39.5020   31.7920   41.1530 C   0  0  0  0  0  0  0  0  0  0  0  0
   39.5030   32.7500   40.5650 H   0  0  0  0  0  0  0  0  0  0  0  0
   38.6140   31.1100   41.3930 N   0  0  0  0  0  0  0  0  0  0  0  0
  1  2  1  0  0  0  0
  1  5  1  0  0  0  0
  2  7  1  0  0  0  0
  2  3  1  0  0  0  0
  3  4  1  0  0  0  0
  3  9  1  0  0  0  0
  4 10  1  0  0  0  0
  4 11  1  0  0  0  0
  5 12  1  6  0  0  0
  5  4  1  0  0  0  0
  6  2  1  0  0  0  0
  8  3  1  0  0  0  0
 13 14  1  0  0  0  0
 14 15  2  0  0  0  0
 14 20  1  0  0  0  0
 15  1  1  0  0  0  0
 16 15  1  0  0  0  0
 17 16  2  0  0  0  0
 18 17  1  0  0  0  0
 18 13  2  0  0  0  0
 19 13  1  0  0  0  0
 21 17  1  0  0  0  0
 22  5  1  0  0  0  0
 22 23  2  0  0  0  0
 23 24  1  0  0  0  0
 25 23  1  0  0  0  0
 26 28  2  0  0  0  0
 26 25  1  0  0  0  0
 27 26  1  0  0  0  0
 28 22  1  0  0  0  0
M  END
>  <minimizedAffinity>
-4.03680372

$$$$
