
 OpenBabel03242511303D

 32 35  0  0  0  0  0  0  0  0999 V2000
   37.9250   27.7010   39.2620 Cl  0  0  0  0  0  0  0  0  0  0  0  0
   37.8030   27.9660   40.9710 C   0  0  0  0  0  0  0  0  0  0  0  0
   37.7300   26.8810   41.8190 C   0  0  0  0  0  0  0  0  0  0  0  0
   37.6310   27.0400   43.1970 C   0  0  0  0  0  0  0  0  0  0  0  0
   37.6110   28.3410   43.6560 C   0  0  0  0  0  0  0  0  0  0  0  0
   37.6820   29.4010   42.8190 C   0  0  0  0  0  0  0  0  0  0  0  0
   37.7800   29.2380   41.4570 C   0  0  0  0  0  0  0  0  0  0  0  0
   37.5740   26.1840   43.8620 H   0  0  0  0  0  0  0  0  0  0  0  0
   37.5330   28.4410   44.7340 H   0  0  0  0  0  0  0  0  0  0  0  0
   37.6580   30.3770   43.2870 H   0  0  0  0  0  0  0  0  0  0  0  0
   38.9290   23.6070   40.6120 C   0  0  0  0  0  0  0  0  0  0  0  0
   37.7520   22.9830   40.2270 C   0  0  0  0  0  0  0  0  0  0  0  0
   36.5540   23.6650   40.3740 C   0  0  0  0  0  0  0  0  0  0  0  0
   36.5930   24.9160   40.8900 N   0  0  0  0  0  0  0  0  0  0  0  0
   37.7570   25.5230   41.2670 C   0  0  0  0  0  0  0  0  0  0  0  0
   38.9020   24.8550   41.1200 N   0  0  0  0  0  0  0  0  0  0  0  0
   39.9060   23.1320   40.5250 H   0  0  0  0  0  0  0  0  0  0  0  0
   37.8530   21.9900   39.8310 H   0  0  0  0  0  0  0  0  0  0  0  0
   35.6520   23.1760   40.0730 H   0  0  0  0  0  0  0  0  0  0  0  0
   37.8500   30.4850   40.6840 C   0  0  0  0  0  0  0  0  0  0  0  0
   36.6850   31.2080   40.4690 C   0  0  0  0  0  0  0  0  0  0  0  0
   37.2790   32.6500   39.4720 S   0  0  0  0  0  0  0  0  0  0  0  0
   39.0470   31.9830   39.5370 C   0  0  0  0  0  0  0  0  0  0  0  0
   38.8770   31.0590   40.1330 N   0  0  0  0  0  0  0  0  0  0  0  0
   35.6510   31.0160   40.7860 H   0  0  0  0  0  0  0  0  0  0  0  0
   40.2360   32.6650   38.8900 C   0  0  0  0  0  0  0  0  0  0  0  0
   40.7750   33.8040   39.4580 C   0  0  0  0  0  0  0  0  0  0  0  0
   40.4050   34.2810   40.3730 H   0  0  0  0  0  0  0  0  0  0  0  0
   42.0900   34.1570   38.3290 S   0  0  0  0  0  0  0  0  0  0  0  0
   41.7110   32.6680   37.2170 C   0  0  0  0  0  0  0  0  0  0  0  0
   42.2460   32.3810   36.3120 H   0  0  0  0  0  0  0  0  0  0  0  0
   40.7830   32.2010   37.7880 N   0  0  0  0  0  0  0  0  0  0  0  0
  1  2  1  0  0  0  0
  2  7  2  0  0  0  0
  2  3  1  0  0  0  0
  3  4  2  0  0  0  0
  4  5  1  0  0  0  0
  4  8  1  0  0  0  0
  5  9  1  0  0  0  0
  6 10  1  0  0  0  0
  6  5  2  0  0  0  0
  7  6  1  0  0  0  0
 11 16  1  0  0  0  0
 12 13  1  0  0  0  0
 12 11  2  0  0  0  0
 13 14  2  0  0  0  0
 14 15  1  0  0  0  0
 15  3  1  0  0  0  0
 16 15  2  0  0  0  0
 17 11  1  0  0  0  0
 18 12  1  0  0  0  0
 19 13  1  0  0  0  0
 20  7  1  0  0  0  0
 21 20  2  0  0  0  0
 21 25  1  0  0  0  0
 22 23  1  0  0  0  0
 22 21  1  0  0  0  0
 23 24  2  0  0  0  0
 24 20  1  0  0  0  0
 26 27  2  0  0  0  0
 26 23  1  0  0  0  0
 27 28  1  0  0  0  0
 29 27  1  0  0  0  0
 30 32  2  0  0  0  0
 30 29  1  0  0  0  0
 31 30  1  0  0  0  0
 32 26  1  0  0  0  0
M  END
>  <minimizedAffinity>
-5.59376907

$$$$

 OpenBabel03242511303D

 32 35  0  0  0  0  0  0  0  0999 V2000
   35.4110   29.7060   39.5680 Cl  0  0  0  0  0  0  0  0  0  0  0  0
   35.6450   28.0510   39.1060 C   0  0  0  0  0  0  0  0  0  0  0  0
   36.4930   27.2560   39.8490 C   0  0  0  0  0  0  0  0  0  0  0  0
   36.7150   25.9230   39.5200 C   0  0  0  0  0  0  0  0  0  0  0  0
   36.0380   25.4520   38.4130 C   0  0  0  0  0  0  0  0  0  0  0  0
   35.2080   26.2370   37.6890 C   0  0  0  0  0  0  0  0  0  0  0  0
   34.9930   27.5540   38.0190 C   0  0  0  0  0  0  0  0  0  0  0  0
   37.3820   25.3000   40.1070 H   0  0  0  0  0  0  0  0  0  0  0  0
   36.2260   24.4100   38.1760 H   0  0  0  0  0  0  0  0  0  0  0  0
   34.7290   25.7650   36.8420 H   0  0  0  0  0  0  0  0  0  0  0  0
   39.0010   28.9390   41.9680 C   0  0  0  0  0  0  0  0  0  0  0  0
   38.4310   28.8520   43.2290 C   0  0  0  0  0  0  0  0  0  0  0  0
   37.2020   28.2270   43.3670 C   0  0  0  0  0  0  0  0  0  0  0  0
   36.6140   27.7280   42.2540 N   0  0  0  0  0  0  0  0  0  0  0  0
   37.1820   27.8180   41.0150 C   0  0  0  0  0  0  0  0  0  0  0  0
   38.3650   28.4220   40.8970 N   0  0  0  0  0  0  0  0  0  0  0  0
   39.9640   29.4160   41.7850 H   0  0  0  0  0  0  0  0  0  0  0  0
   38.9970   29.2860   44.0330 H   0  0  0  0  0  0  0  0  0  0  0  0
   36.7710   28.1650   44.3430 H   0  0  0  0  0  0  0  0  0  0  0  0
   34.0650   28.2740   37.1370 C   0  0  0  0  0  0  0  0  0  0  0  0
   34.2880   28.2540   35.7670 C   0  0  0  0  0  0  0  0  0  0  0  0
   32.8900   29.2740   35.1110 S   0  0  0  0  0  0  0  0  0  0  0  0
   32.2460   29.5440   36.8680 C   0  0  0  0  0  0  0  0  0  0  0  0
   33.0090   28.9680   37.4390 N   0  0  0  0  0  0  0  0  0  0  0  0
   35.0770   27.7710   35.1750 H   0  0  0  0  0  0  0  0  0  0  0  0
   31.0120   30.3570   37.2050 C   0  0  0  0  0  0  0  0  0  0  0  0
   30.3090   30.0990   38.3680 C   0  0  0  0  0  0  0  0  0  0  0  0
   30.5740   29.3290   39.1000 H   0  0  0  0  0  0  0  0  0  0  0  0
   29.0140   31.2980   38.2550 S   0  0  0  0  0  0  0  0  0  0  0  0
   29.6270   31.9970   36.6000 C   0  0  0  0  0  0  0  0  0  0  0  0
   29.1740   32.8080   36.0310 H   0  0  0  0  0  0  0  0  0  0  0  0
   30.5780   31.3150   36.4160 N   0  0  0  0  0  0  0  0  0  0  0  0
  2  1  1  0  0  0  0
  2  3  1  0  0  0  0
  3 15  1  0  0  0  0
  4  3  2  0  0  0  0
  4  8  1  0  0  0  0
  5  4  1  0  0  0  0
  6  7  1  0  0  0  0
  6  5  2  0  0  0  0
  7  2  2  0  0  0  0
  9  5  1  0  0  0  0
 10  6  1  0  0  0  0
 11 12  1  0  0  0  0
 12 13  2  0  0  0  0
 12 18  1  0  0  0  0
 13 19  1  0  0  0  0
 14 13  1  0  0  0  0
 15 14  2  0  0  0  0
 16 15  1  0  0  0  0
 16 11  2  0  0  0  0
 17 11  1  0  0  0  0
 20 24  1  0  0  0  0
 20  7  1  0  0  0  0
 21 20  2  0  0  0  0
 22 21  1  0  0  0  0
 22 23  1  0  0  0  0
 23 26  1  0  0  0  0
 23 24  2  0  0  0  0
 25 21  1  0  0  0  0
 26 27  2  0  0  0  0
 27 28  1  0  0  0  0
 29 27  1  0  0  0  0
 30 29  1  0  0  0  0
 31 30  1  0  0  0  0
 32 30  2  0  0  0  0
 32 26  1  0  0  0  0
M  END
>  <minimizedAffinity>
-5.20528126

$$$$

 OpenBabel03242511303D

 32 35  0  0  0  0  0  0  0  0999 V2000
   37.7350   27.2100   38.7570 Cl  0  0  0  0  0  0  0  0  0  0  0  0
   37.4060   27.4080   40.4480 C   0  0  0  0  0  0  0  0  0  0  0  0
   37.2030   26.2920   41.2320 C   0  0  0  0  0  0  0  0  0  0  0  0
   36.9360   26.3970   42.5930 C   0  0  0  0  0  0  0  0  0  0  0  0
   36.8880   27.6790   43.1020 C   0  0  0  0  0  0  0  0  0  0  0  0
   37.0880   28.7690   42.3280 C   0  0  0  0  0  0  0  0  0  0  0  0
   37.3510   28.6590   40.9830 C   0  0  0  0  0  0  0  0  0  0  0  0
   36.7760   25.5170   43.2070 H   0  0  0  0  0  0  0  0  0  0  0  0
   36.6790   27.7370   44.1650 H   0  0  0  0  0  0  0  0  0  0  0  0
   37.0280   29.7250   42.8320 H   0  0  0  0  0  0  0  0  0  0  0  0
   36.2490   23.1630   39.5240 C   0  0  0  0  0  0  0  0  0  0  0  0
   37.4410   22.4560   39.5110 C   0  0  0  0  0  0  0  0  0  0  0  0
   38.5670   23.0320   40.0780 C   0  0  0  0  0  0  0  0  0  0  0  0
   38.4460   24.2660   40.6200 N   0  0  0  0  0  0  0  0  0  0  0  0
   37.2670   24.9570   40.6280 C   0  0  0  0  0  0  0  0  0  0  0  0
   36.1920   24.3910   40.0790 N   0  0  0  0  0  0  0  0  0  0  0  0
   35.3240   22.7730   39.0980 H   0  0  0  0  0  0  0  0  0  0  0  0
   37.4080   21.4850   39.0520 H   0  0  0  0  0  0  0  0  0  0  0  0
   39.4820   22.4790   40.0640 H   0  0  0  0  0  0  0  0  0  0  0  0
   37.5460   29.9340   40.2800 C   0  0  0  0  0  0  0  0  0  0  0  0
   36.4730   30.8070   40.1620 C   0  0  0  0  0  0  0  0  0  0  0  0
   37.2030   32.2240   39.2230 S   0  0  0  0  0  0  0  0  0  0  0  0
   38.8740   31.3430   39.1640 C   0  0  0  0  0  0  0  0  0  0  0  0
   38.6140   30.4100   39.7140 N   0  0  0  0  0  0  0  0  0  0  0  0
   35.4370   30.7230   40.5170 H   0  0  0  0  0  0  0  0  0  0  0  0
   40.1120   31.9120   38.5010 C   0  0  0  0  0  0  0  0  0  0  0  0
   40.5620   33.1750   38.8420 C   0  0  0  0  0  0  0  0  0  0  0  0
   40.0860   33.8290   39.5800 H   0  0  0  0  0  0  0  0  0  0  0  0
   41.9850   33.3200   37.8010 S   0  0  0  0  0  0  0  0  0  0  0  0
   41.7600   31.6010   37.0300 C   0  0  0  0  0  0  0  0  0  0  0  0
   42.3960   31.1400   36.2750 H   0  0  0  0  0  0  0  0  0  0  0  0
   40.7850   31.2350   37.5970 N   0  0  0  0  0  0  0  0  0  0  0  0
  1  2  1  0  0  0  0
  2  7  2  0  0  0  0
  2  3  1  0  0  0  0
  3  4  2  0  0  0  0
  4  5  1  0  0  0  0
  4  8  1  0  0  0  0
  5  9  1  0  0  0  0
  6 10  1  0  0  0  0
  6  5  2  0  0  0  0
  7  6  1  0  0  0  0
 11 16  1  0  0  0  0
 12 11  2  0  0  0  0
 12 13  1  0  0  0  0
 13 14  2  0  0  0  0
 14 15  1  0  0  0  0
 15  3  1  0  0  0  0
 16 15  2  0  0  0  0
 17 11  1  0  0  0  0
 18 12  1  0  0  0  0
 19 13  1  0  0  0  0
 20  7  1  0  0  0  0
 21 20  2  0  0  0  0
 21 25  1  0  0  0  0
 22 21  1  0  0  0  0
 23 22  1  0  0  0  0
 23 24  2  0  0  0  0
 24 20  1  0  0  0  0
 26 27  2  0  0  0  0
 26 23  1  0  0  0  0
 27 28  1  0  0  0  0
 29 27  1  0  0  0  0
 30 32  2  0  0  0  0
 30 29  1  0  0  0  0
 31 30  1  0  0  0  0
 32 26  1  0  0  0  0
M  END
>  <minimizedAffinity>
-5.19470787

$$$$

 OpenBabel03242511303D

 32 35  0  0  0  0  0  0  0  0999 V2000
   39.3460   27.9110   39.5770 Cl  0  0  0  0  0  0  0  0  0  0  0  0
   37.9520   28.8700   39.9550 C   0  0  0  0  0  0  0  0  0  0  0  0
   36.8260   28.2550   40.4610 C   0  0  0  0  0  0  0  0  0  0  0  0
   35.6820   28.9790   40.7800 C   0  0  0  0  0  0  0  0  0  0  0  0
   35.7470   30.3400   40.5610 C   0  0  0  0  0  0  0  0  0  0  0  0
   36.8540   30.9370   40.0640 C   0  0  0  0  0  0  0  0  0  0  0  0
   37.9820   30.2160   39.7510 C   0  0  0  0  0  0  0  0  0  0  0  0
   34.7980   28.4920   41.1770 H   0  0  0  0  0  0  0  0  0  0  0  0
   34.8440   30.8840   40.8170 H   0  0  0  0  0  0  0  0  0  0  0  0
   36.7950   32.0100   39.9330 H   0  0  0  0  0  0  0  0  0  0  0  0
   36.4700   24.6270   39.8860 C   0  0  0  0  0  0  0  0  0  0  0  0
   36.8310   24.0950   41.1150 C   0  0  0  0  0  0  0  0  0  0  0  0
   37.1940   24.9570   42.1370 C   0  0  0  0  0  0  0  0  0  0  0  0
   37.1780   26.2870   41.8830 N   0  0  0  0  0  0  0  0  0  0  0  0
   36.8220   26.8030   40.6700 C   0  0  0  0  0  0  0  0  0  0  0  0
   36.4750   25.9620   39.6960 N   0  0  0  0  0  0  0  0  0  0  0  0
   36.1730   24.0110   39.0380 H   0  0  0  0  0  0  0  0  0  0  0  0
   36.8020   23.0240   41.1910 H   0  0  0  0  0  0  0  0  0  0  0  0
   37.4700   24.5380   43.0810 H   0  0  0  0  0  0  0  0  0  0  0  0
   39.1010   31.0080   39.2230 C   0  0  0  0  0  0  0  0  0  0  0  0
   39.1770   31.2380   37.8560 C   0  0  0  0  0  0  0  0  0  0  0  0
   40.7170   32.2510   37.6980 S   0  0  0  0  0  0  0  0  0  0  0  0
   40.9780   32.1710   39.5690 C   0  0  0  0  0  0  0  0  0  0  0  0
   40.0920   31.5610   39.8560 N   0  0  0  0  0  0  0  0  0  0  0  0
   38.5170   30.9210   37.0380 H   0  0  0  0  0  0  0  0  0  0  0  0
   42.1390   32.8220   40.2930 C   0  0  0  0  0  0  0  0  0  0  0  0
   42.9890   33.6760   39.6140 C   0  0  0  0  0  0  0  0  0  0  0  0
   42.8960   33.9360   38.5540 H   0  0  0  0  0  0  0  0  0  0  0  0
   44.1160   34.1280   40.9000 S   0  0  0  0  0  0  0  0  0  0  0  0
   43.2500   33.0650   42.2120 C   0  0  0  0  0  0  0  0  0  0  0  0
   43.5400   32.9600   43.2570 H   0  0  0  0  0  0  0  0  0  0  0  0
   42.3700   32.6000   41.5690 N   0  0  0  0  0  0  0  0  0  0  0  0
  1  2  1  0  0  0  0
  2  3  1  0  0  0  0
  3 15  1  0  0  0  0
  3  4  2  0  0  0  0
  4  8  1  0  0  0  0
  5  4  1  0  0  0  0
  5  9  1  0  0  0  0
  6  5  2  0  0  0  0
  7  2  2  0  0  0  0
  7  6  1  0  0  0  0
 10  6  1  0  0  0  0
 11 12  1  0  0  0  0
 12 18  1  0  0  0  0
 12 13  2  0  0  0  0
 13 19  1  0  0  0  0
 14 13  1  0  0  0  0
 15 14  2  0  0  0  0
 16 11  2  0  0  0  0
 16 15  1  0  0  0  0
 17 11  1  0  0  0  0
 20  7  1  0  0  0  0
 20 24  1  0  0  0  0
 21 20  2  0  0  0  0
 22 21  1  0  0  0  0
 22 23  1  0  0  0  0
 23 24  2  0  0  0  0
 23 26  1  0  0  0  0
 25 21  1  0  0  0  0
 26 32  1  0  0  0  0
 27 26  2  0  0  0  0
 27 29  1  0  0  0  0
 28 27  1  0  0  0  0
 29 30  1  0  0  0  0
 30 31  1  0  0  0  0
 32 30  2  0  0  0  0
M  END
>  <minimizedAffinity>
-5.11209393

$$$$

 OpenBabel03242511303D

 32 35  0  0  0  0  0  0  0  0999 V2000
   39.5860   27.9910   40.4830 Cl  0  0  0  0  0  0  0  0  0  0  0  0
   38.1460   28.9530   40.5590 C   0  0  0  0  0  0  0  0  0  0  0  0
   36.9280   28.3330   40.7500 C   0  0  0  0  0  0  0  0  0  0  0  0
   35.7440   29.0600   40.8180 C   0  0  0  0  0  0  0  0  0  0  0  0
   35.8660   30.4280   40.6840 C   0  0  0  0  0  0  0  0  0  0  0  0
   37.0630   31.0300   40.4970 C   0  0  0  0  0  0  0  0  0  0  0  0
   38.2300   30.3060   40.4310 C   0  0  0  0  0  0  0  0  0  0  0  0
   34.7880   28.5690   40.9680 H   0  0  0  0  0  0  0  0  0  0  0  0
   34.9300   30.9740   40.7410 H   0  0  0  0  0  0  0  0  0  0  0  0
   37.0420   32.1080   40.4050 H   0  0  0  0  0  0  0  0  0  0  0  0
   37.0150   24.9360   42.1860 C   0  0  0  0  0  0  0  0  0  0  0  0
   36.7450   24.1400   41.0830 C   0  0  0  0  0  0  0  0  0  0  0  0
   36.5340   24.7470   39.8550 C   0  0  0  0  0  0  0  0  0  0  0  0
   36.6020   26.0970   39.7930 N   0  0  0  0  0  0  0  0  0  0  0  0
   36.8680   26.8740   40.8850 C   0  0  0  0  0  0  0  0  0  0  0  0
   37.0690   26.2770   42.0590 N   0  0  0  0  0  0  0  0  0  0  0  0
   37.1920   24.5280   43.1810 H   0  0  0  0  0  0  0  0  0  0  0  0
   36.7190   23.0810   41.2610 H   0  0  0  0  0  0  0  0  0  0  0  0
   36.3270   24.1250   39.0110 H   0  0  0  0  0  0  0  0  0  0  0  0
   39.4460   31.1030   40.2250 C   0  0  0  0  0  0  0  0  0  0  0  0
   39.6920   32.1820   41.0630 C   0  0  0  0  0  0  0  0  0  0  0  0
   41.2950   32.8430   40.4170 S   0  0  0  0  0  0  0  0  0  0  0  0
   41.3330   31.4940   39.0940 C   0  0  0  0  0  0  0  0  0  0  0  0
   40.3860   30.9630   39.3390 N   0  0  0  0  0  0  0  0  0  0  0  0
   39.1140   32.5820   41.9080 H   0  0  0  0  0  0  0  0  0  0  0  0
   42.4370   31.3420   38.0660 C   0  0  0  0  0  0  0  0  0  0  0  0
   43.6810   31.9000   38.2990 C   0  0  0  0  0  0  0  0  0  0  0  0
   43.9540   32.4650   39.1970 H   0  0  0  0  0  0  0  0  0  0  0  0
   44.5440   31.4300   36.8280 S   0  0  0  0  0  0  0  0  0  0  0  0
   43.0530   30.5190   36.0870 C   0  0  0  0  0  0  0  0  0  0  0  0
   43.0200   30.0040   35.1280 H   0  0  0  0  0  0  0  0  0  0  0  0
   42.2500   30.6870   36.9420 N   0  0  0  0  0  0  0  0  0  0  0  0
  1  2  1  0  0  0  0
  2  3  1  0  0  0  0
  3  4  2  0  0  0  0
  3 15  1  0  0  0  0
  4  8  1  0  0  0  0
  5  9  1  0  0  0  0
  5  4  1  0  0  0  0
  6  5  2  0  0  0  0
  7  6  1  0  0  0  0
  7  2  2  0  0  0  0
 10  6  1  0  0  0  0
 11 17  1  0  0  0  0
 12 18  1  0  0  0  0
 12 11  2  0  0  0  0
 13 12  1  0  0  0  0
 14 13  2  0  0  0  0
 14 15  1  0  0  0  0
 15 16  2  0  0  0  0
 16 11  1  0  0  0  0
 19 13  1  0  0  0  0
 20  7  1  0  0  0  0
 20 21  2  0  0  0  0
 21 25  1  0  0  0  0
 22 21  1  0  0  0  0
 23 24  2  0  0  0  0
 23 22  1  0  0  0  0
 24 20  1  0  0  0  0
 26 27  2  0  0  0  0
 26 23  1  0  0  0  0
 27 28  1  0  0  0  0
 29 27  1  0  0  0  0
 30 29  1  0  0  0  0
 30 32  2  0  0  0  0
 31 30  1  0  0  0  0
 32 26  1  0  0  0  0
M  END
>  <minimizedAffinity>
-5.11092138

$$$$

 OpenBabel03242511303D

 32 35  0  0  0  0  0  0  0  0999 V2000
   37.4390   30.8230   36.9080 Cl  0  0  0  0  0  0  0  0  0  0  0  0
   36.5200   30.2630   38.2680 C   0  0  0  0  0  0  0  0  0  0  0  0
   35.5960   29.2550   38.0890 C   0  0  0  0  0  0  0  0  0  0  0  0
   34.8340   28.7700   39.1470 C   0  0  0  0  0  0  0  0  0  0  0  0
   35.0610   29.3570   40.3750 C   0  0  0  0  0  0  0  0  0  0  0  0
   35.9690   30.3460   40.5430 C   0  0  0  0  0  0  0  0  0  0  0  0
   36.7190   30.8210   39.4940 C   0  0  0  0  0  0  0  0  0  0  0  0
   34.1080   27.9770   39.0030 H   0  0  0  0  0  0  0  0  0  0  0  0
   34.4560   28.9640   41.1850 H   0  0  0  0  0  0  0  0  0  0  0  0
   36.0650   30.7340   41.5490 H   0  0  0  0  0  0  0  0  0  0  0  0
   34.2350   28.5450   34.7340 C   0  0  0  0  0  0  0  0  0  0  0  0
   35.0840   27.5500   34.2730 C   0  0  0  0  0  0  0  0  0  0  0  0
   36.1150   27.1180   35.0920 C   0  0  0  0  0  0  0  0  0  0  0  0
   36.2430   27.6930   36.3110 N   0  0  0  0  0  0  0  0  0  0  0  0
   35.4030   28.6720   36.7570 C   0  0  0  0  0  0  0  0  0  0  0  0
   34.4150   29.0790   35.9580 N   0  0  0  0  0  0  0  0  0  0  0  0
   33.4040   28.9330   34.1450 H   0  0  0  0  0  0  0  0  0  0  0  0
   34.8780   27.1730   33.2880 H   0  0  0  0  0  0  0  0  0  0  0  0
   36.7640   26.3500   34.7280 H   0  0  0  0  0  0  0  0  0  0  0  0
   37.6620   31.8940   39.8370 C   0  0  0  0  0  0  0  0  0  0  0  0
   37.2850   33.2130   39.6250 C   0  0  0  0  0  0  0  0  0  0  0  0
   38.7690   34.1580   40.1960 S   0  0  0  0  0  0  0  0  0  0  0  0
   39.6480   32.5410   40.6290 C   0  0  0  0  0  0  0  0  0  0  0  0
   38.8590   31.8140   40.3340 N   0  0  0  0  0  0  0  0  0  0  0  0
   36.3550   33.6380   39.2220 H   0  0  0  0  0  0  0  0  0  0  0  0
   41.0470   32.4630   41.2090 C   0  0  0  0  0  0  0  0  0  0  0  0
   41.4060   31.3930   42.0070 C   0  0  0  0  0  0  0  0  0  0  0  0
   40.7450   30.5590   42.2700 H   0  0  0  0  0  0  0  0  0  0  0  0
   43.0830   31.8040   42.3910 S   0  0  0  0  0  0  0  0  0  0  0  0
   43.0570   33.4140   41.3860 C   0  0  0  0  0  0  0  0  0  0  0  0
   43.8800   34.1160   41.2650 H   0  0  0  0  0  0  0  0  0  0  0  0
   41.9450   33.3940   40.9760 N   0  0  0  0  0  0  0  0  0  0  0  0
  1  2  1  0  0  0  0
  2  7  1  0  0  0  0
  3  2  2  0  0  0  0
  3  4  1  0  0  0  0
  4  5  2  0  0  0  0
  5  6  1  0  0  0  0
  5  9  1  0  0  0  0
  6 10  1  0  0  0  0
  7 20  1  0  0  0  0
  7  6  2  0  0  0  0
  8  4  1  0  0  0  0
 11 16  1  0  0  0  0
 12 11  2  0  0  0  0
 12 13  1  0  0  0  0
 13 14  2  0  0  0  0
 14 15  1  0  0  0  0
 15  3  1  0  0  0  0
 16 15  2  0  0  0  0
 17 11  1  0  0  0  0
 18 12  1  0  0  0  0
 19 13  1  0  0  0  0
 20 24  1  0  0  0  0
 21 20  2  0  0  0  0
 21 22  1  0  0  0  0
 22 23  1  0  0  0  0
 23 26  1  0  0  0  0
 24 23  2  0  0  0  0
 25 21  1  0  0  0  0
 26 27  2  0  0  0  0
 27 28  1  0  0  0  0
 27 29  1  0  0  0  0
 30 29  1  0  0  0  0
 31 30  1  0  0  0  0
 32 26  1  0  0  0  0
 32 30  2  0  0  0  0
M  END
>  <minimizedAffinity>
-5.08720303

$$$$

 OpenBabel03242511303D

 32 35  0  0  0  0  0  0  0  0999 V2000
   37.8670   27.8450   39.2440 Cl  0  0  0  0  0  0  0  0  0  0  0  0
   37.7360   27.9030   40.9720 C   0  0  0  0  0  0  0  0  0  0  0  0
   37.8030   29.1220   41.6140 C   0  0  0  0  0  0  0  0  0  0  0  0
   37.7040   29.2220   42.9980 C   0  0  0  0  0  0  0  0  0  0  0  0
   37.5350   28.0350   43.6800 C   0  0  0  0  0  0  0  0  0  0  0  0
   37.4710   26.8430   43.0450 C   0  0  0  0  0  0  0  0  0  0  0  0
   37.5700   26.7490   41.6760 C   0  0  0  0  0  0  0  0  0  0  0  0
   37.7570   30.1830   43.5000 H   0  0  0  0  0  0  0  0  0  0  0  0
   37.4600   28.1370   44.7570 H   0  0  0  0  0  0  0  0  0  0  0  0
   37.3360   25.9750   43.6780 H   0  0  0  0  0  0  0  0  0  0  0  0
   39.3660   31.9060   39.7630 C   0  0  0  0  0  0  0  0  0  0  0  0
   38.2670   32.6500   39.3620 C   0  0  0  0  0  0  0  0  0  0  0  0
   36.9990   32.2150   39.7150 C   0  0  0  0  0  0  0  0  0  0  0  0
   36.8960   31.0760   40.4390 N   0  0  0  0  0  0  0  0  0  0  0  0
   37.9840   30.3480   40.8300 C   0  0  0  0  0  0  0  0  0  0  0  0
   39.1970   30.7780   40.4840 N   0  0  0  0  0  0  0  0  0  0  0  0
   40.3910   32.1870   39.5240 H   0  0  0  0  0  0  0  0  0  0  0  0
   38.4800   33.5350   38.7920 H   0  0  0  0  0  0  0  0  0  0  0  0
   36.1580   32.7950   39.4010 H   0  0  0  0  0  0  0  0  0  0  0  0
   37.4800   25.3860   41.1370 C   0  0  0  0  0  0  0  0  0  0  0  0
   38.5220   24.5000   41.3730 C   0  0  0  0  0  0  0  0  0  0  0  0
   37.9530   22.9640   40.5130 S   0  0  0  0  0  0  0  0  0  0  0  0
   36.3620   23.8350   39.9800 C   0  0  0  0  0  0  0  0  0  0  0  0
   36.5360   24.8370   40.4330 N   0  0  0  0  0  0  0  0  0  0  0  0
   39.4640   24.6300   41.9220 H   0  0  0  0  0  0  0  0  0  0  0  0
   35.2690   23.1810   39.1590 C   0  0  0  0  0  0  0  0  0  0  0  0
   35.5050   22.8340   37.8410 C   0  0  0  0  0  0  0  0  0  0  0  0
   36.4510   22.9960   37.3130 H   0  0  0  0  0  0  0  0  0  0  0  0
   33.9440   22.1350   37.3900 S   0  0  0  0  0  0  0  0  0  0  0  0
   33.1730   22.4200   39.1000 C   0  0  0  0  0  0  0  0  0  0  0  0
   32.1600   22.1610   39.4060 H   0  0  0  0  0  0  0  0  0  0  0  0
   34.0830   22.9270   39.6660 N   0  0  0  0  0  0  0  0  0  0  0  0
  1  2  1  0  0  0  0
  2  3  2  0  0  0  0
  2  7  1  0  0  0  0
  3  4  1  0  0  0  0
  4  8  1  0  0  0  0
  4  5  2  0  0  0  0
  5  9  1  0  0  0  0
  6 10  1  0  0  0  0
  6  5  1  0  0  0  0
  7  6  2  0  0  0  0
 11 16  1  0  0  0  0
 12 13  1  0  0  0  0
 12 11  2  0  0  0  0
 13 14  2  0  0  0  0
 14 15  1  0  0  0  0
 15  3  1  0  0  0  0
 16 15  2  0  0  0  0
 17 11  1  0  0  0  0
 18 12  1  0  0  0  0
 19 13  1  0  0  0  0
 20 21  2  0  0  0  0
 20  7  1  0  0  0  0
 21 25  1  0  0  0  0
 22 21  1  0  0  0  0
 23 24  2  0  0  0  0
 23 22  1  0  0  0  0
 24 20  1  0  0  0  0
 26 32  1  0  0  0  0
 26 23  1  0  0  0  0
 27 26  2  0  0  0  0
 28 27  1  0  0  0  0
 29 27  1  0  0  0  0
 29 30  1  0  0  0  0
 30 31  1  0  0  0  0
 30 32  2  0  0  0  0
M  END
>  <minimizedAffinity>
-5.07865429

$$$$

 OpenBabel03242511303D

 32 35  0  0  0  0  0  0  0  0999 V2000
   40.4280   30.5820   38.3710 Cl  0  0  0  0  0  0  0  0  0  0  0  0
   39.3140   31.7580   38.9890 C   0  0  0  0  0  0  0  0  0  0  0  0
   39.7710   33.0200   39.3060 C   0  0  0  0  0  0  0  0  0  0  0  0
   38.9180   33.9990   39.8050 C   0  0  0  0  0  0  0  0  0  0  0  0
   37.5980   33.6290   39.9590 C   0  0  0  0  0  0  0  0  0  0  0  0
   37.1560   32.3900   39.6470 C   0  0  0  0  0  0  0  0  0  0  0  0
   38.0040   31.4260   39.1540 C   0  0  0  0  0  0  0  0  0  0  0  0
   39.2810   34.9910   40.0530 H   0  0  0  0  0  0  0  0  0  0  0  0
   36.9510   34.4080   40.3490 H   0  0  0  0  0  0  0  0  0  0  0  0
   36.1020   32.2080   39.8080 H   0  0  0  0  0  0  0  0  0  0  0  0
   42.9390   34.1530   37.7900 C   0  0  0  0  0  0  0  0  0  0  0  0
   43.8490   33.9490   38.8150 C   0  0  0  0  0  0  0  0  0  0  0  0
   43.3970   33.4300   40.0180 C   0  0  0  0  0  0  0  0  0  0  0  0
   42.0780   33.1450   40.1320 N   0  0  0  0  0  0  0  0  0  0  0  0
   41.1880   33.3500   39.1170 C   0  0  0  0  0  0  0  0  0  0  0  0
   41.6370   33.8500   37.9660 N   0  0  0  0  0  0  0  0  0  0  0  0
   43.2230   34.5570   36.8180 H   0  0  0  0  0  0  0  0  0  0  0  0
   44.8680   34.2130   38.6010 H   0  0  0  0  0  0  0  0  0  0  0  0
   44.1060   33.2750   40.8030 H   0  0  0  0  0  0  0  0  0  0  0  0
   37.3740   30.1320   38.8620 C   0  0  0  0  0  0  0  0  0  0  0  0
   36.6480   29.9880   37.6880 C   0  0  0  0  0  0  0  0  0  0  0  0
   36.0700   28.2320   37.7790 S   0  0  0  0  0  0  0  0  0  0  0  0
   36.9480   28.0150   39.4400 C   0  0  0  0  0  0  0  0  0  0  0  0
   37.3800   29.0340   39.5580 N   0  0  0  0  0  0  0  0  0  0  0  0
   36.4390   30.7020   36.8810 H   0  0  0  0  0  0  0  0  0  0  0  0
   36.9470   26.7280   40.2400 C   0  0  0  0  0  0  0  0  0  0  0  0
   37.3300   26.7380   41.5690 C   0  0  0  0  0  0  0  0  0  0  0  0
   37.6480   27.6300   42.1200 H   0  0  0  0  0  0  0  0  0  0  0  0
   37.1440   25.0300   41.9890 S   0  0  0  0  0  0  0  0  0  0  0  0
   36.5560   24.5320   40.2540 C   0  0  0  0  0  0  0  0  0  0  0  0
   36.2810   23.5310   39.9250 H   0  0  0  0  0  0  0  0  0  0  0  0
   36.5870   25.5820   39.7050 N   0  0  0  0  0  0  0  0  0  0  0  0
  1  2  1  0  0  0  0
  2  7  2  0  0  0  0
  2  3  1  0  0  0  0
  3  4  2  0  0  0  0
  4  5  1  0  0  0  0
  4  8  1  0  0  0  0
  5  9  1  0  0  0  0
  6 10  1  0  0  0  0
  6  5  2  0  0  0  0
  7  6  1  0  0  0  0
 11 16  2  0  0  0  0
 11 12  1  0  0  0  0
 12 13  2  0  0  0  0
 13 14  1  0  0  0  0
 13 19  1  0  0  0  0
 15  3  1  0  0  0  0
 15 14  2  0  0  0  0
 16 15  1  0  0  0  0
 17 11  1  0  0  0  0
 18 12  1  0  0  0  0
 20  7  1  0  0  0  0
 20 24  1  0  0  0  0
 21 22  1  0  0  0  0
 21 20  2  0  0  0  0
 22 23  1  0  0  0  0
 23 24  2  0  0  0  0
 23 26  1  0  0  0  0
 25 21  1  0  0  0  0
 26 27  2  0  0  0  0
 27 29  1  0  0  0  0
 27 28  1  0  0  0  0
 30 29  1  0  0  0  0
 31 30  1  0  0  0  0
 32 26  1  0  0  0  0
 32 30  2  0  0  0  0
M  END
>  <minimizedAffinity>
-5.01218605

$$$$

 OpenBabel03242511303D

 32 35  0  0  0  0  0  0  0  0999 V2000
   39.7730   26.7950   40.2670 Cl  0  0  0  0  0  0  0  0  0  0  0  0
   38.7680   27.2680   41.5990 C   0  0  0  0  0  0  0  0  0  0  0  0
   37.6130   26.5590   41.8590 C   0  0  0  0  0  0  0  0  0  0  0  0
   36.7730   26.8980   42.9140 C   0  0  0  0  0  0  0  0  0  0  0  0
   37.1670   27.9770   43.6770 C   0  0  0  0  0  0  0  0  0  0  0  0
   38.3000   28.6680   43.4180 C   0  0  0  0  0  0  0  0  0  0  0  0
   39.1260   28.3290   42.3730 C   0  0  0  0  0  0  0  0  0  0  0  0
   35.8660   26.3380   43.1150 H   0  0  0  0  0  0  0  0  0  0  0  0
   36.4970   28.2230   44.4950 H   0  0  0  0  0  0  0  0  0  0  0  0
   38.5120   29.4970   44.0800 H   0  0  0  0  0  0  0  0  0  0  0  0
   36.1920   24.5370   39.1190 C   0  0  0  0  0  0  0  0  0  0  0  0
   36.6030   23.2550   39.4510 C   0  0  0  0  0  0  0  0  0  0  0  0
   37.3580   23.0710   40.5990 C   0  0  0  0  0  0  0  0  0  0  0  0
   37.6600   24.1610   41.3430 N   0  0  0  0  0  0  0  0  0  0  0  0
   37.2520   25.4200   41.0080 C   0  0  0  0  0  0  0  0  0  0  0  0
   36.5260   25.5820   39.9020 N   0  0  0  0  0  0  0  0  0  0  0  0
   35.5960   24.7570   38.2330 H   0  0  0  0  0  0  0  0  0  0  0  0
   36.2980   22.4740   38.7800 H   0  0  0  0  0  0  0  0  0  0  0  0
   37.6700   22.0790   40.8470 H   0  0  0  0  0  0  0  0  0  0  0  0
   40.3180   29.1750   42.2210 C   0  0  0  0  0  0  0  0  0  0  0  0
   41.4770   28.8300   42.9030 C   0  0  0  0  0  0  0  0  0  0  0  0
   42.6560   30.1650   42.4020 S   0  0  0  0  0  0  0  0  0  0  0  0
   41.3190   30.9620   41.3300 C   0  0  0  0  0  0  0  0  0  0  0  0
   40.4810   30.2540   41.5170 N   0  0  0  0  0  0  0  0  0  0  0  0
   41.6900   27.9910   43.5800 H   0  0  0  0  0  0  0  0  0  0  0  0
   41.5240   32.2220   40.5120 C   0  0  0  0  0  0  0  0  0  0  0  0
   40.4810   32.7430   39.7690 C   0  0  0  0  0  0  0  0  0  0  0  0
   39.4760   32.3100   39.7140 H   0  0  0  0  0  0  0  0  0  0  0  0
   41.2540   34.1600   39.0460 S   0  0  0  0  0  0  0  0  0  0  0  0
   42.9290   33.8350   39.8780 C   0  0  0  0  0  0  0  0  0  0  0  0
   43.8300   34.4370   39.7770 H   0  0  0  0  0  0  0  0  0  0  0  0
   42.6800   32.8480   40.4860 N   0  0  0  0  0  0  0  0  0  0  0  0
  1  2  1  0  0  0  0
  2  3  2  0  0  0  0
  2  7  1  0  0  0  0
  3  4  1  0  0  0  0
  4  8  1  0  0  0  0
  4  5  2  0  0  0  0
  5  9  1  0  0  0  0
  6  5  1  0  0  0  0
  6 10  1  0  0  0  0
  7  6  2  0  0  0  0
 11 12  2  0  0  0  0
 11 16  1  0  0  0  0
 12 13  1  0  0  0  0
 13 19  1  0  0  0  0
 13 14  2  0  0  0  0
 15 14  1  0  0  0  0
 15  3  1  0  0  0  0
 16 15  2  0  0  0  0
 17 11  1  0  0  0  0
 18 12  1  0  0  0  0
 20  7  1  0  0  0  0
 20 21  2  0  0  0  0
 21 25  1  0  0  0  0
 22 21  1  0  0  0  0
 23 24  2  0  0  0  0
 23 22  1  0  0  0  0
 24 20  1  0  0  0  0
 26 23  1  0  0  0  0
 27 26  2  0  0  0  0
 28 27  1  0  0  0  0
 29 27  1  0  0  0  0
 29 30  1  0  0  0  0
 30 32  2  0  0  0  0
 31 30  1  0  0  0  0
 32 26  1  0  0  0  0
M  END
>  <minimizedAffinity>
-4.96953726

$$$$
