
 OpenBabel03252504423D

 43 46  0  0  0  0  0  0  0  0999 V2000
   46.3560   32.1960   47.8400 C   0  0  0  0  0  0  0  0  0  0  0  0
   45.8860   31.7590   49.0490 C   0  0  0  0  0  0  0  0  0  0  0  0
   46.8950   31.0880   49.6190 N   0  0  0  0  0  0  0  0  0  0  0  0
   47.9740   31.0830   48.8280 C   0  0  0  0  0  0  0  0  0  0  0  0
   47.6180   31.7850   47.7110 N   0  0  0  0  0  0  0  0  0  0  0  0
   49.2580   30.5120   48.9960 N   0  0  0  0  0  0  0  0  0  0  0  0
   50.2840   31.3110   49.6880 C   0  0  0  0  0  0  0  0  0  0  0  0
   50.3840   30.6910   51.0790 C   0  0  0  0  0  0  0  0  0  0  0  0
   50.5060   29.1920   50.9740 C   0  0  0  0  0  0  0  0  0  0  0  0
   50.8830   28.8000   49.5620 C   0  0  0  0  0  0  0  0  0  0  0  0
   49.8070   29.2370   48.6080 C   0  0  0  0  0  0  0  0  0  0  0  0
   44.9010   31.9110   49.4840 H   0  0  0  0  0  0  0  0  0  0  0  0
   46.8730   30.6210   50.5540 H   0  0  0  0  0  0  0  0  0  0  0  0
   51.2480   31.2830   49.1680 H   0  0  0  0  0  0  0  0  0  0  0  0
   49.9560   32.3690   49.7990 H   0  0  0  0  0  0  0  0  0  0  0  0
   49.5710   31.0320   51.7270 H   0  0  0  0  0  0  0  0  0  0  0  0
   51.3240   31.0360   51.5700 H   0  0  0  0  0  0  0  0  0  0  0  0
   49.5720   28.6760   51.3120 H   0  0  0  0  0  0  0  0  0  0  0  0
   51.3200   28.7720   51.6300 H   0  0  0  0  0  0  0  0  0  0  0  0
   51.0300   27.6870   49.5400 H   0  0  0  0  0  0  0  0  0  0  0  0
   51.8590   29.2540   49.3430 H   0  0  0  0  0  0  0  0  0  0  0  0
   50.1560   29.2320   47.5680 H   0  0  0  0  0  0  0  0  0  0  0  0
   48.9720   28.4890   48.7350 H   0  0  0  0  0  0  0  0  0  0  0  0
   45.6000   32.9980   46.8260 C   0  0  0  0  0  0  0  0  0  0  0  0
   45.2900   33.9850   47.2270 H   0  0  0  0  0  0  0  0  0  0  0  0
   44.6530   32.4270   46.6530 H   0  0  0  0  0  0  0  0  0  0  0  0
   45.9660   33.9200   44.5800 C   0  0  0  0  0  3  0  0  0  0  0  0
   46.3890   33.1870   45.6010 C   0  0  0  0  0  3  0  0  0  0  0  0
   46.8560   34.0260   43.4140 C   0  0  0  0  0  0  0  0  0  0  0  0
   46.7480   35.0520   42.4480 C   0  0  0  0  0  0  0  0  0  0  0  0
   47.6270   35.0700   41.3940 C   0  0  0  0  0  0  0  0  0  0  0  0
   48.5690   34.1100   41.3070 N   0  0  0  0  0  0  0  0  0  0  0  0
   48.6590   33.1360   42.2370 C   0  0  0  0  0  0  0  0  0  0  0  0
   47.8300   33.0880   43.2640 N   0  0  0  0  0  0  0  0  0  0  0  0
   45.9650   35.7800   42.5970 H   0  0  0  0  0  0  0  0  0  0  0  0
   47.5610   35.8470   40.6460 H   0  0  0  0  0  0  0  0  0  0  0  0
   49.6640   32.0490   42.2090 C   0  0  0  0  0  0  0  0  0  0  0  0
   49.7470   30.7390   42.9490 C   0  0  0  0  0  0  0  0  0  0  0  0
   48.7370   30.7560   43.6310 H   0  0  0  0  0  0  0  0  0  0  0  0
   51.3780   30.1260   42.2040 S   0  0  0  0  0  0  0  0  0  0  0  0
   51.5820   31.6690   41.1260 C   0  0  0  0  0  0  0  0  0  0  0  0
   52.5030   31.5150   40.5880 H   0  0  0  0  0  0  0  0  0  0  0  0
   50.5870   32.4460   41.3350 N   0  0  0  0  0  0  0  0  0  0  0  0
  1  2  2  0  0  0  0
  2 12  1  0  0  0  0
  2  3  1  0  0  0  0
  3 13  1  0  0  0  0
  4  6  1  0  0  0  0
  4  3  1  0  0  0  0
  5  1  1  0  0  0  0
  5  4  2  0  0  0  0
  6  7  1  0  0  0  0
  7 15  1  0  0  0  0
  7  8  1  0  0  0  0
  8 17  1  0  0  0  0
  8 16  1  0  0  0  0
  9  8  1  0  0  0  0
  9 18  1  0  0  0  0
  9 19  1  0  0  0  0
 10  9  1  0  0  0  0
 11 23  1  0  0  0  0
 11  6  1  0  0  0  0
 11 10  1  0  0  0  0
 14  7  1  0  0  0  0
 20 10  1  0  0  0  0
 21 10  1  0  0  0  0
 22 11  1  0  0  0  0
 24 25  1  0  0  0  0
 24  1  1  0  0  0  0
 26 24  1  0  0  0  0
 27 28  2  0  0  0  0
 28 24  1  0  0  0  0
 29 27  1  0  0  0  0
 30 35  1  0  0  0  0
 30 29  2  0  0  0  0
 31 30  1  0  0  0  0
 32 31  2  0  0  0  0
 32 33  1  0  0  0  0
 33 34  2  0  0  0  0
 34 29  1  0  0  0  0
 36 31  1  0  0  0  0
 37 33  1  0  0  0  0
 37 38  2  0  0  0  0
 38 39  1  0  0  0  0
 40 38  1  0  0  0  0
 41 43  2  0  0  0  0
 41 40  1  0  0  0  0
 42 41  1  0  0  0  0
 43 37  1  0  0  0  0
M  END
>  <minimizedAffinity>
-5.89487839

>  <minimizedRMSD>
0.447684824

$$$$
