
 OpenBabel03242511263D

 26 28  0  0  0  0  0  0  0  0999 V2000
   40.4930   30.2560   41.3660 Cl  0  0  0  0  0  0  0  0  0  0  0  0
   39.1540   31.1760   40.7780 C   0  0  0  0  0  0  0  0  0  0  0  0
   37.8710   30.7000   40.9280 C   0  0  0  0  0  0  0  0  0  0  0  0
   36.7570   31.4010   40.4520 C   0  0  0  0  0  0  0  0  0  0  0  0
   37.0290   32.5970   39.8250 C   0  0  0  0  0  0  0  0  0  0  0  0
   38.2910   33.0680   39.6760 C   0  0  0  0  0  0  0  0  0  0  0  0
   39.3840   32.3660   40.1510 C   0  0  0  0  0  0  0  0  0  0  0  0
   35.7860   30.9520   40.6140 H   0  0  0  0  0  0  0  0  0  0  0  0
   36.1840   33.1520   39.4500 H   0  0  0  0  0  0  0  0  0  0  0  0
   38.3870   34.0310   39.1590 H   0  0  0  0  0  0  0  0  0  0  0  0
   37.3780   28.1800   43.5790 C   0  0  0  0  0  0  0  0  0  0  0  0
   37.2500   26.9970   42.8480 C   0  0  0  0  0  0  0  0  0  0  0  0
   37.3330   27.0610   41.4660 C   0  0  0  0  0  0  0  0  0  0  0  0
   37.5320   28.2700   40.8810 N   0  0  0  0  0  0  0  0  0  0  0  0
   37.6560   29.4190   41.6040 C   0  0  0  0  0  0  0  0  0  0  0  0
   37.5760   29.3490   42.9410 N   0  0  0  0  0  0  0  0  0  0  0  0
   37.3070   28.0830   44.6580 H   0  0  0  0  0  0  0  0  0  0  0  0
   37.0910   26.0040   43.2510 H   0  0  0  0  0  0  0  0  0  0  0  0
   37.2540   26.2410   40.7620 H   0  0  0  0  0  0  0  0  0  0  0  0
   40.6660   33.0110   39.8980 C   0  0  0  0  0  0  0  0  0  0  0  0
   41.1760   33.0550   38.6110 C   0  0  0  0  0  0  0  0  0  0  0  0
   41.0170   32.7920   37.6130 H   0  0  0  0  0  0  0  0  0  0  0  0
   42.7940   33.9340   38.7950 S   0  0  0  0  0  0  0  0  0  0  0  0
   42.4790   34.0910   40.6660 C   0  0  0  0  0  0  0  0  0  0  0  0
   42.9950   34.5360   41.6780 H   0  0  0  0  0  0  0  0  0  0  0  0
   41.4810   33.5850   40.7520 N   0  0  0  0  0  0  0  0  0  0  0  0
  2  3  1  0  0  0  0
  2  1  1  0  0  0  0
  3 15  1  0  0  0  0
  4  8  1  0  0  0  0
  4  3  2  0  0  0  0
  5  4  1  0  0  0  0
  6  5  2  0  0  0  0
  6  7  1  0  0  0  0
  7  2  2  0  0  0  0
  9  5  1  0  0  0  0
 10  6  1  0  0  0  0
 11 17  1  0  0  0  0
 12 18  1  0  0  0  0
 12 11  2  0  0  0  0
 13 12  1  0  0  0  0
 14 13  2  0  0  0  0
 14 15  1  0  0  0  0
 15 16  2  0  0  0  0
 16 11  1  0  0  0  0
 19 13  1  0  0  0  0
 20  7  1  0  0  0  0
 20 26  1  0  0  0  0
 21 23  1  0  0  0  0
 21 20  2  0  0  0  0
 22 21  1  0  0  0  0
 23 24  1  0  0  0  0
 24 26  2  0  0  0  0
 24 25  1  0  0  0  0
M  END
>  <minimizedAffinity>
-4.74197626

$$$$

 OpenBabel03242511263D

 26 28  0  0  0  0  0  0  0  0999 V2000
   37.9140   27.6600   39.2560 Cl  0  0  0  0  0  0  0  0  0  0  0  0
   37.7440   27.8940   40.9590 C   0  0  0  0  0  0  0  0  0  0  0  0
   37.6090   26.8090   41.7960 C   0  0  0  0  0  0  0  0  0  0  0  0
   37.4500   26.9500   43.1790 C   0  0  0  0  0  0  0  0  0  0  0  0
   37.4380   28.2460   43.6480 C   0  0  0  0  0  0  0  0  0  0  0  0
   37.5710   29.3160   42.8270 C   0  0  0  0  0  0  0  0  0  0  0  0
   37.7270   29.1620   41.4620 C   0  0  0  0  0  0  0  0  0  0  0  0
   37.3520   26.0420   43.7600 H   0  0  0  0  0  0  0  0  0  0  0  0
   37.3170   28.3760   44.7110 H   0  0  0  0  0  0  0  0  0  0  0  0
   37.5450   30.2990   43.3130 H   0  0  0  0  0  0  0  0  0  0  0  0
   38.8070   23.5180   40.6320 C   0  0  0  0  0  0  0  0  0  0  0  0
   37.6370   22.9250   40.1550 C   0  0  0  0  0  0  0  0  0  0  0  0
   36.4540   23.6420   40.2290 C   0  0  0  0  0  0  0  0  0  0  0  0
   36.4810   24.8890   40.7640 N   0  0  0  0  0  0  0  0  0  0  0  0
   37.6300   25.4590   41.2270 C   0  0  0  0  0  0  0  0  0  0  0  0
   38.7700   24.7590   41.1510 N   0  0  0  0  0  0  0  0  0  0  0  0
   39.7100   22.9200   40.5540 H   0  0  0  0  0  0  0  0  0  0  0  0
   37.5470   21.9370   39.7170 H   0  0  0  0  0  0  0  0  0  0  0  0
   35.4690   23.3250   39.9050 H   0  0  0  0  0  0  0  0  0  0  0  0
   37.8460   30.4170   40.7290 C   0  0  0  0  0  0  0  0  0  0  0  0
   36.7270   31.2070   40.5250 C   0  0  0  0  0  0  0  0  0  0  0  0
   35.7000   31.3060   40.6930 H   0  0  0  0  0  0  0  0  0  0  0  0
   37.3600   32.6470   39.5490 S   0  0  0  0  0  0  0  0  0  0  0  0
   39.1060   31.8880   39.5920 C   0  0  0  0  0  0  0  0  0  0  0  0
   40.2430   32.1080   39.2080 H   0  0  0  0  0  0  0  0  0  0  0  0
   38.9110   30.9500   40.1790 N   0  0  0  0  0  0  0  0  0  0  0  0
  1  2  1  0  0  0  0
  2  7  2  0  0  0  0
  2  3  1  0  0  0  0
  3  4  2  0  0  0  0
  4  5  1  0  0  0  0
  4  8  1  0  0  0  0
  5  9  1  0  0  0  0
  6 10  1  0  0  0  0
  6  5  2  0  0  0  0
  7  6  1  0  0  0  0
 11 16  1  0  0  0  0
 12 13  1  0  0  0  0
 12 11  2  0  0  0  0
 13 14  2  0  0  0  0
 14 15  1  0  0  0  0
 15  3  1  0  0  0  0
 16 15  2  0  0  0  0
 17 11  1  0  0  0  0
 18 12  1  0  0  0  0
 19 13  1  0  0  0  0
 20  7  1  0  0  0  0
 21 22  1  0  0  0  0
 21 20  2  0  0  0  0
 23 24  1  0  0  0  0
 23 21  1  0  0  0  0
 24 26  2  0  0  0  0
 25 24  1  0  0  0  0
 26 20  1  0  0  0  0
M  END
>  <minimizedAffinity>
-4.65478802

$$$$

 OpenBabel03242511263D

 26 28  0  0  0  0  0  0  0  0999 V2000
   37.3760   31.0590   37.0990 Cl  0  0  0  0  0  0  0  0  0  0  0  0
   36.5110   30.3440   38.4130 C   0  0  0  0  0  0  0  0  0  0  0  0
   36.7440   30.7650   39.7030 C   0  0  0  0  0  0  0  0  0  0  0  0
   36.0820   30.2030   40.8000 C   0  0  0  0  0  0  0  0  0  0  0  0
   35.1820   29.2030   40.5040 C   0  0  0  0  0  0  0  0  0  0  0  0
   34.9500   28.7860   39.2360 C   0  0  0  0  0  0  0  0  0  0  0  0
   35.6110   29.3510   38.1600 C   0  0  0  0  0  0  0  0  0  0  0  0
   36.3270   30.5950   41.7790 H   0  0  0  0  0  0  0  0  0  0  0  0
   34.6610   28.7570   41.3370 H   0  0  0  0  0  0  0  0  0  0  0  0
   34.2120   27.9830   39.1210 H   0  0  0  0  0  0  0  0  0  0  0  0
   39.9100   32.5210   40.4170 C   0  0  0  0  0  0  0  0  0  0  0  0
   39.5210   33.8620   40.3940 C   0  0  0  0  0  0  0  0  0  0  0  0
   38.1920   34.1610   40.1390 C   0  0  0  0  0  0  0  0  0  0  0  0
   37.3260   33.1390   39.9200 N   0  0  0  0  0  0  0  0  0  0  0  0
   37.7160   31.8330   39.9440 C   0  0  0  0  0  0  0  0  0  0  0  0
   39.0040   31.5520   40.1930 N   0  0  0  0  0  0  0  0  0  0  0  0
   40.9600   32.3340   40.6200 H   0  0  0  0  0  0  0  0  0  0  0  0
   40.1590   34.7220   40.5600 H   0  0  0  0  0  0  0  0  0  0  0  0
   37.7340   35.1420   40.0870 H   0  0  0  0  0  0  0  0  0  0  0  0
   35.2490   28.7790   36.8690 C   0  0  0  0  0  0  0  0  0  0  0  0
   35.7700   27.5540   36.4850 C   0  0  0  0  0  0  0  0  0  0  0  0
   36.3900   26.7580   36.7580 H   0  0  0  0  0  0  0  0  0  0  0  0
   35.0560   27.2650   34.8020 S   0  0  0  0  0  0  0  0  0  0  0  0
   34.1390   28.9300   34.9230 C   0  0  0  0  0  0  0  0  0  0  0  0
   33.3820   29.6420   34.2830 H   0  0  0  0  0  0  0  0  0  0  0  0
   34.4680   29.2760   35.9390 N   0  0  0  0  0  0  0  0  0  0  0  0
  1  2  1  0  0  0  0
  2  3  1  0  0  0  0
  3 15  1  0  0  0  0
  3  4  2  0  0  0  0
  4  8  1  0  0  0  0
  5  4  1  0  0  0  0
  5  9  1  0  0  0  0
  6  5  2  0  0  0  0
  7  2  2  0  0  0  0
  7  6  1  0  0  0  0
 10  6  1  0  0  0  0
 11 17  1  0  0  0  0
 12 11  1  0  0  0  0
 12 18  1  0  0  0  0
 13 12  2  0  0  0  0
 14 15  2  0  0  0  0
 14 13  1  0  0  0  0
 15 16  1  0  0  0  0
 16 11  2  0  0  0  0
 19 13  1  0  0  0  0
 20  7  1  0  0  0  0
 21 22  1  0  0  0  0
 21 20  2  0  0  0  0
 23 24  1  0  0  0  0
 23 21  1  0  0  0  0
 24 26  2  0  0  0  0
 25 24  1  0  0  0  0
 26 20  1  0  0  0  0
M  END
>  <minimizedAffinity>
-4.5836792

$$$$

 OpenBabel03242511263D

 26 28  0  0  0  0  0  0  0  0999 V2000
   37.5810   27.1900   39.5490 Cl  0  0  0  0  0  0  0  0  0  0  0  0
   38.2500   27.0270   41.1330 C   0  0  0  0  0  0  0  0  0  0  0  0
   38.4060   28.1360   41.9340 C   0  0  0  0  0  0  0  0  0  0  0  0
   38.9600   28.0560   43.2160 C   0  0  0  0  0  0  0  0  0  0  0  0
   39.3380   26.7960   43.6240 C   0  0  0  0  0  0  0  0  0  0  0  0
   39.1870   25.7020   42.8390 C   0  0  0  0  0  0  0  0  0  0  0  0
   38.6370   25.7950   41.5730 C   0  0  0  0  0  0  0  0  0  0  0  0
   39.0450   28.9790   43.7760 H   0  0  0  0  0  0  0  0  0  0  0  0
   39.7680   26.7130   44.6100 H   0  0  0  0  0  0  0  0  0  0  0  0
   39.5240   24.7510   43.2690 H   0  0  0  0  0  0  0  0  0  0  0  0
   36.2900   31.0210   41.0280 C   0  0  0  0  0  0  0  0  0  0  0  0
   37.2180   31.9150   40.4890 C   0  0  0  0  0  0  0  0  0  0  0  0
   38.5490   31.5350   40.4350 C   0  0  0  0  0  0  0  0  0  0  0  0
   38.8970   30.3120   40.9100 N   0  0  0  0  0  0  0  0  0  0  0  0
   37.9830   29.4460   41.4350 C   0  0  0  0  0  0  0  0  0  0  0  0
   36.6970   29.8210   41.4820 N   0  0  0  0  0  0  0  0  0  0  0  0
   35.2590   31.3590   41.0500 H   0  0  0  0  0  0  0  0  0  0  0  0
   37.0070   32.9020   40.0930 H   0  0  0  0  0  0  0  0  0  0  0  0
   39.3840   32.1090   40.0500 H   0  0  0  0  0  0  0  0  0  0  0  0
   38.5560   24.5250   40.8620 C   0  0  0  0  0  0  0  0  0  0  0  0
   37.6440   23.5630   41.2650 C   0  0  0  0  0  0  0  0  0  0  0  0
   36.8890   23.3260   41.9470 H   0  0  0  0  0  0  0  0  0  0  0  0
   37.9260   22.1540   40.1000 S   0  0  0  0  0  0  0  0  0  0  0  0
   39.2920   23.1610   39.2360 C   0  0  0  0  0  0  0  0  0  0  0  0
   40.0910   23.0790   38.3180 H   0  0  0  0  0  0  0  0  0  0  0  0
   39.2650   24.1080   39.8400 N   0  0  0  0  0  0  0  0  0  0  0  0
  1  2  1  0  0  0  0
  2  7  2  0  0  0  0
  2  3  1  0  0  0  0
  3  4  2  0  0  0  0
  4  5  1  0  0  0  0
  4  8  1  0  0  0  0
  5  9  1  0  0  0  0
  6 10  1  0  0  0  0
  6  5  2  0  0  0  0
  7  6  1  0  0  0  0
 11 17  1  0  0  0  0
 11 16  1  0  0  0  0
 12 11  2  0  0  0  0
 13 12  1  0  0  0  0
 13 14  2  0  0  0  0
 14 15  1  0  0  0  0
 15 16  2  0  0  0  0
 15  3  1  0  0  0  0
 18 12  1  0  0  0  0
 19 13  1  0  0  0  0
 20 21  2  0  0  0  0
 20  7  1  0  0  0  0
 21 22  1  0  0  0  0
 23 21  1  0  0  0  0
 24 26  2  0  0  0  0
 24 23  1  0  0  0  0
 25 24  1  0  0  0  0
 26 20  1  0  0  0  0
M  END
>  <minimizedAffinity>
-4.58326197

$$$$

 OpenBabel03242511263D

 26 28  0  0  0  0  0  0  0  0999 V2000
   39.7300   30.1100   40.9450 Cl  0  0  0  0  0  0  0  0  0  0  0  0
   38.5370   30.2550   39.7040 C   0  0  0  0  0  0  0  0  0  0  0  0
   37.4700   29.3860   39.6670 C   0  0  0  0  0  0  0  0  0  0  0  0
   36.4890   29.4530   38.6720 C   0  0  0  0  0  0  0  0  0  0  0  0
   36.6610   30.4460   37.7320 C   0  0  0  0  0  0  0  0  0  0  0  0
   37.7100   31.3030   37.7650 C   0  0  0  0  0  0  0  0  0  0  0  0
   38.6720   31.2260   38.7560 C   0  0  0  0  0  0  0  0  0  0  0  0
   35.6850   28.7290   38.7210 H   0  0  0  0  0  0  0  0  0  0  0  0
   35.9150   30.5140   36.9560 H   0  0  0  0  0  0  0  0  0  0  0  0
   37.7430   32.0520   36.9650 H   0  0  0  0  0  0  0  0  0  0  0  0
   37.7590   26.1650   41.4480 C   0  0  0  0  0  0  0  0  0  0  0  0
   37.1120   26.4320   42.6560 C   0  0  0  0  0  0  0  0  0  0  0  0
   36.5820   27.6960   42.8580 C   0  0  0  0  0  0  0  0  0  0  0  0
   36.7160   28.6230   41.8750 N   0  0  0  0  0  0  0  0  0  0  0  0
   37.3510   28.3530   40.6990 C   0  0  0  0  0  0  0  0  0  0  0  0
   37.8590   27.1260   40.5110 N   0  0  0  0  0  0  0  0  0  0  0  0
   38.1590   25.1630   41.3320 H   0  0  0  0  0  0  0  0  0  0  0  0
   36.9700   25.7400   43.4780 H   0  0  0  0  0  0  0  0  0  0  0  0
   36.0550   28.0590   43.7330 H   0  0  0  0  0  0  0  0  0  0  0  0
   39.7340   32.2170   38.6360 C   0  0  0  0  0  0  0  0  0  0  0  0
   40.6740   32.1050   37.6240 C   0  0  0  0  0  0  0  0  0  0  0  0
   40.9910   31.5440   36.8020 H   0  0  0  0  0  0  0  0  0  0  0  0
   41.8020   33.5470   37.8910 S   0  0  0  0  0  0  0  0  0  0  0  0
   40.7540   34.0690   39.3940 C   0  0  0  0  0  0  0  0  0  0  0  0
   40.6990   34.9310   40.2550 H   0  0  0  0  0  0  0  0  0  0  0  0
   39.9710   33.2640   39.3910 N   0  0  0  0  0  0  0  0  0  0  0  0
  2  1  1  0  0  0  0
  3  2  1  0  0  0  0
  3 15  1  0  0  0  0
  4  8  1  0  0  0  0
  4  3  2  0  0  0  0
  5  6  2  0  0  0  0
  5  4  1  0  0  0  0
  6  7  1  0  0  0  0
  7  2  2  0  0  0  0
  9  5  1  0  0  0  0
 10  6  1  0  0  0  0
 11 12  1  0  0  0  0
 12 13  2  0  0  0  0
 12 18  1  0  0  0  0
 13 19  1  0  0  0  0
 14 13  1  0  0  0  0
 15 14  2  0  0  0  0
 16 15  1  0  0  0  0
 16 11  2  0  0  0  0
 17 11  1  0  0  0  0
 20  7  1  0  0  0  0
 20 26  1  0  0  0  0
 21 23  1  0  0  0  0
 21 20  2  0  0  0  0
 22 21  1  0  0  0  0
 23 24  1  0  0  0  0
 24 25  1  0  0  0  0
 26 24  2  0  0  0  0
M  END
>  <minimizedAffinity>
-4.51677942

$$$$

 OpenBabel03242511263D

 26 28  0  0  0  0  0  0  0  0999 V2000
   40.8180   30.3850   40.8170 Cl  0  0  0  0  0  0  0  0  0  0  0  0
   39.3100   31.1290   40.4250 C   0  0  0  0  0  0  0  0  0  0  0  0
   39.2840   32.2840   39.6760 C   0  0  0  0  0  0  0  0  0  0  0  0
   38.0880   32.9330   39.3490 C   0  0  0  0  0  0  0  0  0  0  0  0
   36.9390   32.3400   39.8260 C   0  0  0  0  0  0  0  0  0  0  0  0
   36.9610   31.2040   40.5640 C   0  0  0  0  0  0  0  0  0  0  0  0
   38.1500   30.5720   40.8800 C   0  0  0  0  0  0  0  0  0  0  0  0
   38.1620   33.8350   38.7560 H   0  0  0  0  0  0  0  0  0  0  0  0
   36.0070   32.8260   39.5860 H   0  0  0  0  0  0  0  0  0  0  0  0
   35.9850   30.8240   40.8900 H   0  0  0  0  0  0  0  0  0  0  0  0
   42.4610   34.1610   39.5850 C   0  0  0  0  0  0  0  0  0  0  0  0
   42.9090   33.9280   38.2840 C   0  0  0  0  0  0  0  0  0  0  0  0
   42.1340   33.1400   37.4480 C   0  0  0  0  0  0  0  0  0  0  0  0
   40.9740   32.6260   37.9290 N   0  0  0  0  0  0  0  0  0  0  0  0
   40.5450   32.8600   39.2020 C   0  0  0  0  0  0  0  0  0  0  0  0
   41.2990   33.6240   40.0040 N   0  0  0  0  0  0  0  0  0  0  0  0
   43.0980   34.7840   40.2050 H   0  0  0  0  0  0  0  0  0  0  0  0
   43.8220   34.3070   37.8390 H   0  0  0  0  0  0  0  0  0  0  0  0
   42.3410   32.8670   36.4200 H   0  0  0  0  0  0  0  0  0  0  0  0
   37.9930   29.3690   41.6870 C   0  0  0  0  0  0  0  0  0  0  0  0
   38.0710   28.1210   41.0910 C   0  0  0  0  0  0  0  0  0  0  0  0
   38.2160   27.6020   40.1960 H   0  0  0  0  0  0  0  0  0  0  0  0
   37.7910   26.9350   42.4840 S   0  0  0  0  0  0  0  0  0  0  0  0
   37.6080   28.4060   43.6800 C   0  0  0  0  0  0  0  0  0  0  0  0
   37.4000   28.6480   44.8570 H   0  0  0  0  0  0  0  0  0  0  0  0
   37.7560   29.2670   42.9740 N   0  0  0  0  0  0  0  0  0  0  0  0
  2  1  1  0  0  0  0
  2  7  1  0  0  0  0
  3  2  2  0  0  0  0
  4  3  1  0  0  0  0
  4  5  2  0  0  0  0
  5  6  1  0  0  0  0
  6  7  2  0  0  0  0
  6 10  1  0  0  0  0
  7 20  1  0  0  0  0
  8  4  1  0  0  0  0
  9  5  1  0  0  0  0
 11 16  1  0  0  0  0
 11 17  1  0  0  0  0
 12 11  2  0  0  0  0
 13 14  2  0  0  0  0
 13 12  1  0  0  0  0
 14 15  1  0  0  0  0
 15  3  1  0  0  0  0
 15 16  2  0  0  0  0
 18 12  1  0  0  0  0
 19 13  1  0  0  0  0
 20 26  1  0  0  0  0
 21 20  2  0  0  0  0
 21 23  1  0  0  0  0
 22 21  1  0  0  0  0
 23 24  1  0  0  0  0
 24 25  1  0  0  0  0
 26 24  2  0  0  0  0
M  END
>  <minimizedAffinity>
-4.50545979

$$$$

 OpenBabel03242511263D

 26 28  0  0  0  0  0  0  0  0999 V2000
   38.6770   29.4430   39.7680 Cl  0  0  0  0  0  0  0  0  0  0  0  0
   38.0910   28.7750   41.2490 C   0  0  0  0  0  0  0  0  0  0  0  0
   36.8670   28.1460   41.2870 C   0  0  0  0  0  0  0  0  0  0  0  0
   36.3430   27.6060   42.4660 C   0  0  0  0  0  0  0  0  0  0  0  0
   37.1330   27.7450   43.5870 C   0  0  0  0  0  0  0  0  0  0  0  0
   38.3380   28.3630   43.5540 C   0  0  0  0  0  0  0  0  0  0  0  0
   38.8450   28.8920   42.3800 C   0  0  0  0  0  0  0  0  0  0  0  0
   35.3730   27.1300   42.4040 H   0  0  0  0  0  0  0  0  0  0  0  0
   36.7470   27.3360   44.5070 H   0  0  0  0  0  0  0  0  0  0  0  0
   38.8780   28.4150   44.5070 H   0  0  0  0  0  0  0  0  0  0  0  0
   34.4370   28.8800   38.6070 C   0  0  0  0  0  0  0  0  0  0  0  0
   34.6150   27.8020   37.7380 C   0  0  0  0  0  0  0  0  0  0  0  0
   35.5540   26.8360   38.0650 C   0  0  0  0  0  0  0  0  0  0  0  0
   36.2610   26.9790   39.2140 N   0  0  0  0  0  0  0  0  0  0  0  0
   36.0800   28.0360   40.0570 C   0  0  0  0  0  0  0  0  0  0  0  0
   35.1690   28.9650   39.7330 N   0  0  0  0  0  0  0  0  0  0  0  0
   33.6920   29.6120   38.3120 H   0  0  0  0  0  0  0  0  0  0  0  0
   34.0850   27.6280   36.8090 H   0  0  0  0  0  0  0  0  0  0  0  0
   35.8090   25.9460   37.5010 H   0  0  0  0  0  0  0  0  0  0  0  0
   40.1480   29.5290   42.5250 C   0  0  0  0  0  0  0  0  0  0  0  0
   40.2340   30.9040   42.6710 C   0  0  0  0  0  0  0  0  0  0  0  0
   39.6970   31.7970   42.7330 H   0  0  0  0  0  0  0  0  0  0  0  0
   42.0500   31.2340   42.7930 S   0  0  0  0  0  0  0  0  0  0  0  0
   42.3870   29.3680   42.6140 C   0  0  0  0  0  0  0  0  0  0  0  0
   43.3110   28.5730   42.5760 H   0  0  0  0  0  0  0  0  0  0  0  0
   41.3380   28.9760   42.5240 N   0  0  0  0  0  0  0  0  0  0  0  0
  1  2  1  0  0  0  0
  2  3  2  0  0  0  0
  2  7  1  0  0  0  0
  3  4  1  0  0  0  0
  4  5  2  0  0  0  0
  5  9  1  0  0  0  0
  6  5  1  0  0  0  0
  6 10  1  0  0  0  0
  7 20  1  0  0  0  0
  7  6  2  0  0  0  0
  8  4  1  0  0  0  0
 11 16  1  0  0  0  0
 12 13  1  0  0  0  0
 12 11  2  0  0  0  0
 13 14  2  0  0  0  0
 14 15  1  0  0  0  0
 15  3  1  0  0  0  0
 16 15  2  0  0  0  0
 17 11  1  0  0  0  0
 18 12  1  0  0  0  0
 19 13  1  0  0  0  0
 20 21  2  0  0  0  0
 21 22  1  0  0  0  0
 21 23  1  0  0  0  0
 24 23  1  0  0  0  0
 25 24  1  0  0  0  0
 26 20  1  0  0  0  0
 26 24  2  0  0  0  0
M  END
>  <minimizedAffinity>
-4.43320513

$$$$

 OpenBabel03242511263D

 26 28  0  0  0  0  0  0  0  0999 V2000
   39.3020   29.8140   40.2130 Cl  0  0  0  0  0  0  0  0  0  0  0  0
   38.8510   31.4800   40.1400 C   0  0  0  0  0  0  0  0  0  0  0  0
   37.5870   31.8350   39.7250 C   0  0  0  0  0  0  0  0  0  0  0  0
   37.1820   33.1710   39.6320 C   0  0  0  0  0  0  0  0  0  0  0  0
   38.1310   34.1060   39.9830 C   0  0  0  0  0  0  0  0  0  0  0  0
   39.3760   33.7600   40.3920 C   0  0  0  0  0  0  0  0  0  0  0  0
   39.7630   32.4350   40.4800 C   0  0  0  0  0  0  0  0  0  0  0  0
   36.1710   33.3580   39.2970 H   0  0  0  0  0  0  0  0  0  0  0  0
   37.8390   35.1420   39.9180 H   0  0  0  0  0  0  0  0  0  0  0  0
   40.0460   34.5900   40.6460 H   0  0  0  0  0  0  0  0  0  0  0  0
   35.6510   29.3880   37.7540 C   0  0  0  0  0  0  0  0  0  0  0  0
   34.8200   28.8160   38.7200 C   0  0  0  0  0  0  0  0  0  0  0  0
   34.9210   29.2610   40.0280 C   0  0  0  0  0  0  0  0  0  0  0  0
   35.8230   30.2340   40.3160 N   0  0  0  0  0  0  0  0  0  0  0  0
   36.6300   30.7870   39.3650 C   0  0  0  0  0  0  0  0  0  0  0  0
   36.5250   30.3510   38.1020 N   0  0  0  0  0  0  0  0  0  0  0  0
   35.5380   29.0090   36.7430 H   0  0  0  0  0  0  0  0  0  0  0  0
   34.0820   28.0400   38.5570 H   0  0  0  0  0  0  0  0  0  0  0  0
   34.3540   28.9220   40.8860 H   0  0  0  0  0  0  0  0  0  0  0  0
   41.1370   32.2420   40.9280 C   0  0  0  0  0  0  0  0  0  0  0  0
   42.1900   32.6070   40.1050 C   0  0  0  0  0  0  0  0  0  0  0  0
   42.4590   33.0170   39.1830 H   0  0  0  0  0  0  0  0  0  0  0  0
   43.7000   32.1590   41.0760 S   0  0  0  0  0  0  0  0  0  0  0  0
   42.5870   31.5270   42.4870 C   0  0  0  0  0  0  0  0  0  0  0  0
   42.6590   31.0250   43.5960 H   0  0  0  0  0  0  0  0  0  0  0  0
   41.5700   31.7290   42.0550 N   0  0  0  0  0  0  0  0  0  0  0  0
  2  1  1  0  0  0  0
  2  7  1  0  0  0  0
  3  2  2  0  0  0  0
  4  3  1  0  0  0  0
  4  5  2  0  0  0  0
  5  6  1  0  0  0  0
  6  7  2  0  0  0  0
  6 10  1  0  0  0  0
  7 20  1  0  0  0  0
  8  4  1  0  0  0  0
  9  5  1  0  0  0  0
 11 16  2  0  0  0  0
 11 12  1  0  0  0  0
 12 13  2  0  0  0  0
 13 14  1  0  0  0  0
 13 19  1  0  0  0  0
 15  3  1  0  0  0  0
 15 14  2  0  0  0  0
 16 15  1  0  0  0  0
 17 11  1  0  0  0  0
 18 12  1  0  0  0  0
 20 26  1  0  0  0  0
 21 20  2  0  0  0  0
 21 23  1  0  0  0  0
 22 21  1  0  0  0  0
 23 24  1  0  0  0  0
 24 25  1  0  0  0  0
 26 24  2  0  0  0  0
M  END
>  <minimizedAffinity>
-4.4319663

$$$$

 OpenBabel03242511263D

 26 28  0  0  0  0  0  0  0  0999 V2000
   39.7650   27.2600   40.3880 Cl  0  0  0  0  0  0  0  0  0  0  0  0
   38.6050   27.4630   41.6520 C   0  0  0  0  0  0  0  0  0  0  0  0
   38.6020   28.6130   42.4080 C   0  0  0  0  0  0  0  0  0  0  0  0
   37.6950   28.8140   43.4540 C   0  0  0  0  0  0  0  0  0  0  0  0
   36.8050   27.7860   43.6760 C   0  0  0  0  0  0  0  0  0  0  0  0
   36.8050   26.6530   42.9340 C   0  0  0  0  0  0  0  0  0  0  0  0
   37.7080   26.4670   41.9020 C   0  0  0  0  0  0  0  0  0  0  0  0
   37.7640   29.7490   43.9960 H   0  0  0  0  0  0  0  0  0  0  0  0
   36.0970   27.9220   44.4780 H   0  0  0  0  0  0  0  0  0  0  0  0
   36.0510   25.9020   43.2020 H   0  0  0  0  0  0  0  0  0  0  0  0
   40.2300   31.5550   40.8850 C   0  0  0  0  0  0  0  0  0  0  0  0
   41.4320   31.6310   41.5920 C   0  0  0  0  0  0  0  0  0  0  0  0
   41.6830   30.6880   42.5750 C   0  0  0  0  0  0  0  0  0  0  0  0
   40.7500   29.7310   42.8120 N   0  0  0  0  0  0  0  0  0  0  0  0
   39.5790   29.6650   42.1170 C   0  0  0  0  0  0  0  0  0  0  0  0
   39.3440   30.5810   41.1660 N   0  0  0  0  0  0  0  0  0  0  0  0
   40.0750   32.3140   40.1250 H   0  0  0  0  0  0  0  0  0  0  0  0
   42.2160   32.3660   41.4520 H   0  0  0  0  0  0  0  0  0  0  0  0
   42.5600   30.6100   43.2070 H   0  0  0  0  0  0  0  0  0  0  0  0
   37.5750   25.1880   41.2140 C   0  0  0  0  0  0  0  0  0  0  0  0
   38.4460   24.1520   41.5060 C   0  0  0  0  0  0  0  0  0  0  0  0
   39.2640   23.8520   42.0830 H   0  0  0  0  0  0  0  0  0  0  0  0
   37.9070   22.7780   40.3900 S   0  0  0  0  0  0  0  0  0  0  0  0
   36.5350   23.9020   39.6940 C   0  0  0  0  0  0  0  0  0  0  0  0
   35.6250   23.8920   38.8830 H   0  0  0  0  0  0  0  0  0  0  0  0
   36.7140   24.8390   40.2880 N   0  0  0  0  0  0  0  0  0  0  0  0
  1  2  1  0  0  0  0
  2  7  2  0  0  0  0
  2  3  1  0  0  0  0
  3  4  2  0  0  0  0
  4  5  1  0  0  0  0
  4  8  1  0  0  0  0
  5  9  1  0  0  0  0
  6 10  1  0  0  0  0
  6  5  2  0  0  0  0
  7  6  1  0  0  0  0
 11 16  2  0  0  0  0
 11 12  1  0  0  0  0
 12 13  2  0  0  0  0
 13 14  1  0  0  0  0
 13 19  1  0  0  0  0
 15  3  1  0  0  0  0
 15 14  2  0  0  0  0
 16 15  1  0  0  0  0
 17 11  1  0  0  0  0
 18 12  1  0  0  0  0
 20 21  2  0  0  0  0
 20  7  1  0  0  0  0
 21 22  1  0  0  0  0
 23 21  1  0  0  0  0
 24 26  2  0  0  0  0
 24 23  1  0  0  0  0
 25 24  1  0  0  0  0
 26 20  1  0  0  0  0
M  END
>  <minimizedAffinity>
-4.43123531

$$$$
