
 OpenBabel03252505203D

 32 35  0  0  0  0  0  0  0  0999 V2000
   39.8700   26.5900   43.6800 C   0  0  0  0  0  0  0  0  0  0  0  0
   39.6980   25.2630   43.2270 C   0  0  0  0  0  0  0  0  0  0  0  0
   38.7830   25.0840   42.2140 C   0  0  0  0  0  0  0  0  0  0  0  0
   38.0920   26.1460   41.6960 N   0  0  0  0  0  0  0  0  0  0  0  0
   38.2880   27.4210   42.1660 C   0  0  0  0  0  0  0  0  0  0  0  0
   39.1720   27.6300   43.1490 N   0  0  0  0  0  0  0  0  0  0  0  0
   40.5940   26.7170   44.4780 H   0  0  0  0  0  0  0  0  0  0  0  0
   40.2360   24.4400   43.6320 H   0  0  0  0  0  0  0  0  0  0  0  0
   37.5280   28.5190   41.5770 C   0  0  0  0  0  0  0  0  0  0  0  0
   36.2120   28.3190   41.2570 C   0  0  0  0  0  0  0  0  0  0  0  0
   35.4750   29.3370   40.6990 C   0  0  0  0  0  0  0  0  0  0  0  0
   36.1060   30.5460   40.4800 C   0  0  0  0  0  0  0  0  0  0  0  0
   37.4540   30.7110   40.8220 C   0  0  0  0  0  0  0  0  0  0  0  0
   38.1440   29.6840   41.3690 N   0  0  0  0  0  0  0  0  0  0  0  0
   35.7420   27.3620   41.4380 H   0  0  0  0  0  0  0  0  0  0  0  0
   34.4390   29.1980   40.4400 H   0  0  0  0  0  0  0  0  0  0  0  0
   35.5680   31.3770   40.0440 H   0  0  0  0  0  0  0  0  0  0  0  0
   38.1220   32.0110   40.5830 C   0  0  0  0  0  0  0  0  0  0  0  0
   39.5190   32.1710   40.8920 C   0  0  0  0  0  0  0  0  0  0  0  0
   40.1790   31.4500   41.2900 H   0  0  0  0  0  0  0  0  0  0  0  0
   39.8250   33.8900   40.4280 S   0  0  0  0  0  0  0  0  0  0  0  0
   38.0180   34.1320   39.8860 C   0  0  0  0  0  0  0  0  0  0  0  0
   37.4710   35.0160   39.4660 H   0  0  0  0  0  0  0  0  0  0  0  0
   37.5100   33.0640   40.0930 N   0  0  0  0  0  0  0  0  0  0  0  0
   38.5580   23.7170   41.6480 C   0  0  0  0  0  0  0  0  0  0  0  0
   37.2340   23.5920   40.9010 C   0  0  0  0  0  0  0  0  0  0  0  0
   38.6420   23.5260   40.2210 C   0  0  0  0  0  0  0  0  0  0  0  0
   38.6300   22.9210   42.4240 H   0  0  0  0  0  0  0  0  0  0  0  0
   36.6630   24.5020   40.6830 H   0  0  0  0  0  0  0  0  0  0  0  0
   36.6790   22.6520   40.9380 H   0  0  0  0  0  0  0  0  0  0  0  0
   38.8920   22.5050   39.8080 H   0  0  0  0  0  0  0  0  0  0  0  0
   38.9160   24.3590   39.5780 H   0  0  0  0  0  0  0  0  0  0  0  0
  1  7  1  0  0  0  0
  2  8  1  0  0  0  0
  2  1  1  0  0  0  0
  3  2  2  0  0  0  0
  4  5  2  0  0  0  0
  4  3  1  0  0  0  0
  5  6  1  0  0  0  0
  6  1  2  0  0  0  0
  9  5  1  0  0  0  0
 10 15  1  0  0  0  0
 10  9  2  0  0  0  0
 11 10  1  0  0  0  0
 12 11  2  0  0  0  0
 12 13  1  0  0  0  0
 13 14  2  0  0  0  0
 14  9  1  0  0  0  0
 16 11  1  0  0  0  0
 17 12  1  0  0  0  0
 18 13  1  0  0  0  0
 18 19  2  0  0  0  0
 19 20  1  0  0  0  0
 21 19  1  0  0  0  0
 22 24  2  0  0  0  0
 22 21  1  0  0  0  0
 23 22  1  0  0  0  0
 24 18  1  0  0  0  0
 25  3  1  0  0  0  0
 25 28  1  0  0  0  0
 26 30  1  0  0  0  0
 26 25  1  0  0  0  0
 27 26  1  0  0  0  0
 27 25  1  0  0  0  0
 29 26  1  0  0  0  0
 31 27  1  0  0  0  0
 32 27  1  0  0  0  0
M  END
>  <minimizedAffinity>
-5.4024334

$$$$

 OpenBabel03252505203D

 32 35  0  0  0  0  0  0  0  0999 V2000
   37.3230   28.5380   43.6780 C   0  0  0  0  0  0  0  0  0  0  0  0
   37.1520   27.1370   43.6100 C   0  0  0  0  0  0  0  0  0  0  0  0
   37.0760   26.5990   42.3450 C   0  0  0  0  0  0  0  0  0  0  0  0
   37.1610   27.3960   41.2360 N   0  0  0  0  0  0  0  0  0  0  0  0
   37.3270   28.7540   41.3460 C   0  0  0  0  0  0  0  0  0  0  0  0
   37.4060   29.3100   42.5610 N   0  0  0  0  0  0  0  0  0  0  0  0
   37.3820   28.9490   44.6800 H   0  0  0  0  0  0  0  0  0  0  0  0
   37.0860   26.5210   44.4730 H   0  0  0  0  0  0  0  0  0  0  0  0
   37.4150   29.5590   40.1320 C   0  0  0  0  0  0  0  0  0  0  0  0
   36.4920   29.3670   39.1390 C   0  0  0  0  0  0  0  0  0  0  0  0
   36.5560   30.1110   37.9840 C   0  0  0  0  0  0  0  0  0  0  0  0
   37.5680   31.0420   37.8710 C   0  0  0  0  0  0  0  0  0  0  0  0
   38.4930   31.2100   38.9100 C   0  0  0  0  0  0  0  0  0  0  0  0
   38.3960   30.4580   40.0300 N   0  0  0  0  0  0  0  0  0  0  0  0
   35.7090   28.6300   39.2520 H   0  0  0  0  0  0  0  0  0  0  0  0
   35.8390   29.9730   37.1920 H   0  0  0  0  0  0  0  0  0  0  0  0
   37.6590   31.6520   36.9820 H   0  0  0  0  0  0  0  0  0  0  0  0
   39.5750   32.2120   38.7790 C   0  0  0  0  0  0  0  0  0  0  0  0
   39.7460   33.2250   39.7880 C   0  0  0  0  0  0  0  0  0  0  0  0
   39.1740   33.3660   40.6630 H   0  0  0  0  0  0  0  0  0  0  0  0
   41.1620   34.1580   39.1660 S   0  0  0  0  0  0  0  0  0  0  0  0
   41.3100   33.0380   37.6360 C   0  0  0  0  0  0  0  0  0  0  0  0
   42.0180   33.0420   36.7670 H   0  0  0  0  0  0  0  0  0  0  0  0
   40.4210   32.2430   37.7750 N   0  0  0  0  0  0  0  0  0  0  0  0
   36.9270   25.1190   42.1750 C   0  0  0  0  0  0  0  0  0  0  0  0
   36.9140   24.6860   40.7120 C   0  0  0  0  0  0  0  0  0  0  0  0
   38.0590   24.3480   41.7220 C   0  0  0  0  0  0  0  0  0  0  0  0
   36.0260   24.7230   42.6940 H   0  0  0  0  0  0  0  0  0  0  0  0
   37.1840   25.4190   39.9420 H   0  0  0  0  0  0  0  0  0  0  0  0
   36.2880   23.8460   40.4020 H   0  0  0  0  0  0  0  0  0  0  0  0
   38.1220   23.2490   41.9750 H   0  0  0  0  0  0  0  0  0  0  0  0
   39.0170   24.8360   41.5600 H   0  0  0  0  0  0  0  0  0  0  0  0
  1  7  1  0  0  0  0
  2  1  1  0  0  0  0
  2  8  1  0  0  0  0
  3  2  2  0  0  0  0
  4  5  2  0  0  0  0
  4  3  1  0  0  0  0
  5  6  1  0  0  0  0
  6  1  2  0  0  0  0
  9  5  1  0  0  0  0
 10 15  1  0  0  0  0
 10  9  2  0  0  0  0
 11 10  1  0  0  0  0
 12 11  2  0  0  0  0
 12 13  1  0  0  0  0
 13 14  2  0  0  0  0
 14  9  1  0  0  0  0
 16 11  1  0  0  0  0
 17 12  1  0  0  0  0
 18 13  1  0  0  0  0
 18 19  2  0  0  0  0
 19 20  1  0  0  0  0
 21 19  1  0  0  0  0
 22 24  2  0  0  0  0
 22 21  1  0  0  0  0
 23 22  1  0  0  0  0
 24 18  1  0  0  0  0
 25  3  1  0  0  0  0
 25 28  1  0  0  0  0
 26 27  1  0  0  0  0
 26 25  1  0  0  0  0
 27 31  1  0  0  0  0
 27 25  1  0  0  0  0
 29 26  1  0  0  0  0
 30 26  1  0  0  0  0
 32 27  1  0  0  0  0
M  END
>  <minimizedAffinity>
-5.32703876

$$$$

 OpenBabel03252505203D

 32 35  0  0  0  0  0  0  0  0999 V2000
   36.6550   27.7460   38.9350 C   0  0  0  0  0  0  0  0  0  0  0  0
   36.6560   27.0050   40.1380 C   0  0  0  0  0  0  0  0  0  0  0  0
   37.0910   27.6750   41.2600 C   0  0  0  0  0  0  0  0  0  0  0  0
   37.4950   28.9800   41.1850 N   0  0  0  0  0  0  0  0  0  0  0  0
   37.4790   29.6640   39.9960 C   0  0  0  0  0  0  0  0  0  0  0  0
   37.0610   29.0430   38.8860 N   0  0  0  0  0  0  0  0  0  0  0  0
   36.3100   27.2060   38.0600 H   0  0  0  0  0  0  0  0  0  0  0  0
   36.3420   25.9910   40.1920 H   0  0  0  0  0  0  0  0  0  0  0  0
   37.9180   31.0560   39.9710 C   0  0  0  0  0  0  0  0  0  0  0  0
   37.0290   32.0260   39.5930 C   0  0  0  0  0  0  0  0  0  0  0  0
   37.4190   33.3450   39.5590 C   0  0  0  0  0  0  0  0  0  0  0  0
   38.7190   33.6420   39.9160 C   0  0  0  0  0  0  0  0  0  0  0  0
   39.5980   32.6210   40.2970 C   0  0  0  0  0  0  0  0  0  0  0  0
   39.1750   31.3360   40.3180 N   0  0  0  0  0  0  0  0  0  0  0  0
   36.0160   31.7650   39.3180 H   0  0  0  0  0  0  0  0  0  0  0  0
   36.7330   34.1210   39.2640 H   0  0  0  0  0  0  0  0  0  0  0  0
   39.0720   34.6640   39.9060 H   0  0  0  0  0  0  0  0  0  0  0  0
   40.9910   32.9500   40.6780 C   0  0  0  0  0  0  0  0  0  0  0  0
   41.6350   34.1100   40.1220 C   0  0  0  0  0  0  0  0  0  0  0  0
   41.2340   34.8050   39.4360 H   0  0  0  0  0  0  0  0  0  0  0  0
   43.2690   34.0540   40.8910 S   0  0  0  0  0  0  0  0  0  0  0  0
   42.8340   32.4710   41.8500 C   0  0  0  0  0  0  0  0  0  0  0  0
   43.4200   31.8420   42.5690 H   0  0  0  0  0  0  0  0  0  0  0  0
   41.7040   32.2340   41.5180 N   0  0  0  0  0  0  0  0  0  0  0  0
   37.0950   26.9790   42.5850 C   0  0  0  0  0  0  0  0  0  0  0  0
   37.9010   27.7240   43.6450 C   0  0  0  0  0  0  0  0  0  0  0  0
   36.3460   27.5490   43.6790 C   0  0  0  0  0  0  0  0  0  0  0  0
   37.4530   25.9270   42.5090 H   0  0  0  0  0  0  0  0  0  0  0  0
   38.2420   28.7430   43.4300 H   0  0  0  0  0  0  0  0  0  0  0  0
   38.4600   27.1600   44.3950 H   0  0  0  0  0  0  0  0  0  0  0  0
   35.9890   26.8820   44.5170 H   0  0  0  0  0  0  0  0  0  0  0  0
   35.7470   28.4420   43.5180 H   0  0  0  0  0  0  0  0  0  0  0  0
  1  2  1  0  0  0  0
  2  8  1  0  0  0  0
  2  3  2  0  0  0  0
  3 25  1  0  0  0  0
  4  3  1  0  0  0  0
  5  4  2  0  0  0  0
  6  1  2  0  0  0  0
  6  5  1  0  0  0  0
  7  1  1  0  0  0  0
  9  5  1  0  0  0  0
  9 14  1  0  0  0  0
 10  9  2  0  0  0  0
 11 10  1  0  0  0  0
 11 12  2  0  0  0  0
 12 13  1  0  0  0  0
 13 14  2  0  0  0  0
 13 18  1  0  0  0  0
 15 10  1  0  0  0  0
 16 11  1  0  0  0  0
 17 12  1  0  0  0  0
 18 24  1  0  0  0  0
 19 18  2  0  0  0  0
 19 21  1  0  0  0  0
 20 19  1  0  0  0  0
 21 22  1  0  0  0  0
 22 23  1  0  0  0  0
 24 22  2  0  0  0  0
 25 26  1  0  0  0  0
 25 27  1  0  0  0  0
 26 27  1  0  0  0  0
 26 30  1  0  0  0  0
 27 31  1  0  0  0  0
 28 25  1  0  0  0  0
 29 26  1  0  0  0  0
 32 27  1  0  0  0  0
M  END
>  <minimizedAffinity>
-5.29736519

$$$$

 OpenBabel03252505203D

 32 35  0  0  0  0  0  0  0  0999 V2000
   36.6550   27.3000   38.7790 C   0  0  0  0  0  0  0  0  0  0  0  0
   36.6500   26.6120   40.0130 C   0  0  0  0  0  0  0  0  0  0  0  0
   37.0630   27.3350   41.1090 C   0  0  0  0  0  0  0  0  0  0  0  0
   37.4510   28.6410   40.9830 N   0  0  0  0  0  0  0  0  0  0  0  0
   37.4410   29.2730   39.7640 C   0  0  0  0  0  0  0  0  0  0  0  0
   37.0450   28.5980   38.6780 N   0  0  0  0  0  0  0  0  0  0  0  0
   36.3270   26.7180   37.9240 H   0  0  0  0  0  0  0  0  0  0  0  0
   36.3480   25.5970   40.1070 H   0  0  0  0  0  0  0  0  0  0  0  0
   37.8630   30.6680   39.6840 C   0  0  0  0  0  0  0  0  0  0  0  0
   37.0530   31.6380   40.2100 C   0  0  0  0  0  0  0  0  0  0  0  0
   37.4260   32.9600   40.1450 C   0  0  0  0  0  0  0  0  0  0  0  0
   38.6290   33.2610   39.5380 C   0  0  0  0  0  0  0  0  0  0  0  0
   39.4300   32.2400   39.0120 C   0  0  0  0  0  0  0  0  0  0  0  0
   39.0270   30.9520   39.0970 N   0  0  0  0  0  0  0  0  0  0  0  0
   36.1150   31.3740   40.6800 H   0  0  0  0  0  0  0  0  0  0  0  0
   36.8020   33.7360   40.5530 H   0  0  0  0  0  0  0  0  0  0  0  0
   38.9670   34.2860   39.4630 H   0  0  0  0  0  0  0  0  0  0  0  0
   40.7190   32.5730   38.3630 C   0  0  0  0  0  0  0  0  0  0  0  0
   41.3340   33.8530   38.5960 C   0  0  0  0  0  0  0  0  0  0  0  0
   40.9760   34.6400   39.2020 H   0  0  0  0  0  0  0  0  0  0  0  0
   42.8380   33.7500   37.6010 S   0  0  0  0  0  0  0  0  0  0  0  0
   42.4090   31.9910   37.0200 C   0  0  0  0  0  0  0  0  0  0  0  0
   42.9370   31.2730   36.3400 H   0  0  0  0  0  0  0  0  0  0  0  0
   41.3630   31.7550   37.5620 N   0  0  0  0  0  0  0  0  0  0  0  0
   37.0600   26.6980   42.4630 C   0  0  0  0  0  0  0  0  0  0  0  0
   38.0200   27.3710   43.4400 C   0  0  0  0  0  0  0  0  0  0  0  0
   36.4620   27.4050   43.5700 C   0  0  0  0  0  0  0  0  0  0  0  0
   37.2720   25.6060   42.4180 H   0  0  0  0  0  0  0  0  0  0  0  0
   38.4770   28.3270   43.1570 H   0  0  0  0  0  0  0  0  0  0  0  0
   38.5470   26.7680   44.1830 H   0  0  0  0  0  0  0  0  0  0  0  0
   36.0740   26.8250   44.4580 H   0  0  0  0  0  0  0  0  0  0  0  0
   35.9750   28.3630   43.4010 H   0  0  0  0  0  0  0  0  0  0  0  0
  1  2  1  0  0  0  0
  2  8  1  0  0  0  0
  2  3  2  0  0  0  0
  3 25  1  0  0  0  0
  4  3  1  0  0  0  0
  5  4  2  0  0  0  0
  6  1  2  0  0  0  0
  6  5  1  0  0  0  0
  7  1  1  0  0  0  0
  9  5  1  0  0  0  0
  9 10  1  0  0  0  0
 10 15  1  0  0  0  0
 11 10  2  0  0  0  0
 11 16  1  0  0  0  0
 12 11  1  0  0  0  0
 13 14  1  0  0  0  0
 13 12  2  0  0  0  0
 14  9  2  0  0  0  0
 17 12  1  0  0  0  0
 18 19  2  0  0  0  0
 18 13  1  0  0  0  0
 19 20  1  0  0  0  0
 21 19  1  0  0  0  0
 22 24  2  0  0  0  0
 22 21  1  0  0  0  0
 23 22  1  0  0  0  0
 24 18  1  0  0  0  0
 25 26  1  0  0  0  0
 25 27  1  0  0  0  0
 26 27  1  0  0  0  0
 26 30  1  0  0  0  0
 27 31  1  0  0  0  0
 28 25  1  0  0  0  0
 29 26  1  0  0  0  0
 32 27  1  0  0  0  0
M  END
>  <minimizedAffinity>
-5.17681646

$$$$

 OpenBabel03252505203D

 32 35  0  0  0  0  0  0  0  0999 V2000
   40.4700   31.3940   42.1990 C   0  0  0  0  0  0  0  0  0  0  0  0
   40.0310   32.1870   41.1150 C   0  0  0  0  0  0  0  0  0  0  0  0
   38.9320   31.7190   40.4310 C   0  0  0  0  0  0  0  0  0  0  0  0
   38.3210   30.5510   40.7990 N   0  0  0  0  0  0  0  0  0  0  0  0
   38.7800   29.8090   41.8590 C   0  0  0  0  0  0  0  0  0  0  0  0
   39.8460   30.2370   42.5460 N   0  0  0  0  0  0  0  0  0  0  0  0
   41.3370   31.7750   42.7290 H   0  0  0  0  0  0  0  0  0  0  0  0
   40.5080   33.0930   40.8320 H   0  0  0  0  0  0  0  0  0  0  0  0
   38.0910   28.5720   42.2120 C   0  0  0  0  0  0  0  0  0  0  0  0
   37.2930   28.5500   43.3240 C   0  0  0  0  0  0  0  0  0  0  0  0
   36.6350   27.3960   43.6800 C   0  0  0  0  0  0  0  0  0  0  0  0
   36.8100   26.2830   42.8820 C   0  0  0  0  0  0  0  0  0  0  0  0
   37.6350   26.3450   41.7520 C   0  0  0  0  0  0  0  0  0  0  0  0
   38.2640   27.5000   41.4370 N   0  0  0  0  0  0  0  0  0  0  0  0
   37.1730   29.4370   43.9320 H   0  0  0  0  0  0  0  0  0  0  0  0
   36.0030   27.3600   44.5510 H   0  0  0  0  0  0  0  0  0  0  0  0
   36.3130   25.3520   43.1200 H   0  0  0  0  0  0  0  0  0  0  0  0
   37.8160   25.1450   40.9030 C   0  0  0  0  0  0  0  0  0  0  0  0
   38.2290   25.2880   39.5320 C   0  0  0  0  0  0  0  0  0  0  0  0
   38.4350   26.1820   39.0100 H   0  0  0  0  0  0  0  0  0  0  0  0
   38.2970   23.5740   38.9660 S   0  0  0  0  0  0  0  0  0  0  0  0
   37.7570   22.9230   40.6690 C   0  0  0  0  0  0  0  0  0  0  0  0
   37.5830   21.8860   41.0570 H   0  0  0  0  0  0  0  0  0  0  0  0
   37.6200   23.9180   41.3280 N   0  0  0  0  0  0  0  0  0  0  0  0
   38.3760   32.5090   39.2890 C   0  0  0  0  0  0  0  0  0  0  0  0
   36.9610   32.0850   38.9030 C   0  0  0  0  0  0  0  0  0  0  0  0
   37.3260   33.4660   39.5420 C   0  0  0  0  0  0  0  0  0  0  0  0
   39.0360   32.4790   38.3930 H   0  0  0  0  0  0  0  0  0  0  0  0
   36.4160   31.4030   39.5660 H   0  0  0  0  0  0  0  0  0  0  0  0
   36.6560   32.1110   37.8550 H   0  0  0  0  0  0  0  0  0  0  0  0
   37.1820   34.3360   38.8370 H   0  0  0  0  0  0  0  0  0  0  0  0
   36.9870   33.6400   40.5610 H   0  0  0  0  0  0  0  0  0  0  0  0
  1  6  1  0  0  0  0
  1  7  1  0  0  0  0
  2  1  2  0  0  0  0
  3  4  2  0  0  0  0
  3  2  1  0  0  0  0
  4  5  1  0  0  0  0
  5  9  1  0  0  0  0
  5  6  2  0  0  0  0
  8  2  1  0  0  0  0
  9 10  1  0  0  0  0
 10 11  2  0  0  0  0
 10 15  1  0  0  0  0
 11 16  1  0  0  0  0
 12 17  1  0  0  0  0
 12 11  1  0  0  0  0
 13 12  2  0  0  0  0
 14 13  1  0  0  0  0
 14  9  2  0  0  0  0
 18 24  1  0  0  0  0
 18 13  1  0  0  0  0
 19 18  2  0  0  0  0
 20 19  1  0  0  0  0
 21 19  1  0  0  0  0
 21 22  1  0  0  0  0
 22 23  1  0  0  0  0
 22 24  2  0  0  0  0
 25 27  1  0  0  0  0
 25  3  1  0  0  0  0
 26 25  1  0  0  0  0
 26 27  1  0  0  0  0
 26 29  1  0  0  0  0
 27 32  1  0  0  0  0
 28 25  1  0  0  0  0
 30 26  1  0  0  0  0
 31 27  1  0  0  0  0
M  END
>  <minimizedAffinity>
-5.00393295

$$$$

 OpenBabel03252505203D

 32 35  0  0  0  0  0  0  0  0999 V2000
   37.5360   32.3300   39.9780 C   0  0  0  0  0  0  0  0  0  0  0  0
   37.3800   32.1110   38.5910 C   0  0  0  0  0  0  0  0  0  0  0  0
   37.2460   30.7980   38.1980 C   0  0  0  0  0  0  0  0  0  0  0  0
   37.2690   29.7850   39.1170 N   0  0  0  0  0  0  0  0  0  0  0  0
   37.4230   30.0400   40.4570 C   0  0  0  0  0  0  0  0  0  0  0  0
   37.5550   31.3060   40.8730 N   0  0  0  0  0  0  0  0  0  0  0  0
   37.6400   33.3690   40.2740 H   0  0  0  0  0  0  0  0  0  0  0  0
   37.3630   32.9010   37.8800 H   0  0  0  0  0  0  0  0  0  0  0  0
   37.4380   28.9230   41.3960 C   0  0  0  0  0  0  0  0  0  0  0  0
   37.4410   29.1850   42.7400 C   0  0  0  0  0  0  0  0  0  0  0  0
   37.4580   28.1500   43.6450 C   0  0  0  0  0  0  0  0  0  0  0  0
   37.4700   26.8610   43.1510 C   0  0  0  0  0  0  0  0  0  0  0  0
   37.4650   26.6340   41.7690 C   0  0  0  0  0  0  0  0  0  0  0  0
   37.4490   27.6810   40.9120 N   0  0  0  0  0  0  0  0  0  0  0  0
   37.4320   30.2050   43.1000 H   0  0  0  0  0  0  0  0  0  0  0  0
   37.4610   28.3370   44.7060 H   0  0  0  0  0  0  0  0  0  0  0  0
   37.4820   26.0140   43.8230 H   0  0  0  0  0  0  0  0  0  0  0  0
   37.4780   25.2480   41.2480 C   0  0  0  0  0  0  0  0  0  0  0  0
   38.6240   24.4050   41.4700 C   0  0  0  0  0  0  0  0  0  0  0  0
   39.5140   24.6480   41.9820 H   0  0  0  0  0  0  0  0  0  0  0  0
   38.1380   22.8670   40.6570 S   0  0  0  0  0  0  0  0  0  0  0  0
   36.4590   23.5950   40.1410 C   0  0  0  0  0  0  0  0  0  0  0  0
   35.5960   23.1640   39.5700 H   0  0  0  0  0  0  0  0  0  0  0  0
   36.4840   24.7140   40.5770 N   0  0  0  0  0  0  0  0  0  0  0  0
   37.0430   30.4730   36.7520 C   0  0  0  0  0  0  0  0  0  0  0  0
   37.5330   29.0760   36.3810 C   0  0  0  0  0  0  0  0  0  0  0  0
   36.0310   29.5130   36.3840 C   0  0  0  0  0  0  0  0  0  0  0  0
   37.5100   31.2270   36.0790 H   0  0  0  0  0  0  0  0  0  0  0  0
   37.8100   28.3840   37.1840 H   0  0  0  0  0  0  0  0  0  0  0  0
   37.9770   28.9020   35.3980 H   0  0  0  0  0  0  0  0  0  0  0  0
   35.5740   29.5510   35.3510 H   0  0  0  0  0  0  0  0  0  0  0  0
   35.3940   29.0770   37.1500 H   0  0  0  0  0  0  0  0  0  0  0  0
  1  7  1  0  0  0  0
  1  6  1  0  0  0  0
  2  1  2  0  0  0  0
  3  2  1  0  0  0  0
  3  4  2  0  0  0  0
  4  5  1  0  0  0  0
  5  6  2  0  0  0  0
  5  9  1  0  0  0  0
  8  2  1  0  0  0  0
  9 10  1  0  0  0  0
 10 15  1  0  0  0  0
 10 11  2  0  0  0  0
 11 16  1  0  0  0  0
 12 11  1  0  0  0  0
 12 17  1  0  0  0  0
 13 12  2  0  0  0  0
 14  9  2  0  0  0  0
 14 13  1  0  0  0  0
 18 19  2  0  0  0  0
 18 13  1  0  0  0  0
 19 20  1  0  0  0  0
 21 19  1  0  0  0  0
 22 24  2  0  0  0  0
 22 21  1  0  0  0  0
 23 22  1  0  0  0  0
 24 18  1  0  0  0  0
 25  3  1  0  0  0  0
 26 27  1  0  0  0  0
 26 25  1  0  0  0  0
 26 29  1  0  0  0  0
 27 25  1  0  0  0  0
 27 32  1  0  0  0  0
 28 25  1  0  0  0  0
 30 26  1  0  0  0  0
 31 27  1  0  0  0  0
M  END
>  <minimizedAffinity>
-4.95077419

$$$$

 OpenBabel03252505203D

 32 35  0  0  0  0  0  0  0  0999 V2000
   37.5420   25.4760   39.4460 C   0  0  0  0  0  0  0  0  0  0  0  0
   37.4510   25.4330   40.8550 C   0  0  0  0  0  0  0  0  0  0  0  0
   37.4260   26.6510   41.4960 C   0  0  0  0  0  0  0  0  0  0  0  0
   37.4880   27.8190   40.7870 N   0  0  0  0  0  0  0  0  0  0  0  0
   37.5770   27.8170   39.4170 C   0  0  0  0  0  0  0  0  0  0  0  0
   37.6020   26.6500   38.7620 N   0  0  0  0  0  0  0  0  0  0  0  0
   37.5610   24.5090   38.9540 H   0  0  0  0  0  0  0  0  0  0  0  0
   37.4030   24.5230   41.4030 H   0  0  0  0  0  0  0  0  0  0  0  0
   37.6380   29.0910   38.7080 C   0  0  0  0  0  0  0  0  0  0  0  0
   37.0270   29.2020   37.4880 C   0  0  0  0  0  0  0  0  0  0  0  0
   37.0730   30.3920   36.7980 C   0  0  0  0  0  0  0  0  0  0  0  0
   37.7480   31.4480   37.3780 C   0  0  0  0  0  0  0  0  0  0  0  0
   38.3600   31.2940   38.6280 C   0  0  0  0  0  0  0  0  0  0  0  0
   38.2910   30.1070   39.2730 N   0  0  0  0  0  0  0  0  0  0  0  0
   36.5050   28.3590   37.0570 H   0  0  0  0  0  0  0  0  0  0  0  0
   36.5980   30.4970   35.8380 H   0  0  0  0  0  0  0  0  0  0  0  0
   37.8110   32.4030   36.8750 H   0  0  0  0  0  0  0  0  0  0  0  0
   39.0820   32.4320   39.2410 C   0  0  0  0  0  0  0  0  0  0  0  0
   40.4380   32.7190   38.8540 C   0  0  0  0  0  0  0  0  0  0  0  0
   41.0320   32.2010   38.1520 H   0  0  0  0  0  0  0  0  0  0  0  0
   40.8360   34.1600   39.8680 S   0  0  0  0  0  0  0  0  0  0  0  0
   39.1080   34.1590   40.6610 C   0  0  0  0  0  0  0  0  0  0  0  0
   38.6320   34.8220   41.4290 H   0  0  0  0  0  0  0  0  0  0  0  0
   38.5540   33.2270   40.1430 N   0  0  0  0  0  0  0  0  0  0  0  0
   37.2980   26.7030   42.9870 C   0  0  0  0  0  0  0  0  0  0  0  0
   38.5850   27.1410   43.6800 C   0  0  0  0  0  0  0  0  0  0  0  0
   37.2700   27.9870   43.6440 C   0  0  0  0  0  0  0  0  0  0  0  0
   36.9490   25.7360   43.4150 H   0  0  0  0  0  0  0  0  0  0  0  0
   39.4030   27.5400   43.0700 H   0  0  0  0  0  0  0  0  0  0  0  0
   38.8500   26.7130   44.6490 H   0  0  0  0  0  0  0  0  0  0  0  0
   36.7730   28.0860   44.6540 H   0  0  0  0  0  0  0  0  0  0  0  0
   37.2880   28.8990   43.0520 H   0  0  0  0  0  0  0  0  0  0  0  0
  1  2  1  0  0  0  0
  2  8  1  0  0  0  0
  2  3  2  0  0  0  0
  3 25  1  0  0  0  0
  4  3  1  0  0  0  0
  5  4  2  0  0  0  0
  6  5  1  0  0  0  0
  6  1  2  0  0  0  0
  7  1  1  0  0  0  0
  9 14  1  0  0  0  0
  9  5  1  0  0  0  0
 10  9  2  0  0  0  0
 11 12  2  0  0  0  0
 11 10  1  0  0  0  0
 12 13  1  0  0  0  0
 13 18  1  0  0  0  0
 13 14  2  0  0  0  0
 15 10  1  0  0  0  0
 16 11  1  0  0  0  0
 17 12  1  0  0  0  0
 18 24  1  0  0  0  0
 19 18  2  0  0  0  0
 19 21  1  0  0  0  0
 20 19  1  0  0  0  0
 21 22  1  0  0  0  0
 22 23  1  0  0  0  0
 24 22  2  0  0  0  0
 25 28  1  0  0  0  0
 25 27  1  0  0  0  0
 25 26  1  0  0  0  0
 26 30  1  0  0  0  0
 27 26  1  0  0  0  0
 27 31  1  0  0  0  0
 29 26  1  0  0  0  0
 32 27  1  0  0  0  0
M  END
>  <minimizedAffinity>
-4.91700792

$$$$

 OpenBabel03252505203D

 32 35  0  0  0  0  0  0  0  0999 V2000
   37.0390   23.6700   40.2660 C   0  0  0  0  0  0  0  0  0  0  0  0
   36.3940   23.8100   39.0170 C   0  0  0  0  0  0  0  0  0  0  0  0
   36.0540   25.0930   38.6530 C   0  0  0  0  0  0  0  0  0  0  0  0
   36.3330   26.1530   39.4730 N   0  0  0  0  0  0  0  0  0  0  0  0
   36.9620   25.9740   40.6800 C   0  0  0  0  0  0  0  0  0  0  0  0
   37.3070   24.7390   41.0630 N   0  0  0  0  0  0  0  0  0  0  0  0
   37.3020   22.6540   40.5390 H   0  0  0  0  0  0  0  0  0  0  0  0
   36.1780   22.9840   38.3830 H   0  0  0  0  0  0  0  0  0  0  0  0
   37.2390   27.1380   41.5150 C   0  0  0  0  0  0  0  0  0  0  0  0
   37.3440   26.9730   42.8700 C   0  0  0  0  0  0  0  0  0  0  0  0
   37.6020   28.0550   43.6800 C   0  0  0  0  0  0  0  0  0  0  0  0
   37.7490   29.2890   43.0790 C   0  0  0  0  0  0  0  0  0  0  0  0
   37.6350   29.4170   41.6890 C   0  0  0  0  0  0  0  0  0  0  0  0
   37.3810   28.3270   40.9290 N   0  0  0  0  0  0  0  0  0  0  0  0
   37.2240   25.9950   43.3150 H   0  0  0  0  0  0  0  0  0  0  0  0
   37.6870   27.9440   44.7470 H   0  0  0  0  0  0  0  0  0  0  0  0
   37.9540   30.1690   43.6730 H   0  0  0  0  0  0  0  0  0  0  0  0
   37.7950   30.7450   41.0540 C   0  0  0  0  0  0  0  0  0  0  0  0
   36.7740   31.2500   40.1740 C   0  0  0  0  0  0  0  0  0  0  0  0
   35.8700   30.7810   39.8970 H   0  0  0  0  0  0  0  0  0  0  0  0
   37.4410   32.8570   39.6870 S   0  0  0  0  0  0  0  0  0  0  0  0
   38.9990   32.6030   40.7480 C   0  0  0  0  0  0  0  0  0  0  0  0
   39.9000   33.2460   40.9270 H   0  0  0  0  0  0  0  0  0  0  0  0
   38.8370   31.5220   41.2440 N   0  0  0  0  0  0  0  0  0  0  0  0
   35.3960   25.3410   37.3320 C   0  0  0  0  0  0  0  0  0  0  0  0
   33.9420   24.8800   37.2950 C   0  0  0  0  0  0  0  0  0  0  0  0
   34.3960   26.3760   37.2290 C   0  0  0  0  0  0  0  0  0  0  0  0
   35.9580   24.8830   36.4870 H   0  0  0  0  0  0  0  0  0  0  0  0
   33.4560   24.5910   38.2340 H   0  0  0  0  0  0  0  0  0  0  0  0
   33.5280   24.4670   36.3720 H   0  0  0  0  0  0  0  0  0  0  0  0
   34.1960   26.8610   36.2290 H   0  0  0  0  0  0  0  0  0  0  0  0
   34.1690   26.9970   38.0920 H   0  0  0  0  0  0  0  0  0  0  0  0
  1  7  1  0  0  0  0
  1  6  1  0  0  0  0
  2  1  2  0  0  0  0
  3  2  1  0  0  0  0
  3  4  2  0  0  0  0
  4  5  1  0  0  0  0
  5  6  2  0  0  0  0
  5  9  1  0  0  0  0
  8  2  1  0  0  0  0
  9 10  1  0  0  0  0
 10 15  1  0  0  0  0
 10 11  2  0  0  0  0
 11 16  1  0  0  0  0
 12 17  1  0  0  0  0
 12 11  1  0  0  0  0
 13 12  2  0  0  0  0
 14  9  2  0  0  0  0
 14 13  1  0  0  0  0
 18 24  1  0  0  0  0
 18 13  1  0  0  0  0
 19 18  2  0  0  0  0
 20 19  1  0  0  0  0
 21 19  1  0  0  0  0
 21 22  1  0  0  0  0
 22 23  1  0  0  0  0
 22 24  2  0  0  0  0
 25  3  1  0  0  0  0
 26 25  1  0  0  0  0
 26 29  1  0  0  0  0
 27 26  1  0  0  0  0
 27 25  1  0  0  0  0
 27 32  1  0  0  0  0
 28 25  1  0  0  0  0
 30 26  1  0  0  0  0
 31 27  1  0  0  0  0
M  END
>  <minimizedAffinity>
-4.88075638

$$$$

 OpenBabel03252505203D

 32 35  0  0  0  0  0  0  0  0999 V2000
   36.3120   30.7760   40.6480 C   0  0  0  0  0  0  0  0  0  0  0  0
   36.4180   29.7460   41.6090 C   0  0  0  0  0  0  0  0  0  0  0  0
   37.6480   29.6070   42.2110 C   0  0  0  0  0  0  0  0  0  0  0  0
   38.6900   30.4290   41.8790 N   0  0  0  0  0  0  0  0  0  0  0  0
   38.5450   31.4190   40.9380 C   0  0  0  0  0  0  0  0  0  0  0  0
   37.3620   31.5820   40.3340 N   0  0  0  0  0  0  0  0  0  0  0  0
   35.3370   30.8750   40.1810 H   0  0  0  0  0  0  0  0  0  0  0  0
   35.6070   29.1090   41.8640 H   0  0  0  0  0  0  0  0  0  0  0  0
   39.6870   32.2710   40.6220 C   0  0  0  0  0  0  0  0  0  0  0  0
   39.6380   33.0590   39.5040 C   0  0  0  0  0  0  0  0  0  0  0  0
   40.7030   33.8680   39.1820 C   0  0  0  0  0  0  0  0  0  0  0  0
   41.8000   33.8530   40.0200 C   0  0  0  0  0  0  0  0  0  0  0  0
   41.8120   33.0330   41.1550 C   0  0  0  0  0  0  0  0  0  0  0  0
   40.7440   32.2520   41.4350 N   0  0  0  0  0  0  0  0  0  0  0  0
   38.7660   33.0510   38.8640 H   0  0  0  0  0  0  0  0  0  0  0  0
   40.6820   34.4950   38.3070 H   0  0  0  0  0  0  0  0  0  0  0  0
   42.6620   34.4730   39.8100 H   0  0  0  0  0  0  0  0  0  0  0  0
   42.9940   33.0240   42.0470 C   0  0  0  0  0  0  0  0  0  0  0  0
   43.3630   31.8190   42.7420 C   0  0  0  0  0  0  0  0  0  0  0  0
   42.8820   30.8800   42.7070 H   0  0  0  0  0  0  0  0  0  0  0  0
   44.8280   32.3350   43.6640 S   0  0  0  0  0  0  0  0  0  0  0  0
   44.7210   34.1020   42.9690 C   0  0  0  0  0  0  0  0  0  0  0  0
   45.3550   35.0120   43.1290 H   0  0  0  0  0  0  0  0  0  0  0  0
   43.7560   34.0730   42.2550 N   0  0  0  0  0  0  0  0  0  0  0  0
   37.8450   28.5630   43.2660 C   0  0  0  0  0  0  0  0  0  0  0  0
   37.1080   27.2620   42.9610 C   0  0  0  0  0  0  0  0  0  0  0  0
   38.6650   27.4140   42.9710 C   0  0  0  0  0  0  0  0  0  0  0  0
   37.5630   28.9280   44.2790 H   0  0  0  0  0  0  0  0  0  0  0  0
   36.6680   27.1260   41.9660 H   0  0  0  0  0  0  0  0  0  0  0  0
   36.6810   26.6780   43.7790 H   0  0  0  0  0  0  0  0  0  0  0  0
   39.1640   26.8530   43.8150 H   0  0  0  0  0  0  0  0  0  0  0  0
   39.1720   27.3420   42.0120 H   0  0  0  0  0  0  0  0  0  0  0  0
  1  2  1  0  0  0  0
  2  8  1  0  0  0  0
  2  3  2  0  0  0  0
  3 25  1  0  0  0  0
  4  3  1  0  0  0  0
  5  4  2  0  0  0  0
  6  1  2  0  0  0  0
  6  5  1  0  0  0  0
  7  1  1  0  0  0  0
  9  5  1  0  0  0  0
  9 14  1  0  0  0  0
 10  9  2  0  0  0  0
 11 10  1  0  0  0  0
 11 12  2  0  0  0  0
 12 13  1  0  0  0  0
 13 14  2  0  0  0  0
 13 18  1  0  0  0  0
 15 10  1  0  0  0  0
 16 11  1  0  0  0  0
 17 12  1  0  0  0  0
 18 24  1  0  0  0  0
 18 19  2  0  0  0  0
 19 21  1  0  0  0  0
 20 19  1  0  0  0  0
 22 23  1  0  0  0  0
 22 21  1  0  0  0  0
 24 22  2  0  0  0  0
 25 28  1  0  0  0  0
 26 27  1  0  0  0  0
 26 25  1  0  0  0  0
 26 30  1  0  0  0  0
 27 25  1  0  0  0  0
 27 31  1  0  0  0  0
 29 26  1  0  0  0  0
 32 27  1  0  0  0  0
M  END
>  <minimizedAffinity>
-4.86882877

$$$$
