
 OpenBabel03242514593D

 35 37  0  0  0  0  0  0  0  0999 V2000
   43.5000   34.9060   40.7390 S   0  0  0  0  0  0  0  0  0  0  0  0
   44.7850   34.6590   41.9630 C   0  0  0  0  0  0  0  0  0  0  0  0
   46.0990   34.5750   41.4800 C   0  0  0  0  0  0  0  0  0  0  0  0
   47.1340   34.3830   42.3990 C   0  0  0  0  0  0  0  0  0  0  0  0
   46.8120   34.2880   43.7070 N   0  0  0  0  0  0  0  0  0  0  0  0
   45.5600   34.3690   44.1610 C   0  0  0  0  0  0  0  0  0  0  0  0
   44.5580   34.5540   43.2840 N   0  0  0  0  0  0  0  0  0  0  0  0
   46.3820   34.6490   40.4370 H   0  0  0  0  0  0  0  0  0  0  0  0
   48.1620   34.3160   42.0520 H   0  0  0  0  0  0  0  0  0  0  0  0
   45.3070   34.2560   45.5820 C   0  0  0  0  0  0  0  0  0  0  0  0
   44.5710   35.1130   46.1210 O   0  0  0  0  0  0  0  0  0  0  0  0
   45.9430   33.1400   46.2690 C   0  0  0  0  0  0  0  0  0  0  0  0
   45.1860   33.0600   47.5850 C   0  0  0  0  0  0  0  0  0  0  0  0
   44.4190   33.4000   48.2790 H   0  0  0  0  0  0  0  0  0  0  0  0
   46.1080   31.5940   48.3490 S   0  0  0  0  0  0  0  0  0  0  0  0
   47.2490   31.3980   46.8430 C   0  0  0  0  0  0  0  0  0  0  0  0
   48.1570   30.8650   46.2180 H   0  0  0  0  0  0  0  0  0  0  0  0
   46.9090   32.3390   45.9560 N   0  0  0  0  0  0  0  0  0  0  0  0
   41.8820   35.0990   41.4750 C   0  0  0  0  0  0  0  0  0  0  0  0
   41.9770   35.3960   42.5480 H   0  0  0  0  0  0  0  0  0  0  0  0
   41.4030   34.0880   41.5060 H   0  0  0  0  0  0  0  0  0  0  0  0
   40.9700   35.9930   40.7060 C   0  0  0  0  0  0  0  0  0  0  0  0
   41.4790   36.8460   40.2050 H   0  0  0  0  0  0  0  0  0  0  0  0
   40.2500   36.4480   41.4390 H   0  0  0  0  0  0  0  0  0  0  0  0
   41.8000   36.2640   37.7990 Cl  0  0  0  0  0  0  0  0  0  0  0  0
   40.4690   35.2950   38.3550 C   0  0  0  0  0  0  0  0  0  0  0  0
   40.1710   35.2400   39.7230 C   0  0  0  0  0  0  0  0  0  0  0  0
   39.1050   34.4520   40.0700 C   0  0  0  0  0  0  0  0  0  0  0  0
   38.3000   33.7130   39.2230 C   0  0  0  0  0  0  0  0  0  0  0  0
   38.6140   33.7830   37.8730 C   0  0  0  0  0  0  0  0  0  0  0  0
   37.6550   32.8810   36.7100 Cl  0  0  0  0  0  0  0  0  0  0  0  0
   39.6820   34.5640   37.4630 C   0  0  0  0  0  0  0  0  0  0  0  0
   38.8410   34.3840   41.1310 H   0  0  0  0  0  0  0  0  0  0  0  0
   37.4790   33.1200   39.6030 H   0  0  0  0  0  0  0  0  0  0  0  0
   39.9020   34.5970   36.3980 H   0  0  0  0  0  0  0  0  0  0  0  0
  1 19  1  0  0  0  0
  1  2  1  0  0  0  0
  2  7  1  0  0  0  0
  3  2  2  0  0  0  0
  3  4  1  0  0  0  0
  4  5  2  0  0  0  0
  5  6  1  0  0  0  0
  6 10  1  0  0  0  0
  7  6  2  0  0  0  0
  8  3  1  0  0  0  0
  9  4  1  0  0  0  0
 10 11  2  0  0  0  0
 10 12  1  0  0  0  0
 12 13  2  0  0  0  0
 13 14  1  0  0  0  0
 13 15  1  0  0  0  0
 16 15  1  0  0  0  0
 17 16  1  0  0  0  0
 18 12  1  0  0  0  0
 18 16  2  0  0  0  0
 19 21  1  0  0  0  0
 19 20  1  0  0  0  0
 22 24  1  0  0  0  0
 22 19  1  0  0  0  0
 23 22  1  0  0  0  0
 25 26  1  0  0  0  0
 26 27  1  0  0  0  0
 27 28  2  0  0  0  0
 27 22  1  0  0  0  0
 28 33  1  0  0  0  0
 29 34  1  0  0  0  0
 29 28  1  0  0  0  0
 30 29  2  0  0  0  0
 31 30  1  0  0  0  0
 32 30  1  0  0  0  0
 32 26  2  0  0  0  0
 35 32  1  0  0  0  0
M  END
>  <minimizedAffinity>
-6.61427307

>  <minimizedRMSD>
0.363901049

$$$$
