
 OpenBabel03242514593D

 35 37  0  0  0  0  0  0  0  0999 V2000
   43.8850   34.7220   40.7650 S   0  0  0  0  0  0  0  0  0  0  0  0
   45.1460   34.4740   42.0130 C   0  0  0  0  0  0  0  0  0  0  0  0
   46.4760   34.4970   41.5700 C   0  0  0  0  0  0  0  0  0  0  0  0
   47.4940   34.3090   42.5090 C   0  0  0  0  0  0  0  0  0  0  0  0
   47.1400   34.1140   43.7980 N   0  0  0  0  0  0  0  0  0  0  0  0
   45.8730   34.0940   44.2140 C   0  0  0  0  0  0  0  0  0  0  0  0
   44.8870   34.2740   43.3170 N   0  0  0  0  0  0  0  0  0  0  0  0
   46.7850   34.6520   40.5430 H   0  0  0  0  0  0  0  0  0  0  0  0
   48.5340   34.3230   42.1920 H   0  0  0  0  0  0  0  0  0  0  0  0
   45.5850   33.8780   45.6170 C   0  0  0  0  0  0  0  0  0  0  0  0
   44.7740   34.6470   46.1780 O   0  0  0  0  0  0  0  0  0  0  0  0
   46.2790   32.7710   46.2600 C   0  0  0  0  0  0  0  0  0  0  0  0
   45.8330   31.5610   45.4550 C   0  0  0  0  0  0  0  0  0  0  0  0
   45.2670   31.0930   44.6510 H   0  0  0  0  0  0  0  0  0  0  0  0
   46.7980   30.2300   46.3910 S   0  0  0  0  0  0  0  0  0  0  0  0
   47.5570   31.4870   47.5980 C   0  0  0  0  0  0  0  0  0  0  0  0
   48.2620   31.8080   48.5450 H   0  0  0  0  0  0  0  0  0  0  0  0
   47.0930   32.6950   47.2640 N   0  0  0  0  0  0  0  0  0  0  0  0
   42.2410   34.8090   41.4620 C   0  0  0  0  0  0  0  0  0  0  0  0
   42.2960   34.9490   42.5690 H   0  0  0  0  0  0  0  0  0  0  0  0
   41.7640   33.8060   41.3300 H   0  0  0  0  0  0  0  0  0  0  0  0
   41.3550   35.8070   40.7960 C   0  0  0  0  0  0  0  0  0  0  0  0
   41.8960   36.6400   40.2960 H   0  0  0  0  0  0  0  0  0  0  0  0
   40.7240   36.2810   41.5970 H   0  0  0  0  0  0  0  0  0  0  0  0
   42.0550   36.0740   37.8550 Cl  0  0  0  0  0  0  0  0  0  0  0  0
   40.6640   35.2280   38.4610 C   0  0  0  0  0  0  0  0  0  0  0  0
   40.4330   35.1650   39.8420 C   0  0  0  0  0  0  0  0  0  0  0  0
   39.3130   34.4770   40.2290 C   0  0  0  0  0  0  0  0  0  0  0  0
   38.3940   33.8450   39.4110 C   0  0  0  0  0  0  0  0  0  0  0  0
   38.6430   33.9220   38.0470 C   0  0  0  0  0  0  0  0  0  0  0  0
   37.5390   33.1520   36.9190 Cl  0  0  0  0  0  0  0  0  0  0  0  0
   39.7610   34.6040   37.5980 C   0  0  0  0  0  0  0  0  0  0  0  0
   39.1000   34.4050   41.3010 H   0  0  0  0  0  0  0  0  0  0  0  0
   37.5390   33.3260   39.8210 H   0  0  0  0  0  0  0  0  0  0  0  0
   39.9270   34.6450   36.5230 H   0  0  0  0  0  0  0  0  0  0  0  0
  1 19  1  0  0  0  0
  1  2  1  0  0  0  0
  2  7  1  0  0  0  0
  3  2  2  0  0  0  0
  3  4  1  0  0  0  0
  4  5  2  0  0  0  0
  5  6  1  0  0  0  0
  6 10  1  0  0  0  0
  7  6  2  0  0  0  0
  8  3  1  0  0  0  0
  9  4  1  0  0  0  0
 10 11  2  0  0  0  0
 10 12  1  0  0  0  0
 12 18  1  0  0  0  0
 13 12  2  0  0  0  0
 13 15  1  0  0  0  0
 14 13  1  0  0  0  0
 15 16  1  0  0  0  0
 16 17  1  0  0  0  0
 18 16  2  0  0  0  0
 19 20  1  0  0  0  0
 21 19  1  0  0  0  0
 22 19  1  0  0  0  0
 22 24  1  0  0  0  0
 23 22  1  0  0  0  0
 25 26  1  0  0  0  0
 26 27  1  0  0  0  0
 27 28  2  0  0  0  0
 27 22  1  0  0  0  0
 28 33  1  0  0  0  0
 29 34  1  0  0  0  0
 29 28  1  0  0  0  0
 30 29  2  0  0  0  0
 31 30  1  0  0  0  0
 32 30  1  0  0  0  0
 32 26  2  0  0  0  0
 35 32  1  0  0  0  0
M  END
>  <minimizedAffinity>
-6.37078953

>  <minimizedRMSD>
0.890206873

$$$$
