
 OpenBabel03242514593D

 35 37  0  0  0  0  0  0  0  0999 V2000
   43.7930   34.7190   40.7770 S   0  0  0  0  0  0  0  0  0  0  0  0
   45.0820   34.4710   41.9970 C   0  0  0  0  0  0  0  0  0  0  0  0
   46.4020   34.6330   41.5520 C   0  0  0  0  0  0  0  0  0  0  0  0
   47.4400   34.4490   42.4690 C   0  0  0  0  0  0  0  0  0  0  0  0
   47.1140   34.1240   43.7390 N   0  0  0  0  0  0  0  0  0  0  0  0
   45.8560   33.9720   44.1570 C   0  0  0  0  0  0  0  0  0  0  0  0
   44.8510   34.1470   43.2810 N   0  0  0  0  0  0  0  0  0  0  0  0
   46.6880   34.8930   40.5400 H   0  0  0  0  0  0  0  0  0  0  0  0
   48.4720   34.5690   42.1510 H   0  0  0  0  0  0  0  0  0  0  0  0
   45.6000   33.6230   45.5390 C   0  0  0  0  0  0  0  0  0  0  0  0
   44.9650   34.4370   46.2450 O   0  0  0  0  0  0  0  0  0  0  0  0
   46.1130   32.3370   45.9900 C   0  0  0  0  0  0  0  0  0  0  0  0
   46.9150   32.6930   47.2310 C   0  0  0  0  0  0  0  0  0  0  0  0
   47.3040   33.4060   47.9550 H   0  0  0  0  0  0  0  0  0  0  0  0
   47.5050   30.9550   47.6910 S   0  0  0  0  0  0  0  0  0  0  0  0
   46.6130   30.1530   46.2180 C   0  0  0  0  0  0  0  0  0  0  0  0
   46.2830   29.2000   45.5230 H   0  0  0  0  0  0  0  0  0  0  0  0
   45.9940   31.1280   45.5440 N   0  0  0  0  0  0  0  0  0  0  0  0
   42.1790   34.9210   41.5180 C   0  0  0  0  0  0  0  0  0  0  0  0
   42.2780   35.1480   42.6070 H   0  0  0  0  0  0  0  0  0  0  0  0
   41.6650   33.9280   41.4840 H   0  0  0  0  0  0  0  0  0  0  0  0
   41.3030   35.8930   40.8030 C   0  0  0  0  0  0  0  0  0  0  0  0
   41.8510   36.7130   40.2890 H   0  0  0  0  0  0  0  0  0  0  0  0
   40.6520   36.3880   41.5740 H   0  0  0  0  0  0  0  0  0  0  0  0
   42.0470   36.1040   37.8680 Cl  0  0  0  0  0  0  0  0  0  0  0  0
   40.6580   35.2520   38.4710 C   0  0  0  0  0  0  0  0  0  0  0  0
   40.4060   35.2170   39.8490 C   0  0  0  0  0  0  0  0  0  0  0  0
   39.2890   34.5230   40.2340 C   0  0  0  0  0  0  0  0  0  0  0  0
   38.3920   33.8600   39.4150 C   0  0  0  0  0  0  0  0  0  0  0  0
   38.6620   33.9100   38.0550 C   0  0  0  0  0  0  0  0  0  0  0  0
   37.5860   33.1000   36.9270 Cl  0  0  0  0  0  0  0  0  0  0  0  0
   39.7780   34.5970   37.6080 C   0  0  0  0  0  0  0  0  0  0  0  0
   39.0590   34.4730   41.3030 H   0  0  0  0  0  0  0  0  0  0  0  0
   37.5370   33.3400   39.8240 H   0  0  0  0  0  0  0  0  0  0  0  0
   39.9610   34.6150   36.5350 H   0  0  0  0  0  0  0  0  0  0  0  0
  1 19  1  0  0  0  0
  1  2  1  0  0  0  0
  2  7  1  0  0  0  0
  3  2  2  0  0  0  0
  3  4  1  0  0  0  0
  4  5  2  0  0  0  0
  5  6  1  0  0  0  0
  6 10  1  0  0  0  0
  7  6  2  0  0  0  0
  8  3  1  0  0  0  0
  9  4  1  0  0  0  0
 10 12  1  0  0  0  0
 10 11  2  0  0  0  0
 12 13  2  0  0  0  0
 13 15  1  0  0  0  0
 13 14  1  0  0  0  0
 16 15  1  0  0  0  0
 17 16  1  0  0  0  0
 18 12  1  0  0  0  0
 18 16  2  0  0  0  0
 19 20  1  0  0  0  0
 21 19  1  0  0  0  0
 22 19  1  0  0  0  0
 22 24  1  0  0  0  0
 23 22  1  0  0  0  0
 25 26  1  0  0  0  0
 26 27  1  0  0  0  0
 27 28  2  0  0  0  0
 27 22  1  0  0  0  0
 28 33  1  0  0  0  0
 29 34  1  0  0  0  0
 29 28  1  0  0  0  0
 30 29  2  0  0  0  0
 31 30  1  0  0  0  0
 32 30  1  0  0  0  0
 32 26  2  0  0  0  0
 35 32  1  0  0  0  0
M  END
>  <minimizedAffinity>
-6.29599857

>  <minimizedRMSD>
0.648491025

$$$$
