
 OpenBabel03242514593D

 35 37  0  0  0  0  0  0  0  0999 V2000
   43.8790   34.7260   40.7670 S   0  0  0  0  0  0  0  0  0  0  0  0
   45.1420   34.4780   42.0140 C   0  0  0  0  0  0  0  0  0  0  0  0
   46.4710   34.5000   41.5690 C   0  0  0  0  0  0  0  0  0  0  0  0
   47.4900   34.3110   42.5070 C   0  0  0  0  0  0  0  0  0  0  0  0
   47.1370   34.1160   43.7960 N   0  0  0  0  0  0  0  0  0  0  0  0
   45.8700   34.0960   44.2140 C   0  0  0  0  0  0  0  0  0  0  0  0
   44.8830   34.2770   43.3180 N   0  0  0  0  0  0  0  0  0  0  0  0
   46.7790   34.6550   40.5420 H   0  0  0  0  0  0  0  0  0  0  0  0
   48.5290   34.3240   42.1890 H   0  0  0  0  0  0  0  0  0  0  0  0
   45.5840   33.8810   45.6170 C   0  0  0  0  0  0  0  0  0  0  0  0
   44.7730   34.6490   46.1790 O   0  0  0  0  0  0  0  0  0  0  0  0
   46.2780   32.7730   46.2590 C   0  0  0  0  0  0  0  0  0  0  0  0
   45.8320   31.5630   45.4540 C   0  0  0  0  0  0  0  0  0  0  0  0
   45.2660   31.0950   44.6490 H   0  0  0  0  0  0  0  0  0  0  0  0
   46.7970   30.2320   46.3890 S   0  0  0  0  0  0  0  0  0  0  0  0
   47.5560   31.4880   47.5950 C   0  0  0  0  0  0  0  0  0  0  0  0
   48.2610   31.8090   48.5440 H   0  0  0  0  0  0  0  0  0  0  0  0
   47.0920   32.6960   47.2620 N   0  0  0  0  0  0  0  0  0  0  0  0
   42.2360   34.8180   41.4650 C   0  0  0  0  0  0  0  0  0  0  0  0
   42.2930   34.9630   42.5720 H   0  0  0  0  0  0  0  0  0  0  0  0
   41.7590   33.8140   41.3390 H   0  0  0  0  0  0  0  0  0  0  0  0
   41.3500   35.8130   40.7970 C   0  0  0  0  0  0  0  0  0  0  0  0
   41.8910   36.6460   40.2960 H   0  0  0  0  0  0  0  0  0  0  0  0
   40.7170   36.2880   41.5950 H   0  0  0  0  0  0  0  0  0  0  0  0
   42.0540   36.0760   37.8560 Cl  0  0  0  0  0  0  0  0  0  0  0  0
   40.6630   35.2290   38.4620 C   0  0  0  0  0  0  0  0  0  0  0  0
   40.4300   35.1690   39.8420 C   0  0  0  0  0  0  0  0  0  0  0  0
   39.3100   34.4810   40.2290 C   0  0  0  0  0  0  0  0  0  0  0  0
   38.3930   33.8460   39.4110 C   0  0  0  0  0  0  0  0  0  0  0  0
   38.6440   33.9210   38.0470 C   0  0  0  0  0  0  0  0  0  0  0  0
   37.5420   33.1480   36.9190 Cl  0  0  0  0  0  0  0  0  0  0  0  0
   39.7620   34.6030   37.5980 C   0  0  0  0  0  0  0  0  0  0  0  0
   39.0950   34.4110   41.3010 H   0  0  0  0  0  0  0  0  0  0  0  0
   37.5380   33.3280   39.8210 H   0  0  0  0  0  0  0  0  0  0  0  0
   39.9300   34.6420   36.5240 H   0  0  0  0  0  0  0  0  0  0  0  0
  1 19  1  0  0  0  0
  1  2  1  0  0  0  0
  2  7  1  0  0  0  0
  3  2  2  0  0  0  0
  3  4  1  0  0  0  0
  4  5  2  0  0  0  0
  5  6  1  0  0  0  0
  6 10  1  0  0  0  0
  7  6  2  0  0  0  0
  8  3  1  0  0  0  0
  9  4  1  0  0  0  0
 10 11  2  0  0  0  0
 10 12  1  0  0  0  0
 12 18  1  0  0  0  0
 13 12  2  0  0  0  0
 13 15  1  0  0  0  0
 14 13  1  0  0  0  0
 15 16  1  0  0  0  0
 16 17  1  0  0  0  0
 18 16  2  0  0  0  0
 19 20  1  0  0  0  0
 21 19  1  0  0  0  0
 22 19  1  0  0  0  0
 22 24  1  0  0  0  0
 23 22  1  0  0  0  0
 25 26  1  0  0  0  0
 26 27  1  0  0  0  0
 27 28  2  0  0  0  0
 27 22  1  0  0  0  0
 28 33  1  0  0  0  0
 29 34  1  0  0  0  0
 29 28  1  0  0  0  0
 30 29  2  0  0  0  0
 31 30  1  0  0  0  0
 32 30  1  0  0  0  0
 32 26  2  0  0  0  0
 35 32  1  0  0  0  0
M  END
>  <minimizedAffinity>
-6.37143564

>  <minimizedRMSD>
0.821926296

$$$$
