
 OpenBabel03242515003D

 35 37  0  0  0  0  0  0  0  0999 V2000
   43.8820   34.7140   40.7650 S   0  0  0  0  0  0  0  0  0  0  0  0
   45.1450   34.4700   42.0130 C   0  0  0  0  0  0  0  0  0  0  0  0
   46.4750   34.4960   41.5690 C   0  0  0  0  0  0  0  0  0  0  0  0
   47.4930   34.3100   42.5080 C   0  0  0  0  0  0  0  0  0  0  0  0
   47.1400   34.1160   43.7970 N   0  0  0  0  0  0  0  0  0  0  0  0
   45.8720   34.0930   44.2140 C   0  0  0  0  0  0  0  0  0  0  0  0
   44.8860   34.2700   43.3170 N   0  0  0  0  0  0  0  0  0  0  0  0
   46.7830   34.6500   40.5430 H   0  0  0  0  0  0  0  0  0  0  0  0
   48.5330   34.3260   42.1910 H   0  0  0  0  0  0  0  0  0  0  0  0
   45.5860   33.8780   45.6170 C   0  0  0  0  0  0  0  0  0  0  0  0
   44.7750   34.6470   46.1780 O   0  0  0  0  0  0  0  0  0  0  0  0
   46.2800   32.7710   46.2600 C   0  0  0  0  0  0  0  0  0  0  0  0
   45.8340   31.5610   45.4550 C   0  0  0  0  0  0  0  0  0  0  0  0
   45.2670   31.0930   44.6510 H   0  0  0  0  0  0  0  0  0  0  0  0
   46.7980   30.2300   46.3920 S   0  0  0  0  0  0  0  0  0  0  0  0
   47.5580   31.4860   47.5970 C   0  0  0  0  0  0  0  0  0  0  0  0
   48.2630   31.8070   48.5450 H   0  0  0  0  0  0  0  0  0  0  0  0
   47.0940   32.6950   47.2630 N   0  0  0  0  0  0  0  0  0  0  0  0
   42.2390   34.8110   41.4630 C   0  0  0  0  0  0  0  0  0  0  0  0
   42.2960   34.9560   42.5700 H   0  0  0  0  0  0  0  0  0  0  0  0
   41.7590   33.8080   41.3370 H   0  0  0  0  0  0  0  0  0  0  0  0
   41.3560   35.8080   40.7940 C   0  0  0  0  0  0  0  0  0  0  0  0
   41.9000   36.6390   40.2930 H   0  0  0  0  0  0  0  0  0  0  0  0
   40.7250   36.2860   41.5930 H   0  0  0  0  0  0  0  0  0  0  0  0
   42.0560   36.0750   37.8530 Cl  0  0  0  0  0  0  0  0  0  0  0  0
   40.6650   35.2290   38.4600 C   0  0  0  0  0  0  0  0  0  0  0  0
   40.4350   35.1660   39.8400 C   0  0  0  0  0  0  0  0  0  0  0  0
   39.3150   34.4790   40.2280 C   0  0  0  0  0  0  0  0  0  0  0  0
   38.3960   33.8460   39.4100 C   0  0  0  0  0  0  0  0  0  0  0  0
   38.6440   33.9220   38.0460 C   0  0  0  0  0  0  0  0  0  0  0  0
   37.5400   33.1530   36.9190 Cl  0  0  0  0  0  0  0  0  0  0  0  0
   39.7620   34.6040   37.5960 C   0  0  0  0  0  0  0  0  0  0  0  0
   39.1010   34.4070   41.3000 H   0  0  0  0  0  0  0  0  0  0  0  0
   37.5410   33.3280   39.8210 H   0  0  0  0  0  0  0  0  0  0  0  0
   39.9280   34.6450   36.5220 H   0  0  0  0  0  0  0  0  0  0  0  0
  1 19  1  0  0  0  0
  1  2  1  0  0  0  0
  2  7  1  0  0  0  0
  3  2  2  0  0  0  0
  3  4  1  0  0  0  0
  4  5  2  0  0  0  0
  5  6  1  0  0  0  0
  6 10  1  0  0  0  0
  7  6  2  0  0  0  0
  8  3  1  0  0  0  0
  9  4  1  0  0  0  0
 10 11  2  0  0  0  0
 10 12  1  0  0  0  0
 12 18  1  0  0  0  0
 13 12  2  0  0  0  0
 13 15  1  0  0  0  0
 14 13  1  0  0  0  0
 15 16  1  0  0  0  0
 16 17  1  0  0  0  0
 18 16  2  0  0  0  0
 19 20  1  0  0  0  0
 21 19  1  0  0  0  0
 22 19  1  0  0  0  0
 22 24  1  0  0  0  0
 23 22  1  0  0  0  0
 25 26  1  0  0  0  0
 26 27  1  0  0  0  0
 27 28  2  0  0  0  0
 27 22  1  0  0  0  0
 28 33  1  0  0  0  0
 29 34  1  0  0  0  0
 29 28  1  0  0  0  0
 30 29  2  0  0  0  0
 31 30  1  0  0  0  0
 32 30  1  0  0  0  0
 32 26  2  0  0  0  0
 35 32  1  0  0  0  0
M  END
>  <minimizedAffinity>
-6.37095356

>  <minimizedRMSD>
0.444129974

$$$$
