
 OpenBabel03242515023D

 35 37  0  0  0  0  0  0  0  0999 V2000
   39.0370   29.7360   42.4970 S   0  0  0  0  0  0  0  0  0  0  0  0
   38.7180   31.1240   41.4100 C   0  0  0  0  0  0  0  0  0  0  0  0
   37.4640   31.1510   40.7840 C   0  0  0  0  0  0  0  0  0  0  0  0
   37.1700   32.2150   39.9280 C   0  0  0  0  0  0  0  0  0  0  0  0
   38.1140   33.1650   39.7490 N   0  0  0  0  0  0  0  0  0  0  0  0
   39.3060   33.1350   40.3480 C   0  0  0  0  0  0  0  0  0  0  0  0
   39.5970   32.1140   41.1740 N   0  0  0  0  0  0  0  0  0  0  0  0
   36.6910   30.4030   40.9110 H   0  0  0  0  0  0  0  0  0  0  0  0
   36.2050   32.2610   39.4300 H   0  0  0  0  0  0  0  0  0  0  0  0
   40.2580   34.1970   40.0980 C   0  0  0  0  0  0  0  0  0  0  0  0
   40.0960   35.2860   40.6920 O   0  0  0  0  0  0  0  0  0  0  0  0
   41.3330   33.8980   39.1620 C   0  0  0  0  0  0  0  0  0  0  0  0
   42.5900   34.1820   39.9680 C   0  0  0  0  0  0  0  0  0  0  0  0
   43.1030   34.4920   40.8780 H   0  0  0  0  0  0  0  0  0  0  0  0
   43.8740   33.7570   38.6450 S   0  0  0  0  0  0  0  0  0  0  0  0
   42.5480   33.3110   37.3590 C   0  0  0  0  0  0  0  0  0  0  0  0
   42.1740   32.9380   36.2540 H   0  0  0  0  0  0  0  0  0  0  0  0
   41.3550   33.4890   37.9340 N   0  0  0  0  0  0  0  0  0  0  0  0
   37.5370   28.9120   43.0140 C   0  0  0  0  0  0  0  0  0  0  0  0
   36.8930   28.6900   42.1280 H   0  0  0  0  0  0  0  0  0  0  0  0
   36.9420   29.6410   43.6180 H   0  0  0  0  0  0  0  0  0  0  0  0
   37.7700   27.7160   43.8730 C   0  0  0  0  0  0  0  0  0  0  0  0
   36.9880   27.5460   44.6450 H   0  0  0  0  0  0  0  0  0  0  0  0
   38.7290   27.8880   44.4330 H   0  0  0  0  0  0  0  0  0  0  0  0
   40.5460   26.4890   43.8870 Cl  0  0  0  0  0  0  0  0  0  0  0  0
   39.1930   25.8480   43.0060 C   0  0  0  0  0  0  0  0  0  0  0  0
   37.9510   26.4950   43.0680 C   0  0  0  0  0  0  0  0  0  0  0  0
   36.9420   25.9190   42.3420 C   0  0  0  0  0  0  0  0  0  0  0  0
   37.0170   24.7800   41.5610 C   0  0  0  0  0  0  0  0  0  0  0  0
   38.2570   24.1580   41.5140 C   0  0  0  0  0  0  0  0  0  0  0  0
   38.4620   22.7030   40.5520 Cl  0  0  0  0  0  0  0  0  0  0  0  0
   39.3150   24.6940   42.2280 C   0  0  0  0  0  0  0  0  0  0  0  0
   35.9560   26.3950   42.3660 H   0  0  0  0  0  0  0  0  0  0  0  0
   36.1550   24.4080   41.0250 H   0  0  0  0  0  0  0  0  0  0  0  0
   40.2730   24.1820   42.1710 H   0  0  0  0  0  0  0  0  0  0  0  0
  1 19  1  0  0  0  0
  2  1  1  0  0  0  0
  3  8  1  0  0  0  0
  3  2  2  0  0  0  0
  4  3  1  0  0  0  0
  5  4  2  0  0  0  0
  5  6  1  0  0  0  0
  6  7  2  0  0  0  0
  7  2  1  0  0  0  0
  9  4  1  0  0  0  0
 10  6  1  0  0  0  0
 10 11  2  0  0  0  0
 12 13  2  0  0  0  0
 12 10  1  0  0  0  0
 13 14  1  0  0  0  0
 15 13  1  0  0  0  0
 16 18  2  0  0  0  0
 16 15  1  0  0  0  0
 17 16  1  0  0  0  0
 18 12  1  0  0  0  0
 19 21  1  0  0  0  0
 19 22  1  0  0  0  0
 20 19  1  0  0  0  0
 22 24  1  0  0  0  0
 22 23  1  0  0  0  0
 26 27  1  0  0  0  0
 26 25  1  0  0  0  0
 27 22  1  0  0  0  0
 28 33  1  0  0  0  0
 28 27  2  0  0  0  0
 29 28  1  0  0  0  0
 30 29  2  0  0  0  0
 30 32  1  0  0  0  0
 31 30  1  0  0  0  0
 32 26  2  0  0  0  0
 34 29  1  0  0  0  0
 35 32  1  0  0  0  0
M  END
>  <minimizedAffinity>
-5.75370693

$$$$

 OpenBabel03242515023D

 35 37  0  0  0  0  0  0  0  0999 V2000
   38.0340   31.1110   39.7190 S   0  0  0  0  0  0  0  0  0  0  0  0
   38.8330   32.7150   39.7580 C   0  0  0  0  0  0  0  0  0  0  0  0
   38.0270   33.8050   40.1170 C   0  0  0  0  0  0  0  0  0  0  0  0
   38.6070   35.0750   40.1620 C   0  0  0  0  0  0  0  0  0  0  0  0
   39.9190   35.1850   39.8560 N   0  0  0  0  0  0  0  0  0  0  0  0
   40.6810   34.1440   39.5160 C   0  0  0  0  0  0  0  0  0  0  0  0
   40.1300   32.9180   39.4700 N   0  0  0  0  0  0  0  0  0  0  0  0
   36.9750   33.7430   40.3670 H   0  0  0  0  0  0  0  0  0  0  0  0
   38.0060   35.9370   40.4380 H   0  0  0  0  0  0  0  0  0  0  0  0
   42.0790   34.3550   39.2040 C   0  0  0  0  0  0  0  0  0  0  0  0
   42.3870   34.6140   38.0190 O   0  0  0  0  0  0  0  0  0  0  0  0
   43.0160   34.2420   40.3120 C   0  0  0  0  0  0  0  0  0  0  0  0
   44.3360   33.9260   39.6280 C   0  0  0  0  0  0  0  0  0  0  0  0
   44.9420   33.7400   38.7420 H   0  0  0  0  0  0  0  0  0  0  0  0
   45.4300   33.8110   41.1660 S   0  0  0  0  0  0  0  0  0  0  0  0
   43.9870   34.1880   42.3440 C   0  0  0  0  0  0  0  0  0  0  0  0
   43.4930   34.3660   43.4500 H   0  0  0  0  0  0  0  0  0  0  0  0
   42.8930   34.3580   41.5960 N   0  0  0  0  0  0  0  0  0  0  0  0
   37.9160   30.3650   41.3400 C   0  0  0  0  0  0  0  0  0  0  0  0
   38.1610   31.1160   42.1300 H   0  0  0  0  0  0  0  0  0  0  0  0
   38.7270   29.5990   41.4190 H   0  0  0  0  0  0  0  0  0  0  0  0
   36.6240   29.6640   41.5890 C   0  0  0  0  0  0  0  0  0  0  0  0
   35.7840   30.0080   40.9470 H   0  0  0  0  0  0  0  0  0  0  0  0
   36.3200   29.8890   42.6480 H   0  0  0  0  0  0  0  0  0  0  0  0
   37.1160   28.1610   44.1800 Cl  0  0  0  0  0  0  0  0  0  0  0  0
   36.9990   27.4120   42.6160 C   0  0  0  0  0  0  0  0  0  0  0  0
   36.7690   28.2020   41.4810 C   0  0  0  0  0  0  0  0  0  0  0  0
   36.6920   27.5270   40.2910 C   0  0  0  0  0  0  0  0  0  0  0  0
   36.8150   26.1630   40.0920 C   0  0  0  0  0  0  0  0  0  0  0  0
   37.0420   25.4030   41.2310 C   0  0  0  0  0  0  0  0  0  0  0  0
   37.2130   23.6610   41.0900 Cl  0  0  0  0  0  0  0  0  0  0  0  0
   37.1300   26.0310   42.4620 C   0  0  0  0  0  0  0  0  0  0  0  0
   36.5120   28.1100   39.3810 H   0  0  0  0  0  0  0  0  0  0  0  0
   36.7360   25.7300   39.1050 H   0  0  0  0  0  0  0  0  0  0  0  0
   37.3090   25.4050   43.3340 H   0  0  0  0  0  0  0  0  0  0  0  0
  1  2  1  0  0  0  0
  1 19  1  0  0  0  0
  2  3  1  0  0  0  0
  3  4  2  0  0  0  0
  3  8  1  0  0  0  0
  4  9  1  0  0  0  0
  5  4  1  0  0  0  0
  6  5  2  0  0  0  0
  7  6  1  0  0  0  0
  7  2  2  0  0  0  0
 10  6  1  0  0  0  0
 10 12  1  0  0  0  0
 11 10  2  0  0  0  0
 12 18  1  0  0  0  0
 13 12  2  0  0  0  0
 13 15  1  0  0  0  0
 14 13  1  0  0  0  0
 15 16  1  0  0  0  0
 16 17  1  0  0  0  0
 18 16  2  0  0  0  0
 19 21  1  0  0  0  0
 19 22  1  0  0  0  0
 19 20  1  0  0  0  0
 22 24  1  0  0  0  0
 23 22  1  0  0  0  0
 26 25  1  0  0  0  0
 27 22  1  0  0  0  0
 27 26  2  0  0  0  0
 28 27  1  0  0  0  0
 29 28  2  0  0  0  0
 29 30  1  0  0  0  0
 30 32  2  0  0  0  0
 31 30  1  0  0  0  0
 32 26  1  0  0  0  0
 32 35  1  0  0  0  0
 33 28  1  0  0  0  0
 34 29  1  0  0  0  0
M  END
>  <minimizedAffinity>
-5.73469687

$$$$

 OpenBabel03242515023D

 35 37  0  0  0  0  0  0  0  0999 V2000
   35.8440   28.9020   40.7140 S   0  0  0  0  0  0  0  0  0  0  0  0
   36.6160   30.1280   39.6600 C   0  0  0  0  0  0  0  0  0  0  0  0
   36.6460   29.8410   38.2880 C   0  0  0  0  0  0  0  0  0  0  0  0
   37.2380   30.7690   37.4270 C   0  0  0  0  0  0  0  0  0  0  0  0
   37.7520   31.8960   37.9650 N   0  0  0  0  0  0  0  0  0  0  0  0
   37.7200   32.1640   39.2720 C   0  0  0  0  0  0  0  0  0  0  0  0
   37.1520   31.2770   40.1070 N   0  0  0  0  0  0  0  0  0  0  0  0
   36.2410   28.9450   37.8320 H   0  0  0  0  0  0  0  0  0  0  0  0
   37.2750   30.5720   36.3590 H   0  0  0  0  0  0  0  0  0  0  0  0
   38.2950   33.4000   39.7620 C   0  0  0  0  0  0  0  0  0  0  0  0
   37.5680   34.4170   39.7950 O   0  0  0  0  0  0  0  0  0  0  0  0
   39.6900   33.3470   40.1770 C   0  0  0  0  0  0  0  0  0  0  0  0
   40.2090   34.7370   39.8460 C   0  0  0  0  0  0  0  0  0  0  0  0
   40.0800   35.7480   39.4610 H   0  0  0  0  0  0  0  0  0  0  0  0
   41.9940   34.5170   40.4300 S   0  0  0  0  0  0  0  0  0  0  0  0
   41.7020   32.7180   40.9670 C   0  0  0  0  0  0  0  0  0  0  0  0
   42.0550   31.6440   41.4370 H   0  0  0  0  0  0  0  0  0  0  0  0
   40.4260   32.4220   40.7050 N   0  0  0  0  0  0  0  0  0  0  0  0
   36.6520   28.7600   42.3030 C   0  0  0  0  0  0  0  0  0  0  0  0
   36.2330   29.5090   43.0190 H   0  0  0  0  0  0  0  0  0  0  0  0
   37.7190   29.0660   42.1680 H   0  0  0  0  0  0  0  0  0  0  0  0
   36.6590   27.3750   42.8550 C   0  0  0  0  0  0  0  0  0  0  0  0
   35.9910   26.6640   42.3200 H   0  0  0  0  0  0  0  0  0  0  0  0
   36.2730   27.4320   43.9090 H   0  0  0  0  0  0  0  0  0  0  0  0
   37.0230   24.5400   41.8350 Cl  0  0  0  0  0  0  0  0  0  0  0  0
   38.3020   25.5250   42.4780 C   0  0  0  0  0  0  0  0  0  0  0  0
   38.0240   26.8240   42.9240 C   0  0  0  0  0  0  0  0  0  0  0  0
   39.0920   27.5270   43.4160 C   0  0  0  0  0  0  0  0  0  0  0  0
   40.4020   27.0960   43.5190 C   0  0  0  0  0  0  0  0  0  0  0  0
   40.6530   25.8050   43.0730 C   0  0  0  0  0  0  0  0  0  0  0  0
   42.2840   25.1590   43.1590 Cl  0  0  0  0  0  0  0  0  0  0  0  0
   39.6120   25.0480   42.5650 C   0  0  0  0  0  0  0  0  0  0  0  0
   38.9140   28.5470   43.7730 H   0  0  0  0  0  0  0  0  0  0  0  0
   41.1740   27.7350   43.9250 H   0  0  0  0  0  0  0  0  0  0  0  0
   39.8420   24.0410   42.2230 H   0  0  0  0  0  0  0  0  0  0  0  0
  1 19  1  0  0  0  0
  2  7  1  0  0  0  0
  2  1  1  0  0  0  0
  3  2  2  0  0  0  0
  4  5  2  0  0  0  0
  4  3  1  0  0  0  0
  5  6  1  0  0  0  0
  6 10  1  0  0  0  0
  6  7  2  0  0  0  0
  8  3  1  0  0  0  0
  9  4  1  0  0  0  0
 10 11  2  0  0  0  0
 10 12  1  0  0  0  0
 12 18  1  0  0  0  0
 13 12  2  0  0  0  0
 13 15  1  0  0  0  0
 14 13  1  0  0  0  0
 15 16  1  0  0  0  0
 16 17  1  0  0  0  0
 18 16  2  0  0  0  0
 19 22  1  0  0  0  0
 19 20  1  0  0  0  0
 21 19  1  0  0  0  0
 22 27  1  0  0  0  0
 22 24  1  0  0  0  0
 23 22  1  0  0  0  0
 25 26  1  0  0  0  0
 26 32  2  0  0  0  0
 26 27  1  0  0  0  0
 27 28  2  0  0  0  0
 28 29  1  0  0  0  0
 28 33  1  0  0  0  0
 29 34  1  0  0  0  0
 30 31  1  0  0  0  0
 30 29  2  0  0  0  0
 32 30  1  0  0  0  0
 35 32  1  0  0  0  0
M  END
>  <minimizedAffinity>
-5.65634203

$$$$

 OpenBabel03242515023D

 35 37  0  0  0  0  0  0  0  0999 V2000
   36.9170   31.3920   39.5360 S   0  0  0  0  0  0  0  0  0  0  0  0
   38.2200   32.5560   39.9370 C   0  0  0  0  0  0  0  0  0  0  0  0
   37.8620   33.9120   39.9540 C   0  0  0  0  0  0  0  0  0  0  0  0
   38.8450   34.8550   40.2630 C   0  0  0  0  0  0  0  0  0  0  0  0
   40.0920   34.4080   40.5290 N   0  0  0  0  0  0  0  0  0  0  0  0
   40.4270   33.1170   40.5120 C   0  0  0  0  0  0  0  0  0  0  0  0
   39.4870   32.2020   40.2160 N   0  0  0  0  0  0  0  0  0  0  0  0
   36.8700   34.2940   39.7460 H   0  0  0  0  0  0  0  0  0  0  0  0
   38.5950   35.9130   40.2840 H   0  0  0  0  0  0  0  0  0  0  0  0
   41.7890   32.7280   40.8100 C   0  0  0  0  0  0  0  0  0  0  0  0
   42.0170   32.1690   41.9060 O   0  0  0  0  0  0  0  0  0  0  0  0
   42.7880   33.0290   39.7940 C   0  0  0  0  0  0  0  0  0  0  0  0
   42.8120   31.7720   38.9400 C   0  0  0  0  0  0  0  0  0  0  0  0
   42.4720   30.7660   38.6960 H   0  0  0  0  0  0  0  0  0  0  0  0
   44.1280   32.3050   37.6910 S   0  0  0  0  0  0  0  0  0  0  0  0
   44.3650   34.0020   38.5130 C   0  0  0  0  0  0  0  0  0  0  0  0
   44.8780   35.1080   38.6140 H   0  0  0  0  0  0  0  0  0  0  0  0
   43.5360   34.0600   39.5600 N   0  0  0  0  0  0  0  0  0  0  0  0
   36.1530   30.6920   40.9930 C   0  0  0  0  0  0  0  0  0  0  0  0
   35.2680   31.3030   41.2970 H   0  0  0  0  0  0  0  0  0  0  0  0
   36.8750   30.8030   41.8400 H   0  0  0  0  0  0  0  0  0  0  0  0
   35.8380   29.2400   40.8710 C   0  0  0  0  0  0  0  0  0  0  0  0
   35.7410   28.8780   39.8240 H   0  0  0  0  0  0  0  0  0  0  0  0
   34.8370   29.0730   41.3530 H   0  0  0  0  0  0  0  0  0  0  0  0
   36.4580   26.5220   39.6720 Cl  0  0  0  0  0  0  0  0  0  0  0  0
   37.1710   27.1380   41.1320 C   0  0  0  0  0  0  0  0  0  0  0  0
   36.8130   28.4090   41.5990 C   0  0  0  0  0  0  0  0  0  0  0  0
   37.4250   28.8130   42.7570 C   0  0  0  0  0  0  0  0  0  0  0  0
   38.3480   28.1060   43.5070 C   0  0  0  0  0  0  0  0  0  0  0  0
   38.6860   26.8490   43.0240 C   0  0  0  0  0  0  0  0  0  0  0  0
   39.8500   25.8680   43.9000 Cl  0  0  0  0  0  0  0  0  0  0  0  0
   38.0990   26.3890   41.8580 C   0  0  0  0  0  0  0  0  0  0  0  0
   37.1710   29.8020   43.1540 H   0  0  0  0  0  0  0  0  0  0  0  0
   38.7720   28.5200   44.4110 H   0  0  0  0  0  0  0  0  0  0  0  0
   38.3870   25.3990   41.5070 H   0  0  0  0  0  0  0  0  0  0  0  0
  1  2  1  0  0  0  0
  1 19  1  0  0  0  0
  2  3  2  0  0  0  0
  2  7  1  0  0  0  0
  3  4  1  0  0  0  0
  4  9  1  0  0  0  0
  4  5  2  0  0  0  0
  6  5  1  0  0  0  0
  6 10  1  0  0  0  0
  7  6  2  0  0  0  0
  8  3  1  0  0  0  0
 10 11  2  0  0  0  0
 12 10  1  0  0  0  0
 13 12  2  0  0  0  0
 14 13  1  0  0  0  0
 15 16  1  0  0  0  0
 15 13  1  0  0  0  0
 16 17  1  0  0  0  0
 16 18  2  0  0  0  0
 18 12  1  0  0  0  0
 19 20  1  0  0  0  0
 19 21  1  0  0  0  0
 22 19  1  0  0  0  0
 22 24  1  0  0  0  0
 22 27  1  0  0  0  0
 23 22  1  0  0  0  0
 25 26  1  0  0  0  0
 26 27  2  0  0  0  0
 26 32  1  0  0  0  0
 27 28  1  0  0  0  0
 28 33  1  0  0  0  0
 28 29  2  0  0  0  0
 29 34  1  0  0  0  0
 30 29  1  0  0  0  0
 30 31  1  0  0  0  0
 32 30  2  0  0  0  0
 35 32  1  0  0  0  0
M  END
>  <minimizedAffinity>
-5.54914474

$$$$

 OpenBabel03242515023D

 35 37  0  0  0  0  0  0  0  0999 V2000
   37.2300   30.8630   38.7520 S   0  0  0  0  0  0  0  0  0  0  0  0
   38.2190   32.2880   39.1990 C   0  0  0  0  0  0  0  0  0  0  0  0
   37.5250   33.3960   39.7050 C   0  0  0  0  0  0  0  0  0  0  0  0
   38.2560   34.5300   40.0680 C   0  0  0  0  0  0  0  0  0  0  0  0
   39.5970   34.4980   39.9110 N   0  0  0  0  0  0  0  0  0  0  0  0
   40.2530   33.4400   39.4300 C   0  0  0  0  0  0  0  0  0  0  0  0
   39.5570   32.3450   39.0780 N   0  0  0  0  0  0  0  0  0  0  0  0
   36.4510   33.4460   39.8410 H   0  0  0  0  0  0  0  0  0  0  0  0
   37.7420   35.4030   40.4640 H   0  0  0  0  0  0  0  0  0  0  0  0
   41.6940   33.4940   39.2960 C   0  0  0  0  0  0  0  0  0  0  0  0
   42.1850   33.3790   38.1510 O   0  0  0  0  0  0  0  0  0  0  0  0
   42.4540   33.6760   40.5250 C   0  0  0  0  0  0  0  0  0  0  0  0
   42.7440   32.2540   40.9750 C   0  0  0  0  0  0  0  0  0  0  0  0
   42.6790   31.1730   40.8560 H   0  0  0  0  0  0  0  0  0  0  0  0
   43.7160   32.6490   42.5480 S   0  0  0  0  0  0  0  0  0  0  0  0
   43.5490   34.5260   42.3000 C   0  0  0  0  0  0  0  0  0  0  0  0
   43.7350   35.6940   42.6160 H   0  0  0  0  0  0  0  0  0  0  0  0
   42.8500   34.7220   41.1770 N   0  0  0  0  0  0  0  0  0  0  0  0
   36.1700   30.3190   40.0860 C   0  0  0  0  0  0  0  0  0  0  0  0
   35.9120   29.2390   39.9590 H   0  0  0  0  0  0  0  0  0  0  0  0
   35.1940   30.8550   39.9820 H   0  0  0  0  0  0  0  0  0  0  0  0
   36.7000   30.6310   41.4440 C   0  0  0  0  0  0  0  0  0  0  0  0
   35.9330   30.9890   42.1650 H   0  0  0  0  0  0  0  0  0  0  0  0
   37.4380   31.4710   41.3300 H   0  0  0  0  0  0  0  0  0  0  0  0
   39.5470   31.1660   42.3500 Cl  0  0  0  0  0  0  0  0  0  0  0  0
   38.7510   29.6260   42.4680 C   0  0  0  0  0  0  0  0  0  0  0  0
   37.4320   29.4880   42.0180 C   0  0  0  0  0  0  0  0  0  0  0  0
   36.8850   28.2380   42.1500 C   0  0  0  0  0  0  0  0  0  0  0  0
   37.4900   27.1100   42.6740 C   0  0  0  0  0  0  0  0  0  0  0  0
   38.7970   27.2720   43.1120 C   0  0  0  0  0  0  0  0  0  0  0  0
   39.6590   25.9030   43.7950 Cl  0  0  0  0  0  0  0  0  0  0  0  0
   39.4020   28.5130   43.0040 C   0  0  0  0  0  0  0  0  0  0  0  0
   35.8540   28.0910   41.8100 H   0  0  0  0  0  0  0  0  0  0  0  0
   36.9660   26.1670   42.7320 H   0  0  0  0  0  0  0  0  0  0  0  0
   40.4270   28.6050   43.3570 H   0  0  0  0  0  0  0  0  0  0  0  0
  1  2  1  0  0  0  0
  1 19  1  0  0  0  0
  2  3  1  0  0  0  0
  3  8  1  0  0  0  0
  3  4  2  0  0  0  0
  4  9  1  0  0  0  0
  5  4  1  0  0  0  0
  6  5  2  0  0  0  0
  7  2  2  0  0  0  0
  7  6  1  0  0  0  0
 10  6  1  0  0  0  0
 10 12  1  0  0  0  0
 11 10  2  0  0  0  0
 12 13  2  0  0  0  0
 12 18  1  0  0  0  0
 13 15  1  0  0  0  0
 14 13  1  0  0  0  0
 16 15  1  0  0  0  0
 16 17  1  0  0  0  0
 18 16  2  0  0  0  0
 19 22  1  0  0  0  0
 20 19  1  0  0  0  0
 21 19  1  0  0  0  0
 22 27  1  0  0  0  0
 22 23  1  0  0  0  0
 24 22  1  0  0  0  0
 25 26  1  0  0  0  0
 26 32  1  0  0  0  0
 27 28  1  0  0  0  0
 27 26  2  0  0  0  0
 28 29  2  0  0  0  0
 29 34  1  0  0  0  0
 29 30  1  0  0  0  0
 30 31  1  0  0  0  0
 32 30  2  0  0  0  0
 32 35  1  0  0  0  0
 33 28  1  0  0  0  0
M  END
>  <minimizedAffinity>
-5.49623299

$$$$

 OpenBabel03242515023D

 35 37  0  0  0  0  0  0  0  0999 V2000
   37.7780   26.6640   39.5270 S   0  0  0  0  0  0  0  0  0  0  0  0
   37.4450   28.2950   40.1910 C   0  0  0  0  0  0  0  0  0  0  0  0
   36.1090   28.7180   40.1650 C   0  0  0  0  0  0  0  0  0  0  0  0
   35.8020   29.9840   40.6730 C   0  0  0  0  0  0  0  0  0  0  0  0
   36.8140   30.7330   41.1630 N   0  0  0  0  0  0  0  0  0  0  0  0
   38.0840   30.3240   41.1850 C   0  0  0  0  0  0  0  0  0  0  0  0
   38.3880   29.1080   40.6990 N   0  0  0  0  0  0  0  0  0  0  0  0
   35.2810   28.1370   39.7790 H   0  0  0  0  0  0  0  0  0  0  0  0
   34.7740   30.3370   40.6660 H   0  0  0  0  0  0  0  0  0  0  0  0
   39.1050   31.1950   41.7300 C   0  0  0  0  0  0  0  0  0  0  0  0
   39.6830   30.8400   42.7810 O   0  0  0  0  0  0  0  0  0  0  0  0
   39.3690   32.4240   40.9960 C   0  0  0  0  0  0  0  0  0  0  0  0
   40.6110   32.0900   40.1850 C   0  0  0  0  0  0  0  0  0  0  0  0
   41.4020   31.4120   39.8700 H   0  0  0  0  0  0  0  0  0  0  0  0
   40.8250   33.7500   39.3030 S   0  0  0  0  0  0  0  0  0  0  0  0
   39.3010   34.5090   40.1470 C   0  0  0  0  0  0  0  0  0  0  0  0
   38.5080   35.4150   40.3660 H   0  0  0  0  0  0  0  0  0  0  0  0
   38.7810   33.5770   40.9510 N   0  0  0  0  0  0  0  0  0  0  0  0
   37.1420   25.3580   40.5700 C   0  0  0  0  0  0  0  0  0  0  0  0
   37.6860   24.4030   40.3700 H   0  0  0  0  0  0  0  0  0  0  0  0
   36.0900   25.1530   40.2510 H   0  0  0  0  0  0  0  0  0  0  0  0
   37.1010   25.7070   42.0190 C   0  0  0  0  0  0  0  0  0  0  0  0
   36.4900   25.0170   42.6410 H   0  0  0  0  0  0  0  0  0  0  0  0
   36.6160   26.7170   42.1060 H   0  0  0  0  0  0  0  0  0  0  0  0
   37.5780   28.0510   43.8880 Cl  0  0  0  0  0  0  0  0  0  0  0  0
   38.7820   26.8720   43.4620 C   0  0  0  0  0  0  0  0  0  0  0  0
   38.4550   25.8270   42.5880 C   0  0  0  0  0  0  0  0  0  0  0  0
   39.4650   24.9440   42.3090 C   0  0  0  0  0  0  0  0  0  0  0  0
   40.7610   24.9750   42.7930 C   0  0  0  0  0  0  0  0  0  0  0  0
   41.0610   26.0200   43.6560 C   0  0  0  0  0  0  0  0  0  0  0  0
   42.6780   26.1520   44.3290 Cl  0  0  0  0  0  0  0  0  0  0  0  0
   40.0790   26.9420   43.9750 C   0  0  0  0  0  0  0  0  0  0  0  0
   39.2480   24.1130   41.6300 H   0  0  0  0  0  0  0  0  0  0  0  0
   41.4850   24.2250   42.5080 H   0  0  0  0  0  0  0  0  0  0  0  0
   40.3470   27.7480   44.6550 H   0  0  0  0  0  0  0  0  0  0  0  0
  1  2  1  0  0  0  0
  1 19  1  0  0  0  0
  2  7  1  0  0  0  0
  3  2  2  0  0  0  0
  3  4  1  0  0  0  0
  4  5  2  0  0  0  0
  5  6  1  0  0  0  0
  6 10  1  0  0  0  0
  7  6  2  0  0  0  0
  8  3  1  0  0  0  0
  9  4  1  0  0  0  0
 10 11  2  0  0  0  0
 12 10  1  0  0  0  0
 13 12  2  0  0  0  0
 14 13  1  0  0  0  0
 15 16  1  0  0  0  0
 15 13  1  0  0  0  0
 16 17  1  0  0  0  0
 16 18  2  0  0  0  0
 18 12  1  0  0  0  0
 19 22  1  0  0  0  0
 20 19  1  0  0  0  0
 21 19  1  0  0  0  0
 22 24  1  0  0  0  0
 22 27  1  0  0  0  0
 22 23  1  0  0  0  0
 26 25  1  0  0  0  0
 26 32  1  0  0  0  0
 27 26  2  0  0  0  0
 28 27  1  0  0  0  0
 28 29  2  0  0  0  0
 29 30  1  0  0  0  0
 30 32  2  0  0  0  0
 30 31  1  0  0  0  0
 32 35  1  0  0  0  0
 33 28  1  0  0  0  0
 34 29  1  0  0  0  0
M  END
>  <minimizedAffinity>
-5.47208261

$$$$

 OpenBabel03242515023D

 35 37  0  0  0  0  0  0  0  0999 V2000
   38.8210   28.7740   42.9500 S   0  0  0  0  0  0  0  0  0  0  0  0
   38.1650   30.0940   41.9320 C   0  0  0  0  0  0  0  0  0  0  0  0
   36.8100   30.0000   41.5840 C   0  0  0  0  0  0  0  0  0  0  0  0
   36.2550   31.0070   40.7910 C   0  0  0  0  0  0  0  0  0  0  0  0
   37.0570   32.0220   40.4000 N   0  0  0  0  0  0  0  0  0  0  0  0
   38.3450   32.1070   40.7350 C   0  0  0  0  0  0  0  0  0  0  0  0
   38.8880   31.1420   41.4980 N   0  0  0  0  0  0  0  0  0  0  0  0
   36.1470   29.1980   41.8840 H   0  0  0  0  0  0  0  0  0  0  0  0
   35.2070   30.9590   40.5070 H   0  0  0  0  0  0  0  0  0  0  0  0
   39.1310   33.2320   40.2720 C   0  0  0  0  0  0  0  0  0  0  0  0
   39.0010   34.3260   40.8640 O   0  0  0  0  0  0  0  0  0  0  0  0
   40.0120   32.9860   39.1390 C   0  0  0  0  0  0  0  0  0  0  0  0
   41.0470   34.0940   39.2500 C   0  0  0  0  0  0  0  0  0  0  0  0
   41.4690   34.9740   39.7350 H   0  0  0  0  0  0  0  0  0  0  0  0
   42.0990   33.6490   37.7430 S   0  0  0  0  0  0  0  0  0  0  0  0
   41.0080   32.1590   37.2970 C   0  0  0  0  0  0  0  0  0  0  0  0
   40.7000   31.1930   36.6100 H   0  0  0  0  0  0  0  0  0  0  0  0
   40.0290   32.0920   38.2030 N   0  0  0  0  0  0  0  0  0  0  0  0
   38.7620   27.1850   42.1330 C   0  0  0  0  0  0  0  0  0  0  0  0
   39.6490   26.5690   42.4190 H   0  0  0  0  0  0  0  0  0  0  0  0
   38.8880   27.3650   41.0360 H   0  0  0  0  0  0  0  0  0  0  0  0
   37.4720   26.4600   42.3130 C   0  0  0  0  0  0  0  0  0  0  0  0
   36.5700   27.1090   42.2690 H   0  0  0  0  0  0  0  0  0  0  0  0
   37.4820   26.0110   43.3430 H   0  0  0  0  0  0  0  0  0  0  0  0
   36.2230   27.1320   39.6300 Cl  0  0  0  0  0  0  0  0  0  0  0  0
   36.7720   25.5490   40.0900 C   0  0  0  0  0  0  0  0  0  0  0  0
   37.3350   25.3470   41.3570 C   0  0  0  0  0  0  0  0  0  0  0  0
   37.7390   24.0680   41.6330 C   0  0  0  0  0  0  0  0  0  0  0  0
   37.6520   22.9640   40.8030 C   0  0  0  0  0  0  0  0  0  0  0  0
   37.0900   23.1890   39.5540 C   0  0  0  0  0  0  0  0  0  0  0  0
   36.9320   21.8560   38.4220 Cl  0  0  0  0  0  0  0  0  0  0  0  0
   36.6630   24.4630   39.2190 C   0  0  0  0  0  0  0  0  0  0  0  0
   38.1860   23.8710   42.6140 H   0  0  0  0  0  0  0  0  0  0  0  0
   38.0030   21.9930   41.1210 H   0  0  0  0  0  0  0  0  0  0  0  0
   36.2280   24.6040   38.2320 H   0  0  0  0  0  0  0  0  0  0  0  0
  2  1  1  0  0  0  0
  3  8  1  0  0  0  0
  3  2  1  0  0  0  0
  4  3  2  0  0  0  0
  5  6  2  0  0  0  0
  5  4  1  0  0  0  0
  6  7  1  0  0  0  0
  7  2  2  0  0  0  0
  9  4  1  0  0  0  0
 10  6  1  0  0  0  0
 10 11  2  0  0  0  0
 12 13  2  0  0  0  0
 12 10  1  0  0  0  0
 13 14  1  0  0  0  0
 15 13  1  0  0  0  0
 16 15  1  0  0  0  0
 16 18  2  0  0  0  0
 17 16  1  0  0  0  0
 18 12  1  0  0  0  0
 19 22  1  0  0  0  0
 19 20  1  0  0  0  0
 19  1  1  0  0  0  0
 21 19  1  0  0  0  0
 22 24  1  0  0  0  0
 23 22  1  0  0  0  0
 25 26  1  0  0  0  0
 26 27  1  0  0  0  0
 27 28  2  0  0  0  0
 27 22  1  0  0  0  0
 28 33  1  0  0  0  0
 29 34  1  0  0  0  0
 29 28  1  0  0  0  0
 30 29  2  0  0  0  0
 31 30  1  0  0  0  0
 32 30  1  0  0  0  0
 32 26  2  0  0  0  0
 35 32  1  0  0  0  0
M  END
>  <minimizedAffinity>
-5.38906145

$$$$

 OpenBabel03242515023D

 35 37  0  0  0  0  0  0  0  0999 V2000
   36.9150   30.7740   38.8310 S   0  0  0  0  0  0  0  0  0  0  0  0
   38.0430   32.1060   39.2400 C   0  0  0  0  0  0  0  0  0  0  0  0
   37.4630   33.2940   39.7070 C   0  0  0  0  0  0  0  0  0  0  0  0
   38.3040   34.3590   40.0380 C   0  0  0  0  0  0  0  0  0  0  0  0
   39.6360   34.1860   39.8900 N   0  0  0  0  0  0  0  0  0  0  0  0
   40.1820   33.0530   39.4460 C   0  0  0  0  0  0  0  0  0  0  0  0
   39.3800   32.0230   39.1250 N   0  0  0  0  0  0  0  0  0  0  0  0
   36.4000   33.4570   39.8340 H   0  0  0  0  0  0  0  0  0  0  0  0
   37.8810   35.2910   40.4030 H   0  0  0  0  0  0  0  0  0  0  0  0
   41.6220   32.9560   39.3190 C   0  0  0  0  0  0  0  0  0  0  0  0
   42.3200   33.8720   39.8050 O   0  0  0  0  0  0  0  0  0  0  0  0
   42.1350   31.7820   38.6250 C   0  0  0  0  0  0  0  0  0  0  0  0
   42.2950   32.2630   37.1920 C   0  0  0  0  0  0  0  0  0  0  0  0
   42.2240   33.0250   36.4180 H   0  0  0  0  0  0  0  0  0  0  0  0
   42.9550   30.6620   36.4310 S   0  0  0  0  0  0  0  0  0  0  0  0
   42.8890   29.7300   38.0860 C   0  0  0  0  0  0  0  0  0  0  0  0
   43.0420   28.7440   38.7950 H   0  0  0  0  0  0  0  0  0  0  0  0
   42.4260   30.5800   39.0080 N   0  0  0  0  0  0  0  0  0  0  0  0
   36.0070   30.1860   40.2540 C   0  0  0  0  0  0  0  0  0  0  0  0
   35.7710   29.1000   40.1410 H   0  0  0  0  0  0  0  0  0  0  0  0
   35.0090   30.6910   40.2500 H   0  0  0  0  0  0  0  0  0  0  0  0
   36.6550   30.5040   41.5590 C   0  0  0  0  0  0  0  0  0  0  0  0
   35.9600   30.8950   42.3340 H   0  0  0  0  0  0  0  0  0  0  0  0
   37.4040   31.3210   41.3700 H   0  0  0  0  0  0  0  0  0  0  0  0
   39.5220   31.0210   42.4110 Cl  0  0  0  0  0  0  0  0  0  0  0  0
   38.7290   29.4790   42.5150 C   0  0  0  0  0  0  0  0  0  0  0  0
   37.3990   29.3490   42.0920 C   0  0  0  0  0  0  0  0  0  0  0  0
   36.8550   28.0970   42.2100 C   0  0  0  0  0  0  0  0  0  0  0  0
   37.4730   26.9580   42.6960 C   0  0  0  0  0  0  0  0  0  0  0  0
   38.7900   27.1110   43.1080 C   0  0  0  0  0  0  0  0  0  0  0  0
   39.6660   25.7280   43.7420 Cl  0  0  0  0  0  0  0  0  0  0  0  0
   39.3910   28.3550   43.0120 C   0  0  0  0  0  0  0  0  0  0  0  0
   35.8170   27.9560   41.8900 H   0  0  0  0  0  0  0  0  0  0  0  0
   36.9500   26.0140   42.7470 H   0  0  0  0  0  0  0  0  0  0  0  0
   40.4240   28.4400   43.3440 H   0  0  0  0  0  0  0  0  0  0  0  0
  1  2  1  0  0  0  0
  1 19  1  0  0  0  0
  2  3  1  0  0  0  0
  3  8  1  0  0  0  0
  3  4  2  0  0  0  0
  4  9  1  0  0  0  0
  5  4  1  0  0  0  0
  6  5  2  0  0  0  0
  7  2  2  0  0  0  0
  7  6  1  0  0  0  0
 10  6  1  0  0  0  0
 10 11  2  0  0  0  0
 12 18  1  0  0  0  0
 12 10  1  0  0  0  0
 13 12  2  0  0  0  0
 14 13  1  0  0  0  0
 15 13  1  0  0  0  0
 15 16  1  0  0  0  0
 16 17  1  0  0  0  0
 16 18  2  0  0  0  0
 19 22  1  0  0  0  0
 20 19  1  0  0  0  0
 21 19  1  0  0  0  0
 22 27  1  0  0  0  0
 22 23  1  0  0  0  0
 24 22  1  0  0  0  0
 25 26  1  0  0  0  0
 26 32  1  0  0  0  0
 27 28  1  0  0  0  0
 27 26  2  0  0  0  0
 28 29  2  0  0  0  0
 29 34  1  0  0  0  0
 29 30  1  0  0  0  0
 30 31  1  0  0  0  0
 32 30  2  0  0  0  0
 32 35  1  0  0  0  0
 33 28  1  0  0  0  0
M  END
>  <minimizedAffinity>
-5.38158798

$$$$

 OpenBabel03242515023D

 35 37  0  0  0  0  0  0  0  0999 V2000
   36.2860   26.5580   38.2220 S   0  0  0  0  0  0  0  0  0  0  0  0
   36.6390   26.1370   39.9270 C   0  0  0  0  0  0  0  0  0  0  0  0
   36.6330   24.7720   40.2470 C   0  0  0  0  0  0  0  0  0  0  0  0
   36.9040   24.3960   41.5650 C   0  0  0  0  0  0  0  0  0  0  0  0
   37.1580   25.3720   42.4640 N   0  0  0  0  0  0  0  0  0  0  0  0
   37.1630   26.6700   42.1530 C   0  0  0  0  0  0  0  0  0  0  0  0
   36.9030   27.0400   40.8870 N   0  0  0  0  0  0  0  0  0  0  0  0
   36.4330   23.9710   39.5450 H   0  0  0  0  0  0  0  0  0  0  0  0
   36.9070   23.3440   41.8400 H   0  0  0  0  0  0  0  0  0  0  0  0
   37.4470   27.6490   43.1820 C   0  0  0  0  0  0  0  0  0  0  0  0
   36.7280   27.6540   44.2060 O   0  0  0  0  0  0  0  0  0  0  0  0
   38.5590   28.5540   42.9280 C   0  0  0  0  0  0  0  0  0  0  0  0
   39.7750   27.6440   42.9850 C   0  0  0  0  0  0  0  0  0  0  0  0
   40.2440   26.6700   43.1170 H   0  0  0  0  0  0  0  0  0  0  0  0
   41.1110   28.9380   42.6430 S   0  0  0  0  0  0  0  0  0  0  0  0
   39.8480   30.3510   42.5010 C   0  0  0  0  0  0  0  0  0  0  0  0
   39.5260   31.5180   42.3230 H   0  0  0  0  0  0  0  0  0  0  0  0
   38.6350   29.8260   42.6970 N   0  0  0  0  0  0  0  0  0  0  0  0
   37.1820   28.0050   37.6740 C   0  0  0  0  0  0  0  0  0  0  0  0
   37.7470   27.7790   36.7370 H   0  0  0  0  0  0  0  0  0  0  0  0
   37.9740   28.2200   38.4350 H   0  0  0  0  0  0  0  0  0  0  0  0
   36.3390   29.2300   37.5600 C   0  0  0  0  0  0  0  0  0  0  0  0
   35.2690   29.0770   37.8210 H   0  0  0  0  0  0  0  0  0  0  0  0
   36.3550   29.5470   36.4820 H   0  0  0  0  0  0  0  0  0  0  0  0
   35.1150   29.6850   40.2990 Cl  0  0  0  0  0  0  0  0  0  0  0  0
   36.3990   30.6420   39.6250 C   0  0  0  0  0  0  0  0  0  0  0  0
   36.8920   30.3460   38.3480 C   0  0  0  0  0  0  0  0  0  0  0  0
   37.9040   31.1530   37.8970 C   0  0  0  0  0  0  0  0  0  0  0  0
   38.4840   32.2180   38.5610 C   0  0  0  0  0  0  0  0  0  0  0  0
   37.9780   32.4930   39.8250 C   0  0  0  0  0  0  0  0  0  0  0  0
   38.6450   33.8250   40.7550 Cl  0  0  0  0  0  0  0  0  0  0  0  0
   36.9550   31.7100   40.3320 C   0  0  0  0  0  0  0  0  0  0  0  0
   38.3160   30.9520   36.9020 H   0  0  0  0  0  0  0  0  0  0  0  0
   39.2820   32.7930   38.1120 H   0  0  0  0  0  0  0  0  0  0  0  0
   36.5820   31.9520   41.3260 H   0  0  0  0  0  0  0  0  0  0  0  0
  1  2  1  0  0  0  0
  2  3  2  0  0  0  0
  2  7  1  0  0  0  0
  3  4  1  0  0  0  0
  4  9  1  0  0  0  0
  4  5  2  0  0  0  0
  6  5  1  0  0  0  0
  6 10  1  0  0  0  0
  7  6  2  0  0  0  0
  8  3  1  0  0  0  0
 10 11  2  0  0  0  0
 12 13  2  0  0  0  0
 12 10  1  0  0  0  0
 13 14  1  0  0  0  0
 15 13  1  0  0  0  0
 16 15  1  0  0  0  0
 16 18  2  0  0  0  0
 17 16  1  0  0  0  0
 18 12  1  0  0  0  0
 19  1  1  0  0  0  0
 19 21  1  0  0  0  0
 20 19  1  0  0  0  0
 22 19  1  0  0  0  0
 22 23  1  0  0  0  0
 22 27  1  0  0  0  0
 24 22  1  0  0  0  0
 26 25  1  0  0  0  0
 26 32  1  0  0  0  0
 27 26  2  0  0  0  0
 28 27  1  0  0  0  0
 28 29  2  0  0  0  0
 29 30  1  0  0  0  0
 30 32  2  0  0  0  0
 30 31  1  0  0  0  0
 32 35  1  0  0  0  0
 33 28  1  0  0  0  0
 34 29  1  0  0  0  0
M  END
>  <minimizedAffinity>
-5.33921909

$$$$
