
 OpenBabel03252509193D

 41 44  0  0  1  0  0  0  0  0999 V2000
   47.6320   29.3210   47.3900 C   0  0  1  0  0  0  0  0  0  0  0  0
   47.6740   28.4150   46.1960 C   0  0  0  0  0  0  0  0  0  0  0  0
   48.9940   27.7190   45.9860 C   0  0  0  0  0  0  0  0  0  0  0  0
   49.5870   27.1710   47.2490 C   0  0  0  0  0  0  0  0  0  0  0  0
   49.4630   28.1180   48.4150 C   0  0  0  0  0  0  0  0  0  0  0  0
   49.0650   29.5090   47.9010 C   0  0  2  0  0  0  0  0  0  0  0  0
   47.0950   28.8290   48.2290 H   0  0  0  0  0  0  0  0  0  0  0  0
   46.9060   27.6260   46.3390 H   0  0  0  0  0  0  0  0  0  0  0  0
   47.4090   28.9150   45.2420 H   0  0  0  0  0  0  0  0  0  0  0  0
   48.8000   26.8750   45.3150 H   0  0  0  0  0  0  0  0  0  0  0  0
   49.6720   28.4460   45.4820 H   0  0  0  0  0  0  0  0  0  0  0  0
   50.6640   26.9480   47.0080 H   0  0  0  0  0  0  0  0  0  0  0  0
   49.0740   26.2140   47.4650 H   0  0  0  0  0  0  0  0  0  0  0  0
   48.7100   27.8210   49.1520 H   0  0  0  0  0  0  0  0  0  0  0  0
   50.4770   28.2560   48.8620 H   0  0  0  0  0  0  0  0  0  0  0  0
   49.7270   29.7840   47.0350 H   0  0  0  0  0  0  0  0  0  0  0  0
   46.0540   32.8110   45.9610 C   0  0  0  0  0  0  0  0  0  0  0  0
   45.6900   32.5720   47.2820 C   0  0  0  0  0  0  0  0  0  0  0  0
   46.1630   31.4410   47.8500 C   0  0  0  0  0  0  0  0  0  0  0  0
   46.9830   30.5590   47.1250 C   0  0  0  0  0  0  0  0  0  0  0  0
   47.1100   31.3680   45.5020 S   0  0  0  0  0  0  0  0  0  0  0  0
   45.0600   33.2560   47.8300 H   0  0  0  0  0  0  0  0  0  0  0  0
   45.9810   31.1050   48.8590 H   0  0  0  0  0  0  0  0  0  0  0  0
   44.5540   36.0040   44.7490 C   0  0  0  0  0  0  0  0  0  0  0  0
   45.1480   36.0890   43.4910 C   0  0  0  0  0  0  0  0  0  0  0  0
   46.0240   35.0740   43.0940 C   0  0  0  0  0  0  0  0  0  0  0  0
   46.2460   34.0480   43.9760 N   0  0  0  0  0  0  0  0  0  0  0  0
   45.6570   33.9980   45.1790 C   0  0  0  0  0  0  0  0  0  0  0  0
   44.8040   34.9880   45.5630 N   0  0  0  0  0  0  0  0  0  0  0  0
   43.8750   36.7770   45.0750 H   0  0  0  0  0  0  0  0  0  0  0  0
   44.9670   36.8990   42.8090 H   0  0  0  0  0  0  0  0  0  0  0  0
   46.5370   35.0460   42.1400 H   0  0  0  0  0  0  0  0  0  0  0  0
   49.1320   30.4870   48.9810 C   0  0  0  0  0  0  0  0  0  0  0  0
   48.1830   30.6180   49.7860 O   0  0  0  0  0  0  0  0  0  0  0  0
   50.1420   31.4360   49.3930 C   0  0  0  0  0  0  0  0  0  0  0  0
   51.5460   30.8560   49.0260 C   0  0  0  0  0  0  0  0  0  0  0  0
   52.1300   29.9640   48.5690 H   0  0  0  0  0  0  0  0  0  0  0  0
   52.6680   32.1170   49.5500 S   0  0  0  0  0  0  0  0  0  0  0  0
   51.3060   33.2520   50.1770 C   0  0  0  0  0  0  0  0  0  0  0  0
   51.2310   34.2580   50.6590 H   0  0  0  0  0  0  0  0  0  0  0  0
   50.5280   32.5440   49.8920 N   0  0  0  0  0  0  0  0  0  0  0  0
  1  6  1  0  0  0  0
  1  7  1  1  0  0  0
  2  8  1  0  0  0  0
  2  1  1  0  0  0  0
  3  2  1  0  0  0  0
  3  4  1  0  0  0  0
  4 13  1  0  0  0  0
  4  5  1  0  0  0  0
  5 15  1  0  0  0  0
  5 14  1  0  0  0  0
  6 16  1  6  0  0  0
  6  5  1  0  0  0  0
  6 33  1  0  0  0  0
  9  2  1  0  0  0  0
 10  3  1  0  0  0  0
 11  3  1  0  0  0  0
 12  4  1  0  0  0  0
 17 18  2  0  0  0  0
 18 22  1  0  0  0  0
 18 19  1  0  0  0  0
 19 23  1  0  0  0  0
 20  1  1  0  0  0  0
 20 19  2  0  0  0  0
 21 17  1  0  0  0  0
 21 20  1  0  0  0  0
 24 30  1  0  0  0  0
 24 29  1  0  0  0  0
 25 24  2  0  0  0  0
 26 25  1  0  0  0  0
 26 27  2  0  0  0  0
 27 28  1  0  0  0  0
 28 29  2  0  0  0  0
 28 17  1  0  0  0  0
 31 25  1  0  0  0  0
 32 26  1  0  0  0  0
 33 35  1  0  0  0  0
 33 34  2  0  0  0  0
 35 41  1  0  0  0  0
 36 35  2  0  0  0  0
 36 38  1  0  0  0  0
 37 36  1  0  0  0  0
 38 39  1  0  0  0  0
 39 40  1  0  0  0  0
 41 39  2  0  0  0  0
M  END
>  <minimizedAffinity>
-5.43710947

>  <minimizedRMSD>
1.9425863

$$$$
