
 OpenBabel03252509193D

 41 44  0  0  1  0  0  0  0  0999 V2000
   46.6730   30.3050   47.6690 C   0  0  1  0  0  0  0  0  0  0  0  0
   47.8570   29.4210   47.9290 C   0  0  0  0  0  0  0  0  0  0  0  0
   49.1590   30.1590   48.1060 C   0  0  0  0  0  0  0  0  0  0  0  0
   49.0440   31.3740   48.9740 C   0  0  0  0  0  0  0  0  0  0  0  0
   47.8050   32.1840   48.6880 C   0  0  0  0  0  0  0  0  0  0  0  0
   47.1850   31.7170   47.3630 C   0  0  2  0  0  0  0  0  0  0  0  0
   46.0670   30.4190   48.5930 H   0  0  0  0  0  0  0  0  0  0  0  0
   47.6650   28.8620   48.8670 H   0  0  0  0  0  0  0  0  0  0  0  0
   48.0190   28.6460   47.1510 H   0  0  0  0  0  0  0  0  0  0  0  0
   49.8480   29.4620   48.5970 H   0  0  0  0  0  0  0  0  0  0  0  0
   49.5400   30.4020   47.0870 H   0  0  0  0  0  0  0  0  0  0  0  0
   49.9800   31.9700   48.7900 H   0  0  0  0  0  0  0  0  0  0  0  0
   49.0510   31.0290   50.0260 H   0  0  0  0  0  0  0  0  0  0  0  0
   47.0280   32.0950   49.4530 H   0  0  0  0  0  0  0  0  0  0  0  0
   48.1140   33.2410   48.5040 H   0  0  0  0  0  0  0  0  0  0  0  0
   47.9930   31.6500   46.5830 H   0  0  0  0  0  0  0  0  0  0  0  0
   44.7750   29.0170   44.2850 C   0  0  0  0  0  0  0  0  0  0  0  0
   43.9870   28.8610   45.4220 C   0  0  0  0  0  0  0  0  0  0  0  0
   44.5250   29.2590   46.5960 C   0  0  0  0  0  0  0  0  0  0  0  0
   45.8190   29.8030   46.6470 C   0  0  0  0  0  0  0  0  0  0  0  0
   46.3460   29.7590   44.9080 S   0  0  0  0  0  0  0  0  0  0  0  0
   42.9940   28.4410   45.3710 H   0  0  0  0  0  0  0  0  0  0  0  0
   44.0550   29.2100   47.5650 H   0  0  0  0  0  0  0  0  0  0  0  0
   43.1520   27.5360   41.2710 C   0  0  0  0  0  0  0  0  0  0  0  0
   43.7870   28.2660   40.2700 C   0  0  0  0  0  0  0  0  0  0  0  0
   44.7380   29.2240   40.6390 C   0  0  0  0  0  0  0  0  0  0  0  0
   44.9870   29.3850   41.9780 N   0  0  0  0  0  0  0  0  0  0  0  0
   44.3560   28.6640   42.9150 C   0  0  0  0  0  0  0  0  0  0  0  0
   43.4310   27.7320   42.5520 N   0  0  0  0  0  0  0  0  0  0  0  0
   42.4150   26.7910   41.0080 H   0  0  0  0  0  0  0  0  0  0  0  0
   43.5830   28.1310   39.2230 H   0  0  0  0  0  0  0  0  0  0  0  0
   45.2860   29.8430   39.9390 H   0  0  0  0  0  0  0  0  0  0  0  0
   46.1050   32.6120   46.9640 C   0  0  0  0  0  0  0  0  0  0  0  0
   45.1120   32.7860   47.7050 O   0  0  0  0  0  0  0  0  0  0  0  0
   45.8880   33.4400   45.7990 C   0  0  0  0  0  0  0  0  0  0  0  0
   44.8390   34.5410   46.1620 C   0  0  0  0  0  0  0  0  0  0  0  0
   44.1390   34.9720   46.9810 H   0  0  0  0  0  0  0  0  0  0  0  0
   44.6960   35.4870   44.6760 S   0  0  0  0  0  0  0  0  0  0  0  0
   45.9440   34.4420   43.7350 C   0  0  0  0  0  0  0  0  0  0  0  0
   46.3930   34.4200   42.7120 H   0  0  0  0  0  0  0  0  0  0  0  0
   46.1100   33.7920   44.5950 N   0  0  0  0  0  0  0  0  0  0  0  0
  1  2  1  0  0  0  0
  1  7  1  1  0  0  0
  2  3  1  0  0  0  0
  2  8  1  0  0  0  0
  3 10  1  0  0  0  0
  3  4  1  0  0  0  0
  4 13  1  0  0  0  0
  5  4  1  0  0  0  0
  5 14  1  0  0  0  0
  6 16  1  6  0  0  0
  6  1  1  0  0  0  0
  6  5  1  0  0  0  0
  9  2  1  0  0  0  0
 11  3  1  0  0  0  0
 12  4  1  0  0  0  0
 15  5  1  0  0  0  0
 17 21  1  0  0  0  0
 17 18  2  0  0  0  0
 18 19  1  0  0  0  0
 19 20  2  0  0  0  0
 19 23  1  0  0  0  0
 20  1  1  0  0  0  0
 21 20  1  0  0  0  0
 22 18  1  0  0  0  0
 24 29  1  0  0  0  0
 25 26  1  0  0  0  0
 25 24  2  0  0  0  0
 26 27  2  0  0  0  0
 27 28  1  0  0  0  0
 28 17  1  0  0  0  0
 29 28  2  0  0  0  0
 30 24  1  0  0  0  0
 31 25  1  0  0  0  0
 32 26  1  0  0  0  0
 33  6  1  0  0  0  0
 33 34  2  0  0  0  0
 35 36  2  0  0  0  0
 35 33  1  0  0  0  0
 36 37  1  0  0  0  0
 38 36  1  0  0  0  0
 39 41  2  0  0  0  0
 39 38  1  0  0  0  0
 40 39  1  0  0  0  0
 41 35  1  0  0  0  0
M  END
>  <minimizedAffinity>
-4.23894739

>  <minimizedRMSD>
5.09576893

$$$$
