
 OpenBabel03242520193D

 33 35  0  0  0  0  0  0  0  0999 V2000
   41.0290   35.7610   39.1640 C   0  0  0  0  0  0  0  0  0  0  0  0
   40.7540   35.4150   38.1630 H   0  0  0  0  0  0  0  0  0  0  0  0
   41.2900   36.8350   39.0700 H   0  0  0  0  0  0  0  0  0  0  0  0
   43.9380   34.5830   41.2750 C   0  0  0  0  0  0  0  0  0  0  0  0
   42.7850   35.2870   40.8690 C   0  0  0  0  0  0  0  0  0  0  0  0
   42.2500   35.0440   39.6150 C   0  0  0  0  0  0  0  0  0  0  0  0
   42.8960   34.1130   38.8350 N   0  0  0  0  0  0  0  0  0  0  0  0
   44.0030   33.4640   39.2700 C   0  0  0  0  0  0  0  0  0  0  0  0
   44.5180   33.6930   40.4720 N   0  0  0  0  0  0  0  0  0  0  0  0
   42.3440   36.0070   41.5590 H   0  0  0  0  0  0  0  0  0  0  0  0
   44.4320   32.7470   38.5660 H   0  0  0  0  0  0  0  0  0  0  0  0
   44.5090   34.8600   42.6180 C   0  0  0  0  0  0  0  0  0  0  0  0
   46.0260   35.2560   42.5400 C   0  0  0  0  0  0  0  0  0  0  0  0
   44.9660   36.1290   43.0540 C   0  0  0  0  0  0  0  0  0  0  0  0
   44.3430   33.9910   43.3100 H   0  0  0  0  0  0  0  0  0  0  0  0
   46.6940   34.6950   43.2190 H   0  0  0  0  0  0  0  0  0  0  0  0
   46.4610   35.3670   41.5330 H   0  0  0  0  0  0  0  0  0  0  0  0
   44.7300   37.0370   42.4380 H   0  0  0  0  0  0  0  0  0  0  0  0
   44.9420   36.3960   44.1380 H   0  0  0  0  0  0  0  0  0  0  0  0
   39.9220   35.6150   40.1870 C   0  0  0  0  0  0  0  0  0  0  0  0
   39.2760   36.5380   40.1360 H   0  0  0  0  0  0  0  0  0  0  0  0
   40.3810   35.6280   41.1780 H   0  0  0  0  0  0  0  0  0  0  0  0
   39.2320   33.3700   40.9140 C   0  0  0  0  0  0  0  0  0  0  0  0
   39.8410   33.4740   42.0190 O   0  0  0  0  0  0  0  0  0  0  0  0
   39.1220   34.4190   39.9690 N   0  0  0  0  0  0  0  0  0  0  0  0
   38.5170   34.3890   39.1420 H   0  0  0  0  0  0  0  0  0  0  0  0
   38.6040   32.0620   40.6120 C   0  0  0  0  0  0  0  0  0  0  0  0
   38.8460   31.6090   39.3690 C   0  0  0  0  0  0  0  0  0  0  0  0
   39.3470   31.8100   38.4130 H   0  0  0  0  0  0  0  0  0  0  0  0
   37.9120   29.9550   39.3310 S   0  0  0  0  0  0  0  0  0  0  0  0
   37.3640   30.2630   41.1250 C   0  0  0  0  0  0  0  0  0  0  0  0
   36.7250   29.7970   42.0450 H   0  0  0  0  0  0  0  0  0  0  0  0
   37.8510   31.2460   41.3160 N   0  0  0  0  0  0  0  0  0  0  0  0
  1  6  1  0  0  0  0
  1 20  1  0  0  0  0
  2  1  1  0  0  0  0
  3  1  1  0  0  0  0
  4 12  1  0  0  0  0
  5  4  1  0  0  0  0
  5 10  1  0  0  0  0
  6  5  2  0  0  0  0
  7  8  2  0  0  0  0
  7  6  1  0  0  0  0
  8  9  1  0  0  0  0
  9  4  2  0  0  0  0
 11  8  1  0  0  0  0
 12 14  1  0  0  0  0
 12 15  1  0  0  0  0
 13 12  1  0  0  0  0
 13 14  1  0  0  0  0
 13 16  1  0  0  0  0
 14 19  1  0  0  0  0
 17 13  1  0  0  0  0
 18 14  1  0  0  0  0
 20 22  1  0  0  0  0
 21 20  1  0  0  0  0
 23 24  2  0  0  0  0
 25 20  1  0  0  0  0
 25 23  1  0  0  0  0
 26 25  1  0  0  0  0
 27 23  1  0  0  0  0
 27 33  1  0  0  0  0
 28 27  2  0  0  0  0
 29 28  1  0  0  0  0
 30 28  1  0  0  0  0
 30 31  1  0  0  0  0
 31 33  2  0  0  0  0
 31 32  1  0  0  0  0
M  END
>  <minimizedAffinity>
-4.84830046

>  <minimizedRMSD>
0.467779875

$$$$
