
 OpenBabel03242520193D

 33 35  0  0  0  0  0  0  0  0999 V2000
   41.0890   35.6830   39.3030 C   0  0  0  0  0  0  0  0  0  0  0  0
   40.8910   35.3270   38.2880 H   0  0  0  0  0  0  0  0  0  0  0  0
   41.3980   36.7450   39.2140 H   0  0  0  0  0  0  0  0  0  0  0  0
   43.8900   34.5860   41.5960 C   0  0  0  0  0  0  0  0  0  0  0  0
   42.8080   35.3250   41.0730 C   0  0  0  0  0  0  0  0  0  0  0  0
   42.2380   34.9320   39.8740 C   0  0  0  0  0  0  0  0  0  0  0  0
   42.7780   33.8240   39.2630 N   0  0  0  0  0  0  0  0  0  0  0  0
   43.8190   33.1480   39.8060 C   0  0  0  0  0  0  0  0  0  0  0  0
   44.3680   33.5210   40.9560 N   0  0  0  0  0  0  0  0  0  0  0  0
   42.4490   36.1900   41.6320 H   0  0  0  0  0  0  0  0  0  0  0  0
   44.1660   32.2850   39.2330 H   0  0  0  0  0  0  0  0  0  0  0  0
   44.5010   35.0230   42.8780 C   0  0  0  0  0  0  0  0  0  0  0  0
   46.0360   35.3130   42.7260 C   0  0  0  0  0  0  0  0  0  0  0  0
   45.0360   36.3130   43.1170 C   0  0  0  0  0  0  0  0  0  0  0  0
   44.2990   34.2760   43.6920 H   0  0  0  0  0  0  0  0  0  0  0  0
   46.6840   34.8200   43.4740 H   0  0  0  0  0  0  0  0  0  0  0  0
   46.4570   35.2500   41.7090 H   0  0  0  0  0  0  0  0  0  0  0  0
   44.8410   37.1330   42.3760 H   0  0  0  0  0  0  0  0  0  0  0  0
   45.0490   36.7370   44.1500 H   0  0  0  0  0  0  0  0  0  0  0  0
   39.8910   35.6000   40.2270 C   0  0  0  0  0  0  0  0  0  0  0  0
   39.2670   36.5260   40.0710 H   0  0  0  0  0  0  0  0  0  0  0  0
   40.2580   35.6570   41.2530 H   0  0  0  0  0  0  0  0  0  0  0  0
   39.2060   33.3460   40.9300 C   0  0  0  0  0  0  0  0  0  0  0  0
   39.8090   33.4430   42.0390 O   0  0  0  0  0  0  0  0  0  0  0  0
   39.0970   34.4020   39.9940 N   0  0  0  0  0  0  0  0  0  0  0  0
   38.4970   34.3770   39.1630 H   0  0  0  0  0  0  0  0  0  0  0  0
   38.5850   32.0380   40.6140 C   0  0  0  0  0  0  0  0  0  0  0  0
   38.8470   31.5910   39.3720 C   0  0  0  0  0  0  0  0  0  0  0  0
   39.3630   31.7970   38.4250 H   0  0  0  0  0  0  0  0  0  0  0  0
   37.9160   29.9350   39.3130 S   0  0  0  0  0  0  0  0  0  0  0  0
   37.3400   30.2350   41.0990 C   0  0  0  0  0  0  0  0  0  0  0  0
   36.6880   29.7640   42.0080 H   0  0  0  0  0  0  0  0  0  0  0  0
   37.8230   31.2170   41.3030 N   0  0  0  0  0  0  0  0  0  0  0  0
  1  6  1  0  0  0  0
  1 20  1  0  0  0  0
  2  1  1  0  0  0  0
  3  1  1  0  0  0  0
  4 12  1  0  0  0  0
  5  4  1  0  0  0  0
  5 10  1  0  0  0  0
  6  5  2  0  0  0  0
  7  8  2  0  0  0  0
  7  6  1  0  0  0  0
  8  9  1  0  0  0  0
  9  4  2  0  0  0  0
 11  8  1  0  0  0  0
 12 14  1  0  0  0  0
 12 15  1  0  0  0  0
 13 12  1  0  0  0  0
 13 14  1  0  0  0  0
 13 16  1  0  0  0  0
 14 19  1  0  0  0  0
 17 13  1  0  0  0  0
 18 14  1  0  0  0  0
 20 22  1  0  0  0  0
 21 20  1  0  0  0  0
 23 24  2  0  0  0  0
 25 20  1  0  0  0  0
 25 23  1  0  0  0  0
 26 25  1  0  0  0  0
 27 23  1  0  0  0  0
 27 33  1  0  0  0  0
 28 27  2  0  0  0  0
 29 28  1  0  0  0  0
 30 28  1  0  0  0  0
 30 31  1  0  0  0  0
 31 33  2  0  0  0  0
 31 32  1  0  0  0  0
M  END
>  <minimizedAffinity>
-4.82178879

>  <minimizedRMSD>
0.685827613

$$$$
