
 OpenBabel03242510503D

 20 21  0  0  0  0  0  0  0  0999 V2000
   44.6060   36.5380   43.8500 C   0  0  0  0  0  0  0  0  0  0  0  0
   45.3040   36.1250   42.6810 C   0  0  0  0  0  0  0  0  0  0  0  0
   46.0130   34.9310   42.7290 C   0  0  0  0  0  0  0  0  0  0  0  0
   46.0020   34.2250   43.8890 N   0  0  0  0  0  0  0  0  0  0  0  0
   45.3370   34.6400   44.9710 C   0  0  0  0  0  0  0  0  0  0  0  0
   44.6320   35.7950   44.9710 N   0  0  0  0  0  0  0  0  0  0  0  0
   46.3780   32.8450   46.2220 C   0  0  0  0  0  0  0  0  0  0  0  0
   47.2190   32.6100   45.3380 O   0  0  0  0  0  0  0  0  0  0  0  0
   45.3680   33.8400   46.1680 N   0  0  0  0  0  0  0  0  0  0  0  0
   44.0510   37.4740   43.8070 H   0  0  0  0  0  0  0  0  0  0  0  0
   45.3080   36.6850   41.7730 H   0  0  0  0  0  0  0  0  0  0  0  0
   46.5810   34.5170   41.9060 H   0  0  0  0  0  0  0  0  0  0  0  0
   44.6820   34.0080   46.9240 H   0  0  0  0  0  0  0  0  0  0  0  0
   46.3770   32.0550   47.4510 C   0  0  0  0  0  0  0  0  0  0  0  0
   45.0310   31.9780   48.0120 C   0  0  0  0  0  0  0  0  0  0  0  0
   44.0270   32.2680   47.8910 H   0  0  0  0  0  0  0  0  0  0  0  0
   45.2870   30.9240   49.5700 S   0  0  0  0  0  0  0  0  0  0  0  0
   47.1390   30.8060   49.1460 C   0  0  0  0  0  0  0  0  0  0  0  0
   48.2860   30.3670   49.4540 H   0  0  0  0  0  0  0  0  0  0  0  0
   47.2440   31.3970   48.1910 N   0  0  0  0  0  0  0  0  0  0  0  0
  1  6  1  0  0  0  0
  2  3  1  0  0  0  0
  2  1  2  0  0  0  0
  3  4  2  0  0  0  0
  4  5  1  0  0  0  0
  5  6  2  0  0  0  0
  5  9  1  0  0  0  0
  7 14  1  0  0  0  0
  8  7  2  0  0  0  0
  9  7  1  0  0  0  0
  9 13  1  0  0  0  0
 10  1  1  0  0  0  0
 11  2  1  0  0  0  0
 12  3  1  0  0  0  0
 14 15  2  0  0  0  0
 14 20  1  0  0  0  0
 15 17  1  0  0  0  0
 16 15  1  0  0  0  0
 18 19  1  0  0  0  0
 18 17  1  0  0  0  0
 20 18  2  0  0  0  0
M  END
>  <minimizedAffinity>
-4.46664143

>  <minimizedRMSD>
1.15457451

$$$$
