
 OpenBabel03242520193D

 33 35  0  0  0  0  0  0  0  0999 V2000
   41.0800   35.7550   39.1000 C   0  0  0  0  0  0  0  0  0  0  0  0
   40.8380   35.4260   38.0860 H   0  0  0  0  0  0  0  0  0  0  0  0
   41.3350   36.8330   39.0350 H   0  0  0  0  0  0  0  0  0  0  0  0
   43.9550   34.5880   41.2630 C   0  0  0  0  0  0  0  0  0  0  0  0
   42.8110   35.2920   40.8340 C   0  0  0  0  0  0  0  0  0  0  0  0
   42.2910   35.0380   39.5760 C   0  0  0  0  0  0  0  0  0  0  0  0
   42.9440   34.0960   38.8140 N   0  0  0  0  0  0  0  0  0  0  0  0
   44.0420   33.4470   39.2710 C   0  0  0  0  0  0  0  0  0  0  0  0
   44.5420   33.6870   40.4770 N   0  0  0  0  0  0  0  0  0  0  0  0
   42.3630   36.0210   41.5110 H   0  0  0  0  0  0  0  0  0  0  0  0
   44.4770   32.7200   38.5800 H   0  0  0  0  0  0  0  0  0  0  0  0
   44.5090   34.8770   42.6100 C   0  0  0  0  0  0  0  0  0  0  0  0
   46.0340   35.2450   42.5510 C   0  0  0  0  0  0  0  0  0  0  0  0
   44.9810   36.1440   43.0340 C   0  0  0  0  0  0  0  0  0  0  0  0
   44.3170   34.0220   43.3130 H   0  0  0  0  0  0  0  0  0  0  0  0
   46.6810   34.6830   43.2500 H   0  0  0  0  0  0  0  0  0  0  0  0
   46.4870   35.3310   41.5490 H   0  0  0  0  0  0  0  0  0  0  0  0
   44.7720   37.0460   42.3990 H   0  0  0  0  0  0  0  0  0  0  0  0
   44.9450   36.4300   44.1130 H   0  0  0  0  0  0  0  0  0  0  0  0
   39.9420   35.5830   40.0870 C   0  0  0  0  0  0  0  0  0  0  0  0
   39.1870   36.3970   39.8930 H   0  0  0  0  0  0  0  0  0  0  0  0
   40.3370   35.7750   41.0860 H   0  0  0  0  0  0  0  0  0  0  0  0
   39.4230   33.4040   41.1000 C   0  0  0  0  0  0  0  0  0  0  0  0
   39.8670   33.7560   42.2320 O   0  0  0  0  0  0  0  0  0  0  0  0
   39.3180   34.2710   39.9860 N   0  0  0  0  0  0  0  0  0  0  0  0
   38.8330   34.0350   39.1150 H   0  0  0  0  0  0  0  0  0  0  0  0
   38.9920   31.9930   40.9560 C   0  0  0  0  0  0  0  0  0  0  0  0
   39.9560   31.1650   40.5160 C   0  0  0  0  0  0  0  0  0  0  0  0
   41.0020   31.0830   40.1940 H   0  0  0  0  0  0  0  0  0  0  0  0
   39.0720   29.4840   40.4510 S   0  0  0  0  0  0  0  0  0  0  0  0
   37.4890   30.3290   41.0750 C   0  0  0  0  0  0  0  0  0  0  0  0
   36.3290   30.1340   41.3760 H   0  0  0  0  0  0  0  0  0  0  0  0
   37.8480   31.3790   41.1720 N   0  0  0  0  0  0  0  0  0  0  0  0
  1  6  1  0  0  0  0
  1 20  1  0  0  0  0
  2  1  1  0  0  0  0
  3  1  1  0  0  0  0
  4 12  1  0  0  0  0
  5  4  1  0  0  0  0
  5 10  1  0  0  0  0
  6  5  2  0  0  0  0
  7  8  2  0  0  0  0
  7  6  1  0  0  0  0
  8  9  1  0  0  0  0
  9  4  2  0  0  0  0
 11  8  1  0  0  0  0
 12 14  1  0  0  0  0
 12 15  1  0  0  0  0
 13 12  1  0  0  0  0
 13 14  1  0  0  0  0
 13 16  1  0  0  0  0
 14 19  1  0  0  0  0
 17 13  1  0  0  0  0
 18 14  1  0  0  0  0
 20 22  1  0  0  0  0
 21 20  1  0  0  0  0
 23 24  2  0  0  0  0
 25 20  1  0  0  0  0
 25 23  1  0  0  0  0
 26 25  1  0  0  0  0
 27 23  1  0  0  0  0
 27 33  1  0  0  0  0
 28 27  2  0  0  0  0
 29 28  1  0  0  0  0
 30 28  1  0  0  0  0
 30 31  1  0  0  0  0
 31 33  2  0  0  0  0
 31 32  1  0  0  0  0
M  END
>  <minimizedAffinity>
-4.68968391

>  <minimizedRMSD>
0.76552707

$$$$
