
 OpenBabel03252501333D

 22 23  0  0  0  0  0  0  0  0999 V2000
   36.8870   28.3150   41.3450 C   0  0  0  0  0  0  0  0  0  0  0  0
   36.9830   27.8540   42.6460 C   0  0  0  0  0  0  0  0  0  0  0  0
   37.0980   26.4730   42.7910 C   0  0  0  0  0  0  0  0  0  0  0  0
   37.1060   25.7040   41.6950 N   0  0  0  0  0  0  0  0  0  0  0  0
   37.0100   26.1970   40.4390 C   0  0  0  0  0  0  0  0  0  0  0  0
   36.8980   27.5290   40.2500 N   0  0  0  0  0  0  0  0  0  0  0  0
   37.1720   26.1220   43.8060 H   0  0  0  0  0  0  0  0  0  0  0  0
   37.0160   25.5790   39.5520 H   0  0  0  0  0  0  0  0  0  0  0  0
   38.0710   30.3150   40.9800 C   0  0  0  0  0  0  0  0  0  0  0  0
   38.9650   29.4650   41.3080 O   0  0  0  0  0  0  0  0  0  0  0  0
   36.7610   29.7090   40.9760 N   0  0  0  0  0  0  0  0  0  0  0  0
   35.8900   30.2210   40.7420 H   0  0  0  0  0  0  0  0  0  0  0  0
   38.1750   31.7450   40.6220 C   0  0  0  0  0  0  0  0  0  0  0  0
   39.2290   32.5930   41.0360 C   0  0  0  0  0  0  0  0  0  0  0  0
   40.0080   32.2510   41.6290 H   0  0  0  0  0  0  0  0  0  0  0  0
   38.7570   34.1610   40.2750 S   0  0  0  0  0  0  0  0  0  0  0  0
   37.1880   33.4120   39.5060 C   0  0  0  0  0  0  0  0  0  0  0  0
   36.3000   33.6790   38.8660 H   0  0  0  0  0  0  0  0  0  0  0  0
   37.1710   32.1480   39.8690 N   0  0  0  0  0  0  0  0  0  0  0  0
   36.9560   28.8190   43.6800 N   0  0  0  0  0  0  0  0  0  0  0  0
   37.6050   29.6080   43.5560 H   0  0  0  0  0  0  0  0  0  0  0  0
   36.3010   28.6750   44.4780 H   0  0  0  0  0  0  0  0  0  0  0  0
  1  2  1  0  0  0  0
  2  3  2  0  0  0  0
  2 20  1  0  0  0  0
  3  7  1  0  0  0  0
  4  3  1  0  0  0  0
  5  4  2  0  0  0  0
  6  5  1  0  0  0  0
  6  1  2  0  0  0  0
  8  5  1  0  0  0  0
  9 10  2  0  0  0  0
 11  9  1  0  0  0  0
 11  1  1  0  0  0  0
 12 11  1  0  0  0  0
 13  9  1  0  0  0  0
 13 14  2  0  0  0  0
 14 15  1  0  0  0  0
 16 14  1  0  0  0  0
 17 19  2  0  0  0  0
 17 16  1  0  0  0  0
 18 17  1  0  0  0  0
 19 13  1  0  0  0  0
 20 22  1  0  0  0  0
 21 20  1  0  0  0  0
M  END
>  <minimizedAffinity>
-4.30681038

$$$$

 OpenBabel03252501333D

 22 23  0  0  0  0  0  0  0  0999 V2000
   39.0970   31.7910   40.3130 C   0  0  0  0  0  0  0  0  0  0  0  0
   38.3630   32.9640   40.3450 C   0  0  0  0  0  0  0  0  0  0  0  0
   39.1070   34.1420   40.3120 C   0  0  0  0  0  0  0  0  0  0  0  0
   40.4420   34.0650   40.2540 N   0  0  0  0  0  0  0  0  0  0  0  0
   41.1200   32.8950   40.2250 C   0  0  0  0  0  0  0  0  0  0  0  0
   40.4420   31.7290   40.2540 N   0  0  0  0  0  0  0  0  0  0  0  0
   38.5290   35.0500   40.3370 H   0  0  0  0  0  0  0  0  0  0  0  0
   42.1980   32.8300   40.1780 H   0  0  0  0  0  0  0  0  0  0  0  0
   38.5940   29.9450   41.6830 C   0  0  0  0  0  0  0  0  0  0  0  0
   39.1440   30.7890   42.4670 O   0  0  0  0  0  0  0  0  0  0  0  0
   38.5210   30.4630   40.3380 N   0  0  0  0  0  0  0  0  0  0  0  0
   38.1150   29.9400   39.5400 H   0  0  0  0  0  0  0  0  0  0  0  0
   38.0520   28.5940   41.9370 C   0  0  0  0  0  0  0  0  0  0  0  0
   38.3850   27.4480   41.1770 C   0  0  0  0  0  0  0  0  0  0  0  0
   39.0440   27.4920   40.3780 H   0  0  0  0  0  0  0  0  0  0  0  0
   37.4030   26.1710   41.9920 S   0  0  0  0  0  0  0  0  0  0  0  0
   36.6880   27.4040   43.2500 C   0  0  0  0  0  0  0  0  0  0  0  0
   35.9880   27.4670   44.1310 H   0  0  0  0  0  0  0  0  0  0  0  0
   37.2170   28.5730   42.9580 N   0  0  0  0  0  0  0  0  0  0  0  0
   36.9550   32.8470   40.4060 N   0  0  0  0  0  0  0  0  0  0  0  0
   36.5400   32.2120   39.7110 H   0  0  0  0  0  0  0  0  0  0  0  0
   36.4410   33.3940   41.1290 H   0  0  0  0  0  0  0  0  0  0  0  0
  1 11  1  0  0  0  0
  1  2  1  0  0  0  0
  2 20  1  0  0  0  0
  3  7  1  0  0  0  0
  3  2  2  0  0  0  0
  4  3  1  0  0  0  0
  5  4  2  0  0  0  0
  5  6  1  0  0  0  0
  6  1  2  0  0  0  0
  8  5  1  0  0  0  0
  9 13  1  0  0  0  0
  9 10  2  0  0  0  0
 11  9  1  0  0  0  0
 12 11  1  0  0  0  0
 13 19  1  0  0  0  0
 14 13  2  0  0  0  0
 14 16  1  0  0  0  0
 15 14  1  0  0  0  0
 16 17  1  0  0  0  0
 17 18  1  0  0  0  0
 19 17  2  0  0  0  0
 20 22  1  0  0  0  0
 21 20  1  0  0  0  0
M  END
>  <minimizedAffinity>
-4.2859869

$$$$

 OpenBabel03252501333D

 22 23  0  0  0  0  0  0  0  0999 V2000
   37.8860   30.2580   40.5800 C   0  0  0  0  0  0  0  0  0  0  0  0
   36.8880   31.2140   40.6550 C   0  0  0  0  0  0  0  0  0  0  0  0
   37.1820   32.4410   40.0640 C   0  0  0  0  0  0  0  0  0  0  0  0
   38.3760   32.6120   39.4810 N   0  0  0  0  0  0  0  0  0  0  0  0
   39.3240   31.6490   39.4310 C   0  0  0  0  0  0  0  0  0  0  0  0
   39.0830   30.4440   39.9890 N   0  0  0  0  0  0  0  0  0  0  0  0
   36.4010   33.1800   40.1250 H   0  0  0  0  0  0  0  0  0  0  0  0
   40.2880   31.7830   38.9620 H   0  0  0  0  0  0  0  0  0  0  0  0
   37.1860   28.0550   40.1400 C   0  0  0  0  0  0  0  0  0  0  0  0
   36.9130   28.7010   39.0730 O   0  0  0  0  0  0  0  0  0  0  0  0
   37.7840   28.9220   41.1280 N   0  0  0  0  0  0  0  0  0  0  0  0
   38.0800   28.6050   42.0690 H   0  0  0  0  0  0  0  0  0  0  0  0
   36.9930   26.6330   40.4910 C   0  0  0  0  0  0  0  0  0  0  0  0
   36.6050   25.6320   39.5700 C   0  0  0  0  0  0  0  0  0  0  0  0
   36.4280   25.8460   38.5700 H   0  0  0  0  0  0  0  0  0  0  0  0
   36.5540   24.1660   40.6220 S   0  0  0  0  0  0  0  0  0  0  0  0
   37.0760   25.1490   42.1630 C   0  0  0  0  0  0  0  0  0  0  0  0
   37.2920   25.0270   43.2620 H   0  0  0  0  0  0  0  0  0  0  0  0
   37.2260   26.3960   41.7680 N   0  0  0  0  0  0  0  0  0  0  0  0
   35.6900   30.8510   41.3120 N   0  0  0  0  0  0  0  0  0  0  0  0
   35.2770   29.9600   41.0050 H   0  0  0  0  0  0  0  0  0  0  0  0
   35.3110   31.4890   42.0450 H   0  0  0  0  0  0  0  0  0  0  0  0
  1  2  1  0  0  0  0
  1 11  1  0  0  0  0
  2 20  1  0  0  0  0
  3  7  1  0  0  0  0
  3  2  2  0  0  0  0
  4  3  1  0  0  0  0
  5  4  2  0  0  0  0
  5  6  1  0  0  0  0
  6  1  2  0  0  0  0
  8  5  1  0  0  0  0
  9 13  1  0  0  0  0
  9 11  1  0  0  0  0
 10  9  2  0  0  0  0
 11 12  1  0  0  0  0
 13 19  1  0  0  0  0
 14 13  2  0  0  0  0
 14 16  1  0  0  0  0
 15 14  1  0  0  0  0
 16 17  1  0  0  0  0
 17 18  1  0  0  0  0
 19 17  2  0  0  0  0
 20 22  1  0  0  0  0
 21 20  1  0  0  0  0
M  END
>  <minimizedAffinity>
-4.18211603

$$$$

 OpenBabel03252501333D

 22 23  0  0  0  0  0  0  0  0999 V2000
   38.2040   30.9090   41.0390 C   0  0  0  0  0  0  0  0  0  0  0  0
   37.0130   31.5370   40.7220 C   0  0  0  0  0  0  0  0  0  0  0  0
   37.1270   32.7040   39.9700 C   0  0  0  0  0  0  0  0  0  0  0  0
   38.3460   33.1310   39.6140 N   0  0  0  0  0  0  0  0  0  0  0  0
   39.4870   32.4850   39.9460 C   0  0  0  0  0  0  0  0  0  0  0  0
   39.4250   31.3490   40.6730 N   0  0  0  0  0  0  0  0  0  0  0  0
   36.1960   33.1870   39.7260 H   0  0  0  0  0  0  0  0  0  0  0  0
   40.4710   32.8260   39.6600 H   0  0  0  0  0  0  0  0  0  0  0  0
   38.2230   28.5590   40.9140 C   0  0  0  0  0  0  0  0  0  0  0  0
   38.0770   28.9470   39.7070 O   0  0  0  0  0  0  0  0  0  0  0  0
   38.3080   29.6880   41.8100 N   0  0  0  0  0  0  0  0  0  0  0  0
   38.4240   29.6020   42.8370 H   0  0  0  0  0  0  0  0  0  0  0  0
   38.3140   27.2040   41.4960 C   0  0  0  0  0  0  0  0  0  0  0  0
   39.5280   26.5720   41.8530 C   0  0  0  0  0  0  0  0  0  0  0  0
   40.4470   27.0360   41.7240 H   0  0  0  0  0  0  0  0  0  0  0  0
   38.9430   24.9840   42.4820 S   0  0  0  0  0  0  0  0  0  0  0  0
   37.1240   25.4310   42.1600 C   0  0  0  0  0  0  0  0  0  0  0  0
   36.0780   25.0210   42.2570 H   0  0  0  0  0  0  0  0  0  0  0  0
   37.1300   26.6430   41.6470 N   0  0  0  0  0  0  0  0  0  0  0  0
   35.8200   30.9370   41.1870 N   0  0  0  0  0  0  0  0  0  0  0  0
   35.7310   29.9310   40.9870 H   0  0  0  0  0  0  0  0  0  0  0  0
   35.1260   31.5320   41.6880 H   0  0  0  0  0  0  0  0  0  0  0  0
  1 11  1  0  0  0  0
  2  1  1  0  0  0  0
  2 20  1  0  0  0  0
  3  2  2  0  0  0  0
  4  5  2  0  0  0  0
  4  3  1  0  0  0  0
  5  6  1  0  0  0  0
  6  1  2  0  0  0  0
  7  3  1  0  0  0  0
  8  5  1  0  0  0  0
  9 13  1  0  0  0  0
  9 11  1  0  0  0  0
 10  9  2  0  0  0  0
 11 12  1  0  0  0  0
 13 19  1  0  0  0  0
 13 14  2  0  0  0  0
 14 16  1  0  0  0  0
 15 14  1  0  0  0  0
 17 18  1  0  0  0  0
 17 16  1  0  0  0  0
 19 17  2  0  0  0  0
 20 22  1  0  0  0  0
 21 20  1  0  0  0  0
M  END
>  <minimizedAffinity>
-4.12406397

$$$$

 OpenBabel03252501333D

 22 23  0  0  0  0  0  0  0  0999 V2000
   38.4820   28.9180   42.5940 C   0  0  0  0  0  0  0  0  0  0  0  0
   37.2280   28.4290   42.2730 C   0  0  0  0  0  0  0  0  0  0  0  0
   37.0620   27.0530   42.4150 C   0  0  0  0  0  0  0  0  0  0  0  0
   38.0950   26.3150   42.8400 N   0  0  0  0  0  0  0  0  0  0  0  0
   39.3060   26.8340   43.1430 C   0  0  0  0  0  0  0  0  0  0  0  0
   39.5140   28.1630   43.0210 N   0  0  0  0  0  0  0  0  0  0  0  0
   36.0840   26.6800   42.1640 H   0  0  0  0  0  0  0  0  0  0  0  0
   40.1420   26.2410   43.4860 H   0  0  0  0  0  0  0  0  0  0  0  0
   39.2520   30.6180   41.1610 C   0  0  0  0  0  0  0  0  0  0  0  0
   39.1580   29.5860   40.4170 O   0  0  0  0  0  0  0  0  0  0  0  0
   38.8640   30.3130   42.5170 N   0  0  0  0  0  0  0  0  0  0  0  0
   38.8690   31.0050   43.2890 H   0  0  0  0  0  0  0  0  0  0  0  0
   39.6750   32.0010   40.8560 C   0  0  0  0  0  0  0  0  0  0  0  0
   41.0060   32.3780   40.5600 C   0  0  0  0  0  0  0  0  0  0  0  0
   41.7810   31.6880   40.5410 H   0  0  0  0  0  0  0  0  0  0  0  0
   40.8320   34.1550   40.2940 S   0  0  0  0  0  0  0  0  0  0  0  0
   38.9610   34.1080   40.6270 C   0  0  0  0  0  0  0  0  0  0  0  0
   38.0510   34.7710   40.6740 H   0  0  0  0  0  0  0  0  0  0  0  0
   38.6680   32.8520   40.8880 N   0  0  0  0  0  0  0  0  0  0  0  0
   36.2590   29.3640   41.8400 N   0  0  0  0  0  0  0  0  0  0  0  0
   36.1510   30.1910   42.4440 H   0  0  0  0  0  0  0  0  0  0  0  0
   35.7310   29.1640   40.9640 H   0  0  0  0  0  0  0  0  0  0  0  0
  1  6  1  0  0  0  0
  2  3  1  0  0  0  0
  2  1  2  0  0  0  0
  3  4  2  0  0  0  0
  4  5  1  0  0  0  0
  5  8  1  0  0  0  0
  6  5  2  0  0  0  0
  7  3  1  0  0  0  0
  9 11  1  0  0  0  0
 10  9  2  0  0  0  0
 11  1  1  0  0  0  0
 11 12  1  0  0  0  0
 13 19  1  0  0  0  0
 13  9  1  0  0  0  0
 14 13  2  0  0  0  0
 15 14  1  0  0  0  0
 16 14  1  0  0  0  0
 16 17  1  0  0  0  0
 17 18  1  0  0  0  0
 17 19  2  0  0  0  0
 20  2  1  0  0  0  0
 20 21  1  0  0  0  0
 22 20  1  0  0  0  0
M  END
>  <minimizedAffinity>
-4.07954311

$$$$

 OpenBabel03252501333D

 22 23  0  0  0  0  0  0  0  0999 V2000
   36.0330   28.7180   40.6480 C   0  0  0  0  0  0  0  0  0  0  0  0
   36.4370   29.7900   41.4240 C   0  0  0  0  0  0  0  0  0  0  0  0
   37.4750   29.5310   42.3170 C   0  0  0  0  0  0  0  0  0  0  0  0
   37.9970   28.2990   42.3660 N   0  0  0  0  0  0  0  0  0  0  0  0
   37.5710   27.2780   41.5870 C   0  0  0  0  0  0  0  0  0  0  0  0
   36.5680   27.4830   40.7060 N   0  0  0  0  0  0  0  0  0  0  0  0
   37.7840   30.3690   42.9170 H   0  0  0  0  0  0  0  0  0  0  0  0
   37.9900   26.2830   41.6240 H   0  0  0  0  0  0  0  0  0  0  0  0
   35.5620   28.9560   38.3540 C   0  0  0  0  0  0  0  0  0  0  0  0
   36.8340   29.0220   38.4320 O   0  0  0  0  0  0  0  0  0  0  0  0
   34.9750   28.7740   39.6600 N   0  0  0  0  0  0  0  0  0  0  0  0
   33.9550   28.6990   39.8280 H   0  0  0  0  0  0  0  0  0  0  0  0
   34.6550   29.0330   37.1910 C   0  0  0  0  0  0  0  0  0  0  0  0
   33.2430   28.9810   37.2780 C   0  0  0  0  0  0  0  0  0  0  0  0
   32.7530   28.8820   38.1860 H   0  0  0  0  0  0  0  0  0  0  0  0
   32.7640   29.1220   35.5430 S   0  0  0  0  0  0  0  0  0  0  0  0
   34.5720   29.2340   34.9650 C   0  0  0  0  0  0  0  0  0  0  0  0
   35.2010   29.3390   34.0360 H   0  0  0  0  0  0  0  0  0  0  0  0
   35.3090   29.1580   36.0520 N   0  0  0  0  0  0  0  0  0  0  0  0
   35.7650   31.0190   41.2320 N   0  0  0  0  0  0  0  0  0  0  0  0
   35.6890   31.3260   40.2530 H   0  0  0  0  0  0  0  0  0  0  0  0
   35.4010   31.5230   42.0690 H   0  0  0  0  0  0  0  0  0  0  0  0
  1  6  2  0  0  0  0
  1  2  1  0  0  0  0
  2  3  2  0  0  0  0
  3  4  1  0  0  0  0
  3  7  1  0  0  0  0
  5  8  1  0  0  0  0
  5  4  2  0  0  0  0
  6  5  1  0  0  0  0
  9 10  2  0  0  0  0
  9 11  1  0  0  0  0
 11 12  1  0  0  0  0
 11  1  1  0  0  0  0
 13 14  2  0  0  0  0
 13  9  1  0  0  0  0
 14 15  1  0  0  0  0
 16 14  1  0  0  0  0
 17 16  1  0  0  0  0
 17 19  2  0  0  0  0
 18 17  1  0  0  0  0
 19 13  1  0  0  0  0
 20  2  1  0  0  0  0
 20 22  1  0  0  0  0
 21 20  1  0  0  0  0
M  END
>  <minimizedAffinity>
-4.01935339

$$$$

 OpenBabel03252501333D

 22 23  0  0  0  0  0  0  0  0999 V2000
   37.6230   31.6750   39.0280 C   0  0  0  0  0  0  0  0  0  0  0  0
   37.1200   30.7690   38.1110 C   0  0  0  0  0  0  0  0  0  0  0  0
   36.1190   29.9240   38.5850 C   0  0  0  0  0  0  0  0  0  0  0  0
   35.7210   30.0390   39.8580 N   0  0  0  0  0  0  0  0  0  0  0  0
   36.2410   30.9400   40.7220 C   0  0  0  0  0  0  0  0  0  0  0  0
   37.2130   31.7800   40.3070 N   0  0  0  0  0  0  0  0  0  0  0  0
   35.7320   29.2230   37.8650 H   0  0  0  0  0  0  0  0  0  0  0  0
   35.9220   31.0350   41.7500 H   0  0  0  0  0  0  0  0  0  0  0  0
   39.9490   32.0350   38.9990 C   0  0  0  0  0  0  0  0  0  0  0  0
   39.8120   30.8330   39.4070 O   0  0  0  0  0  0  0  0  0  0  0  0
   38.6640   32.6400   38.7410 N   0  0  0  0  0  0  0  0  0  0  0  0
   38.5420   33.6130   38.4050 H   0  0  0  0  0  0  0  0  0  0  0  0
   41.1590   32.8490   38.7630 C   0  0  0  0  0  0  0  0  0  0  0  0
   41.6630   33.1710   37.4810 C   0  0  0  0  0  0  0  0  0  0  0  0
   41.2010   32.8450   36.6110 H   0  0  0  0  0  0  0  0  0  0  0  0
   43.1170   34.1580   37.8960 S   0  0  0  0  0  0  0  0  0  0  0  0
   42.8090   33.9790   39.7640 C   0  0  0  0  0  0  0  0  0  0  0  0
   43.2300   34.2800   40.7650 H   0  0  0  0  0  0  0  0  0  0  0  0
   41.7220   33.2470   39.8870 N   0  0  0  0  0  0  0  0  0  0  0  0
   37.6660   30.7960   36.8070 N   0  0  0  0  0  0  0  0  0  0  0  0
   37.7060   31.7270   36.3700 H   0  0  0  0  0  0  0  0  0  0  0  0
   37.9840   29.8990   36.3820 H   0  0  0  0  0  0  0  0  0  0  0  0
  1  6  1  0  0  0  0
  2  3  1  0  0  0  0
  2  1  2  0  0  0  0
  3  4  2  0  0  0  0
  4  5  1  0  0  0  0
  5  8  1  0  0  0  0
  6  5  2  0  0  0  0
  7  3  1  0  0  0  0
  9 10  2  0  0  0  0
 11  9  1  0  0  0  0
 11  1  1  0  0  0  0
 12 11  1  0  0  0  0
 13  9  1  0  0  0  0
 13 19  1  0  0  0  0
 14 16  1  0  0  0  0
 14 13  2  0  0  0  0
 15 14  1  0  0  0  0
 16 17  1  0  0  0  0
 17 19  2  0  0  0  0
 17 18  1  0  0  0  0
 20  2  1  0  0  0  0
 21 20  1  0  0  0  0
 22 20  1  0  0  0  0
M  END
>  <minimizedAffinity>
-3.8572669

$$$$

 OpenBabel03252501333D

 22 23  0  0  0  0  0  0  0  0999 V2000
   39.0150   32.6830   39.1240 C   0  0  0  0  0  0  0  0  0  0  0  0
   38.3020   32.8580   40.2970 C   0  0  0  0  0  0  0  0  0  0  0  0
   37.1260   32.1190   40.4040 C   0  0  0  0  0  0  0  0  0  0  0  0
   36.7710   31.3120   39.3960 N   0  0  0  0  0  0  0  0  0  0  0  0
   37.5000   31.1700   38.2650 C   0  0  0  0  0  0  0  0  0  0  0  0
   38.6470   31.8660   38.1170 N   0  0  0  0  0  0  0  0  0  0  0  0
   36.5760   32.2600   41.3190 H   0  0  0  0  0  0  0  0  0  0  0  0
   37.2170   30.5200   37.4500 H   0  0  0  0  0  0  0  0  0  0  0  0
   41.3550   32.5860   39.3600 C   0  0  0  0  0  0  0  0  0  0  0  0
   40.9260   31.5450   39.9610 O   0  0  0  0  0  0  0  0  0  0  0  0
   40.2610   33.3530   38.8140 N   0  0  0  0  0  0  0  0  0  0  0  0
   40.3830   34.2390   38.2890 H   0  0  0  0  0  0  0  0  0  0  0  0
   42.7280   33.0910   39.1510 C   0  0  0  0  0  0  0  0  0  0  0  0
   43.5630   33.5750   40.1850 C   0  0  0  0  0  0  0  0  0  0  0  0
   43.2510   33.6040   41.1740 H   0  0  0  0  0  0  0  0  0  0  0  0
   45.0550   34.0200   39.2720 S   0  0  0  0  0  0  0  0  0  0  0  0
   44.3060   33.4740   37.6130 C   0  0  0  0  0  0  0  0  0  0  0  0
   44.5430   33.3990   36.5140 H   0  0  0  0  0  0  0  0  0  0  0  0
   43.0930   33.0410   37.8840 N   0  0  0  0  0  0  0  0  0  0  0  0
   38.8340   33.7560   41.2510 N   0  0  0  0  0  0  0  0  0  0  0  0
   39.8260   33.6090   41.4830 H   0  0  0  0  0  0  0  0  0  0  0  0
   38.2070   34.4880   41.6490 H   0  0  0  0  0  0  0  0  0  0  0  0
  1  2  1  0  0  0  0
  2  3  2  0  0  0  0
  2 20  1  0  0  0  0
  3  7  1  0  0  0  0
  4  3  1  0  0  0  0
  5  4  2  0  0  0  0
  6  5  1  0  0  0  0
  6  1  2  0  0  0  0
  8  5  1  0  0  0  0
  9 10  2  0  0  0  0
 11  1  1  0  0  0  0
 11  9  1  0  0  0  0
 12 11  1  0  0  0  0
 13  9  1  0  0  0  0
 13 14  2  0  0  0  0
 14 15  1  0  0  0  0
 16 14  1  0  0  0  0
 17 19  2  0  0  0  0
 17 16  1  0  0  0  0
 18 17  1  0  0  0  0
 19 13  1  0  0  0  0
 20 21  1  0  0  0  0
 20 22  1  0  0  0  0
M  END
>  <minimizedAffinity>
-3.83729076

$$$$

 OpenBabel03252501333D

 22 23  0  0  0  0  0  0  0  0999 V2000
   39.2700   31.2920   38.9730 C   0  0  0  0  0  0  0  0  0  0  0  0
   39.9090   32.2920   38.2620 C   0  0  0  0  0  0  0  0  0  0  0  0
   40.6160   33.2180   39.0250 C   0  0  0  0  0  0  0  0  0  0  0  0
   40.6310   33.0860   40.3570 N   0  0  0  0  0  0  0  0  0  0  0  0
   39.9910   32.0910   41.0140 C   0  0  0  0  0  0  0  0  0  0  0  0
   39.2940   31.1700   40.3160 N   0  0  0  0  0  0  0  0  0  0  0  0
   41.1110   33.9920   38.4640 H   0  0  0  0  0  0  0  0  0  0  0  0
   40.0010   31.9810   42.0890 H   0  0  0  0  0  0  0  0  0  0  0  0
   37.1250   30.6910   38.2130 C   0  0  0  0  0  0  0  0  0  0  0  0
   36.9940   31.8870   38.6410 O   0  0  0  0  0  0  0  0  0  0  0  0
   38.4840   30.2330   38.3750 N   0  0  0  0  0  0  0  0  0  0  0  0
   38.8110   29.2890   38.0970 H   0  0  0  0  0  0  0  0  0  0  0  0
   36.1470   29.7630   37.6090 C   0  0  0  0  0  0  0  0  0  0  0  0
   36.1720   29.3520   36.2550 C   0  0  0  0  0  0  0  0  0  0  0  0
   36.8950   29.6890   35.5930 H   0  0  0  0  0  0  0  0  0  0  0  0
   34.7420   28.2520   36.1800 S   0  0  0  0  0  0  0  0  0  0  0  0
   34.3320   28.5230   38.0170 C   0  0  0  0  0  0  0  0  0  0  0  0
   33.5960   28.2200   38.8150 H   0  0  0  0  0  0  0  0  0  0  0  0
   35.2420   29.3540   38.4770 N   0  0  0  0  0  0  0  0  0  0  0  0
   39.7800   32.2690   36.8540 N   0  0  0  0  0  0  0  0  0  0  0  0
   39.9830   31.3620   36.4120 H   0  0  0  0  0  0  0  0  0  0  0  0
   39.4960   33.1460   36.3660 H   0  0  0  0  0  0  0  0  0  0  0  0
  1  6  1  0  0  0  0
  2  1  2  0  0  0  0
  2  3  1  0  0  0  0
  3  4  2  0  0  0  0
  4  5  1  0  0  0  0
  5  8  1  0  0  0  0
  6  5  2  0  0  0  0
  7  3  1  0  0  0  0
  9 11  1  0  0  0  0
  9 10  2  0  0  0  0
 11  1  1  0  0  0  0
 12 11  1  0  0  0  0
 13  9  1  0  0  0  0
 13 19  1  0  0  0  0
 14 13  2  0  0  0  0
 15 14  1  0  0  0  0
 16 14  1  0  0  0  0
 16 17  1  0  0  0  0
 17 19  2  0  0  0  0
 17 18  1  0  0  0  0
 20  2  1  0  0  0  0
 21 20  1  0  0  0  0
 22 20  1  0  0  0  0
M  END
>  <minimizedAffinity>
-3.80511284

$$$$
