
 OpenBabel03242510503D

 20 21  0  0  0  0  0  0  0  0999 V2000
   44.5530   36.2320   44.5310 C   0  0  0  0  0  0  0  0  0  0  0  0
   45.1680   36.2900   43.2500 C   0  0  0  0  0  0  0  0  0  0  0  0
   45.9410   35.2090   42.8430 C   0  0  0  0  0  0  0  0  0  0  0  0
   46.0660   34.1560   43.6930 N   0  0  0  0  0  0  0  0  0  0  0  0
   45.4760   34.1310   44.8910 C   0  0  0  0  0  0  0  0  0  0  0  0
   44.7140   35.1600   45.3290 N   0  0  0  0  0  0  0  0  0  0  0  0
   46.7130   32.1080   45.3880 C   0  0  0  0  0  0  0  0  0  0  0  0
   47.4860   32.2490   44.4260 O   0  0  0  0  0  0  0  0  0  0  0  0
   45.6520   32.9820   45.7400 N   0  0  0  0  0  0  0  0  0  0  0  0
   43.9480   37.0810   44.8440 H   0  0  0  0  0  0  0  0  0  0  0  0
   45.0650   37.1200   42.5880 H   0  0  0  0  0  0  0  0  0  0  0  0
   46.4560   35.1400   41.8950 H   0  0  0  0  0  0  0  0  0  0  0  0
   45.0260   32.8320   46.5500 H   0  0  0  0  0  0  0  0  0  0  0  0
   46.8590   30.9540   46.2730 C   0  0  0  0  0  0  0  0  0  0  0  0
   45.7190   30.0510   46.1340 C   0  0  0  0  0  0  0  0  0  0  0  0
   44.8040   29.8840   45.6430 H   0  0  0  0  0  0  0  0  0  0  0  0
   46.1350   28.6630   47.3590 S   0  0  0  0  0  0  0  0  0  0  0  0
   47.7450   29.5770   47.8010 C   0  0  0  0  0  0  0  0  0  0  0  0
   48.8090   29.6090   48.4840 H   0  0  0  0  0  0  0  0  0  0  0  0
   47.7250   30.5020   47.1550 N   0  0  0  0  0  0  0  0  0  0  0  0
  1 10  1  0  0  0  0
  1  6  1  0  0  0  0
  2  1  2  0  0  0  0
  3  2  1  0  0  0  0
  3  4  2  0  0  0  0
  4  5  1  0  0  0  0
  5  6  2  0  0  0  0
  5  9  1  0  0  0  0
  7  9  1  0  0  0  0
  7 14  1  0  0  0  0
  8  7  2  0  0  0  0
  9 13  1  0  0  0  0
 11  2  1  0  0  0  0
 12  3  1  0  0  0  0
 14 20  1  0  0  0  0
 15 14  2  0  0  0  0
 15 17  1  0  0  0  0
 16 15  1  0  0  0  0
 17 18  1  0  0  0  0
 18 19  1  0  0  0  0
 20 18  2  0  0  0  0
M  END
>  <minimizedAffinity>
-4.27406549

>  <minimizedRMSD>
2.0612638

$$$$
