
 OpenBabel03252501323D

 22 23  0  0  0  0  0  0  0  0999 V2000
   46.4770   32.5820   44.1840 C   0  0  0  0  0  0  0  0  0  0  0  0
   47.1090   31.7140   45.0560 C   0  0  0  0  0  0  0  0  0  0  0  0
   46.8980   31.9590   46.4110 C   0  0  0  0  0  0  0  0  0  0  0  0
   46.1210   32.9890   46.7710 N   0  0  0  0  0  0  0  0  0  0  0  0
   45.5210   33.8140   45.8840 C   0  0  0  0  0  0  0  0  0  0  0  0
   45.6960   33.6150   44.5610 N   0  0  0  0  0  0  0  0  0  0  0  0
   47.3930   31.2800   47.0830 H   0  0  0  0  0  0  0  0  0  0  0  0
   44.8940   34.6460   46.1720 H   0  0  0  0  0  0  0  0  0  0  0  0
   47.7430   33.2110   42.3020 C   0  0  0  0  0  0  0  0  0  0  0  0
   48.3710   33.7080   43.2960 O   0  0  0  0  0  0  0  0  0  0  0  0
   46.5640   32.5030   42.7410 N   0  0  0  0  0  0  0  0  0  0  0  0
   45.9050   32.0260   42.0970 H   0  0  0  0  0  0  0  0  0  0  0  0
   48.0300   33.2510   40.8540 C   0  0  0  0  0  0  0  0  0  0  0  0
   47.4850   34.2030   39.9610 C   0  0  0  0  0  0  0  0  0  0  0  0
   46.8370   34.9470   40.2800 H   0  0  0  0  0  0  0  0  0  0  0  0
   48.2220   33.6980   38.3920 S   0  0  0  0  0  0  0  0  0  0  0  0
   49.1640   32.2580   39.2010 C   0  0  0  0  0  0  0  0  0  0  0  0
   49.8730   31.4150   38.9610 H   0  0  0  0  0  0  0  0  0  0  0  0
   48.8570   32.2920   40.4810 N   0  0  0  0  0  0  0  0  0  0  0  0
   47.8920   30.6820   44.4890 N   0  0  0  0  0  0  0  0  0  0  0  0
   47.4250   30.1350   43.7530 H   0  0  0  0  0  0  0  0  0  0  0  0
   48.8640   30.5430   44.8410 H   0  0  0  0  0  0  0  0  0  0  0  0
  1  6  2  0  0  0  0
  1  2  1  0  0  0  0
  2  3  2  0  0  0  0
  3  4  1  0  0  0  0
  3  7  1  0  0  0  0
  5  8  1  0  0  0  0
  5  4  2  0  0  0  0
  6  5  1  0  0  0  0
  9 11  1  0  0  0  0
  9 10  2  0  0  0  0
 11  1  1  0  0  0  0
 12 11  1  0  0  0  0
 13  9  1  0  0  0  0
 14 15  1  0  0  0  0
 14 13  2  0  0  0  0
 16 17  1  0  0  0  0
 16 14  1  0  0  0  0
 17 19  2  0  0  0  0
 18 17  1  0  0  0  0
 19 13  1  0  0  0  0
 20 22  1  0  0  0  0
 20  2  1  0  0  0  0
 21 20  1  0  0  0  0
M  END
>  <minimizedAffinity>
-3.19920969

>  <minimizedRMSD>
5.22785807

$$$$
