
 OpenBabel03242520193D

 33 35  0  0  0  0  0  0  0  0999 V2000
   41.4460   35.5220   38.7840 C   0  0  0  0  0  0  0  0  0  0  0  0
   41.2060   35.0360   37.8350 H   0  0  0  0  0  0  0  0  0  0  0  0
   41.7480   36.5630   38.5430 H   0  0  0  0  0  0  0  0  0  0  0  0
   44.1460   34.5280   41.2390 C   0  0  0  0  0  0  0  0  0  0  0  0
   43.0360   35.1910   40.6760 C   0  0  0  0  0  0  0  0  0  0  0  0
   42.6190   34.8500   39.4010 C   0  0  0  0  0  0  0  0  0  0  0  0
   43.3330   33.8650   38.7570 N   0  0  0  0  0  0  0  0  0  0  0  0
   44.3940   33.2590   39.3420 C   0  0  0  0  0  0  0  0  0  0  0  0
   44.7960   33.5830   40.5650 N   0  0  0  0  0  0  0  0  0  0  0  0
   42.5330   35.9590   41.2650 H   0  0  0  0  0  0  0  0  0  0  0  0
   44.8860   32.4920   38.7370 H   0  0  0  0  0  0  0  0  0  0  0  0
   44.5890   34.9110   42.6040 C   0  0  0  0  0  0  0  0  0  0  0  0
   46.1090   35.3050   42.6370 C   0  0  0  0  0  0  0  0  0  0  0  0
   45.0080   36.2110   42.9810 C   0  0  0  0  0  0  0  0  0  0  0  0
   44.3570   34.0980   43.3430 H   0  0  0  0  0  0  0  0  0  0  0  0
   46.7080   34.8010   43.4180 H   0  0  0  0  0  0  0  0  0  0  0  0
   46.6360   35.3380   41.6700 H   0  0  0  0  0  0  0  0  0  0  0  0
   44.8350   37.0670   42.2770 H   0  0  0  0  0  0  0  0  0  0  0  0
   44.8850   36.5620   44.0350 H   0  0  0  0  0  0  0  0  0  0  0  0
   40.2870   35.5650   39.7600 C   0  0  0  0  0  0  0  0  0  0  0  0
   39.5540   36.3400   39.3970 H   0  0  0  0  0  0  0  0  0  0  0  0
   40.6680   35.9390   40.7120 H   0  0  0  0  0  0  0  0  0  0  0  0
   39.6320   33.6690   41.1830 C   0  0  0  0  0  0  0  0  0  0  0  0
   40.0000   34.2580   42.2410 O   0  0  0  0  0  0  0  0  0  0  0  0
   39.6370   34.2700   39.9010 N   0  0  0  0  0  0  0  0  0  0  0  0
   39.2120   33.8520   39.0660 H   0  0  0  0  0  0  0  0  0  0  0  0
   39.1740   32.2660   41.3170 C   0  0  0  0  0  0  0  0  0  0  0  0
   40.0880   31.4380   41.8570 C   0  0  0  0  0  0  0  0  0  0  0  0
   41.1010   31.3520   42.2680 H   0  0  0  0  0  0  0  0  0  0  0  0
   39.1830   29.7670   41.8790 S   0  0  0  0  0  0  0  0  0  0  0  0
   37.6690   30.6150   41.1030 C   0  0  0  0  0  0  0  0  0  0  0  0
   36.5370   30.4250   40.7080 H   0  0  0  0  0  0  0  0  0  0  0  0
   38.0470   31.6590   41.0170 N   0  0  0  0  0  0  0  0  0  0  0  0
  1  6  1  0  0  0  0
  1 20  1  0  0  0  0
  2  1  1  0  0  0  0
  3  1  1  0  0  0  0
  4 12  1  0  0  0  0
  5  4  1  0  0  0  0
  5 10  1  0  0  0  0
  6  5  2  0  0  0  0
  7  8  2  0  0  0  0
  7  6  1  0  0  0  0
  8  9  1  0  0  0  0
  9  4  2  0  0  0  0
 11  8  1  0  0  0  0
 12 13  1  0  0  0  0
 12 14  1  0  0  0  0
 12 15  1  0  0  0  0
 13 14  1  0  0  0  0
 13 16  1  0  0  0  0
 14 19  1  0  0  0  0
 17 13  1  0  0  0  0
 18 14  1  0  0  0  0
 20 25  1  0  0  0  0
 20 22  1  0  0  0  0
 21 20  1  0  0  0  0
 23 27  1  0  0  0  0
 23 24  2  0  0  0  0
 25 23  1  0  0  0  0
 26 25  1  0  0  0  0
 27 28  2  0  0  0  0
 28 30  1  0  0  0  0
 28 29  1  0  0  0  0
 31 30  1  0  0  0  0
 32 31  1  0  0  0  0
 33 31  2  0  0  0  0
 33 27  1  0  0  0  0
M  END
>  <minimizedAffinity>
-4.79959297

>  <minimizedRMSD>
1.09200788

$$$$
