
 OpenBabel03252508503D

 26 28  0  0  0  0  0  0  0  0999 V2000
   45.9650   34.1650   41.0430 C   0  0  0  0  0  0  0  0  0  0  0  0
   46.5420   34.8070   42.1350 C   0  0  0  0  0  0  0  0  0  0  0  0
   47.8780   35.1880   41.9920 C   0  0  0  0  0  0  0  0  0  0  0  0
   48.5190   34.9150   40.8210 N   0  0  0  0  0  0  0  0  0  0  0  0
   47.9190   34.2980   39.8080 C   0  0  0  0  0  0  0  0  0  0  0  0
   46.6370   33.9170   39.9070 N   0  0  0  0  0  0  0  0  0  0  0  0
   48.3620   35.6900   42.8230 H   0  0  0  0  0  0  0  0  0  0  0  0
   48.3900   34.0630   38.8610 H   0  0  0  0  0  0  0  0  0  0  0  0
   45.7630   35.0440   43.3310 C   0  0  0  0  0  0  0  0  0  0  0  0
   45.0570   36.2220   43.5500 C   0  0  0  0  0  0  0  0  0  0  0  0
   44.4790   36.0130   44.7880 C   0  0  0  0  0  0  0  0  0  0  0  0
   44.8060   34.7930   45.2920 N   0  0  0  0  0  0  0  0  0  0  0  0
   45.5850   34.2330   44.3870 N   0  0  0  0  0  0  0  0  0  0  0  0
   44.9720   37.0900   42.9210 H   0  0  0  0  0  0  0  0  0  0  0  0
   43.8380   36.6940   45.3340 H   0  0  0  0  0  0  0  0  0  0  0  0
   44.5580   34.3200   46.1690 H   0  0  0  0  0  0  0  0  0  0  0  0
   44.6400   33.7690   41.1410 O   0  0  0  0  0  0  0  0  0  0  0  0
   43.5480   34.3810   40.5980 C   0  0  0  0  0  0  0  0  0  0  0  0
   43.2880   35.6380   40.5790 O   0  0  0  0  0  0  0  0  0  0  0  0
   42.4700   33.5840   39.9270 C   0  0  0  0  0  0  0  0  0  0  0  0
   42.0080   32.4550   40.5960 C   0  0  0  0  0  0  0  0  0  0  0  0
   42.1630   31.8870   41.5230 H   0  0  0  0  0  0  0  0  0  0  0  0
   40.7150   31.7510   39.4740 S   0  0  0  0  0  0  0  0  0  0  0  0
   41.0410   33.1650   38.2510 C   0  0  0  0  0  0  0  0  0  0  0  0
   40.7500   33.7110   37.1390 H   0  0  0  0  0  0  0  0  0  0  0  0
   41.8420   33.7350   38.7820 N   0  0  0  0  0  0  0  0  0  0  0  0
  1 17  1  0  0  0  0
  1  2  1  0  0  0  0
  2  9  1  0  0  0  0
  3  2  2  0  0  0  0
  3  7  1  0  0  0  0
  4  3  1  0  0  0  0
  5  6  1  0  0  0  0
  5  4  2  0  0  0  0
  6  1  2  0  0  0  0
  8  5  1  0  0  0  0
  9 10  1  0  0  0  0
  9 13  2  0  0  0  0
 10 11  2  0  0  0  0
 11 12  1  0  0  0  0
 11 15  1  0  0  0  0
 12 16  1  0  0  0  0
 13 12  1  0  0  0  0
 14 10  1  0  0  0  0
 18 17  1  0  0  0  0
 19 18  2  0  0  0  0
 20 21  2  0  0  0  0
 20 18  1  0  0  0  0
 21 22  1  0  0  0  0
 23 21  1  0  0  0  0
 24 26  2  0  0  0  0
 24 23  1  0  0  0  0
 25 24  1  0  0  0  0
 26 20  1  0  0  0  0
M  END
>  <minimizedAffinity>
-4.96224451

>  <minimizedRMSD>
0.446884871

$$$$
