
 OpenBabel03252508503D

 26 28  0  0  0  0  0  0  0  0999 V2000
   45.9720   34.1600   41.0420 C   0  0  0  0  0  0  0  0  0  0  0  0
   46.5460   34.8060   42.1320 C   0  0  0  0  0  0  0  0  0  0  0  0
   47.8790   35.1950   41.9880 C   0  0  0  0  0  0  0  0  0  0  0  0
   48.5220   34.9230   40.8170 N   0  0  0  0  0  0  0  0  0  0  0  0
   47.9260   34.3010   39.8060 C   0  0  0  0  0  0  0  0  0  0  0  0
   46.6460   33.9130   39.9060 N   0  0  0  0  0  0  0  0  0  0  0  0
   48.3600   35.7010   42.8180 H   0  0  0  0  0  0  0  0  0  0  0  0
   48.3980   34.0660   38.8600 H   0  0  0  0  0  0  0  0  0  0  0  0
   45.7650   35.0420   43.3270 C   0  0  0  0  0  0  0  0  0  0  0  0
   45.0540   36.2170   43.5440 C   0  0  0  0  0  0  0  0  0  0  0  0
   44.4760   36.0070   44.7820 C   0  0  0  0  0  0  0  0  0  0  0  0
   44.8090   34.7890   45.2880 N   0  0  0  0  0  0  0  0  0  0  0  0
   45.5900   34.2310   44.3840 N   0  0  0  0  0  0  0  0  0  0  0  0
   44.9650   37.0830   42.9140 H   0  0  0  0  0  0  0  0  0  0  0  0
   43.8320   36.6860   45.3270 H   0  0  0  0  0  0  0  0  0  0  0  0
   44.5630   34.3160   46.1660 H   0  0  0  0  0  0  0  0  0  0  0  0
   44.6490   33.7560   41.1400 O   0  0  0  0  0  0  0  0  0  0  0  0
   43.5530   34.3640   40.6000 C   0  0  0  0  0  0  0  0  0  0  0  0
   43.3040   35.6210   40.5540 O   0  0  0  0  0  0  0  0  0  0  0  0
   42.4590   33.5590   39.9660 C   0  0  0  0  0  0  0  0  0  0  0  0
   41.8010   32.6390   40.7760 C   0  0  0  0  0  0  0  0  0  0  0  0
   41.7920   32.2570   41.8050 H   0  0  0  0  0  0  0  0  0  0  0  0
   40.5470   31.8560   39.6600 S   0  0  0  0  0  0  0  0  0  0  0  0
   41.1620   32.9570   38.2400 C   0  0  0  0  0  0  0  0  0  0  0  0
   41.0490   33.2940   37.0180 H   0  0  0  0  0  0  0  0  0  0  0  0
   41.9690   33.5380   38.7470 N   0  0  0  0  0  0  0  0  0  0  0  0
  1 17  1  0  0  0  0
  1  2  1  0  0  0  0
  2  9  1  0  0  0  0
  3  2  2  0  0  0  0
  3  7  1  0  0  0  0
  4  3  1  0  0  0  0
  5  6  1  0  0  0  0
  5  4  2  0  0  0  0
  6  1  2  0  0  0  0
  8  5  1  0  0  0  0
  9 10  1  0  0  0  0
  9 13  2  0  0  0  0
 10 11  2  0  0  0  0
 11 12  1  0  0  0  0
 11 15  1  0  0  0  0
 12 16  1  0  0  0  0
 13 12  1  0  0  0  0
 14 10  1  0  0  0  0
 18 17  1  0  0  0  0
 19 18  2  0  0  0  0
 20 18  1  0  0  0  0
 20 21  2  0  0  0  0
 21 22  1  0  0  0  0
 23 21  1  0  0  0  0
 24 26  2  0  0  0  0
 24 23  1  0  0  0  0
 25 24  1  0  0  0  0
 26 20  1  0  0  0  0
M  END
>  <minimizedAffinity>
-4.97908449

>  <minimizedRMSD>
0.470436186

$$$$
