
 OpenBabel03252508503D

 26 28  0  0  0  0  0  0  0  0999 V2000
   45.9570   34.1930   41.0330 C   0  0  0  0  0  0  0  0  0  0  0  0
   46.5420   34.8120   42.1330 C   0  0  0  0  0  0  0  0  0  0  0  0
   47.8850   35.1700   41.9990 C   0  0  0  0  0  0  0  0  0  0  0  0
   48.5250   34.8980   40.8270 N   0  0  0  0  0  0  0  0  0  0  0  0
   47.9170   34.3030   39.8050 C   0  0  0  0  0  0  0  0  0  0  0  0
   46.6280   33.9450   39.8960 N   0  0  0  0  0  0  0  0  0  0  0  0
   48.3750   35.6540   42.8370 H   0  0  0  0  0  0  0  0  0  0  0  0
   48.3880   34.0700   38.8570 H   0  0  0  0  0  0  0  0  0  0  0  0
   45.7640   35.0500   43.3290 C   0  0  0  0  0  0  0  0  0  0  0  0
   45.0720   36.2350   43.5550 C   0  0  0  0  0  0  0  0  0  0  0  0
   44.4880   36.0240   44.7900 C   0  0  0  0  0  0  0  0  0  0  0  0
   44.7990   34.7970   45.2860 N   0  0  0  0  0  0  0  0  0  0  0  0
   45.5730   34.2340   44.3790 N   0  0  0  0  0  0  0  0  0  0  0  0
   44.9990   37.1080   42.9320 H   0  0  0  0  0  0  0  0  0  0  0  0
   43.8550   36.7090   45.3400 H   0  0  0  0  0  0  0  0  0  0  0  0
   44.5440   34.3210   46.1600 H   0  0  0  0  0  0  0  0  0  0  0  0
   44.6250   33.8200   41.1220 O   0  0  0  0  0  0  0  0  0  0  0  0
   43.5490   34.4370   40.5520 C   0  0  0  0  0  0  0  0  0  0  0  0
   43.1600   35.6460   40.7330 O   0  0  0  0  0  0  0  0  0  0  0  0
   42.6570   33.7060   39.5960 C   0  0  0  0  0  0  0  0  0  0  0  0
   41.3420   34.1480   39.4930 C   0  0  0  0  0  0  0  0  0  0  0  0
   40.6610   34.9100   39.8950 H   0  0  0  0  0  0  0  0  0  0  0  0
   40.5720   33.0170   38.2450 S   0  0  0  0  0  0  0  0  0  0  0  0
   42.2320   32.1130   38.0780 C   0  0  0  0  0  0  0  0  0  0  0  0
   42.8940   31.1780   37.5220 H   0  0  0  0  0  0  0  0  0  0  0  0
   42.8670   32.6830   38.7980 N   0  0  0  0  0  0  0  0  0  0  0  0
  1 17  1  0  0  0  0
  1  2  1  0  0  0  0
  2  9  1  0  0  0  0
  3  2  2  0  0  0  0
  3  7  1  0  0  0  0
  4  3  1  0  0  0  0
  5  6  1  0  0  0  0
  5  4  2  0  0  0  0
  6  1  2  0  0  0  0
  8  5  1  0  0  0  0
  9 10  1  0  0  0  0
  9 13  2  0  0  0  0
 10 11  2  0  0  0  0
 11 12  1  0  0  0  0
 11 15  1  0  0  0  0
 12 16  1  0  0  0  0
 13 12  1  0  0  0  0
 14 10  1  0  0  0  0
 18 19  2  0  0  0  0
 18 17  1  0  0  0  0
 20 18  1  0  0  0  0
 21 20  2  0  0  0  0
 21 22  1  0  0  0  0
 23 21  1  0  0  0  0
 24 23  1  0  0  0  0
 24 26  2  0  0  0  0
 25 24  1  0  0  0  0
 26 20  1  0  0  0  0
M  END
>  <minimizedAffinity>
-4.99159718

>  <minimizedRMSD>
0.373468935

$$$$
