
 OpenBabel03252504013D

 32 35  0  0  0  0  0  0  0  0999 V2000
   38.3540   32.0320   40.6430 C   0  0  0  0  0  0  0  0  0  0  0  0
   36.9890   32.0950   40.3760 C   0  0  0  0  0  0  0  0  0  0  0  0
   36.2320   30.9670   40.6670 C   0  0  0  0  0  0  0  0  0  0  0  0
   36.8400   29.8790   41.1840 N   0  0  0  0  0  0  0  0  0  0  0  0
   38.1720   29.8570   41.4290 C   0  0  0  0  0  0  0  0  0  0  0  0
   38.9190   30.9360   41.1560 N   0  0  0  0  0  0  0  0  0  0  0  0
   36.5180   32.9860   39.9580 H   0  0  0  0  0  0  0  0  0  0  0  0
   35.1650   30.9520   40.4830 H   0  0  0  0  0  0  0  0  0  0  0  0
   40.0300   28.8590   42.6730 C   0  0  0  0  0  0  0  0  0  0  0  0
   38.8290   28.6730   41.9910 C   0  0  0  0  0  0  0  0  0  0  0  0
   38.3000   27.4090   41.8630 C   0  0  0  0  0  0  0  0  0  0  0  0
   38.9790   26.3430   42.4210 C   0  0  0  0  0  0  0  0  0  0  0  0
   38.7320   25.0260   42.4690 N   0  0  0  0  0  0  0  0  0  0  0  0
   39.6940   24.3680   43.1340 C   0  0  0  0  0  0  0  0  0  0  0  0
   40.6310   25.2910   43.5520 C   0  0  0  0  0  0  0  0  0  0  0  0
   40.1770   26.5180   43.1040 C   0  0  0  0  0  0  0  0  0  0  0  0
   40.7010   27.7940   43.2260 C   0  0  0  0  0  0  0  0  0  0  0  0
   40.5030   29.8380   42.8090 H   0  0  0  0  0  0  0  0  0  0  0  0
   37.3650   27.2840   41.3290 H   0  0  0  0  0  0  0  0  0  0  0  0
   37.8860   24.5860   42.0330 H   0  0  0  0  0  0  0  0  0  0  0  0
   39.6870   23.2940   43.2860 H   0  0  0  0  0  0  0  0  0  0  0  0
   41.5240   25.0500   44.1150 H   0  0  0  0  0  0  0  0  0  0  0  0
   41.6350   27.8850   43.7650 H   0  0  0  0  0  0  0  0  0  0  0  0
   39.1030   33.2310   40.3230 C   0  0  0  0  0  0  0  0  0  0  0  0
   38.9770   34.3480   40.9170 O   0  0  0  0  0  0  0  0  0  0  0  0
   40.0930   33.1670   39.2220 C   0  0  0  0  0  0  0  0  0  0  0  0
   41.1530   34.1950   39.2280 C   0  0  0  0  0  0  0  0  0  0  0  0
   41.4100   35.0120   39.8420 H   0  0  0  0  0  0  0  0  0  0  0  0
   42.1160   33.7790   37.7750 S   0  0  0  0  0  0  0  0  0  0  0  0
   40.9870   32.3050   37.3590 C   0  0  0  0  0  0  0  0  0  0  0  0
   40.8320   31.4220   36.5670 H   0  0  0  0  0  0  0  0  0  0  0  0
   40.2320   32.3510   38.1980 N   0  0  0  0  0  0  0  0  0  0  0  0
  1  6  1  0  0  0  0
  2  1  2  0  0  0  0
  2  3  1  0  0  0  0
  3  4  2  0  0  0  0
  4  5  1  0  0  0  0
  5 10  1  0  0  0  0
  6  5  2  0  0  0  0
  7  2  1  0  0  0  0
  8  3  1  0  0  0  0
  9 18  1  0  0  0  0
  9 17  1  0  0  0  0
 10  9  2  0  0  0  0
 11 10  1  0  0  0  0
 11 12  2  0  0  0  0
 12 13  1  0  0  0  0
 12 16  1  0  0  0  0
 13 14  1  0  0  0  0
 14 21  1  0  0  0  0
 14 15  2  0  0  0  0
 15 22  1  0  0  0  0
 16 17  2  0  0  0  0
 16 15  1  0  0  0  0
 17 23  1  0  0  0  0
 19 11  1  0  0  0  0
 20 13  1  0  0  0  0
 24  1  1  0  0  0  0
 24 25  2  0  0  0  0
 26 27  2  0  0  0  0
 26 24  1  0  0  0  0
 27 28  1  0  0  0  0
 29 27  1  0  0  0  0
 30 29  1  0  0  0  0
 30 32  2  0  0  0  0
 31 30  1  0  0  0  0
 32 26  1  0  0  0  0
M  END
>  <minimizedAffinity>
-5.7244153

$$$$

 OpenBabel03252504013D

 32 35  0  0  0  0  0  0  0  0999 V2000
   38.7770   31.4260   41.0960 C   0  0  0  0  0  0  0  0  0  0  0  0
   38.7820   32.8180   41.0920 C   0  0  0  0  0  0  0  0  0  0  0  0
   38.1250   33.4520   40.0440 C   0  0  0  0  0  0  0  0  0  0  0  0
   37.5240   32.7060   39.0940 N   0  0  0  0  0  0  0  0  0  0  0  0
   37.5420   31.3530   39.1340 C   0  0  0  0  0  0  0  0  0  0  0  0
   38.1700   30.7230   40.1360 N   0  0  0  0  0  0  0  0  0  0  0  0
   39.2740   33.4010   41.8710 H   0  0  0  0  0  0  0  0  0  0  0  0
   38.0920   34.5330   39.9830 H   0  0  0  0  0  0  0  0  0  0  0  0
   35.7840   29.7810   38.4730 C   0  0  0  0  0  0  0  0  0  0  0  0
   36.8870   30.5470   38.0990 C   0  0  0  0  0  0  0  0  0  0  0  0
   37.3260   30.5270   36.7950 C   0  0  0  0  0  0  0  0  0  0  0  0
   36.6550   29.7410   35.8770 C   0  0  0  0  0  0  0  0  0  0  0  0
   36.8310   29.5140   34.5680 N   0  0  0  0  0  0  0  0  0  0  0  0
   35.9150   28.6570   34.0900 C   0  0  0  0  0  0  0  0  0  0  0  0
   35.0860   28.2950   35.1320 C   0  0  0  0  0  0  0  0  0  0  0  0
   35.5540   28.9750   36.2410 C   0  0  0  0  0  0  0  0  0  0  0  0
   35.1210   29.0010   37.5550 C   0  0  0  0  0  0  0  0  0  0  0  0
   35.3860   29.7520   39.4930 H   0  0  0  0  0  0  0  0  0  0  0  0
   38.1850   31.1300   36.5220 H   0  0  0  0  0  0  0  0  0  0  0  0
   37.5960   29.9600   34.0070 H   0  0  0  0  0  0  0  0  0  0  0  0
   35.8790   28.3380   33.0540 H   0  0  0  0  0  0  0  0  0  0  0  0
   34.2510   27.6110   35.0440 H   0  0  0  0  0  0  0  0  0  0  0  0
   34.2610   28.3890   37.7950 H   0  0  0  0  0  0  0  0  0  0  0  0
   39.4750   30.8080   42.2050 C   0  0  0  0  0  0  0  0  0  0  0  0
   40.5090   31.2860   42.7710 O   0  0  0  0  0  0  0  0  0  0  0  0
   38.9590   29.5230   42.7330 C   0  0  0  0  0  0  0  0  0  0  0  0
   39.8710   28.3640   42.6580 C   0  0  0  0  0  0  0  0  0  0  0  0
   40.8500   28.1950   42.3080 H   0  0  0  0  0  0  0  0  0  0  0  0
   38.8940   27.0450   43.3770 S   0  0  0  0  0  0  0  0  0  0  0  0
   37.4160   28.2030   43.6780 C   0  0  0  0  0  0  0  0  0  0  0  0
   36.3030   28.2280   44.1170 H   0  0  0  0  0  0  0  0  0  0  0  0
   37.8080   29.1840   43.2770 N   0  0  0  0  0  0  0  0  0  0  0  0
  1 24  1  0  0  0  0
  2  1  1  0  0  0  0
  2  7  1  0  0  0  0
  3  2  2  0  0  0  0
  4  5  2  0  0  0  0
  4  3  1  0  0  0  0
  5  6  1  0  0  0  0
  6  1  2  0  0  0  0
  8  3  1  0  0  0  0
  9 18  1  0  0  0  0
 10  9  1  0  0  0  0
 10  5  1  0  0  0  0
 11 10  2  0  0  0  0
 12 16  2  0  0  0  0
 12 11  1  0  0  0  0
 13 12  1  0  0  0  0
 14 13  1  0  0  0  0
 14 15  2  0  0  0  0
 15 16  1  0  0  0  0
 16 17  1  0  0  0  0
 17 23  1  0  0  0  0
 17  9  2  0  0  0  0
 19 11  1  0  0  0  0
 20 13  1  0  0  0  0
 21 14  1  0  0  0  0
 22 15  1  0  0  0  0
 24 26  1  0  0  0  0
 24 25  2  0  0  0  0
 26 32  1  0  0  0  0
 27 26  2  0  0  0  0
 27 29  1  0  0  0  0
 28 27  1  0  0  0  0
 29 30  1  0  0  0  0
 30 31  1  0  0  0  0
 32 30  2  0  0  0  0
M  END
>  <minimizedAffinity>
-5.62225962

$$$$

 OpenBabel03252504013D

 32 35  0  0  0  0  0  0  0  0999 V2000
   40.8710   33.1700   39.4540 C   0  0  0  0  0  0  0  0  0  0  0  0
   40.1410   34.3490   39.5820 C   0  0  0  0  0  0  0  0  0  0  0  0
   39.0270   34.3200   40.4120 C   0  0  0  0  0  0  0  0  0  0  0  0
   38.7060   33.1730   41.0460 N   0  0  0  0  0  0  0  0  0  0  0  0
   39.4420   32.0460   40.8950 C   0  0  0  0  0  0  0  0  0  0  0  0
   40.5200   32.0540   40.0980 N   0  0  0  0  0  0  0  0  0  0  0  0
   40.4200   35.2650   39.0600 H   0  0  0  0  0  0  0  0  0  0  0  0
   38.4180   35.2040   40.5540 H   0  0  0  0  0  0  0  0  0  0  0  0
   40.1130   30.0950   42.2140 C   0  0  0  0  0  0  0  0  0  0  0  0
   39.0890   30.8020   41.5850 C   0  0  0  0  0  0  0  0  0  0  0  0
   37.7990   30.3240   41.6270 C   0  0  0  0  0  0  0  0  0  0  0  0
   37.5460   29.1430   42.2980 C   0  0  0  0  0  0  0  0  0  0  0  0
   36.4280   28.4360   42.5140 N   0  0  0  0  0  0  0  0  0  0  0  0
   36.6750   27.3320   43.2350 C   0  0  0  0  0  0  0  0  0  0  0  0
   38.0260   27.3000   43.5160 C   0  0  0  0  0  0  0  0  0  0  0  0
   38.5600   28.4320   42.9290 C   0  0  0  0  0  0  0  0  0  0  0  0
   39.8540   28.9200   42.8810 C   0  0  0  0  0  0  0  0  0  0  0  0
   41.1590   30.4200   42.2180 H   0  0  0  0  0  0  0  0  0  0  0  0
   37.0160   30.8880   41.1330 H   0  0  0  0  0  0  0  0  0  0  0  0
   35.4870   28.7280   42.1540 H   0  0  0  0  0  0  0  0  0  0  0  0
   35.9080   26.6200   43.5200 H   0  0  0  0  0  0  0  0  0  0  0  0
   38.5180   26.5200   44.0850 H   0  0  0  0  0  0  0  0  0  0  0  0
   40.6130   28.3350   43.3840 H   0  0  0  0  0  0  0  0  0  0  0  0
   42.0220   33.2460   38.5770 C   0  0  0  0  0  0  0  0  0  0  0  0
   41.9970   33.0320   37.3240 O   0  0  0  0  0  0  0  0  0  0  0  0
   43.3340   33.6000   39.1690 C   0  0  0  0  0  0  0  0  0  0  0  0
   44.4300   33.8860   38.2220 C   0  0  0  0  0  0  0  0  0  0  0  0
   44.5370   33.9080   37.1740 H   0  0  0  0  0  0  0  0  0  0  0  0
   45.8050   34.2590   39.3090 S   0  0  0  0  0  0  0  0  0  0  0  0
   44.7440   33.9850   40.8650 C   0  0  0  0  0  0  0  0  0  0  0  0
   44.7900   34.0050   42.0600 H   0  0  0  0  0  0  0  0  0  0  0  0
   43.7430   33.7170   40.4160 N   0  0  0  0  0  0  0  0  0  0  0  0
  1  2  2  0  0  0  0
  1  6  1  0  0  0  0
  2  3  1  0  0  0  0
  3  8  1  0  0  0  0
  3  4  2  0  0  0  0
  5  4  1  0  0  0  0
  5 10  1  0  0  0  0
  6  5  2  0  0  0  0
  7  2  1  0  0  0  0
  9 18  1  0  0  0  0
  9 17  1  0  0  0  0
 10 11  1  0  0  0  0
 10  9  2  0  0  0  0
 11 12  2  0  0  0  0
 12 13  1  0  0  0  0
 12 16  1  0  0  0  0
 13 14  1  0  0  0  0
 14 15  2  0  0  0  0
 14 21  1  0  0  0  0
 15 22  1  0  0  0  0
 16 15  1  0  0  0  0
 17 16  2  0  0  0  0
 17 23  1  0  0  0  0
 19 11  1  0  0  0  0
 20 13  1  0  0  0  0
 24 26  1  0  0  0  0
 24  1  1  0  0  0  0
 25 24  2  0  0  0  0
 26 32  1  0  0  0  0
 27 26  2  0  0  0  0
 27 29  1  0  0  0  0
 28 27  1  0  0  0  0
 29 30  1  0  0  0  0
 30 31  1  0  0  0  0
 32 30  2  0  0  0  0
M  END
>  <minimizedAffinity>
-5.6222291

$$$$

 OpenBabel03252504013D

 32 35  0  0  0  0  0  0  0  0999 V2000
   33.4670   28.8000   36.7390 C   0  0  0  0  0  0  0  0  0  0  0  0
   34.2420   29.1890   35.6490 C   0  0  0  0  0  0  0  0  0  0  0  0
   35.6180   29.2390   35.8330 C   0  0  0  0  0  0  0  0  0  0  0  0
   36.1350   28.9160   37.0370 N   0  0  0  0  0  0  0  0  0  0  0  0
   35.3480   28.5430   38.0730 C   0  0  0  0  0  0  0  0  0  0  0  0
   34.0180   28.4880   37.9150 N   0  0  0  0  0  0  0  0  0  0  0  0
   33.8020   29.4450   34.6840 H   0  0  0  0  0  0  0  0  0  0  0  0
   36.2750   29.5340   35.0240 H   0  0  0  0  0  0  0  0  0  0  0  0
   36.3760   26.8900   39.5590 C   0  0  0  0  0  0  0  0  0  0  0  0
   35.9140   28.1930   39.3790 C   0  0  0  0  0  0  0  0  0  0  0  0
   35.9980   29.0990   40.4110 C   0  0  0  0  0  0  0  0  0  0  0  0
   36.5450   28.6920   41.6130 C   0  0  0  0  0  0  0  0  0  0  0  0
   36.7620   29.3210   42.7770 N   0  0  0  0  0  0  0  0  0  0  0  0
   37.3300   28.5050   43.6790 C   0  0  0  0  0  0  0  0  0  0  0  0
   37.5010   27.2700   43.0880 C   0  0  0  0  0  0  0  0  0  0  0  0
   37.0100   27.3960   41.8010 C   0  0  0  0  0  0  0  0  0  0  0  0
   36.9200   26.4920   40.7570 C   0  0  0  0  0  0  0  0  0  0  0  0
   36.3380   26.1210   38.7790 H   0  0  0  0  0  0  0  0  0  0  0  0
   35.6340   30.1080   40.2530 H   0  0  0  0  0  0  0  0  0  0  0  0
   36.5120   30.3260   42.9410 H   0  0  0  0  0  0  0  0  0  0  0  0
   37.5880   28.8150   44.6850 H   0  0  0  0  0  0  0  0  0  0  0  0
   37.9370   26.4080   43.5780 H   0  0  0  0  0  0  0  0  0  0  0  0
   37.2930   25.4930   40.9470 H   0  0  0  0  0  0  0  0  0  0  0  0
   32.0390   28.7640   36.5010 C   0  0  0  0  0  0  0  0  0  0  0  0
   31.3910   27.7410   36.1100 O   0  0  0  0  0  0  0  0  0  0  0  0
   31.2570   30.0030   36.7260 C   0  0  0  0  0  0  0  0  0  0  0  0
   30.5420   30.1090   38.0130 C   0  0  0  0  0  0  0  0  0  0  0  0
   30.4310   29.5030   38.8680 H   0  0  0  0  0  0  0  0  0  0  0  0
   29.7420   31.7080   37.8910 S   0  0  0  0  0  0  0  0  0  0  0  0
   30.4620   32.0180   36.1570 C   0  0  0  0  0  0  0  0  0  0  0  0
   30.4860   32.8180   35.2680 H   0  0  0  0  0  0  0  0  0  0  0  0
   31.0590   31.0750   35.9850 N   0  0  0  0  0  0  0  0  0  0  0  0
  1  6  1  0  0  0  0
  2  3  1  0  0  0  0
  2  1  2  0  0  0  0
  3  4  2  0  0  0  0
  4  5  1  0  0  0  0
  5 10  1  0  0  0  0
  6  5  2  0  0  0  0
  7  2  1  0  0  0  0
  8  3  1  0  0  0  0
  9 17  1  0  0  0  0
 10  9  2  0  0  0  0
 10 11  1  0  0  0  0
 11 12  2  0  0  0  0
 12 16  1  0  0  0  0
 12 13  1  0  0  0  0
 13 20  1  0  0  0  0
 13 14  1  0  0  0  0
 14 21  1  0  0  0  0
 15 22  1  0  0  0  0
 15 14  2  0  0  0  0
 16 15  1  0  0  0  0
 17 23  1  0  0  0  0
 17 16  2  0  0  0  0
 18  9  1  0  0  0  0
 19 11  1  0  0  0  0
 24 26  1  0  0  0  0
 24  1  1  0  0  0  0
 25 24  2  0  0  0  0
 26 27  2  0  0  0  0
 27 28  1  0  0  0  0
 29 27  1  0  0  0  0
 30 29  1  0  0  0  0
 31 30  1  0  0  0  0
 32 30  2  0  0  0  0
 32 26  1  0  0  0  0
M  END
>  <minimizedAffinity>
-5.60179281

$$$$

 OpenBabel03252504013D

 32 35  0  0  0  0  0  0  0  0999 V2000
   36.9380   28.6940   41.6830 C   0  0  0  0  0  0  0  0  0  0  0  0
   35.6910   28.7350   41.0650 C   0  0  0  0  0  0  0  0  0  0  0  0
   35.5160   29.6680   40.0500 C   0  0  0  0  0  0  0  0  0  0  0  0
   36.5410   30.4790   39.7140 N   0  0  0  0  0  0  0  0  0  0  0  0
   37.7390   30.4080   40.3400 C   0  0  0  0  0  0  0  0  0  0  0  0
   37.9290   29.5140   41.3210 N   0  0  0  0  0  0  0  0  0  0  0  0
   34.8770   28.0690   41.3520 H   0  0  0  0  0  0  0  0  0  0  0  0
   34.5700   29.7500   39.5290 H   0  0  0  0  0  0  0  0  0  0  0  0
   39.5610   31.9040   41.0020 C   0  0  0  0  0  0  0  0  0  0  0  0
   38.8500   31.2910   39.9720 C   0  0  0  0  0  0  0  0  0  0  0  0
   39.2010   31.5240   38.6610 C   0  0  0  0  0  0  0  0  0  0  0  0
   40.2600   32.3700   38.3960 C   0  0  0  0  0  0  0  0  0  0  0  0
   40.8320   32.7880   37.2570 N   0  0  0  0  0  0  0  0  0  0  0  0
   41.8550   33.6230   37.4980 C   0  0  0  0  0  0  0  0  0  0  0  0
   41.9730   33.7700   38.8650 C   0  0  0  0  0  0  0  0  0  0  0  0
   40.9760   32.9860   39.4160 C   0  0  0  0  0  0  0  0  0  0  0  0
   40.6150   32.7450   40.7300 C   0  0  0  0  0  0  0  0  0  0  0  0
   39.3330   31.7610   42.0640 H   0  0  0  0  0  0  0  0  0  0  0  0
   38.6360   31.0380   37.8740 H   0  0  0  0  0  0  0  0  0  0  0  0
   40.5040   32.4870   36.3080 H   0  0  0  0  0  0  0  0  0  0  0  0
   42.4530   34.0760   36.7150 H   0  0  0  0  0  0  0  0  0  0  0  0
   42.7140   34.3880   39.3560 H   0  0  0  0  0  0  0  0  0  0  0  0
   41.1980   33.2450   41.4930 H   0  0  0  0  0  0  0  0  0  0  0  0
   37.0740   27.7080   42.7360 C   0  0  0  0  0  0  0  0  0  0  0  0
   36.1660   27.4080   43.5740 O   0  0  0  0  0  0  0  0  0  0  0  0
   38.3620   26.9850   42.8590 C   0  0  0  0  0  0  0  0  0  0  0  0
   38.5220   25.7730   42.0310 C   0  0  0  0  0  0  0  0  0  0  0  0
   37.9300   25.2520   41.3320 H   0  0  0  0  0  0  0  0  0  0  0  0
   40.1680   25.2130   42.4640 S   0  0  0  0  0  0  0  0  0  0  0  0
   40.4200   26.6540   43.6790 C   0  0  0  0  0  0  0  0  0  0  0  0
   41.2110   27.1250   44.4430 H   0  0  0  0  0  0  0  0  0  0  0  0
   39.4390   27.2070   43.5850 N   0  0  0  0  0  0  0  0  0  0  0  0
  1 24  1  0  0  0  0
  2  7  1  0  0  0  0
  2  1  2  0  0  0  0
  3  2  1  0  0  0  0
  4  3  2  0  0  0  0
  4  5  1  0  0  0  0
  5  6  2  0  0  0  0
  6  1  1  0  0  0  0
  8  3  1  0  0  0  0
  9 18  1  0  0  0  0
 10  5  1  0  0  0  0
 10  9  2  0  0  0  0
 11 10  1  0  0  0  0
 12 11  2  0  0  0  0
 12 16  1  0  0  0  0
 13 14  1  0  0  0  0
 13 12  1  0  0  0  0
 14 15  2  0  0  0  0
 15 22  1  0  0  0  0
 15 16  1  0  0  0  0
 16 17  2  0  0  0  0
 17  9  1  0  0  0  0
 17 23  1  0  0  0  0
 19 11  1  0  0  0  0
 20 13  1  0  0  0  0
 21 14  1  0  0  0  0
 24 26  1  0  0  0  0
 24 25  2  0  0  0  0
 26 32  1  0  0  0  0
 27 29  1  0  0  0  0
 27 26  2  0  0  0  0
 28 27  1  0  0  0  0
 29 30  1  0  0  0  0
 30 31  1  0  0  0  0
 32 30  2  0  0  0  0
M  END
>  <minimizedAffinity>
-5.59086323

$$$$

 OpenBabel03252504013D

 32 35  0  0  0  0  0  0  0  0999 V2000
   38.5660   30.0580   41.9640 C   0  0  0  0  0  0  0  0  0  0  0  0
   38.3700   29.1930   43.0370 C   0  0  0  0  0  0  0  0  0  0  0  0
   37.3310   28.2760   42.9320 C   0  0  0  0  0  0  0  0  0  0  0  0
   36.5700   28.2650   41.8180 N   0  0  0  0  0  0  0  0  0  0  0  0
   36.7930   29.1240   40.7950 C   0  0  0  0  0  0  0  0  0  0  0  0
   37.7910   30.0160   40.8770 N   0  0  0  0  0  0  0  0  0  0  0  0
   38.9980   29.2190   43.9290 H   0  0  0  0  0  0  0  0  0  0  0  0
   37.1260   27.5760   43.7330 H   0  0  0  0  0  0  0  0  0  0  0  0
   36.6150   29.0870   38.3530 C   0  0  0  0  0  0  0  0  0  0  0  0
   35.9640   29.1090   39.5860 C   0  0  0  0  0  0  0  0  0  0  0  0
   34.5890   29.1150   39.6370 C   0  0  0  0  0  0  0  0  0  0  0  0
   33.8780   29.0990   38.4520 C   0  0  0  0  0  0  0  0  0  0  0  0
   32.5670   29.1000   38.1740 N   0  0  0  0  0  0  0  0  0  0  0  0
   32.3440   29.0800   36.8510 C   0  0  0  0  0  0  0  0  0  0  0  0
   33.5680   29.0650   36.2130 C   0  0  0  0  0  0  0  0  0  0  0  0
   34.5170   29.0770   37.2180 C   0  0  0  0  0  0  0  0  0  0  0  0
   35.9010   29.0710   37.1780 C   0  0  0  0  0  0  0  0  0  0  0  0
   37.7050   29.0810   38.2440 H   0  0  0  0  0  0  0  0  0  0  0  0
   34.1010   29.1320   40.6050 H   0  0  0  0  0  0  0  0  0  0  0  0
   31.8240   29.1140   38.9150 H   0  0  0  0  0  0  0  0  0  0  0  0
   31.3520   29.0770   36.4120 H   0  0  0  0  0  0  0  0  0  0  0  0
   33.7020   29.0480   35.1380 H   0  0  0  0  0  0  0  0  0  0  0  0
   36.3570   29.0540   36.1970 H   0  0  0  0  0  0  0  0  0  0  0  0
   39.6590   30.9960   42.1180 C   0  0  0  0  0  0  0  0  0  0  0  0
   40.6140   30.8720   42.9500 O   0  0  0  0  0  0  0  0  0  0  0  0
   39.6830   32.1970   41.2500 C   0  0  0  0  0  0  0  0  0  0  0  0
   40.8900   32.3920   40.4240 C   0  0  0  0  0  0  0  0  0  0  0  0
   41.7960   31.8750   40.2760 H   0  0  0  0  0  0  0  0  0  0  0  0
   40.5300   33.9130   39.5480 S   0  0  0  0  0  0  0  0  0  0  0  0
   38.8340   34.0840   40.3930 C   0  0  0  0  0  0  0  0  0  0  0  0
   37.8660   34.7840   40.4450 H   0  0  0  0  0  0  0  0  0  0  0  0
   38.8140   33.1680   41.0540 N   0  0  0  0  0  0  0  0  0  0  0  0
  1 24  1  0  0  0  0
  1  2  1  0  0  0  0
  2  7  1  0  0  0  0
  3  2  2  0  0  0  0
  3  8  1  0  0  0  0
  4  3  1  0  0  0  0
  5  6  1  0  0  0  0
  5  4  2  0  0  0  0
  6  1  2  0  0  0  0
  9 10  1  0  0  0  0
 10 11  2  0  0  0  0
 10  5  1  0  0  0  0
 11 19  1  0  0  0  0
 12 11  1  0  0  0  0
 13 12  1  0  0  0  0
 13 20  1  0  0  0  0
 14 13  1  0  0  0  0
 15 14  2  0  0  0  0
 15 16  1  0  0  0  0
 16 12  2  0  0  0  0
 17 16  1  0  0  0  0
 17  9  2  0  0  0  0
 18  9  1  0  0  0  0
 21 14  1  0  0  0  0
 22 15  1  0  0  0  0
 23 17  1  0  0  0  0
 24 25  2  0  0  0  0
 26 24  1  0  0  0  0
 27 26  2  0  0  0  0
 28 27  1  0  0  0  0
 29 30  1  0  0  0  0
 29 27  1  0  0  0  0
 30 31  1  0  0  0  0
 30 32  2  0  0  0  0
 32 26  1  0  0  0  0
M  END
>  <minimizedAffinity>
-5.58560896

$$$$

 OpenBabel03252504013D

 32 35  0  0  0  0  0  0  0  0999 V2000
   37.6170   26.6880   41.3150 C   0  0  0  0  0  0  0  0  0  0  0  0
   37.0860   26.3860   42.5660 C   0  0  0  0  0  0  0  0  0  0  0  0
   36.7830   27.4540   43.4010 C   0  0  0  0  0  0  0  0  0  0  0  0
   37.0130   28.7130   42.9740 N   0  0  0  0  0  0  0  0  0  0  0  0
   37.5320   28.9650   41.7490 C   0  0  0  0  0  0  0  0  0  0  0  0
   37.8310   27.9480   40.9280 N   0  0  0  0  0  0  0  0  0  0  0  0
   36.9070   25.3600   42.8910 H   0  0  0  0  0  0  0  0  0  0  0  0
   36.3660   27.2870   44.3870 H   0  0  0  0  0  0  0  0  0  0  0  0
   36.7610   30.9800   40.5900 C   0  0  0  0  0  0  0  0  0  0  0  0
   37.7800   30.3340   41.2880 C   0  0  0  0  0  0  0  0  0  0  0  0
   38.9710   30.9840   41.5210 C   0  0  0  0  0  0  0  0  0  0  0  0
   39.1280   32.2750   41.0550 C   0  0  0  0  0  0  0  0  0  0  0  0
   40.1390   33.1530   41.1190 N   0  0  0  0  0  0  0  0  0  0  0  0
   39.8290   34.3080   40.5110 C   0  0  0  0  0  0  0  0  0  0  0  0
   38.5450   34.1970   40.0160 C   0  0  0  0  0  0  0  0  0  0  0  0
   38.1170   32.9280   40.3590 C   0  0  0  0  0  0  0  0  0  0  0  0
   36.9240   32.2650   40.1290 C   0  0  0  0  0  0  0  0  0  0  0  0
   35.7910   30.5190   40.3720 H   0  0  0  0  0  0  0  0  0  0  0  0
   39.7520   30.4660   42.0660 H   0  0  0  0  0  0  0  0  0  0  0  0
   41.0520   32.9410   41.5920 H   0  0  0  0  0  0  0  0  0  0  0  0
   40.5080   35.1510   40.4490 H   0  0  0  0  0  0  0  0  0  0  0  0
   38.0250   34.9770   39.4730 H   0  0  0  0  0  0  0  0  0  0  0  0
   36.1640   32.8100   39.5830 H   0  0  0  0  0  0  0  0  0  0  0  0
   37.9190   25.5430   40.4790 C   0  0  0  0  0  0  0  0  0  0  0  0
   39.0800   25.0510   40.3110 O   0  0  0  0  0  0  0  0  0  0  0  0
   36.8040   24.8850   39.7580 C   0  0  0  0  0  0  0  0  0  0  0  0
   36.3760   25.5100   38.4910 C   0  0  0  0  0  0  0  0  0  0  0  0
   36.6680   26.3500   37.9260 H   0  0  0  0  0  0  0  0  0  0  0  0
   35.0430   24.4390   37.9530 S   0  0  0  0  0  0  0  0  0  0  0  0
   35.2340   23.3130   39.4740 C   0  0  0  0  0  0  0  0  0  0  0  0
   34.7850   22.3330   39.9910 H   0  0  0  0  0  0  0  0  0  0  0  0
   36.0850   23.8130   40.0240 N   0  0  0  0  0  0  0  0  0  0  0  0
  1  2  1  0  0  0  0
  2  7  1  0  0  0  0
  2  3  2  0  0  0  0
  3  8  1  0  0  0  0
  4  3  1  0  0  0  0
  5  4  2  0  0  0  0
  6  1  2  0  0  0  0
  6  5  1  0  0  0  0
  9 10  1  0  0  0  0
 10 11  2  0  0  0  0
 10  5  1  0  0  0  0
 11 19  1  0  0  0  0
 12 13  1  0  0  0  0
 12 11  1  0  0  0  0
 13 20  1  0  0  0  0
 14 13  1  0  0  0  0
 15 16  1  0  0  0  0
 15 14  2  0  0  0  0
 16 12  2  0  0  0  0
 17 16  1  0  0  0  0
 17  9  2  0  0  0  0
 18  9  1  0  0  0  0
 21 14  1  0  0  0  0
 22 15  1  0  0  0  0
 23 17  1  0  0  0  0
 24  1  1  0  0  0  0
 25 24  2  0  0  0  0
 26 32  1  0  0  0  0
 26 24  1  0  0  0  0
 27 26  2  0  0  0  0
 28 27  1  0  0  0  0
 29 27  1  0  0  0  0
 29 30  1  0  0  0  0
 30 31  1  0  0  0  0
 30 32  2  0  0  0  0
M  END
>  <minimizedAffinity>
-5.49352026

$$$$

 OpenBabel03252504013D

 32 35  0  0  0  0  0  0  0  0999 V2000
   38.4750   26.6750   41.7610 C   0  0  0  0  0  0  0  0  0  0  0  0
   37.4740   26.2850   42.6470 C   0  0  0  0  0  0  0  0  0  0  0  0
   36.6040   27.2710   43.0960 C   0  0  0  0  0  0  0  0  0  0  0  0
   36.7640   28.5390   42.6640 N   0  0  0  0  0  0  0  0  0  0  0  0
   37.7520   28.8790   41.8020 C   0  0  0  0  0  0  0  0  0  0  0  0
   38.6010   27.9420   41.3570 N   0  0  0  0  0  0  0  0  0  0  0  0
   37.3630   25.2530   42.9820 H   0  0  0  0  0  0  0  0  0  0  0  0
   35.8040   27.0330   43.7860 H   0  0  0  0  0  0  0  0  0  0  0  0
   36.8630   30.8460   40.6450 C   0  0  0  0  0  0  0  0  0  0  0  0
   37.9220   30.2580   41.3360 C   0  0  0  0  0  0  0  0  0  0  0  0
   39.0770   30.9720   41.5570 C   0  0  0  0  0  0  0  0  0  0  0  0
   39.1610   32.2680   41.0860 C   0  0  0  0  0  0  0  0  0  0  0  0
   40.1240   33.1990   41.1400 N   0  0  0  0  0  0  0  0  0  0  0  0
   39.7460   34.3340   40.5310 C   0  0  0  0  0  0  0  0  0  0  0  0
   38.4670   34.1520   40.0470 C   0  0  0  0  0  0  0  0  0  0  0  0
   38.1100   32.8630   40.3980 C   0  0  0  0  0  0  0  0  0  0  0  0
   36.9530   32.1360   40.1790 C   0  0  0  0  0  0  0  0  0  0  0  0
   35.9180   30.3330   40.4360 H   0  0  0  0  0  0  0  0  0  0  0  0
   39.8900   30.4980   42.0960 H   0  0  0  0  0  0  0  0  0  0  0  0
   41.0510   33.0390   41.6050 H   0  0  0  0  0  0  0  0  0  0  0  0
   40.3780   35.2130   40.4610 H   0  0  0  0  0  0  0  0  0  0  0  0
   37.9010   34.9020   39.5070 H   0  0  0  0  0  0  0  0  0  0  0  0
   36.1600   32.6380   39.6390 H   0  0  0  0  0  0  0  0  0  0  0  0
   39.3590   25.6150   41.3210 C   0  0  0  0  0  0  0  0  0  0  0  0
   39.0120   24.6350   40.5880 O   0  0  0  0  0  0  0  0  0  0  0  0
   40.7780   25.6590   41.7480 C   0  0  0  0  0  0  0  0  0  0  0  0
   41.0530   25.3300   43.1610 C   0  0  0  0  0  0  0  0  0  0  0  0
   40.4760   25.0550   43.9990 H   0  0  0  0  0  0  0  0  0  0  0  0
   42.8340   25.4960   43.2660 S   0  0  0  0  0  0  0  0  0  0  0  0
   42.9710   25.9770   41.4310 C   0  0  0  0  0  0  0  0  0  0  0  0
   43.7620   26.2770   40.5850 H   0  0  0  0  0  0  0  0  0  0  0  0
   41.8910   25.9430   41.1030 N   0  0  0  0  0  0  0  0  0  0  0  0
  1  2  1  0  0  0  0
  2  7  1  0  0  0  0
  2  3  2  0  0  0  0
  3  8  1  0  0  0  0
  4  3  1  0  0  0  0
  5  4  2  0  0  0  0
  6  1  2  0  0  0  0
  6  5  1  0  0  0  0
  9 10  1  0  0  0  0
 10 11  2  0  0  0  0
 10  5  1  0  0  0  0
 11 19  1  0  0  0  0
 12 13  1  0  0  0  0
 12 11  1  0  0  0  0
 13 20  1  0  0  0  0
 14 13  1  0  0  0  0
 15 16  1  0  0  0  0
 15 14  2  0  0  0  0
 16 12  2  0  0  0  0
 17 16  1  0  0  0  0
 17  9  2  0  0  0  0
 18  9  1  0  0  0  0
 21 14  1  0  0  0  0
 22 15  1  0  0  0  0
 23 17  1  0  0  0  0
 24 26  1  0  0  0  0
 24  1  1  0  0  0  0
 25 24  2  0  0  0  0
 26 27  2  0  0  0  0
 27 29  1  0  0  0  0
 27 28  1  0  0  0  0
 30 29  1  0  0  0  0
 31 30  1  0  0  0  0
 32 30  2  0  0  0  0
 32 26  1  0  0  0  0
M  END
>  <minimizedAffinity>
-5.43553257

$$$$

 OpenBabel03252504013D

 32 35  0  0  0  0  0  0  0  0999 V2000
   38.3980   31.5540   39.1300 C   0  0  0  0  0  0  0  0  0  0  0  0
   37.7550   31.7700   37.9150 C   0  0  0  0  0  0  0  0  0  0  0  0
   36.9580   30.7420   37.4250 C   0  0  0  0  0  0  0  0  0  0  0  0
   36.8450   29.6000   38.1340 N   0  0  0  0  0  0  0  0  0  0  0  0
   37.4880   29.4280   39.3140 C   0  0  0  0  0  0  0  0  0  0  0  0
   38.2610   30.4080   39.8030 N   0  0  0  0  0  0  0  0  0  0  0  0
   37.8600   32.7030   37.3580 H   0  0  0  0  0  0  0  0  0  0  0  0
   36.4310   30.8490   36.4850 H   0  0  0  0  0  0  0  0  0  0  0  0
   37.1900   28.2880   41.4600 C   0  0  0  0  0  0  0  0  0  0  0  0
   37.3620   28.1850   40.0810 C   0  0  0  0  0  0  0  0  0  0  0  0
   37.4090   26.9450   39.4850 C   0  0  0  0  0  0  0  0  0  0  0  0
   37.2830   25.8200   40.2770 C   0  0  0  0  0  0  0  0  0  0  0  0
   37.2870   24.5070   40.0070 N   0  0  0  0  0  0  0  0  0  0  0  0
   37.1300   23.7740   41.1200 C   0  0  0  0  0  0  0  0  0  0  0  0
   37.0140   24.6400   42.1870 C   0  0  0  0  0  0  0  0  0  0  0  0
   37.1100   25.9120   41.6530 C   0  0  0  0  0  0  0  0  0  0  0  0
   37.0640   27.1640   42.2430 C   0  0  0  0  0  0  0  0  0  0  0  0
   37.1440   29.2430   41.9950 H   0  0  0  0  0  0  0  0  0  0  0  0
   37.5440   26.8850   38.4110 H   0  0  0  0  0  0  0  0  0  0  0  0
   37.4010   24.1220   39.0370 H   0  0  0  0  0  0  0  0  0  0  0  0
   37.1050   22.6900   41.1220 H   0  0  0  0  0  0  0  0  0  0  0  0
   36.8770   24.3330   43.2170 H   0  0  0  0  0  0  0  0  0  0  0  0
   36.9290   27.1900   43.3160 H   0  0  0  0  0  0  0  0  0  0  0  0
   39.2190   32.6510   39.6000 C   0  0  0  0  0  0  0  0  0  0  0  0
   38.9820   33.3430   40.6410 O   0  0  0  0  0  0  0  0  0  0  0  0
   40.4280   33.0090   38.8210 C   0  0  0  0  0  0  0  0  0  0  0  0
   41.0740   34.2930   39.1560 C   0  0  0  0  0  0  0  0  0  0  0  0
   40.8960   35.0720   39.8430 H   0  0  0  0  0  0  0  0  0  0  0  0
   42.4590   34.3480   38.0200 S   0  0  0  0  0  0  0  0  0  0  0  0
   41.9950   32.6680   37.2580 C   0  0  0  0  0  0  0  0  0  0  0  0
   42.3330   31.8770   36.4270 H   0  0  0  0  0  0  0  0  0  0  0  0
   41.0730   32.3940   37.8510 N   0  0  0  0  0  0  0  0  0  0  0  0
  1 24  1  0  0  0  0
  1  6  1  0  0  0  0
  2  1  2  0  0  0  0
  3  2  1  0  0  0  0
  3  4  2  0  0  0  0
  4  5  1  0  0  0  0
  5  6  2  0  0  0  0
  5 10  1  0  0  0  0
  7  2  1  0  0  0  0
  8  3  1  0  0  0  0
  9 18  1  0  0  0  0
  9 17  1  0  0  0  0
 10  9  2  0  0  0  0
 11 10  1  0  0  0  0
 11 12  2  0  0  0  0
 12 16  1  0  0  0  0
 13 12  1  0  0  0  0
 13 14  1  0  0  0  0
 14 21  1  0  0  0  0
 14 15  2  0  0  0  0
 15 22  1  0  0  0  0
 16 15  1  0  0  0  0
 16 17  2  0  0  0  0
 17 23  1  0  0  0  0
 19 11  1  0  0  0  0
 20 13  1  0  0  0  0
 24 25  2  0  0  0  0
 26 27  2  0  0  0  0
 26 24  1  0  0  0  0
 27 28  1  0  0  0  0
 29 27  1  0  0  0  0
 30 32  2  0  0  0  0
 30 29  1  0  0  0  0
 31 30  1  0  0  0  0
 32 26  1  0  0  0  0
M  END
>  <minimizedAffinity>
-5.31820774

$$$$
