
 OpenBabel03252503593D

 32 35  0  0  0  0  0  0  0  0999 V2000
   46.8990   34.9600   42.6490 C   0  0  0  0  0  0  0  0  0  0  0  0
   45.9610   35.9860   42.5590 C   0  0  0  0  0  0  0  0  0  0  0  0
   44.9430   36.0010   43.5050 C   0  0  0  0  0  0  0  0  0  0  0  0
   44.9060   35.0390   44.4500 N   0  0  0  0  0  0  0  0  0  0  0  0
   45.8370   34.0570   44.5040 C   0  0  0  0  0  0  0  0  0  0  0  0
   46.8280   34.0260   43.6010 N   0  0  0  0  0  0  0  0  0  0  0  0
   46.0110   36.7540   41.7860 H   0  0  0  0  0  0  0  0  0  0  0  0
   44.1830   36.7720   43.4900 H   0  0  0  0  0  0  0  0  0  0  0  0
   46.0520   31.7020   45.1400 C   0  0  0  0  0  0  0  0  0  0  0  0
   45.7940   33.0150   45.5330 C   0  0  0  0  0  0  0  0  0  0  0  0
   45.5080   33.2930   46.8510 C   0  0  0  0  0  0  0  0  0  0  0  0
   45.4860   32.2540   47.7620 C   0  0  0  0  0  0  0  0  0  0  0  0
   45.2480   32.2000   49.0800 N   0  0  0  0  0  0  0  0  0  0  0  0
   45.3390   30.9450   49.5460 C   0  0  0  0  0  0  0  0  0  0  0  0
   45.6540   30.1190   48.4860 C   0  0  0  0  0  0  0  0  0  0  0  0
   45.7440   30.9430   47.3800 C   0  0  0  0  0  0  0  0  0  0  0  0
   46.0290   30.6740   46.0520 C   0  0  0  0  0  0  0  0  0  0  0  0
   46.2850   31.4150   44.1090 H   0  0  0  0  0  0  0  0  0  0  0  0
   45.3100   34.3190   47.1380 H   0  0  0  0  0  0  0  0  0  0  0  0
   45.0210   33.0470   49.6560 H   0  0  0  0  0  0  0  0  0  0  0  0
   45.1820   30.6820   50.5860 H   0  0  0  0  0  0  0  0  0  0  0  0
   45.7910   29.0470   48.5610 H   0  0  0  0  0  0  0  0  0  0  0  0
   46.2230   29.6390   45.7980 H   0  0  0  0  0  0  0  0  0  0  0  0
   47.9400   34.9840   41.6420 C   0  0  0  0  0  0  0  0  0  0  0  0
   49.0950   35.4930   41.8010 O   0  0  0  0  0  0  0  0  0  0  0  0
   47.6550   34.3740   40.3220 C   0  0  0  0  0  0  0  0  0  0  0  0
   46.5300   33.4200   40.2640 C   0  0  0  0  0  0  0  0  0  0  0  0
   45.8310   33.0330   40.9510 H   0  0  0  0  0  0  0  0  0  0  0  0
   46.5200   32.9240   38.5420 S   0  0  0  0  0  0  0  0  0  0  0  0
   48.0030   34.0440   38.1340 C   0  0  0  0  0  0  0  0  0  0  0  0
   48.7160   34.3850   37.2370 H   0  0  0  0  0  0  0  0  0  0  0  0
   48.2200   34.5110   39.1400 N   0  0  0  0  0  0  0  0  0  0  0  0
  1  6  1  0  0  0  0
  2  1  2  0  0  0  0
  2  3  1  0  0  0  0
  3  4  2  0  0  0  0
  4  5  1  0  0  0  0
  5 10  1  0  0  0  0
  6  5  2  0  0  0  0
  7  2  1  0  0  0  0
  8  3  1  0  0  0  0
  9 10  2  0  0  0  0
  9 17  1  0  0  0  0
 10 11  1  0  0  0  0
 11 19  1  0  0  0  0
 11 12  2  0  0  0  0
 12 13  1  0  0  0  0
 13 14  1  0  0  0  0
 13 20  1  0  0  0  0
 14 21  1  0  0  0  0
 15 22  1  0  0  0  0
 15 14  2  0  0  0  0
 16 12  1  0  0  0  0
 16 15  1  0  0  0  0
 17 16  2  0  0  0  0
 18  9  1  0  0  0  0
 23 17  1  0  0  0  0
 24 25  2  0  0  0  0
 24  1  1  0  0  0  0
 26 24  1  0  0  0  0
 27 26  2  0  0  0  0
 27 28  1  0  0  0  0
 29 27  1  0  0  0  0
 30 29  1  0  0  0  0
 30 32  2  0  0  0  0
 31 30  1  0  0  0  0
 32 26  1  0  0  0  0
M  END
>  <minimizedAffinity>
-6.01460981

>  <minimizedRMSD>
0.655392826

$$$$
