
 OpenBabel03252508503D

 26 28  0  0  0  0  0  0  0  0999 V2000
   45.9000   34.1990   41.0290 C   0  0  0  0  0  0  0  0  0  0  0  0
   46.5080   34.7960   42.1290 C   0  0  0  0  0  0  0  0  0  0  0  0
   47.8590   35.1190   41.9880 C   0  0  0  0  0  0  0  0  0  0  0  0
   48.4850   34.8370   40.8110 N   0  0  0  0  0  0  0  0  0  0  0  0
   47.8560   34.2640   39.7900 C   0  0  0  0  0  0  0  0  0  0  0  0
   46.5580   33.9390   39.8860 N   0  0  0  0  0  0  0  0  0  0  0  0
   48.3660   35.5860   42.8260 H   0  0  0  0  0  0  0  0  0  0  0  0
   48.3140   34.0240   38.8380 H   0  0  0  0  0  0  0  0  0  0  0  0
   45.7430   35.0490   43.3310 C   0  0  0  0  0  0  0  0  0  0  0  0
   45.0890   36.2520   43.5690 C   0  0  0  0  0  0  0  0  0  0  0  0
   44.5050   36.0500   44.8060 C   0  0  0  0  0  0  0  0  0  0  0  0
   44.7800   34.8090   45.2900 N   0  0  0  0  0  0  0  0  0  0  0  0
   45.5310   34.2290   44.3740 N   0  0  0  0  0  0  0  0  0  0  0  0
   45.0400   37.1320   42.9540 H   0  0  0  0  0  0  0  0  0  0  0  0
   43.8960   36.7490   45.3640 H   0  0  0  0  0  0  0  0  0  0  0  0
   44.5140   34.3340   46.1610 H   0  0  0  0  0  0  0  0  0  0  0  0
   44.5590   33.8610   41.1240 O   0  0  0  0  0  0  0  0  0  0  0  0
   43.4930   34.5350   40.6010 C   0  0  0  0  0  0  0  0  0  0  0  0
   43.1650   35.7570   40.8150 O   0  0  0  0  0  0  0  0  0  0  0  0
   42.5370   33.8600   39.6650 C   0  0  0  0  0  0  0  0  0  0  0  0
   42.6940   32.4900   39.4780 C   0  0  0  0  0  0  0  0  0  0  0  0
   43.3240   31.6510   39.7990 H   0  0  0  0  0  0  0  0  0  0  0  0
   41.3600   32.0320   38.2780 S   0  0  0  0  0  0  0  0  0  0  0  0
   40.8040   33.8470   38.2430 C   0  0  0  0  0  0  0  0  0  0  0  0
   39.9940   34.7120   37.7800 H   0  0  0  0  0  0  0  0  0  0  0  0
   41.5330   34.3150   38.9480 N   0  0  0  0  0  0  0  0  0  0  0  0
  1 17  1  0  0  0  0
  1  2  1  0  0  0  0
  2  9  1  0  0  0  0
  3  2  2  0  0  0  0
  3  7  1  0  0  0  0
  4  3  1  0  0  0  0
  5  6  1  0  0  0  0
  5  4  2  0  0  0  0
  6  1  2  0  0  0  0
  8  5  1  0  0  0  0
  9 10  1  0  0  0  0
  9 13  2  0  0  0  0
 10 11  2  0  0  0  0
 11 12  1  0  0  0  0
 11 15  1  0  0  0  0
 12 16  1  0  0  0  0
 13 12  1  0  0  0  0
 14 10  1  0  0  0  0
 18 19  2  0  0  0  0
 18 17  1  0  0  0  0
 20 18  1  0  0  0  0
 21 20  2  0  0  0  0
 21 22  1  0  0  0  0
 23 21  1  0  0  0  0
 24 23  1  0  0  0  0
 24 26  2  0  0  0  0
 25 24  1  0  0  0  0
 26 20  1  0  0  0  0
M  END
>  <minimizedAffinity>
-5.01689339

>  <minimizedRMSD>
0.507609606

$$$$
