
 OpenBabel03252508503D

 26 28  0  0  0  0  0  0  0  0999 V2000
   45.9760   34.1630   41.0510 C   0  0  0  0  0  0  0  0  0  0  0  0
   46.5490   34.8110   42.1410 C   0  0  0  0  0  0  0  0  0  0  0  0
   47.8820   35.1990   41.9970 C   0  0  0  0  0  0  0  0  0  0  0  0
   48.5250   34.9280   40.8270 N   0  0  0  0  0  0  0  0  0  0  0  0
   47.9290   34.3050   39.8150 C   0  0  0  0  0  0  0  0  0  0  0  0
   46.6490   33.9160   39.9150 N   0  0  0  0  0  0  0  0  0  0  0  0
   48.3630   35.7060   42.8270 H   0  0  0  0  0  0  0  0  0  0  0  0
   48.4020   34.0710   38.8690 H   0  0  0  0  0  0  0  0  0  0  0  0
   45.7690   35.0460   43.3370 C   0  0  0  0  0  0  0  0  0  0  0  0
   45.0590   36.2220   43.5550 C   0  0  0  0  0  0  0  0  0  0  0  0
   44.4810   36.0110   44.7920 C   0  0  0  0  0  0  0  0  0  0  0  0
   44.8110   34.7930   45.2970 N   0  0  0  0  0  0  0  0  0  0  0  0
   45.5920   34.2340   44.3930 N   0  0  0  0  0  0  0  0  0  0  0  0
   44.9720   37.0890   42.9260 H   0  0  0  0  0  0  0  0  0  0  0  0
   43.8380   36.6910   45.3380 H   0  0  0  0  0  0  0  0  0  0  0  0
   44.5640   34.3190   46.1740 H   0  0  0  0  0  0  0  0  0  0  0  0
   44.6530   33.7590   41.1500 O   0  0  0  0  0  0  0  0  0  0  0  0
   43.5570   34.3670   40.6110 C   0  0  0  0  0  0  0  0  0  0  0  0
   43.3050   35.6250   40.5690 O   0  0  0  0  0  0  0  0  0  0  0  0
   42.4630   33.5630   39.9740 C   0  0  0  0  0  0  0  0  0  0  0  0
   41.4690   33.0720   40.8130 C   0  0  0  0  0  0  0  0  0  0  0  0
   41.1670   33.0620   41.8690 H   0  0  0  0  0  0  0  0  0  0  0  0
   40.3270   32.1490   39.6850 S   0  0  0  0  0  0  0  0  0  0  0  0
   41.4450   32.6090   38.2200 C   0  0  0  0  0  0  0  0  0  0  0  0
   41.6600   32.5300   36.9680 H   0  0  0  0  0  0  0  0  0  0  0  0
   42.2410   33.2050   38.7290 N   0  0  0  0  0  0  0  0  0  0  0  0
  1 17  1  0  0  0  0
  1  2  1  0  0  0  0
  2  9  1  0  0  0  0
  3  2  2  0  0  0  0
  3  7  1  0  0  0  0
  4  3  1  0  0  0  0
  5  6  1  0  0  0  0
  5  4  2  0  0  0  0
  6  1  2  0  0  0  0
  8  5  1  0  0  0  0
  9 10  1  0  0  0  0
  9 13  2  0  0  0  0
 10 11  2  0  0  0  0
 11 12  1  0  0  0  0
 11 15  1  0  0  0  0
 12 16  1  0  0  0  0
 13 12  1  0  0  0  0
 14 10  1  0  0  0  0
 18 17  1  0  0  0  0
 19 18  2  0  0  0  0
 20 18  1  0  0  0  0
 20 21  2  0  0  0  0
 21 22  1  0  0  0  0
 23 21  1  0  0  0  0
 24 26  2  0  0  0  0
 24 23  1  0  0  0  0
 25 24  1  0  0  0  0
 26 20  1  0  0  0  0
M  END
>  <minimizedAffinity>
-4.9737854

>  <minimizedRMSD>
0.476373106

$$$$
