
 OpenBabel03252507173D

 27 29  0  0  0  0  0  0  0  0999 V2000
   38.9580   32.3020   40.5620 C   0  0  0  0  0  0  0  0  0  0  0  0
   38.2860   31.1010   40.9050 C   0  0  0  0  0  0  0  0  0  0  0  0
   38.9760   30.1860   41.6700 C   0  0  0  0  0  0  0  0  0  0  0  0
   40.2350   30.4380   42.0670 N   0  0  0  0  0  0  0  0  0  0  0  0
   40.8680   31.6120   41.7220 C   0  0  0  0  0  0  0  0  0  0  0  0
   40.2130   32.5050   40.9830 N   0  0  0  0  0  0  0  0  0  0  0  0
   38.4610   33.0570   39.9610 H   0  0  0  0  0  0  0  0  0  0  0  0
   41.8740   31.6550   42.1220 H   0  0  0  0  0  0  0  0  0  0  0  0
   38.2970   28.9420   42.0320 C   0  0  0  0  0  0  0  0  0  0  0  0
   37.6600   28.8310   43.2480 C   0  0  0  0  0  0  0  0  0  0  0  0
   37.0340   27.6410   43.5460 C   0  0  0  0  0  0  0  0  0  0  0  0
   37.0080   26.5400   42.6830 C   0  0  0  0  0  0  0  0  0  0  0  0
   37.6690   26.7250   41.4780 C   0  0  0  0  0  0  0  0  0  0  0  0
   38.2820   27.8890   41.1850 N   0  0  0  0  0  0  0  0  0  0  0  0
   37.6550   29.6600   43.9480 H   0  0  0  0  0  0  0  0  0  0  0  0
   36.5460   27.6010   44.5130 H   0  0  0  0  0  0  0  0  0  0  0  0
   36.4970   25.6350   42.9820 H   0  0  0  0  0  0  0  0  0  0  0  0
   37.6770   25.8960   40.7710 H   0  0  0  0  0  0  0  0  0  0  0  0
   36.9600   30.8870   40.4570 C   0  0  0  0  0  0  0  0  0  0  0  0
   36.0060   31.1260   41.2310 O   0  0  0  0  0  0  0  0  0  0  0  0
   36.7170   30.3960   39.1080 C   0  0  0  0  0  0  0  0  0  0  0  0
   35.6660   29.4620   39.0670 C   0  0  0  0  0  0  0  0  0  0  0  0
   34.9010   28.9170   39.6870 H   0  0  0  0  0  0  0  0  0  0  0  0
   35.5500   28.9900   37.2750 S   0  0  0  0  0  0  0  0  0  0  0  0
   36.9860   30.1770   36.8970 C   0  0  0  0  0  0  0  0  0  0  0  0
   37.7280   30.6500   36.0230 H   0  0  0  0  0  0  0  0  0  0  0  0
   37.2160   30.5900   37.9120 N   0  0  0  0  0  0  0  0  0  0  0  0
  1  2  2  0  0  0  0
  1  6  1  0  0  0  0
  2  3  1  0  0  0  0
  3  9  1  0  0  0  0
  3  4  2  0  0  0  0
  5  4  1  0  0  0  0
  5  8  1  0  0  0  0
  6  5  2  0  0  0  0
  7  1  1  0  0  0  0
  9 10  1  0  0  0  0
 10 11  2  0  0  0  0
 10 15  1  0  0  0  0
 11 16  1  0  0  0  0
 12 17  1  0  0  0  0
 12 11  1  0  0  0  0
 13 12  2  0  0  0  0
 14 13  1  0  0  0  0
 14  9  2  0  0  0  0
 18 13  1  0  0  0  0
 19  2  1  0  0  0  0
 19 20  2  0  0  0  0
 21 19  1  0  0  0  0
 22 21  2  0  0  0  0
 22 23  1  0  0  0  0
 24 22  1  0  0  0  0
 25 24  1  0  0  0  0
 25 27  2  0  0  0  0
 26 25  1  0  0  0  0
 27 21  1  0  0  0  0
M  END
>  <minimizedAffinity>
-4.69445658

$$$$

 OpenBabel03252507173D

 27 29  0  0  0  0  0  0  0  0999 V2000
   37.2470   24.8120   41.7510 C   0  0  0  0  0  0  0  0  0  0  0  0
   37.3060   26.2280   41.7130 C   0  0  0  0  0  0  0  0  0  0  0  0
   36.8690   26.8500   40.5640 C   0  0  0  0  0  0  0  0  0  0  0  0
   36.4070   26.1270   39.5290 N   0  0  0  0  0  0  0  0  0  0  0  0
   36.3590   24.7520   39.5880 C   0  0  0  0  0  0  0  0  0  0  0  0
   36.7780   24.1380   40.6930 N   0  0  0  0  0  0  0  0  0  0  0  0
   37.5790   24.2710   42.6320 H   0  0  0  0  0  0  0  0  0  0  0  0
   35.9620   24.3270   38.6740 H   0  0  0  0  0  0  0  0  0  0  0  0
   36.9240   28.3110   40.5100 C   0  0  0  0  0  0  0  0  0  0  0  0
   35.8310   29.0570   40.8900 C   0  0  0  0  0  0  0  0  0  0  0  0
   35.9280   30.4300   40.8230 C   0  0  0  0  0  0  0  0  0  0  0  0
   37.0740   31.1060   40.3900 C   0  0  0  0  0  0  0  0  0  0  0  0
   38.1330   30.2900   40.0240 C   0  0  0  0  0  0  0  0  0  0  0  0
   38.0400   28.9470   40.0900 N   0  0  0  0  0  0  0  0  0  0  0  0
   34.9220   28.5740   41.2330 H   0  0  0  0  0  0  0  0  0  0  0  0
   35.0440   30.9750   41.1330 H   0  0  0  0  0  0  0  0  0  0  0  0
   37.0820   32.1880   40.3630 H   0  0  0  0  0  0  0  0  0  0  0  0
   39.0490   30.7690   39.6800 H   0  0  0  0  0  0  0  0  0  0  0  0
   37.8040   26.9380   42.8330 C   0  0  0  0  0  0  0  0  0  0  0  0
   37.0030   27.5420   43.5810 O   0  0  0  0  0  0  0  0  0  0  0  0
   39.2340   26.9600   43.1040 C   0  0  0  0  0  0  0  0  0  0  0  0
   39.7900   28.2380   42.9080 C   0  0  0  0  0  0  0  0  0  0  0  0
   39.5630   29.2990   42.6120 H   0  0  0  0  0  0  0  0  0  0  0  0
   41.5900   28.0140   43.3080 S   0  0  0  0  0  0  0  0  0  0  0  0
   41.2520   26.1800   43.6790 C   0  0  0  0  0  0  0  0  0  0  0  0
   41.7380   25.0940   44.0310 H   0  0  0  0  0  0  0  0  0  0  0  0
   40.1520   26.1050   43.4850 N   0  0  0  0  0  0  0  0  0  0  0  0
  1  7  1  0  0  0  0
  2  1  1  0  0  0  0
  2 19  1  0  0  0  0
  3  2  2  0  0  0  0
  4  5  2  0  0  0  0
  4  3  1  0  0  0  0
  5  6  1  0  0  0  0
  6  1  2  0  0  0  0
  8  5  1  0  0  0  0
  9  3  1  0  0  0  0
  9 10  1  0  0  0  0
 10 15  1  0  0  0  0
 11 10  2  0  0  0  0
 11 16  1  0  0  0  0
 12 11  1  0  0  0  0
 13 14  1  0  0  0  0
 13 12  2  0  0  0  0
 14  9  2  0  0  0  0
 17 12  1  0  0  0  0
 18 13  1  0  0  0  0
 19 21  1  0  0  0  0
 19 20  2  0  0  0  0
 21 27  1  0  0  0  0
 22 21  2  0  0  0  0
 22 24  1  0  0  0  0
 23 22  1  0  0  0  0
 24 25  1  0  0  0  0
 25 26  1  0  0  0  0
 27 25  2  0  0  0  0
M  END
>  <minimizedAffinity>
-4.66052866

$$$$

 OpenBabel03252507173D

 27 29  0  0  0  0  0  0  0  0999 V2000
   35.9690   28.8980   38.3920 C   0  0  0  0  0  0  0  0  0  0  0  0
   36.6230   29.9320   39.1070 C   0  0  0  0  0  0  0  0  0  0  0  0
   37.2910   30.8860   38.3700 C   0  0  0  0  0  0  0  0  0  0  0  0
   37.3110   30.8230   37.0280 N   0  0  0  0  0  0  0  0  0  0  0  0
   36.6670   29.8080   36.3540 C   0  0  0  0  0  0  0  0  0  0  0  0
   36.0180   28.8800   37.0540 N   0  0  0  0  0  0  0  0  0  0  0  0
   35.4280   28.1200   38.9230 H   0  0  0  0  0  0  0  0  0  0  0  0
   36.7820   29.9060   35.2820 H   0  0  0  0  0  0  0  0  0  0  0  0
   37.9720   31.9610   39.0930 C   0  0  0  0  0  0  0  0  0  0  0  0
   37.3340   33.1640   39.3020 C   0  0  0  0  0  0  0  0  0  0  0  0
   38.0130   34.1470   39.9880 C   0  0  0  0  0  0  0  0  0  0  0  0
   39.3130   33.9910   40.4840 C   0  0  0  0  0  0  0  0  0  0  0  0
   39.8900   32.7550   40.2350 C   0  0  0  0  0  0  0  0  0  0  0  0
   39.2270   31.7920   39.5650 N   0  0  0  0  0  0  0  0  0  0  0  0
   36.3260   33.3280   38.9360 H   0  0  0  0  0  0  0  0  0  0  0  0
   37.4720   35.0750   40.1290 H   0  0  0  0  0  0  0  0  0  0  0  0
   39.7880   34.8060   41.0140 H   0  0  0  0  0  0  0  0  0  0  0  0
   40.9020   32.5840   40.6020 H   0  0  0  0  0  0  0  0  0  0  0  0
   36.5710   29.9480   40.5220 C   0  0  0  0  0  0  0  0  0  0  0  0
   35.8030   30.7510   41.0980 O   0  0  0  0  0  0  0  0  0  0  0  0
   37.4050   29.0370   41.2920 C   0  0  0  0  0  0  0  0  0  0  0  0
   36.6390   28.1110   42.0250 C   0  0  0  0  0  0  0  0  0  0  0  0
   35.5920   27.7760   42.2650 H   0  0  0  0  0  0  0  0  0  0  0  0
   37.9040   27.0770   42.9080 S   0  0  0  0  0  0  0  0  0  0  0  0
   39.2770   28.1160   42.1030 C   0  0  0  0  0  0  0  0  0  0  0  0
   40.4990   28.2990   41.9910 H   0  0  0  0  0  0  0  0  0  0  0  0
   38.6860   28.8430   41.4900 N   0  0  0  0  0  0  0  0  0  0  0  0
  1  7  1  0  0  0  0
  1  2  1  0  0  0  0
  2 19  1  0  0  0  0
  3  9  1  0  0  0  0
  3  2  2  0  0  0  0
  4  3  1  0  0  0  0
  5  4  2  0  0  0  0
  5  6  1  0  0  0  0
  6  1  2  0  0  0  0
  8  5  1  0  0  0  0
  9 10  2  0  0  0  0
  9 14  1  0  0  0  0
 10 11  1  0  0  0  0
 11 16  1  0  0  0  0
 11 12  2  0  0  0  0
 12 17  1  0  0  0  0
 13 12  1  0  0  0  0
 13 18  1  0  0  0  0
 14 13  2  0  0  0  0
 15 10  1  0  0  0  0
 19 20  2  0  0  0  0
 19 21  1  0  0  0  0
 21 27  1  0  0  0  0
 21 22  2  0  0  0  0
 22 23  1  0  0  0  0
 22 24  1  0  0  0  0
 25 24  1  0  0  0  0
 26 25  1  0  0  0  0
 27 25  2  0  0  0  0
M  END
>  <minimizedAffinity>
-4.58605862

$$$$

 OpenBabel03252507173D

 27 29  0  0  0  0  0  0  0  0999 V2000
   37.7150   29.0730   42.8820 C   0  0  0  0  0  0  0  0  0  0  0  0
   37.2630   29.3550   41.5690 C   0  0  0  0  0  0  0  0  0  0  0  0
   36.8390   28.2900   40.8040 C   0  0  0  0  0  0  0  0  0  0  0  0
   36.8600   27.0410   41.2990 N   0  0  0  0  0  0  0  0  0  0  0  0
   37.3040   26.7910   42.5790 C   0  0  0  0  0  0  0  0  0  0  0  0
   37.7170   27.8110   43.3290 N   0  0  0  0  0  0  0  0  0  0  0  0
   38.0610   29.8750   43.5280 H   0  0  0  0  0  0  0  0  0  0  0  0
   37.2560   25.7360   42.8200 H   0  0  0  0  0  0  0  0  0  0  0  0
   36.3690   28.5630   39.4450 C   0  0  0  0  0  0  0  0  0  0  0  0
   35.0250   28.7470   39.2030 C   0  0  0  0  0  0  0  0  0  0  0  0
   34.6290   29.0020   37.9090 C   0  0  0  0  0  0  0  0  0  0  0  0
   35.5140   29.0850   36.8280 C   0  0  0  0  0  0  0  0  0  0  0  0
   36.8490   28.8900   37.1480 C   0  0  0  0  0  0  0  0  0  0  0  0
   37.2380   28.6400   38.4140 N   0  0  0  0  0  0  0  0  0  0  0  0
   34.3040   28.6910   40.0120 H   0  0  0  0  0  0  0  0  0  0  0  0
   33.5630   29.1400   37.7670 H   0  0  0  0  0  0  0  0  0  0  0  0
   35.1330   29.2890   35.8360 H   0  0  0  0  0  0  0  0  0  0  0  0
   37.5780   28.9450   36.3400 H   0  0  0  0  0  0  0  0  0  0  0  0
   37.2640   30.6900   41.0970 C   0  0  0  0  0  0  0  0  0  0  0  0
   36.1970   31.3420   41.1020 O   0  0  0  0  0  0  0  0  0  0  0  0
   38.4990   31.2910   40.6150 C   0  0  0  0  0  0  0  0  0  0  0  0
   38.4760   32.6940   40.7080 C   0  0  0  0  0  0  0  0  0  0  0  0
   37.8580   33.5810   41.0220 H   0  0  0  0  0  0  0  0  0  0  0  0
   40.1300   33.2190   40.0450 S   0  0  0  0  0  0  0  0  0  0  0  0
   40.5620   31.3910   39.7530 C   0  0  0  0  0  0  0  0  0  0  0  0
   41.4150   30.5870   39.3450 H   0  0  0  0  0  0  0  0  0  0  0  0
   39.6360   30.8750   40.1110 N   0  0  0  0  0  0  0  0  0  0  0  0
  1  6  1  0  0  0  0
  1  7  1  0  0  0  0
  2  1  2  0  0  0  0
  3  4  2  0  0  0  0
  3  2  1  0  0  0  0
  4  5  1  0  0  0  0
  5  8  1  0  0  0  0
  5  6  2  0  0  0  0
  9  3  1  0  0  0  0
 10  9  1  0  0  0  0
 10 15  1  0  0  0  0
 11 10  2  0  0  0  0
 12 13  2  0  0  0  0
 12 11  1  0  0  0  0
 13 14  1  0  0  0  0
 14  9  2  0  0  0  0
 16 11  1  0  0  0  0
 17 12  1  0  0  0  0
 18 13  1  0  0  0  0
 19 20  2  0  0  0  0
 19  2  1  0  0  0  0
 21 22  2  0  0  0  0
 21 19  1  0  0  0  0
 22 23  1  0  0  0  0
 24 22  1  0  0  0  0
 25 24  1  0  0  0  0
 25 27  2  0  0  0  0
 26 25  1  0  0  0  0
 27 21  1  0  0  0  0
M  END
>  <minimizedAffinity>
-4.55779314

$$$$

 OpenBabel03252507173D

 27 29  0  0  0  0  0  0  0  0999 V2000
   39.5600   27.7210   43.4180 C   0  0  0  0  0  0  0  0  0  0  0  0
   38.5530   27.1260   42.6170 C   0  0  0  0  0  0  0  0  0  0  0  0
   38.9130   26.0370   41.8530 C   0  0  0  0  0  0  0  0  0  0  0  0
   40.1740   25.5720   41.8770 N   0  0  0  0  0  0  0  0  0  0  0  0
   41.1360   26.1670   42.6640 C   0  0  0  0  0  0  0  0  0  0  0  0
   40.8020   27.2200   43.4070 N   0  0  0  0  0  0  0  0  0  0  0  0
   39.3310   28.5810   44.0390 H   0  0  0  0  0  0  0  0  0  0  0  0
   42.0930   25.6690   42.5670 H   0  0  0  0  0  0  0  0  0  0  0  0
   37.8850   25.4110   41.0210 C   0  0  0  0  0  0  0  0  0  0  0  0
   37.1300   24.3730   41.5210 C   0  0  0  0  0  0  0  0  0  0  0  0
   36.1740   23.8140   40.7020 C   0  0  0  0  0  0  0  0  0  0  0  0
   35.9270   24.2420   39.3930 C   0  0  0  0  0  0  0  0  0  0  0  0
   36.7250   25.2900   38.9590 C   0  0  0  0  0  0  0  0  0  0  0  0
   37.6610   25.8380   39.7590 N   0  0  0  0  0  0  0  0  0  0  0  0
   37.2880   24.0090   42.5310 H   0  0  0  0  0  0  0  0  0  0  0  0
   35.6050   23.0020   41.1380 H   0  0  0  0  0  0  0  0  0  0  0  0
   35.1590   23.7570   38.8050 H   0  0  0  0  0  0  0  0  0  0  0  0
   36.5710   25.6600   37.9460 H   0  0  0  0  0  0  0  0  0  0  0  0
   37.2410   27.6590   42.6290 C   0  0  0  0  0  0  0  0  0  0  0  0
   36.3740   27.1360   43.3630 O   0  0  0  0  0  0  0  0  0  0  0  0
   36.9140   28.8050   41.7930 C   0  0  0  0  0  0  0  0  0  0  0  0
   35.8900   28.5140   40.8740 C   0  0  0  0  0  0  0  0  0  0  0  0
   35.1880   27.7130   40.5080 H   0  0  0  0  0  0  0  0  0  0  0  0
   35.6560   30.1020   39.9390 S   0  0  0  0  0  0  0  0  0  0  0  0
   37.0260   30.8920   40.9920 C   0  0  0  0  0  0  0  0  0  0  0  0
   37.6880   31.9170   41.2200 H   0  0  0  0  0  0  0  0  0  0  0  0
   37.3190   30.0450   41.6630 N   0  0  0  0  0  0  0  0  0  0  0  0
  1  7  1  0  0  0  0
  2 19  1  0  0  0  0
  2  1  2  0  0  0  0
  3  4  2  0  0  0  0
  3  2  1  0  0  0  0
  4  5  1  0  0  0  0
  5  6  2  0  0  0  0
  6  1  1  0  0  0  0
  8  5  1  0  0  0  0
  9 10  1  0  0  0  0
  9  3  1  0  0  0  0
 10 15  1  0  0  0  0
 11 16  1  0  0  0  0
 11 10  2  0  0  0  0
 12 11  1  0  0  0  0
 13 12  2  0  0  0  0
 13 14  1  0  0  0  0
 14  9  2  0  0  0  0
 17 12  1  0  0  0  0
 18 13  1  0  0  0  0
 19 20  2  0  0  0  0
 21 19  1  0  0  0  0
 22 21  2  0  0  0  0
 23 22  1  0  0  0  0
 24 22  1  0  0  0  0
 24 25  1  0  0  0  0
 25 26  1  0  0  0  0
 25 27  2  0  0  0  0
 27 21  1  0  0  0  0
M  END
>  <minimizedAffinity>
-4.47262716

$$$$

 OpenBabel03252507173D

 27 29  0  0  0  0  0  0  0  0999 V2000
   36.7370   29.9300   37.8190 C   0  0  0  0  0  0  0  0  0  0  0  0
   37.2830   29.5230   39.0620 C   0  0  0  0  0  0  0  0  0  0  0  0
   36.4660   28.8030   39.9060 C   0  0  0  0  0  0  0  0  0  0  0  0
   35.2050   28.5070   39.5500 N   0  0  0  0  0  0  0  0  0  0  0  0
   34.6950   28.9130   38.3360 C   0  0  0  0  0  0  0  0  0  0  0  0
   35.4730   29.6100   37.5100 N   0  0  0  0  0  0  0  0  0  0  0  0
   37.3360   30.5000   37.1150 H   0  0  0  0  0  0  0  0  0  0  0  0
   33.6690   28.5920   38.2080 H   0  0  0  0  0  0  0  0  0  0  0  0
   37.0150   28.3760   41.1940 C   0  0  0  0  0  0  0  0  0  0  0  0
   37.3550   27.0560   41.3960 C   0  0  0  0  0  0  0  0  0  0  0  0
   37.8680   26.7000   42.6230 C   0  0  0  0  0  0  0  0  0  0  0  0
   38.0640   27.6030   43.6750 C   0  0  0  0  0  0  0  0  0  0  0  0
   37.6990   28.9110   43.3980 C   0  0  0  0  0  0  0  0  0  0  0  0
   37.1970   29.2620   42.1980 N   0  0  0  0  0  0  0  0  0  0  0  0
   37.2210   26.3230   40.6080 H   0  0  0  0  0  0  0  0  0  0  0  0
   38.1220   25.6520   42.7350 H   0  0  0  0  0  0  0  0  0  0  0  0
   38.4720   27.2530   44.6140 H   0  0  0  0  0  0  0  0  0  0  0  0
   37.8320   29.6530   44.1860 H   0  0  0  0  0  0  0  0  0  0  0  0
   38.6180   29.8650   39.3860 C   0  0  0  0  0  0  0  0  0  0  0  0
   39.5020   28.9800   39.3540 O   0  0  0  0  0  0  0  0  0  0  0  0
   38.9520   31.2340   39.7510 C   0  0  0  0  0  0  0  0  0  0  0  0
   40.0180   31.7400   38.9860 C   0  0  0  0  0  0  0  0  0  0  0  0
   40.7520   31.5010   38.1670 H   0  0  0  0  0  0  0  0  0  0  0  0
   40.2530   33.4690   39.6260 S   0  0  0  0  0  0  0  0  0  0  0  0
   38.8240   33.1820   40.8460 C   0  0  0  0  0  0  0  0  0  0  0  0
   38.1290   33.6700   41.7520 H   0  0  0  0  0  0  0  0  0  0  0  0
   38.5240   32.1310   40.6070 N   0  0  0  0  0  0  0  0  0  0  0  0
  1  2  1  0  0  0  0
  2 19  1  0  0  0  0
  2  3  2  0  0  0  0
  3  9  1  0  0  0  0
  4  3  1  0  0  0  0
  5  4  2  0  0  0  0
  6  1  2  0  0  0  0
  6  5  1  0  0  0  0
  7  1  1  0  0  0  0
  8  5  1  0  0  0  0
  9 10  2  0  0  0  0
  9 14  1  0  0  0  0
 10 11  1  0  0  0  0
 11 16  1  0  0  0  0
 11 12  2  0  0  0  0
 12 17  1  0  0  0  0
 13 12  1  0  0  0  0
 13 18  1  0  0  0  0
 14 13  2  0  0  0  0
 15 10  1  0  0  0  0
 19 21  1  0  0  0  0
 20 19  2  0  0  0  0
 21 27  1  0  0  0  0
 22 24  1  0  0  0  0
 22 21  2  0  0  0  0
 23 22  1  0  0  0  0
 24 25  1  0  0  0  0
 25 26  1  0  0  0  0
 27 25  2  0  0  0  0
M  END
>  <minimizedAffinity>
-4.43548536

$$$$

 OpenBabel03252507173D

 27 29  0  0  0  0  0  0  0  0999 V2000
   35.4050   28.7170   39.5240 C   0  0  0  0  0  0  0  0  0  0  0  0
   36.2800   27.9450   40.3280 C   0  0  0  0  0  0  0  0  0  0  0  0
   36.6680   26.7160   39.8400 C   0  0  0  0  0  0  0  0  0  0  0  0
   36.2240   26.2820   38.6480 N   0  0  0  0  0  0  0  0  0  0  0  0
   35.3740   27.0510   37.8830 C   0  0  0  0  0  0  0  0  0  0  0  0
   34.9910   28.2410   38.3430 N   0  0  0  0  0  0  0  0  0  0  0  0
   35.0670   29.6930   39.8600 H   0  0  0  0  0  0  0  0  0  0  0  0
   35.1150   26.5560   36.9560 H   0  0  0  0  0  0  0  0  0  0  0  0
   37.5710   25.9060   40.6580 C   0  0  0  0  0  0  0  0  0  0  0  0
   37.0680   24.8910   41.4430 C   0  0  0  0  0  0  0  0  0  0  0  0
   37.9550   24.1540   42.1960 C   0  0  0  0  0  0  0  0  0  0  0  0
   39.3370   24.3780   42.2080 C   0  0  0  0  0  0  0  0  0  0  0  0
   39.7690   25.4150   41.3950 C   0  0  0  0  0  0  0  0  0  0  0  0
   38.9020   26.1370   40.6570 N   0  0  0  0  0  0  0  0  0  0  0  0
   36.0040   24.6820   41.4630 H   0  0  0  0  0  0  0  0  0  0  0  0
   37.5140   23.3670   42.7960 H   0  0  0  0  0  0  0  0  0  0  0  0
   39.9760   23.7600   42.8240 H   0  0  0  0  0  0  0  0  0  0  0  0
   40.8360   25.6290   41.3690 H   0  0  0  0  0  0  0  0  0  0  0  0
   36.7140   28.4500   41.5780 C   0  0  0  0  0  0  0  0  0  0  0  0
   36.2300   27.9780   42.6300 O   0  0  0  0  0  0  0  0  0  0  0  0
   37.7140   29.5070   41.6280 C   0  0  0  0  0  0  0  0  0  0  0  0
   38.6870   29.2670   42.6150 C   0  0  0  0  0  0  0  0  0  0  0  0
   39.0200   28.5520   43.4180 H   0  0  0  0  0  0  0  0  0  0  0  0
   39.8290   30.7260   42.4880 S   0  0  0  0  0  0  0  0  0  0  0  0
   38.7500   31.4140   41.0830 C   0  0  0  0  0  0  0  0  0  0  0  0
   38.5850   32.3340   40.2670 H   0  0  0  0  0  0  0  0  0  0  0  0
   37.9550   30.6310   40.9990 N   0  0  0  0  0  0  0  0  0  0  0  0
  1  7  1  0  0  0  0
  1  2  1  0  0  0  0
  2 19  1  0  0  0  0
  3  2  2  0  0  0  0
  3  9  1  0  0  0  0
  4  3  1  0  0  0  0
  5  6  1  0  0  0  0
  5  4  2  0  0  0  0
  6  1  2  0  0  0  0
  8  5  1  0  0  0  0
  9 10  1  0  0  0  0
 10 15  1  0  0  0  0
 10 11  2  0  0  0  0
 11 12  1  0  0  0  0
 11 16  1  0  0  0  0
 12 17  1  0  0  0  0
 13 12  2  0  0  0  0
 14  9  2  0  0  0  0
 14 13  1  0  0  0  0
 18 13  1  0  0  0  0
 19 21  1  0  0  0  0
 19 20  2  0  0  0  0
 21 22  2  0  0  0  0
 22 23  1  0  0  0  0
 24 22  1  0  0  0  0
 25 24  1  0  0  0  0
 26 25  1  0  0  0  0
 27 25  2  0  0  0  0
 27 21  1  0  0  0  0
M  END
>  <minimizedAffinity>
-4.37985373

$$$$

 OpenBabel03252507173D

 27 29  0  0  0  0  0  0  0  0999 V2000
   35.5550   27.4760   37.8280 C   0  0  0  0  0  0  0  0  0  0  0  0
   35.9940   27.8890   39.1110 C   0  0  0  0  0  0  0  0  0  0  0  0
   36.8360   27.0390   39.7950 C   0  0  0  0  0  0  0  0  0  0  0  0
   37.2140   25.8690   39.2540 N   0  0  0  0  0  0  0  0  0  0  0  0
   36.7750   25.4890   38.0050 C   0  0  0  0  0  0  0  0  0  0  0  0
   35.9610   26.3000   37.3320 N   0  0  0  0  0  0  0  0  0  0  0  0
   34.8910   28.1080   37.2450 H   0  0  0  0  0  0  0  0  0  0  0  0
   37.1730   24.5230   37.7190 H   0  0  0  0  0  0  0  0  0  0  0  0
   37.2980   27.4510   41.1210 C   0  0  0  0  0  0  0  0  0  0  0  0
   38.5040   28.1020   41.2600 C   0  0  0  0  0  0  0  0  0  0  0  0
   38.8990   28.4710   42.5270 C   0  0  0  0  0  0  0  0  0  0  0  0
   38.1440   28.2210   43.6790 C   0  0  0  0  0  0  0  0  0  0  0  0
   36.9440   27.5630   43.4610 C   0  0  0  0  0  0  0  0  0  0  0  0
   36.5560   27.2020   42.2220 N   0  0  0  0  0  0  0  0  0  0  0  0
   39.1220   28.3160   40.3940 H   0  0  0  0  0  0  0  0  0  0  0  0
   39.8540   28.9810   42.5870 H   0  0  0  0  0  0  0  0  0  0  0  0
   38.5160   28.5400   44.6450 H   0  0  0  0  0  0  0  0  0  0  0  0
   36.3190   27.3460   44.3270 H   0  0  0  0  0  0  0  0  0  0  0  0
   35.5620   29.1320   39.6340 C   0  0  0  0  0  0  0  0  0  0  0  0
   34.5320   29.1730   40.3440 O   0  0  0  0  0  0  0  0  0  0  0  0
   36.3140   30.3450   39.3460 C   0  0  0  0  0  0  0  0  0  0  0  0
   36.4540   31.1630   40.4820 C   0  0  0  0  0  0  0  0  0  0  0  0
   36.2070   31.2600   41.5750 H   0  0  0  0  0  0  0  0  0  0  0  0
   37.4290   32.6200   39.8720 S   0  0  0  0  0  0  0  0  0  0  0  0
   37.4710   31.8350   38.1420 C   0  0  0  0  0  0  0  0  0  0  0  0
   37.8570   31.9490   36.9680 H   0  0  0  0  0  0  0  0  0  0  0  0
   36.9000   30.8860   38.3060 N   0  0  0  0  0  0  0  0  0  0  0  0
  1  2  1  0  0  0  0
  2 19  1  0  0  0  0
  2  3  2  0  0  0  0
  3  9  1  0  0  0  0
  4  3  1  0  0  0  0
  5  4  2  0  0  0  0
  6  1  2  0  0  0  0
  6  5  1  0  0  0  0
  7  1  1  0  0  0  0
  8  5  1  0  0  0  0
  9 10  2  0  0  0  0
  9 14  1  0  0  0  0
 10 11  1  0  0  0  0
 11 16  1  0  0  0  0
 11 12  2  0  0  0  0
 12 17  1  0  0  0  0
 13 12  1  0  0  0  0
 13 18  1  0  0  0  0
 14 13  2  0  0  0  0
 15 10  1  0  0  0  0
 19 20  2  0  0  0  0
 21 19  1  0  0  0  0
 21 22  2  0  0  0  0
 22 23  1  0  0  0  0
 24 22  1  0  0  0  0
 25 27  2  0  0  0  0
 25 24  1  0  0  0  0
 26 25  1  0  0  0  0
 27 21  1  0  0  0  0
M  END
>  <minimizedAffinity>
-4.35849905

$$$$

 OpenBabel03252507173D

 27 29  0  0  0  0  0  0  0  0999 V2000
   35.8810   26.4640   38.2770 C   0  0  0  0  0  0  0  0  0  0  0  0
   36.4460   27.6840   38.7260 C   0  0  0  0  0  0  0  0  0  0  0  0
   35.7610   28.8440   38.4370 C   0  0  0  0  0  0  0  0  0  0  0  0
   34.6030   28.8020   37.7550 N   0  0  0  0  0  0  0  0  0  0  0  0
   34.0720   27.6050   37.3280 C   0  0  0  0  0  0  0  0  0  0  0  0
   34.7250   26.4760   37.6010 N   0  0  0  0  0  0  0  0  0  0  0  0
   36.3790   25.5210   38.4780 H   0  0  0  0  0  0  0  0  0  0  0  0
   33.1400   27.7490   36.7970 H   0  0  0  0  0  0  0  0  0  0  0  0
   36.3310   30.1110   38.8940 C   0  0  0  0  0  0  0  0  0  0  0  0
   37.0480   30.9000   38.0210 C   0  0  0  0  0  0  0  0  0  0  0  0
   37.5660   32.0850   38.4940 C   0  0  0  0  0  0  0  0  0  0  0  0
   37.4050   32.5320   39.8110 C   0  0  0  0  0  0  0  0  0  0  0  0
   36.6730   31.6870   40.6310 C   0  0  0  0  0  0  0  0  0  0  0  0
   36.1650   30.5270   40.1690 N   0  0  0  0  0  0  0  0  0  0  0  0
   37.1970   30.5930   36.9910 H   0  0  0  0  0  0  0  0  0  0  0  0
   38.1220   32.6720   37.7720 H   0  0  0  0  0  0  0  0  0  0  0  0
   37.8400   33.4750   40.1160 H   0  0  0  0  0  0  0  0  0  0  0  0
   36.5190   31.9900   41.6660 H   0  0  0  0  0  0  0  0  0  0  0  0
   37.6700   27.6690   39.4390 C   0  0  0  0  0  0  0  0  0  0  0  0
   38.7460   27.7820   38.8110 O   0  0  0  0  0  0  0  0  0  0  0  0
   37.6670   27.5250   40.8880 C   0  0  0  0  0  0  0  0  0  0  0  0
   38.9530   27.6790   41.4370 C   0  0  0  0  0  0  0  0  0  0  0  0
   40.0330   27.8780   41.1950 H   0  0  0  0  0  0  0  0  0  0  0  0
   38.6940   27.4550   43.2630 S   0  0  0  0  0  0  0  0  0  0  0  0
   36.8400   27.1870   42.9400 C   0  0  0  0  0  0  0  0  0  0  0  0
   35.7300   26.9570   43.4440 H   0  0  0  0  0  0  0  0  0  0  0  0
   36.7830   27.2890   41.8270 N   0  0  0  0  0  0  0  0  0  0  0  0
  1  7  1  0  0  0  0
  1  2  1  0  0  0  0
  2 19  1  0  0  0  0
  3  2  2  0  0  0  0
  3  9  1  0  0  0  0
  4  3  1  0  0  0  0
  5  6  1  0  0  0  0
  5  4  2  0  0  0  0
  6  1  2  0  0  0  0
  8  5  1  0  0  0  0
  9 14  1  0  0  0  0
 10 11  1  0  0  0  0
 10  9  2  0  0  0  0
 11 12  2  0  0  0  0
 12 17  1  0  0  0  0
 12 13  1  0  0  0  0
 13 18  1  0  0  0  0
 14 13  2  0  0  0  0
 15 10  1  0  0  0  0
 16 11  1  0  0  0  0
 19 21  1  0  0  0  0
 20 19  2  0  0  0  0
 21 22  2  0  0  0  0
 21 27  1  0  0  0  0
 22 24  1  0  0  0  0
 23 22  1  0  0  0  0
 25 24  1  0  0  0  0
 25 26  1  0  0  0  0
 27 25  2  0  0  0  0
M  END
>  <minimizedAffinity>
-4.29218531

$$$$
