
 OpenBabel03252503343D

 20 21  0  0  0  0  0  0  0  0999 V2000
   47.4270   33.2030   41.4550 C   0  0  0  0  0  0  0  0  0  0  0  0
   46.2720   32.7060   41.4250 O   0  0  0  0  0  0  0  0  0  0  0  0
   47.6390   34.1750   42.4630 N   0  0  0  0  0  0  0  0  0  0  0  0
   48.6300   34.5580   42.4590 H   0  0  0  0  0  0  0  0  0  0  0  0
   44.7610   35.9710   43.9730 C   0  0  0  0  0  0  0  0  0  0  0  0
   45.7680   35.6460   43.0540 C   0  0  0  0  0  0  0  0  0  0  0  0
   46.6080   34.5530   43.3460 C   0  0  0  0  0  0  0  0  0  0  0  0
   46.4100   33.8560   44.5030 N   0  0  0  0  0  0  0  0  0  0  0  0
   45.4200   34.2140   45.3550 C   0  0  0  0  0  0  0  0  0  0  0  0
   44.6030   35.2490   45.1090 N   0  0  0  0  0  0  0  0  0  0  0  0
   44.1270   36.8090   43.7360 H   0  0  0  0  0  0  0  0  0  0  0  0
   45.8970   36.2140   42.1550 H   0  0  0  0  0  0  0  0  0  0  0  0
   45.2880   33.6430   46.2640 H   0  0  0  0  0  0  0  0  0  0  0  0
   48.3360   32.6850   40.4440 C   0  0  0  0  0  0  0  0  0  0  0  0
   48.0510   32.7430   39.1130 C   0  0  0  0  0  0  0  0  0  0  0  0
   47.2180   33.1230   38.5170 H   0  0  0  0  0  0  0  0  0  0  0  0
   49.5110   31.9700   38.3960 S   0  0  0  0  0  0  0  0  0  0  0  0
   50.2740   31.6960   40.1160 C   0  0  0  0  0  0  0  0  0  0  0  0
   51.3320   31.1450   39.7550 H   0  0  0  0  0  0  0  0  0  0  0  0
   49.4760   32.1360   40.7650 N   0  0  0  0  0  0  0  0  0  0  0  0
  1  3  1  0  0  0  0
  2  1  2  0  0  0  0
  3  7  1  0  0  0  0
  4  3  1  0  0  0  0
  5 10  1  0  0  0  0
  6  7  1  0  0  0  0
  6  5  2  0  0  0  0
  7  8  2  0  0  0  0
  8  9  1  0  0  0  0
  9 13  1  0  0  0  0
 10  9  2  0  0  0  0
 11  5  1  0  0  0  0
 12  6  1  0  0  0  0
 14 20  1  0  0  0  0
 14  1  1  0  0  0  0
 15 14  2  0  0  0  0
 16 15  1  0  0  0  0
 17 15  1  0  0  0  0
 17 18  1  0  0  0  0
 18 20  2  0  0  0  0
 19 18  1  0  0  0  0
M  END
>  <minimizedAffinity>
-3.56631279

>  <minimizedRMSD>
1.73778141

$$$$
