
 OpenBabel03252503343D

 20 21  0  0  0  0  0  0  0  0999 V2000
   49.3060   32.2940   40.2370 C   0  0  0  0  0  0  0  0  0  0  0  0
   48.3190   31.5470   40.4640 O   0  0  0  0  0  0  0  0  0  0  0  0
   49.3040   33.5240   40.9400 N   0  0  0  0  0  0  0  0  0  0  0  0
   50.1600   34.1170   40.7280 H   0  0  0  0  0  0  0  0  0  0  0  0
   46.1950   35.0250   42.3050 C   0  0  0  0  0  0  0  0  0  0  0  0
   47.2110   34.7200   41.3910 C   0  0  0  0  0  0  0  0  0  0  0  0
   48.2530   33.8690   41.8120 C   0  0  0  0  0  0  0  0  0  0  0  0
   48.2320   33.3770   43.0850 N   0  0  0  0  0  0  0  0  0  0  0  0
   47.2220   33.7040   43.9270 C   0  0  0  0  0  0  0  0  0  0  0  0
   46.2160   34.5110   43.5600 N   0  0  0  0  0  0  0  0  0  0  0  0
   45.4060   35.6770   41.9690 H   0  0  0  0  0  0  0  0  0  0  0  0
   47.1980   35.1240   40.3980 H   0  0  0  0  0  0  0  0  0  0  0  0
   47.2330   33.2990   44.9300 H   0  0  0  0  0  0  0  0  0  0  0  0
   50.2700   31.7550   39.2910 C   0  0  0  0  0  0  0  0  0  0  0  0
   51.4600   31.2220   39.6910 C   0  0  0  0  0  0  0  0  0  0  0  0
   51.9520   31.0700   40.6540 H   0  0  0  0  0  0  0  0  0  0  0  0
   52.1890   30.7420   38.1160 S   0  0  0  0  0  0  0  0  0  0  0  0
   50.6750   31.3830   37.1610 C   0  0  0  0  0  0  0  0  0  0  0  0
   51.0590   31.1010   36.0090 H   0  0  0  0  0  0  0  0  0  0  0  0
   50.0420   31.7550   38.0060 N   0  0  0  0  0  0  0  0  0  0  0  0
  1  2  2  0  0  0  0
  1  3  1  0  0  0  0
  3  7  1  0  0  0  0
  4  3  1  0  0  0  0
  5 10  1  0  0  0  0
  6  7  1  0  0  0  0
  6  5  2  0  0  0  0
  7  8  2  0  0  0  0
  8  9  1  0  0  0  0
  9 13  1  0  0  0  0
 10  9  2  0  0  0  0
 11  5  1  0  0  0  0
 12  6  1  0  0  0  0
 14 15  2  0  0  0  0
 14  1  1  0  0  0  0
 15 16  1  0  0  0  0
 17 15  1  0  0  0  0
 18 20  2  0  0  0  0
 18 17  1  0  0  0  0
 19 18  1  0  0  0  0
 20 14  1  0  0  0  0
M  END
>  <minimizedAffinity>
-3.20463061

>  <minimizedRMSD>
3.57529449

$$$$
