
 OpenBabel03252503343D

 20 21  0  0  0  0  0  0  0  0999 V2000
   46.3300   33.9740   40.8420 C   0  0  0  0  0  0  0  0  0  0  0  0
   45.2560   33.3640   41.0810 O   0  0  0  0  0  0  0  0  0  0  0  0
   46.8070   34.7910   41.8960 N   0  0  0  0  0  0  0  0  0  0  0  0
   47.7200   35.2770   41.6550 H   0  0  0  0  0  0  0  0  0  0  0  0
   44.5210   36.0210   44.5500 C   0  0  0  0  0  0  0  0  0  0  0  0
   45.1910   35.9620   43.3210 C   0  0  0  0  0  0  0  0  0  0  0  0
   46.1020   34.9070   43.1100 C   0  0  0  0  0  0  0  0  0  0  0  0
   46.2950   33.9900   44.1020 N   0  0  0  0  0  0  0  0  0  0  0  0
   45.6180   34.0970   45.2720 C   0  0  0  0  0  0  0  0  0  0  0  0
   44.7450   35.0870   45.5070 N   0  0  0  0  0  0  0  0  0  0  0  0
   43.8270   36.8330   44.6970 H   0  0  0  0  0  0  0  0  0  0  0  0
   45.0160   36.6980   42.5620 H   0  0  0  0  0  0  0  0  0  0  0  0
   45.7930   33.3550   46.0400 H   0  0  0  0  0  0  0  0  0  0  0  0
   46.8860   33.7270   39.5210 C   0  0  0  0  0  0  0  0  0  0  0  0
   46.3370   32.8240   38.6580 C   0  0  0  0  0  0  0  0  0  0  0  0
   45.4820   32.1480   38.6910 H   0  0  0  0  0  0  0  0  0  0  0  0
   47.4360   32.9660   37.2380 S   0  0  0  0  0  0  0  0  0  0  0  0
   48.4860   34.2850   38.1180 C   0  0  0  0  0  0  0  0  0  0  0  0
   49.3190   34.4820   37.2110 H   0  0  0  0  0  0  0  0  0  0  0  0
   47.9440   34.3610   39.0930 N   0  0  0  0  0  0  0  0  0  0  0  0
  1  2  2  0  0  0  0
  1  3  1  0  0  0  0
  3  7  1  0  0  0  0
  4  3  1  0  0  0  0
  5 11  1  0  0  0  0
  5 10  1  0  0  0  0
  6  5  2  0  0  0  0
  7  6  1  0  0  0  0
  7  8  2  0  0  0  0
  8  9  1  0  0  0  0
  9 10  2  0  0  0  0
  9 13  1  0  0  0  0
 12  6  1  0  0  0  0
 14  1  1  0  0  0  0
 15 16  1  0  0  0  0
 15 14  2  0  0  0  0
 17 18  1  0  0  0  0
 17 15  1  0  0  0  0
 18 20  2  0  0  0  0
 19 18  1  0  0  0  0
 20 14  1  0  0  0  0
M  END
>  <minimizedAffinity>
-4.03760386

>  <minimizedRMSD>
0.248754486

$$$$
