
 OpenBabel03252503333D

 39 41  0  0  1  0  0  0  0  0999 V2000
   40.0240   28.3230   42.0120 C   0  0  0  0  0  0  0  0  0  0  0  0
   38.7200   27.7760   41.8190 C   0  0  0  0  0  0  0  0  0  0  0  0
   38.3620   26.7200   42.6790 C   0  0  0  0  0  0  0  0  0  0  0  0
   39.2580   26.3150   43.5970 N   0  0  0  0  0  0  0  0  0  0  0  0
   40.4830   26.8690   43.7370 C   0  0  0  0  0  0  0  0  0  0  0  0
   40.8600   27.8840   42.9310 N   0  0  0  0  0  0  0  0  0  0  0  0
   39.8600   30.6160   41.5470 C   0  0  0  0  0  0  0  0  0  0  0  0
   39.0040   30.6180   42.4940 O   0  0  0  0  0  0  0  0  0  0  0  0
   40.4710   29.4010   41.1800 N   0  0  0  0  0  0  0  0  0  0  0  0
   40.1400   31.8610   40.9260 N   0  0  0  0  0  0  0  0  0  0  0  0
   39.2280   33.0010   41.1410 C   0  0  0  0  0  0  0  0  0  0  0  0
   39.3550   33.7600   39.8570 C   0  0  0  0  0  0  0  0  0  0  0  0
   40.3960   33.0400   39.0500 C   0  0  0  0  0  0  0  0  0  0  0  0
   41.2120   32.2940   40.0790 C   0  0  1  0  0  0  0  0  0  0  0  0
   38.0830   28.1880   41.0410 H   0  0  0  0  0  0  0  0  0  0  0  0
   41.1550   26.4940   44.4960 H   0  0  0  0  0  0  0  0  0  0  0  0
   41.1340   29.4110   40.4020 H   0  0  0  0  0  0  0  0  0  0  0  0
   39.6240   33.6100   41.9700 H   0  0  0  0  0  0  0  0  0  0  0  0
   38.1950   32.6540   41.2770 H   0  0  0  0  0  0  0  0  0  0  0  0
   39.7300   34.7920   40.0470 H   0  0  0  0  0  0  0  0  0  0  0  0
   38.3820   33.8370   39.3350 H   0  0  0  0  0  0  0  0  0  0  0  0
   39.7780   32.1710   38.6290 H   0  0  0  0  0  0  0  0  0  0  0  0
   40.7980   33.4700   38.1940 H   0  0  0  0  0  0  0  0  0  0  0  0
   41.7430   31.5400   39.4860 H   0  0  0  0  0  0  0  0  0  0  0  0
   43.2730   32.6270   41.5850 C   0  0  0  0  0  0  0  0  0  0  0  0
   43.5010   31.4370   41.2650 O   0  0  0  0  0  0  0  0  0  0  0  0
   42.1310   33.1230   40.8460 N   0  0  0  0  0  0  0  0  0  0  0  0
   41.9380   34.1730   40.8580 H   0  0  0  0  0  0  0  0  0  0  0  0
   43.9930   33.4420   42.5350 C   0  0  0  0  0  0  0  0  0  0  0  0
   43.9430   34.8360   42.5200 C   0  0  0  0  0  0  0  0  0  0  0  0
   43.3330   35.4580   41.7600 H   0  0  0  0  0  0  0  0  0  0  0  0
   45.0500   35.2860   43.9540 S   0  0  0  0  0  0  0  0  0  0  0  0
   45.3650   33.4450   44.2940 C   0  0  0  0  0  0  0  0  0  0  0  0
   46.0260   32.9940   45.1260 H   0  0  0  0  0  0  0  0  0  0  0  0
   44.7510   32.9420   43.4890 N   0  0  0  0  0  0  0  0  0  0  0  0
   37.0230   26.1790   42.4610 C   0  0  0  0  0  0  0  0  0  0  0  0
   36.5530   26.6450   41.2380 F   0  0  0  0  0  0  0  0  0  0  0  0
   36.1830   26.7760   43.4150 F   0  0  0  0  0  0  0  0  0  0  0  0
   36.9660   24.8190   42.4740 F   0  0  0  0  0  0  0  0  0  0  0  0
  1  6  1  0  0  0  0
  2  1  2  0  0  0  0
  2  3  1  0  0  0  0
  3  4  2  0  0  0  0
  4  5  1  0  0  0  0
  5 16  1  0  0  0  0
  6  5  2  0  0  0  0
  7  8  2  0  0  0  0
  9  7  1  0  0  0  0
  9  1  1  0  0  0  0
 10 11  1  0  0  0  0
 10  7  1  0  0  0  0
 11 19  1  0  0  0  0
 11 18  1  0  0  0  0
 12 20  1  0  0  0  0
 12 11  1  0  0  0  0
 13 12  1  0  0  0  0
 13 14  1  0  0  0  0
 14 24  1  6  0  0  0
 14 27  1  0  0  0  0
 14 10  1  0  0  0  0
 15  2  1  0  0  0  0
 17  9  1  0  0  0  0
 21 12  1  0  0  0  0
 22 13  1  0  0  0  0
 23 13  1  0  0  0  0
 25 29  1  0  0  0  0
 26 25  2  0  0  0  0
 27 28  1  0  0  0  0
 27 25  1  0  0  0  0
 29 35  1  0  0  0  0
 30 29  2  0  0  0  0
 30 32  1  0  0  0  0
 31 30  1  0  0  0  0
 32 33  1  0  0  0  0
 33 34  1  0  0  0  0
 35 33  2  0  0  0  0
 36 39  1  0  0  0  0
 36  3  1  0  0  0  0
 36 38  1  0  0  0  0
 37 36  1  0  0  0  0
M  END
>  <minimizedAffinity>
-5.84145927

$$$$

 OpenBabel03252503333D

 39 41  0  0  1  0  0  0  0  0999 V2000
   40.3150   30.6560   39.7150 C   0  0  0  0  0  0  0  0  0  0  0  0
   40.3890   31.9910   40.2130 C   0  0  0  0  0  0  0  0  0  0  0  0
   40.5640   33.0000   39.2460 C   0  0  0  0  0  0  0  0  0  0  0  0
   40.6450   32.6340   37.9530 N   0  0  0  0  0  0  0  0  0  0  0  0
   40.5690   31.3510   37.5360 C   0  0  0  0  0  0  0  0  0  0  0  0
   40.4010   30.3590   38.4340 N   0  0  0  0  0  0  0  0  0  0  0  0
   38.8150   29.5090   41.1070 C   0  0  0  0  0  0  0  0  0  0  0  0
   37.9790   30.3960   40.7250 O   0  0  0  0  0  0  0  0  0  0  0  0
   40.1390   29.5670   40.6310 N   0  0  0  0  0  0  0  0  0  0  0  0
   38.3360   28.5120   41.9950 N   0  0  0  0  0  0  0  0  0  0  0  0
   37.0520   28.7150   42.6930 C   0  0  0  0  0  0  0  0  0  0  0  0
   37.2640   27.9760   43.9770 C   0  0  0  0  0  0  0  0  0  0  0  0
   38.6170   27.3360   43.8700 C   0  0  0  0  0  0  0  0  0  0  0  0
   38.8630   27.2360   42.3820 C   0  0  1  0  0  0  0  0  0  0  0  0
   40.3100   32.1630   41.2830 H   0  0  0  0  0  0  0  0  0  0  0  0
   40.6430   31.1280   36.4810 H   0  0  0  0  0  0  0  0  0  0  0  0
   40.8020   28.8660   40.9670 H   0  0  0  0  0  0  0  0  0  0  0  0
   36.2580   28.2210   42.1100 H   0  0  0  0  0  0  0  0  0  0  0  0
   36.8820   29.7820   42.8920 H   0  0  0  0  0  0  0  0  0  0  0  0
   36.5130   27.1600   44.0890 H   0  0  0  0  0  0  0  0  0  0  0  0
   37.1740   28.6490   44.8510 H   0  0  0  0  0  0  0  0  0  0  0  0
   39.2970   28.2260   44.1160 H   0  0  0  0  0  0  0  0  0  0  0  0
   38.9240   26.6190   44.5560 H   0  0  0  0  0  0  0  0  0  0  0  0
   39.9460   27.0780   42.3130 H   0  0  0  0  0  0  0  0  0  0  0  0
   38.4880   24.7790   41.7110 C   0  0  0  0  0  0  0  0  0  0  0  0
   39.3790   24.5750   42.5670 O   0  0  0  0  0  0  0  0  0  0  0  0
   38.1180   26.1800   41.7120 N   0  0  0  0  0  0  0  0  0  0  0  0
   37.2370   26.4710   41.1840 H   0  0  0  0  0  0  0  0  0  0  0  0
   37.8750   23.8190   40.8230 C   0  0  0  0  0  0  0  0  0  0  0  0
   36.6160   24.0160   40.2550 C   0  0  0  0  0  0  0  0  0  0  0  0
   35.9580   24.9490   40.4370 H   0  0  0  0  0  0  0  0  0  0  0  0
   36.3950   22.4660   39.2390 S   0  0  0  0  0  0  0  0  0  0  0  0
   38.0990   21.8480   39.8050 C   0  0  0  0  0  0  0  0  0  0  0  0
   38.6130   20.8570   39.5090 H   0  0  0  0  0  0  0  0  0  0  0  0
   38.4480   22.6850   40.4780 N   0  0  0  0  0  0  0  0  0  0  0  0
   40.6350   34.3570   39.7810 C   0  0  0  0  0  0  0  0  0  0  0  0
   41.3630   35.1420   38.8940 F   0  0  0  0  0  0  0  0  0  0  0  0
   41.4300   34.2970   40.9370 F   0  0  0  0  0  0  0  0  0  0  0  0
   39.4200   34.9320   39.9960 F   0  0  0  0  0  0  0  0  0  0  0  0
  1  2  1  0  0  0  0
  1  9  1  0  0  0  0
  2 15  1  0  0  0  0
  3 36  1  0  0  0  0
  3  2  2  0  0  0  0
  4  3  1  0  0  0  0
  5  4  2  0  0  0  0
  5  6  1  0  0  0  0
  6  1  2  0  0  0  0
  7 10  1  0  0  0  0
  8  7  2  0  0  0  0
  9 17  1  0  0  0  0
  9  7  1  0  0  0  0
 10 14  1  0  0  0  0
 10 11  1  0  0  0  0
 11 19  1  0  0  0  0
 11 12  1  0  0  0  0
 12 20  1  0  0  0  0
 12 21  1  0  0  0  0
 13 12  1  0  0  0  0
 13 22  1  0  0  0  0
 13 23  1  0  0  0  0
 14 24  1  6  0  0  0
 14 13  1  0  0  0  0
 16  5  1  0  0  0  0
 18 11  1  0  0  0  0
 25 27  1  0  0  0  0
 25 26  2  0  0  0  0
 27 14  1  0  0  0  0
 28 27  1  0  0  0  0
 29 25  1  0  0  0  0
 30 31  1  0  0  0  0
 30 29  2  0  0  0  0
 32 33  1  0  0  0  0
 32 30  1  0  0  0  0
 33 35  2  0  0  0  0
 34 33  1  0  0  0  0
 35 29  1  0  0  0  0
 36 39  1  0  0  0  0
 36 38  1  0  0  0  0
 37 36  1  0  0  0  0
M  END
>  <minimizedAffinity>
-5.84004879

$$$$

 OpenBabel03252503333D

 39 41  0  0  1  0  0  0  0  0999 V2000
   38.6880   27.2780   39.5550 C   0  0  0  0  0  0  0  0  0  0  0  0
   37.7770   26.7120   40.4960 C   0  0  0  0  0  0  0  0  0  0  0  0
   38.1420   25.4610   41.0310 C   0  0  0  0  0  0  0  0  0  0  0  0
   39.2980   24.9080   40.6220 N   0  0  0  0  0  0  0  0  0  0  0  0
   40.1260   25.4890   39.7250 C   0  0  0  0  0  0  0  0  0  0  0  0
   39.8080   26.6870   39.1920 N   0  0  0  0  0  0  0  0  0  0  0  0
   38.6120   29.6010   39.8690 C   0  0  0  0  0  0  0  0  0  0  0  0
   38.9870   29.3250   41.0580 O   0  0  0  0  0  0  0  0  0  0  0  0
   38.3940   28.5480   38.9600 N   0  0  0  0  0  0  0  0  0  0  0  0
   38.4420   30.9720   39.5470 N   0  0  0  0  0  0  0  0  0  0  0  0
   38.3690   31.9690   40.6330 C   0  0  0  0  0  0  0  0  0  0  0  0
   37.4750   33.0170   40.0460 C   0  0  0  0  0  0  0  0  0  0  0  0
   37.1850   32.5760   38.6400 C   0  0  0  0  0  0  0  0  0  0  0  0
   38.3360   31.6600   38.2940 C   0  0  1  0  0  0  0  0  0  0  0  0
   36.8700   27.2550   40.7490 H   0  0  0  0  0  0  0  0  0  0  0  0
   41.0400   24.9870   39.4410 H   0  0  0  0  0  0  0  0  0  0  0  0
   38.0660   28.7840   38.0200 H   0  0  0  0  0  0  0  0  0  0  0  0
   39.3760   32.3890   40.7870 H   0  0  0  0  0  0  0  0  0  0  0  0
   37.9070   31.5360   41.5300 H   0  0  0  0  0  0  0  0  0  0  0  0
   38.0040   33.9970   39.9880 H   0  0  0  0  0  0  0  0  0  0  0  0
   36.5590   33.1540   40.6510 H   0  0  0  0  0  0  0  0  0  0  0  0
   36.3670   31.7940   38.8250 H   0  0  0  0  0  0  0  0  0  0  0  0
   36.7340   33.2200   37.9610 H   0  0  0  0  0  0  0  0  0  0  0  0
   37.9660   31.1030   37.4260 H   0  0  0  0  0  0  0  0  0  0  0  0
   40.8230   31.6790   37.6320 C   0  0  0  0  0  0  0  0  0  0  0  0
   40.5920   30.4800   37.3470 O   0  0  0  0  0  0  0  0  0  0  0  0
   39.5900   32.3400   38.0070 N   0  0  0  0  0  0  0  0  0  0  0  0
   39.5900   33.4050   38.0800 H   0  0  0  0  0  0  0  0  0  0  0  0
   42.0940   32.3640   37.6150 C   0  0  0  0  0  0  0  0  0  0  0  0
   43.3090   31.6940   37.4750 C   0  0  0  0  0  0  0  0  0  0  0  0
   43.4120   30.5480   37.3620 H   0  0  0  0  0  0  0  0  0  0  0  0
   44.5410   33.0950   37.5260 S   0  0  0  0  0  0  0  0  0  0  0  0
   43.1220   34.3400   37.7320 C   0  0  0  0  0  0  0  0  0  0  0  0
   43.2120   35.4870   37.8320 H   0  0  0  0  0  0  0  0  0  0  0  0
   42.2110   33.6710   37.7280 N   0  0  0  0  0  0  0  0  0  0  0  0
   37.1940   24.9040   41.9920 C   0  0  0  0  0  0  0  0  0  0  0  0
   37.8500   23.9450   42.7530 F   0  0  0  0  0  0  0  0  0  0  0  0
   36.2420   24.1830   41.2530 F   0  0  0  0  0  0  0  0  0  0  0  0
   36.6380   25.8300   42.8210 F   0  0  0  0  0  0  0  0  0  0  0  0
  1  2  1  0  0  0  0
  2 15  1  0  0  0  0
  2  3  2  0  0  0  0
  3 36  1  0  0  0  0
  4  3  1  0  0  0  0
  5  4  2  0  0  0  0
  6  1  2  0  0  0  0
  6  5  1  0  0  0  0
  7  8  2  0  0  0  0
  9  1  1  0  0  0  0
  9  7  1  0  0  0  0
 10  7  1  0  0  0  0
 10 11  1  0  0  0  0
 11 18  1  0  0  0  0
 11 19  1  0  0  0  0
 12 11  1  0  0  0  0
 12 21  1  0  0  0  0
 13 22  1  0  0  0  0
 13 12  1  0  0  0  0
 14 24  1  6  0  0  0
 14 13  1  0  0  0  0
 14 10  1  0  0  0  0
 16  5  1  0  0  0  0
 17  9  1  0  0  0  0
 20 12  1  0  0  0  0
 23 13  1  0  0  0  0
 25 27  1  0  0  0  0
 26 25  2  0  0  0  0
 27 28  1  0  0  0  0
 27 14  1  0  0  0  0
 29 25  1  0  0  0  0
 29 35  1  0  0  0  0
 30 32  1  0  0  0  0
 30 29  2  0  0  0  0
 31 30  1  0  0  0  0
 32 33  1  0  0  0  0
 33 34  1  0  0  0  0
 35 33  2  0  0  0  0
 36 37  1  0  0  0  0
 36 39  1  0  0  0  0
 38 36  1  0  0  0  0
M  END
>  <minimizedAffinity>
-5.77794409

$$$$

 OpenBabel03252503333D

 39 41  0  0  1  0  0  0  0  0999 V2000
   39.3660   27.3820   40.6070 C   0  0  0  0  0  0  0  0  0  0  0  0
   38.1980   26.5660   40.6590 C   0  0  0  0  0  0  0  0  0  0  0  0
   38.2970   25.3970   41.4380 C   0  0  0  0  0  0  0  0  0  0  0  0
   39.4630   25.1450   42.0610 N   0  0  0  0  0  0  0  0  0  0  0  0
   40.5420   25.9550   41.9770 C   0  0  0  0  0  0  0  0  0  0  0  0
   40.4830   27.0830   41.2390 N   0  0  0  0  0  0  0  0  0  0  0  0
   38.6220   29.6030   40.4860 C   0  0  0  0  0  0  0  0  0  0  0  0
   38.0570   29.3410   41.6010 O   0  0  0  0  0  0  0  0  0  0  0  0
   39.3530   28.5900   39.8360 N   0  0  0  0  0  0  0  0  0  0  0  0
   38.4710   30.9200   39.9790 N   0  0  0  0  0  0  0  0  0  0  0  0
   37.4320   31.8020   40.5450 C   0  0  0  0  0  0  0  0  0  0  0  0
   37.0650   32.6580   39.3740 C   0  0  0  0  0  0  0  0  0  0  0  0
   37.9870   32.2560   38.2600 C   0  0  0  0  0  0  0  0  0  0  0  0
   39.1760   31.6460   38.9650 C   0  0  1  0  0  0  0  0  0  0  0  0
   37.3110   26.8740   40.1120 H   0  0  0  0  0  0  0  0  0  0  0  0
   41.4490   25.6910   42.5030 H   0  0  0  0  0  0  0  0  0  0  0  0
   39.7760   28.8080   38.9300 H   0  0  0  0  0  0  0  0  0  0  0  0
   37.8950   32.4250   41.3270 H   0  0  0  0  0  0  0  0  0  0  0  0
   36.5620   31.2170   40.8760 H   0  0  0  0  0  0  0  0  0  0  0  0
   37.2560   33.7330   39.5980 H   0  0  0  0  0  0  0  0  0  0  0  0
   35.9960   32.5460   39.1090 H   0  0  0  0  0  0  0  0  0  0  0  0
   37.4740   31.3000   37.8900 H   0  0  0  0  0  0  0  0  0  0  0  0
   38.0570   32.8260   37.3940 H   0  0  0  0  0  0  0  0  0  0  0  0
   39.6790   31.0780   38.1730 H   0  0  0  0  0  0  0  0  0  0  0  0
   41.4340   32.3290   39.9950 C   0  0  0  0  0  0  0  0  0  0  0  0
   41.8080   31.2390   39.5020 O   0  0  0  0  0  0  0  0  0  0  0  0
   40.0710   32.6080   39.5910 N   0  0  0  0  0  0  0  0  0  0  0  0
   39.6840   33.5880   39.7620 H   0  0  0  0  0  0  0  0  0  0  0  0
   42.1880   33.2230   40.8420 C   0  0  0  0  0  0  0  0  0  0  0  0
   42.0450   34.6100   40.7880 C   0  0  0  0  0  0  0  0  0  0  0  0
   41.3250   35.1640   40.0730 H   0  0  0  0  0  0  0  0  0  0  0  0
   43.2550   35.1820   42.0890 S   0  0  0  0  0  0  0  0  0  0  0  0
   43.7210   33.3770   42.4540 C   0  0  0  0  0  0  0  0  0  0  0  0
   44.4890   33.0000   43.2300 H   0  0  0  0  0  0  0  0  0  0  0  0
   43.0660   32.8080   41.7310 N   0  0  0  0  0  0  0  0  0  0  0  0
   37.0870   24.5800   41.4760 C   0  0  0  0  0  0  0  0  0  0  0  0
   36.4380   24.8100   42.6840 F   0  0  0  0  0  0  0  0  0  0  0  0
   37.5030   23.2400   41.5450 F   0  0  0  0  0  0  0  0  0  0  0  0
   36.2250   24.8200   40.4510 F   0  0  0  0  0  0  0  0  0  0  0  0
  1  2  2  0  0  0  0
  1  6  1  0  0  0  0
  2  3  1  0  0  0  0
  3 36  1  0  0  0  0
  3  4  2  0  0  0  0
  5  4  1  0  0  0  0
  5 16  1  0  0  0  0
  6  5  2  0  0  0  0
  7  8  2  0  0  0  0
  9  7  1  0  0  0  0
  9  1  1  0  0  0  0
 10  7  1  0  0  0  0
 10 11  1  0  0  0  0
 11 19  1  0  0  0  0
 11 18  1  0  0  0  0
 12 20  1  0  0  0  0
 12 11  1  0  0  0  0
 13 14  1  0  0  0  0
 13 12  1  0  0  0  0
 14 24  1  6  0  0  0
 14 27  1  0  0  0  0
 14 10  1  0  0  0  0
 15  2  1  0  0  0  0
 17  9  1  0  0  0  0
 21 12  1  0  0  0  0
 22 13  1  0  0  0  0
 23 13  1  0  0  0  0
 25 29  1  0  0  0  0
 26 25  2  0  0  0  0
 27 28  1  0  0  0  0
 27 25  1  0  0  0  0
 29 35  1  0  0  0  0
 30 29  2  0  0  0  0
 30 32  1  0  0  0  0
 31 30  1  0  0  0  0
 32 33  1  0  0  0  0
 33 34  1  0  0  0  0
 35 33  2  0  0  0  0
 36 38  1  0  0  0  0
 36 37  1  0  0  0  0
 39 36  1  0  0  0  0
M  END
>  <minimizedAffinity>
-5.63163424

$$$$

 OpenBabel03252503333D

 39 41  0  0  1  0  0  0  0  0999 V2000
   38.7550   30.0190   39.3420 C   0  0  0  0  0  0  0  0  0  0  0  0
   38.9060   31.3050   39.9420 C   0  0  0  0  0  0  0  0  0  0  0  0
   38.2410   32.3670   39.2990 C   0  0  0  0  0  0  0  0  0  0  0  0
   37.5280   32.0930   38.1910 N   0  0  0  0  0  0  0  0  0  0  0  0
   37.4190   30.8540   37.6640 C   0  0  0  0  0  0  0  0  0  0  0  0
   38.0420   29.8120   38.2530 N   0  0  0  0  0  0  0  0  0  0  0  0
   38.7320   28.4630   41.0970 C   0  0  0  0  0  0  0  0  0  0  0  0
   37.7130   29.1210   41.4980 O   0  0  0  0  0  0  0  0  0  0  0  0
   39.4000   28.8820   39.9300 N   0  0  0  0  0  0  0  0  0  0  0  0
   39.1180   27.3380   41.8690 N   0  0  0  0  0  0  0  0  0  0  0  0
   38.5790   27.1720   43.2320 C   0  0  0  0  0  0  0  0  0  0  0  0
   39.6910   26.4560   43.9330 C   0  0  0  0  0  0  0  0  0  0  0  0
   40.7370   26.1920   42.8890 C   0  0  0  0  0  0  0  0  0  0  0  0
   39.9760   26.2250   41.5850 C   0  0  1  0  0  0  0  0  0  0  0  0
   39.5100   31.4030   40.8400 H   0  0  0  0  0  0  0  0  0  0  0  0
   36.8300   30.7050   36.7700 H   0  0  0  0  0  0  0  0  0  0  0  0
   40.2300   28.3620   39.6370 H   0  0  0  0  0  0  0  0  0  0  0  0
   37.6950   26.5160   43.1780 H   0  0  0  0  0  0  0  0  0  0  0  0
   38.4000   28.1490   43.7030 H   0  0  0  0  0  0  0  0  0  0  0  0
   39.3430   25.4700   44.3170 H   0  0  0  0  0  0  0  0  0  0  0  0
   40.0750   27.0440   44.7890 H   0  0  0  0  0  0  0  0  0  0  0  0
   41.2520   27.2150   42.8370 H   0  0  0  0  0  0  0  0  0  0  0  0
   41.5300   25.5480   43.0800 H   0  0  0  0  0  0  0  0  0  0  0  0
   40.7640   26.3550   40.8330 H   0  0  0  0  0  0  0  0  0  0  0  0
   39.3410   24.1580   40.1880 C   0  0  0  0  0  0  0  0  0  0  0  0
   40.4300   24.4040   39.6200 O   0  0  0  0  0  0  0  0  0  0  0  0
   39.1670   25.0440   41.3210 N   0  0  0  0  0  0  0  0  0  0  0  0
   38.3910   24.8250   42.0200 H   0  0  0  0  0  0  0  0  0  0  0  0
   38.3590   23.1620   39.8290 C   0  0  0  0  0  0  0  0  0  0  0  0
   37.2050   23.4690   39.1070 C   0  0  0  0  0  0  0  0  0  0  0  0
   36.9310   24.5290   38.7370 H   0  0  0  0  0  0  0  0  0  0  0  0
   36.3720   21.8050   38.9680 S   0  0  0  0  0  0  0  0  0  0  0  0
   37.7950   21.0070   39.9410 C   0  0  0  0  0  0  0  0  0  0  0  0
   37.9030   19.8940   40.2280 H   0  0  0  0  0  0  0  0  0  0  0  0
   38.4700   21.8900   40.1490 N   0  0  0  0  0  0  0  0  0  0  0  0
   38.4110   33.6710   39.9340 C   0  0  0  0  0  0  0  0  0  0  0  0
   39.6110   34.2200   39.4980 F   0  0  0  0  0  0  0  0  0  0  0  0
   38.6050   33.4340   41.3050 F   0  0  0  0  0  0  0  0  0  0  0  0
   37.3990   34.5460   39.6800 F   0  0  0  0  0  0  0  0  0  0  0  0
  1  9  1  0  0  0  0
  1  2  1  0  0  0  0
  2 15  1  0  0  0  0
  3 36  1  0  0  0  0
  3  2  2  0  0  0  0
  4  3  1  0  0  0  0
  5  4  2  0  0  0  0
  5  6  1  0  0  0  0
  6  1  2  0  0  0  0
  7  8  2  0  0  0  0
  7 10  1  0  0  0  0
  9  7  1  0  0  0  0
 10 11  1  0  0  0  0
 11 19  1  0  0  0  0
 11 12  1  0  0  0  0
 12 20  1  0  0  0  0
 12 21  1  0  0  0  0
 13 23  1  0  0  0  0
 13 12  1  0  0  0  0
 14 24  1  6  0  0  0
 14 10  1  0  0  0  0
 14 13  1  0  0  0  0
 16  5  1  0  0  0  0
 17  9  1  0  0  0  0
 18 11  1  0  0  0  0
 22 13  1  0  0  0  0
 25 27  1  0  0  0  0
 26 25  2  0  0  0  0
 27 14  1  0  0  0  0
 27 28  1  0  0  0  0
 29 35  1  0  0  0  0
 29 25  1  0  0  0  0
 30 29  2  0  0  0  0
 31 30  1  0  0  0  0
 32 30  1  0  0  0  0
 32 33  1  0  0  0  0
 33 35  2  0  0  0  0
 33 34  1  0  0  0  0
 36 38  1  0  0  0  0
 37 36  1  0  0  0  0
 39 36  1  0  0  0  0
M  END
>  <minimizedAffinity>
-5.47958422

$$$$

 OpenBabel03252503333D

 39 41  0  0  1  0  0  0  0  0999 V2000
   37.4740   31.0800   40.3230 C   0  0  0  0  0  0  0  0  0  0  0  0
   37.5270   32.4740   40.0250 C   0  0  0  0  0  0  0  0  0  0  0  0
   38.6240   33.1780   40.5590 C   0  0  0  0  0  0  0  0  0  0  0  0
   39.5210   32.4940   41.2930 N   0  0  0  0  0  0  0  0  0  0  0  0
   39.4230   31.1700   41.5440 C   0  0  0  0  0  0  0  0  0  0  0  0
   38.3850   30.4640   41.0490 N   0  0  0  0  0  0  0  0  0  0  0  0
   36.5400   30.0330   38.4430 C   0  0  0  0  0  0  0  0  0  0  0  0
   37.5390   30.5330   37.8250 O   0  0  0  0  0  0  0  0  0  0  0  0
   36.3900   30.2880   39.8200 N   0  0  0  0  0  0  0  0  0  0  0  0
   35.6400   29.2420   37.6830 N   0  0  0  0  0  0  0  0  0  0  0  0
   35.6870   29.3010   36.2100 C   0  0  0  0  0  0  0  0  0  0  0  0
   34.2630   29.0360   35.8330 C   0  0  0  0  0  0  0  0  0  0  0  0
   33.5380   28.7580   37.1180 C   0  0  0  0  0  0  0  0  0  0  0  0
   34.6240   28.3060   38.0650 C   0  0  1  0  0  0  0  0  0  0  0  0
   36.7410   32.9170   39.4190 H   0  0  0  0  0  0  0  0  0  0  0  0
   40.1800   30.6830   42.1430 H   0  0  0  0  0  0  0  0  0  0  0  0
   35.5700   29.9040   40.2940 H   0  0  0  0  0  0  0  0  0  0  0  0
   36.3230   28.4770   35.8490 H   0  0  0  0  0  0  0  0  0  0  0  0
   35.9900   30.3010   35.8690 H   0  0  0  0  0  0  0  0  0  0  0  0
   34.1880   28.1230   35.1990 H   0  0  0  0  0  0  0  0  0  0  0  0
   33.8290   29.8840   35.2680 H   0  0  0  0  0  0  0  0  0  0  0  0
   33.3750   29.8240   37.5080 H   0  0  0  0  0  0  0  0  0  0  0  0
   32.5750   28.3680   37.1120 H   0  0  0  0  0  0  0  0  0  0  0  0
   34.1620   28.4150   39.0540 H   0  0  0  0  0  0  0  0  0  0  0  0
   36.0680   26.2640   38.6750 C   0  0  0  0  0  0  0  0  0  0  0  0
   36.2330   26.8990   39.7430 O   0  0  0  0  0  0  0  0  0  0  0  0
   35.1030   26.9510   37.8400 N   0  0  0  0  0  0  0  0  0  0  0  0
   34.7090   26.4330   36.9940 H   0  0  0  0  0  0  0  0  0  0  0  0
   36.7060   25.0340   38.2690 C   0  0  0  0  0  0  0  0  0  0  0  0
   36.9340   24.7110   36.9310 C   0  0  0  0  0  0  0  0  0  0  0  0
   36.6390   25.3840   36.0390 H   0  0  0  0  0  0  0  0  0  0  0  0
   37.7630   23.0450   37.0640 S   0  0  0  0  0  0  0  0  0  0  0  0
   37.6310   23.1250   38.9560 C   0  0  0  0  0  0  0  0  0  0  0  0
   37.9920   22.3310   39.7140 H   0  0  0  0  0  0  0  0  0  0  0  0
   37.1230   24.1210   39.1210 N   0  0  0  0  0  0  0  0  0  0  0  0
   38.6550   34.6020   40.2390 C   0  0  0  0  0  0  0  0  0  0  0  0
   39.7940   34.8600   39.4850 F   0  0  0  0  0  0  0  0  0  0  0  0
   38.8650   35.2860   41.4470 F   0  0  0  0  0  0  0  0  0  0  0  0
   37.5590   35.0400   39.5600 F   0  0  0  0  0  0  0  0  0  0  0  0
  1  6  1  0  0  0  0
  2  1  2  0  0  0  0
  2  3  1  0  0  0  0
  3  4  2  0  0  0  0
  4  5  1  0  0  0  0
  5 16  1  0  0  0  0
  6  5  2  0  0  0  0
  7  9  1  0  0  0  0
  8  7  2  0  0  0  0
  9 17  1  0  0  0  0
  9  1  1  0  0  0  0
 10 14  1  0  0  0  0
 10  7  1  0  0  0  0
 11 10  1  0  0  0  0
 12 11  1  0  0  0  0
 12 13  1  0  0  0  0
 13 22  1  0  0  0  0
 13 14  1  0  0  0  0
 14 24  1  1  0  0  0
 15  2  1  0  0  0  0
 18 11  1  0  0  0  0
 19 11  1  0  0  0  0
 20 12  1  0  0  0  0
 21 12  1  0  0  0  0
 23 13  1  0  0  0  0
 25 26  2  0  0  0  0
 27 14  1  0  0  0  0
 27 25  1  0  0  0  0
 28 27  1  0  0  0  0
 29 25  1  0  0  0  0
 29 35  1  0  0  0  0
 30 32  1  0  0  0  0
 30 29  2  0  0  0  0
 31 30  1  0  0  0  0
 32 33  1  0  0  0  0
 33 35  2  0  0  0  0
 33 34  1  0  0  0  0
 36  3  1  0  0  0  0
 36 38  1  0  0  0  0
 37 36  1  0  0  0  0
 39 36  1  0  0  0  0
M  END
>  <minimizedAffinity>
-5.42539597

$$$$

 OpenBabel03252503333D

 39 41  0  0  1  0  0  0  0  0999 V2000
   39.4390   31.4010   40.9720 C   0  0  0  0  0  0  0  0  0  0  0  0
   39.5920   32.6660   40.3290 C   0  0  0  0  0  0  0  0  0  0  0  0
   40.8430   33.2930   40.4920 C   0  0  0  0  0  0  0  0  0  0  0  0
   41.7780   32.6640   41.2260 N   0  0  0  0  0  0  0  0  0  0  0  0
   41.5800   31.4630   41.8150 C   0  0  0  0  0  0  0  0  0  0  0  0
   40.3950   30.8340   41.6800 N   0  0  0  0  0  0  0  0  0  0  0  0
   38.0550   30.1120   39.5850 C   0  0  0  0  0  0  0  0  0  0  0  0
   38.9710   30.2960   38.7130 O   0  0  0  0  0  0  0  0  0  0  0  0
   38.1980   30.6940   40.8590 N   0  0  0  0  0  0  0  0  0  0  0  0
   36.9450   29.3180   39.1970 N   0  0  0  0  0  0  0  0  0  0  0  0
   36.7210   29.0320   37.7670 C   0  0  0  0  0  0  0  0  0  0  0  0
   35.2300   28.9130   37.6940 C   0  0  0  0  0  0  0  0  0  0  0  0
   34.7330   29.0500   39.1040 C   0  0  0  0  0  0  0  0  0  0  0  0
   35.9200   28.6630   39.9550 C   0  0  1  0  0  0  0  0  0  0  0  0
   38.7610   33.0760   39.7610 H   0  0  0  0  0  0  0  0  0  0  0  0
   42.3760   31.0140   42.3920 H   0  0  0  0  0  0  0  0  0  0  0  0
   37.4430   30.5610   41.5360 H   0  0  0  0  0  0  0  0  0  0  0  0
   37.1800   28.0590   37.5310 H   0  0  0  0  0  0  0  0  0  0  0  0
   37.0650   29.8680   37.1430 H   0  0  0  0  0  0  0  0  0  0  0  0
   34.9350   27.9020   37.3300 H   0  0  0  0  0  0  0  0  0  0  0  0
   34.7960   29.6660   37.0090 H   0  0  0  0  0  0  0  0  0  0  0  0
   34.7680   30.1890   39.2340 H   0  0  0  0  0  0  0  0  0  0  0  0
   33.7490   28.8240   39.3470 H   0  0  0  0  0  0  0  0  0  0  0  0
   35.6680   29.0650   40.9430 H   0  0  0  0  0  0  0  0  0  0  0  0
   36.9510   26.5730   41.0490 C   0  0  0  0  0  0  0  0  0  0  0  0
   37.1150   27.3550   42.0150 O   0  0  0  0  0  0  0  0  0  0  0  0
   36.1920   27.2350   40.0060 N   0  0  0  0  0  0  0  0  0  0  0  0
   35.8000   26.6390   39.2120 H   0  0  0  0  0  0  0  0  0  0  0  0
   37.4150   25.2120   40.9220 C   0  0  0  0  0  0  0  0  0  0  0  0
   36.6300   24.1970   40.3760 C   0  0  0  0  0  0  0  0  0  0  0  0
   35.5540   24.3470   39.9810 H   0  0  0  0  0  0  0  0  0  0  0  0
   37.7620   22.7180   40.4880 S   0  0  0  0  0  0  0  0  0  0  0  0
   39.1080   23.8040   41.2730 C   0  0  0  0  0  0  0  0  0  0  0  0
   40.1600   23.4700   41.6160 H   0  0  0  0  0  0  0  0  0  0  0  0
   38.6110   24.8180   41.3080 N   0  0  0  0  0  0  0  0  0  0  0  0
   40.9730   34.5850   39.8230 C   0  0  0  0  0  0  0  0  0  0  0  0
   41.4690   34.3700   38.5430 F   0  0  0  0  0  0  0  0  0  0  0  0
   41.9920   35.2860   40.4870 F   0  0  0  0  0  0  0  0  0  0  0  0
   39.8080   35.2850   39.7410 F   0  0  0  0  0  0  0  0  0  0  0  0
  1  6  1  0  0  0  0
  2  3  1  0  0  0  0
  2  1  2  0  0  0  0
  3  4  2  0  0  0  0
  4  5  1  0  0  0  0
  5 16  1  0  0  0  0
  6  5  2  0  0  0  0
  7  9  1  0  0  0  0
  8  7  2  0  0  0  0
  9  1  1  0  0  0  0
  9 17  1  0  0  0  0
 10  7  1  0  0  0  0
 10 14  1  0  0  0  0
 11 10  1  0  0  0  0
 12 11  1  0  0  0  0
 12 13  1  0  0  0  0
 13 22  1  0  0  0  0
 13 23  1  0  0  0  0
 13 14  1  0  0  0  0
 14 27  1  0  0  0  0
 14 24  1  1  0  0  0
 15  2  1  0  0  0  0
 18 11  1  0  0  0  0
 19 11  1  0  0  0  0
 20 12  1  0  0  0  0
 21 12  1  0  0  0  0
 25 26  2  0  0  0  0
 27 25  1  0  0  0  0
 28 27  1  0  0  0  0
 29 25  1  0  0  0  0
 29 35  1  0  0  0  0
 30 32  1  0  0  0  0
 30 29  2  0  0  0  0
 31 30  1  0  0  0  0
 32 33  1  0  0  0  0
 33 35  2  0  0  0  0
 33 34  1  0  0  0  0
 36 38  1  0  0  0  0
 36  3  1  0  0  0  0
 37 36  1  0  0  0  0
 39 36  1  0  0  0  0
M  END
>  <minimizedAffinity>
-5.365798

$$$$

 OpenBabel03252503333D

 39 41  0  0  1  0  0  0  0  0999 V2000
   38.3840   29.5410   39.6090 C   0  0  0  0  0  0  0  0  0  0  0  0
   37.0890   29.5880   39.0120 C   0  0  0  0  0  0  0  0  0  0  0  0
   36.2760   28.4550   39.2110 C   0  0  0  0  0  0  0  0  0  0  0  0
   36.7740   27.4360   39.9360 N   0  0  0  0  0  0  0  0  0  0  0  0
   38.0110   27.4430   40.4800 C   0  0  0  0  0  0  0  0  0  0  0  0
   38.8160   28.5120   40.3100 N   0  0  0  0  0  0  0  0  0  0  0  0
   38.8910   31.7330   40.2720 C   0  0  0  0  0  0  0  0  0  0  0  0
   37.8370   31.6270   40.9850 O   0  0  0  0  0  0  0  0  0  0  0  0
   39.2760   30.6520   39.4560 N   0  0  0  0  0  0  0  0  0  0  0  0
   39.6100   32.9530   40.3590 N   0  0  0  0  0  0  0  0  0  0  0  0
   38.9670   34.1330   40.9690 C   0  0  0  0  0  0  0  0  0  0  0  0
   39.6060   35.2660   40.2280 C   0  0  0  0  0  0  0  0  0  0  0  0
   40.6270   34.6440   39.3190 C   0  0  0  0  0  0  0  0  0  0  0  0
   40.9400   33.3160   39.9670 C   0  0  1  0  0  0  0  0  0  0  0  0
   36.7980   30.4700   38.4470 H   0  0  0  0  0  0  0  0  0  0  0  0
   38.3470   26.5890   41.0510 H   0  0  0  0  0  0  0  0  0  0  0  0
   40.1060   30.7630   38.8690 H   0  0  0  0  0  0  0  0  0  0  0  0
   39.2580   34.1770   42.0300 H   0  0  0  0  0  0  0  0  0  0  0  0
   37.8840   34.1240   40.7870 H   0  0  0  0  0  0  0  0  0  0  0  0
   40.1480   35.9400   40.9310 H   0  0  0  0  0  0  0  0  0  0  0  0
   38.8550   35.8690   39.6820 H   0  0  0  0  0  0  0  0  0  0  0  0
   39.9600   34.2850   38.4590 H   0  0  0  0  0  0  0  0  0  0  0  0
   41.3330   35.2300   38.8300 H   0  0  0  0  0  0  0  0  0  0  0  0
   41.4190   32.7460   39.1630 H   0  0  0  0  0  0  0  0  0  0  0  0
   43.1750   32.9860   41.2020 C   0  0  0  0  0  0  0  0  0  0  0  0
   43.6050   32.7920   40.0410 O   0  0  0  0  0  0  0  0  0  0  0  0
   41.7870   33.3990   41.1480 N   0  0  0  0  0  0  0  0  0  0  0  0
   41.3430   33.7940   42.0340 H   0  0  0  0  0  0  0  0  0  0  0  0
   43.8900   32.8420   42.4480 C   0  0  0  0  0  0  0  0  0  0  0  0
   43.9900   31.6240   43.1210 C   0  0  0  0  0  0  0  0  0  0  0  0
   43.5190   30.6350   42.7530 H   0  0  0  0  0  0  0  0  0  0  0  0
   45.0080   32.0820   44.6160 S   0  0  0  0  0  0  0  0  0  0  0  0
   45.0960   33.8800   44.0110 C   0  0  0  0  0  0  0  0  0  0  0  0
   45.6310   34.7640   44.5270 H   0  0  0  0  0  0  0  0  0  0  0  0
   44.5050   33.8400   43.0480 N   0  0  0  0  0  0  0  0  0  0  0  0
   34.9570   28.5290   38.5900 C   0  0  0  0  0  0  0  0  0  0  0  0
   34.0350   28.9110   39.5590 F   0  0  0  0  0  0  0  0  0  0  0  0
   34.5930   27.2170   38.2500 F   0  0  0  0  0  0  0  0  0  0  0  0
   34.8870   29.3930   37.5410 F   0  0  0  0  0  0  0  0  0  0  0  0
  1  6  1  0  0  0  0
  2  3  1  0  0  0  0
  2  1  2  0  0  0  0
  3  4  2  0  0  0  0
  4  5  1  0  0  0  0
  5 16  1  0  0  0  0
  6  5  2  0  0  0  0
  7 10  1  0  0  0  0
  7  8  2  0  0  0  0
  9  1  1  0  0  0  0
  9  7  1  0  0  0  0
 10 11  1  0  0  0  0
 11 18  1  0  0  0  0
 12 20  1  0  0  0  0
 12 11  1  0  0  0  0
 13 14  1  0  0  0  0
 13 12  1  0  0  0  0
 14 24  1  6  0  0  0
 14 10  1  0  0  0  0
 14 27  1  0  0  0  0
 15  2  1  0  0  0  0
 17  9  1  0  0  0  0
 19 11  1  0  0  0  0
 21 12  1  0  0  0  0
 22 13  1  0  0  0  0
 23 13  1  0  0  0  0
 25 29  1  0  0  0  0
 26 25  2  0  0  0  0
 27 25  1  0  0  0  0
 27 28  1  0  0  0  0
 29 35  1  0  0  0  0
 29 30  2  0  0  0  0
 30 32  1  0  0  0  0
 31 30  1  0  0  0  0
 33 34  1  0  0  0  0
 33 32  1  0  0  0  0
 35 33  2  0  0  0  0
 36  3  1  0  0  0  0
 36 37  1  0  0  0  0
 38 36  1  0  0  0  0
 39 36  1  0  0  0  0
M  END
>  <minimizedAffinity>
-5.30442381

$$$$

 OpenBabel03252503333D

 39 41  0  0  1  0  0  0  0  0999 V2000
   36.7080   25.4350   38.7360 C   0  0  0  0  0  0  0  0  0  0  0  0
   36.9300   24.0330   38.8810 C   0  0  0  0  0  0  0  0  0  0  0  0
   37.1260   23.3130   37.6860 C   0  0  0  0  0  0  0  0  0  0  0  0
   37.0890   23.9890   36.5230 N   0  0  0  0  0  0  0  0  0  0  0  0
   36.8740   25.3210   36.4430 C   0  0  0  0  0  0  0  0  0  0  0  0
   36.6830   26.0430   37.5670 N   0  0  0  0  0  0  0  0  0  0  0  0
   37.7050   26.4630   40.5930 C   0  0  0  0  0  0  0  0  0  0  0  0
   38.7770   25.9230   40.1580 O   0  0  0  0  0  0  0  0  0  0  0  0
   36.4990   26.2440   39.9000 N   0  0  0  0  0  0  0  0  0  0  0  0
   37.8120   27.2610   41.7620 N   0  0  0  0  0  0  0  0  0  0  0  0
   39.0240   27.1660   42.5970 C   0  0  0  0  0  0  0  0  0  0  0  0
   38.4950   27.4610   43.9660 C   0  0  0  0  0  0  0  0  0  0  0  0
   37.0400   27.7890   43.7860 C   0  0  0  0  0  0  0  0  0  0  0  0
   36.9350   28.2320   42.3460 C   0  0  1  0  0  0  0  0  0  0  0  0
   36.9380   23.5980   39.8770 H   0  0  0  0  0  0  0  0  0  0  0  0
   36.8560   25.8010   35.4740 H   0  0  0  0  0  0  0  0  0  0  0  0
   35.6450   26.6610   40.2770 H   0  0  0  0  0  0  0  0  0  0  0  0
   39.7200   27.9650   42.2920 H   0  0  0  0  0  0  0  0  0  0  0  0
   39.4430   26.1510   42.5630 H   0  0  0  0  0  0  0  0  0  0  0  0
   38.9920   28.3610   44.3940 H   0  0  0  0  0  0  0  0  0  0  0  0
   38.6630   26.6130   44.6570 H   0  0  0  0  0  0  0  0  0  0  0  0
   36.5920   26.7370   43.6960 H   0  0  0  0  0  0  0  0  0  0  0  0
   36.4880   28.2050   44.5620 H   0  0  0  0  0  0  0  0  0  0  0  0
   35.8620   28.1590   42.1340 H   0  0  0  0  0  0  0  0  0  0  0  0
   36.8910   30.4930   41.1150 C   0  0  0  0  0  0  0  0  0  0  0  0
   35.7710   30.0800   40.7300 O   0  0  0  0  0  0  0  0  0  0  0  0
   37.4470   29.5690   42.0820 N   0  0  0  0  0  0  0  0  0  0  0  0
   38.2960   29.8820   42.6480 H   0  0  0  0  0  0  0  0  0  0  0  0
   37.5830   31.6910   40.7030 C   0  0  0  0  0  0  0  0  0  0  0  0
   38.9040   31.9580   41.0620 C   0  0  0  0  0  0  0  0  0  0  0  0
   39.5570   31.2590   41.7120 H   0  0  0  0  0  0  0  0  0  0  0  0
   39.2100   33.6080   40.2450 S   0  0  0  0  0  0  0  0  0  0  0  0
   37.4380   33.6020   39.5630 C   0  0  0  0  0  0  0  0  0  0  0  0
   36.9410   34.4150   38.9090 H   0  0  0  0  0  0  0  0  0  0  0  0
   37.0290   32.6260   39.9590 N   0  0  0  0  0  0  0  0  0  0  0  0
   37.3520   21.8820   37.8630 C   0  0  0  0  0  0  0  0  0  0  0  0
   36.4140   21.1910   37.1040 F   0  0  0  0  0  0  0  0  0  0  0  0
   37.0250   21.5790   39.1940 F   0  0  0  0  0  0  0  0  0  0  0  0
   38.6020   21.4710   37.5130 F   0  0  0  0  0  0  0  0  0  0  0  0
  1  2  1  0  0  0  0
  1  9  1  0  0  0  0
  2 15  1  0  0  0  0
  3 36  1  0  0  0  0
  3  2  2  0  0  0  0
  4  3  1  0  0  0  0
  5  4  2  0  0  0  0
  5  6  1  0  0  0  0
  6  1  2  0  0  0  0
  7 10  1  0  0  0  0
  8  7  2  0  0  0  0
  9 17  1  0  0  0  0
  9  7  1  0  0  0  0
 10 14  1  0  0  0  0
 10 11  1  0  0  0  0
 11 12  1  0  0  0  0
 12 20  1  0  0  0  0
 12 21  1  0  0  0  0
 13 12  1  0  0  0  0
 13 23  1  0  0  0  0
 14 24  1  6  0  0  0
 14 13  1  0  0  0  0
 16  5  1  0  0  0  0
 18 11  1  0  0  0  0
 19 11  1  0  0  0  0
 22 13  1  0  0  0  0
 25 27  1  0  0  0  0
 26 25  2  0  0  0  0
 27 14  1  0  0  0  0
 27 28  1  0  0  0  0
 29 30  2  0  0  0  0
 29 25  1  0  0  0  0
 30 31  1  0  0  0  0
 32 30  1  0  0  0  0
 33 35  2  0  0  0  0
 33 32  1  0  0  0  0
 34 33  1  0  0  0  0
 35 29  1  0  0  0  0
 36 38  1  0  0  0  0
 37 36  1  0  0  0  0
 39 36  1  0  0  0  0
M  END
>  <minimizedAffinity>
-5.28290129

$$$$
