
 OpenBabel03252503343D

 20 21  0  0  0  0  0  0  0  0999 V2000
   49.0600   31.7540   42.1980 C   0  0  0  0  0  0  0  0  0  0  0  0
   48.0190   31.0490   42.1590 O   0  0  0  0  0  0  0  0  0  0  0  0
   48.8460   33.1320   42.4450 N   0  0  0  0  0  0  0  0  0  0  0  0
   49.7510   33.6870   42.4820 H   0  0  0  0  0  0  0  0  0  0  0  0
   45.4550   34.4690   41.7390 C   0  0  0  0  0  0  0  0  0  0  0  0
   46.7360   33.9540   41.5030 C   0  0  0  0  0  0  0  0  0  0  0  0
   47.5480   33.6540   42.6150 C   0  0  0  0  0  0  0  0  0  0  0  0
   47.0600   33.8750   43.8700 N   0  0  0  0  0  0  0  0  0  0  0  0
   45.8120   34.3750   44.0390 C   0  0  0  0  0  0  0  0  0  0  0  0
   45.0120   34.6720   43.0040 N   0  0  0  0  0  0  0  0  0  0  0  0
   44.8460   34.6940   40.8790 H   0  0  0  0  0  0  0  0  0  0  0  0
   47.0890   33.7920   40.5040 H   0  0  0  0  0  0  0  0  0  0  0  0
   45.4520   34.5400   45.0460 H   0  0  0  0  0  0  0  0  0  0  0  0
   50.2980   31.0210   41.9820 C   0  0  0  0  0  0  0  0  0  0  0  0
   51.3200   31.5260   41.2340 C   0  0  0  0  0  0  0  0  0  0  0  0
   51.4860   32.4520   40.6810 H   0  0  0  0  0  0  0  0  0  0  0  0
   52.5320   30.1980   41.3350 S   0  0  0  0  0  0  0  0  0  0  0  0
   51.3740   29.1540   42.4230 C   0  0  0  0  0  0  0  0  0  0  0  0
   52.1170   28.1640   42.5740 H   0  0  0  0  0  0  0  0  0  0  0  0
   50.4910   29.8360   42.4960 N   0  0  0  0  0  0  0  0  0  0  0  0
  1  3  1  0  0  0  0
  2  1  2  0  0  0  0
  3  4  1  0  0  0  0
  3  7  1  0  0  0  0
  5 10  1  0  0  0  0
  6  5  2  0  0  0  0
  6  7  1  0  0  0  0
  7  8  2  0  0  0  0
  8  9  1  0  0  0  0
  9 13  1  0  0  0  0
 10  9  2  0  0  0  0
 11  5  1  0  0  0  0
 12  6  1  0  0  0  0
 14  1  1  0  0  0  0
 14 20  1  0  0  0  0
 15 17  1  0  0  0  0
 15 14  2  0  0  0  0
 16 15  1  0  0  0  0
 17 18  1  0  0  0  0
 18 20  2  0  0  0  0
 18 19  1  0  0  0  0
M  END
>  <minimizedAffinity>
-2.50193095

>  <minimizedRMSD>
4.33538628

$$$$
