
 OpenBabel03242516053D

 39 43  0  0  0  0  0  0  0  0999 V2000
   47.3160   33.2510   38.7530 C   0  0  0  0  0  0  0  0  0  0  0  0
   47.9730   32.0460   38.5150 C   0  0  0  0  0  0  0  0  0  0  0  0
   47.1800   31.4010   37.0160 S   0  0  0  0  0  0  0  0  0  0  0  0
   46.0280   32.9320   36.9380 C   0  0  0  0  0  0  0  0  0  0  0  0
   46.3990   33.4750   37.8430 N   0  0  0  0  0  0  0  0  0  0  0  0
   45.0290   33.1800   35.9520 N   0  0  0  0  0  0  0  0  0  0  0  0
   45.1520   34.0870   35.4300 H   0  0  0  0  0  0  0  0  0  0  0  0
   44.3190   32.3890   35.9140 H   0  0  0  0  0  0  0  0  0  0  0  0
   48.8760   30.4440   40.2370 C   0  0  0  0  0  0  0  0  0  0  0  0
   49.0470   31.4020   39.2600 C   0  0  0  0  0  0  0  0  0  0  0  0
   50.3180   31.8440   38.9010 C   0  0  0  0  0  0  0  0  0  0  0  0
   50.5040   32.5950   38.1390 H   0  0  0  0  0  0  0  0  0  0  0  0
   51.3970   31.2920   39.5550 C   0  0  0  0  0  0  0  0  0  0  0  0
   52.7440   31.4950   39.4490 N   0  0  0  0  0  0  0  0  0  0  0  0
   53.4390   30.7290   40.2950 C   0  0  0  0  0  0  0  0  0  0  0  0
   54.5270   30.7320   40.3750 H   0  0  0  0  0  0  0  0  0  0  0  0
   52.5300   30.0060   40.9720 N   0  0  0  0  0  0  0  0  0  0  0  0
   51.3000   30.3170   40.5550 C   0  0  0  0  0  0  0  0  0  0  0  0
   49.9900   29.9280   40.8560 C   0  0  0  0  0  0  0  0  0  0  0  0
   53.1770   32.1840   38.7710 H   0  0  0  0  0  0  0  0  0  0  0  0
   45.5940   32.9560   41.1080 Cl  0  0  0  0  0  0  0  0  0  0  0  0
   46.9110   34.1040   41.0690 C   0  0  0  0  0  0  0  0  0  0  0  0
   47.2140   34.9200   42.1160 C   0  0  0  0  0  0  0  0  0  0  0  0
   48.2700   35.7730   41.9570 C   0  0  0  0  0  0  0  0  0  0  0  0
   49.0010   35.8310   40.8290 C   0  0  0  0  0  0  0  0  0  0  0  0
   48.7120   35.0190   39.7640 C   0  0  0  0  0  0  0  0  0  0  0  0
   47.6420   34.1380   39.8940 C   0  0  0  0  0  0  0  0  0  0  0  0
   48.5210   36.4280   42.7830 H   0  0  0  0  0  0  0  0  0  0  0  0
   49.8290   36.5150   40.7320 H   0  0  0  0  0  0  0  0  0  0  0  0
   49.3050   35.0750   38.8700 H   0  0  0  0  0  0  0  0  0  0  0  0
   44.5400   35.5410   44.7280 C   0  0  0  0  0  0  0  0  0  0  0  0
   45.3130   35.6650   43.5780 C   0  0  0  0  0  0  0  0  0  0  0  0
   46.3930   34.8150   43.3060 C   0  0  0  0  0  0  0  0  0  0  0  0
   46.6160   33.8660   44.2600 N   0  0  0  0  0  0  0  0  0  0  0  0
   45.8610   33.7590   45.3680 C   0  0  0  0  0  0  0  0  0  0  0  0
   44.8430   34.5740   45.6040 N   0  0  0  0  0  0  0  0  0  0  0  0
   43.7230   36.2710   44.8220 H   0  0  0  0  0  0  0  0  0  0  0  0
   45.1050   36.4370   42.8360 H   0  0  0  0  0  0  0  0  0  0  0  0
   46.0320   33.0100   46.1280 H   0  0  0  0  0  0  0  0  0  0  0  0
  1 27  1  0  0  0  0
  2  1  2  0  0  0  0
  2 10  1  0  0  0  0
  3  2  1  0  0  0  0
  4  3  1  0  0  0  0
  4  5  2  0  0  0  0
  5  1  1  0  0  0  0
  6  4  1  0  0  0  0
  7  6  1  0  0  0  0
  8  6  1  0  0  0  0
  9 19  1  0  0  0  0
 10  9  2  0  0  0  0
 11 10  1  0  0  0  0
 11 13  2  0  0  0  0
 12 11  1  0  0  0  0
 13 18  1  0  0  0  0
 14 13  1  0  0  0  0
 14 15  1  0  0  0  0
 15 16  1  0  0  0  0
 15 17  2  0  0  0  0
 18 19  2  0  0  0  0
 18 17  1  0  0  0  0
 20 14  1  0  0  0  0
 22 21  1  0  0  0  0
 22 23  1  0  0  0  0
 23 33  1  0  0  0  0
 24 23  2  0  0  0  0
 24 28  1  0  0  0  0
 25 24  1  0  0  0  0
 26 27  1  0  0  0  0
 26 25  2  0  0  0  0
 27 22  2  0  0  0  0
 29 25  1  0  0  0  0
 30 26  1  0  0  0  0
 31 37  1  0  0  0  0
 31 36  1  0  0  0  0
 32 31  2  0  0  0  0
 33 32  1  0  0  0  0
 33 34  2  0  0  0  0
 34 35  1  0  0  0  0
 35 36  2  0  0  0  0
 35 39  1  0  0  0  0
 38 32  1  0  0  0  0
M  END
>  <minimizedAffinity>
-6.57388639

>  <minimizedRMSD>
1.87674522

$$$$
