
 OpenBabel03242522343D

 24 26  0  0  0  0  0  0  0  0999 V2000
   36.2640   28.0200   42.1360 C   0  0  0  0  0  0  0  0  0  0  0  0
   36.0040   28.6410   43.0350 H   0  0  0  0  0  0  0  0  0  0  0  0
   35.4320   27.3670   41.8610 H   0  0  0  0  0  0  0  0  0  0  0  0
   36.7560   28.6560   39.7330 C   0  0  0  0  0  3  0  0  0  0  0  0
   36.5420   28.9950   41.0550 C   0  0  0  0  0  0  0  0  0  0  0  0
   36.5860   30.3260   41.4100 C   0  0  0  0  0  0  0  0  0  0  0  0
   36.4300   30.6850   42.4240 H   0  0  0  0  0  0  0  0  0  0  0  0
   36.8430   31.2860   40.4310 C   0  0  0  0  0  0  0  0  0  0  0  0
   36.9460   32.6380   40.4730 N   0  0  0  0  0  0  0  0  0  0  0  0
   37.2100   33.0620   39.2210 C   0  0  0  0  0  0  0  0  0  0  0  0
   37.3530   34.0800   38.8910 H   0  0  0  0  0  0  0  0  0  0  0  0
   37.2770   32.0090   38.3810 N   0  0  0  0  0  0  0  0  0  0  0  0
   37.0540   30.8950   39.1060 C   0  0  0  0  0  0  0  0  0  0  0  0
   37.0130   29.5760   38.7390 C   0  0  0  0  0  3  0  0  0  0  0  0
   36.8340   33.2260   41.3500 H   0  0  0  0  0  0  0  0  0  0  0  0
   39.5450   27.0670   43.6150 C   0  0  0  0  0  0  0  0  0  0  0  0
   39.6880   25.7340   43.1780 C   0  0  0  0  0  0  0  0  0  0  0  0
   38.6600   25.2260   42.3990 C   0  0  0  0  0  0  0  0  0  0  0  0
   37.5730   25.9920   42.0850 N   0  0  0  0  0  0  0  0  0  0  0  0
   37.4890   27.2740   42.5360 C   0  0  0  0  0  0  0  0  0  0  0  0
   38.4720   27.7810   43.2870 N   0  0  0  0  0  0  0  0  0  0  0  0
   40.2920   27.5380   44.2190 H   0  0  0  0  0  0  0  0  0  0  0  0
   40.5720   25.1770   43.4580 H   0  0  0  0  0  0  0  0  0  0  0  0
   38.7430   24.2050   42.0480 H   0  0  0  0  0  0  0  0  0  0  0  0
  1 20  1  0  0  0  0
  1  2  1  0  0  0  0
  3  1  1  0  0  0  0
  4  5  1  0  0  0  0
  5  6  2  0  0  0  0
  5  1  1  0  0  0  0
  6  7  1  0  0  0  0
  8  9  1  0  0  0  0
  8  6  1  0  0  0  0
  9 15  1  0  0  0  0
 10  9  1  0  0  0  0
 11 10  1  0  0  0  0
 12 13  1  0  0  0  0
 12 10  2  0  0  0  0
 13  8  2  0  0  0  0
 14 13  1  0  0  0  0
 14  4  2  0  0  0  0
 16 22  1  0  0  0  0
 17 23  1  0  0  0  0
 17 16  2  0  0  0  0
 18 17  1  0  0  0  0
 19 18  2  0  0  0  0
 19 20  1  0  0  0  0
 20 21  2  0  0  0  0
 21 16  1  0  0  0  0
 24 18  1  0  0  0  0
M  END
>  <minimizedAffinity>
-5.05157328

$$$$

 OpenBabel03242522343D

 24 26  0  0  0  0  0  0  0  0999 V2000
   36.7470   31.0860   38.8370 C   0  0  0  0  0  0  0  0  0  0  0  0
   37.0080   30.6860   37.8200 H   0  0  0  0  0  0  0  0  0  0  0  0
   35.7520   31.5400   38.8310 H   0  0  0  0  0  0  0  0  0  0  0  0
   36.7210   28.5980   39.3150 C   0  0  0  0  0  3  0  0  0  0  0  0
   36.7790   29.9110   39.7390 C   0  0  0  0  0  0  0  0  0  0  0  0
   36.8730   30.1640   41.0910 C   0  0  0  0  0  0  0  0  0  0  0  0
   36.9230   31.1630   41.5160 H   0  0  0  0  0  0  0  0  0  0  0  0
   36.9060   29.0940   41.9850 C   0  0  0  0  0  0  0  0  0  0  0  0
   36.9930   29.0270   43.3380 N   0  0  0  0  0  0  0  0  0  0  0  0
   36.9850   27.7240   43.6790 C   0  0  0  0  0  0  0  0  0  0  0  0
   37.0410   27.3070   44.6740 H   0  0  0  0  0  0  0  0  0  0  0  0
   36.8960   26.9560   42.5730 N   0  0  0  0  0  0  0  0  0  0  0  0
   36.8450   27.7810   41.5090 C   0  0  0  0  0  0  0  0  0  0  0  0
   36.7520   27.5160   40.1690 C   0  0  0  0  0  3  0  0  0  0  0  0
   37.0540   29.8690   43.9810 H   0  0  0  0  0  0  0  0  0  0  0  0
   40.0560   32.7590   39.1740 C   0  0  0  0  0  0  0  0  0  0  0  0
   39.7090   33.9700   39.8080 C   0  0  0  0  0  0  0  0  0  0  0  0
   38.3650   34.1560   40.0910 C   0  0  0  0  0  0  0  0  0  0  0  0
   37.4400   33.2050   39.7620 N   0  0  0  0  0  0  0  0  0  0  0  0
   37.8330   32.0540   39.1510 C   0  0  0  0  0  0  0  0  0  0  0  0
   39.1260   31.8570   38.8710 N   0  0  0  0  0  0  0  0  0  0  0  0
   41.0700   32.5340   38.9210 H   0  0  0  0  0  0  0  0  0  0  0  0
   40.4850   34.6840   40.0450 H   0  0  0  0  0  0  0  0  0  0  0  0
   38.0690   35.0770   40.5790 H   0  0  0  0  0  0  0  0  0  0  0  0
  1 20  1  0  0  0  0
  1  5  1  0  0  0  0
  2  1  1  0  0  0  0
  3  1  1  0  0  0  0
  4  5  2  0  0  0  0
  4 14  1  0  0  0  0
  5  6  1  0  0  0  0
  6  7  1  0  0  0  0
  6  8  2  0  0  0  0
  8  9  1  0  0  0  0
  9 10  1  0  0  0  0
  9 15  1  0  0  0  0
 10 11  1  0  0  0  0
 12 10  2  0  0  0  0
 13  8  1  0  0  0  0
 13 12  1  0  0  0  0
 14 13  2  0  0  0  0
 16 17  1  0  0  0  0
 17 23  1  0  0  0  0
 17 18  2  0  0  0  0
 18 24  1  0  0  0  0
 19 18  1  0  0  0  0
 20 19  2  0  0  0  0
 21 20  1  0  0  0  0
 21 16  2  0  0  0  0
 22 16  1  0  0  0  0
M  END
>  <minimizedAffinity>
-4.8977356

$$$$

 OpenBabel03242522343D

 24 26  0  0  0  0  0  0  0  0999 V2000
   37.4980   28.2550   43.3750 C   0  0  0  0  0  0  0  0  0  0  0  0
   37.8920   28.4440   44.4100 H   0  0  0  0  0  0  0  0  0  0  0  0
   36.4080   28.1650   43.3870 H   0  0  0  0  0  0  0  0  0  0  0  0
   39.1940   29.9530   42.5630 C   0  0  0  0  0  3  0  0  0  0  0  0
   37.9150   29.4310   42.5770 C   0  0  0  0  0  0  0  0  0  0  0  0
   36.9490   30.0350   41.8000 C   0  0  0  0  0  0  0  0  0  0  0  0
   35.9180   29.6950   41.7490 H   0  0  0  0  0  0  0  0  0  0  0  0
   37.2880   31.1460   41.0290 C   0  0  0  0  0  0  0  0  0  0  0  0
   36.5740   31.9330   40.1860 N   0  0  0  0  0  0  0  0  0  0  0  0
   37.4110   32.8730   39.7040 C   0  0  0  0  0  0  0  0  0  0  0  0
   37.1770   33.6640   39.0070 H   0  0  0  0  0  0  0  0  0  0  0  0
   38.6460   32.7020   40.2230 N   0  0  0  0  0  0  0  0  0  0  0  0
   38.5960   31.6380   41.0470 C   0  0  0  0  0  0  0  0  0  0  0  0
   39.5660   31.0490   41.8140 C   0  0  0  0  0  3  0  0  0  0  0  0
   35.5440   31.8050   39.9670 H   0  0  0  0  0  0  0  0  0  0  0  0
   38.4710   25.1760   41.5220 C   0  0  0  0  0  0  0  0  0  0  0  0
   39.5880   24.7310   42.2580 C   0  0  0  0  0  0  0  0  0  0  0  0
   39.9540   25.5020   43.3500 C   0  0  0  0  0  0  0  0  0  0  0  0
   39.2570   26.6300   43.6790 N   0  0  0  0  0  0  0  0  0  0  0  0
   38.1860   27.0120   42.9310 C   0  0  0  0  0  0  0  0  0  0  0  0
   37.8170   26.2800   41.8740 N   0  0  0  0  0  0  0  0  0  0  0  0
   38.1190   24.6410   40.6650 H   0  0  0  0  0  0  0  0  0  0  0  0
   40.0990   23.8300   41.9500 H   0  0  0  0  0  0  0  0  0  0  0  0
   40.8080   25.1840   43.9350 H   0  0  0  0  0  0  0  0  0  0  0  0
  1  3  1  0  0  0  0
  1  2  1  0  0  0  0
  4  5  1  0  0  0  0
  5  1  1  0  0  0  0
  6  5  2  0  0  0  0
  7  6  1  0  0  0  0
  8 13  2  0  0  0  0
  8  6  1  0  0  0  0
  9  8  1  0  0  0  0
 10  9  1  0  0  0  0
 10 12  2  0  0  0  0
 11 10  1  0  0  0  0
 12 13  1  0  0  0  0
 13 14  1  0  0  0  0
 14  4  2  0  0  0  0
 15  9  1  0  0  0  0
 16 21  2  0  0  0  0
 16 17  1  0  0  0  0
 17 18  2  0  0  0  0
 18 19  1  0  0  0  0
 18 24  1  0  0  0  0
 20  1  1  0  0  0  0
 20 19  2  0  0  0  0
 21 20  1  0  0  0  0
 22 16  1  0  0  0  0
 23 17  1  0  0  0  0
M  END
>  <minimizedAffinity>
-4.8645463

$$$$

 OpenBabel03242522343D

 24 26  0  0  0  0  0  0  0  0999 V2000
   35.6710   28.8180   41.0420 C   0  0  0  0  0  0  0  0  0  0  0  0
   35.2900   28.1230   40.2450 H   0  0  0  0  0  0  0  0  0  0  0  0
   34.8670   29.1020   41.7260 H   0  0  0  0  0  0  0  0  0  0  0  0
   37.3530   28.4850   42.9070 C   0  0  0  0  0  3  0  0  0  0  0  0
   36.7190   28.0540   41.7580 C   0  0  0  0  0  0  0  0  0  0  0  0
   37.0730   26.8310   41.2270 C   0  0  0  0  0  0  0  0  0  0  0  0
   36.6290   26.4130   40.3280 H   0  0  0  0  0  0  0  0  0  0  0  0
   38.0550   26.0710   41.8620 C   0  0  0  0  0  0  0  0  0  0  0  0
   38.6030   24.8600   41.5860 N   0  0  0  0  0  0  0  0  0  0  0  0
   39.5180   24.6040   42.5410 C   0  0  0  0  0  0  0  0  0  0  0  0
   40.1420   23.7270   42.6310 H   0  0  0  0  0  0  0  0  0  0  0  0
   39.5660   25.6250   43.4220 N   0  0  0  0  0  0  0  0  0  0  0  0
   38.6690   26.5480   43.0230 C   0  0  0  0  0  0  0  0  0  0  0  0
   38.3270   27.7600   43.5610 C   0  0  0  0  0  3  0  0  0  0  0  0
   38.3360   24.2510   40.7590 H   0  0  0  0  0  0  0  0  0  0  0  0
   37.0270   32.1600   40.1180 C   0  0  0  0  0  0  0  0  0  0  0  0
   37.2990   31.9970   38.7440 C   0  0  0  0  0  0  0  0  0  0  0  0
   37.0060   30.7560   38.2000 C   0  0  0  0  0  0  0  0  0  0  0  0
   36.4830   29.7570   38.9720 N   0  0  0  0  0  0  0  0  0  0  0  0
   36.2410   29.9720   40.2940 C   0  0  0  0  0  0  0  0  0  0  0  0
   36.5170   31.1630   40.8360 N   0  0  0  0  0  0  0  0  0  0  0  0
   37.2210   33.0850   40.6180 H   0  0  0  0  0  0  0  0  0  0  0  0
   37.7120   32.8250   38.1850 H   0  0  0  0  0  0  0  0  0  0  0  0
   37.2050   30.6020   37.1460 H   0  0  0  0  0  0  0  0  0  0  0  0
  1  3  1  0  0  0  0
  1  5  1  0  0  0  0
  2  1  1  0  0  0  0
  4 14  1  0  0  0  0
  5  4  2  0  0  0  0
  6  5  1  0  0  0  0
  6  8  2  0  0  0  0
  7  6  1  0  0  0  0
  8 13  1  0  0  0  0
  9  8  1  0  0  0  0
  9 10  1  0  0  0  0
 10 11  1  0  0  0  0
 10 12  2  0  0  0  0
 13 12  1  0  0  0  0
 13 14  2  0  0  0  0
 15  9  1  0  0  0  0
 16 22  1  0  0  0  0
 16 21  1  0  0  0  0
 17 16  2  0  0  0  0
 18 17  1  0  0  0  0
 18 19  2  0  0  0  0
 19 20  1  0  0  0  0
 20 21  2  0  0  0  0
 20  1  1  0  0  0  0
 23 17  1  0  0  0  0
 24 18  1  0  0  0  0
M  END
>  <minimizedAffinity>
-4.85929298

$$$$

 OpenBabel03242522343D

 24 26  0  0  0  0  0  0  0  0999 V2000
   37.5210   28.5920   43.5240 C   0  0  0  0  0  0  0  0  0  0  0  0
   36.4050   28.5210   43.6280 H   0  0  0  0  0  0  0  0  0  0  0  0
   37.9870   28.8200   44.4870 H   0  0  0  0  0  0  0  0  0  0  0  0
   39.1950   26.7060   43.2810 C   0  0  0  0  0  3  0  0  0  0  0  0
   37.9550   27.2620   43.0370 C   0  0  0  0  0  0  0  0  0  0  0  0
   37.0450   26.5430   42.2910 C   0  0  0  0  0  0  0  0  0  0  0  0
   36.0480   26.9000   42.0480 H   0  0  0  0  0  0  0  0  0  0  0  0
   37.4020   25.2840   41.8070 C   0  0  0  0  0  0  0  0  0  0  0  0
   36.7400   24.3630   41.0640 N   0  0  0  0  0  0  0  0  0  0  0  0
   37.5690   23.3150   40.8870 C   0  0  0  0  0  0  0  0  0  0  0  0
   37.3660   22.4050   40.3420 H   0  0  0  0  0  0  0  0  0  0  0  0
   38.7470   23.5480   41.5020 N   0  0  0  0  0  0  0  0  0  0  0  0
   38.6690   24.7630   42.0810 C   0  0  0  0  0  0  0  0  0  0  0  0
   39.5820   25.4660   42.8210 C   0  0  0  0  0  3  0  0  0  0  0  0
   35.7490   24.4770   40.7020 H   0  0  0  0  0  0  0  0  0  0  0  0
   39.0480   31.1860   41.3320 C   0  0  0  0  0  0  0  0  0  0  0  0
   37.9440   31.6050   40.5610 C   0  0  0  0  0  0  0  0  0  0  0  0
   36.7340   30.9840   40.8270 C   0  0  0  0  0  0  0  0  0  0  0  0
   36.6370   30.0170   41.7880 N   0  0  0  0  0  0  0  0  0  0  0  0
   37.7370   29.6530   42.5020 C   0  0  0  0  0  0  0  0  0  0  0  0
   38.9130   30.2420   42.2600 N   0  0  0  0  0  0  0  0  0  0  0  0
   40.0190   31.6140   41.1930 H   0  0  0  0  0  0  0  0  0  0  0  0
   38.0820   32.3750   39.8150 H   0  0  0  0  0  0  0  0  0  0  0  0
   35.8680   31.2860   40.2500 H   0  0  0  0  0  0  0  0  0  0  0  0
  1  2  1  0  0  0  0
  1  3  1  0  0  0  0
  5  4  1  0  0  0  0
  5  1  1  0  0  0  0
  6  5  2  0  0  0  0
  7  6  1  0  0  0  0
  8 13  2  0  0  0  0
  8  6  1  0  0  0  0
  9  8  1  0  0  0  0
 10  9  1  0  0  0  0
 10 12  2  0  0  0  0
 11 10  1  0  0  0  0
 12 13  1  0  0  0  0
 13 14  1  0  0  0  0
 14  4  2  0  0  0  0
 15  9  1  0  0  0  0
 16 21  1  0  0  0  0
 17 18  1  0  0  0  0
 17 16  2  0  0  0  0
 18 19  2  0  0  0  0
 19 20  1  0  0  0  0
 20  1  1  0  0  0  0
 21 20  2  0  0  0  0
 22 16  1  0  0  0  0
 23 17  1  0  0  0  0
 24 18  1  0  0  0  0
M  END
>  <minimizedAffinity>
-4.78342867

$$$$

 OpenBabel03242522343D

 24 26  0  0  0  0  0  0  0  0999 V2000
   37.5630   28.1970   43.6790 C   0  0  0  0  0  0  0  0  0  0  0  0
   38.3160   28.3630   44.4960 H   0  0  0  0  0  0  0  0  0  0  0  0
   36.5450   28.2570   44.0730 H   0  0  0  0  0  0  0  0  0  0  0  0
   36.9400   29.6170   41.6760 C   0  0  0  0  0  3  0  0  0  0  0  0
   37.8060   29.2800   42.6970 C   0  0  0  0  0  0  0  0  0  0  0  0
   38.9820   29.9880   42.8260 C   0  0  0  0  0  0  0  0  0  0  0  0
   39.7220   29.7920   43.5980 H   0  0  0  0  0  0  0  0  0  0  0  0
   39.2610   31.0170   41.9280 C   0  0  0  0  0  0  0  0  0  0  0  0
   40.3080   31.8710   41.8030 N   0  0  0  0  0  0  0  0  0  0  0  0
   40.0540   32.6710   40.7490 C   0  0  0  0  0  0  0  0  0  0  0  0
   40.6760   33.4650   40.3640 H   0  0  0  0  0  0  0  0  0  0  0  0
   38.8660   32.3460   40.1970 N   0  0  0  0  0  0  0  0  0  0  0  0
   38.3530   31.3240   40.9100 C   0  0  0  0  0  0  0  0  0  0  0  0
   37.1820   30.6280   40.7700 C   0  0  0  0  0  3  0  0  0  0  0  0
   41.1590   31.8800   42.4370 H   0  0  0  0  0  0  0  0  0  0  0  0
   37.4160   24.9130   41.9320 C   0  0  0  0  0  0  0  0  0  0  0  0
   38.7070   24.3970   42.1690 C   0  0  0  0  0  0  0  0  0  0  0  0
   39.5630   25.1930   42.9140 C   0  0  0  0  0  0  0  0  0  0  0  0
   39.1590   26.4110   43.3830 N   0  0  0  0  0  0  0  0  0  0  0  0
   37.9000   26.8590   43.1220 C   0  0  0  0  0  0  0  0  0  0  0  0
   37.0600   26.1040   42.4060 N   0  0  0  0  0  0  0  0  0  0  0  0
   36.6920   24.3640   41.3680 H   0  0  0  0  0  0  0  0  0  0  0  0
   38.9690   23.4250   41.7730 H   0  0  0  0  0  0  0  0  0  0  0  0
   40.5610   24.8210   43.1120 H   0  0  0  0  0  0  0  0  0  0  0  0
  1  3  1  0  0  0  0
  1  2  1  0  0  0  0
  4  5  1  0  0  0  0
  5  6  2  0  0  0  0
  5  1  1  0  0  0  0
  6  7  1  0  0  0  0
  8  6  1  0  0  0  0
  9  8  1  0  0  0  0
  9 15  1  0  0  0  0
 10  9  1  0  0  0  0
 11 10  1  0  0  0  0
 12 10  2  0  0  0  0
 12 13  1  0  0  0  0
 13  8  2  0  0  0  0
 14 13  1  0  0  0  0
 14  4  2  0  0  0  0
 16 17  2  0  0  0  0
 16 21  1  0  0  0  0
 17 18  1  0  0  0  0
 18 24  1  0  0  0  0
 18 19  2  0  0  0  0
 20 19  1  0  0  0  0
 20  1  1  0  0  0  0
 21 20  2  0  0  0  0
 22 16  1  0  0  0  0
 23 17  1  0  0  0  0
M  END
>  <minimizedAffinity>
-4.75134087

$$$$

 OpenBabel03242522343D

 24 26  0  0  0  0  0  0  0  0999 V2000
   36.1340   28.6980   39.4540 C   0  0  0  0  0  0  0  0  0  0  0  0
   35.1520   29.1000   39.8230 H   0  0  0  0  0  0  0  0  0  0  0  0
   36.0380   28.3170   38.4340 H   0  0  0  0  0  0  0  0  0  0  0  0
   38.4270   29.7580   39.2670 C   0  0  0  0  0  3  0  0  0  0  0  0
   37.0680   29.8470   39.4960 C   0  0  0  0  0  0  0  0  0  0  0  0
   36.5270   31.0820   39.7860 C   0  0  0  0  0  0  0  0  0  0  0  0
   35.4710   31.2470   39.9800 H   0  0  0  0  0  0  0  0  0  0  0  0
   37.3620   32.1970   39.8380 C   0  0  0  0  0  0  0  0  0  0  0  0
   37.1300   33.5100   40.0910 N   0  0  0  0  0  0  0  0  0  0  0  0
   38.3110   34.1530   40.0110 C   0  0  0  0  0  0  0  0  0  0  0  0
   38.4950   35.2070   40.1560 H   0  0  0  0  0  0  0  0  0  0  0  0
   39.2940   33.2780   39.7110 N   0  0  0  0  0  0  0  0  0  0  0  0
   38.7320   32.0580   39.5980 C   0  0  0  0  0  0  0  0  0  0  0  0
   39.2830   30.8380   39.3100 C   0  0  0  0  0  3  0  0  0  0  0  0
   36.1770   33.9230   40.3100 H   0  0  0  0  0  0  0  0  0  0  0  0
   37.1650   25.4940   41.0460 C   0  0  0  0  0  0  0  0  0  0  0  0
   37.1640   25.8320   42.4140 C   0  0  0  0  0  0  0  0  0  0  0  0
   36.8110   27.1350   42.7280 C   0  0  0  0  0  0  0  0  0  0  0  0
   36.4860   28.0300   41.7470 N   0  0  0  0  0  0  0  0  0  0  0  0
   36.5040   27.6470   40.4410 C   0  0  0  0  0  0  0  0  0  0  0  0
   36.8420   26.3930   40.1200 N   0  0  0  0  0  0  0  0  0  0  0  0
   37.4240   24.5100   40.7160 H   0  0  0  0  0  0  0  0  0  0  0  0
   37.4300   25.0810   43.1450 H   0  0  0  0  0  0  0  0  0  0  0  0
   36.8010   27.4240   43.7720 H   0  0  0  0  0  0  0  0  0  0  0  0
  1  5  1  0  0  0  0
  1  2  1  0  0  0  0
  1 20  1  0  0  0  0
  3  1  1  0  0  0  0
  4 14  2  0  0  0  0
  4  5  1  0  0  0  0
  5  6  2  0  0  0  0
  6  8  1  0  0  0  0
  6  7  1  0  0  0  0
  8  9  1  0  0  0  0
  9 15  1  0  0  0  0
 10  9  1  0  0  0  0
 10 11  1  0  0  0  0
 12 10  2  0  0  0  0
 13 12  1  0  0  0  0
 13  8  2  0  0  0  0
 14 13  1  0  0  0  0
 16 17  1  0  0  0  0
 17 18  2  0  0  0  0
 17 23  1  0  0  0  0
 18 24  1  0  0  0  0
 19 18  1  0  0  0  0
 20 19  2  0  0  0  0
 21 20  1  0  0  0  0
 21 16  2  0  0  0  0
 22 16  1  0  0  0  0
M  END
>  <minimizedAffinity>
-4.72839546

$$$$

 OpenBabel03242522343D

 24 26  0  0  0  0  0  0  0  0999 V2000
   36.3080   27.8140   42.5370 C   0  0  0  0  0  0  0  0  0  0  0  0
   35.4710   27.1320   42.2250 H   0  0  0  0  0  0  0  0  0  0  0  0
   36.0920   28.2740   43.5050 H   0  0  0  0  0  0  0  0  0  0  0  0
   37.5400   25.6200   42.2450 C   0  0  0  0  0  3  0  0  0  0  0  0
   37.5060   26.9470   42.6260 C   0  0  0  0  0  0  0  0  0  0  0  0
   38.6550   27.5190   43.1270 C   0  0  0  0  0  0  0  0  0  0  0  0
   38.7210   28.5540   43.4520 H   0  0  0  0  0  0  0  0  0  0  0  0
   39.8120   26.7480   43.2340 C   0  0  0  0  0  0  0  0  0  0  0  0
   41.0650   27.0230   43.6760 N   0  0  0  0  0  0  0  0  0  0  0  0
   41.7940   25.8970   43.5540 C   0  0  0  0  0  0  0  0  0  0  0  0
   42.8330   25.7580   43.8130 H   0  0  0  0  0  0  0  0  0  0  0  0
   41.0330   24.9070   43.0420 N   0  0  0  0  0  0  0  0  0  0  0  0
   39.8000   25.4090   42.8340 C   0  0  0  0  0  0  0  0  0  0  0  0
   38.6640   24.8270   42.3350 C   0  0  0  0  0  3  0  0  0  0  0  0
   41.3810   27.9670   44.0460 H   0  0  0  0  0  0  0  0  0  0  0  0
   36.7230   30.9490   40.5730 C   0  0  0  0  0  0  0  0  0  0  0  0
   36.6040   30.4830   39.2470 C   0  0  0  0  0  0  0  0  0  0  0  0
   36.3880   29.1240   39.0880 C   0  0  0  0  0  0  0  0  0  0  0  0
   36.2980   28.2960   40.1710 N   0  0  0  0  0  0  0  0  0  0  0  0
   36.4210   28.8020   41.4290 C   0  0  0  0  0  0  0  0  0  0  0  0
   36.6300   30.1110   41.6010 N   0  0  0  0  0  0  0  0  0  0  0  0
   36.8900   31.9840   40.7860 H   0  0  0  0  0  0  0  0  0  0  0  0
   36.6830   31.1870   38.4300 H   0  0  0  0  0  0  0  0  0  0  0  0
   36.2920   28.7370   38.0800 H   0  0  0  0  0  0  0  0  0  0  0  0
  1  5  1  0  0  0  0
  1  3  1  0  0  0  0
  2  1  1  0  0  0  0
  4 14  2  0  0  0  0
  4  5  1  0  0  0  0
  5  6  2  0  0  0  0
  6  8  1  0  0  0  0
  6  7  1  0  0  0  0
  8  9  1  0  0  0  0
  9 15  1  0  0  0  0
 10  9  1  0  0  0  0
 10 11  1  0  0  0  0
 12 10  2  0  0  0  0
 13 12  1  0  0  0  0
 13  8  2  0  0  0  0
 14 13  1  0  0  0  0
 16 22  1  0  0  0  0
 16 21  1  0  0  0  0
 17 16  2  0  0  0  0
 18 17  1  0  0  0  0
 18 19  2  0  0  0  0
 19 20  1  0  0  0  0
 20 21  2  0  0  0  0
 20  1  1  0  0  0  0
 23 17  1  0  0  0  0
 24 18  1  0  0  0  0
M  END
>  <minimizedAffinity>
-4.58057928

$$$$

 OpenBabel03242522343D

 24 26  0  0  0  0  0  0  0  0999 V2000
   36.3410   30.8530   40.5960 C   0  0  0  0  0  0  0  0  0  0  0  0
   35.9770   31.5100   41.4310 H   0  0  0  0  0  0  0  0  0  0  0  0
   35.5770   30.7540   39.8200 H   0  0  0  0  0  0  0  0  0  0  0  0
   38.1130   32.6630   40.6120 C   0  0  0  0  0  3  0  0  0  0  0  0
   37.5440   31.5320   40.0600 C   0  0  0  0  0  0  0  0  0  0  0  0
   38.1210   30.9840   38.9340 C   0  0  0  0  0  0  0  0  0  0  0  0
   37.7430   30.0980   38.4330 H   0  0  0  0  0  0  0  0  0  0  0  0
   39.2560   31.5840   38.3890 C   0  0  0  0  0  0  0  0  0  0  0  0
   40.0280   31.2850   37.3140 N   0  0  0  0  0  0  0  0  0  0  0  0
   41.0060   32.2100   37.2490 C   0  0  0  0  0  0  0  0  0  0  0  0
   41.7980   32.2760   36.5180 H   0  0  0  0  0  0  0  0  0  0  0  0
   40.8750   33.0930   38.2610 N   0  0  0  0  0  0  0  0  0  0  0  0
   39.7970   32.7280   38.9820 C   0  0  0  0  0  0  0  0  0  0  0  0
   39.2340   33.2820   40.1010 C   0  0  0  0  0  3  0  0  0  0  0  0
   39.8640   30.4640   36.6620 H   0  0  0  0  0  0  0  0  0  0  0  0
   36.7210   27.2330   41.3810 C   0  0  0  0  0  0  0  0  0  0  0  0
   37.3930   27.2710   42.6190 C   0  0  0  0  0  0  0  0  0  0  0  0
   37.6830   28.5270   43.1260 C   0  0  0  0  0  0  0  0  0  0  0  0
   37.3290   29.6580   42.4460 N   0  0  0  0  0  0  0  0  0  0  0  0
   36.6810   29.5610   41.2530 C   0  0  0  0  0  0  0  0  0  0  0  0
   36.3920   28.3570   40.7490 N   0  0  0  0  0  0  0  0  0  0  0  0
   36.4580   26.3050   40.9170 H   0  0  0  0  0  0  0  0  0  0  0  0
   37.6470   26.3420   43.1120 H   0  0  0  0  0  0  0  0  0  0  0  0
   38.1990   28.5870   44.0780 H   0  0  0  0  0  0  0  0  0  0  0  0
  1 20  1  0  0  0  0
  1  2  1  0  0  0  0
  3  1  1  0  0  0  0
  5  1  1  0  0  0  0
  5  4  2  0  0  0  0
  6  5  1  0  0  0  0
  7  6  1  0  0  0  0
  8  6  2  0  0  0  0
  8 13  1  0  0  0  0
  9  8  1  0  0  0  0
 10  9  1  0  0  0  0
 10 12  2  0  0  0  0
 11 10  1  0  0  0  0
 12 13  1  0  0  0  0
 13 14  2  0  0  0  0
 14  4  1  0  0  0  0
 15  9  1  0  0  0  0
 16 17  1  0  0  0  0
 17 23  1  0  0  0  0
 17 18  2  0  0  0  0
 18 24  1  0  0  0  0
 19 18  1  0  0  0  0
 20 19  2  0  0  0  0
 21 20  1  0  0  0  0
 21 16  2  0  0  0  0
 22 16  1  0  0  0  0
M  END
>  <minimizedAffinity>
-4.5728054

$$$$
