
 OpenBabel03242518073D

 38 41  0  0  1  0  0  0  0  0999 V2000
   46.3970   34.8660   42.1810 N   0  0  0  0  0  0  0  0  0  0  0  0
   47.7420   35.3530   42.0040 C   0  0  0  0  0  0  0  0  0  0  0  0
   48.5830   34.3740   41.3030 C   0  0  0  0  0  0  0  0  0  0  0  0
   47.8900   33.3530   40.4900 C   0  0  0  0  0  0  0  0  0  0  0  0
   46.4940   33.6120   40.0940 C   0  0  0  0  0  0  0  0  0  0  0  0
   45.6700   34.4770   41.0210 C   0  0  1  0  0  0  0  0  0  0  0  0
   47.6410   36.2930   41.4050 H   0  0  0  0  0  0  0  0  0  0  0  0
   48.1830   35.6860   42.9740 H   0  0  0  0  0  0  0  0  0  0  0  0
   49.2650   33.9130   42.0530 H   0  0  0  0  0  0  0  0  0  0  0  0
   49.2970   34.9620   40.6510 H   0  0  0  0  0  0  0  0  0  0  0  0
   48.4890   33.1650   39.5560 H   0  0  0  0  0  0  0  0  0  0  0  0
   47.9660   32.3790   41.0360 H   0  0  0  0  0  0  0  0  0  0  0  0
   45.9620   32.6150   40.0420 H   0  0  0  0  0  0  0  0  0  0  0  0
   46.4480   33.9790   39.0470 H   0  0  0  0  0  0  0  0  0  0  0  0
   45.5020   35.4410   40.4510 H   0  0  0  0  0  0  0  0  0  0  0  0
   43.1780   34.5390   40.7810 C   0  0  0  0  0  0  0  0  0  0  0  0
   44.3330   33.8990   41.2460 C   0  0  0  0  0  0  0  0  0  0  0  0
   44.0340   32.7140   41.8760 C   0  0  0  0  0  0  0  0  0  0  0  0
   44.8270   32.1200   42.2610 H   0  0  0  0  0  0  0  0  0  0  0  0
   42.7690   32.1970   42.0440 C   0  0  0  0  0  0  0  0  0  0  0  0
   42.2960   31.0790   42.6220 N   0  0  0  0  0  0  0  0  0  0  0  0
   40.9520   31.0880   42.4900 C   0  0  0  0  0  0  0  0  0  0  0  0
   40.3590   30.2610   42.8930 H   0  0  0  0  0  0  0  0  0  0  0  0
   40.5790   32.1890   41.8410 N   0  0  0  0  0  0  0  0  0  0  0  0
   41.6870   32.8950   41.5530 C   0  0  0  0  0  0  0  0  0  0  0  0
   41.8770   34.0960   40.9030 C   0  0  0  0  0  0  0  0  0  0  0  0
   42.8990   30.3480   43.0850 H   0  0  0  0  0  0  0  0  0  0  0  0
   45.0210   35.8850   43.8950 C   0  0  0  0  0  0  0  0  0  0  0  0
   45.8510   34.8100   43.4720 C   0  0  0  0  0  0  0  0  0  0  0  0
   46.0550   33.7690   44.3770 C   0  0  0  0  0  0  0  0  0  0  0  0
   45.4570   33.8480   45.5830 N   0  0  0  0  0  0  0  0  0  0  0  0
   44.6820   34.8690   45.9530 C   0  0  0  0  0  0  0  0  0  0  0  0
   44.4600   35.8880   45.1170 N   0  0  0  0  0  0  0  0  0  0  0  0
   44.7860   36.9780   43.0050 N   0  0  0  0  0  0  0  0  0  0  0  0
   46.6930   32.9450   44.0520 H   0  0  0  0  0  0  0  0  0  0  0  0
   44.2090   34.9120   46.9280 H   0  0  0  0  0  0  0  0  0  0  0  0
   45.5910   37.4960   42.5440 H   0  0  0  0  0  0  0  0  0  0  0  0
   43.8710   37.3990   42.6980 H   0  0  0  0  0  0  0  0  0  0  0  0
  1 29  1  0  0  0  0
  2  1  1  0  0  0  0
  2  8  1  0  0  0  0
  3  2  1  0  0  0  0
  3  9  1  0  0  0  0
  4 12  1  0  0  0  0
  4  3  1  0  0  0  0
  5  4  1  0  0  0  0
  5  6  1  0  0  0  0
  6 15  1  6  0  0  0
  6 17  1  0  0  0  0
  6  1  1  0  0  0  0
  7  2  1  0  0  0  0
 10  3  1  0  0  0  0
 11  4  1  0  0  0  0
 13  5  1  0  0  0  0
 14  5  1  0  0  0  0
 16 26  2  0  0  0  0
 16 17  1  0  0  0  0
 17 18  2  0  0  0  0
 18 20  1  0  0  0  0
 18 19  1  0  0  0  0
 20 21  1  0  0  0  0
 21 27  1  0  0  0  0
 22 21  1  0  0  0  0
 22 23  1  0  0  0  0
 24 22  2  0  0  0  0
 25 24  1  0  0  0  0
 25 20  2  0  0  0  0
 26 25  1  0  0  0  0
 28 33  1  0  0  0  0
 29 28  2  0  0  0  0
 29 30  1  0  0  0  0
 30 31  2  0  0  0  0
 31 32  1  0  0  0  0
 32 36  1  0  0  0  0
 33 32  2  0  0  0  0
 34 28  1  0  0  0  0
 35 30  1  0  0  0  0
 37 34  1  0  0  0  0
 38 34  1  0  0  0  0
M  END
>  <minimizedAffinity>
-6.21163034

>  <minimizedRMSD>
0.251371026

$$$$
