
 OpenBabel03252503343D

 25 27  0  0  0  0  0  0  0  0999 V2000
   46.5630   33.7930   40.9160 C   0  0  0  0  0  0  0  0  0  0  0  0
   45.3260   33.5500   40.9480 O   0  0  0  0  0  0  0  0  0  0  0  0
   47.0310   34.5080   42.0480 N   0  0  0  0  0  0  0  0  0  0  0  0
   48.0190   34.8340   42.1170 H   0  0  0  0  0  0  0  0  0  0  0  0
   47.3260   33.7690   38.5150 C   0  0  0  0  0  3  0  0  0  0  0  0
   47.4580   33.3920   39.8350 C   0  0  0  0  0  0  0  0  0  0  0  0
   48.5260   32.5690   40.1540 C   0  0  0  0  0  0  0  0  0  0  0  0
   48.7590   32.1910   41.1420 H   0  0  0  0  0  0  0  0  0  0  0  0
   49.4310   32.1390   39.1830 C   0  0  0  0  0  0  0  0  0  0  0  0
   50.5300   31.3710   39.1370 N   0  0  0  0  0  0  0  0  0  0  0  0
   51.0000   31.3090   37.8800 C   0  0  0  0  0  0  0  0  0  0  0  0
   51.8690   30.7770   37.4970 H   0  0  0  0  0  0  0  0  0  0  0  0
   50.2130   32.0420   37.0560 N   0  0  0  0  0  0  0  0  0  0  0  0
   49.2630   32.5390   37.8710 C   0  0  0  0  0  0  0  0  0  0  0  0
   48.2060   33.3560   37.5420 C   0  0  0  0  0  3  0  0  0  0  0  0
   50.9460   30.8960   39.9740 H   0  0  0  0  0  0  0  0  0  0  0  0
   44.6030   36.2740   44.2360 C   0  0  0  0  0  0  0  0  0  0  0  0
   45.4260   35.9920   43.1240 C   0  0  0  0  0  0  0  0  0  0  0  0
   46.1930   34.8230   43.1500 C   0  0  0  0  0  0  0  0  0  0  0  0
   46.1270   34.0090   44.2220 N   0  0  0  0  0  0  0  0  0  0  0  0
   45.3170   34.3110   45.2870 C   0  0  0  0  0  0  0  0  0  0  0  0
   44.5760   35.4310   45.2720 N   0  0  0  0  0  0  0  0  0  0  0  0
   43.9970   37.1690   44.2490 H   0  0  0  0  0  0  0  0  0  0  0  0
   45.4390   36.6850   42.2870 H   0  0  0  0  0  0  0  0  0  0  0  0
   45.3420   33.5890   46.0890 H   0  0  0  0  0  0  0  0  0  0  0  0
  1  2  2  0  0  0  0
  1  3  1  0  0  0  0
  3  4  1  0  0  0  0
  3 19  1  0  0  0  0
  5  6  1  0  0  0  0
  6  7  2  0  0  0  0
  6  1  1  0  0  0  0
  7  8  1  0  0  0  0
  9  7  1  0  0  0  0
 10  9  1  0  0  0  0
 10 16  1  0  0  0  0
 11 10  1  0  0  0  0
 12 11  1  0  0  0  0
 13 14  1  0  0  0  0
 13 11  2  0  0  0  0
 14  9  2  0  0  0  0
 15 14  1  0  0  0  0
 15  5  2  0  0  0  0
 17 23  1  0  0  0  0
 17 22  1  0  0  0  0
 18 19  1  0  0  0  0
 18 17  2  0  0  0  0
 19 20  2  0  0  0  0
 20 21  1  0  0  0  0
 21 25  1  0  0  0  0
 22 21  2  0  0  0  0
 24 18  1  0  0  0  0
M  END
>  <minimizedAffinity>
-4.47766066

>  <minimizedRMSD>
0.876996636

$$$$
