
 OpenBabel03252509003D

 48 51  0  0  1  0  0  0  0  0999 V2000
   47.1720   34.1570   43.0880 N   0  0  0  0  0  0  0  0  0  0  0  0
   46.6780   35.3440   42.4880 C   0  0  0  0  0  0  0  0  0  0  0  0
   45.2070   35.6070   42.6830 C   0  0  0  0  0  0  0  0  0  0  0  0
   44.6520   35.1080   43.9910 C   0  0  0  0  0  0  0  0  0  0  0  0
   45.7350   34.5400   44.8770 C   0  0  0  0  0  0  0  0  0  0  0  0
   46.3900   33.4310   43.9740 C   0  0  2  0  0  0  0  0  0  0  0  0
   46.8970   35.4760   41.4260 H   0  0  0  0  0  0  0  0  0  0  0  0
   47.2060   36.1960   43.0100 H   0  0  0  0  0  0  0  0  0  0  0  0
   45.0450   36.7190   42.5800 H   0  0  0  0  0  0  0  0  0  0  0  0
   44.6490   35.1440   41.8360 H   0  0  0  0  0  0  0  0  0  0  0  0
   44.1870   35.9500   44.5470 H   0  0  0  0  0  0  0  0  0  0  0  0
   43.8960   34.3310   43.8220 H   0  0  0  0  0  0  0  0  0  0  0  0
   45.2830   34.0280   45.7320 H   0  0  0  0  0  0  0  0  0  0  0  0
   46.5130   35.2620   45.1300 H   0  0  0  0  0  0  0  0  0  0  0  0
   45.5510   32.8230   43.5590 H   0  0  0  0  0  0  0  0  0  0  0  0
   48.1490   33.4640   42.3010 C   0  0  0  0  0  0  0  0  0  0  0  0
   48.7290   32.7740   42.9660 H   0  0  0  0  0  0  0  0  0  0  0  0
   48.8510   34.1750   41.8600 H   0  0  0  0  0  0  0  0  0  0  0  0
   47.4410   32.5930   41.3080 C   0  0  0  0  0  0  0  0  0  0  0  0
   46.3660   32.8690   41.2430 H   0  0  0  0  0  0  0  0  0  0  0  0
   47.4810   31.5120   41.5370 H   0  0  0  0  0  0  0  0  0  0  0  0
   49.3520   32.0970   38.1130 C   0  0  0  0  0  0  0  0  0  0  0  0
   48.8110   31.8820   39.3930 C   0  0  0  0  0  0  0  0  0  0  0  0
   48.0030   32.8390   39.9550 C   0  0  0  0  0  0  0  0  0  0  0  0
   47.7670   33.9480   39.2430 N   0  0  0  0  0  0  0  0  0  0  0  0
   48.2820   34.1560   38.0200 C   0  0  0  0  0  0  0  0  0  0  0  0
   49.0750   33.2400   37.4440 N   0  0  0  0  0  0  0  0  0  0  0  0
   49.9920   31.3770   37.6250 H   0  0  0  0  0  0  0  0  0  0  0  0
   49.0410   30.9750   39.9020 H   0  0  0  0  0  0  0  0  0  0  0  0
   48.0210   35.0920   37.5410 H   0  0  0  0  0  0  0  0  0  0  0  0
   47.1670   32.7460   44.9010 O   0  0  0  0  0  0  0  0  0  0  0  0
   45.9360   30.5800   43.9930 O   0  0  0  0  0  0  0  0  0  0  0  0
   46.5840   31.1970   45.2170 P   0  0  2  0  0  0  0  0  0  0  0  0
   45.3130   31.3920   46.3480 O   0  0  0  0  0  0  0  0  0  0  0  0
   45.6590   31.2230   47.2590 H   0  0  0  0  0  0  0  0  0  0  0  0
   47.7560   30.2340   45.9070 O   0  0  0  0  0  0  0  0  0  0  0  0
   47.3280   28.1040   44.9850 C   0  0  0  0  0  3  0  0  0  0  0  0
   47.7300   28.8790   46.0800 C   0  0  0  0  0  0  0  0  0  0  0  0
   48.0690   28.2280   47.2500 C   0  0  0  0  0  0  0  0  0  0  0  0
   48.3840   28.8260   48.1080 H   0  0  0  0  0  0  0  0  0  0  0  0
   48.0040   26.8330   47.3080 C   0  0  0  0  0  0  0  0  0  0  0  0
   48.2850   25.9850   48.3340 N   0  0  0  0  0  0  0  0  0  0  0  0
   48.0820   24.7100   47.9410 C   0  0  0  0  0  0  0  0  0  0  0  0
   48.2340   23.8440   48.5720 H   0  0  0  0  0  0  0  0  0  0  0  0
   47.6680   24.7690   46.6560 N   0  0  0  0  0  0  0  0  0  0  0  0
   47.6110   26.0580   46.2380 C   0  0  0  0  0  0  0  0  0  0  0  0
   47.2740   26.7190   45.0750 C   0  0  0  0  0  3  0  0  0  0  0  0
   48.6080   26.3140   49.2690 H   0  0  0  0  0  0  0  0  0  0  0  0
  1  6  1  0  0  0  0
  2  3  1  0  0  0  0
  2  8  1  0  0  0  0
  2  1  1  0  0  0  0
  3  4  1  0  0  0  0
  4 11  1  0  0  0  0
  4  5  1  0  0  0  0
  5 14  1  0  0  0  0
  5 13  1  0  0  0  0
  6 15  1  6  0  0  0
  6  5  1  0  0  0  0
  6 31  1  0  0  0  0
  7  2  1  0  0  0  0
  9  3  1  0  0  0  0
 10  3  1  0  0  0  0
 12  4  1  0  0  0  0
 16 17  1  0  0  0  0
 16  1  1  0  0  0  0
 18 16  1  0  0  0  0
 19 21  1  0  0  0  0
 19 16  1  0  0  0  0
 20 19  1  0  0  0  0
 22 23  1  0  0  0  0
 23 29  1  0  0  0  0
 23 24  2  0  0  0  0
 24 19  1  0  0  0  0
 25 24  1  0  0  0  0
 26 25  2  0  0  0  0
 27 26  1  0  0  0  0
 27 22  2  0  0  0  0
 28 22  1  0  0  0  0
 30 26  1  0  0  0  0
 31 33  1  0  0  0  0
 33 32  2  6  0  0  0
 33 36  1  0  0  0  0
 33 34  1  0  0  0  0
 34 35  1  0  0  0  0
 36 38  1  0  0  0  0
 37 47  2  0  0  0  0
 37 38  1  0  0  0  0
 38 39  2  0  0  0  0
 39 41  1  0  0  0  0
 39 40  1  0  0  0  0
 41 42  1  0  0  0  0
 42 48  1  0  0  0  0
 43 42  1  0  0  0  0
 43 44  1  0  0  0  0
 45 43  2  0  0  0  0
 46 45  1  0  0  0  0
 46 41  2  0  0  0  0
 47 46  1  0  0  0  0
M  END
>  <minimizedAffinity>
-4.07297087

>  <minimizedRMSD>
0.260665327

$$$$
