
 OpenBabel03242512193D

 36 39  0  0  0  0  0  0  0  0999 V2000
   36.4900   31.1730   39.7980 C   0  0  0  0  0  0  0  0  0  0  0  0
   37.2060   32.1390   39.1180 C   0  0  0  0  0  0  0  0  0  0  0  0
   37.6840   31.8490   37.8600 C   0  0  0  0  0  0  0  0  0  0  0  0
   37.4440   30.6090   37.3070 C   0  0  0  0  0  0  0  0  0  0  0  0
   36.7300   29.6720   38.0110 C   0  0  0  0  0  0  0  0  0  0  0  0
   36.2320   29.9360   39.2850 C   0  0  0  0  0  0  0  0  0  0  0  0
   38.2490   32.6420   37.3510 H   0  0  0  0  0  0  0  0  0  0  0  0
   37.8230   30.3850   36.3170 H   0  0  0  0  0  0  0  0  0  0  0  0
   36.5490   28.7030   37.5620 H   0  0  0  0  0  0  0  0  0  0  0  0
   37.3920   33.4250   39.8280 C   0  0  0  0  0  0  0  0  0  0  0  0
   36.7540   33.5350   40.6850 H   0  0  0  0  0  0  0  0  0  0  0  0
   37.1000   34.2370   39.1020 H   0  0  0  0  0  0  0  0  0  0  0  0
   38.8670   33.6250   40.1340 C   0  0  0  0  0  0  0  0  0  0  0  0
   39.3740   34.9090   40.0150 C   0  0  0  0  0  0  0  0  0  0  0  0
   40.7250   35.0900   40.3070 C   0  0  0  0  0  0  0  0  0  0  0  0
   41.4460   34.0230   40.6810 N   0  0  0  0  0  0  0  0  0  0  0  0
   40.9180   32.7700   40.7900 C   0  0  0  0  0  0  0  0  0  0  0  0
   39.6250   32.5820   40.5140 N   0  0  0  0  0  0  0  0  0  0  0  0
   38.7640   35.7490   39.7100 H   0  0  0  0  0  0  0  0  0  0  0  0
   41.1910   36.0830   40.2330 H   0  0  0  0  0  0  0  0  0  0  0  0
   41.5910   31.9790   41.1010 H   0  0  0  0  0  0  0  0  0  0  0  0
   35.9600   31.3790   41.0930 O   0  0  0  0  0  0  0  0  0  0  0  0
   35.0070   31.1260   41.3200 H   0  0  0  0  0  0  0  0  0  0  0  0
   35.5150   28.9320   39.9360 O   0  0  0  0  0  0  0  0  0  0  0  0
   36.4430   28.1120   41.8840 C   0  0  0  0  0  3  0  0  0  0  0  0
   36.1820   27.9140   40.5470 C   0  0  0  0  0  0  0  0  0  0  0  0
   36.5740   26.7640   39.8860 C   0  0  0  0  0  0  0  0  0  0  0  0
   36.3410   26.6620   38.8310 H   0  0  0  0  0  0  0  0  0  0  0  0
   37.2460   25.7990   40.6120 C   0  0  0  0  0  0  0  0  0  0  0  0
   37.7280   24.6010   40.2020 N   0  0  0  0  0  0  0  0  0  0  0  0
   38.3050   24.0270   41.2930 C   0  0  0  0  0  0  0  0  0  0  0  0
   38.8130   23.0570   41.4010 H   0  0  0  0  0  0  0  0  0  0  0  0
   38.1520   24.8890   42.3100 N   0  0  0  0  0  0  0  0  0  0  0  0
   37.5050   25.9990   41.9500 C   0  0  0  0  0  0  0  0  0  0  0  0
   37.1170   27.1490   42.6210 C   0  0  0  0  0  3  0  0  0  0  0  0
   37.6960   24.1570   39.2610 H   0  0  0  0  0  0  0  0  0  0  0  0
  1 22  1  0  0  0  0
  2  1  2  0  0  0  0
  2 10  1  0  0  0  0
  3  2  1  0  0  0  0
  4  3  2  0  0  0  0
  4  5  1  0  0  0  0
  5  6  2  0  0  0  0
  6  1  1  0  0  0  0
  6 24  1  0  0  0  0
  7  3  1  0  0  0  0
  8  4  1  0  0  0  0
  9  5  1  0  0  0  0
 10 13  1  0  0  0  0
 10 11  1  0  0  0  0
 12 10  1  0  0  0  0
 13 18  1  0  0  0  0
 14 13  2  0  0  0  0
 14 15  1  0  0  0  0
 15 16  2  0  0  0  0
 16 17  1  0  0  0  0
 17 21  1  0  0  0  0
 18 17  2  0  0  0  0
 19 14  1  0  0  0  0
 20 15  1  0  0  0  0
 22 23  1  0  0  0  0
 24 26  1  0  0  0  0
 25 35  1  0  0  0  0
 26 25  2  0  0  0  0
 27 26  1  0  0  0  0
 27 29  2  0  0  0  0
 28 27  1  0  0  0  0
 29 34  1  0  0  0  0
 30 29  1  0  0  0  0
 30 31  1  0  0  0  0
 31 32  1  0  0  0  0
 31 33  2  0  0  0  0
 34 33  1  0  0  0  0
 34 35  2  0  0  0  0
 36 30  1  0  0  0  0
M  END
>  <minimizedAffinity>
-6.63811874

$$$$

 OpenBabel03242512193D

 36 39  0  0  0  0  0  0  0  0999 V2000
   36.9870   28.2170   41.9880 C   0  0  0  0  0  0  0  0  0  0  0  0
   36.2580   28.2940   40.8170 C   0  0  0  0  0  0  0  0  0  0  0  0
   36.3140   27.2430   39.9300 C   0  0  0  0  0  0  0  0  0  0  0  0
   37.0930   26.1430   40.2230 C   0  0  0  0  0  0  0  0  0  0  0  0
   37.8060   26.1010   41.3950 C   0  0  0  0  0  0  0  0  0  0  0  0
   37.7680   27.1480   42.3130 C   0  0  0  0  0  0  0  0  0  0  0  0
   35.7210   27.3400   39.0100 H   0  0  0  0  0  0  0  0  0  0  0  0
   37.1340   25.3180   39.5210 H   0  0  0  0  0  0  0  0  0  0  0  0
   38.4120   25.2290   41.6100 H   0  0  0  0  0  0  0  0  0  0  0  0
   35.4660   29.5310   40.6280 C   0  0  0  0  0  0  0  0  0  0  0  0
   34.9580   29.8510   41.5180 H   0  0  0  0  0  0  0  0  0  0  0  0
   34.6670   29.2870   39.8700 H   0  0  0  0  0  0  0  0  0  0  0  0
   36.3440   30.6030   40.0060 C   0  0  0  0  0  0  0  0  0  0  0  0
   36.5570   30.5380   38.6390 C   0  0  0  0  0  0  0  0  0  0  0  0
   37.3550   31.5290   38.0700 C   0  0  0  0  0  0  0  0  0  0  0  0
   37.8640   32.4770   38.8710 N   0  0  0  0  0  0  0  0  0  0  0  0
   37.6360   32.5150   40.2150 C   0  0  0  0  0  0  0  0  0  0  0  0
   36.8730   31.5720   40.7730 N   0  0  0  0  0  0  0  0  0  0  0  0
   36.1310   29.7590   38.0200 H   0  0  0  0  0  0  0  0  0  0  0  0
   37.5640   31.5370   36.9900 H   0  0  0  0  0  0  0  0  0  0  0  0
   38.0970   33.3260   40.7680 H   0  0  0  0  0  0  0  0  0  0  0  0
   36.9910   29.2460   42.9590 O   0  0  0  0  0  0  0  0  0  0  0  0
   36.8730   29.0450   43.9430 H   0  0  0  0  0  0  0  0  0  0  0  0
   38.5200   27.0300   43.4820 O   0  0  0  0  0  0  0  0  0  0  0  0
   40.4880   28.1890   43.1500 C   0  0  0  0  0  3  0  0  0  0  0  0
   39.8790   26.9820   43.4080 C   0  0  0  0  0  0  0  0  0  0  0  0
   40.6040   25.8160   43.5780 C   0  0  0  0  0  0  0  0  0  0  0  0
   40.0700   24.8940   43.7810 H   0  0  0  0  0  0  0  0  0  0  0  0
   41.9810   25.8920   43.4810 C   0  0  0  0  0  0  0  0  0  0  0  0
   42.9030   24.9070   43.6060 N   0  0  0  0  0  0  0  0  0  0  0  0
   44.1160   25.4940   43.4240 C   0  0  0  0  0  0  0  0  0  0  0  0
   45.1270   25.0600   43.4430 H   0  0  0  0  0  0  0  0  0  0  0  0
   43.8870   26.7970   43.1990 N   0  0  0  0  0  0  0  0  0  0  0  0
   42.5870   27.1010   43.2220 C   0  0  0  0  0  0  0  0  0  0  0  0
   41.8700   28.2750   43.0500 C   0  0  0  0  0  3  0  0  0  0  0  0
   42.7710   23.8930   43.8000 H   0  0  0  0  0  0  0  0  0  0  0  0
  1  6  1  0  0  0  0
  1 22  1  0  0  0  0
  2  1  2  0  0  0  0
  3  4  2  0  0  0  0
  3  2  1  0  0  0  0
  4  5  1  0  0  0  0
  5  9  1  0  0  0  0
  5  6  2  0  0  0  0
  6 24  1  0  0  0  0
  7  3  1  0  0  0  0
  8  4  1  0  0  0  0
 10  2  1  0  0  0  0
 10 11  1  0  0  0  0
 12 10  1  0  0  0  0
 13 10  1  0  0  0  0
 13 18  1  0  0  0  0
 14 13  2  0  0  0  0
 15 14  1  0  0  0  0
 15 16  2  0  0  0  0
 16 17  1  0  0  0  0
 17 21  1  0  0  0  0
 17 18  2  0  0  0  0
 19 14  1  0  0  0  0
 20 15  1  0  0  0  0
 22 23  1  0  0  0  0
 25 26  1  0  0  0  0
 26 24  1  0  0  0  0
 26 27  2  0  0  0  0
 27 28  1  0  0  0  0
 29 27  1  0  0  0  0
 29 30  1  0  0  0  0
 30 36  1  0  0  0  0
 31 32  1  0  0  0  0
 31 30  1  0  0  0  0
 33 34  1  0  0  0  0
 33 31  2  0  0  0  0
 34 29  2  0  0  0  0
 35 25  2  0  0  0  0
 35 34  1  0  0  0  0
M  END
>  <minimizedAffinity>
-6.54032183

$$$$

 OpenBabel03242512193D

 36 39  0  0  0  0  0  0  0  0999 V2000
   36.8150   28.9480   41.8040 C   0  0  0  0  0  0  0  0  0  0  0  0
   36.7490   27.5920   41.5470 C   0  0  0  0  0  0  0  0  0  0  0  0
   36.6220   27.1690   40.2430 C   0  0  0  0  0  0  0  0  0  0  0  0
   36.5620   28.0990   39.2260 C   0  0  0  0  0  0  0  0  0  0  0  0
   36.6300   29.4380   39.5180 C   0  0  0  0  0  0  0  0  0  0  0  0
   36.7590   29.8970   40.8270 C   0  0  0  0  0  0  0  0  0  0  0  0
   36.5730   26.0840   40.0780 H   0  0  0  0  0  0  0  0  0  0  0  0
   36.4630   27.7610   38.2020 H   0  0  0  0  0  0  0  0  0  0  0  0
   36.5820   30.1550   38.7070 H   0  0  0  0  0  0  0  0  0  0  0  0
   36.8230   26.7050   42.7300 C   0  0  0  0  0  0  0  0  0  0  0  0
   36.1430   25.8750   42.6840 H   0  0  0  0  0  0  0  0  0  0  0  0
   36.5110   27.3270   43.6180 H   0  0  0  0  0  0  0  0  0  0  0  0
   38.2670   26.2990   42.9680 C   0  0  0  0  0  0  0  0  0  0  0  0
   38.6700   25.0640   42.4850 C   0  0  0  0  0  0  0  0  0  0  0  0
   39.9980   24.6990   42.6970 C   0  0  0  0  0  0  0  0  0  0  0  0
   40.7990   25.5550   43.3490 N   0  0  0  0  0  0  0  0  0  0  0  0
   40.3730   26.7650   43.8120 C   0  0  0  0  0  0  0  0  0  0  0  0
   39.1030   27.1270   43.6170 N   0  0  0  0  0  0  0  0  0  0  0  0
   37.9970   24.3970   41.9630 H   0  0  0  0  0  0  0  0  0  0  0  0
   40.3830   23.7330   42.3390 H   0  0  0  0  0  0  0  0  0  0  0  0
   41.1050   27.3780   44.3260 H   0  0  0  0  0  0  0  0  0  0  0  0
   36.9450   29.4760   43.1100 O   0  0  0  0  0  0  0  0  0  0  0  0
   37.6180   30.2010   43.3220 H   0  0  0  0  0  0  0  0  0  0  0  0
   36.8220   31.2740   41.0420 O   0  0  0  0  0  0  0  0  0  0  0  0
   39.1260   31.2440   41.1530 C   0  0  0  0  0  3  0  0  0  0  0  0
   37.9880   31.9390   40.8160 C   0  0  0  0  0  0  0  0  0  0  0  0
   38.0380   33.2170   40.2880 C   0  0  0  0  0  0  0  0  0  0  0  0
   37.1080   33.7170   40.0400 H   0  0  0  0  0  0  0  0  0  0  0  0
   39.2820   33.7910   40.1030 C   0  0  0  0  0  0  0  0  0  0  0  0
   39.5950   35.0130   39.6090 N   0  0  0  0  0  0  0  0  0  0  0  0
   40.9530   35.0980   39.6320 C   0  0  0  0  0  0  0  0  0  0  0  0
   41.6200   35.9160   39.3210 H   0  0  0  0  0  0  0  0  0  0  0  0
   41.4050   33.9380   40.1330 N   0  0  0  0  0  0  0  0  0  0  0  0
   40.4200   33.0930   40.4410 C   0  0  0  0  0  0  0  0  0  0  0  0
   40.3800   31.8120   40.9710 C   0  0  0  0  0  3  0  0  0  0  0  0
   38.9710   35.7730   39.2670 H   0  0  0  0  0  0  0  0  0  0  0  0
  1 22  1  0  0  0  0
  2  1  1  0  0  0  0
  2 10  1  0  0  0  0
  3  2  2  0  0  0  0
  4  5  2  0  0  0  0
  4  3  1  0  0  0  0
  5  6  1  0  0  0  0
  6 24  1  0  0  0  0
  6  1  2  0  0  0  0
  7  3  1  0  0  0  0
  8  4  1  0  0  0  0
  9  5  1  0  0  0  0
 10 13  1  0  0  0  0
 10 12  1  0  0  0  0
 11 10  1  0  0  0  0
 13 18  1  0  0  0  0
 14 15  1  0  0  0  0
 14 13  2  0  0  0  0
 15 16  2  0  0  0  0
 16 17  1  0  0  0  0
 17 21  1  0  0  0  0
 18 17  2  0  0  0  0
 19 14  1  0  0  0  0
 20 15  1  0  0  0  0
 22 23  1  0  0  0  0
 26 24  1  0  0  0  0
 26 25  2  0  0  0  0
 27 26  1  0  0  0  0
 28 27  1  0  0  0  0
 29 27  2  0  0  0  0
 29 34  1  0  0  0  0
 30 31  1  0  0  0  0
 30 29  1  0  0  0  0
 31 33  2  0  0  0  0
 32 31  1  0  0  0  0
 33 34  1  0  0  0  0
 34 35  2  0  0  0  0
 35 25  1  0  0  0  0
 36 30  1  0  0  0  0
M  END
>  <minimizedAffinity>
-6.52351665

$$$$

 OpenBabel03242512193D

 36 39  0  0  0  0  0  0  0  0999 V2000
   36.2970   30.9090   40.0950 C   0  0  0  0  0  0  0  0  0  0  0  0
   35.9830   29.7230   39.4610 C   0  0  0  0  0  0  0  0  0  0  0  0
   36.3820   29.5430   38.1550 C   0  0  0  0  0  0  0  0  0  0  0  0
   37.0790   30.5420   37.5090 C   0  0  0  0  0  0  0  0  0  0  0  0
   37.3730   31.7080   38.1700 C   0  0  0  0  0  0  0  0  0  0  0  0
   36.9850   31.9200   39.4910 C   0  0  0  0  0  0  0  0  0  0  0  0
   36.1140   28.5870   37.6840 H   0  0  0  0  0  0  0  0  0  0  0  0
   37.3900   30.3950   36.4820 H   0  0  0  0  0  0  0  0  0  0  0  0
   37.9230   32.4830   37.6490 H   0  0  0  0  0  0  0  0  0  0  0  0
   35.2300   28.7370   40.2690 C   0  0  0  0  0  0  0  0  0  0  0  0
   34.4110   28.2890   39.7390 H   0  0  0  0  0  0  0  0  0  0  0  0
   34.7830   29.3060   41.1340 H   0  0  0  0  0  0  0  0  0  0  0  0
   36.1970   27.7280   40.8640 C   0  0  0  0  0  0  0  0  0  0  0  0
   36.5550   27.8950   42.1920 C   0  0  0  0  0  0  0  0  0  0  0  0
   37.4340   26.9620   42.7390 C   0  0  0  0  0  0  0  0  0  0  0  0
   37.8760   25.9670   41.9550 N   0  0  0  0  0  0  0  0  0  0  0  0
   37.5050   25.8270   40.6500 C   0  0  0  0  0  0  0  0  0  0  0  0
   36.6640   26.7150   40.1140 N   0  0  0  0  0  0  0  0  0  0  0  0
   36.1790   28.7090   42.7980 H   0  0  0  0  0  0  0  0  0  0  0  0
   37.7580   27.0360   43.7870 H   0  0  0  0  0  0  0  0  0  0  0  0
   37.9240   24.9860   40.1080 H   0  0  0  0  0  0  0  0  0  0  0  0
   35.9310   31.1840   41.4330 O   0  0  0  0  0  0  0  0  0  0  0  0
   36.5950   31.5670   42.0950 H   0  0  0  0  0  0  0  0  0  0  0  0
   37.3220   33.1320   40.0940 O   0  0  0  0  0  0  0  0  0  0  0  0
   39.0290   34.6780   39.9470 C   0  0  0  0  0  3  0  0  0  0  0  0
   38.6300   33.4220   40.3410 C   0  0  0  0  0  0  0  0  0  0  0  0
   39.5000   32.5300   40.9420 C   0  0  0  0  0  0  0  0  0  0  0  0
   39.1300   31.5530   41.2330 H   0  0  0  0  0  0  0  0  0  0  0  0
   40.8060   32.9380   41.1420 C   0  0  0  0  0  0  0  0  0  0  0  0
   41.8380   32.2620   41.7010 N   0  0  0  0  0  0  0  0  0  0  0  0
   42.9100   33.0980   41.6630 C   0  0  0  0  0  0  0  0  0  0  0  0
   43.9430   32.9480   42.0110 H   0  0  0  0  0  0  0  0  0  0  0  0
   42.4920   34.2370   41.0880 N   0  0  0  0  0  0  0  0  0  0  0  0
   41.2030   34.1960   40.7460 C   0  0  0  0  0  0  0  0  0  0  0  0
   40.3380   35.0970   40.1430 C   0  0  0  0  0  3  0  0  0  0  0  0
   41.8660   31.2990   42.0960 H   0  0  0  0  0  0  0  0  0  0  0  0
  1 22  1  0  0  0  0
  2  1  2  0  0  0  0
  2 10  1  0  0  0  0
  3  2  1  0  0  0  0
  4  3  2  0  0  0  0
  4  5  1  0  0  0  0
  5  6  2  0  0  0  0
  6 24  1  0  0  0  0
  6  1  1  0  0  0  0
  7  3  1  0  0  0  0
  8  4  1  0  0  0  0
  9  5  1  0  0  0  0
 10 13  1  0  0  0  0
 10 12  1  0  0  0  0
 11 10  1  0  0  0  0
 13 14  1  0  0  0  0
 14 15  2  0  0  0  0
 14 19  1  0  0  0  0
 15 20  1  0  0  0  0
 16 15  1  0  0  0  0
 17 16  2  0  0  0  0
 18 17  1  0  0  0  0
 18 13  2  0  0  0  0
 21 17  1  0  0  0  0
 22 23  1  0  0  0  0
 24 26  1  0  0  0  0
 25 35  2  0  0  0  0
 25 26  1  0  0  0  0
 26 27  2  0  0  0  0
 27 29  1  0  0  0  0
 27 28  1  0  0  0  0
 29 30  1  0  0  0  0
 30 36  1  0  0  0  0
 31 30  1  0  0  0  0
 31 32  1  0  0  0  0
 33 31  2  0  0  0  0
 34 33  1  0  0  0  0
 34 29  2  0  0  0  0
 35 34  1  0  0  0  0
M  END
>  <minimizedAffinity>
-6.37404299

$$$$

 OpenBabel03242512193D

 36 39  0  0  0  0  0  0  0  0999 V2000
   37.0700   29.2920   42.0560 C   0  0  0  0  0  0  0  0  0  0  0  0
   38.1680   29.0570   42.8600 C   0  0  0  0  0  0  0  0  0  0  0  0
   39.2780   29.8600   42.7200 C   0  0  0  0  0  0  0  0  0  0  0  0
   39.2740   30.8740   41.7850 C   0  0  0  0  0  0  0  0  0  0  0  0
   38.1650   31.0780   41.0020 C   0  0  0  0  0  0  0  0  0  0  0  0
   37.0280   30.2840   41.1210 C   0  0  0  0  0  0  0  0  0  0  0  0
   40.1310   29.6420   43.3770 H   0  0  0  0  0  0  0  0  0  0  0  0
   40.1490   31.5030   41.6790 H   0  0  0  0  0  0  0  0  0  0  0  0
   38.1780   31.8800   40.2730 H   0  0  0  0  0  0  0  0  0  0  0  0
   38.0400   27.9360   43.8190 C   0  0  0  0  0  0  0  0  0  0  0  0
   37.0380   27.7980   44.1820 H   0  0  0  0  0  0  0  0  0  0  0  0
   38.6720   28.2050   44.7130 H   0  0  0  0  0  0  0  0  0  0  0  0
   38.6490   26.6820   43.2160 C   0  0  0  0  0  0  0  0  0  0  0  0
   39.8770   26.2700   43.7080 C   0  0  0  0  0  0  0  0  0  0  0  0
   40.4280   25.1130   43.1590 C   0  0  0  0  0  0  0  0  0  0  0  0
   39.7450   24.4750   42.1980 N   0  0  0  0  0  0  0  0  0  0  0  0
   38.5360   24.9050   41.7340 C   0  0  0  0  0  0  0  0  0  0  0  0
   37.9970   26.0110   42.2500 N   0  0  0  0  0  0  0  0  0  0  0  0
   40.4020   26.8080   44.4850 H   0  0  0  0  0  0  0  0  0  0  0  0
   41.3990   24.7310   43.5040 H   0  0  0  0  0  0  0  0  0  0  0  0
   38.0710   24.3120   40.9540 H   0  0  0  0  0  0  0  0  0  0  0  0
   35.8870   28.5210   42.1280 O   0  0  0  0  0  0  0  0  0  0  0  0
   34.9730   28.9560   42.1570 H   0  0  0  0  0  0  0  0  0  0  0  0
   35.9410   30.5550   40.2890 O   0  0  0  0  0  0  0  0  0  0  0  0
   34.8700   29.0270   38.9320 C   0  0  0  0  0  3  0  0  0  0  0  0
   35.8670   29.9670   39.0630 C   0  0  0  0  0  0  0  0  0  0  0  0
   36.7210   30.2810   38.0220 C   0  0  0  0  0  0  0  0  0  0  0  0
   37.4880   31.0310   38.1830 H   0  0  0  0  0  0  0  0  0  0  0  0
   36.5480   29.6160   36.8220 C   0  0  0  0  0  0  0  0  0  0  0  0
   37.2430   29.7410   35.6660 N   0  0  0  0  0  0  0  0  0  0  0  0
   36.6830   28.8690   34.7860 C   0  0  0  0  0  0  0  0  0  0  0  0
   36.9410   28.6510   33.7380 H   0  0  0  0  0  0  0  0  0  0  0  0
   35.6810   28.2550   35.4340 N   0  0  0  0  0  0  0  0  0  0  0  0
   35.5500   28.6760   36.6930 C   0  0  0  0  0  0  0  0  0  0  0  0
   34.6890   28.3540   37.7320 C   0  0  0  0  0  3  0  0  0  0  0  0
   38.0500   30.3590   35.4390 H   0  0  0  0  0  0  0  0  0  0  0  0
  1 22  1  0  0  0  0
  1  2  1  0  0  0  0
  2 10  1  0  0  0  0
  3  2  2  0  0  0  0
  3  7  1  0  0  0  0
  4  3  1  0  0  0  0
  5  6  1  0  0  0  0
  5  4  2  0  0  0  0
  6  1  2  0  0  0  0
  8  4  1  0  0  0  0
  9  5  1  0  0  0  0
 10 11  1  0  0  0  0
 10 12  1  0  0  0  0
 13 14  1  0  0  0  0
 13 10  1  0  0  0  0
 14 19  1  0  0  0  0
 15 20  1  0  0  0  0
 15 14  2  0  0  0  0
 16 15  1  0  0  0  0
 17 16  2  0  0  0  0
 17 18  1  0  0  0  0
 18 13  2  0  0  0  0
 21 17  1  0  0  0  0
 22 23  1  0  0  0  0
 24  6  1  0  0  0  0
 25 26  1  0  0  0  0
 26 24  1  0  0  0  0
 27 28  1  0  0  0  0
 27 26  2  0  0  0  0
 29 27  1  0  0  0  0
 30 29  1  0  0  0  0
 31 33  2  0  0  0  0
 31 30  1  0  0  0  0
 32 31  1  0  0  0  0
 33 34  1  0  0  0  0
 34 29  2  0  0  0  0
 34 35  1  0  0  0  0
 35 25  2  0  0  0  0
 36 30  1  0  0  0  0
M  END
>  <minimizedAffinity>
-6.09709167

$$$$

 OpenBabel03242512193D

 36 39  0  0  0  0  0  0  0  0999 V2000
   37.4410   30.6620   41.1840 C   0  0  0  0  0  0  0  0  0  0  0  0
   38.4170   31.6340   41.0770 C   0  0  0  0  0  0  0  0  0  0  0  0
   39.5820   31.4860   41.7970 C   0  0  0  0  0  0  0  0  0  0  0  0
   39.7500   30.3820   42.6060 C   0  0  0  0  0  0  0  0  0  0  0  0
   38.7590   29.4370   42.6880 C   0  0  0  0  0  0  0  0  0  0  0  0
   37.5710   29.5570   41.9720 C   0  0  0  0  0  0  0  0  0  0  0  0
   40.3350   32.2790   41.6860 H   0  0  0  0  0  0  0  0  0  0  0  0
   40.6680   30.2710   43.1700 H   0  0  0  0  0  0  0  0  0  0  0  0
   38.9080   28.5740   43.3280 H   0  0  0  0  0  0  0  0  0  0  0  0
   38.1070   32.7660   40.1760 C   0  0  0  0  0  0  0  0  0  0  0  0
   37.4610   33.5000   40.6210 H   0  0  0  0  0  0  0  0  0  0  0  0
   37.5450   32.3330   39.2990 H   0  0  0  0  0  0  0  0  0  0  0  0
   39.3990   33.3430   39.6250 C   0  0  0  0  0  0  0  0  0  0  0  0
   39.8150   34.5670   40.1230 C   0  0  0  0  0  0  0  0  0  0  0  0
   41.0060   35.0890   39.6230 C   0  0  0  0  0  0  0  0  0  0  0  0
   41.6720   34.3830   38.6970 N   0  0  0  0  0  0  0  0  0  0  0  0
   41.2390   33.1790   38.2250 C   0  0  0  0  0  0  0  0  0  0  0  0
   40.0990   32.6680   38.6970 N   0  0  0  0  0  0  0  0  0  0  0  0
   39.2530   35.1120   40.8710 H   0  0  0  0  0  0  0  0  0  0  0  0
   41.3930   36.0560   39.9760 H   0  0  0  0  0  0  0  0  0  0  0  0
   41.8560   32.6940   37.4770 H   0  0  0  0  0  0  0  0  0  0  0  0
   36.2140   30.7270   40.4840 O   0  0  0  0  0  0  0  0  0  0  0  0
   35.8470   29.9260   39.9840 H   0  0  0  0  0  0  0  0  0  0  0  0
   36.6110   28.5530   42.1090 O   0  0  0  0  0  0  0  0  0  0  0  0
   36.5350   27.2790   40.1870 C   0  0  0  0  0  3  0  0  0  0  0  0
   36.8200   27.3370   41.5310 C   0  0  0  0  0  0  0  0  0  0  0  0
   37.2820   26.2380   42.2320 C   0  0  0  0  0  0  0  0  0  0  0  0
   37.4910   26.3430   43.2910 H   0  0  0  0  0  0  0  0  0  0  0  0
   37.4550   25.0560   41.5370 C   0  0  0  0  0  0  0  0  0  0  0  0
   37.8900   23.8540   41.9870 N   0  0  0  0  0  0  0  0  0  0  0  0
   37.8820   23.0180   40.9150 C   0  0  0  0  0  0  0  0  0  0  0  0
   38.1600   21.9560   40.8380 H   0  0  0  0  0  0  0  0  0  0  0  0
   37.4480   23.7350   39.8670 N   0  0  0  0  0  0  0  0  0  0  0  0
   37.1690   25.0000   40.1910 C   0  0  0  0  0  0  0  0  0  0  0  0
   36.7050   26.0960   39.4800 C   0  0  0  0  0  3  0  0  0  0  0  0
   38.1830   23.5690   42.9440 H   0  0  0  0  0  0  0  0  0  0  0  0
  1  6  1  0  0  0  0
  2  1  2  0  0  0  0
  2  3  1  0  0  0  0
  3  4  2  0  0  0  0
  4  5  1  0  0  0  0
  4  8  1  0  0  0  0
  5  9  1  0  0  0  0
  6 24  1  0  0  0  0
  6  5  2  0  0  0  0
  7  3  1  0  0  0  0
 10 11  1  0  0  0  0
 10  2  1  0  0  0  0
 12 10  1  0  0  0  0
 13 14  1  0  0  0  0
 13 10  1  0  0  0  0
 14 19  1  0  0  0  0
 15 20  1  0  0  0  0
 15 14  2  0  0  0  0
 16 15  1  0  0  0  0
 17 18  1  0  0  0  0
 17 16  2  0  0  0  0
 18 13  2  0  0  0  0
 21 17  1  0  0  0  0
 22  1  1  0  0  0  0
 23 22  1  0  0  0  0
 25 26  1  0  0  0  0
 26 24  1  0  0  0  0
 26 27  2  0  0  0  0
 27 28  1  0  0  0  0
 29 30  1  0  0  0  0
 29 27  1  0  0  0  0
 30 36  1  0  0  0  0
 31 30  1  0  0  0  0
 32 31  1  0  0  0  0
 33 34  1  0  0  0  0
 33 31  2  0  0  0  0
 34 29  2  0  0  0  0
 35 25  2  0  0  0  0
 35 34  1  0  0  0  0
M  END
>  <minimizedAffinity>
-6.07907534

$$$$

 OpenBabel03242512193D

 36 39  0  0  0  0  0  0  0  0999 V2000
   38.2810   27.2200   42.9010 C   0  0  0  0  0  0  0  0  0  0  0  0
   39.2000   26.2030   43.0750 C   0  0  0  0  0  0  0  0  0  0  0  0
   38.9870   25.0010   42.4390 C   0  0  0  0  0  0  0  0  0  0  0  0
   37.8700   24.8350   41.6470 C   0  0  0  0  0  0  0  0  0  0  0  0
   36.9780   25.8670   41.4970 C   0  0  0  0  0  0  0  0  0  0  0  0
   37.1660   27.0940   42.1270 C   0  0  0  0  0  0  0  0  0  0  0  0
   39.7390   24.2160   42.6010 H   0  0  0  0  0  0  0  0  0  0  0  0
   37.7080   23.8870   41.1480 H   0  0  0  0  0  0  0  0  0  0  0  0
   36.1060   25.7200   40.8710 H   0  0  0  0  0  0  0  0  0  0  0  0
   40.3520   26.5140   43.9520 C   0  0  0  0  0  0  0  0  0  0  0  0
   40.6680   25.6810   44.5510 H   0  0  0  0  0  0  0  0  0  0  0  0
   40.0030   27.3130   44.6680 H   0  0  0  0  0  0  0  0  0  0  0  0
   41.4660   27.1290   43.1230 C   0  0  0  0  0  0  0  0  0  0  0  0
   42.2820   28.0610   43.7440 C   0  0  0  0  0  0  0  0  0  0  0  0
   43.3100   28.6160   42.9830 C   0  0  0  0  0  0  0  0  0  0  0  0
   43.4470   28.2190   41.7090 N   0  0  0  0  0  0  0  0  0  0  0  0
   42.6280   27.2970   41.1250 C   0  0  0  0  0  0  0  0  0  0  0  0
   41.6390   26.7580   41.8420 N   0  0  0  0  0  0  0  0  0  0  0  0
   42.1440   28.3600   44.7740 H   0  0  0  0  0  0  0  0  0  0  0  0
   43.9940   29.3610   43.4150 H   0  0  0  0  0  0  0  0  0  0  0  0
   42.8290   27.0500   40.0890 H   0  0  0  0  0  0  0  0  0  0  0  0
   38.4150   28.4880   43.5140 O   0  0  0  0  0  0  0  0  0  0  0  0
   38.2850   29.3440   42.9900 H   0  0  0  0  0  0  0  0  0  0  0  0
   36.2150   28.0940   41.9250 O   0  0  0  0  0  0  0  0  0  0  0  0
   36.5860   28.6770   39.7230 C   0  0  0  0  0  3  0  0  0  0  0  0
   36.4630   29.0910   41.0290 C   0  0  0  0  0  0  0  0  0  0  0  0
   36.5820   30.4200   41.3930 C   0  0  0  0  0  0  0  0  0  0  0  0
   36.4750   30.6880   42.4390 H   0  0  0  0  0  0  0  0  0  0  0  0
   36.8350   31.3420   40.3950 C   0  0  0  0  0  0  0  0  0  0  0  0
   36.9930   32.6840   40.4890 N   0  0  0  0  0  0  0  0  0  0  0  0
   37.2210   33.1330   39.2260 C   0  0  0  0  0  0  0  0  0  0  0  0
   37.4010   34.1530   38.8550 H   0  0  0  0  0  0  0  0  0  0  0  0
   37.1930   32.0580   38.4220 N   0  0  0  0  0  0  0  0  0  0  0  0
   36.9590   30.9260   39.0880 C   0  0  0  0  0  0  0  0  0  0  0  0
   36.8400   29.5960   38.7130 C   0  0  0  0  0  3  0  0  0  0  0  0
   36.9580   33.3000   41.3280 H   0  0  0  0  0  0  0  0  0  0  0  0
  1  2  1  0  0  0  0
  1 22  1  0  0  0  0
  2 10  1  0  0  0  0
  3  7  1  0  0  0  0
  3  2  2  0  0  0  0
  4  3  1  0  0  0  0
  5  4  2  0  0  0  0
  5  6  1  0  0  0  0
  6  1  2  0  0  0  0
  8  4  1  0  0  0  0
  9  5  1  0  0  0  0
 10 11  1  0  0  0  0
 10 12  1  0  0  0  0
 13 14  1  0  0  0  0
 13 10  1  0  0  0  0
 14 19  1  0  0  0  0
 15 20  1  0  0  0  0
 15 14  2  0  0  0  0
 16 15  1  0  0  0  0
 17 16  2  0  0  0  0
 17 18  1  0  0  0  0
 18 13  2  0  0  0  0
 21 17  1  0  0  0  0
 23 22  1  0  0  0  0
 24  6  1  0  0  0  0
 25 26  1  0  0  0  0
 26 27  2  0  0  0  0
 26 24  1  0  0  0  0
 27 28  1  0  0  0  0
 29 30  1  0  0  0  0
 29 27  1  0  0  0  0
 30 36  1  0  0  0  0
 31 30  1  0  0  0  0
 32 31  1  0  0  0  0
 33 34  1  0  0  0  0
 33 31  2  0  0  0  0
 34 29  2  0  0  0  0
 35 34  1  0  0  0  0
 35 25  2  0  0  0  0
M  END
>  <minimizedAffinity>
-5.9645381

$$$$

 OpenBabel03242512193D

 36 39  0  0  0  0  0  0  0  0999 V2000
   36.5910   29.6800   41.1640 C   0  0  0  0  0  0  0  0  0  0  0  0
   36.4790   30.4500   40.0220 C   0  0  0  0  0  0  0  0  0  0  0  0
   36.1200   29.8390   38.8420 C   0  0  0  0  0  0  0  0  0  0  0  0
   35.8840   28.4800   38.8200 C   0  0  0  0  0  0  0  0  0  0  0  0
   36.0060   27.7460   39.9720 C   0  0  0  0  0  0  0  0  0  0  0  0
   36.3650   28.3350   41.1820 C   0  0  0  0  0  0  0  0  0  0  0  0
   36.0410   30.4840   37.9560 H   0  0  0  0  0  0  0  0  0  0  0  0
   35.6030   28.0040   37.8880 H   0  0  0  0  0  0  0  0  0  0  0  0
   35.8160   26.6800   39.9380 H   0  0  0  0  0  0  0  0  0  0  0  0
   36.7610   31.8940   40.1860 C   0  0  0  0  0  0  0  0  0  0  0  0
   36.3480   32.3100   41.0860 H   0  0  0  0  0  0  0  0  0  0  0  0
   36.2540   32.4200   39.3260 H   0  0  0  0  0  0  0  0  0  0  0  0
   38.2520   32.1390   40.0290 C   0  0  0  0  0  0  0  0  0  0  0  0
   38.7520   32.2220   38.7400 C   0  0  0  0  0  0  0  0  0  0  0  0
   40.1180   32.4570   38.5990 C   0  0  0  0  0  0  0  0  0  0  0  0
   40.8610   32.5860   39.7080 N   0  0  0  0  0  0  0  0  0  0  0  0
   40.3400   32.5000   40.9660 C   0  0  0  0  0  0  0  0  0  0  0  0
   39.0320   32.2750   41.1150 N   0  0  0  0  0  0  0  0  0  0  0  0
   38.1240   32.1130   37.8650 H   0  0  0  0  0  0  0  0  0  0  0  0
   40.5790   32.5340   37.6040 H   0  0  0  0  0  0  0  0  0  0  0  0
   41.0320   32.6190   41.7930 H   0  0  0  0  0  0  0  0  0  0  0  0
   36.9520   30.2180   42.4210 O   0  0  0  0  0  0  0  0  0  0  0  0
   36.4400   29.9860   43.2620 H   0  0  0  0  0  0  0  0  0  0  0  0
   36.4680   27.5210   42.3100 O   0  0  0  0  0  0  0  0  0  0  0  0
   37.6650   25.5510   42.2150 C   0  0  0  0  0  3  0  0  0  0  0  0
   37.6390   26.8780   42.5750 C   0  0  0  0  0  0  0  0  0  0  0  0
   38.7270   27.5020   43.1590 C   0  0  0  0  0  0  0  0  0  0  0  0
   38.6490   28.5520   43.4210 H   0  0  0  0  0  0  0  0  0  0  0  0
   39.8630   26.7460   43.3780 C   0  0  0  0  0  0  0  0  0  0  0  0
   41.0450   27.1170   43.9280 N   0  0  0  0  0  0  0  0  0  0  0  0
   41.8350   26.0100   43.9190 C   0  0  0  0  0  0  0  0  0  0  0  0
   42.8680   25.8700   44.2710 H   0  0  0  0  0  0  0  0  0  0  0  0
   41.1110   25.0210   43.3710 N   0  0  0  0  0  0  0  0  0  0  0  0
   39.8870   25.4170   43.0170 C   0  0  0  0  0  0  0  0  0  0  0  0
   38.8020   24.7830   42.4310 C   0  0  0  0  0  3  0  0  0  0  0  0
   41.3450   28.0420   44.2990 H   0  0  0  0  0  0  0  0  0  0  0  0
  1  6  1  0  0  0  0
  1 22  1  0  0  0  0
  2 10  1  0  0  0  0
  2  1  2  0  0  0  0
  3  2  1  0  0  0  0
  4  3  2  0  0  0  0
  4  5  1  0  0  0  0
  5  6  2  0  0  0  0
  6 24  1  0  0  0  0
  7  3  1  0  0  0  0
  8  4  1  0  0  0  0
  9  5  1  0  0  0  0
 10 11  1  0  0  0  0
 12 10  1  0  0  0  0
 13 10  1  0  0  0  0
 13 18  1  0  0  0  0
 14 13  2  0  0  0  0
 15 14  1  0  0  0  0
 15 16  2  0  0  0  0
 16 17  1  0  0  0  0
 17 18  2  0  0  0  0
 17 21  1  0  0  0  0
 19 14  1  0  0  0  0
 20 15  1  0  0  0  0
 22 23  1  0  0  0  0
 24 26  1  0  0  0  0
 25 35  2  0  0  0  0
 25 26  1  0  0  0  0
 26 27  2  0  0  0  0
 27 29  1  0  0  0  0
 27 28  1  0  0  0  0
 29 30  1  0  0  0  0
 30 36  1  0  0  0  0
 31 30  1  0  0  0  0
 31 32  1  0  0  0  0
 33 31  2  0  0  0  0
 34 33  1  0  0  0  0
 34 29  2  0  0  0  0
 35 34  1  0  0  0  0
M  END
>  <minimizedAffinity>
-5.89188623

$$$$

 OpenBabel03242512193D

 36 39  0  0  0  0  0  0  0  0999 V2000
   37.4290   28.7700   42.1180 C   0  0  0  0  0  0  0  0  0  0  0  0
   37.8520   27.6020   42.7240 C   0  0  0  0  0  0  0  0  0  0  0  0
   39.1460   27.5270   43.1890 C   0  0  0  0  0  0  0  0  0  0  0  0
   39.9900   28.6080   43.0410 C   0  0  0  0  0  0  0  0  0  0  0  0
   39.5360   29.7520   42.4330 C   0  0  0  0  0  0  0  0  0  0  0  0
   38.2330   29.8590   41.9540 C   0  0  0  0  0  0  0  0  0  0  0  0
   39.4460   26.5830   43.6660 H   0  0  0  0  0  0  0  0  0  0  0  0
   41.0060   28.5440   43.4090 H   0  0  0  0  0  0  0  0  0  0  0  0
   40.2110   30.5920   42.3260 H   0  0  0  0  0  0  0  0  0  0  0  0
   36.8460   26.5200   42.8170 C   0  0  0  0  0  0  0  0  0  0  0  0
   35.8380   26.8820   42.8980 H   0  0  0  0  0  0  0  0  0  0  0  0
   37.0650   25.9590   43.7710 H   0  0  0  0  0  0  0  0  0  0  0  0
   37.0530   25.5380   41.6760 C   0  0  0  0  0  0  0  0  0  0  0  0
   37.5330   24.2790   41.9990 C   0  0  0  0  0  0  0  0  0  0  0  0
   37.7120   23.3780   40.9510 C   0  0  0  0  0  0  0  0  0  0  0  0
   37.4130   23.7780   39.7070 N   0  0  0  0  0  0  0  0  0  0  0  0
   36.9410   25.0250   39.4200 C   0  0  0  0  0  0  0  0  0  0  0  0
   36.7650   25.8990   40.4140 N   0  0  0  0  0  0  0  0  0  0  0  0
   37.7650   23.9880   43.0150 H   0  0  0  0  0  0  0  0  0  0  0  0
   38.0900   22.3620   41.1380 H   0  0  0  0  0  0  0  0  0  0  0  0
   36.7320   25.2430   38.3780 H   0  0  0  0  0  0  0  0  0  0  0  0
   36.1200   28.9400   41.6110 O   0  0  0  0  0  0  0  0  0  0  0  0
   35.5810   29.7740   41.8070 H   0  0  0  0  0  0  0  0  0  0  0  0
   37.8470   31.0550   41.3480 O   0  0  0  0  0  0  0  0  0  0  0  0
   39.0420   31.1050   39.3750 C   0  0  0  0  0  3  0  0  0  0  0  0
   38.7310   31.7290   40.5610 C   0  0  0  0  0  0  0  0  0  0  0  0
   39.2800   32.9480   40.9150 C   0  0  0  0  0  0  0  0  0  0  0  0
   38.9980   33.3930   41.8620 H   0  0  0  0  0  0  0  0  0  0  0  0
   40.1670   33.5370   40.0330 C   0  0  0  0  0  0  0  0  0  0  0  0
   40.8320   34.7110   40.1450 N   0  0  0  0  0  0  0  0  0  0  0  0
   41.5780   34.8380   39.0140 C   0  0  0  0  0  0  0  0  0  0  0  0
   42.2630   35.6400   38.6990 H   0  0  0  0  0  0  0  0  0  0  0  0
   41.3400   33.7480   38.2690 N   0  0  0  0  0  0  0  0  0  0  0  0
   40.4770   32.9100   38.8460 C   0  0  0  0  0  0  0  0  0  0  0  0
   39.9310   31.6880   38.4830 C   0  0  0  0  0  3  0  0  0  0  0  0
   40.8170   35.4140   40.9120 H   0  0  0  0  0  0  0  0  0  0  0  0
  1  2  1  0  0  0  0
  2 10  1  0  0  0  0
  2  3  2  0  0  0  0
  3  7  1  0  0  0  0
  4  3  1  0  0  0  0
  4  8  1  0  0  0  0
  5  4  2  0  0  0  0
  6  1  2  0  0  0  0
  6  5  1  0  0  0  0
  9  5  1  0  0  0  0
 10 11  1  0  0  0  0
 10 12  1  0  0  0  0
 13 14  1  0  0  0  0
 13 10  1  0  0  0  0
 14 19  1  0  0  0  0
 15 20  1  0  0  0  0
 15 14  2  0  0  0  0
 16 15  1  0  0  0  0
 17 16  2  0  0  0  0
 17 18  1  0  0  0  0
 18 13  2  0  0  0  0
 21 17  1  0  0  0  0
 22 23  1  0  0  0  0
 22  1  1  0  0  0  0
 24  6  1  0  0  0  0
 25 26  1  0  0  0  0
 26 27  2  0  0  0  0
 26 24  1  0  0  0  0
 27 28  1  0  0  0  0
 29 30  1  0  0  0  0
 29 27  1  0  0  0  0
 30 36  1  0  0  0  0
 31 30  1  0  0  0  0
 32 31  1  0  0  0  0
 33 34  1  0  0  0  0
 33 31  2  0  0  0  0
 34 29  2  0  0  0  0
 35 34  1  0  0  0  0
 35 25  2  0  0  0  0
M  END
>  <minimizedAffinity>
-5.85895252

$$$$
