
 OpenBabel03252504533D

 24 26  0  0  0  0  0  0  0  0999 V2000
   46.9490   34.9970   41.9950 C   0  0  0  0  0  0  0  0  0  0  0  0
   47.1900   36.0300   41.7030 H   0  0  0  0  0  0  0  0  0  0  0  0
   47.9280   34.5000   42.1630 H   0  0  0  0  0  0  0  0  0  0  0  0
   44.9280   34.1860   40.8570 C   0  0  0  0  0  3  0  0  0  0  0  0
   46.3030   34.2820   40.8620 C   0  0  0  0  0  0  0  0  0  0  0  0
   47.0430   33.7240   39.8390 C   0  0  0  0  0  0  0  0  0  0  0  0
   48.1350   33.7940   39.8310 H   0  0  0  0  0  0  0  0  0  0  0  0
   46.4230   33.0640   38.7950 C   0  0  0  0  0  0  0  0  0  0  0  0
   46.8780   32.4330   37.6780 N   0  0  0  0  0  0  0  0  0  0  0  0
   45.7680   31.9730   37.0300 C   0  0  0  0  0  0  0  0  0  0  0  0
   45.8090   31.4230   36.0990 H   0  0  0  0  0  0  0  0  0  0  0  0
   44.6530   32.3090   37.7220 N   0  0  0  0  0  0  0  0  0  0  0  0
   45.0620   32.9810   38.8110 C   0  0  0  0  0  0  0  0  0  0  0  0
   44.2740   33.5260   39.8190 C   0  0  0  0  0  3  0  0  0  0  0  0
   47.8780   32.3300   37.3930 H   0  0  0  0  0  0  0  0  0  0  0  0
   44.5580   35.9140   44.6920 C   0  0  0  0  0  0  0  0  0  0  0  0
   45.2960   35.9580   43.4890 C   0  0  0  0  0  0  0  0  0  0  0  0
   46.1940   34.9350   43.2440 C   0  0  0  0  0  0  0  0  0  0  0  0
   46.3280   33.9370   44.1660 N   0  0  0  0  0  0  0  0  0  0  0  0
   45.6030   33.9320   45.3050 C   0  0  0  0  0  0  0  0  0  0  0  0
   44.7280   34.9050   45.5690 N   0  0  0  0  0  0  0  0  0  0  0  0
   43.8430   36.6910   44.9310 H   0  0  0  0  0  0  0  0  0  0  0  0
   45.1150   36.7870   42.8340 H   0  0  0  0  0  0  0  0  0  0  0  0
   45.7520   33.1010   46.0110 H   0  0  0  0  0  0  0  0  0  0  0  0
  1  3  1  0  0  0  0
  1 18  1  0  0  0  0
  2  1  1  0  0  0  0
  4  5  1  0  0  0  0
  5  1  1  0  0  0  0
  6  5  2  0  0  0  0
  7  6  1  0  0  0  0
  8 13  2  0  0  0  0
  8  6  1  0  0  0  0
  9  8  1  0  0  0  0
 10  9  1  0  0  0  0
 10 12  2  0  0  0  0
 11 10  1  0  0  0  0
 12 13  1  0  0  0  0
 13 14  1  0  0  0  0
 14  4  2  0  0  0  0
 15  9  1  0  0  0  0
 16 22  1  0  0  0  0
 16 21  1  0  0  0  0
 17 16  2  0  0  0  0
 18 17  1  0  0  0  0
 18 19  2  0  0  0  0
 19 20  1  0  0  0  0
 20 21  2  0  0  0  0
 20 24  1  0  0  0  0
 23 17  1  0  0  0  0
M  END
>  <minimizedAffinity>
-4.49284601

>  <minimizedRMSD>
0.536570191

$$$$
