
 OpenBabel03252509003D

 48 51  0  0  1  0  0  0  0  0999 V2000
   46.6620   34.5070   43.6420 N   0  0  0  0  0  0  0  0  0  0  0  0
   46.1760   35.4970   42.7510 C   0  0  0  0  0  0  0  0  0  0  0  0
   44.6820   35.6930   42.7490 C   0  0  0  0  0  0  0  0  0  0  0  0
   44.0190   35.4530   44.0790 C   0  0  0  0  0  0  0  0  0  0  0  0
   45.0310   35.1670   45.1630 C   0  0  0  0  0  0  0  0  0  0  0  0
   45.8290   33.9380   44.5940 C   0  0  2  0  0  0  0  0  0  0  0  0
   46.4970   35.4110   41.7100 H   0  0  0  0  0  0  0  0  0  0  0  0
   46.6060   36.4780   43.1150 H   0  0  0  0  0  0  0  0  0  0  0  0
   44.4780   36.7420   42.3860 H   0  0  0  0  0  0  0  0  0  0  0  0
   44.2380   35.0190   41.9790 H   0  0  0  0  0  0  0  0  0  0  0  0
   43.4590   36.3610   44.3890 H   0  0  0  0  0  0  0  0  0  0  0  0
   43.3230   34.6060   44.0210 H   0  0  0  0  0  0  0  0  0  0  0  0
   44.5180   34.8230   46.0670 H   0  0  0  0  0  0  0  0  0  0  0  0
   45.7420   35.9800   45.3190 H   0  0  0  0  0  0  0  0  0  0  0  0
   45.0680   33.1970   44.2510 H   0  0  0  0  0  0  0  0  0  0  0  0
   47.7480   33.7300   43.1220 C   0  0  0  0  0  0  0  0  0  0  0  0
   48.2650   33.2130   43.9700 H   0  0  0  0  0  0  0  0  0  0  0  0
   48.4750   34.3800   42.6290 H   0  0  0  0  0  0  0  0  0  0  0  0
   47.1920   32.6460   42.2480 C   0  0  0  0  0  0  0  0  0  0  0  0
   46.0900   32.7530   42.1470 H   0  0  0  0  0  0  0  0  0  0  0  0
   47.3820   31.6200   42.6130 H   0  0  0  0  0  0  0  0  0  0  0  0
   49.3130   32.1210   39.1930 C   0  0  0  0  0  0  0  0  0  0  0  0
   48.7820   31.9930   40.4890 C   0  0  0  0  0  0  0  0  0  0  0  0
   47.7390   32.7970   40.8750 C   0  0  0  0  0  0  0  0  0  0  0  0
   47.2720   33.6790   39.9820 N   0  0  0  0  0  0  0  0  0  0  0  0
   47.7770   33.8040   38.7440 C   0  0  0  0  0  0  0  0  0  0  0  0
   48.7960   33.0320   38.3360 N   0  0  0  0  0  0  0  0  0  0  0  0
   50.1320   31.5140   38.8390 H   0  0  0  0  0  0  0  0  0  0  0  0
   49.2040   31.2700   41.1470 H   0  0  0  0  0  0  0  0  0  0  0  0
   47.3160   34.5530   38.1100 H   0  0  0  0  0  0  0  0  0  0  0  0
   46.5370   33.5270   45.7170 O   0  0  0  0  0  0  0  0  0  0  0  0
   45.6140   31.1420   45.0180 O   0  0  0  0  0  0  0  0  0  0  0  0
   46.1670   31.9480   46.1750 P   0  0  2  0  0  0  0  0  0  0  0  0
   44.8760   32.0730   47.2940 O   0  0  0  0  0  0  0  0  0  0  0  0
   45.2380   32.0360   48.2140 H   0  0  0  0  0  0  0  0  0  0  0  0
   47.4550   31.2190   46.9420 O   0  0  0  0  0  0  0  0  0  0  0  0
   46.6930   29.0240   47.3570 C   0  0  0  0  0  3  0  0  0  0  0  0
   47.7400   29.8840   47.0100 C   0  0  0  0  0  0  0  0  0  0  0  0
   48.9820   29.3330   46.7590 C   0  0  0  0  0  0  0  0  0  0  0  0
   49.8040   29.9970   46.4860 H   0  0  0  0  0  0  0  0  0  0  0  0
   49.1560   27.9490   46.8590 C   0  0  0  0  0  0  0  0  0  0  0  0
   50.2670   27.1890   46.6610 N   0  0  0  0  0  0  0  0  0  0  0  0
   49.9730   25.8890   46.8700 C   0  0  0  0  0  0  0  0  0  0  0  0
   50.6840   25.0770   46.7770 H   0  0  0  0  0  0  0  0  0  0  0  0
   48.6630   25.8410   47.1990 N   0  0  0  0  0  0  0  0  0  0  0  0
   48.1320   27.0900   47.2010 C   0  0  0  0  0  0  0  0  0  0  0  0
   46.8970   27.6520   47.4490 C   0  0  0  0  0  3  0  0  0  0  0  0
   51.1890   27.5930   46.3920 H   0  0  0  0  0  0  0  0  0  0  0  0
  1  6  1  0  0  0  0
  2  8  1  0  0  0  0
  2  1  1  0  0  0  0
  3  2  1  0  0  0  0
  3  4  1  0  0  0  0
  4 11  1  0  0  0  0
  4  5  1  0  0  0  0
  5 14  1  0  0  0  0
  5 13  1  0  0  0  0
  6 15  1  6  0  0  0
  6  5  1  0  0  0  0
  6 31  1  0  0  0  0
  7  2  1  0  0  0  0
  9  3  1  0  0  0  0
 10  3  1  0  0  0  0
 12  4  1  0  0  0  0
 16  1  1  0  0  0  0
 16 17  1  0  0  0  0
 18 16  1  0  0  0  0
 19 21  1  0  0  0  0
 19 16  1  0  0  0  0
 20 19  1  0  0  0  0
 22 23  1  0  0  0  0
 23 24  2  0  0  0  0
 23 29  1  0  0  0  0
 24 19  1  0  0  0  0
 25 24  1  0  0  0  0
 26 25  2  0  0  0  0
 27 26  1  0  0  0  0
 27 22  2  0  0  0  0
 28 22  1  0  0  0  0
 30 26  1  0  0  0  0
 31 33  1  0  0  0  0
 33 32  2  6  0  0  0
 33 36  1  0  0  0  0
 33 34  1  0  0  0  0
 34 35  1  0  0  0  0
 36 38  1  0  0  0  0
 37 47  1  0  0  0  0
 38 37  2  0  0  0  0
 39 41  2  0  0  0  0
 39 38  1  0  0  0  0
 40 39  1  0  0  0  0
 41 46  1  0  0  0  0
 42 41  1  0  0  0  0
 42 43  1  0  0  0  0
 43 45  2  0  0  0  0
 44 43  1  0  0  0  0
 45 46  1  0  0  0  0
 46 47  2  0  0  0  0
 48 42  1  0  0  0  0
M  END
>  <minimizedAffinity>
-4.40781736

>  <minimizedRMSD>
1.43796527

$$$$
