
 OpenBabel03252500273D

 46 49  0  0  1  0  0  0  0  0999 V2000
   47.0570   33.2780   46.5880 O   0  0  0  0  0  0  0  0  0  0  0  0
   45.5950   33.0120   46.5210 P   0  0  1  0  0  0  0  0  0  0  0  0
   45.2910   31.8720   45.3050 O   0  0  0  0  0  0  0  0  0  0  0  0
   45.8540   32.0420   44.5040 H   0  0  0  0  0  0  0  0  0  0  0  0
   45.1430   32.4010   47.9840 O   0  0  0  0  0  0  0  0  0  0  0  0
   47.0520   30.9670   48.0100 C   0  0  2  0  0  0  0  0  0  0  0  0
   45.5810   31.1070   48.1170 C   0  0  2  0  0  0  0  0  0  0  0  0
   45.0150   30.2070   47.1350 C   0  0  0  0  0  0  0  0  0  0  0  0
   45.9580   29.2120   46.8390 O   0  0  0  0  0  0  0  0  0  0  0  0
   47.0020   29.4230   47.6760 C   0  0  0  0  0  0  0  0  0  0  0  0
   47.5360   31.2400   47.0580 H   0  0  0  0  0  0  0  0  0  0  0  0
   45.3900   30.8850   49.2060 H   0  0  0  0  0  0  0  0  0  0  0  0
   44.3010   30.4630   46.3850 H   0  0  0  0  0  0  0  0  0  0  0  0
   44.3200   29.5450   47.7670 H   0  0  0  0  0  0  0  0  0  0  0  0
   46.7260   28.9980   48.6800 H   0  0  0  0  0  0  0  0  0  0  0  0
   47.9850   29.0660   47.3820 H   0  0  0  0  0  0  0  0  0  0  0  0
   47.7720   31.1110   49.1350 O   0  0  0  0  0  0  0  0  0  0  0  0
   49.0340   31.4250   49.2050 C   0  0  0  0  0  0  0  0  0  0  0  0
   49.3490   32.4260   49.1120 H   0  0  0  0  0  0  0  0  0  0  0  0
   49.5300   31.0040   48.1690 H   0  0  0  0  0  0  0  0  0  0  0  0
   49.6890   30.5550   50.2660 C   0  0  0  0  0  0  0  0  0  0  0  0
   49.1390   29.6150   50.4050 H   0  0  0  0  0  0  0  0  0  0  0  0
   49.7980   31.1110   51.2270 H   0  0  0  0  0  0  0  0  0  0  0  0
   50.7260   30.3170   49.9460 H   0  0  0  0  0  0  0  0  0  0  0  0
   44.8580   34.5110   46.1740 O   0  0  0  0  0  0  0  0  0  0  0  0
   45.1970   36.9350   43.5490 C   0  0  0  0  0  0  0  0  0  0  0  0
   44.8470   36.2240   42.3780 C   0  0  0  0  0  0  0  0  0  0  0  0
   44.4920   34.8680   42.5530 C   0  0  0  0  0  0  0  0  0  0  0  0
   44.5050   34.3420   43.7940 N   0  0  0  0  0  0  0  0  0  0  0  0
   44.8430   35.0560   44.8780 C   0  0  0  0  0  0  0  0  0  0  0  0
   45.1850   36.3420   44.7410 N   0  0  0  0  0  0  0  0  0  0  0  0
   44.8500   36.6820   41.4010 H   0  0  0  0  0  0  0  0  0  0  0  0
   44.2250   34.3200   41.6720 H   0  0  0  0  0  0  0  0  0  0  0  0
   45.5500   38.2490   43.4330 O   0  0  0  0  0  0  0  0  0  0  0  0
   45.1780   38.9160   45.7250 C   0  0  0  0  0  3  0  0  0  0  0  0
   45.2390   39.2130   44.3740 C   0  0  0  0  0  0  0  0  0  0  0  0
   45.0010   40.4710   43.8340 C   0  0  0  0  0  0  0  0  0  0  0  0
   45.0520   40.6850   42.7910 H   0  0  0  0  0  0  0  0  0  0  0  0
   44.6820   41.4960   44.7170 C   0  0  0  0  0  0  0  0  0  0  0  0
   44.4010   42.8080   44.5060 N   0  0  0  0  0  0  0  0  0  0  0  0
   44.1610   43.3480   45.7190 C   0  0  0  0  0  0  0  0  0  0  0  0
   43.9060   44.3860   45.8930 H   0  0  0  0  0  0  0  0  0  0  0  0
   44.2850   42.4130   46.6700 N   0  0  0  0  0  0  0  0  0  0  0  0
   44.6090   41.2500   46.0720 C   0  0  0  0  0  0  0  0  0  0  0  0
   44.8540   39.9740   46.5740 C   0  0  0  0  0  3  0  0  0  0  0  0
   44.3940   43.2320   43.5620 H   0  0  0  0  0  0  0  0  0  0  0  0
  2  1  2  1  0  0  0
  2  5  1  0  0  0  0
  3  2  1  0  0  0  0
  4  3  1  0  0  0  0
  5  7  1  0  0  0  0
  6 11  1  6  0  0  0
  6  7  1  0  0  0  0
  6 17  1  0  0  0  0
  7 12  1  1  0  0  0
  8 14  1  0  0  0  0
  8  7  1  0  0  0  0
  9  8  1  0  0  0  0
  9 10  1  0  0  0  0
 10  6  1  0  0  0  0
 10 15  1  0  0  0  0
 13  8  1  0  0  0  0
 16 10  1  0  0  0  0
 17 18  1  0  0  0  0
 18 21  1  0  0  0  0
 19 18  1  0  0  0  0
 20 18  1  0  0  0  0
 21 22  1  0  0  0  0
 21 23  1  0  0  0  0
 24 21  1  0  0  0  0
 25  2  1  0  0  0  0
 26 31  1  0  0  0  0
 27 28  1  0  0  0  0
 27 26  2  0  0  0  0
 28 29  2  0  0  0  0
 29 30  1  0  0  0  0
 30 25  1  0  0  0  0
 31 30  2  0  0  0  0
 32 27  1  0  0  0  0
 33 28  1  0  0  0  0
 34 26  1  0  0  0  0
 34 36  1  0  0  0  0
 35 45  1  0  0  0  0
 36 35  2  0  0  0  0
 37 36  1  0  0  0  0
 37 39  2  0  0  0  0
 38 37  1  0  0  0  0
 39 44  1  0  0  0  0
 40 39  1  0  0  0  0
 40 41  1  0  0  0  0
 41 42  1  0  0  0  0
 41 43  2  0  0  0  0
 44 45  2  0  0  0  0
 44 43  1  0  0  0  0
 46 40  1  0  0  0  0
M  END
>  <minimizedAffinity>
-3.50621724

>  <minimizedRMSD>
0.669352114

$$$$
