
 OpenBabel03242519483D

 41 44  0  0  1  0  0  0  0  0999 V2000
   46.6740   32.8370   46.6510 C   0  0  2  0  0  0  0  0  0  0  0  0
   47.0410   32.7170   45.2270 C   0  0  1  0  0  0  0  0  0  0  0  0
   46.5140   31.4060   44.8340 O   0  0  0  0  0  0  0  0  0  0  0  0
   47.1770   30.6810   45.8530 C   0  0  0  0  0  0  0  0  0  0  0  0
   46.5770   31.3870   47.0980 C   0  0  2  0  0  0  0  0  0  0  0  0
   47.3890   33.4030   47.2720 H   0  0  0  0  0  0  0  0  0  0  0  0
   48.1120   32.6080   45.0280 H   0  0  0  0  0  0  0  0  0  0  0  0
   47.0600   29.6270   45.8320 H   0  0  0  0  0  0  0  0  0  0  0  0
   48.2580   30.9610   45.7750 H   0  0  0  0  0  0  0  0  0  0  0  0
   47.2480   31.1100   47.9410 H   0  0  0  0  0  0  0  0  0  0  0  0
   44.7160   35.2370   43.9750 C   0  0  0  0  0  0  0  0  0  0  0  0
   45.3390   35.7280   42.8280 C   0  0  0  0  0  0  0  0  0  0  0  0
   46.5880   35.1880   42.4580 C   0  0  0  0  0  0  0  0  0  0  0  0
   47.1410   34.2010   43.2390 N   0  0  0  0  0  0  0  0  0  0  0  0
   46.5040   33.7530   44.3430 C   0  0  0  0  0  0  0  0  0  0  0  0
   45.3000   34.2570   44.7210 N   0  0  0  0  0  0  0  0  0  0  0  0
   44.8760   36.4960   42.2490 H   0  0  0  0  0  0  0  0  0  0  0  0
   47.0990   35.5450   41.5740 H   0  0  0  0  0  0  0  0  0  0  0  0
   43.4760   35.7310   44.3940 O   0  0  0  0  0  0  0  0  0  0  0  0
   42.8920   36.0970   43.6430 H   0  0  0  0  0  0  0  0  0  0  0  0
   45.3630   33.4190   46.7570 O   0  0  0  0  0  0  0  0  0  0  0  0
   45.1750   33.3990   47.7280 H   0  0  0  0  0  0  0  0  0  0  0  0
   45.2830   30.9780   47.2080 O   0  0  0  0  0  0  0  0  0  0  0  0
   45.0150   29.9590   48.0860 C   0  0  0  0  0  0  0  0  0  0  0  0
   45.2470   30.2440   49.1070 H   0  0  0  0  0  0  0  0  0  0  0  0
   43.8200   30.0190   48.1630 H   0  0  0  0  0  0  0  0  0  0  0  0
   45.3400   28.5920   47.6470 C   0  0  0  0  0  0  0  0  0  0  0  0
   46.2650   28.5010   47.0430 H   0  0  0  0  0  0  0  0  0  0  0  0
   45.3730   27.9180   48.5390 H   0  0  0  0  0  0  0  0  0  0  0  0
   43.5730   28.6680   45.7240 C   0  0  0  0  0  3  0  0  0  0  0  0
   44.2600   28.0830   46.7610 C   0  0  0  0  0  0  0  0  0  0  0  0
   43.8360   26.7670   47.0100 C   0  0  0  0  0  0  0  0  0  0  0  0
   44.3030   26.1950   47.8060 H   0  0  0  0  0  0  0  0  0  0  0  0
   42.8490   26.0950   46.3220 C   0  0  0  0  0  0  0  0  0  0  0  0
   42.3310   24.8590   46.4300 N   0  0  0  0  0  0  0  0  0  0  0  0
   41.3810   24.7290   45.4940 C   0  0  0  0  0  0  0  0  0  0  0  0
   40.7580   23.8620   45.2940 H   0  0  0  0  0  0  0  0  0  0  0  0
   41.3060   25.8980   44.7960 N   0  0  0  0  0  0  0  0  0  0  0  0
   42.2120   26.7500   45.3010 C   0  0  0  0  0  0  0  0  0  0  0  0
   42.5800   28.0440   45.0060 C   0  0  0  0  0  3  0  0  0  0  0  0
   42.6180   24.1410   47.1130 H   0  0  0  0  0  0  0  0  0  0  0  0
  1 21  1  0  0  0  0
  1  5  1  0  0  0  0
  1  6  1  1  0  0  0
  2  7  1  6  0  0  0
  2  1  1  0  0  0  0
  3  2  1  0  0  0  0
  3  4  1  0  0  0  0
  4  5  1  0  0  0  0
  5 23  1  0  0  0  0
  5 10  1  1  0  0  0
  8  4  1  0  0  0  0
  9  4  1  0  0  0  0
 11 19  1  0  0  0  0
 11 16  1  0  0  0  0
 12 11  2  0  0  0  0
 13 12  1  0  0  0  0
 13 14  2  0  0  0  0
 14 15  1  0  0  0  0
 15 16  2  0  0  0  0
 15  2  1  0  0  0  0
 17 12  1  0  0  0  0
 18 13  1  0  0  0  0
 20 19  1  0  0  0  0
 21 22  1  0  0  0  0
 23 24  1  0  0  0  0
 24 26  1  0  0  0  0
 24 25  1  0  0  0  0
 27 24  1  0  0  0  0
 27 29  1  0  0  0  0
 28 27  1  0  0  0  0
 30 31  1  0  0  0  0
 31 32  2  0  0  0  0
 31 27  1  0  0  0  0
 32 33  1  0  0  0  0
 34 35  1  0  0  0  0
 34 32  1  0  0  0  0
 35 41  1  0  0  0  0
 36 35  1  0  0  0  0
 37 36  1  0  0  0  0
 38 39  1  0  0  0  0
 38 36  2  0  0  0  0
 39 34  2  0  0  0  0
 40 39  1  0  0  0  0
 40 30  2  0  0  0  0
M  END
>  <minimizedAffinity>
-5.89157772

>  <minimizedRMSD>
0.480208606

$$$$
