
 OpenBabel03252506373D

 47 51  0  0  1  0  0  0  0  0999 V2000
   46.6880   29.9860   46.4920 S   0  0  0  0  0  0  0  0  0  0  0  0
   44.5290   35.4790   45.1610 C   0  0  0  0  0  0  0  0  0  0  0  0
   45.1840   35.4940   43.9120 C   0  0  0  0  0  0  0  0  0  0  0  0
   46.1090   34.5460   43.6390 C   0  0  0  0  0  0  0  0  0  0  0  0
   46.3510   33.6220   44.6010 N   0  0  0  0  0  0  0  0  0  0  0  0
   45.7330   33.6100   45.7730 C   0  0  0  0  0  0  0  0  0  0  0  0
   44.8170   34.5330   46.0720 N   0  0  0  0  0  0  0  0  0  0  0  0
   46.0720   32.5830   46.7210 N   0  0  0  0  0  0  0  0  0  0  0  0
   45.3370   32.3120   47.9020 C   0  0  0  0  0  0  0  0  0  0  0  0
   46.4120   31.9530   48.9090 C   0  0  0  0  0  0  0  0  0  0  0  0
   47.6950   31.8670   48.1360 C   0  0  0  0  0  0  0  0  0  0  0  0
   47.1940   31.6780   46.7050 C   0  0  1  0  0  0  0  0  0  0  0  0
   43.7950   36.2480   45.3570 H   0  0  0  0  0  0  0  0  0  0  0  0
   46.6140   34.5380   42.7030 H   0  0  0  0  0  0  0  0  0  0  0  0
   44.5400   31.6500   47.9920 H   0  0  0  0  0  0  0  0  0  0  0  0
   44.9580   33.3140   48.2790 H   0  0  0  0  0  0  0  0  0  0  0  0
   46.5220   32.6540   49.7340 H   0  0  0  0  0  0  0  0  0  0  0  0
   46.1740   30.9590   49.3810 H   0  0  0  0  0  0  0  0  0  0  0  0
   48.2760   30.9620   48.4310 H   0  0  0  0  0  0  0  0  0  0  0  0
   48.2810   32.7860   48.2640 H   0  0  0  0  0  0  0  0  0  0  0  0
   48.0280   31.9910   46.0530 H   0  0  0  0  0  0  0  0  0  0  0  0
   44.8170   36.5410   42.9970 N   0  0  0  0  0  0  0  0  0  0  0  0
   45.6040   36.8460   42.3920 H   0  0  0  0  0  0  0  0  0  0  0  0
   43.8760   36.9630   42.9280 H   0  0  0  0  0  0  0  0  0  0  0  0
   45.4290   30.5820   43.4630 O   0  0  0  0  0  0  0  0  0  0  0  0
   44.8790   29.9960   44.4080 C   0  0  0  0  0  0  0  0  0  0  0  0
   45.0900   29.7100   45.8480 C   0  0  1  0  0  0  0  0  0  0  0  0
   44.5790   28.2960   45.9660 C   0  0  0  0  0  0  0  0  0  0  0  0
   43.2090   28.5170   45.3150 C   0  0  0  0  0  0  0  0  0  0  0  0
   43.6190   29.3330   44.1800 N   0  0  0  0  0  0  0  0  0  0  0  0
   44.2290   30.2860   46.2870 H   0  0  0  0  0  0  0  0  0  0  0  0
   45.1170   27.5930   45.3030 H   0  0  0  0  0  0  0  0  0  0  0  0
   44.4570   27.9590   47.0010 H   0  0  0  0  0  0  0  0  0  0  0  0
   42.8460   27.5360   44.9760 H   0  0  0  0  0  0  0  0  0  0  0  0
   42.5140   29.0470   45.9860 H   0  0  0  0  0  0  0  0  0  0  0  0
   42.9690   28.3190   42.1470 C   0  0  0  0  0  3  0  0  0  0  0  0
   42.7350   29.3550   43.0380 C   0  0  0  0  0  0  0  0  0  0  0  0
   41.7510   30.2750   42.8050 C   0  0  0  0  0  0  0  0  0  0  0  0
   41.6340   31.0510   43.5490 H   0  0  0  0  0  0  0  0  0  0  0  0
   40.9710   30.1770   41.6640 C   0  0  0  0  0  0  0  0  0  0  0  0
   39.9600   30.9450   41.2180 N   0  0  0  0  0  0  0  0  0  0  0  0
   39.5520   30.3910   40.0390 C   0  0  0  0  0  0  0  0  0  0  0  0
   38.7440   30.7510   39.3890 H   0  0  0  0  0  0  0  0  0  0  0  0
   40.2790   29.3070   39.7410 N   0  0  0  0  0  0  0  0  0  0  0  0
   41.1690   29.1500   40.7350 C   0  0  0  0  0  0  0  0  0  0  0  0
   42.1840   28.2330   41.0130 C   0  0  0  0  0  3  0  0  0  0  0  0
   39.5620   31.7950   41.6780 H   0  0  0  0  0  0  0  0  0  0  0  0
  1 12  1  0  0  0  0
  2 13  1  0  0  0  0
  2  7  1  0  0  0  0
  3  2  2  0  0  0  0
  4  3  1  0  0  0  0
  4  5  2  0  0  0  0
  5  6  1  0  0  0  0
  6  7  2  0  0  0  0
  6  8  1  0  0  0  0
  8  9  1  0  0  0  0
  9 15  1  0  0  0  0
  9 16  1  0  0  0  0
  9 10  1  0  0  0  0
 10 18  1  0  0  0  0
 10 17  1  0  0  0  0
 11 20  1  0  0  0  0
 11 19  1  0  0  0  0
 11 10  1  0  0  0  0
 12 21  1  6  0  0  0
 12  8  1  0  0  0  0
 12 11  1  0  0  0  0
 14  4  1  0  0  0  0
 22  3  1  0  0  0  0
 23 22  1  0  0  0  0
 24 22  1  0  0  0  0
 25 26  2  0  0  0  0
 26 27  1  0  0  0  0
 27 28  1  0  0  0  0
 27 31  1  1  0  0  0
 27  1  1  0  0  0  0
 28 33  1  0  0  0  0
 29 28  1  0  0  0  0
 29 35  1  0  0  0  0
 30 26  1  0  0  0  0
 30 29  1  0  0  0  0
 32 28  1  0  0  0  0
 34 29  1  0  0  0  0
 36 37  1  0  0  0  0
 37 30  1  0  0  0  0
 38 37  2  0  0  0  0
 38 39  1  0  0  0  0
 40 38  1  0  0  0  0
 41 40  1  0  0  0  0
 41 47  1  0  0  0  0
 42 41  1  0  0  0  0
 43 42  1  0  0  0  0
 44 42  2  0  0  0  0
 44 45  1  0  0  0  0
 45 46  1  0  0  0  0
 45 40  2  0  0  0  0
 46 36  2  0  0  0  0
M  END
>  <minimizedAffinity>
-5.67160034

>  <minimizedRMSD>
0.467956007

$$$$
