
 OpenBabel03242523313D

 25 27  0  0  0  0  0  0  0  0999 V2000
   36.3310   28.4100   41.5590 S   0  0  0  0  0  0  0  0  0  0  0  0
   38.6800   29.9970   41.7960 C   0  0  0  0  0  3  0  0  0  0  0  0
   37.3710   29.8580   41.3850 C   0  0  0  0  0  0  0  0  0  0  0  0
   36.7190   30.9150   40.7590 C   0  0  0  0  0  0  0  0  0  0  0  0
   35.6850   30.9010   40.4000 H   0  0  0  0  0  0  0  0  0  0  0  0
   37.3600   32.1180   40.5360 C   0  0  0  0  0  0  0  0  0  0  0  0
   37.0460   33.3030   39.9820 N   0  0  0  0  0  0  0  0  0  0  0  0
   38.0760   34.1600   40.0270 C   0  0  0  0  0  0  0  0  0  0  0  0
   38.0110   35.1590   39.6290 H   0  0  0  0  0  0  0  0  0  0  0  0
   39.0760   33.4760   40.6360 N   0  0  0  0  0  0  0  0  0  0  0  0
   38.6690   32.2330   40.9560 C   0  0  0  0  0  0  0  0  0  0  0  0
   39.3280   31.1940   41.5780 C   0  0  0  0  0  3  0  0  0  0  0  0
   36.0890   33.4880   39.5750 H   0  0  0  0  0  0  0  0  0  0  0  0
   36.8680   27.4860   43.0380 C   0  0  0  0  0  0  0  0  0  0  0  0
   35.9990   27.2350   43.6780 H   0  0  0  0  0  0  0  0  0  0  0  0
   37.6130   28.1250   43.5550 H   0  0  0  0  0  0  0  0  0  0  0  0
   37.5430   24.0830   41.7270 C   0  0  0  0  0  0  0  0  0  0  0  0
   38.9440   24.0880   41.6870 C   0  0  0  0  0  0  0  0  0  0  0  0
   39.6380   25.2370   42.1010 C   0  0  0  0  0  0  0  0  0  0  0  0
   38.9280   26.3250   42.5350 N   0  0  0  0  0  0  0  0  0  0  0  0
   37.5700   26.2770   42.5580 C   0  0  0  0  0  0  0  0  0  0  0  0
   36.9070   25.1760   42.1600 N   0  0  0  0  0  0  0  0  0  0  0  0
   37.0370   23.2050   41.4100 H   0  0  0  0  0  0  0  0  0  0  0  0
   39.5420   23.2510   41.3510 H   0  0  0  0  0  0  0  0  0  0  0  0
   40.7250   25.2900   42.0880 H   0  0  0  0  0  0  0  0  0  0  0  0
  1 14  1  0  0  0  0
  3  1  1  0  0  0  0
  3  2  2  0  0  0  0
  4  3  1  0  0  0  0
  5  4  1  0  0  0  0
  6  4  2  0  0  0  0
  6 11  1  0  0  0  0
  7  8  1  0  0  0  0
  7  6  1  0  0  0  0
  8 10  2  0  0  0  0
  9  8  1  0  0  0  0
 10 11  1  0  0  0  0
 11 12  2  0  0  0  0
 12  2  1  0  0  0  0
 13  7  1  0  0  0  0
 14 16  1  0  0  0  0
 14 15  1  0  0  0  0
 17 22  1  0  0  0  0
 18 17  2  0  0  0  0
 18 19  1  0  0  0  0
 19 20  2  0  0  0  0
 20 21  1  0  0  0  0
 21 14  1  0  0  0  0
 22 21  2  0  0  0  0
 23 17  1  0  0  0  0
 24 18  1  0  0  0  0
 25 19  1  0  0  0  0
M  END
>  <minimizedAffinity>
-5.02231121

$$$$

 OpenBabel03242523313D

 25 27  0  0  0  0  0  0  0  0999 V2000
   36.5710   28.0430   42.2790 S   0  0  0  0  0  0  0  0  0  0  0  0
   36.5550   28.9720   39.5890 C   0  0  0  0  0  3  0  0  0  0  0  0
   36.6870   29.2260   40.9380 C   0  0  0  0  0  0  0  0  0  0  0  0
   36.9370   30.5190   41.3850 C   0  0  0  0  0  0  0  0  0  0  0  0
   37.0570   30.8190   42.4310 H   0  0  0  0  0  0  0  0  0  0  0  0
   37.0600   31.5700   40.4970 C   0  0  0  0  0  0  0  0  0  0  0  0
   37.2920   32.8930   40.5760 N   0  0  0  0  0  0  0  0  0  0  0  0
   37.3120   33.4660   39.3640 C   0  0  0  0  0  0  0  0  0  0  0  0
   37.4850   34.5220   39.2300 H   0  0  0  0  0  0  0  0  0  0  0  0
   37.0820   32.4540   38.4920 N   0  0  0  0  0  0  0  0  0  0  0  0
   36.9250   31.2910   39.1530 C   0  0  0  0  0  0  0  0  0  0  0  0
   36.6760   30.0140   38.6960 C   0  0  0  0  0  3  0  0  0  0  0  0
   37.4360   33.3750   41.5050 H   0  0  0  0  0  0  0  0  0  0  0  0
   38.0820   28.1700   43.2940 C   0  0  0  0  0  0  0  0  0  0  0  0
   37.8270   28.4240   44.3430 H   0  0  0  0  0  0  0  0  0  0  0  0
   38.7230   28.9360   42.8110 H   0  0  0  0  0  0  0  0  0  0  0  0
   40.6480   25.5090   43.5860 C   0  0  0  0  0  0  0  0  0  0  0  0
   39.9920   24.4400   42.9580 C   0  0  0  0  0  0  0  0  0  0  0  0
   38.6980   24.6330   42.4480 C   0  0  0  0  0  0  0  0  0  0  0  0
   38.1070   25.8620   42.5760 N   0  0  0  0  0  0  0  0  0  0  0  0
   38.7780   26.8710   43.1920 C   0  0  0  0  0  0  0  0  0  0  0  0
   40.0180   26.6840   43.6790 N   0  0  0  0  0  0  0  0  0  0  0  0
   41.6260   25.3420   43.9640 H   0  0  0  0  0  0  0  0  0  0  0  0
   40.4240   23.4550   42.8370 H   0  0  0  0  0  0  0  0  0  0  0  0
   38.1480   23.8350   41.9530 H   0  0  0  0  0  0  0  0  0  0  0  0
  1 14  1  0  0  0  0
  2  3  1  0  0  0  0
  3  4  2  0  0  0  0
  3  1  1  0  0  0  0
  4  5  1  0  0  0  0
  6  7  1  0  0  0  0
  6  4  1  0  0  0  0
  7 13  1  0  0  0  0
  8  7  1  0  0  0  0
  9  8  1  0  0  0  0
 10 11  1  0  0  0  0
 10  8  2  0  0  0  0
 11  6  2  0  0  0  0
 12 11  1  0  0  0  0
 12  2  2  0  0  0  0
 14 15  1  0  0  0  0
 16 14  1  0  0  0  0
 17 22  1  0  0  0  0
 17 23  1  0  0  0  0
 18 17  2  0  0  0  0
 19 20  2  0  0  0  0
 19 18  1  0  0  0  0
 20 21  1  0  0  0  0
 21 14  1  0  0  0  0
 21 22  2  0  0  0  0
 24 18  1  0  0  0  0
 25 19  1  0  0  0  0
M  END
>  <minimizedAffinity>
-4.94203424

$$$$

 OpenBabel03242523313D

 25 27  0  0  0  0  0  0  0  0999 V2000
   37.0360   29.1740   41.7430 S   0  0  0  0  0  0  0  0  0  0  0  0
   36.8370   31.5990   40.2660 C   0  0  0  0  0  3  0  0  0  0  0  0
   37.5660   30.7470   41.0690 C   0  0  0  0  0  0  0  0  0  0  0  0
   38.8650   31.0790   41.4410 C   0  0  0  0  0  0  0  0  0  0  0  0
   39.5210   30.4710   42.0720 H   0  0  0  0  0  0  0  0  0  0  0  0
   39.4500   32.2560   41.0180 C   0  0  0  0  0  0  0  0  0  0  0  0
   40.6370   32.8690   41.1780 N   0  0  0  0  0  0  0  0  0  0  0  0
   40.6830   34.0400   40.5260 C   0  0  0  0  0  0  0  0  0  0  0  0
   41.5550   34.6730   40.5400 H   0  0  0  0  0  0  0  0  0  0  0  0
   39.4700   34.1600   39.9330 N   0  0  0  0  0  0  0  0  0  0  0  0
   38.7010   33.0910   40.2150 C   0  0  0  0  0  0  0  0  0  0  0  0
   37.4120   32.7760   39.8390 C   0  0  0  0  0  3  0  0  0  0  0  0
   41.4080   32.4390   41.7580 H   0  0  0  0  0  0  0  0  0  0  0  0
   37.9910   28.8450   43.2620 C   0  0  0  0  0  0  0  0  0  0  0  0
   37.3490   28.9550   44.1590 H   0  0  0  0  0  0  0  0  0  0  0  0
   38.8460   29.5520   43.2560 H   0  0  0  0  0  0  0  0  0  0  0  0
   38.3380   25.2420   42.4500 C   0  0  0  0  0  0  0  0  0  0  0  0
   39.6230   24.9820   42.9490 C   0  0  0  0  0  0  0  0  0  0  0  0
   40.3490   26.0230   43.5490 C   0  0  0  0  0  0  0  0  0  0  0  0
   39.7860   27.2680   43.6340 N   0  0  0  0  0  0  0  0  0  0  0  0
   38.5380   27.4770   43.1370 C   0  0  0  0  0  0  0  0  0  0  0  0
   37.8430   26.4790   42.5620 N   0  0  0  0  0  0  0  0  0  0  0  0
   37.8050   24.4420   42.0010 H   0  0  0  0  0  0  0  0  0  0  0  0
   40.1030   24.0130   42.9030 H   0  0  0  0  0  0  0  0  0  0  0  0
   41.3500   25.8700   43.9510 H   0  0  0  0  0  0  0  0  0  0  0  0
  1 14  1  0  0  0  0
  2  3  1  0  0  0  0
  3  4  2  0  0  0  0
  3  1  1  0  0  0  0
  4  5  1  0  0  0  0
  6  7  1  0  0  0  0
  6  4  1  0  0  0  0
  7 13  1  0  0  0  0
  8  9  1  0  0  0  0
  8  7  1  0  0  0  0
 10 11  1  0  0  0  0
 10  8  2  0  0  0  0
 11  6  2  0  0  0  0
 12 11  1  0  0  0  0
 12  2  2  0  0  0  0
 14 15  1  0  0  0  0
 16 14  1  0  0  0  0
 17 22  2  0  0  0  0
 17 18  1  0  0  0  0
 18 19  2  0  0  0  0
 19 20  1  0  0  0  0
 19 25  1  0  0  0  0
 21 14  1  0  0  0  0
 21 20  2  0  0  0  0
 22 21  1  0  0  0  0
 23 17  1  0  0  0  0
 24 18  1  0  0  0  0
M  END
>  <minimizedAffinity>
-4.83946419

$$$$

 OpenBabel03242523313D

 25 27  0  0  0  0  0  0  0  0999 V2000
   36.7400   28.8380   41.6800 S   0  0  0  0  0  0  0  0  0  0  0  0
   36.5980   31.2300   40.1460 C   0  0  0  0  0  3  0  0  0  0  0  0
   37.2920   30.4020   41.0030 C   0  0  0  0  0  0  0  0  0  0  0  0
   38.5660   30.7540   41.4340 C   0  0  0  0  0  0  0  0  0  0  0  0
   39.1940   30.1640   42.1110 H   0  0  0  0  0  0  0  0  0  0  0  0
   39.1630   31.9280   41.0190 C   0  0  0  0  0  0  0  0  0  0  0  0
   40.3340   32.5550   41.2280 N   0  0  0  0  0  0  0  0  0  0  0  0
   40.4040   33.7130   40.5560 C   0  0  0  0  0  0  0  0  0  0  0  0
   41.2690   34.3540   40.6020 H   0  0  0  0  0  0  0  0  0  0  0  0
   39.2230   33.8100   39.8980 N   0  0  0  0  0  0  0  0  0  0  0  0
   38.4490   32.7390   40.1610 C   0  0  0  0  0  0  0  0  0  0  0  0
   37.1840   32.4040   39.7260 C   0  0  0  0  0  3  0  0  0  0  0  0
   41.0780   32.1440   41.8550 H   0  0  0  0  0  0  0  0  0  0  0  0
   37.6300   28.5390   43.2440 C   0  0  0  0  0  0  0  0  0  0  0  0
   36.9310   28.5740   44.1040 H   0  0  0  0  0  0  0  0  0  0  0  0
   38.4260   29.3100   43.3070 H   0  0  0  0  0  0  0  0  0  0  0  0
   40.0800   25.7740   43.5650 C   0  0  0  0  0  0  0  0  0  0  0  0
   39.4360   24.7640   42.8370 C   0  0  0  0  0  0  0  0  0  0  0  0
   38.1880   25.0310   42.2510 C   0  0  0  0  0  0  0  0  0  0  0  0
   37.6300   26.2720   42.4050 N   0  0  0  0  0  0  0  0  0  0  0  0
   38.2890   27.2230   43.1190 C   0  0  0  0  0  0  0  0  0  0  0  0
   39.4850   26.9650   43.6800 N   0  0  0  0  0  0  0  0  0  0  0  0
   41.0230   25.5520   44.0000 H   0  0  0  0  0  0  0  0  0  0  0  0
   39.8420   23.7710   42.6920 H   0  0  0  0  0  0  0  0  0  0  0  0
   37.6480   24.2800   41.6770 H   0  0  0  0  0  0  0  0  0  0  0  0
  1 14  1  0  0  0  0
  2  3  1  0  0  0  0
  3  4  2  0  0  0  0
  3  1  1  0  0  0  0
  4  5  1  0  0  0  0
  6  7  1  0  0  0  0
  6  4  1  0  0  0  0
  7 13  1  0  0  0  0
  8  9  1  0  0  0  0
  8  7  1  0  0  0  0
 10 11  1  0  0  0  0
 10  8  2  0  0  0  0
 11  6  2  0  0  0  0
 12  2  2  0  0  0  0
 12 11  1  0  0  0  0
 14 16  1  0  0  0  0
 14 15  1  0  0  0  0
 17 22  1  0  0  0  0
 17 23  1  0  0  0  0
 18 17  2  0  0  0  0
 19 20  2  0  0  0  0
 19 18  1  0  0  0  0
 20 21  1  0  0  0  0
 21 14  1  0  0  0  0
 21 22  2  0  0  0  0
 24 18  1  0  0  0  0
 25 19  1  0  0  0  0
M  END
>  <minimizedAffinity>
-4.78155804

$$$$

 OpenBabel03242523313D

 25 27  0  0  0  0  0  0  0  0999 V2000
   36.9970   30.8580   39.3480 S   0  0  0  0  0  0  0  0  0  0  0  0
   38.7570   32.8590   40.3470 C   0  0  0  0  0  3  0  0  0  0  0  0
   38.4110   31.9590   39.3610 C   0  0  0  0  0  0  0  0  0  0  0  0
   39.1980   31.8340   38.2210 C   0  0  0  0  0  0  0  0  0  0  0  0
   39.0060   31.1510   37.3870 H   0  0  0  0  0  0  0  0  0  0  0  0
   40.3340   32.6010   38.0500 C   0  0  0  0  0  0  0  0  0  0  0  0
   41.2880   32.7360   37.1110 N   0  0  0  0  0  0  0  0  0  0  0  0
   42.1960   33.6600   37.4570 C   0  0  0  0  0  0  0  0  0  0  0  0
   43.0360   33.9040   36.8270 H   0  0  0  0  0  0  0  0  0  0  0  0
   41.7880   34.1200   38.6650 N   0  0  0  0  0  0  0  0  0  0  0  0
   40.6590   33.4950   39.0490 C   0  0  0  0  0  0  0  0  0  0  0  0
   39.8880   33.6290   40.1850 C   0  0  0  0  0  3  0  0  0  0  0  0
   41.2780   32.1610   36.2250 H   0  0  0  0  0  0  0  0  0  0  0  0
   36.2850   30.8130   41.0280 C   0  0  0  0  0  0  0  0  0  0  0  0
   35.1840   30.6920   40.9820 H   0  0  0  0  0  0  0  0  0  0  0  0
   36.5940   31.7550   41.5270 H   0  0  0  0  0  0  0  0  0  0  0  0
   38.6630   28.8410   43.0810 C   0  0  0  0  0  0  0  0  0  0  0  0
   38.0710   27.5720   43.0250 C   0  0  0  0  0  0  0  0  0  0  0  0
   36.8820   27.4010   42.2980 C   0  0  0  0  0  0  0  0  0  0  0  0
   36.3290   28.4800   41.6600 N   0  0  0  0  0  0  0  0  0  0  0  0
   36.9360   29.6940   41.7400 C   0  0  0  0  0  0  0  0  0  0  0  0
   38.0760   29.8550   42.4370 N   0  0  0  0  0  0  0  0  0  0  0  0
   39.5620   28.9490   43.6350 H   0  0  0  0  0  0  0  0  0  0  0  0
   38.4750   26.6950   43.5140 H   0  0  0  0  0  0  0  0  0  0  0  0
   36.3840   26.4360   42.2250 H   0  0  0  0  0  0  0  0  0  0  0  0
  1  3  1  0  0  0  0
  1 14  1  0  0  0  0
  3  2  2  0  0  0  0
  4  3  1  0  0  0  0
  5  4  1  0  0  0  0
  6  4  2  0  0  0  0
  6 11  1  0  0  0  0
  7  8  1  0  0  0  0
  7  6  1  0  0  0  0
  8 10  2  0  0  0  0
  9  8  1  0  0  0  0
 10 11  1  0  0  0  0
 11 12  2  0  0  0  0
 12  2  1  0  0  0  0
 13  7  1  0  0  0  0
 14 16  1  0  0  0  0
 14 21  1  0  0  0  0
 15 14  1  0  0  0  0
 17 23  1  0  0  0  0
 18 17  1  0  0  0  0
 18 24  1  0  0  0  0
 19 18  2  0  0  0  0
 20 21  2  0  0  0  0
 20 19  1  0  0  0  0
 21 22  1  0  0  0  0
 22 17  2  0  0  0  0
 25 19  1  0  0  0  0
M  END
>  <minimizedAffinity>
-4.7624917

$$$$

 OpenBabel03242523313D

 25 27  0  0  0  0  0  0  0  0999 V2000
   37.3120   32.4330   39.7060 S   0  0  0  0  0  0  0  0  0  0  0  0
   35.8520   30.0580   40.2740 C   0  0  0  0  0  3  0  0  0  0  0  0
   36.9370   30.8760   40.5090 C   0  0  0  0  0  0  0  0  0  0  0  0
   37.8870   30.5200   41.4600 C   0  0  0  0  0  0  0  0  0  0  0  0
   38.7780   31.1020   41.7170 H   0  0  0  0  0  0  0  0  0  0  0  0
   37.7690   29.3510   42.1850 C   0  0  0  0  0  0  0  0  0  0  0  0
   38.4720   28.7210   43.1440 N   0  0  0  0  0  0  0  0  0  0  0  0
   37.8900   27.5710   43.5120 C   0  0  0  0  0  0  0  0  0  0  0  0
   38.3100   26.9300   44.2690 H   0  0  0  0  0  0  0  0  0  0  0  0
   36.7730   27.4810   42.7480 N   0  0  0  0  0  0  0  0  0  0  0  0
   36.6750   28.5490   41.9330 C   0  0  0  0  0  0  0  0  0  0  0  0
   35.7250   28.8890   40.9920 C   0  0  0  0  0  3  0  0  0  0  0  0
   39.3690   29.1260   43.5290 H   0  0  0  0  0  0  0  0  0  0  0  0
   38.7820   33.1570   40.5090 C   0  0  0  0  0  0  0  0  0  0  0  0
   39.0780   32.5580   41.3940 H   0  0  0  0  0  0  0  0  0  0  0  0
   38.5160   34.2030   40.7670 H   0  0  0  0  0  0  0  0  0  0  0  0
   41.8160   34.1420   38.6180 C   0  0  0  0  0  0  0  0  0  0  0  0
   41.7800   33.2200   37.5620 C   0  0  0  0  0  0  0  0  0  0  0  0
   40.7360   32.2830   37.5050 C   0  0  0  0  0  0  0  0  0  0  0  0
   39.7770   32.2920   38.4820 N   0  0  0  0  0  0  0  0  0  0  0  0
   39.8500   33.2030   39.4890 C   0  0  0  0  0  0  0  0  0  0  0  0
   40.8510   34.1000   39.5410 N   0  0  0  0  0  0  0  0  0  0  0  0
   42.6140   34.8420   38.6420 H   0  0  0  0  0  0  0  0  0  0  0  0
   42.5180   33.1790   36.7710 H   0  0  0  0  0  0  0  0  0  0  0  0
   40.6640   31.5470   36.7060 H   0  0  0  0  0  0  0  0  0  0  0  0
  1 14  1  0  0  0  0
  1  3  1  0  0  0  0
  2  3  2  0  0  0  0
  2 12  1  0  0  0  0
  3  4  1  0  0  0  0
  4  5  1  0  0  0  0
  4  6  2  0  0  0  0
  6  7  1  0  0  0  0
  7  8  1  0  0  0  0
  7 13  1  0  0  0  0
  8  9  1  0  0  0  0
 10  8  2  0  0  0  0
 11  6  1  0  0  0  0
 11 10  1  0  0  0  0
 12 11  2  0  0  0  0
 14 16  1  0  0  0  0
 14 15  1  0  0  0  0
 17 23  1  0  0  0  0
 17 22  1  0  0  0  0
 18 17  2  0  0  0  0
 19 18  1  0  0  0  0
 19 20  2  0  0  0  0
 20 21  1  0  0  0  0
 21 22  2  0  0  0  0
 21 14  1  0  0  0  0
 24 18  1  0  0  0  0
 25 19  1  0  0  0  0
M  END
>  <minimizedAffinity>
-4.74451065

$$$$

 OpenBabel03242523313D

 25 27  0  0  0  0  0  0  0  0999 V2000
   39.5220   30.2520   42.7000 S   0  0  0  0  0  0  0  0  0  0  0  0
   37.3460   28.5390   43.3540 C   0  0  0  0  0  3  0  0  0  0  0  0
   38.5430   28.7510   42.7040 C   0  0  0  0  0  0  0  0  0  0  0  0
   39.1170   27.7350   41.9480 C   0  0  0  0  0  0  0  0  0  0  0  0
   40.0620   27.8070   41.3990 H   0  0  0  0  0  0  0  0  0  0  0  0
   38.5090   26.5010   41.8310 C   0  0  0  0  0  0  0  0  0  0  0  0
   38.7720   25.3380   41.2090 N   0  0  0  0  0  0  0  0  0  0  0  0
   37.8140   24.4270   41.4340 C   0  0  0  0  0  0  0  0  0  0  0  0
   37.8540   23.4340   41.0160 H   0  0  0  0  0  0  0  0  0  0  0  0
   36.9150   25.0510   42.2340 N   0  0  0  0  0  0  0  0  0  0  0  0
   37.3120   26.3120   42.4910 C   0  0  0  0  0  0  0  0  0  0  0  0
   36.7300   27.3110   43.2440 C   0  0  0  0  0  3  0  0  0  0  0  0
   39.6420   25.2070   40.6240 H   0  0  0  0  0  0  0  0  0  0  0  0
   40.0120   30.6170   40.9810 C   0  0  0  0  0  0  0  0  0  0  0  0
   40.0050   29.6930   40.3680 H   0  0  0  0  0  0  0  0  0  0  0  0
   41.0140   31.0910   41.0320 H   0  0  0  0  0  0  0  0  0  0  0  0
   38.4130   33.8610   40.1580 C   0  0  0  0  0  0  0  0  0  0  0  0
   37.2570   33.4250   39.4950 C   0  0  0  0  0  0  0  0  0  0  0  0
   37.0360   32.0470   39.3360 C   0  0  0  0  0  0  0  0  0  0  0  0
   37.9550   31.1620   39.8330 N   0  0  0  0  0  0  0  0  0  0  0  0
   39.0630   31.6280   40.4690 C   0  0  0  0  0  0  0  0  0  0  0  0
   39.2720   32.9480   40.6210 N   0  0  0  0  0  0  0  0  0  0  0  0
   38.5610   34.9070   40.2690 H   0  0  0  0  0  0  0  0  0  0  0  0
   36.5070   34.0910   39.0880 H   0  0  0  0  0  0  0  0  0  0  0  0
   36.1550   31.6600   38.8280 H   0  0  0  0  0  0  0  0  0  0  0  0
  1  3  1  0  0  0  0
  3  2  2  0  0  0  0
  4  3  1  0  0  0  0
  5  4  1  0  0  0  0
  6  4  2  0  0  0  0
  6 11  1  0  0  0  0
  7  8  1  0  0  0  0
  7  6  1  0  0  0  0
  8 10  2  0  0  0  0
  9  8  1  0  0  0  0
 10 11  1  0  0  0  0
 11 12  2  0  0  0  0
 12  2  1  0  0  0  0
 13  7  1  0  0  0  0
 14 16  1  0  0  0  0
 14  1  1  0  0  0  0
 15 14  1  0  0  0  0
 17 23  1  0  0  0  0
 17 22  1  0  0  0  0
 18 17  2  0  0  0  0
 19 18  1  0  0  0  0
 19 20  2  0  0  0  0
 20 21  1  0  0  0  0
 21 22  2  0  0  0  0
 21 14  1  0  0  0  0
 24 18  1  0  0  0  0
 25 19  1  0  0  0  0
M  END
>  <minimizedAffinity>
-4.63176012

$$$$

 OpenBabel03242523313D

 25 27  0  0  0  0  0  0  0  0999 V2000
   35.6080   29.5370   40.2900 S   0  0  0  0  0  0  0  0  0  0  0  0
   36.5490   27.9410   42.4490 C   0  0  0  0  0  3  0  0  0  0  0  0
   36.2860   28.0930   41.1040 C   0  0  0  0  0  0  0  0  0  0  0  0
   36.5510   27.0530   40.2200 C   0  0  0  0  0  0  0  0  0  0  0  0
   36.3780   27.0780   39.1390 H   0  0  0  0  0  0  0  0  0  0  0  0
   37.0780   25.8550   40.6620 C   0  0  0  0  0  0  0  0  0  0  0  0
   37.4430   24.6850   40.1070 N   0  0  0  0  0  0  0  0  0  0  0  0
   37.9120   23.8270   41.0240 C   0  0  0  0  0  0  0  0  0  0  0  0
   38.2530   22.8380   40.7650 H   0  0  0  0  0  0  0  0  0  0  0  0
   37.8360   24.4930   42.2020 N   0  0  0  0  0  0  0  0  0  0  0  0
   37.3320   25.7280   42.0120 C   0  0  0  0  0  0  0  0  0  0  0  0
   37.0750   26.7500   42.9010 C   0  0  0  0  0  3  0  0  0  0  0  0
   37.3520   24.5120   39.0690 H   0  0  0  0  0  0  0  0  0  0  0  0
   36.8170   30.1250   39.0560 C   0  0  0  0  0  0  0  0  0  0  0  0
   36.3110   30.3700   38.1000 H   0  0  0  0  0  0  0  0  0  0  0  0
   37.5740   29.3210   38.9470 H   0  0  0  0  0  0  0  0  0  0  0  0
   39.1030   32.2460   41.0630 C   0  0  0  0  0  0  0  0  0  0  0  0
   38.6820   33.5270   40.6780 C   0  0  0  0  0  0  0  0  0  0  0  0
   37.6360   33.6540   39.7490 C   0  0  0  0  0  0  0  0  0  0  0  0
   37.0520   32.5240   39.2420 N   0  0  0  0  0  0  0  0  0  0  0  0
   37.4920   31.3010   39.6420 C   0  0  0  0  0  0  0  0  0  0  0  0
   38.4940   31.1820   40.5320 N   0  0  0  0  0  0  0  0  0  0  0  0
   39.8950   32.1720   41.7670 H   0  0  0  0  0  0  0  0  0  0  0  0
   39.1160   34.4440   41.0540 H   0  0  0  0  0  0  0  0  0  0  0  0
   37.2740   34.6260   39.4180 H   0  0  0  0  0  0  0  0  0  0  0  0
  1  3  1  0  0  0  0
  2 12  1  0  0  0  0
  3  2  2  0  0  0  0
  4  6  2  0  0  0  0
  4  3  1  0  0  0  0
  5  4  1  0  0  0  0
  6 11  1  0  0  0  0
  7  6  1  0  0  0  0
  7  8  1  0  0  0  0
  8 10  2  0  0  0  0
  9  8  1  0  0  0  0
 11 10  1  0  0  0  0
 11 12  2  0  0  0  0
 13  7  1  0  0  0  0
 14 21  1  0  0  0  0
 14  1  1  0  0  0  0
 15 14  1  0  0  0  0
 16 14  1  0  0  0  0
 17 23  1  0  0  0  0
 18 24  1  0  0  0  0
 18 17  1  0  0  0  0
 19 18  2  0  0  0  0
 20 21  2  0  0  0  0
 20 19  1  0  0  0  0
 21 22  1  0  0  0  0
 22 17  2  0  0  0  0
 25 19  1  0  0  0  0
M  END
>  <minimizedAffinity>
-4.59662342

$$$$

 OpenBabel03242523313D

 25 27  0  0  0  0  0  0  0  0999 V2000
   37.2530   30.8970   39.5620 S   0  0  0  0  0  0  0  0  0  0  0  0
   35.2840   29.3190   38.2480 C   0  0  0  0  0  3  0  0  0  0  0  0
   36.4370   30.0740   38.1960 C   0  0  0  0  0  0  0  0  0  0  0  0
   37.0940   30.2630   36.9850 C   0  0  0  0  0  0  0  0  0  0  0  0
   38.0120   30.8440   36.8440 H   0  0  0  0  0  0  0  0  0  0  0  0
   36.6150   29.7050   35.8170 C   0  0  0  0  0  0  0  0  0  0  0  0
   36.9820   29.6830   34.5230 N   0  0  0  0  0  0  0  0  0  0  0  0
   36.1300   28.9630   33.7780 C   0  0  0  0  0  0  0  0  0  0  0  0
   36.2620   28.8330   32.7160 H   0  0  0  0  0  0  0  0  0  0  0  0
   35.1910   28.5170   34.6480 N   0  0  0  0  0  0  0  0  0  0  0  0
   35.4610   28.9530   35.8940 C   0  0  0  0  0  0  0  0  0  0  0  0
   34.7980   28.7570   37.0880 C   0  0  0  0  0  3  0  0  0  0  0  0
   37.8460   30.1870   34.1840 H   0  0  0  0  0  0  0  0  0  0  0  0
   36.2650   30.6300   41.0720 C   0  0  0  0  0  0  0  0  0  0  0  0
   35.2110   30.4040   40.8130 H   0  0  0  0  0  0  0  0  0  0  0  0
   36.3690   31.5500   41.6840 H   0  0  0  0  0  0  0  0  0  0  0  0
   36.9030   27.3120   42.6020 C   0  0  0  0  0  0  0  0  0  0  0  0
   38.1510   27.5330   43.2000 C   0  0  0  0  0  0  0  0  0  0  0  0
   38.7570   28.7940   43.0780 C   0  0  0  0  0  0  0  0  0  0  0  0
   38.1130   29.7790   42.3780 N   0  0  0  0  0  0  0  0  0  0  0  0
   36.9030   29.5220   41.8130 C   0  0  0  0  0  0  0  0  0  0  0  0
   36.3240   28.3130   41.9310 N   0  0  0  0  0  0  0  0  0  0  0  0
   36.4610   26.3520   42.7060 H   0  0  0  0  0  0  0  0  0  0  0  0
   38.6920   26.7830   43.7620 H   0  0  0  0  0  0  0  0  0  0  0  0
   39.7250   29.0140   43.5240 H   0  0  0  0  0  0  0  0  0  0  0  0
  1 14  1  0  0  0  0
  3  2  1  0  0  0  0
  3  1  1  0  0  0  0
  4  3  2  0  0  0  0
  5  4  1  0  0  0  0
  6 11  2  0  0  0  0
  6  4  1  0  0  0  0
  7  6  1  0  0  0  0
  8  7  1  0  0  0  0
  8 10  2  0  0  0  0
  9  8  1  0  0  0  0
 10 11  1  0  0  0  0
 11 12  1  0  0  0  0
 12  2  2  0  0  0  0
 13  7  1  0  0  0  0
 14 16  1  0  0  0  0
 14 21  1  0  0  0  0
 15 14  1  0  0  0  0
 17 23  1  0  0  0  0
 17 18  1  0  0  0  0
 18 24  1  0  0  0  0
 19 18  2  0  0  0  0
 19 25  1  0  0  0  0
 20 19  1  0  0  0  0
 21 22  1  0  0  0  0
 21 20  2  0  0  0  0
 22 17  2  0  0  0  0
M  END
>  <minimizedAffinity>
-4.55098248

$$$$
