
 OpenBabel03252507043D

 50 54  0  0  0  0  0  0  0  0999 V2000
   41.0120   33.5900   40.1990 N   0  0  0  0  0  0  0  0  0  0  0  0
   40.3960   32.3000   40.2100 C   0  0  0  0  0  0  0  0  0  0  0  0
   39.0340   32.6940   40.7750 C   0  0  0  0  0  0  0  0  0  0  0  0
   38.3110   33.6590   39.9640 C   0  0  0  0  0  0  0  0  0  0  0  0
   39.0590   34.5310   39.0850 C   0  0  0  0  0  0  0  0  0  0  0  0
   40.5680   34.5630   39.1760 C   0  0  0  0  0  0  0  0  0  0  0  0
   40.3550   31.7290   39.3000 H   0  0  0  0  0  0  0  0  0  0  0  0
   40.8560   31.6630   40.9860 H   0  0  0  0  0  0  0  0  0  0  0  0
   39.1780   33.0130   41.8330 H   0  0  0  0  0  0  0  0  0  0  0  0
   38.4560   31.7300   40.8630 H   0  0  0  0  0  0  0  0  0  0  0  0
   37.5660   33.1090   39.3160 H   0  0  0  0  0  0  0  0  0  0  0  0
   37.6760   34.2960   40.6360 H   0  0  0  0  0  0  0  0  0  0  0  0
   38.6420   35.1810   38.3840 H   0  0  0  0  0  0  0  0  0  0  0  0
   41.9460   34.0440   41.0390 C   0  0  0  0  0  0  0  0  0  0  0  0
   41.6320   34.0020   42.1050 H   0  0  0  0  0  0  0  0  0  0  0  0
   42.1970   35.1510   40.8890 H   0  0  0  0  0  0  0  0  0  0  0  0
   43.2560   33.3560   40.9200 C   0  0  0  0  0  0  0  0  0  0  0  0
   43.2040   32.3620   41.4210 H   0  0  0  0  0  0  0  0  0  0  0  0
   43.5270   33.2180   39.8370 H   0  0  0  0  0  0  0  0  0  0  0  0
   44.2700   34.1580   41.6270 C   0  0  0  0  0  0  0  0  0  0  0  0
   43.9040   35.2980   42.3050 C   0  0  0  0  0  0  0  0  0  0  0  0
   44.8920   36.0320   42.9480 C   0  0  0  0  0  0  0  0  0  0  0  0
   46.1780   35.5790   42.8730 N   0  0  0  0  0  0  0  0  0  0  0  0
   46.4940   34.4690   42.2090 C   0  0  0  0  0  0  0  0  0  0  0  0
   45.5260   33.7800   41.5950 N   0  0  0  0  0  0  0  0  0  0  0  0
   42.9690   35.7990   42.4910 H   0  0  0  0  0  0  0  0  0  0  0  0
   44.7930   36.9520   43.5270 H   0  0  0  0  0  0  0  0  0  0  0  0
   47.8920   34.0440   42.2180 C   0  0  0  0  0  0  0  0  0  0  0  0
   48.2200   32.7100   41.9930 C   0  0  0  0  0  0  0  0  0  0  0  0
   49.5420   32.3130   42.0200 C   0  0  0  0  0  0  0  0  0  0  0  0
   50.4370   33.3220   42.2780 C   0  0  0  0  0  0  0  0  0  0  0  0
   50.1600   34.6630   42.5070 C   0  0  0  0  0  0  0  0  0  0  0  0
   48.8370   34.9710   42.4640 N   0  0  0  0  0  0  0  0  0  0  0  0
   47.4430   31.9940   41.7990 H   0  0  0  0  0  0  0  0  0  0  0  0
   49.8640   31.3140   41.8570 H   0  0  0  0  0  0  0  0  0  0  0  0
   51.4980   33.0560   42.3090 H   0  0  0  0  0  0  0  0  0  0  0  0
   50.9330   35.3860   42.7020 H   0  0  0  0  0  0  0  0  0  0  0  0
   41.5800   35.5740   38.2250 S   0  0  0  0  0  0  0  0  0  0  0  0
   40.9530   36.9520   36.2100 C   0  0  0  0  0  3  0  0  0  0  0  0
   40.9750   37.0630   37.6010 C   0  0  0  0  0  0  0  0  0  0  0  0
   40.5550   38.2660   38.0440 C   0  0  0  0  0  0  0  0  0  0  0  0
   40.5960   38.3640   39.1110 H   0  0  0  0  0  0  0  0  0  0  0  0
   40.1330   39.3340   37.3280 C   0  0  0  0  0  0  0  0  0  0  0  0
   39.7040   40.5510   37.6960 N   0  0  0  0  0  0  0  0  0  0  0  0
   39.4270   41.1650   36.5180 C   0  0  0  0  0  0  0  0  0  0  0  0
   39.0520   42.1920   36.5080 H   0  0  0  0  0  0  0  0  0  0  0  0
   39.6730   40.3650   35.4790 N   0  0  0  0  0  0  0  0  0  0  0  0
   40.1280   39.1830   35.9620 C   0  0  0  0  0  0  0  0  0  0  0  0
   40.5360   37.9960   35.3800 C   0  0  0  0  0  3  0  0  0  0  0  0
   39.6080   40.9330   38.6700 H   0  0  0  0  0  0  0  0  0  0  0  0
  1  2  1  0  0  0  0
  1 14  1  0  0  0  0
  2  3  1  0  0  0  0
  2  8  1  0  0  0  0
  3 10  1  0  0  0  0
  3  9  1  0  0  0  0
  4 12  1  0  0  0  0
  4  3  1  0  0  0  0
  5  6  2  0  0  0  0
  5  4  1  0  0  0  0
  6  1  1  0  0  0  0
  7  2  1  0  0  0  0
 11  4  1  0  0  0  0
 13  5  1  0  0  0  0
 14 15  1  0  0  0  0
 16 14  1  0  0  0  0
 17 14  1  0  0  0  0
 17 18  1  0  0  0  0
 17 20  1  0  0  0  0
 19 17  1  0  0  0  0
 20 21  1  0  0  0  0
 21 26  1  0  0  0  0
 21 22  2  0  0  0  0
 22 27  1  0  0  0  0
 23 22  1  0  0  0  0
 24 28  1  0  0  0  0
 24 23  2  0  0  0  0
 25 20  2  0  0  0  0
 25 24  1  0  0  0  0
 28 33  1  0  0  0  0
 29 30  1  0  0  0  0
 29 28  2  0  0  0  0
 30 31  2  0  0  0  0
 31 36  1  0  0  0  0
 31 32  1  0  0  0  0
 32 37  1  0  0  0  0
 33 32  2  0  0  0  0
 34 29  1  0  0  0  0
 35 30  1  0  0  0  0
 38  6  1  0  0  0  0
 39 40  1  0  0  0  0
 40 41  2  0  0  0  0
 40 38  1  0  0  0  0
 41 42  1  0  0  0  0
 43 44  1  0  0  0  0
 43 41  1  0  0  0  0
 44 50  1  0  0  0  0
 45 44  1  0  0  0  0
 46 45  1  0  0  0  0
 47 48  1  0  0  0  0
 47 45  2  0  0  0  0
 48 43  2  0  0  0  0
 49 48  1  0  0  0  0
 49 39  2  0  0  0  0
M  END
>  <minimizedAffinity>
-2.79009271

>  <minimizedRMSD>
0.475547254

$$$$
