
 OpenBabel03252505403D

 31 34  0  0  1  0  0  0  0  0999 V2000
   44.6350   34.4580   43.3540 C   0  0  1  0  0  0  0  0  0  0  0  0
   45.1890   35.8310   42.9050 C   0  0  0  0  0  0  0  0  0  0  0  0
   44.7560   34.7830   41.9320 C   0  0  2  0  0  0  0  0  0  0  0  0
   43.7150   34.6210   43.9770 H   0  0  0  0  0  0  0  0  0  0  0  0
   44.5330   36.7090   42.9760 H   0  0  0  0  0  0  0  0  0  0  0  0
   46.2590   35.9990   43.0500 H   0  0  0  0  0  0  0  0  0  0  0  0
   45.5530   34.3120   41.3560 H   0  0  0  0  0  0  0  0  0  0  0  0
   42.4000   35.5180   41.8340 C   0  0  0  0  0  3  0  0  0  0  0  0
   43.4670   34.9370   41.2070 C   0  0  0  0  0  0  0  0  0  0  0  0
   43.2810   34.5160   39.9100 C   0  0  0  0  0  0  0  0  0  0  0  0
   44.1080   34.0520   39.3880 H   0  0  0  0  0  0  0  0  0  0  0  0
   42.0900   34.6580   39.2380 C   0  0  0  0  0  0  0  0  0  0  0  0
   41.6390   34.3430   37.9890 N   0  0  0  0  0  0  0  0  0  0  0  0
   40.3580   34.7130   37.8570 C   0  0  0  0  0  0  0  0  0  0  0  0
   39.7100   34.6010   36.9780 H   0  0  0  0  0  0  0  0  0  0  0  0
   39.9890   35.2670   39.0260 N   0  0  0  0  0  0  0  0  0  0  0  0
   41.0200   35.2530   39.9000 C   0  0  0  0  0  0  0  0  0  0  0  0
   41.1750   35.6910   41.2180 C   0  0  0  0  0  3  0  0  0  0  0  0
   42.2160   33.8790   37.2450 H   0  0  0  0  0  0  0  0  0  0  0  0
   45.6460   33.6020   44.0460 C   0  0  0  0  0  0  0  0  0  0  0  0
   46.6770   33.0000   43.2790 C   0  0  0  0  0  0  0  0  0  0  0  0
   47.6110   32.2200   43.9540 C   0  0  0  0  0  0  0  0  0  0  0  0
   47.4840   32.0810   45.2980 N   0  0  0  0  0  0  0  0  0  0  0  0
   46.4820   32.6740   45.9910 C   0  0  0  0  0  0  0  0  0  0  0  0
   45.5610   33.4380   45.3510 N   0  0  0  0  0  0  0  0  0  0  0  0
   46.7420   33.1380   42.2080 H   0  0  0  0  0  0  0  0  0  0  0  0
   48.4240   31.7290   43.4460 H   0  0  0  0  0  0  0  0  0  0  0  0
   46.5310   32.4020   47.4660 C   0  0  0  0  0  0  0  0  0  0  0  0
   45.4730   32.9750   48.1260 F   0  0  0  0  0  0  0  0  0  0  0  0
   47.7150   32.9170   47.9990 F   0  0  0  0  0  0  0  0  0  0  0  0
   46.6010   31.0280   47.6640 F   0  0  0  0  0  0  0  0  0  0  0  0
  1  4  1  1  0  0  0
  1 20  1  0  0  0  0
  2  5  1  0  0  0  0
  2  6  1  0  0  0  0
  2  1  1  0  0  0  0
  3  7  1  6  0  0  0
  3  2  1  0  0  0  0
  3  1  1  0  0  0  0
  9  8  2  0  0  0  0
  9  3  1  0  0  0  0
 10  9  1  0  0  0  0
 11 10  1  0  0  0  0
 12 17  1  0  0  0  0
 12 10  2  0  0  0  0
 13 12  1  0  0  0  0
 14 13  1  0  0  0  0
 14 16  2  0  0  0  0
 15 14  1  0  0  0  0
 16 17  1  0  0  0  0
 17 18  2  0  0  0  0
 18  8  1  0  0  0  0
 19 13  1  0  0  0  0
 20 25  1  0  0  0  0
 21 22  1  0  0  0  0
 21 20  2  0  0  0  0
 22 23  2  0  0  0  0
 23 24  1  0  0  0  0
 24 28  1  0  0  0  0
 25 24  2  0  0  0  0
 26 21  1  0  0  0  0
 27 22  1  0  0  0  0
 28 31  1  0  0  0  0
 28 30  1  0  0  0  0
 28 29  1  0  0  0  0
M  END
>  <minimizedAffinity>
-5.97891665

>  <minimizedRMSD>
1.64282358

$$$$
