
 OpenBabel03252508593D

 48 51  0  0  1  0  0  0  0  0999 V2000
   47.0840   34.1960   43.2750 N   0  0  0  0  0  0  0  0  0  0  0  0
   46.6850   35.4330   42.7080 C   0  0  0  0  0  0  0  0  0  0  0  0
   45.2220   35.7690   42.8460 C   0  0  0  0  0  0  0  0  0  0  0  0
   44.5780   35.2460   44.1030 C   0  0  0  0  0  0  0  0  0  0  0  0
   45.5840   34.5810   45.0110 C   0  0  0  0  0  0  0  0  0  0  0  0
   46.2230   33.4770   44.0900 C   0  0  2  0  0  0  0  0  0  0  0  0
   46.9620   35.5980   41.6650 H   0  0  0  0  0  0  0  0  0  0  0  0
   47.2310   36.2320   43.2920 H   0  0  0  0  0  0  0  0  0  0  0  0
   45.1250   36.8910   42.7860 H   0  0  0  0  0  0  0  0  0  0  0  0
   44.6820   35.3740   41.9540 H   0  0  0  0  0  0  0  0  0  0  0  0
   44.1320   36.0880   44.6750 H   0  0  0  0  0  0  0  0  0  0  0  0
   43.7910   34.5200   43.8640 H   0  0  0  0  0  0  0  0  0  0  0  0
   45.0650   34.0590   45.8210 H   0  0  0  0  0  0  0  0  0  0  0  0
   46.3860   35.2470   45.3330 H   0  0  0  0  0  0  0  0  0  0  0  0
   45.3740   32.9350   43.6100 H   0  0  0  0  0  0  0  0  0  0  0  0
   48.0610   33.4850   42.5050 C   0  0  0  0  0  0  0  0  0  0  0  0
   48.6240   32.7920   43.1810 H   0  0  0  0  0  0  0  0  0  0  0  0
   48.7770   34.1830   42.0660 H   0  0  0  0  0  0  0  0  0  0  0  0
   47.3520   32.6160   41.5100 C   0  0  0  0  0  0  0  0  0  0  0  0
   46.2750   32.8850   41.4550 H   0  0  0  0  0  0  0  0  0  0  0  0
   47.4010   31.5330   41.7300 H   0  0  0  0  0  0  0  0  0  0  0  0
   49.2640   32.1690   38.3080 C   0  0  0  0  0  0  0  0  0  0  0  0
   48.7330   31.9400   39.5910 C   0  0  0  0  0  0  0  0  0  0  0  0
   47.9030   32.8750   40.1540 C   0  0  0  0  0  0  0  0  0  0  0  0
   47.6340   33.9770   39.4430 N   0  0  0  0  0  0  0  0  0  0  0  0
   48.1390   34.1980   38.2180 C   0  0  0  0  0  0  0  0  0  0  0  0
   48.9550   33.3030   37.6390 N   0  0  0  0  0  0  0  0  0  0  0  0
   49.9220   31.4660   37.8190 H   0  0  0  0  0  0  0  0  0  0  0  0
   48.9900   31.0410   40.1000 H   0  0  0  0  0  0  0  0  0  0  0  0
   47.8510   35.1270   37.7390 H   0  0  0  0  0  0  0  0  0  0  0  0
   46.9160   32.7120   45.0210 O   0  0  0  0  0  0  0  0  0  0  0  0
   45.2620   30.8200   44.1720 O   0  0  0  0  0  0  0  0  0  0  0  0
   46.1840   31.2200   45.3060 P   0  0  2  0  0  0  0  0  0  0  0  0
   45.1590   31.4500   46.6590 O   0  0  0  0  0  0  0  0  0  0  0  0
   45.6250   31.1450   47.4770 H   0  0  0  0  0  0  0  0  0  0  0  0
   47.3100   30.0550   45.6950 O   0  0  0  0  0  0  0  0  0  0  0  0
   45.8760   28.2240   46.1010 C   0  0  0  0  0  3  0  0  0  0  0  0
   47.0960   28.8670   46.3380 C   0  0  0  0  0  0  0  0  0  0  0  0
   47.9950   28.2670   47.1970 C   0  0  0  0  0  0  0  0  0  0  0  0
   48.9490   28.7620   47.3870 H   0  0  0  0  0  0  0  0  0  0  0  0
   47.6650   27.0480   47.7980 C   0  0  0  0  0  0  0  0  0  0  0  0
   48.3770   26.2780   48.6660 N   0  0  0  0  0  0  0  0  0  0  0  0
   47.6650   25.1790   48.9890 C   0  0  0  0  0  0  0  0  0  0  0  0
   48.0080   24.4040   49.6640 H   0  0  0  0  0  0  0  0  0  0  0  0
   46.4970   25.2660   48.3140 N   0  0  0  0  0  0  0  0  0  0  0  0
   46.4660   26.4030   47.5740 C   0  0  0  0  0  0  0  0  0  0  0  0
   45.5770   27.0120   46.7140 C   0  0  0  0  0  3  0  0  0  0  0  0
   49.3270   26.5380   49.0050 H   0  0  0  0  0  0  0  0  0  0  0  0
  1  6  1  0  0  0  0
  2  3  1  0  0  0  0
  2  1  1  0  0  0  0
  2  8  1  0  0  0  0
  3  4  1  0  0  0  0
  4 11  1  0  0  0  0
  4  5  1  0  0  0  0
  5 14  1  0  0  0  0
  5 13  1  0  0  0  0
  6 15  1  6  0  0  0
  6  5  1  0  0  0  0
  6 31  1  0  0  0  0
  7  2  1  0  0  0  0
  9  3  1  0  0  0  0
 10  3  1  0  0  0  0
 12  4  1  0  0  0  0
 16 17  1  0  0  0  0
 16  1  1  0  0  0  0
 18 16  1  0  0  0  0
 19 21  1  0  0  0  0
 19 16  1  0  0  0  0
 20 19  1  0  0  0  0
 22 23  1  0  0  0  0
 23 29  1  0  0  0  0
 23 24  2  0  0  0  0
 24 19  1  0  0  0  0
 25 24  1  0  0  0  0
 26 25  2  0  0  0  0
 27 26  1  0  0  0  0
 27 22  2  0  0  0  0
 28 22  1  0  0  0  0
 30 26  1  0  0  0  0
 31 33  1  0  0  0  0
 33 32  2  6  0  0  0
 33 36  1  0  0  0  0
 33 34  1  0  0  0  0
 34 35  1  0  0  0  0
 36 38  1  0  0  0  0
 37 38  2  0  0  0  0
 37 47  1  0  0  0  0
 38 39  1  0  0  0  0
 39 40  1  0  0  0  0
 39 41  2  0  0  0  0
 41 42  1  0  0  0  0
 42 43  1  0  0  0  0
 42 48  1  0  0  0  0
 43 44  1  0  0  0  0
 45 43  2  0  0  0  0
 46 41  1  0  0  0  0
 46 45  1  0  0  0  0
 47 46  2  0  0  0  0
M  END
>  <minimizedAffinity>
-4.56899405

>  <minimizedRMSD>
1.06266677

$$$$
