
 OpenBabel03252506373D

 47 51  0  0  1  0  0  0  0  0999 V2000
   46.6830   29.9980   46.5620 S   0  0  0  0  0  0  0  0  0  0  0  0
   44.5250   35.4700   45.1460 C   0  0  0  0  0  0  0  0  0  0  0  0
   45.1820   35.4670   43.8980 C   0  0  0  0  0  0  0  0  0  0  0  0
   46.1070   34.5140   43.6400 C   0  0  0  0  0  0  0  0  0  0  0  0
   46.3480   33.6050   44.6160 N   0  0  0  0  0  0  0  0  0  0  0  0
   45.7290   33.6110   45.7870 C   0  0  0  0  0  0  0  0  0  0  0  0
   44.8120   34.5380   46.0710 N   0  0  0  0  0  0  0  0  0  0  0  0
   46.0660   32.5980   46.7510 N   0  0  0  0  0  0  0  0  0  0  0  0
   45.3290   32.3450   47.9350 C   0  0  0  0  0  0  0  0  0  0  0  0
   46.4030   32.0010   48.9480 C   0  0  0  0  0  0  0  0  0  0  0  0
   47.6880   31.9040   48.1790 C   0  0  0  0  0  0  0  0  0  0  0  0
   47.1880   31.6930   46.7500 C   0  0  1  0  0  0  0  0  0  0  0  0
   43.7910   36.2420   45.3290 H   0  0  0  0  0  0  0  0  0  0  0  0
   46.6130   34.4930   42.7040 H   0  0  0  0  0  0  0  0  0  0  0  0
   44.5330   31.6850   48.0340 H   0  0  0  0  0  0  0  0  0  0  0  0
   44.9500   33.3530   48.2960 H   0  0  0  0  0  0  0  0  0  0  0  0
   46.5120   32.7150   49.7630 H   0  0  0  0  0  0  0  0  0  0  0  0
   46.1650   31.0140   49.4350 H   0  0  0  0  0  0  0  0  0  0  0  0
   48.2670   31.0030   48.4880 H   0  0  0  0  0  0  0  0  0  0  0  0
   48.2730   32.8240   48.2930 H   0  0  0  0  0  0  0  0  0  0  0  0
   48.0230   31.9960   46.0940 H   0  0  0  0  0  0  0  0  0  0  0  0
   44.8150   36.5000   42.9660 N   0  0  0  0  0  0  0  0  0  0  0  0
   45.6030   36.7950   42.3580 H   0  0  0  0  0  0  0  0  0  0  0  0
   43.8740   36.9210   42.8900 H   0  0  0  0  0  0  0  0  0  0  0  0
   45.5020   30.4240   43.4730 O   0  0  0  0  0  0  0  0  0  0  0  0
   44.9190   29.9100   44.4400 C   0  0  0  0  0  0  0  0  0  0  0  0
   45.0940   29.7130   45.8990 C   0  0  1  0  0  0  0  0  0  0  0  0
   44.5510   28.3190   46.0950 C   0  0  0  0  0  0  0  0  0  0  0  0
   43.2000   28.5230   45.4000 C   0  0  0  0  0  0  0  0  0  0  0  0
   43.6520   29.2580   44.2260 N   0  0  0  0  0  0  0  0  0  0  0  0
   44.2350   30.3310   46.2820 H   0  0  0  0  0  0  0  0  0  0  0  0
   45.0890   27.5650   45.4900 H   0  0  0  0  0  0  0  0  0  0  0  0
   44.3990   28.0510   47.1460 H   0  0  0  0  0  0  0  0  0  0  0  0
   42.8250   27.5300   45.1150 H   0  0  0  0  0  0  0  0  0  0  0  0
   42.5020   29.1080   46.0200 H   0  0  0  0  0  0  0  0  0  0  0  0
   41.7390   30.1210   43.1380 C   0  0  0  0  0  3  0  0  0  0  0  0
   42.7930   29.2240   43.0640 C   0  0  0  0  0  0  0  0  0  0  0  0
   42.9530   28.4140   41.9750 C   0  0  0  0  0  0  0  0  0  0  0  0
   43.8010   27.7440   41.9950 H   0  0  0  0  0  0  0  0  0  0  0  0
   42.0510   28.4850   40.9250 C   0  0  0  0  0  0  0  0  0  0  0  0
   41.9940   27.8060   39.7640 N   0  0  0  0  0  0  0  0  0  0  0  0
   40.8970   28.2760   39.1010 C   0  0  0  0  0  0  0  0  0  0  0  0
   40.5360   27.9520   38.1170 H   0  0  0  0  0  0  0  0  0  0  0  0
   40.2750   29.2230   39.8140 N   0  0  0  0  0  0  0  0  0  0  0  0
   40.9710   29.3730   40.9520 C   0  0  0  0  0  0  0  0  0  0  0  0
   40.8470   30.1810   42.0850 C   0  0  0  0  0  3  0  0  0  0  0  0
   42.6540   27.0660   39.4310 H   0  0  0  0  0  0  0  0  0  0  0  0
  1 12  1  0  0  0  0
  2 13  1  0  0  0  0
  2  7  1  0  0  0  0
  3  2  2  0  0  0  0
  4  3  1  0  0  0  0
  4  5  2  0  0  0  0
  5  6  1  0  0  0  0
  6  7  2  0  0  0  0
  6  8  1  0  0  0  0
  8  9  1  0  0  0  0
  9 15  1  0  0  0  0
  9 16  1  0  0  0  0
  9 10  1  0  0  0  0
 10 18  1  0  0  0  0
 10 17  1  0  0  0  0
 11 20  1  0  0  0  0
 11 19  1  0  0  0  0
 11 10  1  0  0  0  0
 12 21  1  6  0  0  0
 12  8  1  0  0  0  0
 12 11  1  0  0  0  0
 14  4  1  0  0  0  0
 22  3  1  0  0  0  0
 23 22  1  0  0  0  0
 24 22  1  0  0  0  0
 25 26  2  0  0  0  0
 26 27  1  0  0  0  0
 27 28  1  0  0  0  0
 27 31  1  1  0  0  0
 27  1  1  0  0  0  0
 28 33  1  0  0  0  0
 29 35  1  0  0  0  0
 29 28  1  0  0  0  0
 30 26  1  0  0  0  0
 30 29  1  0  0  0  0
 32 28  1  0  0  0  0
 34 29  1  0  0  0  0
 37 36  1  0  0  0  0
 37 30  1  0  0  0  0
 38 39  1  0  0  0  0
 38 37  2  0  0  0  0
 40 45  2  0  0  0  0
 40 38  1  0  0  0  0
 41 40  1  0  0  0  0
 42 41  1  0  0  0  0
 42 44  2  0  0  0  0
 43 42  1  0  0  0  0
 44 45  1  0  0  0  0
 45 46  1  0  0  0  0
 46 36  2  0  0  0  0
 47 41  1  0  0  0  0
M  END
>  <minimizedAffinity>
-5.48252058

>  <minimizedRMSD>
0.733646572

$$$$
