
 OpenBabel03252505403D

 31 34  0  0  1  0  0  0  0  0999 V2000
   44.1000   34.7890   43.0360 C   0  0  1  0  0  0  0  0  0  0  0  0
   44.4900   35.9980   42.1540 C   0  0  0  0  0  0  0  0  0  0  0  0
   43.9090   34.7440   41.5860 C   0  0  2  0  0  0  0  0  0  0  0  0
   43.3240   35.1120   43.7790 H   0  0  0  0  0  0  0  0  0  0  0  0
   43.8260   36.8730   42.1430 H   0  0  0  0  0  0  0  0  0  0  0  0
   45.5590   36.1860   42.0230 H   0  0  0  0  0  0  0  0  0  0  0  0
   44.5880   34.1350   40.9880 H   0  0  0  0  0  0  0  0  0  0  0  0
   41.7640   35.8820   41.1370 C   0  0  0  0  0  3  0  0  0  0  0  0
   42.4920   34.7260   41.1350 C   0  0  0  0  0  0  0  0  0  0  0  0
   41.8560   33.5830   40.7060 C   0  0  0  0  0  0  0  0  0  0  0  0
   42.4080   32.6520   40.6930 H   0  0  0  0  0  0  0  0  0  0  0  0
   40.5460   33.5630   40.2890 C   0  0  0  0  0  0  0  0  0  0  0  0
   39.6910   32.6060   39.8280 N   0  0  0  0  0  0  0  0  0  0  0  0
   38.4960   33.1480   39.5600 C   0  0  0  0  0  0  0  0  0  0  0  0
   37.5980   32.6480   39.1770 H   0  0  0  0  0  0  0  0  0  0  0  0
   38.5880   34.4580   39.8520 N   0  0  0  0  0  0  0  0  0  0  0  0
   39.8270   34.7550   40.3010 C   0  0  0  0  0  0  0  0  0  0  0  0
   40.4420   35.9330   40.7310 C   0  0  0  0  0  3  0  0  0  0  0  0
   39.9390   31.5930   39.7040 H   0  0  0  0  0  0  0  0  0  0  0  0
   45.2690   34.1220   43.6870 C   0  0  0  0  0  0  0  0  0  0  0  0
   46.4690   33.9620   42.9480 C   0  0  0  0  0  0  0  0  0  0  0  0
   47.5440   33.3510   43.5870 C   0  0  0  0  0  0  0  0  0  0  0  0
   47.3830   32.9450   44.8730 N   0  0  0  0  0  0  0  0  0  0  0  0
   46.2170   33.1180   45.5410 C   0  0  0  0  0  0  0  0  0  0  0  0
   45.1570   33.7110   44.9350 N   0  0  0  0  0  0  0  0  0  0  0  0
   46.5550   34.3020   41.9250 H   0  0  0  0  0  0  0  0  0  0  0  0
   48.4890   33.1920   43.0970 H   0  0  0  0  0  0  0  0  0  0  0  0
   46.2550   32.6090   46.9520 C   0  0  0  0  0  0  0  0  0  0  0  0
   45.2550   33.1560   47.7180 F   0  0  0  0  0  0  0  0  0  0  0  0
   47.4840   32.9310   47.5340 F   0  0  0  0  0  0  0  0  0  0  0  0
   46.2080   31.2200   46.9270 F   0  0  0  0  0  0  0  0  0  0  0  0
  1 20  1  0  0  0  0
  1  4  1  1  0  0  0
  2  1  1  0  0  0  0
  3  7  1  6  0  0  0
  3  2  1  0  0  0  0
  3  1  1  0  0  0  0
  5  2  1  0  0  0  0
  6  2  1  0  0  0  0
  9  8  1  0  0  0  0
  9  3  1  0  0  0  0
 10  9  2  0  0  0  0
 11 10  1  0  0  0  0
 12 17  2  0  0  0  0
 12 10  1  0  0  0  0
 13 12  1  0  0  0  0
 14 13  1  0  0  0  0
 14 16  2  0  0  0  0
 15 14  1  0  0  0  0
 16 17  1  0  0  0  0
 17 18  1  0  0  0  0
 18  8  2  0  0  0  0
 19 13  1  0  0  0  0
 20 25  1  0  0  0  0
 21 22  1  0  0  0  0
 21 20  2  0  0  0  0
 22 23  2  0  0  0  0
 23 24  1  0  0  0  0
 24 28  1  0  0  0  0
 25 24  2  0  0  0  0
 26 21  1  0  0  0  0
 27 22  1  0  0  0  0
 28 30  1  0  0  0  0
 28 29  1  0  0  0  0
 31 28  1  0  0  0  0
M  END
>  <minimizedAffinity>
-5.61336088

>  <minimizedRMSD>
2.26379609

$$$$
