
 OpenBabel03252503343D

 25 27  0  0  0  0  0  0  0  0999 V2000
   46.2970   33.6700   41.0580 C   0  0  0  0  0  0  0  0  0  0  0  0
   45.0950   33.3260   41.2240 O   0  0  0  0  0  0  0  0  0  0  0  0
   46.8140   34.4590   42.1170 N   0  0  0  0  0  0  0  0  0  0  0  0
   47.7710   34.8690   42.0740 H   0  0  0  0  0  0  0  0  0  0  0  0
   46.7060   33.4200   38.5840 C   0  0  0  0  0  3  0  0  0  0  0  0
   47.1080   33.3110   39.8990 C   0  0  0  0  0  0  0  0  0  0  0  0
   48.3830   32.8210   40.1310 C   0  0  0  0  0  0  0  0  0  0  0  0
   48.8370   32.6790   41.1050 H   0  0  0  0  0  0  0  0  0  0  0  0
   49.2260   32.4520   39.0820 C   0  0  0  0  0  0  0  0  0  0  0  0
   50.4670   31.9630   38.9470 N   0  0  0  0  0  0  0  0  0  0  0  0
   50.7620   31.8010   37.6460 C   0  0  0  0  0  0  0  0  0  0  0  0
   51.6760   31.4260   37.1900 H   0  0  0  0  0  0  0  0  0  0  0  0
   49.7100   32.1840   36.8840 N   0  0  0  0  0  0  0  0  0  0  0  0
   48.7860   32.5780   37.7790 C   0  0  0  0  0  0  0  0  0  0  0  0
   47.5210   33.0630   37.5360 C   0  0  0  0  0  3  0  0  0  0  0  0
   51.1010   31.7450   39.7540 H   0  0  0  0  0  0  0  0  0  0  0  0
   44.5390   36.1320   44.5310 C   0  0  0  0  0  0  0  0  0  0  0  0
   45.2680   35.8840   43.3480 C   0  0  0  0  0  0  0  0  0  0  0  0
   46.0680   34.7390   43.2920 C   0  0  0  0  0  0  0  0  0  0  0  0
   46.1230   33.9150   44.3570 N   0  0  0  0  0  0  0  0  0  0  0  0
   45.4030   34.1830   45.4920 C   0  0  0  0  0  0  0  0  0  0  0  0
   44.6300   35.2800   45.5560 N   0  0  0  0  0  0  0  0  0  0  0  0
   43.9110   37.0070   44.6080 H   0  0  0  0  0  0  0  0  0  0  0  0
   45.1850   36.5850   42.5210 H   0  0  0  0  0  0  0  0  0  0  0  0
   45.5210   33.4550   46.2820 H   0  0  0  0  0  0  0  0  0  0  0  0
  1  2  2  0  0  0  0
  1  3  1  0  0  0  0
  3 19  1  0  0  0  0
  4  3  1  0  0  0  0
  5  6  1  0  0  0  0
  6  7  2  0  0  0  0
  6  1  1  0  0  0  0
  7  8  1  0  0  0  0
  9  7  1  0  0  0  0
 10  9  1  0  0  0  0
 10 16  1  0  0  0  0
 11 10  1  0  0  0  0
 12 11  1  0  0  0  0
 13 11  2  0  0  0  0
 13 14  1  0  0  0  0
 14  9  2  0  0  0  0
 15 14  1  0  0  0  0
 15  5  2  0  0  0  0
 17 23  1  0  0  0  0
 17 22  1  0  0  0  0
 18 17  2  0  0  0  0
 19 18  1  0  0  0  0
 19 20  2  0  0  0  0
 20 21  1  0  0  0  0
 21 22  2  0  0  0  0
 21 25  1  0  0  0  0
 24 18  1  0  0  0  0
M  END
>  <minimizedAffinity>
-4.66364956

>  <minimizedRMSD>
0.781407177

$$$$
