
 OpenBabel03242517593D

 27 29  0  0  0  0  0  0  0  0999 V2000
   36.1840   28.0520   41.7850 C   0  0  0  0  0  0  0  0  0  0  0  0
   36.1270   27.0230   41.4180 H   0  0  0  0  0  0  0  0  0  0  0  0
   35.2450   28.3590   42.3130 H   0  0  0  0  0  0  0  0  0  0  0  0
   36.5750   28.7820   39.3900 C   0  0  0  0  0  3  0  0  0  0  0  0
   36.4610   29.0500   40.7180 C   0  0  0  0  0  0  0  0  0  0  0  0
   36.6040   30.3440   41.2040 C   0  0  0  0  0  0  0  0  0  0  0  0
   36.5220   30.6120   42.2640 H   0  0  0  0  0  0  0  0  0  0  0  0
   36.8650   31.4240   40.3760 C   0  0  0  0  0  0  0  0  0  0  0  0
   37.0460   32.7370   40.5610 N   0  0  0  0  0  0  0  0  0  0  0  0
   37.2700   33.2900   39.3610 C   0  0  0  0  0  0  0  0  0  0  0  0
   37.4440   34.3630   39.2840 H   0  0  0  0  0  0  0  0  0  0  0  0
   37.2310   32.3250   38.4180 N   0  0  0  0  0  0  0  0  0  0  0  0
   36.9800   31.1510   39.0310 C   0  0  0  0  0  0  0  0  0  0  0  0
   36.8370   29.8580   38.5480 C   0  0  0  0  0  3  0  0  0  0  0  0
   37.0090   33.1990   41.4950 H   0  0  0  0  0  0  0  0  0  0  0  0
   37.3040   28.1980   42.8250 C   0  0  0  0  0  0  0  0  0  0  0  0
   36.8460   28.3670   43.8330 H   0  0  0  0  0  0  0  0  0  0  0  0
   37.9330   29.0450   42.5720 H   0  0  0  0  0  0  0  0  0  0  0  0
   39.2280   26.9090   43.5850 C   0  0  0  0  0  0  0  0  0  0  0  0
   38.0370   26.9580   42.8620 C   0  0  0  0  0  0  0  0  0  0  0  0
   37.6340   25.7870   42.2200 C   0  0  0  0  0  0  0  0  0  0  0  0
   38.4210   24.6750   42.3380 N   0  0  0  0  0  0  0  0  0  0  0  0
   39.5640   24.6630   43.0430 C   0  0  0  0  0  0  0  0  0  0  0  0
   39.9770   25.7920   43.6760 N   0  0  0  0  0  0  0  0  0  0  0  0
   39.5760   27.8050   44.1000 H   0  0  0  0  0  0  0  0  0  0  0  0
   36.7320   25.7780   41.6580 H   0  0  0  0  0  0  0  0  0  0  0  0
   40.1830   23.7810   43.1330 H   0  0  0  0  0  0  0  0  0  0  0  0
  1  3  1  0  0  0  0
  1 16  1  0  0  0  0
  2  1  1  0  0  0  0
  4  5  1  0  0  0  0
  5  6  2  0  0  0  0
  5  1  1  0  0  0  0
  6  7  1  0  0  0  0
  8  9  1  0  0  0  0
  8  6  1  0  0  0  0
  9 15  1  0  0  0  0
 10  9  1  0  0  0  0
 11 10  1  0  0  0  0
 12 13  1  0  0  0  0
 12 10  2  0  0  0  0
 13  8  2  0  0  0  0
 14 13  1  0  0  0  0
 14  4  2  0  0  0  0
 16 20  1  0  0  0  0
 16 17  1  0  0  0  0
 18 16  1  0  0  0  0
 19 24  1  0  0  0  0
 19 25  1  0  0  0  0
 20 19  2  0  0  0  0
 21 22  2  0  0  0  0
 21 20  1  0  0  0  0
 22 23  1  0  0  0  0
 23 27  1  0  0  0  0
 23 24  2  0  0  0  0
 26 21  1  0  0  0  0
M  END
>  <minimizedAffinity>
-5.34641075

$$$$

 OpenBabel03242517593D

 27 29  0  0  0  0  0  0  0  0999 V2000
   36.8630   28.5800   42.1280 C   0  0  0  0  0  0  0  0  0  0  0  0
   36.9170   27.8120   41.3510 H   0  0  0  0  0  0  0  0  0  0  0  0
   35.8060   28.8750   42.3520 H   0  0  0  0  0  0  0  0  0  0  0  0
   38.9250   30.0550   42.1230 C   0  0  0  0  0  3  0  0  0  0  0  0
   37.6260   29.8140   41.7990 C   0  0  0  0  0  0  0  0  0  0  0  0
   36.8750   30.7510   41.1000 C   0  0  0  0  0  0  0  0  0  0  0  0
   35.8260   30.6060   40.8150 H   0  0  0  0  0  0  0  0  0  0  0  0
   37.3980   31.9700   40.6970 C   0  0  0  0  0  0  0  0  0  0  0  0
   36.9220   33.0300   40.0320 N   0  0  0  0  0  0  0  0  0  0  0  0
   37.9120   33.9290   39.9390 C   0  0  0  0  0  0  0  0  0  0  0  0
   37.7370   34.8760   39.4290 H   0  0  0  0  0  0  0  0  0  0  0  0
   39.0130   33.4350   40.5450 N   0  0  0  0  0  0  0  0  0  0  0  0
   38.7120   32.2120   41.0250 C   0  0  0  0  0  0  0  0  0  0  0  0
   39.4610   31.2750   41.7230 C   0  0  0  0  0  3  0  0  0  0  0  0
   35.9460   33.0960   39.6720 H   0  0  0  0  0  0  0  0  0  0  0  0
   37.4290   28.0550   43.4550 C   0  0  0  0  0  0  0  0  0  0  0  0
   36.5800   27.8190   44.1460 H   0  0  0  0  0  0  0  0  0  0  0  0
   38.0610   28.8090   43.9110 H   0  0  0  0  0  0  0  0  0  0  0  0
   39.4330   26.6850   43.6800 C   0  0  0  0  0  0  0  0  0  0  0  0
   38.1410   26.8320   43.1780 C   0  0  0  0  0  0  0  0  0  0  0  0
   37.6210   25.7710   42.4350 C   0  0  0  0  0  0  0  0  0  0  0  0
   38.4010   24.6640   42.2480 N   0  0  0  0  0  0  0  0  0  0  0  0
   39.6440   24.5550   42.7460 C   0  0  0  0  0  0  0  0  0  0  0  0
   40.1700   25.5760   43.4710 N   0  0  0  0  0  0  0  0  0  0  0  0
   39.8730   27.4930   44.2640 H   0  0  0  0  0  0  0  0  0  0  0  0
   36.6400   25.8400   42.0340 H   0  0  0  0  0  0  0  0  0  0  0  0
   40.2570   23.6770   42.5940 H   0  0  0  0  0  0  0  0  0  0  0  0
  1  3  1  0  0  0  0
  1 16  1  0  0  0  0
  2  1  1  0  0  0  0
  5  4  1  0  0  0  0
  5  1  1  0  0  0  0
  6  5  2  0  0  0  0
  7  6  1  0  0  0  0
  8 13  2  0  0  0  0
  8  6  1  0  0  0  0
  9  8  1  0  0  0  0
 10  9  1  0  0  0  0
 10 12  2  0  0  0  0
 11 10  1  0  0  0  0
 12 13  1  0  0  0  0
 13 14  1  0  0  0  0
 14  4  2  0  0  0  0
 15  9  1  0  0  0  0
 16 18  1  0  0  0  0
 16 17  1  0  0  0  0
 19 25  1  0  0  0  0
 20 16  1  0  0  0  0
 20 19  2  0  0  0  0
 21 20  1  0  0  0  0
 22 21  2  0  0  0  0
 22 23  1  0  0  0  0
 23 24  2  0  0  0  0
 24 19  1  0  0  0  0
 26 21  1  0  0  0  0
 27 23  1  0  0  0  0
M  END
>  <minimizedAffinity>
-5.34145594

$$$$

 OpenBabel03242517593D

 27 29  0  0  0  0  0  0  0  0999 V2000
   36.7360   28.5780   42.0330 C   0  0  0  0  0  0  0  0  0  0  0  0
   36.8270   27.7970   41.2730 H   0  0  0  0  0  0  0  0  0  0  0  0
   35.6690   28.8730   42.2030 H   0  0  0  0  0  0  0  0  0  0  0  0
   38.8080   30.0370   42.0520 C   0  0  0  0  0  3  0  0  0  0  0  0
   37.5100   29.8080   41.7180 C   0  0  0  0  0  0  0  0  0  0  0  0
   36.7700   30.7560   41.0200 C   0  0  0  0  0  0  0  0  0  0  0  0
   35.7220   30.6200   40.7270 H   0  0  0  0  0  0  0  0  0  0  0  0
   37.3050   31.9730   40.6290 C   0  0  0  0  0  0  0  0  0  0  0  0
   36.8410   33.0410   39.9690 N   0  0  0  0  0  0  0  0  0  0  0  0
   37.8380   33.9340   39.8880 C   0  0  0  0  0  0  0  0  0  0  0  0
   37.6730   34.8850   39.3840 H   0  0  0  0  0  0  0  0  0  0  0  0
   38.9310   33.4280   40.4980 N   0  0  0  0  0  0  0  0  0  0  0  0
   38.6190   32.2040   40.9680 C   0  0  0  0  0  0  0  0  0  0  0  0
   39.3560   31.2560   41.6640 C   0  0  0  0  0  3  0  0  0  0  0  0
   35.8680   33.1160   39.6030 H   0  0  0  0  0  0  0  0  0  0  0  0
   37.2430   28.0770   43.3930 C   0  0  0  0  0  0  0  0  0  0  0  0
   36.3640   27.8110   44.0340 H   0  0  0  0  0  0  0  0  0  0  0  0
   37.8190   28.8550   43.8810 H   0  0  0  0  0  0  0  0  0  0  0  0
   37.4620   25.8730   42.3750 C   0  0  0  0  0  0  0  0  0  0  0  0
   38.0140   26.8810   43.1630 C   0  0  0  0  0  0  0  0  0  0  0  0
   39.2910   26.6580   43.6790 C   0  0  0  0  0  0  0  0  0  0  0  0
   39.9170   25.4790   43.3830 N   0  0  0  0  0  0  0  0  0  0  0  0
   39.3550   24.5280   42.6190 C   0  0  0  0  0  0  0  0  0  0  0  0
   38.1120   24.7230   42.1060 N   0  0  0  0  0  0  0  0  0  0  0  0
   36.4660   26.0120   41.9550 H   0  0  0  0  0  0  0  0  0  0  0  0
   39.7510   27.4000   44.2860 H   0  0  0  0  0  0  0  0  0  0  0  0
   39.8540   23.5970   42.3880 H   0  0  0  0  0  0  0  0  0  0  0  0
  1  3  1  0  0  0  0
  1 16  1  0  0  0  0
  2  1  1  0  0  0  0
  5  1  1  0  0  0  0
  5  4  1  0  0  0  0
  6  5  2  0  0  0  0
  7  6  1  0  0  0  0
  8 13  2  0  0  0  0
  8  6  1  0  0  0  0
  9  8  1  0  0  0  0
 10  9  1  0  0  0  0
 10 12  2  0  0  0  0
 11 10  1  0  0  0  0
 12 13  1  0  0  0  0
 13 14  1  0  0  0  0
 14  4  2  0  0  0  0
 15  9  1  0  0  0  0
 16 18  1  0  0  0  0
 16 17  1  0  0  0  0
 19 20  1  0  0  0  0
 20 16  1  0  0  0  0
 20 21  2  0  0  0  0
 21 26  1  0  0  0  0
 22 21  1  0  0  0  0
 23 22  2  0  0  0  0
 24 19  2  0  0  0  0
 24 23  1  0  0  0  0
 25 19  1  0  0  0  0
 27 23  1  0  0  0  0
M  END
>  <minimizedAffinity>
-5.32848406

$$$$

 OpenBabel03242517593D

 27 29  0  0  0  0  0  0  0  0999 V2000
   37.7610   28.7980   43.3580 C   0  0  0  0  0  0  0  0  0  0  0  0
   37.6100   28.9810   44.4250 H   0  0  0  0  0  0  0  0  0  0  0  0
   36.8380   29.0190   42.7620 H   0  0  0  0  0  0  0  0  0  0  0  0
   39.2850   26.7830   43.5520 C   0  0  0  0  0  3  0  0  0  0  0  0
   38.1890   27.4090   43.0460 C   0  0  0  0  0  0  0  0  0  0  0  0
   37.3430   26.7630   42.1520 C   0  0  0  0  0  0  0  0  0  0  0  0
   36.4480   27.2230   41.7150 H   0  0  0  0  0  0  0  0  0  0  0  0
   37.5620   25.4620   41.7300 C   0  0  0  0  0  0  0  0  0  0  0  0
   36.9350   24.6160   40.9040 N   0  0  0  0  0  0  0  0  0  0  0  0
   37.6290   23.4690   40.8910 C   0  0  0  0  0  0  0  0  0  0  0  0
   37.2880   22.6370   40.2760 H   0  0  0  0  0  0  0  0  0  0  0  0
   38.6950   23.5920   41.7100 N   0  0  0  0  0  0  0  0  0  0  0  0
   38.6720   24.8290   42.2440 C   0  0  0  0  0  0  0  0  0  0  0  0
   39.5160   25.4760   43.1370 C   0  0  0  0  0  3  0  0  0  0  0  0
   36.0630   24.8560   40.3850 H   0  0  0  0  0  0  0  0  0  0  0  0
   38.8430   29.7290   42.7920 C   0  0  0  0  0  0  0  0  0  0  0  0
   39.6850   29.1080   42.3920 H   0  0  0  0  0  0  0  0  0  0  0  0
   39.2180   30.3770   43.5760 H   0  0  0  0  0  0  0  0  0  0  0  0
   36.8920   30.3570   41.4720 C   0  0  0  0  0  0  0  0  0  0  0  0
   38.2640   30.4650   41.6960 C   0  0  0  0  0  0  0  0  0  0  0  0
   38.9870   31.2910   40.8340 C   0  0  0  0  0  0  0  0  0  0  0  0
   38.3140   31.9370   39.8340 N   0  0  0  0  0  0  0  0  0  0  0  0
   36.9900   31.8090   39.6470 C   0  0  0  0  0  0  0  0  0  0  0  0
   36.2660   31.0110   40.4740 N   0  0  0  0  0  0  0  0  0  0  0  0
   36.2950   29.7200   42.1250 H   0  0  0  0  0  0  0  0  0  0  0  0
   40.0350   31.4030   40.9690 H   0  0  0  0  0  0  0  0  0  0  0  0
   36.4630   32.3220   38.8540 H   0  0  0  0  0  0  0  0  0  0  0  0
  1  2  1  0  0  0  0
  3  1  1  0  0  0  0
  5  1  1  0  0  0  0
  5  4  2  0  0  0  0
  6  5  1  0  0  0  0
  7  6  1  0  0  0  0
  8  6  2  0  0  0  0
  8 13  1  0  0  0  0
  9  8  1  0  0  0  0
 10  9  1  0  0  0  0
 10 12  2  0  0  0  0
 11 10  1  0  0  0  0
 12 13  1  0  0  0  0
 13 14  2  0  0  0  0
 14  4  1  0  0  0  0
 15  9  1  0  0  0  0
 16  1  1  0  0  0  0
 16 18  1  0  0  0  0
 17 16  1  0  0  0  0
 19 20  1  0  0  0  0
 19 25  1  0  0  0  0
 20 16  1  0  0  0  0
 21 26  1  0  0  0  0
 21 20  2  0  0  0  0
 22 21  1  0  0  0  0
 23 22  2  0  0  0  0
 23 24  1  0  0  0  0
 24 19  2  0  0  0  0
 27 23  1  0  0  0  0
M  END
>  <minimizedAffinity>
-4.79120302

$$$$

 OpenBabel03242517593D

 27 29  0  0  0  0  0  0  0  0999 V2000
   39.1260   30.0210   42.7650 C   0  0  0  0  0  0  0  0  0  0  0  0
   39.9550   30.0390   43.4790 H   0  0  0  0  0  0  0  0  0  0  0  0
   38.3960   30.8500   42.9520 H   0  0  0  0  0  0  0  0  0  0  0  0
   37.1930   28.5040   43.3860 C   0  0  0  0  0  3  0  0  0  0  0  0
   38.3760   28.7370   42.7570 C   0  0  0  0  0  0  0  0  0  0  0  0
   39.0050   27.7410   42.0190 C   0  0  0  0  0  0  0  0  0  0  0  0
   39.9580   27.8770   41.4940 H   0  0  0  0  0  0  0  0  0  0  0  0
   38.4720   26.4690   41.8840 C   0  0  0  0  0  0  0  0  0  0  0  0
   38.8460   25.3480   41.2560 N   0  0  0  0  0  0  0  0  0  0  0  0
   37.9080   24.4190   41.4880 C   0  0  0  0  0  0  0  0  0  0  0  0
   38.0180   23.4210   41.0630 H   0  0  0  0  0  0  0  0  0  0  0  0
   36.9410   24.9540   42.2630 N   0  0  0  0  0  0  0  0  0  0  0  0
   37.2740   26.2350   42.5220 C   0  0  0  0  0  0  0  0  0  0  0  0
   36.6480   27.2310   43.2570 C   0  0  0  0  0  3  0  0  0  0  0  0
   39.7230   25.2640   40.6980 H   0  0  0  0  0  0  0  0  0  0  0  0
   39.6350   30.2410   41.3330 C   0  0  0  0  0  0  0  0  0  0  0  0
   39.4820   29.3020   40.7430 H   0  0  0  0  0  0  0  0  0  0  0  0
   40.6910   30.4840   41.3510 H   0  0  0  0  0  0  0  0  0  0  0  0
   39.1750   32.6110   40.9970 C   0  0  0  0  0  0  0  0  0  0  0  0
   38.8380   31.2840   40.7370 C   0  0  0  0  0  0  0  0  0  0  0  0
   37.7390   31.0570   39.9070 C   0  0  0  0  0  0  0  0  0  0  0  0
   37.0690   32.1370   39.4040 N   0  0  0  0  0  0  0  0  0  0  0  0
   37.4220   33.4050   39.6750 C   0  0  0  0  0  0  0  0  0  0  0  0
   38.4880   33.6490   40.4810 N   0  0  0  0  0  0  0  0  0  0  0  0
   40.0270   32.8270   41.6420 H   0  0  0  0  0  0  0  0  0  0  0  0
   37.4470   30.0610   39.6820 H   0  0  0  0  0  0  0  0  0  0  0  0
   36.8880   34.2560   39.2750 H   0  0  0  0  0  0  0  0  0  0  0  0
  1  3  1  0  0  0  0
  1  2  1  0  0  0  0
  5  1  1  0  0  0  0
  5  4  2  0  0  0  0
  6  5  1  0  0  0  0
  7  6  1  0  0  0  0
  8  6  2  0  0  0  0
  8 13  1  0  0  0  0
  9 10  1  0  0  0  0
  9  8  1  0  0  0  0
 10 12  2  0  0  0  0
 11 10  1  0  0  0  0
 12 13  1  0  0  0  0
 13 14  2  0  0  0  0
 14  4  1  0  0  0  0
 15  9  1  0  0  0  0
 16 18  1  0  0  0  0
 16  1  1  0  0  0  0
 17 16  1  0  0  0  0
 19 25  1  0  0  0  0
 20 19  1  0  0  0  0
 20 16  1  0  0  0  0
 21 20  2  0  0  0  0
 22 23  2  0  0  0  0
 22 21  1  0  0  0  0
 23 24  1  0  0  0  0
 24 19  2  0  0  0  0
 26 21  1  0  0  0  0
 27 23  1  0  0  0  0
M  END
>  <minimizedAffinity>
-4.74291086

$$$$

 OpenBabel03242517593D

 27 29  0  0  0  0  0  0  0  0999 V2000
   36.9430   25.5090   42.5150 C   0  0  0  0  0  0  0  0  0  0  0  0
   35.9870   25.2290   42.0630 H   0  0  0  0  0  0  0  0  0  0  0  0
   36.9310   25.3850   43.6280 H   0  0  0  0  0  0  0  0  0  0  0  0
   38.6230   27.3950   42.3080 C   0  0  0  0  0  3  0  0  0  0  0  0
   37.3590   26.9040   42.2100 C   0  0  0  0  0  0  0  0  0  0  0  0
   36.3050   27.7110   41.7960 C   0  0  0  0  0  0  0  0  0  0  0  0
   35.2690   27.3640   41.7020 H   0  0  0  0  0  0  0  0  0  0  0  0
   36.4780   29.0450   41.4640 C   0  0  0  0  0  0  0  0  0  0  0  0
   35.6720   30.0280   41.0480 N   0  0  0  0  0  0  0  0  0  0  0  0
   36.4210   31.1280   40.8850 C   0  0  0  0  0  0  0  0  0  0  0  0
   35.9570   32.0540   40.5470 H   0  0  0  0  0  0  0  0  0  0  0  0
   37.7020   30.8370   41.1990 N   0  0  0  0  0  0  0  0  0  0  0  0
   37.7590   29.5410   41.5630 C   0  0  0  0  0  0  0  0  0  0  0  0
   38.8100   28.7330   41.9760 C   0  0  0  0  0  3  0  0  0  0  0  0
   34.6470   29.9090   40.8930 H   0  0  0  0  0  0  0  0  0  0  0  0
   38.0720   24.5950   42.0150 C   0  0  0  0  0  0  0  0  0  0  0  0
   38.4350   23.9650   42.8660 H   0  0  0  0  0  0  0  0  0  0  0  0
   38.8930   25.1960   41.6390 H   0  0  0  0  0  0  0  0  0  0  0  0
   36.2210   23.9590   40.5610 C   0  0  0  0  0  0  0  0  0  0  0  0
   37.5200   23.7230   41.0090 C   0  0  0  0  0  0  0  0  0  0  0  0
   38.2020   22.6460   40.4420 C   0  0  0  0  0  0  0  0  0  0  0  0
   37.5640   21.8970   39.4930 N   0  0  0  0  0  0  0  0  0  0  0  0
   36.3100   22.1530   39.0850 C   0  0  0  0  0  0  0  0  0  0  0  0
   35.6260   23.1960   39.6230 N   0  0  0  0  0  0  0  0  0  0  0  0
   35.6560   24.7910   40.9820 H   0  0  0  0  0  0  0  0  0  0  0  0
   39.1950   22.4300   40.7530 H   0  0  0  0  0  0  0  0  0  0  0  0
   35.8100   21.5570   38.3340 H   0  0  0  0  0  0  0  0  0  0  0  0
  1  3  1  0  0  0  0
  2  1  1  0  0  0  0
  5  4  1  0  0  0  0
  5  1  1  0  0  0  0
  6  5  2  0  0  0  0
  7  6  1  0  0  0  0
  8 13  2  0  0  0  0
  8  6  1  0  0  0  0
  9  8  1  0  0  0  0
 10  9  1  0  0  0  0
 10 12  2  0  0  0  0
 11 10  1  0  0  0  0
 12 13  1  0  0  0  0
 13 14  1  0  0  0  0
 14  4  2  0  0  0  0
 15  9  1  0  0  0  0
 16  1  1  0  0  0  0
 16 17  1  0  0  0  0
 18 16  1  0  0  0  0
 19 25  1  0  0  0  0
 19 20  1  0  0  0  0
 20 16  1  0  0  0  0
 21 26  1  0  0  0  0
 21 20  2  0  0  0  0
 22 21  1  0  0  0  0
 23 22  2  0  0  0  0
 23 24  1  0  0  0  0
 24 19  2  0  0  0  0
 27 23  1  0  0  0  0
M  END
>  <minimizedAffinity>
-4.68716812

$$$$

 OpenBabel03242517593D

 27 29  0  0  0  0  0  0  0  0999 V2000
   36.1720   30.1500   38.9310 C   0  0  0  0  0  0  0  0  0  0  0  0
   36.4050   29.2450   38.3630 H   0  0  0  0  0  0  0  0  0  0  0  0
   35.3470   30.7400   38.4550 H   0  0  0  0  0  0  0  0  0  0  0  0
   37.6250   31.7580   40.2440 C   0  0  0  0  0  3  0  0  0  0  0  0
   37.3380   31.0530   39.1170 C   0  0  0  0  0  0  0  0  0  0  0  0
   38.1570   31.1270   37.9960 C   0  0  0  0  0  0  0  0  0  0  0  0
   37.9700   30.5800   37.0640 H   0  0  0  0  0  0  0  0  0  0  0  0
   39.2970   31.9130   37.9610 C   0  0  0  0  0  0  0  0  0  0  0  0
   40.2420   32.1690   37.0480 N   0  0  0  0  0  0  0  0  0  0  0  0
   41.1150   33.0270   37.5950 C   0  0  0  0  0  0  0  0  0  0  0  0
   41.9710   33.3710   37.0160 H   0  0  0  0  0  0  0  0  0  0  0  0
   40.7200   33.3120   38.8540 N   0  0  0  0  0  0  0  0  0  0  0  0
   39.5860   32.6260   39.1020 C   0  0  0  0  0  0  0  0  0  0  0  0
   38.7680   32.5500   40.2210 C   0  0  0  0  0  3  0  0  0  0  0  0
   40.2510   31.7500   36.0930 H   0  0  0  0  0  0  0  0  0  0  0  0
   35.6610   29.7960   40.3350 C   0  0  0  0  0  0  0  0  0  0  0  0
   34.5430   29.7510   40.3160 H   0  0  0  0  0  0  0  0  0  0  0  0
   35.9770   30.5530   41.0440 H   0  0  0  0  0  0  0  0  0  0  0  0
   36.2630   27.5330   39.6560 C   0  0  0  0  0  0  0  0  0  0  0  0
   36.1610   28.4860   40.6690 C   0  0  0  0  0  0  0  0  0  0  0  0
   36.5560   28.0970   41.9490 C   0  0  0  0  0  0  0  0  0  0  0  0
   37.0160   26.8230   42.1310 N   0  0  0  0  0  0  0  0  0  0  0  0
   37.1010   25.9300   41.1310 C   0  0  0  0  0  0  0  0  0  0  0  0
   36.7210   26.2850   39.8770 N   0  0  0  0  0  0  0  0  0  0  0  0
   35.9630   27.8000   38.6420 H   0  0  0  0  0  0  0  0  0  0  0  0
   36.4960   28.7920   42.7520 H   0  0  0  0  0  0  0  0  0  0  0  0
   37.4650   24.9220   41.2800 H   0  0  0  0  0  0  0  0  0  0  0  0
  1  5  1  0  0  0  0
  1 16  1  0  0  0  0
  2  1  1  0  0  0  0
  3  1  1  0  0  0  0
  5  4  2  0  0  0  0
  6  5  1  0  0  0  0
  7  6  1  0  0  0  0
  8  6  2  0  0  0  0
  8 13  1  0  0  0  0
  9 10  1  0  0  0  0
  9  8  1  0  0  0  0
 10 12  2  0  0  0  0
 11 10  1  0  0  0  0
 12 13  1  0  0  0  0
 13 14  2  0  0  0  0
 14  4  1  0  0  0  0
 15  9  1  0  0  0  0
 16 20  1  0  0  0  0
 16 18  1  0  0  0  0
 17 16  1  0  0  0  0
 19 24  2  0  0  0  0
 19 20  1  0  0  0  0
 20 21  2  0  0  0  0
 21 22  1  0  0  0  0
 21 26  1  0  0  0  0
 23 27  1  0  0  0  0
 23 22  2  0  0  0  0
 24 23  1  0  0  0  0
 25 19  1  0  0  0  0
M  END
>  <minimizedAffinity>
-4.68693161

$$$$

 OpenBabel03242517593D

 27 29  0  0  0  0  0  0  0  0999 V2000
   37.9350   29.7610   42.5840 C   0  0  0  0  0  0  0  0  0  0  0  0
   38.0800   30.0870   43.6180 H   0  0  0  0  0  0  0  0  0  0  0  0
   36.9840   30.1650   42.1490 H   0  0  0  0  0  0  0  0  0  0  0  0
   36.9910   27.5630   41.7460 C   0  0  0  0  0  3  0  0  0  0  0  0
   37.9270   28.2830   42.4210 C   0  0  0  0  0  0  0  0  0  0  0  0
   39.0030   27.6590   43.0420 C   0  0  0  0  0  0  0  0  0  0  0  0
   39.7830   28.1930   43.5980 H   0  0  0  0  0  0  0  0  0  0  0  0
   39.1830   26.2860   43.0100 C   0  0  0  0  0  0  0  0  0  0  0  0
   40.0950   25.4400   43.5030 N   0  0  0  0  0  0  0  0  0  0  0  0
   39.7370   24.1990   43.1410 C   0  0  0  0  0  0  0  0  0  0  0  0
   40.3500   23.3500   43.4420 H   0  0  0  0  0  0  0  0  0  0  0  0
   38.5980   24.2630   42.4200 N   0  0  0  0  0  0  0  0  0  0  0  0
   38.2350   25.5580   42.3260 C   0  0  0  0  0  0  0  0  0  0  0  0
   37.1620   26.1830   41.7070 C   0  0  0  0  0  3  0  0  0  0  0  0
   40.9200   25.7420   44.0640 H   0  0  0  0  0  0  0  0  0  0  0  0
   39.0550   30.2970   41.6810 C   0  0  0  0  0  0  0  0  0  0  0  0
   39.3440   29.5010   40.9480 H   0  0  0  0  0  0  0  0  0  0  0  0
   39.9190   30.5590   42.2820 H   0  0  0  0  0  0  0  0  0  0  0  0
   37.4730   31.2060   40.0650 C   0  0  0  0  0  0  0  0  0  0  0  0
   38.5310   31.4200   40.9460 C   0  0  0  0  0  0  0  0  0  0  0  0
   39.0130   32.7250   41.0560 C   0  0  0  0  0  0  0  0  0  0  0  0
   38.4240   33.7030   40.3040 N   0  0  0  0  0  0  0  0  0  0  0  0
   37.4040   33.4600   39.4640 C   0  0  0  0  0  0  0  0  0  0  0  0
   36.9190   32.1970   39.3400 N   0  0  0  0  0  0  0  0  0  0  0  0
   37.0700   30.1980   39.9520 H   0  0  0  0  0  0  0  0  0  0  0  0
   39.8190   32.9350   41.7170 H   0  0  0  0  0  0  0  0  0  0  0  0
   36.9410   34.2370   38.8700 H   0  0  0  0  0  0  0  0  0  0  0  0
  1  2  1  0  0  0  0
  3  1  1  0  0  0  0
  4  5  1  0  0  0  0
  5  1  1  0  0  0  0
  5  6  2  0  0  0  0
  6  7  1  0  0  0  0
  8  6  1  0  0  0  0
  8  9  1  0  0  0  0
  9 15  1  0  0  0  0
 10 11  1  0  0  0  0
 10  9  1  0  0  0  0
 12 10  2  0  0  0  0
 13 12  1  0  0  0  0
 13  8  2  0  0  0  0
 14  4  2  0  0  0  0
 14 13  1  0  0  0  0
 16 18  1  0  0  0  0
 16  1  1  0  0  0  0
 17 16  1  0  0  0  0
 19 20  1  0  0  0  0
 20 21  2  0  0  0  0
 20 16  1  0  0  0  0
 21 26  1  0  0  0  0
 22 21  1  0  0  0  0
 23 22  2  0  0  0  0
 24 23  1  0  0  0  0
 24 19  2  0  0  0  0
 25 19  1  0  0  0  0
 27 23  1  0  0  0  0
M  END
>  <minimizedAffinity>
-4.67796135

$$$$

 OpenBabel03242517593D

 27 29  0  0  0  0  0  0  0  0999 V2000
   36.9510   30.5600   39.6440 C   0  0  0  0  0  0  0  0  0  0  0  0
   37.0830   31.6440   39.5750 H   0  0  0  0  0  0  0  0  0  0  0  0
   37.9260   30.0300   39.7990 H   0  0  0  0  0  0  0  0  0  0  0  0
   35.1130   29.2790   38.4610 C   0  0  0  0  0  3  0  0  0  0  0  0
   36.2860   29.9650   38.4540 C   0  0  0  0  0  0  0  0  0  0  0  0
   36.9910   30.1720   37.2740 C   0  0  0  0  0  0  0  0  0  0  0  0
   37.9400   30.7170   37.2150 H   0  0  0  0  0  0  0  0  0  0  0  0
   36.5430   29.6990   36.0510 C   0  0  0  0  0  0  0  0  0  0  0  0
   37.0000   29.7470   34.7930 N   0  0  0  0  0  0  0  0  0  0  0  0
   36.1210   29.0980   34.0160 C   0  0  0  0  0  0  0  0  0  0  0  0
   36.3020   29.0180   32.9450 H   0  0  0  0  0  0  0  0  0  0  0  0
   35.1100   28.6400   34.7840 N   0  0  0  0  0  0  0  0  0  0  0  0
   35.3550   29.0040   36.0590 C   0  0  0  0  0  0  0  0  0  0  0  0
   34.6530   28.7990   37.2380 C   0  0  0  0  0  3  0  0  0  0  0  0
   37.8890   30.2180   34.5190 H   0  0  0  0  0  0  0  0  0  0  0  0
   36.0890   30.1920   40.8590 C   0  0  0  0  0  0  0  0  0  0  0  0
   35.2040   29.6000   40.5130 H   0  0  0  0  0  0  0  0  0  0  0  0
   35.7430   31.0940   41.3530 H   0  0  0  0  0  0  0  0  0  0  0  0
   36.4600   28.0490   41.9600 C   0  0  0  0  0  0  0  0  0  0  0  0
   36.8810   29.3570   41.7260 C   0  0  0  0  0  0  0  0  0  0  0  0
   38.0570   29.7690   42.3550 C   0  0  0  0  0  0  0  0  0  0  0  0
   38.7170   28.8760   43.1530 N   0  0  0  0  0  0  0  0  0  0  0  0
   38.2820   27.6210   43.3560 C   0  0  0  0  0  0  0  0  0  0  0  0
   37.1390   27.1980   42.7550 N   0  0  0  0  0  0  0  0  0  0  0  0
   35.5450   27.6920   41.4860 H   0  0  0  0  0  0  0  0  0  0  0  0
   38.4160   30.7580   42.2050 H   0  0  0  0  0  0  0  0  0  0  0  0
   38.8070   26.9180   43.9880 H   0  0  0  0  0  0  0  0  0  0  0  0
  1  3  1  0  0  0  0
  1 16  1  0  0  0  0
  2  1  1  0  0  0  0
  5  4  1  0  0  0  0
  5  1  1  0  0  0  0
  6  5  2  0  0  0  0
  7  6  1  0  0  0  0
  8 13  2  0  0  0  0
  8  6  1  0  0  0  0
  9  8  1  0  0  0  0
 10 12  2  0  0  0  0
 10  9  1  0  0  0  0
 11 10  1  0  0  0  0
 12 13  1  0  0  0  0
 13 14  1  0  0  0  0
 14  4  2  0  0  0  0
 15  9  1  0  0  0  0
 16 18  1  0  0  0  0
 16 20  1  0  0  0  0
 17 16  1  0  0  0  0
 19 24  1  0  0  0  0
 20 19  2  0  0  0  0
 20 21  1  0  0  0  0
 21 22  2  0  0  0  0
 22 23  1  0  0  0  0
 23 27  1  0  0  0  0
 24 23  2  0  0  0  0
 25 19  1  0  0  0  0
 26 21  1  0  0  0  0
M  END
>  <minimizedAffinity>
-4.64193439

$$$$
