
 OpenBabel03252509083D

 44 48  0  0  0  0  0  0  0  0999 V2000
   47.7370   31.2780   38.8900 C   0  0  0  0  0  0  0  0  0  0  0  0
   46.8320   32.1830   38.4180 C   0  0  0  0  0  0  0  0  0  0  0  0
   46.9440   33.5160   38.7770 C   0  0  0  0  0  0  0  0  0  0  0  0
   47.9620   33.9330   39.6040 C   0  0  0  0  0  0  0  0  0  0  0  0
   48.9050   33.0420   40.1060 C   0  0  0  0  0  0  0  0  0  0  0  0
   48.7710   31.7010   39.7300 C   0  0  0  0  0  0  0  0  0  0  0  0
   46.2360   34.2540   38.4140 H   0  0  0  0  0  0  0  0  0  0  0  0
   48.1230   34.9370   39.9290 H   0  0  0  0  0  0  0  0  0  0  0  0
   49.7290   33.2750   40.7550 H   0  0  0  0  0  0  0  0  0  0  0  0
   49.4920   30.9770   40.1060 H   0  0  0  0  0  0  0  0  0  0  0  0
   41.8500   30.9860   37.7770 Cl  0  0  0  0  0  0  0  0  0  0  0  0
   43.4730   31.2880   37.2090 C   0  0  0  0  0  0  0  0  0  0  0  0
   44.4680   31.6170   38.0740 C   0  0  0  0  0  0  0  0  0  0  0  0
   45.7270   31.8460   37.5310 C   0  0  0  0  0  0  0  0  0  0  0  0
   45.9620   31.7520   36.1840 C   0  0  0  0  0  0  0  0  0  0  0  0
   44.9570   31.4220   35.3320 C   0  0  0  0  0  0  0  0  0  0  0  0
   43.6990   31.1880   35.8560 C   0  0  0  0  0  0  0  0  0  0  0  0
   46.9660   31.9450   35.8190 H   0  0  0  0  0  0  0  0  0  0  0  0
   45.1850   31.3560   34.2840 H   0  0  0  0  0  0  0  0  0  0  0  0
   42.9240   30.9270   35.1490 H   0  0  0  0  0  0  0  0  0  0  0  0
   43.4060   32.9560   41.4480 C   0  0  0  0  0  0  0  0  0  0  0  0
   43.6850   32.8700   40.0800 C   0  0  0  0  0  0  0  0  0  0  0  0
   44.1790   31.7190   39.4920 C   0  0  0  0  0  0  0  0  0  0  0  0
   44.3580   30.7130   40.3550 N   0  0  0  0  0  0  0  0  0  0  0  0
   44.0980   30.7730   41.6600 C   0  0  0  0  0  0  0  0  0  0  0  0
   43.6260   31.8840   42.2070 N   0  0  0  0  0  0  0  0  0  0  0  0
   43.0210   33.8760   41.8610 H   0  0  0  0  0  0  0  0  0  0  0  0
   43.5070   33.7450   39.4460 H   0  0  0  0  0  0  0  0  0  0  0  0
   44.3130   29.8430   42.1880 H   0  0  0  0  0  0  0  0  0  0  0  0
   47.6370   29.6360   38.5070 S   0  0  0  0  0  0  0  0  0  0  0  0
   48.9440   28.9330   38.9580 O   0  0  0  0  0  0  0  0  0  0  0  0
   46.5850   29.0450   39.4440 O   0  0  0  0  0  0  0  0  0  0  0  0
   46.3720   28.2130   36.5260 C   0  0  0  0  0  3  0  0  0  0  0  0
   47.4890   29.0000   36.9280 C   0  0  0  0  0  0  0  0  0  0  0  0
   48.3040   29.1720   35.8160 C   0  0  0  0  0  0  0  0  0  0  0  0
   49.1810   29.7810   35.9680 H   0  0  0  0  0  0  0  0  0  0  0  0
   48.1350   28.7040   34.5510 C   0  0  0  0  0  0  0  0  0  0  0  0
   48.8450   28.8040   33.4180 N   0  0  0  0  0  0  0  0  0  0  0  0
   48.1490   28.1110   32.4720 C   0  0  0  0  0  0  0  0  0  0  0  0
   48.4840   28.0160   31.4480 H   0  0  0  0  0  0  0  0  0  0  0  0
   47.0210   27.5940   33.0350 N   0  0  0  0  0  0  0  0  0  0  0  0
   46.9990   27.9570   34.3330 C   0  0  0  0  0  0  0  0  0  0  0  0
   46.0640   27.6730   35.2960 C   0  0  0  0  0  3  0  0  0  0  0  0
   49.7400   29.3110   33.3070 H   0  0  0  0  0  0  0  0  0  0  0  0
  1  6  1  0  0  0  0
  2  3  1  0  0  0  0
  2  1  2  0  0  0  0
  3  4  2  0  0  0  0
  4  8  1  0  0  0  0
  4  5  1  0  0  0  0
  5  9  1  0  0  0  0
  6 10  1  0  0  0  0
  6  5  2  0  0  0  0
  7  3  1  0  0  0  0
 12 11  1  0  0  0  0
 12 13  1  0  0  0  0
 13 23  1  0  0  0  0
 14 13  2  0  0  0  0
 14  2  1  0  0  0  0
 15 14  1  0  0  0  0
 16 17  1  0  0  0  0
 16 15  2  0  0  0  0
 17 12  2  0  0  0  0
 18 15  1  0  0  0  0
 19 16  1  0  0  0  0
 20 17  1  0  0  0  0
 21 27  1  0  0  0  0
 21 26  1  0  0  0  0
 22 21  2  0  0  0  0
 23 22  1  0  0  0  0
 23 24  2  0  0  0  0
 24 25  1  0  0  0  0
 25 29  1  0  0  0  0
 25 26  2  0  0  0  0
 28 22  1  0  0  0  0
 30  1  1  0  0  0  0
 30 31  2  0  0  0  0
 30 32  2  0  0  0  0
 33 34  1  0  0  0  0
 34 30  1  0  0  0  0
 35 36  1  0  0  0  0
 35 34  2  0  0  0  0
 37 35  1  0  0  0  0
 38 37  1  0  0  0  0
 39 41  2  0  0  0  0
 39 38  1  0  0  0  0
 40 39  1  0  0  0  0
 41 42  1  0  0  0  0
 42 37  2  0  0  0  0
 42 43  1  0  0  0  0
 43 33  2  0  0  0  0
 44 38  1  0  0  0  0
M  END
>  <minimizedAffinity>
-2.90801001

>  <minimizedRMSD>
6.26749754

$$$$
