
 OpenBabel03252502593D

 25 27  0  0  0  0  0  0  0  0999 V2000
   45.6120   34.2430   41.3180 C   0  0  0  0  0  0  0  0  0  0  0  0
   46.4170   34.4450   40.5800 H   0  0  0  0  0  0  0  0  0  0  0  0
   45.6870   33.1840   41.6500 H   0  0  0  0  0  0  0  0  0  0  0  0
   43.8460   33.8110   39.5550 C   0  0  0  0  0  0  0  0  0  0  0  0
   44.2670   34.4140   40.7140 C   0  0  0  0  0  0  0  0  0  0  0  0
   43.4160   35.2460   41.4000 C   0  0  0  0  0  0  0  0  0  0  0  0
   43.7010   35.7490   42.3230 H   0  0  0  0  0  0  0  0  0  0  0  0
   42.1170   35.5210   40.9800 C   0  0  0  0  0  0  0  0  0  0  0  0
   41.1080   36.2730   41.4460 N   0  0  0  0  0  0  0  0  0  0  0  0
   40.0580   36.1450   40.5900 C   0  0  0  0  0  0  0  0  0  0  0  0
   39.1200   36.6800   40.7820 H   0  0  0  0  0  0  0  0  0  0  0  0
   40.4290   35.3110   39.5960 N   0  0  0  0  0  0  0  0  0  0  0  0
   41.6990   34.9120   39.8160 C   0  0  0  0  0  0  0  0  0  0  0  0
   42.5770   34.0760   39.1410 C   0  0  0  0  0  0  0  0  0  0  0  0
   41.1520   36.8410   42.3120 H   0  0  0  0  0  0  0  0  0  0  0  0
   45.8690   35.3270   42.7300 S   0  0  0  0  0  0  0  0  0  0  0  0
   45.1190   34.5790   45.3040 C   0  0  0  0  0  0  0  0  0  0  0  0
   45.9930   34.3240   44.2300 C   0  0  0  0  0  0  0  0  0  0  0  0
   46.9540   33.3090   44.3060 C   0  0  0  0  0  0  0  0  0  0  0  0
   46.9860   32.5970   45.4690 N   0  0  0  0  0  0  0  0  0  0  0  0
   46.1430   32.8650   46.4660 C   0  0  0  0  0  0  0  0  0  0  0  0
   45.2260   33.8200   46.4170 N   0  0  0  0  0  0  0  0  0  0  0  0
   44.3960   35.3710   45.1970 H   0  0  0  0  0  0  0  0  0  0  0  0
   47.6060   33.1520   43.4490 H   0  0  0  0  0  0  0  0  0  0  0  0
   46.2390   32.2450   47.3590 H   0  0  0  0  0  0  0  0  0  0  0  0
  1  3  1  0  0  0  0
  1 16  1  0  0  0  0
  2  1  1  0  0  0  0
  4  5  1  0  0  0  0
  5  1  1  0  0  0  0
  5  6  2  0  0  0  0
  6  7  1  0  0  0  0
  8  6  1  0  0  0  0
  8  9  1  0  0  0  0
  9 15  1  0  0  0  0
 10 11  1  0  0  0  0
 10  9  1  0  0  0  0
 12 13  1  0  0  0  0
 12 10  2  0  0  0  0
 13  8  2  0  0  0  0
 14  4  2  0  0  0  0
 14 13  1  0  0  0  0
 16 18  1  0  0  0  0
 17 22  1  0  0  0  0
 18 19  1  0  0  0  0
 18 17  2  0  0  0  0
 19 20  2  0  0  0  0
 20 21  1  0  0  0  0
 21 25  1  0  0  0  0
 22 21  2  0  0  0  0
 23 17  1  0  0  0  0
 24 19  1  0  0  0  0
M  END
>  <minimizedAffinity>
-4.90100288

>  <minimizedRMSD>
2.72363257

$$$$
