
 OpenBabel03242519473D

 41 44  0  0  1  0  0  0  0  0999 V2000
   46.6700   32.8300   46.6610 C   0  0  2  0  0  0  0  0  0  0  0  0
   47.0440   32.7120   45.2380 C   0  0  1  0  0  0  0  0  0  0  0  0
   46.5230   31.4000   44.8410 O   0  0  0  0  0  0  0  0  0  0  0  0
   47.1840   30.6760   45.8620 C   0  0  0  0  0  0  0  0  0  0  0  0
   46.5760   31.3780   47.1060 C   0  0  2  0  0  0  0  0  0  0  0  0
   47.3810   33.3970   47.2860 H   0  0  0  0  0  0  0  0  0  0  0  0
   48.1160   32.6070   45.0440 H   0  0  0  0  0  0  0  0  0  0  0  0
   47.0710   29.6210   45.8400 H   0  0  0  0  0  0  0  0  0  0  0  0
   48.2650   30.9590   45.7890 H   0  0  0  0  0  0  0  0  0  0  0  0
   47.2450   31.1020   47.9510 H   0  0  0  0  0  0  0  0  0  0  0  0
   44.7210   35.2330   43.9850 C   0  0  0  0  0  0  0  0  0  0  0  0
   45.3420   35.7210   42.8370 C   0  0  0  0  0  0  0  0  0  0  0  0
   46.5900   35.1790   42.4660 C   0  0  0  0  0  0  0  0  0  0  0  0
   47.1430   34.1930   43.2490 N   0  0  0  0  0  0  0  0  0  0  0  0
   46.5070   33.7480   44.3530 C   0  0  0  0  0  0  0  0  0  0  0  0
   45.3040   34.2530   44.7320 N   0  0  0  0  0  0  0  0  0  0  0  0
   44.8790   36.4890   42.2570 H   0  0  0  0  0  0  0  0  0  0  0  0
   47.1010   35.5350   41.5810 H   0  0  0  0  0  0  0  0  0  0  0  0
   43.4810   35.7290   44.4050 O   0  0  0  0  0  0  0  0  0  0  0  0
   42.8970   36.0950   43.6550 H   0  0  0  0  0  0  0  0  0  0  0  0
   45.3570   33.4070   46.7620 O   0  0  0  0  0  0  0  0  0  0  0  0
   45.1650   33.3850   47.7330 H   0  0  0  0  0  0  0  0  0  0  0  0
   45.2830   30.9650   47.2100 O   0  0  0  0  0  0  0  0  0  0  0  0
   45.0140   29.9490   48.0900 C   0  0  0  0  0  0  0  0  0  0  0  0
   45.2700   30.2260   49.1070 H   0  0  0  0  0  0  0  0  0  0  0  0
   43.8220   30.0280   48.1890 H   0  0  0  0  0  0  0  0  0  0  0  0
   45.3070   28.5770   47.6410 C   0  0  0  0  0  0  0  0  0  0  0  0
   46.2460   28.4640   47.0630 H   0  0  0  0  0  0  0  0  0  0  0  0
   45.2930   27.8910   48.5250 H   0  0  0  0  0  0  0  0  0  0  0  0
   43.6670   28.6960   45.6110 C   0  0  0  0  0  3  0  0  0  0  0  0
   44.2370   28.1150   46.7190 C   0  0  0  0  0  0  0  0  0  0  0  0
   43.6810   26.8590   47.0120 C   0  0  0  0  0  0  0  0  0  0  0  0
   44.0460   26.2950   47.8640 H   0  0  0  0  0  0  0  0  0  0  0  0
   42.6760   26.2380   46.3000 C   0  0  0  0  0  0  0  0  0  0  0  0
   42.0410   25.0620   46.4410 N   0  0  0  0  0  0  0  0  0  0  0  0
   41.1370   24.9630   45.4550 C   0  0  0  0  0  0  0  0  0  0  0  0
   40.4490   24.1450   45.2640 H   0  0  0  0  0  0  0  0  0  0  0  0
   41.2110   26.0900   44.6930 N   0  0  0  0  0  0  0  0  0  0  0  0
   42.1620   26.8870   45.2080 C   0  0  0  0  0  0  0  0  0  0  0  0
   42.6640   28.1240   44.8670 C   0  0  0  0  0  3  0  0  0  0  0  0
   42.2200   24.3630   47.1770 H   0  0  0  0  0  0  0  0  0  0  0  0
  1 21  1  0  0  0  0
  1  5  1  0  0  0  0
  1  6  1  1  0  0  0
  2  7  1  6  0  0  0
  2  1  1  0  0  0  0
  3  2  1  0  0  0  0
  3  4  1  0  0  0  0
  4  5  1  0  0  0  0
  5 23  1  0  0  0  0
  5 10  1  1  0  0  0
  8  4  1  0  0  0  0
  9  4  1  0  0  0  0
 11 19  1  0  0  0  0
 11 16  1  0  0  0  0
 12 11  2  0  0  0  0
 13 12  1  0  0  0  0
 13 14  2  0  0  0  0
 14 15  1  0  0  0  0
 15 16  2  0  0  0  0
 15  2  1  0  0  0  0
 17 12  1  0  0  0  0
 18 13  1  0  0  0  0
 20 19  1  0  0  0  0
 21 22  1  0  0  0  0
 23 24  1  0  0  0  0
 24 26  1  0  0  0  0
 24 25  1  0  0  0  0
 27 24  1  0  0  0  0
 27 29  1  0  0  0  0
 28 27  1  0  0  0  0
 30 31  1  0  0  0  0
 31 32  2  0  0  0  0
 31 27  1  0  0  0  0
 32 33  1  0  0  0  0
 34 35  1  0  0  0  0
 34 32  1  0  0  0  0
 35 41  1  0  0  0  0
 36 35  1  0  0  0  0
 37 36  1  0  0  0  0
 38 39  1  0  0  0  0
 38 36  2  0  0  0  0
 39 34  2  0  0  0  0
 40 39  1  0  0  0  0
 40 30  2  0  0  0  0
M  END
>  <minimizedAffinity>
-5.86199808

>  <minimizedRMSD>
0.747661054

$$$$
