
 OpenBabel03252509003D

 48 51  0  0  1  0  0  0  0  0999 V2000
   47.0890   34.2660   43.4900 N   0  0  0  0  0  0  0  0  0  0  0  0
   46.6310   35.3780   42.7400 C   0  0  0  0  0  0  0  0  0  0  0  0
   45.1390   35.5900   42.7370 C   0  0  0  0  0  0  0  0  0  0  0  0
   44.4460   35.1700   44.0070 C   0  0  0  0  0  0  0  0  0  0  0  0
   45.4330   34.7220   45.0590 C   0  0  0  0  0  0  0  0  0  0  0  0
   46.2320   33.5760   44.3350 C   0  0  2  0  0  0  0  0  0  0  0  0
   46.9730   35.4370   41.7050 H   0  0  0  0  0  0  0  0  0  0  0  0
   47.0610   36.2920   43.2490 H   0  0  0  0  0  0  0  0  0  0  0  0
   44.9520   36.6820   42.5240 H   0  0  0  0  0  0  0  0  0  0  0  0
   44.7050   35.0380   41.8710 H   0  0  0  0  0  0  0  0  0  0  0  0
   43.8880   36.0310   44.4330 H   0  0  0  0  0  0  0  0  0  0  0  0
   43.7450   34.3490   43.8150 H   0  0  0  0  0  0  0  0  0  0  0  0
   44.8990   34.2580   45.8950 H   0  0  0  0  0  0  0  0  0  0  0  0
   46.1490   35.4950   45.3420 H   0  0  0  0  0  0  0  0  0  0  0  0
   45.4710   32.9010   43.8760 H   0  0  0  0  0  0  0  0  0  0  0  0
   48.1790   33.5580   42.8850 C   0  0  0  0  0  0  0  0  0  0  0  0
   48.7630   33.0350   43.6860 H   0  0  0  0  0  0  0  0  0  0  0  0
   48.8500   34.2570   42.3820 H   0  0  0  0  0  0  0  0  0  0  0  0
   47.6250   32.4830   42.0000 C   0  0  0  0  0  0  0  0  0  0  0  0
   46.5140   32.5230   41.9850 H   0  0  0  0  0  0  0  0  0  0  0  0
   47.9030   31.4550   42.2990 H   0  0  0  0  0  0  0  0  0  0  0  0
   49.3680   32.0810   38.6980 C   0  0  0  0  0  0  0  0  0  0  0  0
   48.9480   31.8620   40.0220 C   0  0  0  0  0  0  0  0  0  0  0  0
   48.0570   32.7310   40.6000 C   0  0  0  0  0  0  0  0  0  0  0  0
   47.6260   33.7610   39.8620 N   0  0  0  0  0  0  0  0  0  0  0  0
   48.0250   33.9730   38.5980 C   0  0  0  0  0  0  0  0  0  0  0  0
   48.8950   33.1420   38.0030 N   0  0  0  0  0  0  0  0  0  0  0  0
   50.0660   31.4290   38.1950 H   0  0  0  0  0  0  0  0  0  0  0  0
   49.3330   31.0220   40.5500 H   0  0  0  0  0  0  0  0  0  0  0  0
   47.6080   34.8410   38.1000 H   0  0  0  0  0  0  0  0  0  0  0  0
   46.9130   33.0020   45.4010 O   0  0  0  0  0  0  0  0  0  0  0  0
   45.5610   30.8330   44.6930 O   0  0  0  0  0  0  0  0  0  0  0  0
   46.2760   31.5070   45.8480 P   0  0  2  0  0  0  0  0  0  0  0  0
   45.0540   31.8410   47.0000 O   0  0  0  0  0  0  0  0  0  0  0  0
   45.4230   31.7230   47.9110 H   0  0  0  0  0  0  0  0  0  0  0  0
   47.4280   30.5450   46.5710 O   0  0  0  0  0  0  0  0  0  0  0  0
   45.9970   28.7340   47.0630 C   0  0  0  0  0  3  0  0  0  0  0  0
   47.2960   29.2490   46.9850 C   0  0  0  0  0  0  0  0  0  0  0  0
   48.3480   28.4230   47.3280 C   0  0  0  0  0  0  0  0  0  0  0  0
   49.3650   28.8170   47.2700 H   0  0  0  0  0  0  0  0  0  0  0  0
   48.0900   27.1100   47.7390 C   0  0  0  0  0  0  0  0  0  0  0  0
   48.9490   26.1270   48.1190 N   0  0  0  0  0  0  0  0  0  0  0  0
   48.2550   25.0130   48.4350 C   0  0  0  0  0  0  0  0  0  0  0  0
   48.7040   24.0860   48.7680 H   0  0  0  0  0  0  0  0  0  0  0  0
   46.9500   25.3100   48.2460 N   0  0  0  0  0  0  0  0  0  0  0  0
   46.8150   26.5900   47.8190 C   0  0  0  0  0  0  0  0  0  0  0  0
   45.7720   27.4250   47.4740 C   0  0  0  0  0  3  0  0  0  0  0  0
   49.9830   26.2580   48.1490 H   0  0  0  0  0  0  0  0  0  0  0  0
  1  6  1  0  0  0  0
  2  8  1  0  0  0  0
  2  1  1  0  0  0  0
  3  2  1  0  0  0  0
  3  4  1  0  0  0  0
  4 11  1  0  0  0  0
  4  5  1  0  0  0  0
  5 14  1  0  0  0  0
  5 13  1  0  0  0  0
  6 15  1  6  0  0  0
  6  5  1  0  0  0  0
  6 31  1  0  0  0  0
  7  2  1  0  0  0  0
  9  3  1  0  0  0  0
 10  3  1  0  0  0  0
 12  4  1  0  0  0  0
 16  1  1  0  0  0  0
 16 17  1  0  0  0  0
 18 16  1  0  0  0  0
 19 21  1  0  0  0  0
 19 16  1  0  0  0  0
 20 19  1  0  0  0  0
 22 23  1  0  0  0  0
 23 29  1  0  0  0  0
 23 24  2  0  0  0  0
 24 19  1  0  0  0  0
 25 24  1  0  0  0  0
 26 25  2  0  0  0  0
 27 26  1  0  0  0  0
 27 22  2  0  0  0  0
 28 22  1  0  0  0  0
 30 26  1  0  0  0  0
 31 33  1  0  0  0  0
 33 32  2  6  0  0  0
 33 36  1  0  0  0  0
 33 34  1  0  0  0  0
 34 35  1  0  0  0  0
 36 38  1  0  0  0  0
 37 47  1  0  0  0  0
 38 37  2  0  0  0  0
 38 39  1  0  0  0  0
 39 41  2  0  0  0  0
 40 39  1  0  0  0  0
 41 46  1  0  0  0  0
 41 42  1  0  0  0  0
 42 48  1  0  0  0  0
 42 43  1  0  0  0  0
 43 44  1  0  0  0  0
 45 43  2  0  0  0  0
 46 45  1  0  0  0  0
 47 46  2  0  0  0  0
M  END
>  <minimizedAffinity>
-4.54853582

>  <minimizedRMSD>
1.22209048

$$$$
