
 OpenBabel03252509043D

 51 54  0  0  1  0  0  0  0  0999 V2000
   46.7970   34.3320   43.5600 N   0  0  0  0  0  0  0  0  0  0  0  0
   46.4780   34.9740   42.3440 C   0  0  0  0  0  0  0  0  0  0  0  0
   44.9960   34.9830   42.0120 C   0  0  0  0  0  0  0  0  0  0  0  0
   44.1060   35.1330   43.2160 C   0  0  0  0  0  0  0  0  0  0  0  0
   44.9030   35.2790   44.4910 C   0  0  0  0  0  0  0  0  0  0  0  0
   45.8420   34.0100   44.4910 C   0  0  2  0  0  0  0  0  0  0  0  0
   46.9870   34.6070   41.4470 H   0  0  0  0  0  0  0  0  0  0  0  0
   46.7770   36.0570   42.4230 H   0  0  0  0  0  0  0  0  0  0  0  0
   44.7000   34.0550   41.4610 H   0  0  0  0  0  0  0  0  0  0  0  0
   44.7810   35.8170   41.3090 H   0  0  0  0  0  0  0  0  0  0  0  0
   43.4520   36.0510   43.1390 H   0  0  0  0  0  0  0  0  0  0  0  0
   43.4030   34.2870   43.3470 H   0  0  0  0  0  0  0  0  0  0  0  0
   45.5120   36.1910   44.5180 H   0  0  0  0  0  0  0  0  0  0  0  0
   44.2390   35.1320   45.3580 H   0  0  0  0  0  0  0  0  0  0  0  0
   45.1810   33.1490   44.2830 H   0  0  0  0  0  0  0  0  0  0  0  0
   48.0150   33.5580   43.5180 C   0  0  0  0  0  0  0  0  0  0  0  0
   48.7630   34.1890   42.9920 H   0  0  0  0  0  0  0  0  0  0  0  0
   48.4610   33.3670   44.5220 H   0  0  0  0  0  0  0  0  0  0  0  0
   47.7430   32.3230   42.7210 C   0  0  0  0  0  0  0  0  0  0  0  0
   47.5900   31.4600   43.3670 H   0  0  0  0  0  0  0  0  0  0  0  0
   46.8240   32.4280   42.0860 H   0  0  0  0  0  0  0  0  0  0  0  0
   51.2350   32.1040   41.3510 C   0  0  0  0  0  0  0  0  0  0  0  0
   50.1540   32.3280   42.2250 C   0  0  0  0  0  0  0  0  0  0  0  0
   48.8750   32.0830   41.7880 C   0  0  0  0  0  0  0  0  0  0  0  0
   48.7220   31.6390   40.5380 N   0  0  0  0  0  0  0  0  0  0  0  0
   49.7530   31.4270   39.7090 C   0  0  0  0  0  0  0  0  0  0  0  0
   51.0120   31.6520   40.0920 N   0  0  0  0  0  0  0  0  0  0  0  0
   52.2480   32.2930   41.6810 H   0  0  0  0  0  0  0  0  0  0  0  0
   50.3780   32.6900   43.2200 H   0  0  0  0  0  0  0  0  0  0  0  0
   49.4500   31.0660   38.7320 H   0  0  0  0  0  0  0  0  0  0  0  0
   46.3170   34.0320   45.7890 O   0  0  0  0  0  0  0  0  0  0  0  0
   45.5980   31.4710   45.6370 O   0  0  0  0  0  0  0  0  0  0  0  0
   46.0820   32.5640   46.5860 P   0  0  2  0  0  0  0  0  0  0  0  0
   44.7630   32.8280   47.6530 O   0  0  0  0  0  0  0  0  0  0  0  0
   44.1920   32.0440   47.7150 H   0  0  0  0  0  0  0  0  0  0  0  0
   47.3770   32.0870   47.5020 O   0  0  0  0  0  0  0  0  0  0  0  0
   47.6860   30.7700   47.2040 C   0  0  0  0  0  0  0  0  0  0  0  0
   46.7540   30.1870   47.2760 H   0  0  0  0  0  0  0  0  0  0  0  0
   48.1670   30.6340   46.2320 H   0  0  0  0  0  0  0  0  0  0  0  0
   49.1330   29.0170   48.3110 C   0  0  0  0  0  3  0  0  0  0  0  0
   48.6480   30.3100   48.2660 C   0  0  0  0  0  0  0  0  0  0  0  0
   49.0370   31.2550   49.2150 C   0  0  0  0  0  0  0  0  0  0  0  0
   48.6490   32.2810   49.1730 H   0  0  0  0  0  0  0  0  0  0  0  0
   49.9140   30.8950   50.2100 C   0  0  0  0  0  0  0  0  0  0  0  0
   50.4080   31.6530   51.2120 N   0  0  0  0  0  0  0  0  0  0  0  0
   51.2300   30.8620   51.9350 C   0  0  0  0  0  0  0  0  0  0  0  0
   51.7880   31.1520   52.8080 H   0  0  0  0  0  0  0  0  0  0  0  0
   51.2280   29.6220   51.3640 N   0  0  0  0  0  0  0  0  0  0  0  0
   50.4210   29.6120   50.2910 C   0  0  0  0  0  0  0  0  0  0  0  0
   50.0240   28.6860   49.3380 C   0  0  0  0  0  3  0  0  0  0  0  0
   50.2470   32.6620   51.4650 H   0  0  0  0  0  0  0  0  0  0  0  0
  1  6  1  0  0  0  0
  2  8  1  0  0  0  0
  2  1  1  0  0  0  0
  3  2  1  0  0  0  0
  3  4  1  0  0  0  0
  4 12  1  0  0  0  0
  4  5  1  0  0  0  0
  5 13  1  0  0  0  0
  5 14  1  0  0  0  0
  6 15  1  6  0  0  0
  6  5  1  0  0  0  0
  6 31  1  0  0  0  0
  7  2  1  0  0  0  0
  9  3  1  0  0  0  0
 10  3  1  0  0  0  0
 11  4  1  0  0  0  0
 16  1  1  0  0  0  0
 16 18  1  0  0  0  0
 17 16  1  0  0  0  0
 19 20  1  0  0  0  0
 19 16  1  0  0  0  0
 21 19  1  0  0  0  0
 22 28  1  0  0  0  0
 22 23  1  0  0  0  0
 23 29  1  0  0  0  0
 24 23  2  0  0  0  0
 24 19  1  0  0  0  0
 25 24  1  0  0  0  0
 26 27  1  0  0  0  0
 26 25  2  0  0  0  0
 27 22  2  0  0  0  0
 30 26  1  0  0  0  0
 31 33  1  0  0  0  0
 33 32  2  6  0  0  0
 33 36  1  0  0  0  0
 33 34  1  0  0  0  0
 34 35  1  0  0  0  0
 37 38  1  0  0  0  0
 37 36  1  0  0  0  0
 37 41  1  0  0  0  0
 39 37  1  0  0  0  0
 40 50  1  0  0  0  0
 41 40  2  0  0  0  0
 41 42  1  0  0  0  0
 42 44  2  0  0  0  0
 43 42  1  0  0  0  0
 44 49  1  0  0  0  0
 44 45  1  0  0  0  0
 45 51  1  0  0  0  0
 45 46  1  0  0  0  0
 46 47  1  0  0  0  0
 48 46  2  0  0  0  0
 49 48  1  0  0  0  0
 50 49  2  0  0  0  0
M  END
>  <minimizedAffinity>
-5.65791082

>  <minimizedRMSD>
3.07099795

$$$$
