
 OpenBabel03252506373D

 47 51  0  0  1  0  0  0  0  0999 V2000
   46.6980   30.0120   46.5220 S   0  0  0  0  0  0  0  0  0  0  0  0
   44.5240   35.4880   45.1490 C   0  0  0  0  0  0  0  0  0  0  0  0
   45.1860   35.4990   43.9030 C   0  0  0  0  0  0  0  0  0  0  0  0
   46.1160   34.5530   43.6400 C   0  0  0  0  0  0  0  0  0  0  0  0
   46.3560   33.6350   44.6090 N   0  0  0  0  0  0  0  0  0  0  0  0
   45.7330   33.6280   45.7780 C   0  0  0  0  0  0  0  0  0  0  0  0
   44.8110   34.5490   46.0670 N   0  0  0  0  0  0  0  0  0  0  0  0
   46.0700   32.6070   46.7340 N   0  0  0  0  0  0  0  0  0  0  0  0
   45.3300   32.3400   47.9110 C   0  0  0  0  0  0  0  0  0  0  0  0
   46.4010   31.9910   48.9260 C   0  0  0  0  0  0  0  0  0  0  0  0
   47.6880   31.9060   48.1610 C   0  0  0  0  0  0  0  0  0  0  0  0
   47.1960   31.7070   46.7290 C   0  0  1  0  0  0  0  0  0  0  0  0
   43.7860   36.2550   45.3360 H   0  0  0  0  0  0  0  0  0  0  0  0
   46.6260   34.5420   42.7070 H   0  0  0  0  0  0  0  0  0  0  0  0
   44.5350   31.6760   48.0020 H   0  0  0  0  0  0  0  0  0  0  0  0
   44.9450   33.3430   48.2810 H   0  0  0  0  0  0  0  0  0  0  0  0
   46.5030   32.6970   49.7480 H   0  0  0  0  0  0  0  0  0  0  0  0
   46.1640   30.9990   49.4030 H   0  0  0  0  0  0  0  0  0  0  0  0
   48.2710   31.0050   48.4650 H   0  0  0  0  0  0  0  0  0  0  0  0
   48.2700   32.8280   48.2870 H   0  0  0  0  0  0  0  0  0  0  0  0
   48.0320   32.0190   46.0790 H   0  0  0  0  0  0  0  0  0  0  0  0
   44.8190   36.5390   42.9800 N   0  0  0  0  0  0  0  0  0  0  0  0
   45.6080   36.8440   42.3780 H   0  0  0  0  0  0  0  0  0  0  0  0
   43.8770   36.9570   42.9040 H   0  0  0  0  0  0  0  0  0  0  0  0
   45.4950   30.5880   43.4670 O   0  0  0  0  0  0  0  0  0  0  0  0
   44.9290   30.0040   44.4040 C   0  0  0  0  0  0  0  0  0  0  0  0
   45.1140   29.7260   45.8490 C   0  0  1  0  0  0  0  0  0  0  0  0
   44.6060   28.3100   45.9640 C   0  0  0  0  0  0  0  0  0  0  0  0
   43.2480   28.5220   45.2850 C   0  0  0  0  0  0  0  0  0  0  0  0
   43.6770   29.3350   44.1550 N   0  0  0  0  0  0  0  0  0  0  0  0
   44.2410   30.3000   46.2690 H   0  0  0  0  0  0  0  0  0  0  0  0
   45.1600   27.6060   45.3140 H   0  0  0  0  0  0  0  0  0  0  0  0
   44.4660   27.9770   46.9980 H   0  0  0  0  0  0  0  0  0  0  0  0
   42.8970   27.5380   44.9430 H   0  0  0  0  0  0  0  0  0  0  0  0
   42.5390   29.0520   45.9400 H   0  0  0  0  0  0  0  0  0  0  0  0
   43.0460   28.2880   42.1330 C   0  0  0  0  0  3  0  0  0  0  0  0
   42.8150   29.3470   42.9950 C   0  0  0  0  0  0  0  0  0  0  0  0
   41.8530   30.2810   42.7240 C   0  0  0  0  0  0  0  0  0  0  0  0
   41.7370   31.0750   43.4470 H   0  0  0  0  0  0  0  0  0  0  0  0
   41.0940   30.1720   41.5690 C   0  0  0  0  0  0  0  0  0  0  0  0
   40.1070   30.9480   41.0860 N   0  0  0  0  0  0  0  0  0  0  0  0
   39.7120   30.3750   39.9120 C   0  0  0  0  0  0  0  0  0  0  0  0
   38.9230   30.7360   39.2390 H   0  0  0  0  0  0  0  0  0  0  0  0
   40.4220   29.2710   39.6520 N   0  0  0  0  0  0  0  0  0  0  0  0
   41.2890   29.1200   40.6660 C   0  0  0  0  0  0  0  0  0  0  0  0
   42.2830   28.1910   40.9850 C   0  0  0  0  0  3  0  0  0  0  0  0
   39.7160   31.8160   41.5200 H   0  0  0  0  0  0  0  0  0  0  0  0
  1 12  1  0  0  0  0
  2 13  1  0  0  0  0
  2  7  1  0  0  0  0
  3  2  2  0  0  0  0
  4  3  1  0  0  0  0
  4  5  2  0  0  0  0
  5  6  1  0  0  0  0
  6  7  2  0  0  0  0
  6  8  1  0  0  0  0
  8  9  1  0  0  0  0
  9 15  1  0  0  0  0
  9 16  1  0  0  0  0
  9 10  1  0  0  0  0
 10 18  1  0  0  0  0
 10 17  1  0  0  0  0
 11 20  1  0  0  0  0
 11 19  1  0  0  0  0
 11 10  1  0  0  0  0
 12 21  1  6  0  0  0
 12  8  1  0  0  0  0
 12 11  1  0  0  0  0
 14  4  1  0  0  0  0
 22  3  1  0  0  0  0
 23 22  1  0  0  0  0
 24 22  1  0  0  0  0
 25 26  2  0  0  0  0
 26 27  1  0  0  0  0
 27 28  1  0  0  0  0
 27 31  1  1  0  0  0
 27  1  1  0  0  0  0
 28 33  1  0  0  0  0
 29 35  1  0  0  0  0
 29 28  1  0  0  0  0
 30 26  1  0  0  0  0
 30 29  1  0  0  0  0
 32 28  1  0  0  0  0
 34 29  1  0  0  0  0
 36 37  1  0  0  0  0
 37 30  1  0  0  0  0
 38 37  2  0  0  0  0
 38 39  1  0  0  0  0
 40 38  1  0  0  0  0
 41 47  1  0  0  0  0
 41 40  1  0  0  0  0
 42 41  1  0  0  0  0
 43 42  1  0  0  0  0
 44 42  2  0  0  0  0
 44 45  1  0  0  0  0
 45 46  1  0  0  0  0
 45 40  2  0  0  0  0
 46 36  2  0  0  0  0
M  END
>  <minimizedAffinity>
-5.66022015

>  <minimizedRMSD>
0.266623855

$$$$
