
 OpenBabel03242512173D

 36 39  0  0  0  0  0  0  0  0999 V2000
   48.3960   33.0730   41.3730 C   0  0  0  0  0  0  0  0  0  0  0  0
   48.0300   34.3270   41.8240 C   0  0  0  0  0  0  0  0  0  0  0  0
   48.9780   35.1120   42.4410 C   0  0  0  0  0  0  0  0  0  0  0  0
   50.2630   34.6370   42.5980 C   0  0  0  0  0  0  0  0  0  0  0  0
   50.5910   33.3860   42.1390 C   0  0  0  0  0  0  0  0  0  0  0  0
   49.6550   32.5680   41.5100 C   0  0  0  0  0  0  0  0  0  0  0  0
   48.6500   36.1030   42.7860 H   0  0  0  0  0  0  0  0  0  0  0  0
   51.0050   35.2590   43.0840 H   0  0  0  0  0  0  0  0  0  0  0  0
   51.6050   33.0280   42.2690 H   0  0  0  0  0  0  0  0  0  0  0  0
   46.6200   34.7120   41.5930 C   0  0  0  0  0  0  0  0  0  0  0  0
   46.0970   34.0400   40.9380 H   0  0  0  0  0  0  0  0  0  0  0  0
   46.6410   35.7140   41.0770 H   0  0  0  0  0  0  0  0  0  0  0  0
   45.9280   34.9240   42.9280 C   0  0  0  0  0  0  0  0  0  0  0  0
   46.0060   33.8990   43.8570 C   0  0  0  0  0  0  0  0  0  0  0  0
   45.3790   34.1010   45.0850 C   0  0  0  0  0  0  0  0  0  0  0  0
   44.7420   35.2630   45.2920 N   0  0  0  0  0  0  0  0  0  0  0  0
   44.6830   36.2550   44.3590 C   0  0  0  0  0  0  0  0  0  0  0  0
   45.2800   36.0750   43.1780 N   0  0  0  0  0  0  0  0  0  0  0  0
   46.5280   32.9720   43.6570 H   0  0  0  0  0  0  0  0  0  0  0  0
   45.4030   33.3270   45.8660 H   0  0  0  0  0  0  0  0  0  0  0  0
   44.1410   37.1540   44.6320 H   0  0  0  0  0  0  0  0  0  0  0  0
   47.4930   32.1960   40.7290 O   0  0  0  0  0  0  0  0  0  0  0  0
   47.7430   31.7130   39.8750 H   0  0  0  0  0  0  0  0  0  0  0  0
   50.0660   31.3090   41.0700 O   0  0  0  0  0  0  0  0  0  0  0  0
   50.6100   31.6410   38.8530 C   0  0  0  0  0  0  0  0  0  0  0  0
   51.0120   31.2110   40.0960 C   0  0  0  0  0  0  0  0  0  0  0  0
   52.2840   30.7180   40.3260 C   0  0  0  0  0  0  0  0  0  0  0  0
   52.5460   30.3940   41.3280 H   0  0  0  0  0  0  0  0  0  0  0  0
   53.1600   30.6660   39.2580 C   0  0  0  0  0  0  0  0  0  0  0  0
   54.4420   30.2320   39.2220 N   0  0  0  0  0  0  0  0  0  0  0  0
   54.8640   30.3860   37.9390 C   0  0  0  0  0  0  0  0  0  0  0  0
   55.8360   30.1590   37.4760 H   0  0  0  0  0  0  0  0  0  0  0  0
   53.8330   30.9030   37.2520 N   0  0  0  0  0  0  0  0  0  0  0  0
   52.7540   31.0970   38.0140 C   0  0  0  0  0  0  0  0  0  0  0  0
   51.4820   31.5920   37.7730 C   0  0  0  0  0  0  0  0  0  0  0  0
   55.0360   29.8480   39.9870 H   0  0  0  0  0  0  0  0  0  0  0  0
  1  6  2  0  0  0  0
  1  2  1  0  0  0  0
  2  3  2  0  0  0  0
  3  4  1  0  0  0  0
  3  7  1  0  0  0  0
  4  8  1  0  0  0  0
  5  9  1  0  0  0  0
  5  4  2  0  0  0  0
  6  5  1  0  0  0  0
 10  2  1  0  0  0  0
 10 13  1  0  0  0  0
 11 10  1  0  0  0  0
 12 10  1  0  0  0  0
 13 18  2  0  0  0  0
 13 14  1  0  0  0  0
 14 15  2  0  0  0  0
 15 16  1  0  0  0  0
 15 20  1  0  0  0  0
 17 21  1  0  0  0  0
 17 16  2  0  0  0  0
 18 17  1  0  0  0  0
 19 14  1  0  0  0  0
 22  1  1  0  0  0  0
 23 22  1  0  0  0  0
 24  6  1  0  0  0  0
 25 26  1  0  0  0  0
 26 27  2  0  0  0  0
 26 24  1  0  0  0  0
 27 28  1  0  0  0  0
 29 27  1  0  0  0  0
 30 29  1  0  0  0  0
 30 36  1  0  0  0  0
 31 30  1  0  0  0  0
 32 31  1  0  0  0  0
 33 31  2  0  0  0  0
 33 34  1  0  0  0  0
 34 29  2  0  0  0  0
 35 34  1  0  0  0  0
 35 25  2  0  0  0  0
M  END
>  <minimizedAffinity>
-5.59705687

>  <minimizedRMSD>
2.30808306

$$$$
