
 OpenBabel03252506373D

 47 51  0  0  1  0  0  0  0  0999 V2000
   46.7290   30.0090   46.5550 S   0  0  0  0  0  0  0  0  0  0  0  0
   44.5260   35.4650   45.1490 C   0  0  0  0  0  0  0  0  0  0  0  0
   45.1930   35.4750   43.9060 C   0  0  0  0  0  0  0  0  0  0  0  0
   46.1300   34.5340   43.6510 C   0  0  0  0  0  0  0  0  0  0  0  0
   46.3720   33.6220   44.6250 N   0  0  0  0  0  0  0  0  0  0  0  0
   45.7440   33.6150   45.7910 C   0  0  0  0  0  0  0  0  0  0  0  0
   44.8150   34.5310   46.0720 N   0  0  0  0  0  0  0  0  0  0  0  0
   46.0840   32.6010   46.7530 N   0  0  0  0  0  0  0  0  0  0  0  0
   45.3400   32.3340   47.9290 C   0  0  0  0  0  0  0  0  0  0  0  0
   46.4100   31.9960   48.9490 C   0  0  0  0  0  0  0  0  0  0  0  0
   47.7010   31.9170   48.1900 C   0  0  0  0  0  0  0  0  0  0  0  0
   47.2150   31.7080   46.7560 C   0  0  1  0  0  0  0  0  0  0  0  0
   43.7820   36.2280   45.3300 H   0  0  0  0  0  0  0  0  0  0  0  0
   46.6440   34.5220   42.7200 H   0  0  0  0  0  0  0  0  0  0  0  0
   44.5500   31.6650   48.0180 H   0  0  0  0  0  0  0  0  0  0  0  0
   44.9470   33.3360   48.2920 H   0  0  0  0  0  0  0  0  0  0  0  0
   46.5040   32.7070   49.7680 H   0  0  0  0  0  0  0  0  0  0  0  0
   46.1780   31.0040   49.4290 H   0  0  0  0  0  0  0  0  0  0  0  0
   48.2880   31.0200   48.4990 H   0  0  0  0  0  0  0  0  0  0  0  0
   48.2760   32.8420   48.3130 H   0  0  0  0  0  0  0  0  0  0  0  0
   48.0520   32.0230   46.1080 H   0  0  0  0  0  0  0  0  0  0  0  0
   44.8230   36.5090   42.9770 N   0  0  0  0  0  0  0  0  0  0  0  0
   45.6130   36.8160   42.3770 H   0  0  0  0  0  0  0  0  0  0  0  0
   43.8790   36.9210   42.8950 H   0  0  0  0  0  0  0  0  0  0  0  0
   45.4920   30.5370   43.5040 O   0  0  0  0  0  0  0  0  0  0  0  0
   44.9380   29.9660   44.4560 C   0  0  0  0  0  0  0  0  0  0  0  0
   45.1380   29.7100   45.9030 C   0  0  1  0  0  0  0  0  0  0  0  0
   44.6350   28.2950   46.0440 C   0  0  0  0  0  0  0  0  0  0  0  0
   43.2690   28.4940   45.3770 C   0  0  0  0  0  0  0  0  0  0  0  0
   43.6850   29.2910   44.2300 N   0  0  0  0  0  0  0  0  0  0  0  0
   44.2690   30.2890   46.3230 H   0  0  0  0  0  0  0  0  0  0  0  0
   45.1830   27.5830   45.4000 H   0  0  0  0  0  0  0  0  0  0  0  0
   44.5060   27.9770   47.0850 H   0  0  0  0  0  0  0  0  0  0  0  0
   42.9160   27.5040   45.0540 H   0  0  0  0  0  0  0  0  0  0  0  0
   42.5660   29.0330   46.0320 H   0  0  0  0  0  0  0  0  0  0  0  0
   43.0910   28.2620   42.1880 C   0  0  0  0  0  3  0  0  0  0  0  0
   42.8100   29.2840   43.0800 C   0  0  0  0  0  0  0  0  0  0  0  0
   41.7950   30.1680   42.8410 C   0  0  0  0  0  0  0  0  0  0  0  0
   41.6420   30.9360   43.5860 H   0  0  0  0  0  0  0  0  0  0  0  0
   41.0310   30.0450   41.6910 C   0  0  0  0  0  0  0  0  0  0  0  0
   39.9950   30.7750   41.2390 N   0  0  0  0  0  0  0  0  0  0  0  0
   39.6200   30.2110   40.0540 C   0  0  0  0  0  0  0  0  0  0  0  0
   38.8040   30.5430   39.3980 H   0  0  0  0  0  0  0  0  0  0  0  0
   40.3880   29.1570   39.7600 N   0  0  0  0  0  0  0  0  0  0  0  0
   41.2740   29.0300   40.7610 C   0  0  0  0  0  0  0  0  0  0  0  0
   42.3220   28.1490   41.0450 C   0  0  0  0  0  3  0  0  0  0  0  0
   39.5620   31.6090   41.6980 H   0  0  0  0  0  0  0  0  0  0  0  0
  1 12  1  0  0  0  0
  2 13  1  0  0  0  0
  2  7  1  0  0  0  0
  3  2  2  0  0  0  0
  4  3  1  0  0  0  0
  4  5  2  0  0  0  0
  5  6  1  0  0  0  0
  6  7  2  0  0  0  0
  6  8  1  0  0  0  0
  8 12  1  0  0  0  0
  8  9  1  0  0  0  0
  9 15  1  0  0  0  0
  9 16  1  0  0  0  0
  9 10  1  0  0  0  0
 10 18  1  0  0  0  0
 10 17  1  0  0  0  0
 11 20  1  0  0  0  0
 11 19  1  0  0  0  0
 11 10  1  0  0  0  0
 12 21  1  6  0  0  0
 12 11  1  0  0  0  0
 14  4  1  0  0  0  0
 22  3  1  0  0  0  0
 23 22  1  0  0  0  0
 24 22  1  0  0  0  0
 25 26  2  0  0  0  0
 26 27  1  0  0  0  0
 27 28  1  0  0  0  0
 27 31  1  1  0  0  0
 27  1  1  0  0  0  0
 28 33  1  0  0  0  0
 29 35  1  0  0  0  0
 29 28  1  0  0  0  0
 30 26  1  0  0  0  0
 30 29  1  0  0  0  0
 32 28  1  0  0  0  0
 34 29  1  0  0  0  0
 36 37  1  0  0  0  0
 37 30  1  0  0  0  0
 38 37  2  0  0  0  0
 38 39  1  0  0  0  0
 40 38  1  0  0  0  0
 41 40  1  0  0  0  0
 41 47  1  0  0  0  0
 42 41  1  0  0  0  0
 43 42  1  0  0  0  0
 44 42  2  0  0  0  0
 44 45  1  0  0  0  0
 45 46  1  0  0  0  0
 45 40  2  0  0  0  0
 46 36  2  0  0  0  0
M  END
>  <minimizedAffinity>
-5.65463209

>  <minimizedRMSD>
0.901373088

$$$$
