
 OpenBabel03252502243D

 37 40  0  0  1  0  0  0  0  0999 V2000
   46.8720   34.6460   42.2740 N   0  0  0  0  0  0  0  0  0  0  0  0
   48.3350   34.6710   42.3550 C   0  0  0  0  0  0  0  0  0  0  0  0
   48.7660   35.4560   41.1210 C   0  0  0  0  0  0  0  0  0  0  0  0
   48.4180   34.7040   39.8750 C   0  0  0  0  0  0  0  0  0  0  0  0
   47.0780   34.0310   39.9110 C   0  0  0  0  0  0  0  0  0  0  0  0
   46.1850   34.4440   41.0430 C   0  0  1  0  0  0  0  0  0  0  0  0
   48.6640   33.6200   42.1890 H   0  0  0  0  0  0  0  0  0  0  0  0
   48.6860   35.1280   43.2770 H   0  0  0  0  0  0  0  0  0  0  0  0
   48.3640   36.4840   41.1290 H   0  0  0  0  0  0  0  0  0  0  0  0
   49.8920   35.4900   41.1870 H   0  0  0  0  0  0  0  0  0  0  0  0
   49.1920   33.9180   39.7220 H   0  0  0  0  0  0  0  0  0  0  0  0
   48.5250   35.4060   39.0050 H   0  0  0  0  0  0  0  0  0  0  0  0
   47.1710   32.9230   39.8800 H   0  0  0  0  0  0  0  0  0  0  0  0
   46.5510   34.3040   38.9660 H   0  0  0  0  0  0  0  0  0  0  0  0
   45.6970   35.4150   40.7590 H   0  0  0  0  0  0  0  0  0  0  0  0
   44.4840   35.9750   44.8120 C   0  0  0  0  0  0  0  0  0  0  0  0
   45.2030   35.9100   43.5940 C   0  0  0  0  0  0  0  0  0  0  0  0
   46.0880   34.8280   43.4500 C   0  0  0  0  0  0  0  0  0  0  0  0
   46.1860   33.9310   44.4840 N   0  0  0  0  0  0  0  0  0  0  0  0
   45.4790   34.0350   45.6260 C   0  0  0  0  0  0  0  0  0  0  0  0
   44.6170   35.0770   45.7850 N   0  0  0  0  0  0  0  0  0  0  0  0
   43.7940   36.7980   44.9520 H   0  0  0  0  0  0  0  0  0  0  0  0
   45.1040   36.6270   42.8060 H   0  0  0  0  0  0  0  0  0  0  0  0
   45.7170   33.2170   46.2980 H   0  0  0  0  0  0  0  0  0  0  0  0
   45.2360   33.4370   41.2160 O   0  0  0  0  0  0  0  0  0  0  0  0
   43.4850   34.6700   40.3840 C   0  0  0  0  0  0  0  0  0  0  0  0
   43.8790   33.5530   41.1280 C   0  0  0  0  0  0  0  0  0  0  0  0
   42.8730   32.7600   41.6450 C   0  0  0  0  0  0  0  0  0  0  0  0
   43.2530   31.9180   42.2080 H   0  0  0  0  0  0  0  0  0  0  0  0
   41.5440   33.0570   41.4370 C   0  0  0  0  0  0  0  0  0  0  0  0
   40.4850   32.3830   41.8750 N   0  0  0  0  0  0  0  0  0  0  0  0
   39.4180   33.0700   41.4110 C   0  0  0  0  0  0  0  0  0  0  0  0
   38.3580   32.8940   41.5180 H   0  0  0  0  0  0  0  0  0  0  0  0
   39.7970   34.1460   40.7000 N   0  0  0  0  0  0  0  0  0  0  0  0
   41.1510   34.1540   40.7060 C   0  0  0  0  0  0  0  0  0  0  0  0
   42.1380   34.9610   40.1790 C   0  0  0  0  0  0  0  0  0  0  0  0
   40.4280   31.5170   42.4480 H   0  0  0  0  0  0  0  0  0  0  0  0
  1  2  1  0  0  0  0
  1 18  1  0  0  0  0
  2  8  1  0  0  0  0
  3  9  1  0  0  0  0
  3 10  1  0  0  0  0
  3  2  1  0  0  0  0
  4  5  1  0  0  0  0
  4  3  1  0  0  0  0
  5  6  1  0  0  0  0
  6 15  1  6  0  0  0
  6 25  1  0  0  0  0
  6  1  1  0  0  0  0
  7  2  1  0  0  0  0
 11  4  1  0  0  0  0
 12  4  1  0  0  0  0
 13  5  1  0  0  0  0
 14  5  1  0  0  0  0
 16 22  1  0  0  0  0
 16 21  1  0  0  0  0
 17 16  2  0  0  0  0
 18 17  1  0  0  0  0
 18 19  2  0  0  0  0
 19 20  1  0  0  0  0
 20 21  2  0  0  0  0
 20 24  1  0  0  0  0
 23 17  1  0  0  0  0
 26 27  1  0  0  0  0
 27 25  1  0  0  0  0
 27 28  2  0  0  0  0
 28 29  1  0  0  0  0
 30 28  1  0  0  0  0
 30 31  1  0  0  0  0
 31 37  1  0  0  0  0
 32 33  1  0  0  0  0
 32 31  1  0  0  0  0
 34 35  1  0  0  0  0
 34 32  2  0  0  0  0
 35 30  2  0  0  0  0
 36 26  2  0  0  0  0
 36 35  1  0  0  0  0
M  END
>  <minimizedAffinity>
-6.49897289

>  <minimizedRMSD>
0.748148382

$$$$
