
 OpenBabel03242519473D

 41 44  0  0  1  0  0  0  0  0999 V2000
   46.5140   32.4710   46.5070 C   0  0  2  0  0  0  0  0  0  0  0  0
   47.0400   32.5340   45.1290 C   0  0  1  0  0  0  0  0  0  0  0  0
   46.6190   31.2630   44.5300 O   0  0  0  0  0  0  0  0  0  0  0  0
   47.1990   30.4430   45.5280 C   0  0  0  0  0  0  0  0  0  0  0  0
   46.4340   30.9750   46.7700 C   0  0  2  0  0  0  0  0  0  0  0  0
   47.1310   32.9810   47.2670 H   0  0  0  0  0  0  0  0  0  0  0  0
   48.1300   32.4840   45.0430 H   0  0  0  0  0  0  0  0  0  0  0  0
   47.1330   29.3960   45.3730 H   0  0  0  0  0  0  0  0  0  0  0  0
   48.2690   30.7650   45.6060 H   0  0  0  0  0  0  0  0  0  0  0  0
   47.0220   30.6210   47.6460 H   0  0  0  0  0  0  0  0  0  0  0  0
   44.8200   35.2090   44.0170 C   0  0  0  0  0  0  0  0  0  0  0  0
   45.4880   35.7700   42.9300 C   0  0  0  0  0  0  0  0  0  0  0  0
   46.7320   35.2250   42.5530 C   0  0  0  0  0  0  0  0  0  0  0  0
   47.2360   34.1640   43.2690 N   0  0  0  0  0  0  0  0  0  0  0  0
   46.5570   33.6510   44.3160 C   0  0  0  0  0  0  0  0  0  0  0  0
   45.3550   34.1580   44.6990 N   0  0  0  0  0  0  0  0  0  0  0  0
   45.0620   36.5940   42.4000 H   0  0  0  0  0  0  0  0  0  0  0  0
   47.2790   35.6360   41.7140 H   0  0  0  0  0  0  0  0  0  0  0  0
   43.5800   35.7040   44.4400 O   0  0  0  0  0  0  0  0  0  0  0  0
   43.0290   36.1440   43.7050 H   0  0  0  0  0  0  0  0  0  0  0  0
   45.1740   32.9930   46.5290 O   0  0  0  0  0  0  0  0  0  0  0  0
   44.8830   32.8520   47.4640 H   0  0  0  0  0  0  0  0  0  0  0  0
   45.1570   30.5150   46.6830 O   0  0  0  0  0  0  0  0  0  0  0  0
   44.9190   29.2290   47.0960 C   0  0  0  0  0  0  0  0  0  0  0  0
   45.5570   28.9550   47.9300 H   0  0  0  0  0  0  0  0  0  0  0  0
   43.8950   29.3580   47.7040 H   0  0  0  0  0  0  0  0  0  0  0  0
   44.6630   28.2250   46.0490 C   0  0  0  0  0  0  0  0  0  0  0  0
   45.4300   28.1740   45.2510 H   0  0  0  0  0  0  0  0  0  0  0  0
   44.5120   27.2250   46.5290 H   0  0  0  0  0  0  0  0  0  0  0  0
   42.0820   28.4470   45.7110 C   0  0  0  0  0  3  0  0  0  0  0  0
   43.4000   28.5570   45.3390 C   0  0  0  0  0  0  0  0  0  0  0  0
   43.5490   29.0750   44.0420 C   0  0  0  0  0  0  0  0  0  0  0  0
   44.5430   29.2110   43.6290 H   0  0  0  0  0  0  0  0  0  0  0  0
   42.5220   29.4440   43.1990 C   0  0  0  0  0  0  0  0  0  0  0  0
   42.4900   29.9460   41.9530 N   0  0  0  0  0  0  0  0  0  0  0  0
   41.2050   30.1200   41.6130 C   0  0  0  0  0  0  0  0  0  0  0  0
   40.8110   30.5090   40.6780 H   0  0  0  0  0  0  0  0  0  0  0  0
   40.4280   29.7230   42.6600 N   0  0  0  0  0  0  0  0  0  0  0  0
   41.2350   29.3020   43.6480 C   0  0  0  0  0  0  0  0  0  0  0  0
   41.0200   28.8000   44.9130 C   0  0  0  0  0  3  0  0  0  0  0  0
   43.3110   30.1580   41.3660 H   0  0  0  0  0  0  0  0  0  0  0  0
  1 21  1  0  0  0  0
  1  5  1  0  0  0  0
  1  6  1  1  0  0  0
  2  7  1  1  0  0  0
  2  1  1  0  0  0  0
  3  2  1  0  0  0  0
  3  4  1  0  0  0  0
  4  9  1  0  0  0  0
  4  5  1  0  0  0  0
  5 10  1  1  0  0  0
  8  4  1  0  0  0  0
 11 19  1  0  0  0  0
 11 16  1  0  0  0  0
 12 11  2  0  0  0  0
 13 12  1  0  0  0  0
 13 14  2  0  0  0  0
 14 15  1  0  0  0  0
 15 16  2  0  0  0  0
 15  2  1  0  0  0  0
 17 12  1  0  0  0  0
 18 13  1  0  0  0  0
 20 19  1  0  0  0  0
 21 22  1  0  0  0  0
 23  5  1  0  0  0  0
 23 24  1  0  0  0  0
 24 26  1  0  0  0  0
 24 25  1  0  0  0  0
 27 29  1  0  0  0  0
 27 24  1  0  0  0  0
 28 27  1  0  0  0  0
 31 30  1  0  0  0  0
 31 27  1  0  0  0  0
 32 31  2  0  0  0  0
 33 32  1  0  0  0  0
 34 39  2  0  0  0  0
 34 32  1  0  0  0  0
 35 34  1  0  0  0  0
 36 35  1  0  0  0  0
 36 38  2  0  0  0  0
 37 36  1  0  0  0  0
 38 39  1  0  0  0  0
 39 40  1  0  0  0  0
 40 30  2  0  0  0  0
 41 35  1  0  0  0  0
M  END
>  <minimizedAffinity>
-5.35326099

>  <minimizedRMSD>
1.4846226

$$$$
