
 OpenBabel03252500513D

 38 41  0  0  0  0  0  0  0  0999 V2000
   44.4550   34.9220   42.0240 C   0  0  0  0  0  0  0  0  0  0  0  0
   45.1450   34.7170   41.0010 O   0  0  0  0  0  0  0  0  0  0  0  0
   44.8860   35.0420   44.4270 C   0  0  0  0  0  0  0  0  0  0  0  0
   44.8830   34.3000   43.2710 C   0  0  0  0  0  0  0  0  0  0  0  0
   45.2840   32.9550   43.2800 C   0  0  0  0  0  0  0  0  0  0  0  0
   45.6760   32.4190   44.4820 N   0  0  0  0  0  0  0  0  0  0  0  0
   45.6720   33.1570   45.5900 C   0  0  0  0  0  0  0  0  0  0  0  0
   45.2830   34.4410   45.5580 N   0  0  0  0  0  0  0  0  0  0  0  0
   44.5780   36.0810   44.4280 H   0  0  0  0  0  0  0  0  0  0  0  0
   45.2880   32.3530   42.3790 H   0  0  0  0  0  0  0  0  0  0  0  0
   46.0900   32.5750   46.8560 C   0  0  0  0  0  0  0  0  0  0  0  0
   47.3160   32.0570   47.0620 C   0  0  0  0  0  0  0  0  0  0  0  0
   47.7200   31.5060   48.2530 C   0  0  0  0  0  0  0  0  0  0  0  0
   46.8140   31.4980   49.2580 N   0  0  0  0  0  0  0  0  0  0  0  0
   45.6140   32.0050   49.0580 C   0  0  0  0  0  0  0  0  0  0  0  0
   45.1880   32.5510   47.9060 N   0  0  0  0  0  0  0  0  0  0  0  0
   48.0510   32.0610   46.2520 H   0  0  0  0  0  0  0  0  0  0  0  0
   48.7170   31.0930   48.3930 H   0  0  0  0  0  0  0  0  0  0  0  0
   44.8750   32.0060   49.8590 H   0  0  0  0  0  0  0  0  0  0  0  0
   43.4030   35.7320   41.6930 O   0  0  0  0  0  0  0  0  0  0  0  0
   42.6040   35.5300   40.5900 C   0  0  0  0  0  0  0  0  0  0  0  0
   42.7410   34.6160   40.0060 H   0  0  0  0  0  0  0  0  0  0  0  0
   42.8900   36.3480   39.8580 H   0  0  0  0  0  0  0  0  0  0  0  0
   41.1270   35.8180   40.8380 C   0  0  0  0  0  0  0  0  0  0  0  0
   41.0450   36.3720   41.7970 H   0  0  0  0  0  0  0  0  0  0  0  0
   40.7600   36.5270   40.0580 H   0  0  0  0  0  0  0  0  0  0  0  0
   39.1790   34.6780   40.0320 C   0  0  0  0  0  0  0  0  0  0  0  0
   40.3050   34.6040   40.8240 C   0  0  0  0  0  0  0  0  0  0  0  0
   40.5840   33.4480   41.5260 C   0  0  0  0  0  0  0  0  0  0  0  0
   41.4630   33.4220   42.1320 H   0  0  0  0  0  0  0  0  0  0  0  0
   39.6840   32.4110   41.3800 C   0  0  0  0  0  0  0  0  0  0  0  0
   39.6720   31.1810   41.9200 N   0  0  0  0  0  0  0  0  0  0  0  0
   38.6110   30.4600   41.5260 C   0  0  0  0  0  0  0  0  0  0  0  0
   38.3280   29.4510   41.7840 H   0  0  0  0  0  0  0  0  0  0  0  0
   37.9280   31.2940   40.6940 N   0  0  0  0  0  0  0  0  0  0  0  0
   38.5550   32.4690   40.5930 C   0  0  0  0  0  0  0  0  0  0  0  0
   38.2870   33.6360   39.8940 C   0  0  0  0  0  0  0  0  0  0  0  0
   40.3820   30.7900   42.5730 H   0  0  0  0  0  0  0  0  0  0  0  0
  1  4  1  0  0  0  0
  2  1  2  0  0  0  0
  3  9  1  0  0  0  0
  3  8  1  0  0  0  0
  4  5  1  0  0  0  0
  4  3  2  0  0  0  0
  5  6  2  0  0  0  0
  6  7  1  0  0  0  0
  7 11  1  0  0  0  0
  8  7  2  0  0  0  0
 10  5  1  0  0  0  0
 11 12  2  0  0  0  0
 11 16  1  0  0  0  0
 12 13  1  0  0  0  0
 13 18  1  0  0  0  0
 13 14  2  0  0  0  0
 15 14  1  0  0  0  0
 15 19  1  0  0  0  0
 16 15  2  0  0  0  0
 17 12  1  0  0  0  0
 20  1  1  0  0  0  0
 21 24  1  0  0  0  0
 21 20  1  0  0  0  0
 22 21  1  0  0  0  0
 23 21  1  0  0  0  0
 24 25  1  0  0  0  0
 26 24  1  0  0  0  0
 27 28  1  0  0  0  0
 28 24  1  0  0  0  0
 28 29  2  0  0  0  0
 29 30  1  0  0  0  0
 31 29  1  0  0  0  0
 31 32  1  0  0  0  0
 32 38  1  0  0  0  0
 33 34  1  0  0  0  0
 33 32  1  0  0  0  0
 35 33  2  0  0  0  0
 36 35  1  0  0  0  0
 36 31  2  0  0  0  0
 37 27  2  0  0  0  0
 37 36  1  0  0  0  0
M  END
>  <minimizedAffinity>
-6.47412968

>  <minimizedRMSD>
1.54916751

$$$$
