
 OpenBabel03252506373D

 47 51  0  0  1  0  0  0  0  0999 V2000
   46.6510   30.0170   46.5110 S   0  0  0  0  0  0  0  0  0  0  0  0
   44.5140   35.5070   45.1340 C   0  0  0  0  0  0  0  0  0  0  0  0
   45.1670   35.5090   43.8840 C   0  0  0  0  0  0  0  0  0  0  0  0
   46.0870   34.5530   43.6180 C   0  0  0  0  0  0  0  0  0  0  0  0
   46.3270   33.6370   44.5890 N   0  0  0  0  0  0  0  0  0  0  0  0
   45.7110   33.6390   45.7610 C   0  0  0  0  0  0  0  0  0  0  0  0
   44.7990   34.5680   46.0540 N   0  0  0  0  0  0  0  0  0  0  0  0
   46.0460   32.6190   46.7180 N   0  0  0  0  0  0  0  0  0  0  0  0
   45.3120   32.3620   47.9020 C   0  0  0  0  0  0  0  0  0  0  0  0
   46.3870   32.0060   48.9110 C   0  0  0  0  0  0  0  0  0  0  0  0
   47.6690   31.9080   48.1370 C   0  0  0  0  0  0  0  0  0  0  0  0
   47.1640   31.7090   46.7090 C   0  0  1  0  0  0  0  0  0  0  0  0
   43.7840   36.2810   45.3250 H   0  0  0  0  0  0  0  0  0  0  0  0
   46.5910   34.5350   42.6810 H   0  0  0  0  0  0  0  0  0  0  0  0
   44.5120   31.7040   48.0000 H   0  0  0  0  0  0  0  0  0  0  0  0
   44.9380   33.3690   48.2710 H   0  0  0  0  0  0  0  0  0  0  0  0
   46.5010   32.7150   49.7290 H   0  0  0  0  0  0  0  0  0  0  0  0
   46.1450   31.0180   49.3920 H   0  0  0  0  0  0  0  0  0  0  0  0
   48.2450   31.0030   48.4390 H   0  0  0  0  0  0  0  0  0  0  0  0
   48.2590   32.8250   48.2550 H   0  0  0  0  0  0  0  0  0  0  0  0
   47.9980   32.0120   46.0520 H   0  0  0  0  0  0  0  0  0  0  0  0
   44.8030   36.5490   42.9600 N   0  0  0  0  0  0  0  0  0  0  0  0
   45.5910   36.8450   42.3520 H   0  0  0  0  0  0  0  0  0  0  0  0
   43.8640   36.9750   42.8890 H   0  0  0  0  0  0  0  0  0  0  0  0
   45.5270   30.5460   43.4170 O   0  0  0  0  0  0  0  0  0  0  0  0
   44.9300   29.9910   44.3530 C   0  0  0  0  0  0  0  0  0  0  0  0
   45.0780   29.7420   45.8070 C   0  0  1  0  0  0  0  0  0  0  0  0
   44.5440   28.3370   45.9410 C   0  0  0  0  0  0  0  0  0  0  0  0
   43.2060   28.5560   45.2270 C   0  0  0  0  0  0  0  0  0  0  0  0
   43.6740   29.3370   44.0890 N   0  0  0  0  0  0  0  0  0  0  0  0
   44.2050   30.3390   46.1950 H   0  0  0  0  0  0  0  0  0  0  0  0
   45.1010   27.6110   45.3200 H   0  0  0  0  0  0  0  0  0  0  0  0
   44.3750   28.0290   46.9780 H   0  0  0  0  0  0  0  0  0  0  0  0
   42.8460   27.5700   44.8980 H   0  0  0  0  0  0  0  0  0  0  0  0
   42.4900   29.1110   45.8540 H   0  0  0  0  0  0  0  0  0  0  0  0
   41.8460   30.3050   42.9470 C   0  0  0  0  0  3  0  0  0  0  0  0
   42.8380   29.3380   42.9100 C   0  0  0  0  0  0  0  0  0  0  0  0
   42.9660   28.4990   41.8390 C   0  0  0  0  0  0  0  0  0  0  0  0
   43.7660   27.7740   41.8890 H   0  0  0  0  0  0  0  0  0  0  0  0
   42.0920   28.6110   40.7680 C   0  0  0  0  0  0  0  0  0  0  0  0
   42.0120   27.9150   39.6190 N   0  0  0  0  0  0  0  0  0  0  0  0
   40.9640   28.4450   38.9260 C   0  0  0  0  0  0  0  0  0  0  0  0
   40.6010   28.1270   37.9390 H   0  0  0  0  0  0  0  0  0  0  0  0
   40.3910   29.4440   39.6080 N   0  0  0  0  0  0  0  0  0  0  0  0
   41.0730   29.5690   40.7570 C   0  0  0  0  0  0  0  0  0  0  0  0
   40.9800   30.4050   41.8730 C   0  0  0  0  0  3  0  0  0  0  0  0
   42.6280   27.1270   39.3140 H   0  0  0  0  0  0  0  0  0  0  0  0
  1 12  1  0  0  0  0
  2 13  1  0  0  0  0
  2  7  1  0  0  0  0
  3  2  2  0  0  0  0
  4  3  1  0  0  0  0
  4  5  2  0  0  0  0
  5  6  1  0  0  0  0
  6  7  2  0  0  0  0
  6  8  1  0  0  0  0
  8  9  1  0  0  0  0
  9 15  1  0  0  0  0
  9 16  1  0  0  0  0
  9 10  1  0  0  0  0
 10 18  1  0  0  0  0
 10 17  1  0  0  0  0
 11 20  1  0  0  0  0
 11 19  1  0  0  0  0
 11 10  1  0  0  0  0
 12 21  1  6  0  0  0
 12  8  1  0  0  0  0
 12 11  1  0  0  0  0
 14  4  1  0  0  0  0
 22  3  1  0  0  0  0
 23 22  1  0  0  0  0
 24 22  1  0  0  0  0
 25 26  2  0  0  0  0
 26 27  1  0  0  0  0
 27 28  1  0  0  0  0
 27 31  1  1  0  0  0
 27  1  1  0  0  0  0
 28 33  1  0  0  0  0
 29 35  1  0  0  0  0
 29 28  1  0  0  0  0
 30 26  1  0  0  0  0
 30 29  1  0  0  0  0
 32 28  1  0  0  0  0
 34 29  1  0  0  0  0
 37 36  1  0  0  0  0
 37 30  1  0  0  0  0
 38 39  1  0  0  0  0
 38 37  2  0  0  0  0
 40 38  1  0  0  0  0
 41 40  1  0  0  0  0
 42 44  2  0  0  0  0
 42 41  1  0  0  0  0
 43 42  1  0  0  0  0
 44 45  1  0  0  0  0
 45 40  2  0  0  0  0
 45 46  1  0  0  0  0
 46 36  2  0  0  0  0
 47 41  1  0  0  0  0
M  END
>  <minimizedAffinity>
-5.48315573

>  <minimizedRMSD>
0.587593973

$$$$
