
 OpenBabel03242519473D

 41 44  0  0  1  0  0  0  0  0999 V2000
   46.6410   32.8930   46.7510 C   0  0  2  0  0  0  0  0  0  0  0  0
   47.0750   32.7730   45.3450 C   0  0  1  0  0  0  0  0  0  0  0  0
   46.6360   31.4300   44.9510 O   0  0  0  0  0  0  0  0  0  0  0  0
   47.2920   30.7560   46.0080 C   0  0  0  0  0  0  0  0  0  0  0  0
   46.6030   31.4450   47.2160 C   0  0  2  0  0  0  0  0  0  0  0  0
   47.2990   33.5050   47.3920 H   0  0  0  0  0  0  0  0  0  0  0  0
   48.1580   32.7190   45.1920 H   0  0  0  0  0  0  0  0  0  0  0  0
   47.2330   29.6970   45.9990 H   0  0  0  0  0  0  0  0  0  0  0  0
   48.3600   31.0930   45.9700 H   0  0  0  0  0  0  0  0  0  0  0  0
   47.2520   31.2160   48.0900 H   0  0  0  0  0  0  0  0  0  0  0  0
   44.7230   35.2270   44.0150 C   0  0  0  0  0  0  0  0  0  0  0  0
   45.3270   35.6680   42.8390 C   0  0  0  0  0  0  0  0  0  0  0  0
   46.5730   35.1160   42.4760 C   0  0  0  0  0  0  0  0  0  0  0  0
   47.1410   34.1670   43.2920 N   0  0  0  0  0  0  0  0  0  0  0  0
   46.5220   33.7670   44.4230 C   0  0  0  0  0  0  0  0  0  0  0  0
   45.3210   34.2830   44.7950 N   0  0  0  0  0  0  0  0  0  0  0  0
   44.8520   36.4080   42.2320 H   0  0  0  0  0  0  0  0  0  0  0  0
   47.0710   35.4360   41.5690 H   0  0  0  0  0  0  0  0  0  0  0  0
   43.4860   35.7350   44.4290 O   0  0  0  0  0  0  0  0  0  0  0  0
   42.8900   36.0650   43.6710 H   0  0  0  0  0  0  0  0  0  0  0  0
   45.2980   33.4040   46.7930 O   0  0  0  0  0  0  0  0  0  0  0  0
   45.0710   33.3870   47.7550 H   0  0  0  0  0  0  0  0  0  0  0  0
   45.3300   30.9690   47.2780 O   0  0  0  0  0  0  0  0  0  0  0  0
   45.0960   29.8970   48.1010 C   0  0  0  0  0  0  0  0  0  0  0  0
   45.3190   30.1350   49.1360 H   0  0  0  0  0  0  0  0  0  0  0  0
   43.9000   29.9140   48.1800 H   0  0  0  0  0  0  0  0  0  0  0  0
   45.4650   28.5660   47.5910 C   0  0  0  0  0  0  0  0  0  0  0  0
   46.2900   28.5600   46.8510 H   0  0  0  0  0  0  0  0  0  0  0  0
   45.6930   27.8920   48.4550 H   0  0  0  0  0  0  0  0  0  0  0  0
   43.7330   26.7230   46.9370 C   0  0  0  0  0  3  0  0  0  0  0  0
   44.3080   27.9690   46.8720 C   0  0  0  0  0  0  0  0  0  0  0  0
   43.6710   28.8080   45.9430 C   0  0  0  0  0  0  0  0  0  0  0  0
   44.0310   29.8210   45.7990 H   0  0  0  0  0  0  0  0  0  0  0  0
   42.5880   28.4660   45.1600 C   0  0  0  0  0  0  0  0  0  0  0  0
   41.8710   29.1320   44.2400 N   0  0  0  0  0  0  0  0  0  0  0  0
   40.9160   28.3080   43.7860 C   0  0  0  0  0  0  0  0  0  0  0  0
   40.1600   28.5170   43.0370 H   0  0  0  0  0  0  0  0  0  0  0  0
   41.0410   27.1140   44.4320 N   0  0  0  0  0  0  0  0  0  0  0  0
   42.0730   27.2010   45.2860 C   0  0  0  0  0  0  0  0  0  0  0  0
   42.6550   26.3290   46.1810 C   0  0  0  0  0  3  0  0  0  0  0  0
   42.0310   30.1050   43.9400 H   0  0  0  0  0  0  0  0  0  0  0  0
  1 21  1  0  0  0  0
  1  5  1  0  0  0  0
  1  6  1  1  0  0  0
  2  7  1  6  0  0  0
  2  1  1  0  0  0  0
  3  2  1  0  0  0  0
  3  4  1  0  0  0  0
  4  5  1  0  0  0  0
  5 23  1  0  0  0  0
  5 10  1  1  0  0  0
  8  4  1  0  0  0  0
  9  4  1  0  0  0  0
 11 19  1  0  0  0  0
 11 16  1  0  0  0  0
 12 11  2  0  0  0  0
 13 12  1  0  0  0  0
 13 14  2  0  0  0  0
 14 15  1  0  0  0  0
 15 16  2  0  0  0  0
 15  2  1  0  0  0  0
 17 12  1  0  0  0  0
 18 13  1  0  0  0  0
 20 19  1  0  0  0  0
 21 22  1  0  0  0  0
 23 24  1  0  0  0  0
 24 26  1  0  0  0  0
 24 25  1  0  0  0  0
 27 24  1  0  0  0  0
 27 29  1  0  0  0  0
 28 27  1  0  0  0  0
 31 30  1  0  0  0  0
 31 27  1  0  0  0  0
 32 31  2  0  0  0  0
 33 32  1  0  0  0  0
 34 39  2  0  0  0  0
 34 32  1  0  0  0  0
 35 34  1  0  0  0  0
 36 35  1  0  0  0  0
 36 38  2  0  0  0  0
 37 36  1  0  0  0  0
 38 39  1  0  0  0  0
 39 40  1  0  0  0  0
 40 30  2  0  0  0  0
 41 35  1  0  0  0  0
M  END
>  <minimizedAffinity>
-6.05602407

>  <minimizedRMSD>
0.612207234

$$$$
