
 OpenBabel03252508593D

 48 51  0  0  1  0  0  0  0  0999 V2000
   47.1900   34.1290   43.0780 N   0  0  0  0  0  0  0  0  0  0  0  0
   46.6760   35.3210   42.5070 C   0  0  0  0  0  0  0  0  0  0  0  0
   45.2080   35.5720   42.7390 C   0  0  0  0  0  0  0  0  0  0  0  0
   44.6850   35.0490   44.0510 C   0  0  0  0  0  0  0  0  0  0  0  0
   45.7910   34.4740   44.9040 C   0  0  0  0  0  0  0  0  0  0  0  0
   46.4340   33.3840   43.9700 C   0  0  2  0  0  0  0  0  0  0  0  0
   46.8700   35.4720   41.4440 H   0  0  0  0  0  0  0  0  0  0  0  0
   47.2090   36.1700   43.0310 H   0  0  0  0  0  0  0  0  0  0  0  0
   45.0360   36.6830   42.6570 H   0  0  0  0  0  0  0  0  0  0  0  0
   44.6340   35.1180   41.8970 H   0  0  0  0  0  0  0  0  0  0  0  0
   44.2270   35.8790   44.6310 H   0  0  0  0  0  0  0  0  0  0  0  0
   43.9310   34.2690   43.8870 H   0  0  0  0  0  0  0  0  0  0  0  0
   45.3620   33.9460   45.7610 H   0  0  0  0  0  0  0  0  0  0  0  0
   46.5700   35.1980   45.1510 H   0  0  0  0  0  0  0  0  0  0  0  0
   45.5900   32.7770   43.5650 H   0  0  0  0  0  0  0  0  0  0  0  0
   48.1550   33.4560   42.2600 C   0  0  0  0  0  0  0  0  0  0  0  0
   48.7280   32.7310   42.8930 H   0  0  0  0  0  0  0  0  0  0  0  0
   48.8650   34.1740   41.8440 H   0  0  0  0  0  0  0  0  0  0  0  0
   47.4310   32.6350   41.2350 C   0  0  0  0  0  0  0  0  0  0  0  0
   46.3580   32.9250   41.1900 H   0  0  0  0  0  0  0  0  0  0  0  0
   47.4600   31.5450   41.4180 H   0  0  0  0  0  0  0  0  0  0  0  0
   49.3470   32.2720   38.0250 C   0  0  0  0  0  0  0  0  0  0  0  0
   48.8120   32.0080   39.2990 C   0  0  0  0  0  0  0  0  0  0  0  0
   47.9870   32.9320   39.8890 C   0  0  0  0  0  0  0  0  0  0  0  0
   47.7280   34.0570   39.2110 N   0  0  0  0  0  0  0  0  0  0  0  0
   48.2380   34.3120   37.9950 C   0  0  0  0  0  0  0  0  0  0  0  0
   49.0480   33.4290   37.3910 N   0  0  0  0  0  0  0  0  0  0  0  0
   50.0000   31.5800   37.5160 H   0  0  0  0  0  0  0  0  0  0  0  0
   49.0600   31.0920   39.7810 H   0  0  0  0  0  0  0  0  0  0  0  0
   47.9580   35.2570   37.5450 H   0  0  0  0  0  0  0  0  0  0  0  0
   47.2350   32.6910   44.8690 O   0  0  0  0  0  0  0  0  0  0  0  0
   46.1620   30.4520   43.9370 O   0  0  0  0  0  0  0  0  0  0  0  0
   46.6560   31.1420   45.1930 P   0  0  2  0  0  0  0  0  0  0  0  0
   45.2620   31.3540   46.1660 O   0  0  0  0  0  0  0  0  0  0  0  0
   45.5080   31.2370   47.1170 H   0  0  0  0  0  0  0  0  0  0  0  0
   47.7640   30.2450   46.0550 O   0  0  0  0  0  0  0  0  0  0  0  0
   46.8270   28.3940   47.1810 C   0  0  0  0  0  3  0  0  0  0  0  0
   47.7630   28.8950   46.2700 C   0  0  0  0  0  0  0  0  0  0  0  0
   48.6150   28.0020   45.6500 C   0  0  0  0  0  0  0  0  0  0  0  0
   49.3470   28.3830   44.9360 H   0  0  0  0  0  0  0  0  0  0  0  0
   48.5200   26.6370   45.9480 C   0  0  0  0  0  0  0  0  0  0  0  0
   49.2380   25.5850   45.4730 N   0  0  0  0  0  0  0  0  0  0  0  0
   48.8030   24.4420   46.0410 C   0  0  0  0  0  0  0  0  0  0  0  0
   49.2100   23.4610   45.8330 H   0  0  0  0  0  0  0  0  0  0  0  0
   47.8010   24.7900   46.8790 N   0  0  0  0  0  0  0  0  0  0  0  0
   47.6030   26.1310   46.8450 C   0  0  0  0  0  0  0  0  0  0  0  0
   46.7580   27.0340   47.4570 C   0  0  0  0  0  3  0  0  0  0  0  0
   50.0050   25.6920   44.7740 H   0  0  0  0  0  0  0  0  0  0  0  0
  1  6  1  0  0  0  0
  2  3  1  0  0  0  0
  2  8  1  0  0  0  0
  2  1  1  0  0  0  0
  3  4  1  0  0  0  0
  4 11  1  0  0  0  0
  4  5  1  0  0  0  0
  5 14  1  0  0  0  0
  5 13  1  0  0  0  0
  6 15  1  6  0  0  0
  6 31  1  0  0  0  0
  6  5  1  0  0  0  0
  7  2  1  0  0  0  0
  9  3  1  0  0  0  0
 10  3  1  0  0  0  0
 12  4  1  0  0  0  0
 16 17  1  0  0  0  0
 16  1  1  0  0  0  0
 18 16  1  0  0  0  0
 19 21  1  0  0  0  0
 19 16  1  0  0  0  0
 20 19  1  0  0  0  0
 22 23  1  0  0  0  0
 23 29  1  0  0  0  0
 23 24  2  0  0  0  0
 24 19  1  0  0  0  0
 25 24  1  0  0  0  0
 26 25  2  0  0  0  0
 27 26  1  0  0  0  0
 27 22  2  0  0  0  0
 28 22  1  0  0  0  0
 30 26  1  0  0  0  0
 31 33  1  0  0  0  0
 33 32  2  6  0  0  0
 33 36  1  0  0  0  0
 33 34  1  0  0  0  0
 34 35  1  0  0  0  0
 36 38  1  0  0  0  0
 37 47  1  0  0  0  0
 38 37  2  0  0  0  0
 39 41  2  0  0  0  0
 39 38  1  0  0  0  0
 40 39  1  0  0  0  0
 41 46  1  0  0  0  0
 42 41  1  0  0  0  0
 42 43  1  0  0  0  0
 43 45  2  0  0  0  0
 44 43  1  0  0  0  0
 46 45  1  0  0  0  0
 46 47  2  0  0  0  0
 48 42  1  0  0  0  0
M  END
>  <minimizedAffinity>
-3.99476647

>  <minimizedRMSD>
0.47759521

$$$$
