
 OpenBabel03252509043D

 51 54  0  0  1  0  0  0  0  0999 V2000
   47.1500   34.1600   43.0740 N   0  0  0  0  0  0  0  0  0  0  0  0
   46.6530   35.3510   42.5020 C   0  0  0  0  0  0  0  0  0  0  0  0
   45.1620   35.5610   42.6930 C   0  0  0  0  0  0  0  0  0  0  0  0
   44.6450   35.0730   44.0190 C   0  0  0  0  0  0  0  0  0  0  0  0
   45.7500   34.5110   44.8820 C   0  0  0  0  0  0  0  0  0  0  0  0
   46.4200   33.4140   43.9650 C   0  0  2  0  0  0  0  0  0  0  0  0
   46.8460   35.5000   41.4350 H   0  0  0  0  0  0  0  0  0  0  0  0
   47.1500   36.2250   43.0110 H   0  0  0  0  0  0  0  0  0  0  0  0
   44.5760   35.0670   41.8760 H   0  0  0  0  0  0  0  0  0  0  0  0
   44.9270   36.6440   42.6000 H   0  0  0  0  0  0  0  0  0  0  0  0
   44.1660   35.9050   44.6120 H   0  0  0  0  0  0  0  0  0  0  0  0
   43.8590   34.2970   43.9220 H   0  0  0  0  0  0  0  0  0  0  0  0
   46.4980   35.2620   45.1680 H   0  0  0  0  0  0  0  0  0  0  0  0
   45.3110   33.9430   45.7170 H   0  0  0  0  0  0  0  0  0  0  0  0
   45.5850   32.8040   43.5730 H   0  0  0  0  0  0  0  0  0  0  0  0
   48.1610   33.5010   42.2820 C   0  0  0  0  0  0  0  0  0  0  0  0
   48.7160   34.3080   41.7570 H   0  0  0  0  0  0  0  0  0  0  0  0
   48.9350   32.9740   42.8890 H   0  0  0  0  0  0  0  0  0  0  0  0
   47.4650   32.6320   41.2850 C   0  0  0  0  0  0  0  0  0  0  0  0
   47.5710   31.5770   41.5360 H   0  0  0  0  0  0  0  0  0  0  0  0
   46.3660   32.8500   41.2340 H   0  0  0  0  0  0  0  0  0  0  0  0
   49.3540   32.2110   38.0650 C   0  0  0  0  0  0  0  0  0  0  0  0
   48.8290   31.9650   39.3480 C   0  0  0  0  0  0  0  0  0  0  0  0
   48.0130   32.9040   39.9310 C   0  0  0  0  0  0  0  0  0  0  0  0
   47.7570   34.0170   39.2390 N   0  0  0  0  0  0  0  0  0  0  0  0
   48.2580   34.2470   38.0190 C   0  0  0  0  0  0  0  0  0  0  0  0
   49.0560   33.3630   37.4150 N   0  0  0  0  0  0  0  0  0  0  0  0
   49.9990   31.4800   37.5940 H   0  0  0  0  0  0  0  0  0  0  0  0
   49.0940   31.0330   39.8300 H   0  0  0  0  0  0  0  0  0  0  0  0
   47.9500   35.2000   37.6010 H   0  0  0  0  0  0  0  0  0  0  0  0
   47.2020   32.7430   44.8850 O   0  0  0  0  0  0  0  0  0  0  0  0
   46.0190   30.5580   43.9210 O   0  0  0  0  0  0  0  0  0  0  0  0
   46.6610   31.1690   45.1640 P   0  0  2  0  0  0  0  0  0  0  0  0
   45.3730   31.3210   46.2890 O   0  0  0  0  0  0  0  0  0  0  0  0
   44.6610   30.6840   46.1040 H   0  0  0  0  0  0  0  0  0  0  0  0
   47.8030   30.1810   45.8440 O   0  0  0  0  0  0  0  0  0  0  0  0
   47.6970   28.9150   45.2920 C   0  0  0  0  0  0  0  0  0  0  0  0
   46.7010   28.5240   45.5500 H   0  0  0  0  0  0  0  0  0  0  0  0
   47.8700   28.8830   44.2130 H   0  0  0  0  0  0  0  0  0  0  0  0
   50.0330   27.9590   45.4460 C   0  0  0  0  0  3  0  0  0  0  0  0
   48.7540   28.0740   45.9560 C   0  0  0  0  0  0  0  0  0  0  0  0
   48.3830   27.4040   47.1210 C   0  0  0  0  0  0  0  0  0  0  0  0
   47.3660   27.4970   47.5220 H   0  0  0  0  0  0  0  0  0  0  0  0
   49.3050   26.6200   47.7750 C   0  0  0  0  0  0  0  0  0  0  0  0
   49.1460   25.8980   48.9040 N   0  0  0  0  0  0  0  0  0  0  0  0
   50.3290   25.2960   49.1540 C   0  0  0  0  0  0  0  0  0  0  0  0
   50.5490   24.6440   49.9830 H   0  0  0  0  0  0  0  0  0  0  0  0
   51.2010   25.6570   48.1700 N   0  0  0  0  0  0  0  0  0  0  0  0
   50.5950   26.4790   47.2980 C   0  0  0  0  0  0  0  0  0  0  0  0
   50.9440   27.1530   46.1370 C   0  0  0  0  0  3  0  0  0  0  0  0
   48.3130   25.7650   49.5340 H   0  0  0  0  0  0  0  0  0  0  0  0
  1  6  1  0  0  0  0
  2  3  1  0  0  0  0
  2  8  1  0  0  0  0
  2  1  1  0  0  0  0
  3  4  1  0  0  0  0
  4 11  1  0  0  0  0
  4  5  1  0  0  0  0
  5 13  1  0  0  0  0
  5 14  1  0  0  0  0
  6 15  1  6  0  0  0
  6  5  1  0  0  0  0
  6 31  1  0  0  0  0
  7  2  1  0  0  0  0
  9  3  1  0  0  0  0
 10  3  1  0  0  0  0
 12  4  1  0  0  0  0
 16 18  1  0  0  0  0
 16  1  1  0  0  0  0
 17 16  1  0  0  0  0
 19 20  1  0  0  0  0
 19 16  1  0  0  0  0
 21 19  1  0  0  0  0
 22 23  1  0  0  0  0
 23 29  1  0  0  0  0
 23 24  2  0  0  0  0
 24 19  1  0  0  0  0
 25 24  1  0  0  0  0
 26 25  2  0  0  0  0
 27 26  1  0  0  0  0
 27 22  2  0  0  0  0
 28 22  1  0  0  0  0
 30 26  1  0  0  0  0
 31 33  1  0  0  0  0
 33 32  2  6  0  0  0
 33 36  1  0  0  0  0
 33 34  1  0  0  0  0
 35 34  1  0  0  0  0
 37 38  1  0  0  0  0
 37 36  1  0  0  0  0
 37 41  1  0  0  0  0
 39 37  1  0  0  0  0
 40 41  2  0  0  0  0
 40 50  1  0  0  0  0
 41 42  1  0  0  0  0
 42 43  1  0  0  0  0
 42 44  2  0  0  0  0
 44 45  1  0  0  0  0
 45 46  1  0  0  0  0
 45 51  1  0  0  0  0
 46 47  1  0  0  0  0
 48 46  2  0  0  0  0
 49 44  1  0  0  0  0
 49 48  1  0  0  0  0
 50 49  2  0  0  0  0
M  END
>  <minimizedAffinity>
-3.90988088

>  <minimizedRMSD>
0.109030522

$$$$
