
 OpenBabel03252509293D

 24 26  0  0  0  0  0  0  0  0999 V2000
   47.1970   34.9450   41.9330 C   0  0  0  0  0  0  0  0  0  0  0  0
   47.5550   35.9440   41.6450 H   0  0  0  0  0  0  0  0  0  0  0  0
   48.1100   34.3680   42.1980 H   0  0  0  0  0  0  0  0  0  0  0  0
   47.4240   33.9100   39.7150 C   0  0  0  0  0  3  0  0  0  0  0  0
   46.5930   34.2590   40.7590 C   0  0  0  0  0  0  0  0  0  0  0  0
   45.2440   33.9730   40.7010 C   0  0  0  0  0  0  0  0  0  0  0  0
   44.5750   34.2450   41.5220 H   0  0  0  0  0  0  0  0  0  0  0  0
   44.7030   33.3340   39.6000 C   0  0  0  0  0  0  0  0  0  0  0  0
   43.4450   32.9340   39.2690 N   0  0  0  0  0  0  0  0  0  0  0  0
   43.5500   32.3550   38.0380 C   0  0  0  0  0  0  0  0  0  0  0  0
   42.7050   31.9340   37.5060 H   0  0  0  0  0  0  0  0  0  0  0  0
   44.8330   32.3930   37.6140 N   0  0  0  0  0  0  0  0  0  0  0  0
   45.5440   32.9980   38.5800 C   0  0  0  0  0  0  0  0  0  0  0  0
   46.9080   33.2660   38.5940 C   0  0  0  0  0  3  0  0  0  0  0  0
   42.5860   33.0540   39.8540 H   0  0  0  0  0  0  0  0  0  0  0  0
   44.6250   36.1080   44.3540 C   0  0  0  0  0  0  0  0  0  0  0  0
   45.4690   36.0560   43.2230 C   0  0  0  0  0  0  0  0  0  0  0  0
   46.3330   34.9810   43.1100 C   0  0  0  0  0  0  0  0  0  0  0  0
   46.3340   34.0270   44.0860 N   0  0  0  0  0  0  0  0  0  0  0  0
   45.5110   34.1140   45.1530 C   0  0  0  0  0  0  0  0  0  0  0  0
   44.6670   35.1390   45.2900 N   0  0  0  0  0  0  0  0  0  0  0  0
   43.9320   36.9270   44.4900 H   0  0  0  0  0  0  0  0  0  0  0  0
   45.3880   36.8580   42.5160 H   0  0  0  0  0  0  0  0  0  0  0  0
   45.5560   33.3150   45.9080 H   0  0  0  0  0  0  0  0  0  0  0  0
  1  3  1  0  0  0  0
  1 18  1  0  0  0  0
  2  1  1  0  0  0  0
  4  5  1  0  0  0  0
  5  1  1  0  0  0  0
  6  5  2  0  0  0  0
  6  7  1  0  0  0  0
  8  6  1  0  0  0  0
  9  8  1  0  0  0  0
  9 15  1  0  0  0  0
 10  9  1  0  0  0  0
 11 10  1  0  0  0  0
 12 10  2  0  0  0  0
 12 13  1  0  0  0  0
 13 14  1  0  0  0  0
 13  8  2  0  0  0  0
 14  4  2  0  0  0  0
 16 22  1  0  0  0  0
 16 21  1  0  0  0  0
 17 16  2  0  0  0  0
 18 17  1  0  0  0  0
 18 19  2  0  0  0  0
 19 20  1  0  0  0  0
 20 21  2  0  0  0  0
 20 24  1  0  0  0  0
 23 17  1  0  0  0  0
M  END
>  <minimizedAffinity>
-4.51149607

>  <minimizedRMSD>
0.759978473

$$$$
