
 OpenBabel03252503363D

 25 27  0  0  0  0  0  0  0  0999 V2000
   37.5980   28.7690   41.5500 C   0  0  0  0  0  0  0  0  0  0  0  0
   36.9110   28.3780   42.5330 O   0  0  0  0  0  0  0  0  0  0  0  0
   38.2310   27.7140   40.8440 N   0  0  0  0  0  0  0  0  0  0  0  0
   38.8840   27.9010   40.0530 H   0  0  0  0  0  0  0  0  0  0  0  0
   36.7680   30.9280   40.5520 C   0  0  0  0  0  3  0  0  0  0  0  0
   37.7500   30.1630   41.1470 C   0  0  0  0  0  0  0  0  0  0  0  0
   38.9730   30.7730   41.3780 C   0  0  0  0  0  0  0  0  0  0  0  0
   39.8350   30.3030   41.8360 H   0  0  0  0  0  0  0  0  0  0  0  0
   39.2050   32.1030   41.0250 C   0  0  0  0  0  0  0  0  0  0  0  0
   40.2200   32.9740   41.0980 N   0  0  0  0  0  0  0  0  0  0  0  0
   39.8530   34.1590   40.5810 C   0  0  0  0  0  0  0  0  0  0  0  0
   40.4310   35.0760   40.4860 H   0  0  0  0  0  0  0  0  0  0  0  0
   38.5700   34.0960   40.1500 N   0  0  0  0  0  0  0  0  0  0  0  0
   38.1950   32.8340   40.4310 C   0  0  0  0  0  0  0  0  0  0  0  0
   36.9750   32.2400   40.1970 C   0  0  0  0  0  3  0  0  0  0  0  0
   41.1600   32.7430   41.5040 H   0  0  0  0  0  0  0  0  0  0  0  0
   36.7980   24.2860   40.8940 C   0  0  0  0  0  0  0  0  0  0  0  0
   36.9800   25.6440   40.5510 C   0  0  0  0  0  0  0  0  0  0  0  0
   38.0190   26.3470   41.1660 C   0  0  0  0  0  0  0  0  0  0  0  0
   38.8090   25.7180   42.0590 N   0  0  0  0  0  0  0  0  0  0  0  0
   38.6070   24.3990   42.3710 C   0  0  0  0  0  0  0  0  0  0  0  0
   37.6110   23.7140   41.7850 N   0  0  0  0  0  0  0  0  0  0  0  0
   36.0040   23.7130   40.4370 H   0  0  0  0  0  0  0  0  0  0  0  0
   36.3120   26.0980   39.8240 H   0  0  0  0  0  0  0  0  0  0  0  0
   39.2990   23.9980   43.0970 H   0  0  0  0  0  0  0  0  0  0  0  0
  1  2  2  0  0  0  0
  3 19  1  0  0  0  0
  3  1  1  0  0  0  0
  4  3  1  0  0  0  0
  5  6  1  0  0  0  0
  6  7  2  0  0  0  0
  6  1  1  0  0  0  0
  7  8  1  0  0  0  0
  9 10  1  0  0  0  0
  9  7  1  0  0  0  0
 10 16  1  0  0  0  0
 11 10  1  0  0  0  0
 12 11  1  0  0  0  0
 13 14  1  0  0  0  0
 13 11  2  0  0  0  0
 14  9  2  0  0  0  0
 15 14  1  0  0  0  0
 15  5  2  0  0  0  0
 17 22  1  0  0  0  0
 18 17  2  0  0  0  0
 18 19  1  0  0  0  0
 19 20  2  0  0  0  0
 20 21  1  0  0  0  0
 21 25  1  0  0  0  0
 22 21  2  0  0  0  0
 23 17  1  0  0  0  0
 24 18  1  0  0  0  0
M  END
>  <minimizedAffinity>
-4.87553596

$$$$

 OpenBabel03252503363D

 25 27  0  0  0  0  0  0  0  0999 V2000
   37.5040   29.1980   41.2590 C   0  0  0  0  0  0  0  0  0  0  0  0
   36.8910   29.9290   42.0850 O   0  0  0  0  0  0  0  0  0  0  0  0
   38.1350   29.9240   40.2170 N   0  0  0  0  0  0  0  0  0  0  0  0
   38.6170   29.4400   39.4300 H   0  0  0  0  0  0  0  0  0  0  0  0
   37.0020   26.9710   42.3250 C   0  0  0  0  0  3  0  0  0  0  0  0
   37.5780   27.7430   41.3380 C   0  0  0  0  0  0  0  0  0  0  0  0
   38.2810   27.0780   40.3450 C   0  0  0  0  0  0  0  0  0  0  0  0
   38.7850   27.5450   39.5080 H   0  0  0  0  0  0  0  0  0  0  0  0
   38.4020   25.6880   40.3420 C   0  0  0  0  0  0  0  0  0  0  0  0
   38.9820   24.7550   39.5740 N   0  0  0  0  0  0  0  0  0  0  0  0
   38.7570   23.5310   40.0800 C   0  0  0  0  0  0  0  0  0  0  0  0
   39.0830   22.5620   39.7060 H   0  0  0  0  0  0  0  0  0  0  0  0
   38.0150   23.6280   41.2090 N   0  0  0  0  0  0  0  0  0  0  0  0
   37.8090   24.9510   41.3490 C   0  0  0  0  0  0  0  0  0  0  0  0
   37.1080   25.6000   42.3410 C   0  0  0  0  0  3  0  0  0  0  0  0
   39.5280   24.9720   38.7040 H   0  0  0  0  0  0  0  0  0  0  0  0
   37.2070   33.4380   39.4500 C   0  0  0  0  0  0  0  0  0  0  0  0
   37.1610   32.0280   39.4660 C   0  0  0  0  0  0  0  0  0  0  0  0
   38.1510   31.3430   40.1790 C   0  0  0  0  0  0  0  0  0  0  0  0
   39.1090   32.0400   40.8210 N   0  0  0  0  0  0  0  0  0  0  0  0
   39.1250   33.4110   40.7860 C   0  0  0  0  0  0  0  0  0  0  0  0
   38.1800   34.0780   40.1040 N   0  0  0  0  0  0  0  0  0  0  0  0
   36.4580   33.9990   38.9090 H   0  0  0  0  0  0  0  0  0  0  0  0
   36.3650   31.5190   38.9300 H   0  0  0  0  0  0  0  0  0  0  0  0
   39.9370   33.8650   41.3350 H   0  0  0  0  0  0  0  0  0  0  0  0
  1  6  1  0  0  0  0
  1  2  2  0  0  0  0
  3  1  1  0  0  0  0
  4  3  1  0  0  0  0
  5 15  1  0  0  0  0
  6  5  2  0  0  0  0
  7  6  1  0  0  0  0
  8  7  1  0  0  0  0
  9  7  2  0  0  0  0
  9 14  1  0  0  0  0
 10 11  1  0  0  0  0
 10  9  1  0  0  0  0
 11 13  2  0  0  0  0
 12 11  1  0  0  0  0
 13 14  1  0  0  0  0
 14 15  2  0  0  0  0
 16 10  1  0  0  0  0
 17 18  2  0  0  0  0
 17 22  1  0  0  0  0
 18 19  1  0  0  0  0
 19  3  1  0  0  0  0
 19 20  2  0  0  0  0
 21 20  1  0  0  0  0
 21 25  1  0  0  0  0
 22 21  2  0  0  0  0
 23 17  1  0  0  0  0
 24 18  1  0  0  0  0
M  END
>  <minimizedAffinity>
-4.67825127

$$$$

 OpenBabel03252503363D

 25 27  0  0  0  0  0  0  0  0999 V2000
   33.5730   28.8900   37.4630 C   0  0  0  0  0  0  0  0  0  0  0  0
   33.7650   29.0660   36.2290 O   0  0  0  0  0  0  0  0  0  0  0  0
   32.2420   29.1580   37.8740 N   0  0  0  0  0  0  0  0  0  0  0  0
   31.9640   29.1200   38.8790 H   0  0  0  0  0  0  0  0  0  0  0  0
   35.4570   27.3940   38.2100 C   0  0  0  0  0  3  0  0  0  0  0  0
   34.5970   28.4540   38.4070 C   0  0  0  0  0  0  0  0  0  0  0  0
   34.7210   29.1560   39.5960 C   0  0  0  0  0  0  0  0  0  0  0  0
   34.1200   30.0080   39.8910 H   0  0  0  0  0  0  0  0  0  0  0  0
   35.6730   28.8070   40.5540 C   0  0  0  0  0  0  0  0  0  0  0  0
   36.0560   29.2450   41.7620 N   0  0  0  0  0  0  0  0  0  0  0  0
   37.0640   28.4920   42.2300 C   0  0  0  0  0  0  0  0  0  0  0  0
   37.6040   28.5750   43.1720 H   0  0  0  0  0  0  0  0  0  0  0  0
   37.3750   27.5270   41.3320 N   0  0  0  0  0  0  0  0  0  0  0  0
   36.5160   27.7380   40.3180 C   0  0  0  0  0  0  0  0  0  0  0  0
   36.4030   27.0330   39.1410 C   0  0  0  0  0  3  0  0  0  0  0  0
   35.6160   30.0620   42.2530 H   0  0  0  0  0  0  0  0  0  0  0  0
   29.8080   31.1260   35.8740 C   0  0  0  0  0  0  0  0  0  0  0  0
   30.8340   30.8290   36.7980 C   0  0  0  0  0  0  0  0  0  0  0  0
   31.2130   29.4930   36.9550 C   0  0  0  0  0  0  0  0  0  0  0  0
   30.5970   28.5370   36.2320 N   0  0  0  0  0  0  0  0  0  0  0  0
   29.6040   28.8580   35.3430 C   0  0  0  0  0  0  0  0  0  0  0  0
   29.2310   30.1390   35.1830 N   0  0  0  0  0  0  0  0  0  0  0  0
   29.4900   32.1480   35.7280 H   0  0  0  0  0  0  0  0  0  0  0  0
   31.2950   31.6410   37.3540 H   0  0  0  0  0  0  0  0  0  0  0  0
   29.1810   28.0140   34.8170 H   0  0  0  0  0  0  0  0  0  0  0  0
  1  3  1  0  0  0  0
  1  6  1  0  0  0  0
  2  1  2  0  0  0  0
  3  4  1  0  0  0  0
  5  6  2  0  0  0  0
  5 15  1  0  0  0  0
  6  7  1  0  0  0  0
  7  8  1  0  0  0  0
  7  9  2  0  0  0  0
  9 10  1  0  0  0  0
 10 11  1  0  0  0  0
 10 16  1  0  0  0  0
 11 12  1  0  0  0  0
 13 11  2  0  0  0  0
 14  9  1  0  0  0  0
 14 13  1  0  0  0  0
 15 14  2  0  0  0  0
 17 18  1  0  0  0  0
 18 19  2  0  0  0  0
 18 24  1  0  0  0  0
 19  3  1  0  0  0  0
 20 19  1  0  0  0  0
 21 20  2  0  0  0  0
 22 21  1  0  0  0  0
 22 17  2  0  0  0  0
 23 17  1  0  0  0  0
 25 21  1  0  0  0  0
M  END
>  <minimizedAffinity>
-4.54898071

$$$$

 OpenBabel03252503363D

 25 27  0  0  0  0  0  0  0  0999 V2000
   35.1900   28.4440   38.2250 C   0  0  0  0  0  0  0  0  0  0  0  0
   35.7270   29.0360   37.2490 O   0  0  0  0  0  0  0  0  0  0  0  0
   33.8130   28.1660   38.0320 N   0  0  0  0  0  0  0  0  0  0  0  0
   33.2320   27.7430   38.7880 H   0  0  0  0  0  0  0  0  0  0  0  0
   36.5060   26.8540   39.6690 C   0  0  0  0  0  3  0  0  0  0  0  0
   35.8880   28.0670   39.4490 C   0  0  0  0  0  0  0  0  0  0  0  0
   35.9380   28.9970   40.4770 C   0  0  0  0  0  0  0  0  0  0  0  0
   35.5020   29.9880   40.4520 H   0  0  0  0  0  0  0  0  0  0  0  0
   36.5840   28.7190   41.6820 C   0  0  0  0  0  0  0  0  0  0  0  0
   36.8170   29.3540   42.8390 N   0  0  0  0  0  0  0  0  0  0  0  0
   37.5190   28.5650   43.6690 C   0  0  0  0  0  0  0  0  0  0  0  0
   37.8730   28.7700   44.6780 H   0  0  0  0  0  0  0  0  0  0  0  0
   37.7690   27.3750   43.0720 N   0  0  0  0  0  0  0  0  0  0  0  0
   37.1910   27.4910   41.8620 C   0  0  0  0  0  0  0  0  0  0  0  0
   37.1480   26.5600   40.8490 C   0  0  0  0  0  3  0  0  0  0  0  0
   36.4890   30.3300   43.0460 H   0  0  0  0  0  0  0  0  0  0  0  0
   31.6540   29.8020   35.4910 C   0  0  0  0  0  0  0  0  0  0  0  0
   32.3030   29.5570   36.7200 C   0  0  0  0  0  0  0  0  0  0  0  0
   33.1430   28.4430   36.8120 C   0  0  0  0  0  0  0  0  0  0  0  0
   33.3060   27.6440   35.7390 N   0  0  0  0  0  0  0  0  0  0  0  0
   32.6610   27.9090   34.5580 C   0  0  0  0  0  0  0  0  0  0  0  0
   31.8520   28.9770   34.4590 N   0  0  0  0  0  0  0  0  0  0  0  0
   30.9980   30.6550   35.3850 H   0  0  0  0  0  0  0  0  0  0  0  0
   32.1340   30.2350   37.5510 H   0  0  0  0  0  0  0  0  0  0  0  0
   32.8650   27.2040   33.7660 H   0  0  0  0  0  0  0  0  0  0  0  0
  1  6  1  0  0  0  0
  2  1  2  0  0  0  0
  3  1  1  0  0  0  0
  3  4  1  0  0  0  0
  5 15  1  0  0  0  0
  6  5  2  0  0  0  0
  6  7  1  0  0  0  0
  7  9  2  0  0  0  0
  8  7  1  0  0  0  0
  9 14  1  0  0  0  0
  9 10  1  0  0  0  0
 10 16  1  0  0  0  0
 10 11  1  0  0  0  0
 11 12  1  0  0  0  0
 13 11  2  0  0  0  0
 14 13  1  0  0  0  0
 15 14  2  0  0  0  0
 17 18  1  0  0  0  0
 18 19  2  0  0  0  0
 18 24  1  0  0  0  0
 19  3  1  0  0  0  0
 20 19  1  0  0  0  0
 21 20  2  0  0  0  0
 22 21  1  0  0  0  0
 22 17  2  0  0  0  0
 23 17  1  0  0  0  0
 25 21  1  0  0  0  0
M  END
>  <minimizedAffinity>
-4.52116919

$$$$

 OpenBabel03252503363D

 25 27  0  0  0  0  0  0  0  0999 V2000
   36.1320   28.4990   39.0110 C   0  0  0  0  0  0  0  0  0  0  0  0
   37.3660   28.2940   38.8490 O   0  0  0  0  0  0  0  0  0  0  0  0
   35.7300   28.4930   40.3710 N   0  0  0  0  0  0  0  0  0  0  0  0
   34.7270   28.5800   40.6430 H   0  0  0  0  0  0  0  0  0  0  0  0
   35.5110   28.8530   36.5950 C   0  0  0  0  0  3  0  0  0  0  0  0
   35.1800   28.7230   37.9280 C   0  0  0  0  0  0  0  0  0  0  0  0
   33.8360   28.8130   38.2580 C   0  0  0  0  0  0  0  0  0  0  0  0
   33.4250   28.7310   39.2570 H   0  0  0  0  0  0  0  0  0  0  0  0
   32.8590   29.0270   37.2850 C   0  0  0  0  0  0  0  0  0  0  0  0
   31.5260   29.1610   37.2470 N   0  0  0  0  0  0  0  0  0  0  0  0
   31.1150   29.3550   35.9830 C   0  0  0  0  0  0  0  0  0  0  0  0
   30.1050   29.4990   35.6030 H   0  0  0  0  0  0  0  0  0  0  0  0
   32.1800   29.3530   35.1460 N   0  0  0  0  0  0  0  0  0  0  0  0
   33.2320   29.1510   35.9610 C   0  0  0  0  0  0  0  0  0  0  0  0
   34.5640   29.0630   35.6210 C   0  0  0  0  0  3  0  0  0  0  0  0
   30.9100   29.1170   38.0960 H   0  0  0  0  0  0  0  0  0  0  0  0
   37.8680   27.0190   43.0270 C   0  0  0  0  0  0  0  0  0  0  0  0
   36.9410   27.1050   41.9660 C   0  0  0  0  0  0  0  0  0  0  0  0
   36.6570   28.3690   41.4400 C   0  0  0  0  0  0  0  0  0  0  0  0
   37.2660   29.4550   41.9540 N   0  0  0  0  0  0  0  0  0  0  0  0
   38.1620   29.3380   42.9850 C   0  0  0  0  0  0  0  0  0  0  0  0
   38.4430   28.1290   43.4980 N   0  0  0  0  0  0  0  0  0  0  0  0
   38.1120   26.0580   43.4570 H   0  0  0  0  0  0  0  0  0  0  0  0
   36.4800   26.1950   41.5920 H   0  0  0  0  0  0  0  0  0  0  0  0
   38.5900   30.2720   43.3170 H   0  0  0  0  0  0  0  0  0  0  0  0
  1  3  1  0  0  0  0
  2  1  2  0  0  0  0
  3  4  1  0  0  0  0
  3 19  1  0  0  0  0
  5  6  1  0  0  0  0
  6  7  2  0  0  0  0
  6  1  1  0  0  0  0
  7  8  1  0  0  0  0
  9  7  1  0  0  0  0
 10  9  1  0  0  0  0
 10 16  1  0  0  0  0
 11 10  1  0  0  0  0
 12 11  1  0  0  0  0
 13 14  1  0  0  0  0
 13 11  2  0  0  0  0
 14  9  2  0  0  0  0
 15 14  1  0  0  0  0
 15  5  2  0  0  0  0
 17 23  1  0  0  0  0
 17 22  1  0  0  0  0
 18 17  2  0  0  0  0
 19 20  2  0  0  0  0
 19 18  1  0  0  0  0
 20 21  1  0  0  0  0
 21 25  1  0  0  0  0
 21 22  2  0  0  0  0
 24 18  1  0  0  0  0
M  END
>  <minimizedAffinity>
-4.48262787

$$$$

 OpenBabel03252503363D

 25 27  0  0  0  0  0  0  0  0999 V2000
   39.2150   29.7010   41.3590 C   0  0  0  0  0  0  0  0  0  0  0  0
   40.3580   30.0280   41.7810 O   0  0  0  0  0  0  0  0  0  0  0  0
   38.6150   30.6810   40.5280 N   0  0  0  0  0  0  0  0  0  0  0  0
   37.6430   30.5700   40.1680 H   0  0  0  0  0  0  0  0  0  0  0  0
   37.5490   28.2900   42.6160 C   0  0  0  0  0  3  0  0  0  0  0  0
   38.5440   28.4440   41.6740 C   0  0  0  0  0  0  0  0  0  0  0  0
   38.9330   27.3120   40.9740 C   0  0  0  0  0  0  0  0  0  0  0  0
   39.6970   27.2750   40.2070 H   0  0  0  0  0  0  0  0  0  0  0  0
   38.3440   26.0690   41.2120 C   0  0  0  0  0  0  0  0  0  0  0  0
   38.4680   24.8190   40.7430 N   0  0  0  0  0  0  0  0  0  0  0  0
   37.6060   24.0010   41.3690 C   0  0  0  0  0  0  0  0  0  0  0  0
   37.4460   22.9340   41.2290 H   0  0  0  0  0  0  0  0  0  0  0  0
   36.8840   24.7000   42.2780 N   0  0  0  0  0  0  0  0  0  0  0  0
   37.3500   25.9580   42.1650 C   0  0  0  0  0  0  0  0  0  0  0  0
   36.9550   27.0750   42.8650 C   0  0  0  0  0  3  0  0  0  0  0  0
   39.1470   24.5420   39.9930 H   0  0  0  0  0  0  0  0  0  0  0  0
   40.7990   33.0420   38.6670 C   0  0  0  0  0  0  0  0  0  0  0  0
   40.1420   31.8450   39.0280 C   0  0  0  0  0  0  0  0  0  0  0  0
   39.2920   31.8670   40.1370 C   0  0  0  0  0  0  0  0  0  0  0  0
   39.1250   33.0140   40.8240 N   0  0  0  0  0  0  0  0  0  0  0  0
   39.7770   34.1600   40.4480 C   0  0  0  0  0  0  0  0  0  0  0  0
   40.5960   34.1510   39.3840 N   0  0  0  0  0  0  0  0  0  0  0  0
   41.4630   33.0600   37.8150 H   0  0  0  0  0  0  0  0  0  0  0  0
   40.3150   30.9490   38.4370 H   0  0  0  0  0  0  0  0  0  0  0  0
   39.5690   35.0200   41.0690 H   0  0  0  0  0  0  0  0  0  0  0  0
  1  6  1  0  0  0  0
  1  2  2  0  0  0  0
  3  1  1  0  0  0  0
  4  3  1  0  0  0  0
  5 15  1  0  0  0  0
  6  5  2  0  0  0  0
  7  9  2  0  0  0  0
  7  6  1  0  0  0  0
  8  7  1  0  0  0  0
  9 14  1  0  0  0  0
 10  9  1  0  0  0  0
 10 11  1  0  0  0  0
 11 13  2  0  0  0  0
 12 11  1  0  0  0  0
 14 13  1  0  0  0  0
 14 15  2  0  0  0  0
 16 10  1  0  0  0  0
 17 18  2  0  0  0  0
 17 22  1  0  0  0  0
 18 19  1  0  0  0  0
 19  3  1  0  0  0  0
 19 20  2  0  0  0  0
 21 20  1  0  0  0  0
 21 25  1  0  0  0  0
 22 21  2  0  0  0  0
 23 17  1  0  0  0  0
 24 18  1  0  0  0  0
M  END
>  <minimizedAffinity>
-4.38981771

$$$$

 OpenBabel03252503363D

 25 27  0  0  0  0  0  0  0  0999 V2000
   38.0790   28.2400   40.0710 C   0  0  0  0  0  0  0  0  0  0  0  0
   37.0810   27.7570   39.4690 O   0  0  0  0  0  0  0  0  0  0  0  0
   38.7920   27.2870   40.8430 N   0  0  0  0  0  0  0  0  0  0  0  0
   39.5960   27.5660   41.4460 H   0  0  0  0  0  0  0  0  0  0  0  0
   39.7880   30.0760   39.8310 C   0  0  0  0  0  3  0  0  0  0  0  0
   38.4910   29.6380   40.0020 C   0  0  0  0  0  0  0  0  0  0  0  0
   37.5070   30.6070   40.1170 C   0  0  0  0  0  0  0  0  0  0  0  0
   36.4490   30.4190   40.2540 H   0  0  0  0  0  0  0  0  0  0  0  0
   37.8120   31.9680   40.0620 C   0  0  0  0  0  0  0  0  0  0  0  0
   37.1430   33.1270   40.1340 N   0  0  0  0  0  0  0  0  0  0  0  0
   37.9920   34.1610   40.0140 C   0  0  0  0  0  0  0  0  0  0  0  0
   37.7800   35.2290   40.0280 H   0  0  0  0  0  0  0  0  0  0  0  0
   39.2570   33.7030   39.8570 N   0  0  0  0  0  0  0  0  0  0  0  0
   39.1240   32.3640   39.8890 C   0  0  0  0  0  0  0  0  0  0  0  0
   40.1110   31.4110   39.7730 C   0  0  0  0  0  3  0  0  0  0  0  0
   36.1040   33.1940   40.2660 H   0  0  0  0  0  0  0  0  0  0  0  0
   37.1610   24.0580   41.6890 C   0  0  0  0  0  0  0  0  0  0  0  0
   37.4670   25.4360   41.7120 C   0  0  0  0  0  0  0  0  0  0  0  0
   38.4590   25.9070   40.8470 C   0  0  0  0  0  0  0  0  0  0  0  0
   39.0890   25.0440   40.0260 N   0  0  0  0  0  0  0  0  0  0  0  0
   38.7690   23.7100   40.0280 C   0  0  0  0  0  0  0  0  0  0  0  0
   37.8170   23.2470   40.8550 N   0  0  0  0  0  0  0  0  0  0  0  0
   36.4000   23.6610   42.3450 H   0  0  0  0  0  0  0  0  0  0  0  0
   36.9260   26.0850   42.3960 H   0  0  0  0  0  0  0  0  0  0  0  0
   39.3360   23.1120   39.3300 H   0  0  0  0  0  0  0  0  0  0  0  0
  1  3  1  0  0  0  0
  2  1  2  0  0  0  0
  3 19  1  0  0  0  0
  3  4  1  0  0  0  0
  5  6  1  0  0  0  0
  6  1  1  0  0  0  0
  6  7  2  0  0  0  0
  7  8  1  0  0  0  0
  9  7  1  0  0  0  0
  9 10  1  0  0  0  0
 10 16  1  0  0  0  0
 11 12  1  0  0  0  0
 11 10  1  0  0  0  0
 13 14  1  0  0  0  0
 13 11  2  0  0  0  0
 14  9  2  0  0  0  0
 15  5  2  0  0  0  0
 15 14  1  0  0  0  0
 17 18  1  0  0  0  0
 17 23  1  0  0  0  0
 18 24  1  0  0  0  0
 19 18  2  0  0  0  0
 20 21  2  0  0  0  0
 20 19  1  0  0  0  0
 21 22  1  0  0  0  0
 22 17  2  0  0  0  0
 25 21  1  0  0  0  0
M  END
>  <minimizedAffinity>
-4.38254833

$$$$

 OpenBabel03252503363D

 25 27  0  0  0  0  0  0  0  0999 V2000
   35.7660   29.6420   37.8230 C   0  0  0  0  0  0  0  0  0  0  0  0
   36.1270   29.3550   36.6480 O   0  0  0  0  0  0  0  0  0  0  0  0
   34.5530   29.0190   38.2130 N   0  0  0  0  0  0  0  0  0  0  0  0
   34.1060   29.2250   39.1320 H   0  0  0  0  0  0  0  0  0  0  0  0
   36.2820   30.6380   40.0790 C   0  0  0  0  0  3  0  0  0  0  0  0
   36.5010   30.5260   38.7210 C   0  0  0  0  0  0  0  0  0  0  0  0
   37.4980   31.3190   38.1750 C   0  0  0  0  0  0  0  0  0  0  0  0
   37.7850   31.3410   37.1300 H   0  0  0  0  0  0  0  0  0  0  0  0
   38.2500   32.1930   38.9610 C   0  0  0  0  0  0  0  0  0  0  0  0
   39.2480   33.0680   38.7750 N   0  0  0  0  0  0  0  0  0  0  0  0
   39.5820   33.6460   39.9410 C   0  0  0  0  0  0  0  0  0  0  0  0
   40.3450   34.3950   40.1430 H   0  0  0  0  0  0  0  0  0  0  0  0
   38.8030   33.1580   40.9370 N   0  0  0  0  0  0  0  0  0  0  0  0
   37.9990   32.2740   40.3170 C   0  0  0  0  0  0  0  0  0  0  0  0
   37.0110   31.4920   40.8720 C   0  0  0  0  0  3  0  0  0  0  0  0
   39.6900   33.2600   37.8430 H   0  0  0  0  0  0  0  0  0  0  0  0
   32.1530   27.5550   35.7840 C   0  0  0  0  0  0  0  0  0  0  0  0
   32.8040   28.5100   36.5960 C   0  0  0  0  0  0  0  0  0  0  0  0
   33.8760   28.0850   37.3850 C   0  0  0  0  0  0  0  0  0  0  0  0
   34.2540   26.7920   37.3520 N   0  0  0  0  0  0  0  0  0  0  0  0
   33.6020   25.8890   36.5530 C   0  0  0  0  0  0  0  0  0  0  0  0
   32.5710   26.2860   35.7900 N   0  0  0  0  0  0  0  0  0  0  0  0
   31.3210   27.8490   35.1610 H   0  0  0  0  0  0  0  0  0  0  0  0
   32.4550   29.5390   36.5820 H   0  0  0  0  0  0  0  0  0  0  0  0
   33.9900   24.8810   36.6040 H   0  0  0  0  0  0  0  0  0  0  0  0
  1  3  1  0  0  0  0
  1  6  1  0  0  0  0
  2  1  2  0  0  0  0
  3  4  1  0  0  0  0
  5 15  1  0  0  0  0
  6  5  2  0  0  0  0
  7  6  1  0  0  0  0
  7  9  2  0  0  0  0
  8  7  1  0  0  0  0
  9 14  1  0  0  0  0
 10  9  1  0  0  0  0
 10 11  1  0  0  0  0
 11 12  1  0  0  0  0
 11 13  2  0  0  0  0
 14 15  2  0  0  0  0
 14 13  1  0  0  0  0
 16 10  1  0  0  0  0
 17 22  2  0  0  0  0
 17 18  1  0  0  0  0
 18 19  2  0  0  0  0
 19  3  1  0  0  0  0
 20 19  1  0  0  0  0
 21 25  1  0  0  0  0
 21 20  2  0  0  0  0
 22 21  1  0  0  0  0
 23 17  1  0  0  0  0
 24 18  1  0  0  0  0
M  END
>  <minimizedAffinity>
-4.34738207

$$$$

 OpenBabel03252503363D

 25 27  0  0  0  0  0  0  0  0999 V2000
   38.1640   27.7050   39.4530 C   0  0  0  0  0  0  0  0  0  0  0  0
   39.3540   28.0700   39.6630 O   0  0  0  0  0  0  0  0  0  0  0  0
   37.6870   26.7580   40.3940 N   0  0  0  0  0  0  0  0  0  0  0  0
   36.7450   26.3200   40.2970 H   0  0  0  0  0  0  0  0  0  0  0  0
   36.0410   28.6630   38.4920 C   0  0  0  0  0  3  0  0  0  0  0  0
   37.3310   28.1910   38.3590 C   0  0  0  0  0  0  0  0  0  0  0  0
   37.8700   28.1790   37.0820 C   0  0  0  0  0  0  0  0  0  0  0  0
   38.8650   27.8390   36.8200 H   0  0  0  0  0  0  0  0  0  0  0  0
   37.1430   28.6250   35.9770 C   0  0  0  0  0  0  0  0  0  0  0  0
   37.3410   28.7500   34.6580 N   0  0  0  0  0  0  0  0  0  0  0  0
   36.2450   29.2580   34.0700 C   0  0  0  0  0  0  0  0  0  0  0  0
   36.0720   29.4850   33.0190 H   0  0  0  0  0  0  0  0  0  0  0  0
   35.2860   29.4830   34.9990 N   0  0  0  0  0  0  0  0  0  0  0  0
   35.8540   29.0900   36.1540 C   0  0  0  0  0  0  0  0  0  0  0  0
   35.3070   29.1070   37.4180 C   0  0  0  0  0  3  0  0  0  0  0  0
   38.2330   28.4830   34.1730 H   0  0  0  0  0  0  0  0  0  0  0  0
   39.8340   24.7200   42.6390 C   0  0  0  0  0  0  0  0  0  0  0  0
   39.0810   25.0970   41.5060 C   0  0  0  0  0  0  0  0  0  0  0  0
   38.4520   26.3460   41.5170 C   0  0  0  0  0  0  0  0  0  0  0  0
   38.5800   27.1450   42.5950 N   0  0  0  0  0  0  0  0  0  0  0  0
   39.3200   26.7500   43.6800 C   0  0  0  0  0  0  0  0  0  0  0  0
   39.9280   25.5520   43.6800 N   0  0  0  0  0  0  0  0  0  0  0  0
   40.3340   23.7620   42.6640 H   0  0  0  0  0  0  0  0  0  0  0  0
   39.0120   24.4120   40.6660 H   0  0  0  0  0  0  0  0  0  0  0  0
   39.3540   27.4690   44.4850 H   0  0  0  0  0  0  0  0  0  0  0  0
  1  2  2  0  0  0  0
  1  3  1  0  0  0  0
  3 19  1  0  0  0  0
  4  3  1  0  0  0  0
  6  5  1  0  0  0  0
  6  1  1  0  0  0  0
  7  6  2  0  0  0  0
  8  7  1  0  0  0  0
  9 14  2  0  0  0  0
  9  7  1  0  0  0  0
 10  9  1  0  0  0  0
 11 10  1  0  0  0  0
 11 13  2  0  0  0  0
 12 11  1  0  0  0  0
 13 14  1  0  0  0  0
 14 15  1  0  0  0  0
 15  5  2  0  0  0  0
 16 10  1  0  0  0  0
 17 23  1  0  0  0  0
 17 22  1  0  0  0  0
 18 19  1  0  0  0  0
 18 17  2  0  0  0  0
 19 20  2  0  0  0  0
 20 21  1  0  0  0  0
 21 22  2  0  0  0  0
 21 25  1  0  0  0  0
 24 18  1  0  0  0  0
M  END
>  <minimizedAffinity>
-4.25078106

$$$$
