
 OpenBabel03252503343D

 25 27  0  0  0  0  0  0  0  0999 V2000
   46.5100   33.1590   43.4910 C   0  0  0  0  0  0  0  0  0  0  0  0
   45.3480   32.6800   43.5980 O   0  0  0  0  0  0  0  0  0  0  0  0
   47.2360   33.1670   44.7100 N   0  0  0  0  0  0  0  0  0  0  0  0
   48.1820   33.6000   44.7780 H   0  0  0  0  0  0  0  0  0  0  0  0
   47.9760   34.7150   42.1570 C   0  0  0  0  0  3  0  0  0  0  0  0
   47.0860   33.6660   42.2500 C   0  0  0  0  0  0  0  0  0  0  0  0
   46.7130   33.0470   41.0660 C   0  0  0  0  0  0  0  0  0  0  0  0
   46.0260   32.2140   40.9790 H   0  0  0  0  0  0  0  0  0  0  0  0
   47.2150   33.4670   39.8340 C   0  0  0  0  0  0  0  0  0  0  0  0
   47.0780   33.1150   38.5470 N   0  0  0  0  0  0  0  0  0  0  0  0
   47.8340   33.9060   37.7670 C   0  0  0  0  0  0  0  0  0  0  0  0
   47.9530   33.8910   36.6850 H   0  0  0  0  0  0  0  0  0  0  0  0
   48.4960   34.8090   38.5300 N   0  0  0  0  0  0  0  0  0  0  0  0
   48.1040   34.5230   39.7850 C   0  0  0  0  0  0  0  0  0  0  0  0
   48.4820   35.1450   40.9530 C   0  0  0  0  0  3  0  0  0  0  0  0
   46.4620   32.3320   38.2190 H   0  0  0  0  0  0  0  0  0  0  0  0
   45.2940   32.6950   47.8410 C   0  0  0  0  0  0  0  0  0  0  0  0
   45.7810   33.2950   46.6600 C   0  0  0  0  0  0  0  0  0  0  0  0
   46.7250   32.5940   45.9040 C   0  0  0  0  0  0  0  0  0  0  0  0
   47.1400   31.3810   46.3190 N   0  0  0  0  0  0  0  0  0  0  0  0
   46.6480   30.8250   47.4720 C   0  0  0  0  0  0  0  0  0  0  0  0
   45.7400   31.4890   48.2050 N   0  0  0  0  0  0  0  0  0  0  0  0
   44.5630   33.2090   48.4490 H   0  0  0  0  0  0  0  0  0  0  0  0
   45.4100   34.2750   46.3750 H   0  0  0  0  0  0  0  0  0  0  0  0
   47.0500   29.8500   47.7070 H   0  0  0  0  0  0  0  0  0  0  0  0
  1  2  2  0  0  0  0
  1  3  1  0  0  0  0
  3  4  1  0  0  0  0
  3 19  1  0  0  0  0
  5  6  1  0  0  0  0
  6  1  1  0  0  0  0
  7  6  2  0  0  0  0
  8  7  1  0  0  0  0
  9  7  1  0  0  0  0
 10  9  1  0  0  0  0
 11 13  2  0  0  0  0
 11 10  1  0  0  0  0
 12 11  1  0  0  0  0
 13 14  1  0  0  0  0
 14  9  2  0  0  0  0
 14 15  1  0  0  0  0
 15  5  2  0  0  0  0
 16 10  1  0  0  0  0
 17 22  1  0  0  0  0
 17 23  1  0  0  0  0
 18 17  2  0  0  0  0
 19 20  2  0  0  0  0
 19 18  1  0  0  0  0
 20 21  1  0  0  0  0
 21 25  1  0  0  0  0
 21 22  2  0  0  0  0
 24 18  1  0  0  0  0
M  END
>  <minimizedAffinity>
-4.8234787

>  <minimizedRMSD>
3.54603863

$$$$
