
 OpenBabel03252507323D

 52 56  0  0  1  0  0  0  0  0999 V2000
   47.0420   32.4910   45.3810 C   0  0  0  0  0  0  0  0  0  0  0  0
   46.0150   33.1910   45.9950 C   0  0  0  0  0  0  0  0  0  0  0  0
   45.3720   34.2420   45.2990 C   0  0  0  0  0  0  0  0  0  0  0  0
   45.8360   34.5060   44.0120 N   0  0  0  0  0  0  0  0  0  0  0  0
   46.8330   33.7940   43.4810 C   0  0  0  0  0  0  0  0  0  0  0  0
   47.4260   32.8050   44.1500 N   0  0  0  0  0  0  0  0  0  0  0  0
   45.5390   33.1840   46.9520 H   0  0  0  0  0  0  0  0  0  0  0  0
   44.5720   34.8740   45.6150 H   0  0  0  0  0  0  0  0  0  0  0  0
   47.6520   31.4090   46.1280 C   0  0  2  0  0  0  0  0  0  0  0  0
   47.2720   30.0190   45.5300 C   0  0  0  0  0  0  0  0  0  0  0  0
   48.0510   28.9560   46.2270 C   0  0  0  0  0  0  0  0  0  0  0  0
   48.1280   29.0660   47.7120 C   0  0  0  0  0  0  0  0  0  0  0  0
   48.2490   30.4160   48.2050 C   0  0  0  0  0  0  0  0  0  0  0  0
   47.2840   31.4140   47.5290 C   0  0  2  0  0  0  0  0  0  0  0  0
   48.7560   31.4300   45.9530 H   0  0  0  0  0  0  0  0  0  0  0  0
   46.1840   29.8810   45.5260 H   0  0  0  0  0  0  0  0  0  0  0  0
   47.5860   30.0990   44.4700 H   0  0  0  0  0  0  0  0  0  0  0  0
   49.0140   28.8750   45.6850 H   0  0  0  0  0  0  0  0  0  0  0  0
   47.5250   27.9790   46.0150 H   0  0  0  0  0  0  0  0  0  0  0  0
   47.7270   28.2480   48.3120 H   0  0  0  0  0  0  0  0  0  0  0  0
   49.2280   28.7160   47.8610 H   0  0  0  0  0  0  0  0  0  0  0  0
   49.2430   30.9240   48.1430 H   0  0  0  0  0  0  0  0  0  0  0  0
   47.9870   30.4460   49.2950 H   0  0  0  0  0  0  0  0  0  0  0  0
   47.4980   32.3250   48.0910 H   0  0  0  0  0  0  0  0  0  0  0  0
   45.9150   30.9230   47.6890 N   0  0  0  0  0  0  0  0  0  0  0  0
   45.1870   30.5490   48.8310 C   0  0  0  0  0  0  0  0  0  0  0  0
   44.6730   31.4010   49.6430 O   0  0  0  0  0  0  0  0  0  0  0  0
   45.0510   29.1400   49.0180 N   0  0  0  0  0  0  0  0  0  0  0  0
   45.2760   30.7150   46.8310 H   0  0  0  0  0  0  0  0  0  0  0  0
   44.7290   28.4060   48.3830 H   0  0  0  0  0  0  0  0  0  0  0  0
   45.3110   28.7260   49.9400 H   0  0  0  0  0  0  0  0  0  0  0  0
   47.2870   34.1360   42.1280 C   0  0  0  0  0  0  0  0  0  0  0  0
   48.3050   35.0410   41.9280 C   0  0  0  0  0  0  0  0  0  0  0  0
   48.7850   35.4110   40.6910 C   0  0  0  0  0  0  0  0  0  0  0  0
   48.1660   34.8010   39.6230 C   0  0  0  0  0  0  0  0  0  0  0  0
   47.1490   33.8960   39.8050 C   0  0  0  0  0  0  0  0  0  0  0  0
   46.7090   33.5630   41.0590 N   0  0  0  0  0  0  0  0  0  0  0  0
   48.7430   35.4790   42.8200 H   0  0  0  0  0  0  0  0  0  0  0  0
   49.5760   36.1150   40.5710 H   0  0  0  0  0  0  0  0  0  0  0  0
   48.5050   35.0570   38.6310 H   0  0  0  0  0  0  0  0  0  0  0  0
   45.4010   32.4030   38.9510 C   0  0  0  0  0  3  0  0  0  0  0  0
   46.4730   33.2330   38.6970 C   0  0  0  0  0  0  0  0  0  0  0  0
   46.8240   33.3680   37.3810 C   0  0  0  0  0  0  0  0  0  0  0  0
   47.6450   33.9950   37.1160 H   0  0  0  0  0  0  0  0  0  0  0  0
   46.1810   32.7380   36.3350 C   0  0  0  0  0  0  0  0  0  0  0  0
   46.3850   32.7520   34.9920 N   0  0  0  0  0  0  0  0  0  0  0  0
   45.4720   31.9590   34.4280 C   0  0  0  0  0  0  0  0  0  0  0  0
   45.4410   31.8150   33.3510 H   0  0  0  0  0  0  0  0  0  0  0  0
   44.6830   31.4370   35.4110 N   0  0  0  0  0  0  0  0  0  0  0  0
   45.1030   31.9050   36.6070 C   0  0  0  0  0  0  0  0  0  0  0  0
   44.7220   31.7460   37.9210 C   0  0  0  0  0  3  0  0  0  0  0  0
   47.1350   33.2990   34.5140 H   0  0  0  0  0  0  0  0  0  0  0  0
  1  2  1  0  0  0  0
  1  9  1  0  0  0  0
  2  7  1  0  0  0  0
  3  8  1  0  0  0  0
  3  2  2  0  0  0  0
  4  3  1  0  0  0  0
  5  4  2  0  0  0  0
  5  6  1  0  0  0  0
  6  1  2  0  0  0  0
  9 15  1  6  0  0  0
  9 14  1  0  0  0  0
 10  9  1  0  0  0  0
 10 11  1  0  0  0  0
 11 12  1  0  0  0  0
 12 21  1  0  0  0  0
 12 13  1  0  0  0  0
 12 20  1  0  0  0  0
 13 23  1  0  0  0  0
 14 25  1  0  0  0  0
 14 24  1  1  0  0  0
 14 13  1  0  0  0  0
 16 10  1  0  0  0  0
 17 10  1  0  0  0  0
 18 11  1  0  0  0  0
 19 11  1  0  0  0  0
 22 13  1  0  0  0  0
 25 26  1  0  0  0  0
 26 28  1  0  0  0  0
 26 27  2  0  0  0  0
 28 31  1  0  0  0  0
 29 25  1  0  0  0  0
 30 28  1  0  0  0  0
 32  5  1  0  0  0  0
 33 32  1  0  0  0  0
 33 38  1  0  0  0  0
 34 33  2  0  0  0  0
 35 36  2  0  0  0  0
 35 34  1  0  0  0  0
 36 37  1  0  0  0  0
 37 32  2  0  0  0  0
 39 34  1  0  0  0  0
 40 35  1  0  0  0  0
 42 41  1  0  0  0  0
 42 36  1  0  0  0  0
 43 42  2  0  0  0  0
 44 43  1  0  0  0  0
 45 50  2  0  0  0  0
 45 43  1  0  0  0  0
 46 45  1  0  0  0  0
 47 46  1  0  0  0  0
 47 49  2  0  0  0  0
 48 47  1  0  0  0  0
 49 50  1  0  0  0  0
 50 51  1  0  0  0  0
 51 41  2  0  0  0  0
 52 46  1  0  0  0  0
M  END
>  <minimizedAffinity>
-7.00840092

>  <minimizedRMSD>
0.891593158

$$$$
