
 OpenBabel03252504143D

 38 41  0  0  0  0  0  0  0  0999 V2000
   47.6600   30.0480   44.9210 F   0  0  0  0  0  0  0  0  0  0  0  0
   47.5230   30.8150   46.0560 C   0  0  0  0  0  0  0  0  0  0  0  0
   46.9400   32.0660   45.9610 C   0  0  0  0  0  0  0  0  0  0  0  0
   46.8340   32.7880   47.1490 C   0  0  0  0  0  0  0  0  0  0  0  0
   47.2890   32.2670   48.3370 C   0  0  0  0  0  0  0  0  0  0  0  0
   47.8630   31.0070   48.3630 C   0  0  0  0  0  0  0  0  0  0  0  0
   47.9960   30.2450   47.2180 C   0  0  0  0  0  0  0  0  0  0  0  0
   46.3850   33.7770   47.1400 H   0  0  0  0  0  0  0  0  0  0  0  0
   47.1960   32.8480   49.2540 H   0  0  0  0  0  0  0  0  0  0  0  0
   48.2230   30.5950   49.3000 H   0  0  0  0  0  0  0  0  0  0  0  0
   49.9670   28.9010   47.0490 C   0  0  0  0  0  0  0  0  0  0  0  0
   48.5980   28.9140   47.2220 C   0  0  0  0  0  0  0  0  0  0  0  0
   47.9400   27.7120   47.3780 C   0  0  0  0  0  0  0  0  0  0  0  0
   46.8680   27.7820   47.5100 H   0  0  0  0  0  0  0  0  0  0  0  0
   48.6290   26.5180   47.3620 C   0  0  0  0  0  0  0  0  0  0  0  0
   48.2190   25.2400   47.4910 N   0  0  0  0  0  0  0  0  0  0  0  0
   49.2940   24.4490   47.4020 C   0  0  0  0  0  0  0  0  0  0  0  0
   49.2870   23.3830   47.4670 H   0  0  0  0  0  0  0  0  0  0  0  0
   50.4180   25.1820   47.2160 N   0  0  0  0  0  0  0  0  0  0  0  0
   50.0170   26.4680   47.1890 C   0  0  0  0  0  0  0  0  0  0  0  0
   50.6530   27.6980   47.0350 C   0  0  0  0  0  0  0  0  0  0  0  0
   47.2220   24.9650   47.6340 H   0  0  0  0  0  0  0  0  0  0  0  0
   46.7770   34.1210   42.9660 C   0  0  0  0  0  0  0  0  0  0  0  0
   45.6410   33.6690   42.3020 C   0  0  0  0  0  0  0  0  0  0  0  0
   44.9140   32.6260   42.9080 C   0  0  0  0  0  0  0  0  0  0  0  0
   45.3480   32.1220   44.0870 N   0  0  0  0  0  0  0  0  0  0  0  0
   46.4630   32.6010   44.6900 C   0  0  0  0  0  0  0  0  0  0  0  0
   47.1610   33.5940   44.1220 N   0  0  0  0  0  0  0  0  0  0  0  0
   44.0170   32.2480   42.4120 H   0  0  0  0  0  0  0  0  0  0  0  0
   45.2330   34.2720   41.0180 C   0  0  0  0  0  0  0  0  0  0  0  0
   44.9120   35.6010   41.1990 F   0  0  0  0  0  0  0  0  0  0  0  0
   46.3420   34.2460   40.1700 F   0  0  0  0  0  0  0  0  0  0  0  0
   44.1960   33.6620   40.3920 F   0  0  0  0  0  0  0  0  0  0  0  0
   47.4650   35.1260   42.3700 O   0  0  0  0  0  0  0  0  0  0  0  0
   48.7930   35.0700   41.8870 C   0  0  0  0  0  0  0  0  0  0  0  0
   49.6380   35.3420   42.9660 F   0  0  0  0  0  0  0  0  0  0  0  0
   49.0370   33.8450   41.3210 F   0  0  0  0  0  0  0  0  0  0  0  0
   49.0100   36.1130   41.0100 F   0  0  0  0  0  0  0  0  0  0  0  0
  1  2  1  0  0  0  0
  2  7  1  0  0  0  0
  3  2  2  0  0  0  0
  3  4  1  0  0  0  0
  4  5  2  0  0  0  0
  5  6  1  0  0  0  0
  5  9  1  0  0  0  0
  6 10  1  0  0  0  0
  7 12  1  0  0  0  0
  7  6  2  0  0  0  0
  8  4  1  0  0  0  0
 11 12  1  0  0  0  0
 12 13  2  0  0  0  0
 13 14  1  0  0  0  0
 15 13  1  0  0  0  0
 15 16  1  0  0  0  0
 16 22  1  0  0  0  0
 17 18  1  0  0  0  0
 17 16  1  0  0  0  0
 19 17  2  0  0  0  0
 20 19  1  0  0  0  0
 20 15  2  0  0  0  0
 21 11  2  0  0  0  0
 21 20  1  0  0  0  0
 23 28  1  0  0  0  0
 24 25  1  0  0  0  0
 24 23  2  0  0  0  0
 25 26  2  0  0  0  0
 26 27  1  0  0  0  0
 27  3  1  0  0  0  0
 28 27  2  0  0  0  0
 29 25  1  0  0  0  0
 30 31  1  0  0  0  0
 30 24  1  0  0  0  0
 32 30  1  0  0  0  0
 33 30  1  0  0  0  0
 34 23  1  0  0  0  0
 35 34  1  0  0  0  0
 35 36  1  0  0  0  0
 37 35  1  0  0  0  0
 38 35  1  0  0  0  0
M  END
>  <minimizedAffinity>
-5.77137041

>  <minimizedRMSD>
0.555885375

$$$$
