
 OpenBabel03242513003D

 38 42  0  0  0  0  0  0  0  0999 V2000
   37.7340   26.1220   40.0290 F   0  0  0  0  0  0  0  0  0  0  0  0
   38.4360   25.8780   41.1660 C   0  0  0  0  0  0  0  0  0  0  0  0
   38.9730   24.6350   41.4280 C   0  0  0  0  0  0  0  0  0  0  0  0
   39.6660   24.4840   42.5990 C   0  0  0  0  0  0  0  0  0  0  0  0
   39.8550   25.4770   43.5150 C   0  0  0  0  0  0  0  0  0  0  0  0
   39.3030   26.6960   43.2120 C   0  0  0  0  0  0  0  0  0  0  0  0
   38.5960   26.9180   42.0560 C   0  0  0  0  0  0  0  0  0  0  0  0
   40.0770   23.4990   42.7810 H   0  0  0  0  0  0  0  0  0  0  0  0
   40.4150   25.2750   44.4180 H   0  0  0  0  0  0  0  0  0  0  0  0
   39.4330   27.5100   43.9160 H   0  0  0  0  0  0  0  0  0  0  0  0
   37.5630   21.6440   39.5570 C   0  0  0  0  0  0  0  0  0  0  0  0
   37.7330   22.6430   40.5290 C   0  0  0  0  0  0  0  0  0  0  0  0
   38.7620   23.5820   40.4370 C   0  0  0  0  0  0  0  0  0  0  0  0
   39.5780   23.4560   39.3470 N   0  0  0  0  0  0  0  0  0  0  0  0
   39.3890   22.4840   38.4270 C   0  0  0  0  0  0  0  0  0  0  0  0
   38.4010   21.5920   38.5270 N   0  0  0  0  0  0  0  0  0  0  0  0
   36.7680   20.9440   39.6570 H   0  0  0  0  0  0  0  0  0  0  0  0
   37.0780   22.7180   41.3760 H   0  0  0  0  0  0  0  0  0  0  0  0
   40.1360   22.5590   37.6510 H   0  0  0  0  0  0  0  0  0  0  0  0
   38.0150   28.2230   41.7490 C   0  0  0  0  0  0  0  0  0  0  0  0
   36.6680   28.5520   41.7690 C   0  0  0  0  0  0  0  0  0  0  0  0
   36.5740   29.8960   41.4110 C   0  0  0  0  0  0  0  0  0  0  0  0
   37.8200   30.3250   41.1930 N   0  0  0  0  0  0  0  0  0  0  0  0
   38.6920   29.3400   41.3900 N   0  0  0  0  0  0  0  0  0  0  0  0
   35.9050   27.8390   42.0250 H   0  0  0  0  0  0  0  0  0  0  0  0
   35.6040   30.3790   41.3590 H   0  0  0  0  0  0  0  0  0  0  0  0
   37.1040   32.3220   40.0260 C   0  0  0  0  0  3  0  0  0  0  0  0
   38.0420   31.6780   40.8070 C   0  0  0  0  0  0  0  0  0  0  0  0
   39.1940   32.3630   41.2070 C   0  0  0  0  0  0  0  0  0  0  0  0
   39.9060   31.8240   41.8190 H   0  0  0  0  0  0  0  0  0  0  0  0
   39.4150   33.6910   40.8310 C   0  0  0  0  0  0  0  0  0  0  0  0
   40.4470   34.5020   41.1140 N   0  0  0  0  0  0  0  0  0  0  0  0
   40.1320   35.6610   40.4950 C   0  0  0  0  0  0  0  0  0  0  0  0
   40.7090   36.5980   40.4700 H   0  0  0  0  0  0  0  0  0  0  0  0
   38.9370   35.5820   39.8410 N   0  0  0  0  0  0  0  0  0  0  0  0
   38.4810   34.3430   40.0500 C   0  0  0  0  0  0  0  0  0  0  0  0
   37.3500   33.6340   39.6710 C   0  0  0  0  0  3  0  0  0  0  0  0
   41.3110   34.3550   41.6630 H   0  0  0  0  0  0  0  0  0  0  0  0
  1  2  1  0  0  0  0
  2  3  2  0  0  0  0
  2  7  1  0  0  0  0
  3  4  1  0  0  0  0
  4  8  1  0  0  0  0
  4  5  2  0  0  0  0
  5  9  1  0  0  0  0
  6  5  1  0  0  0  0
  6 10  1  0  0  0  0
  7  6  2  0  0  0  0
 11 17  1  0  0  0  0
 11 12  1  0  0  0  0
 12 18  1  0  0  0  0
 13 12  2  0  0  0  0
 13  3  1  0  0  0  0
 14 13  1  0  0  0  0
 15 16  1  0  0  0  0
 15 14  2  0  0  0  0
 16 11  2  0  0  0  0
 19 15  1  0  0  0  0
 20 21  1  0  0  0  0
 20  7  1  0  0  0  0
 21 25  1  0  0  0  0
 22 21  2  0  0  0  0
 23 24  1  0  0  0  0
 23 22  1  0  0  0  0
 24 20  2  0  0  0  0
 26 22  1  0  0  0  0
 27 28  1  0  0  0  0
 28 23  1  0  0  0  0
 28 29  2  0  0  0  0
 29 30  1  0  0  0  0
 31 32  1  0  0  0  0
 31 29  1  0  0  0  0
 32 38  1  0  0  0  0
 33 32  1  0  0  0  0
 34 33  1  0  0  0  0
 35 36  1  0  0  0  0
 35 33  2  0  0  0  0
 36 31  2  0  0  0  0
 37 27  2  0  0  0  0
 37 36  1  0  0  0  0
M  END
>  <minimizedAffinity>
-6.91608286

$$$$

 OpenBabel03242513003D

 38 42  0  0  0  0  0  0  0  0999 V2000
   40.8230   31.9240   39.4080 F   0  0  0  0  0  0  0  0  0  0  0  0
   40.3320   33.1660   39.6530 C   0  0  0  0  0  0  0  0  0  0  0  0
   41.1330   34.2860   39.5710 C   0  0  0  0  0  0  0  0  0  0  0  0
   40.5500   35.4960   39.8350 C   0  0  0  0  0  0  0  0  0  0  0  0
   39.2380   35.6610   40.1730 C   0  0  0  0  0  0  0  0  0  0  0  0
   38.4810   34.5190   40.2420 C   0  0  0  0  0  0  0  0  0  0  0  0
   39.0000   33.2740   39.9900 C   0  0  0  0  0  0  0  0  0  0  0  0
   41.2000   36.3590   39.7630 H   0  0  0  0  0  0  0  0  0  0  0  0
   38.8550   36.6540   40.3660 H   0  0  0  0  0  0  0  0  0  0  0  0
   37.4330   34.6110   40.5070 H   0  0  0  0  0  0  0  0  0  0  0  0
   44.3230   33.7360   37.5830 C   0  0  0  0  0  0  0  0  0  0  0  0
   42.9660   33.9190   37.8920 C   0  0  0  0  0  0  0  0  0  0  0  0
   42.5350   34.0920   39.2090 C   0  0  0  0  0  0  0  0  0  0  0  0
   43.5190   34.0680   40.1580 N   0  0  0  0  0  0  0  0  0  0  0  0
   44.8180   33.8890   39.8310 C   0  0  0  0  0  0  0  0  0  0  0  0
   45.2170   33.7250   38.5670 N   0  0  0  0  0  0  0  0  0  0  0  0
   44.6190   33.6070   36.5690 H   0  0  0  0  0  0  0  0  0  0  0  0
   42.2150   33.9340   37.1260 H   0  0  0  0  0  0  0  0  0  0  0  0
   45.4290   33.9020   40.7200 H   0  0  0  0  0  0  0  0  0  0  0  0
   38.1790   32.0680   40.0680 C   0  0  0  0  0  0  0  0  0  0  0  0
   36.9660   31.8530   39.4320 C   0  0  0  0  0  0  0  0  0  0  0  0
   36.5420   30.5740   39.7880 C   0  0  0  0  0  0  0  0  0  0  0  0
   37.4760   30.0700   40.5990 N   0  0  0  0  0  0  0  0  0  0  0  0
   38.4600   30.9480   40.7770 N   0  0  0  0  0  0  0  0  0  0  0  0
   36.5090   32.5920   38.7990 H   0  0  0  0  0  0  0  0  0  0  0  0
   35.6050   30.1840   39.4040 H   0  0  0  0  0  0  0  0  0  0  0  0
   37.2690   28.5830   42.4990 C   0  0  0  0  0  3  0  0  0  0  0  0
   37.3150   28.7590   41.1310 C   0  0  0  0  0  0  0  0  0  0  0  0
   37.2030   27.6470   40.2890 C   0  0  0  0  0  0  0  0  0  0  0  0
   37.2440   27.8260   39.2220 H   0  0  0  0  0  0  0  0  0  0  0  0
   37.0450   26.3590   40.8080 C   0  0  0  0  0  0  0  0  0  0  0  0
   36.9230   25.1860   40.1660 N   0  0  0  0  0  0  0  0  0  0  0  0
   36.7990   24.2790   41.1610 C   0  0  0  0  0  0  0  0  0  0  0  0
   36.6750   23.1890   41.0770 H   0  0  0  0  0  0  0  0  0  0  0  0
   36.8430   24.8650   42.3920 N   0  0  0  0  0  0  0  0  0  0  0  0
   36.9970   26.1750   42.1760 C   0  0  0  0  0  0  0  0  0  0  0  0
   37.1120   27.2990   42.9810 C   0  0  0  0  0  3  0  0  0  0  0  0
   36.9140   24.9450   39.1600 H   0  0  0  0  0  0  0  0  0  0  0  0
  1  2  1  0  0  0  0
  2  7  1  0  0  0  0
  3  2  2  0  0  0  0
  3  4  1  0  0  0  0
  4  5  2  0  0  0  0
  5  6  1  0  0  0  0
  5  9  1  0  0  0  0
  6 10  1  0  0  0  0
  7 20  1  0  0  0  0
  7  6  2  0  0  0  0
  8  4  1  0  0  0  0
 11 12  2  0  0  0  0
 11 16  1  0  0  0  0
 12 13  1  0  0  0  0
 13  3  1  0  0  0  0
 13 14  2  0  0  0  0
 15 14  1  0  0  0  0
 15 19  1  0  0  0  0
 16 15  2  0  0  0  0
 17 11  1  0  0  0  0
 18 12  1  0  0  0  0
 20 24  2  0  0  0  0
 21 22  2  0  0  0  0
 21 20  1  0  0  0  0
 22 23  1  0  0  0  0
 23 24  1  0  0  0  0
 23 28  1  0  0  0  0
 25 21  1  0  0  0  0
 26 22  1  0  0  0  0
 27 37  1  0  0  0  0
 28 27  2  0  0  0  0
 29 31  2  0  0  0  0
 29 28  1  0  0  0  0
 30 29  1  0  0  0  0
 31 36  1  0  0  0  0
 32 31  1  0  0  0  0
 32 33  1  0  0  0  0
 33 35  2  0  0  0  0
 34 33  1  0  0  0  0
 36 35  1  0  0  0  0
 36 37  2  0  0  0  0
 38 32  1  0  0  0  0
M  END
>  <minimizedAffinity>
-6.89833498

$$$$

 OpenBabel03242513003D

 38 42  0  0  0  0  0  0  0  0999 V2000
   36.0770   26.4680   38.9740 F   0  0  0  0  0  0  0  0  0  0  0  0
   36.5880   25.9320   40.1130 C   0  0  0  0  0  0  0  0  0  0  0  0
   36.7460   24.5700   40.2590 C   0  0  0  0  0  0  0  0  0  0  0  0
   37.2690   24.1210   41.4420 C   0  0  0  0  0  0  0  0  0  0  0  0
   37.6390   24.9310   42.4760 C   0  0  0  0  0  0  0  0  0  0  0  0
   37.4640   26.2780   42.2850 C   0  0  0  0  0  0  0  0  0  0  0  0
   36.9450   26.7970   41.1240 C   0  0  0  0  0  0  0  0  0  0  0  0
   37.3830   23.0480   41.5310 H   0  0  0  0  0  0  0  0  0  0  0  0
   38.0450   24.4960   43.3790 H   0  0  0  0  0  0  0  0  0  0  0  0
   37.7480   26.9530   43.0850 H   0  0  0  0  0  0  0  0  0  0  0  0
   34.6920   22.4310   37.8830 C   0  0  0  0  0  0  0  0  0  0  0  0
   35.0390   23.2510   38.9690 C   0  0  0  0  0  0  0  0  0  0  0  0
   36.3440   23.7160   39.1430 C   0  0  0  0  0  0  0  0  0  0  0  0
   37.2420   23.3170   38.1920 N   0  0  0  0  0  0  0  0  0  0  0  0
   36.8790   22.5270   37.1580 C   0  0  0  0  0  0  0  0  0  0  0  0
   35.6280   22.0900   37.0030 N   0  0  0  0  0  0  0  0  0  0  0  0
   33.6870   22.0940   37.7800 H   0  0  0  0  0  0  0  0  0  0  0  0
   34.3130   23.5490   39.7010 H   0  0  0  0  0  0  0  0  0  0  0  0
   37.7310   22.3300   36.5260 H   0  0  0  0  0  0  0  0  0  0  0  0
   36.7650   28.2350   40.9380 C   0  0  0  0  0  0  0  0  0  0  0  0
   35.5580   28.9140   40.8750 C   0  0  0  0  0  0  0  0  0  0  0  0
   35.8620   30.2620   40.6890 C   0  0  0  0  0  0  0  0  0  0  0  0
   37.1930   30.3560   40.6460 N   0  0  0  0  0  0  0  0  0  0  0  0
   37.7480   29.1560   40.7940 N   0  0  0  0  0  0  0  0  0  0  0  0
   34.6110   28.4140   40.9630 H   0  0  0  0  0  0  0  0  0  0  0  0
   35.0640   30.9930   40.6100 H   0  0  0  0  0  0  0  0  0  0  0  0
   37.0730   32.6580   39.9080 C   0  0  0  0  0  3  0  0  0  0  0  0
   37.8050   31.6290   40.4630 C   0  0  0  0  0  0  0  0  0  0  0  0
   39.1340   31.8510   40.8380 C   0  0  0  0  0  0  0  0  0  0  0  0
   39.6750   31.0200   41.2700 H   0  0  0  0  0  0  0  0  0  0  0  0
   39.7380   33.1000   40.6600 C   0  0  0  0  0  0  0  0  0  0  0  0
   40.9860   33.4980   40.9540 N   0  0  0  0  0  0  0  0  0  0  0  0
   41.0150   34.7940   40.5710 C   0  0  0  0  0  0  0  0  0  0  0  0
   41.8530   35.5040   40.6340 H   0  0  0  0  0  0  0  0  0  0  0  0
   39.8200   35.1990   40.0510 N   0  0  0  0  0  0  0  0  0  0  0  0
   39.0110   34.1360   40.1050 C   0  0  0  0  0  0  0  0  0  0  0  0
   37.6960   33.8800   39.7450 C   0  0  0  0  0  3  0  0  0  0  0  0
   41.7900   33.0000   41.3720 H   0  0  0  0  0  0  0  0  0  0  0  0
  1  2  1  0  0  0  0
  2  3  2  0  0  0  0
  2  7  1  0  0  0  0
  3  4  1  0  0  0  0
  4  8  1  0  0  0  0
  4  5  2  0  0  0  0
  5  9  1  0  0  0  0
  6  5  1  0  0  0  0
  6 10  1  0  0  0  0
  7  6  2  0  0  0  0
 11 12  1  0  0  0  0
 12 13  2  0  0  0  0
 12 18  1  0  0  0  0
 13  3  1  0  0  0  0
 14 13  1  0  0  0  0
 15 14  2  0  0  0  0
 16 15  1  0  0  0  0
 16 11  2  0  0  0  0
 17 11  1  0  0  0  0
 19 15  1  0  0  0  0
 20  7  1  0  0  0  0
 21 20  1  0  0  0  0
 21 25  1  0  0  0  0
 22 21  2  0  0  0  0
 23 22  1  0  0  0  0
 23 24  1  0  0  0  0
 24 20  2  0  0  0  0
 26 22  1  0  0  0  0
 27 28  1  0  0  0  0
 28 23  1  0  0  0  0
 28 29  2  0  0  0  0
 29 30  1  0  0  0  0
 31 29  1  0  0  0  0
 31 32  1  0  0  0  0
 32 38  1  0  0  0  0
 33 34  1  0  0  0  0
 33 32  1  0  0  0  0
 35 36  1  0  0  0  0
 35 33  2  0  0  0  0
 36 31  2  0  0  0  0
 37 27  2  0  0  0  0
 37 36  1  0  0  0  0
M  END
>  <minimizedAffinity>
-6.60119772

$$$$

 OpenBabel03242513003D

 38 42  0  0  0  0  0  0  0  0999 V2000
   37.6900   27.5790   39.7870 F   0  0  0  0  0  0  0  0  0  0  0  0
   37.3420   27.4140   41.0890 C   0  0  0  0  0  0  0  0  0  0  0  0
   37.1320   26.1610   41.6240 C   0  0  0  0  0  0  0  0  0  0  0  0
   36.7840   26.0920   42.9470 C   0  0  0  0  0  0  0  0  0  0  0  0
   36.6340   27.1770   43.7600 C   0  0  0  0  0  0  0  0  0  0  0  0
   36.8530   28.4030   43.1840 C   0  0  0  0  0  0  0  0  0  0  0  0
   37.2040   28.5450   41.8640 C   0  0  0  0  0  0  0  0  0  0  0  0
   36.6250   25.0970   43.3420 H   0  0  0  0  0  0  0  0  0  0  0  0
   36.3570   27.0370   44.7960 H   0  0  0  0  0  0  0  0  0  0  0  0
   36.7440   29.2890   43.8000 H   0  0  0  0  0  0  0  0  0  0  0  0
   36.4250   23.2660   39.2670 C   0  0  0  0  0  0  0  0  0  0  0  0
   36.2270   24.3710   40.1100 C   0  0  0  0  0  0  0  0  0  0  0  0
   37.2970   25.0090   40.7400 C   0  0  0  0  0  0  0  0  0  0  0  0
   38.5310   24.4820   40.4800 N   0  0  0  0  0  0  0  0  0  0  0  0
   38.6920   23.4160   39.6650 C   0  0  0  0  0  0  0  0  0  0  0  0
   37.6600   22.8160   39.0680 N   0  0  0  0  0  0  0  0  0  0  0  0
   35.5880   22.8030   38.8010 H   0  0  0  0  0  0  0  0  0  0  0  0
   35.2450   24.7640   40.2960 H   0  0  0  0  0  0  0  0  0  0  0  0
   39.7370   23.1590   39.5930 H   0  0  0  0  0  0  0  0  0  0  0  0
   37.4340   29.8580   41.2670 C   0  0  0  0  0  0  0  0  0  0  0  0
   36.4680   30.7980   40.9420 C   0  0  0  0  0  0  0  0  0  0  0  0
   37.1350   31.8950   40.4000 C   0  0  0  0  0  0  0  0  0  0  0  0
   38.4370   31.5990   40.4130 N   0  0  0  0  0  0  0  0  0  0  0  0
   38.6340   30.3880   40.9270 N   0  0  0  0  0  0  0  0  0  0  0  0
   35.4200   30.6280   41.1110 H   0  0  0  0  0  0  0  0  0  0  0  0
   36.5760   32.7630   40.0690 H   0  0  0  0  0  0  0  0  0  0  0  0
   39.5350   33.7520   40.5610 C   0  0  0  0  0  3  0  0  0  0  0  0
   39.3800   32.5430   39.9140 C   0  0  0  0  0  0  0  0  0  0  0  0
   40.1490   32.2640   38.7790 C   0  0  0  0  0  0  0  0  0  0  0  0
   39.9990   31.3060   38.3000 H   0  0  0  0  0  0  0  0  0  0  0  0
   41.0750   33.1880   38.2870 C   0  0  0  0  0  0  0  0  0  0  0  0
   41.8930   33.1000   37.2250 N   0  0  0  0  0  0  0  0  0  0  0  0
   42.5590   34.2760   37.2260 C   0  0  0  0  0  0  0  0  0  0  0  0
   43.3310   34.6220   36.5220 H   0  0  0  0  0  0  0  0  0  0  0  0
   42.1720   35.0810   38.2570 N   0  0  0  0  0  0  0  0  0  0  0  0
   41.2380   34.4010   38.9290 C   0  0  0  0  0  0  0  0  0  0  0  0
   40.4580   34.6440   40.0510 C   0  0  0  0  0  3  0  0  0  0  0  0
   42.0400   32.3520   36.5260 H   0  0  0  0  0  0  0  0  0  0  0  0
  1  2  1  0  0  0  0
  2  3  2  0  0  0  0
  2  7  1  0  0  0  0
  3  4  1  0  0  0  0
  4  8  1  0  0  0  0
  4  5  2  0  0  0  0
  5  9  1  0  0  0  0
  6  5  1  0  0  0  0
  6 10  1  0  0  0  0
  7  6  2  0  0  0  0
 11 12  1  0  0  0  0
 12 18  1  0  0  0  0
 12 13  2  0  0  0  0
 13  3  1  0  0  0  0
 14 13  1  0  0  0  0
 15 14  2  0  0  0  0
 16 11  2  0  0  0  0
 16 15  1  0  0  0  0
 17 11  1  0  0  0  0
 19 15  1  0  0  0  0
 20  7  1  0  0  0  0
 21 25  1  0  0  0  0
 21 20  1  0  0  0  0
 22 23  1  0  0  0  0
 22 21  2  0  0  0  0
 23 24  1  0  0  0  0
 24 20  2  0  0  0  0
 26 22  1  0  0  0  0
 28 23  1  0  0  0  0
 28 27  2  0  0  0  0
 29 28  1  0  0  0  0
 30 29  1  0  0  0  0
 31 29  2  0  0  0  0
 31 36  1  0  0  0  0
 32 33  1  0  0  0  0
 32 31  1  0  0  0  0
 33 35  2  0  0  0  0
 34 33  1  0  0  0  0
 35 36  1  0  0  0  0
 36 37  2  0  0  0  0
 37 27  1  0  0  0  0
 38 32  1  0  0  0  0
M  END
>  <minimizedAffinity>
-6.51501417

$$$$

 OpenBabel03242513003D

 38 42  0  0  0  0  0  0  0  0999 V2000
   36.1050   26.2440   39.1750 F   0  0  0  0  0  0  0  0  0  0  0  0
   36.7400   25.6120   40.1960 C   0  0  0  0  0  0  0  0  0  0  0  0
   36.7850   24.2360   40.2740 C   0  0  0  0  0  0  0  0  0  0  0  0
   37.4490   23.6880   41.3380 C   0  0  0  0  0  0  0  0  0  0  0  0
   38.0620   24.4130   42.3180 C   0  0  0  0  0  0  0  0  0  0  0  0
   37.9910   25.7780   42.1990 C   0  0  0  0  0  0  0  0  0  0  0  0
   37.3420   26.3930   41.1580 C   0  0  0  0  0  0  0  0  0  0  0  0
   37.4700   22.6060   41.3760 H   0  0  0  0  0  0  0  0  0  0  0  0
   38.5660   23.9020   43.1280 H   0  0  0  0  0  0  0  0  0  0  0  0
   38.4670   26.3870   42.9590 H   0  0  0  0  0  0  0  0  0  0  0  0
   36.0860   22.3860   37.0290 C   0  0  0  0  0  0  0  0  0  0  0  0
   36.7550   23.1190   38.0230 C   0  0  0  0  0  0  0  0  0  0  0  0
   36.1240   23.4740   39.2160 C   0  0  0  0  0  0  0  0  0  0  0  0
   34.8260   23.0620   39.3400 N   0  0  0  0  0  0  0  0  0  0  0  0
   34.2070   22.3580   38.3670 C   0  0  0  0  0  0  0  0  0  0  0  0
   34.8230   22.0240   37.2300 N   0  0  0  0  0  0  0  0  0  0  0  0
   36.5970   22.1310   36.1310 H   0  0  0  0  0  0  0  0  0  0  0  0
   37.7750   23.4290   37.8980 H   0  0  0  0  0  0  0  0  0  0  0  0
   33.1940   22.1330   38.6600 H   0  0  0  0  0  0  0  0  0  0  0  0
   37.2760   27.8490   41.0460 C   0  0  0  0  0  0  0  0  0  0  0  0
   36.1830   28.6500   41.3370 C   0  0  0  0  0  0  0  0  0  0  0  0
   36.5680   29.9670   41.0880 C   0  0  0  0  0  0  0  0  0  0  0  0
   37.8350   29.9250   40.6680 N   0  0  0  0  0  0  0  0  0  0  0  0
   38.2740   28.6700   40.6380 N   0  0  0  0  0  0  0  0  0  0  0  0
   35.2500   28.2470   41.6860 H   0  0  0  0  0  0  0  0  0  0  0  0
   35.8660   30.7790   41.2470 H   0  0  0  0  0  0  0  0  0  0  0  0
   39.4080   31.1430   39.2880 C   0  0  0  0  0  3  0  0  0  0  0  0
   38.5070   31.1360   40.3330 C   0  0  0  0  0  0  0  0  0  0  0  0
   38.2670   32.3150   41.0460 C   0  0  0  0  0  0  0  0  0  0  0  0
   37.5540   32.2690   41.8580 H   0  0  0  0  0  0  0  0  0  0  0  0
   38.9250   33.5050   40.7190 C   0  0  0  0  0  0  0  0  0  0  0  0
   38.8260   34.7210   41.2810 N   0  0  0  0  0  0  0  0  0  0  0  0
   39.6830   35.4820   40.5650 C   0  0  0  0  0  0  0  0  0  0  0  0
   39.9130   36.5520   40.6920 H   0  0  0  0  0  0  0  0  0  0  0  0
   40.3020   34.7680   39.5820 N   0  0  0  0  0  0  0  0  0  0  0  0
   39.8280   33.5210   39.6740 C   0  0  0  0  0  0  0  0  0  0  0  0
   40.0420   32.3340   38.9890 C   0  0  0  0  0  3  0  0  0  0  0  0
   38.2600   35.0740   42.0710 H   0  0  0  0  0  0  0  0  0  0  0  0
  1  2  1  0  0  0  0
  2  3  2  0  0  0  0
  2  7  1  0  0  0  0
  3  4  1  0  0  0  0
  4  8  1  0  0  0  0
  4  5  2  0  0  0  0
  5  9  1  0  0  0  0
  6  5  1  0  0  0  0
  6 10  1  0  0  0  0
  7  6  2  0  0  0  0
 11 16  2  0  0  0  0
 11 12  1  0  0  0  0
 12 13  2  0  0  0  0
 13 14  1  0  0  0  0
 13  3  1  0  0  0  0
 15 19  1  0  0  0  0
 15 14  2  0  0  0  0
 16 15  1  0  0  0  0
 17 11  1  0  0  0  0
 18 12  1  0  0  0  0
 20  7  1  0  0  0  0
 20 21  1  0  0  0  0
 21 25  1  0  0  0  0
 22 26  1  0  0  0  0
 22 21  2  0  0  0  0
 23 22  1  0  0  0  0
 24 23  1  0  0  0  0
 24 20  2  0  0  0  0
 27 28  1  0  0  0  0
 28 23  1  0  0  0  0
 28 29  2  0  0  0  0
 29 30  1  0  0  0  0
 31 29  1  0  0  0  0
 31 32  1  0  0  0  0
 32 38  1  0  0  0  0
 33 34  1  0  0  0  0
 33 32  1  0  0  0  0
 35 36  1  0  0  0  0
 35 33  2  0  0  0  0
 36 31  2  0  0  0  0
 37 27  2  0  0  0  0
 37 36  1  0  0  0  0
M  END
>  <minimizedAffinity>
-6.45798635

$$$$

 OpenBabel03242513003D

 38 42  0  0  0  0  0  0  0  0999 V2000
   39.3910   26.6660   39.6010 F   0  0  0  0  0  0  0  0  0  0  0  0
   38.5620   25.9220   40.3770 C   0  0  0  0  0  0  0  0  0  0  0  0
   38.3060   24.5970   40.0930 C   0  0  0  0  0  0  0  0  0  0  0  0
   37.4570   23.9260   40.9320 C   0  0  0  0  0  0  0  0  0  0  0  0
   36.8530   24.4820   42.0210 C   0  0  0  0  0  0  0  0  0  0  0  0
   37.1370   25.8030   42.2650 C   0  0  0  0  0  0  0  0  0  0  0  0
   37.9790   26.5350   41.4650 C   0  0  0  0  0  0  0  0  0  0  0  0
   37.2740   22.8870   40.6870 H   0  0  0  0  0  0  0  0  0  0  0  0
   36.1950   23.8830   42.6350 H   0  0  0  0  0  0  0  0  0  0  0  0
   36.6760   26.2790   43.1230 H   0  0  0  0  0  0  0  0  0  0  0  0
   38.9620   23.2220   36.6120 C   0  0  0  0  0  0  0  0  0  0  0  0
   38.2990   23.7840   37.7150 C   0  0  0  0  0  0  0  0  0  0  0  0
   38.9600   24.0150   38.9230 C   0  0  0  0  0  0  0  0  0  0  0  0
   40.2800   23.6570   38.9490 N   0  0  0  0  0  0  0  0  0  0  0  0
   40.8920   23.1180   37.8720 C   0  0  0  0  0  0  0  0  0  0  0  0
   40.2480   22.9030   36.7220 N   0  0  0  0  0  0  0  0  0  0  0  0
   38.4290   23.0600   35.7050 H   0  0  0  0  0  0  0  0  0  0  0  0
   37.2620   24.0550   37.6660 H   0  0  0  0  0  0  0  0  0  0  0  0
   41.9250   22.9090   38.0990 H   0  0  0  0  0  0  0  0  0  0  0  0
   38.2700   27.9400   41.7390 C   0  0  0  0  0  0  0  0  0  0  0  0
   38.8170   28.4570   42.9040 C   0  0  0  0  0  0  0  0  0  0  0  0
   38.9190   29.8360   42.7260 C   0  0  0  0  0  0  0  0  0  0  0  0
   38.4480   30.1040   41.5050 N   0  0  0  0  0  0  0  0  0  0  0  0
   38.0570   28.9840   40.9020 N   0  0  0  0  0  0  0  0  0  0  0  0
   39.0840   27.8360   43.7400 H   0  0  0  0  0  0  0  0  0  0  0  0
   39.3240   30.4590   43.5170 H   0  0  0  0  0  0  0  0  0  0  0  0
   37.3160   31.9110   40.3580 C   0  0  0  0  0  3  0  0  0  0  0  0
   38.4250   31.4490   41.0380 C   0  0  0  0  0  0  0  0  0  0  0  0
   39.5080   32.3070   41.2550 C   0  0  0  0  0  0  0  0  0  0  0  0
   40.3580   31.9080   41.7920 H   0  0  0  0  0  0  0  0  0  0  0  0
   39.4880   33.6280   40.7980 C   0  0  0  0  0  0  0  0  0  0  0  0
   40.4210   34.5880   40.9110 N   0  0  0  0  0  0  0  0  0  0  0  0
   39.8700   35.6540   40.2890 C   0  0  0  0  0  0  0  0  0  0  0  0
   40.2990   36.6580   40.1500 H   0  0  0  0  0  0  0  0  0  0  0  0
   38.6280   35.3740   39.7990 N   0  0  0  0  0  0  0  0  0  0  0  0
   38.3820   34.0990   40.1180 C   0  0  0  0  0  0  0  0  0  0  0  0
   37.3260   33.2200   39.9190 C   0  0  0  0  0  3  0  0  0  0  0  0
   41.3580   34.5940   41.3490 H   0  0  0  0  0  0  0  0  0  0  0  0
  1  2  1  0  0  0  0
  2  7  1  0  0  0  0
  3  2  2  0  0  0  0
  3  4  1  0  0  0  0
  4  5  2  0  0  0  0
  5  6  1  0  0  0  0
  5  9  1  0  0  0  0
  6 10  1  0  0  0  0
  7 20  1  0  0  0  0
  7  6  2  0  0  0  0
  8  4  1  0  0  0  0
 11 16  2  0  0  0  0
 11 12  1  0  0  0  0
 12 13  2  0  0  0  0
 13 14  1  0  0  0  0
 13  3  1  0  0  0  0
 15 19  1  0  0  0  0
 15 14  2  0  0  0  0
 16 15  1  0  0  0  0
 17 11  1  0  0  0  0
 18 12  1  0  0  0  0
 20 21  1  0  0  0  0
 21 25  1  0  0  0  0
 22 21  2  0  0  0  0
 22 26  1  0  0  0  0
 23 22  1  0  0  0  0
 24 23  1  0  0  0  0
 24 20  2  0  0  0  0
 27 28  1  0  0  0  0
 28 29  2  0  0  0  0
 28 23  1  0  0  0  0
 29 30  1  0  0  0  0
 31 32  1  0  0  0  0
 31 29  1  0  0  0  0
 32 38  1  0  0  0  0
 33 32  1  0  0  0  0
 34 33  1  0  0  0  0
 35 36  1  0  0  0  0
 35 33  2  0  0  0  0
 36 31  2  0  0  0  0
 37 36  1  0  0  0  0
 37 27  2  0  0  0  0
M  END
>  <minimizedAffinity>
-6.26872206

$$$$

 OpenBabel03242513003D

 38 42  0  0  0  0  0  0  0  0999 V2000
   40.7120   32.0090   39.0700 F   0  0  0  0  0  0  0  0  0  0  0  0
   40.2600   33.2210   39.4820 C   0  0  0  0  0  0  0  0  0  0  0  0
   41.1170   34.2880   39.6530 C   0  0  0  0  0  0  0  0  0  0  0  0
   40.5710   35.4720   40.0710 C   0  0  0  0  0  0  0  0  0  0  0  0
   39.2440   35.6590   40.3290 C   0  0  0  0  0  0  0  0  0  0  0  0
   38.4310   34.5690   40.1460 C   0  0  0  0  0  0  0  0  0  0  0  0
   38.9110   33.3530   39.7280 C   0  0  0  0  0  0  0  0  0  0  0  0
   41.2650   36.2940   40.1960 H   0  0  0  0  0  0  0  0  0  0  0  0
   38.8920   36.6280   40.6570 H   0  0  0  0  0  0  0  0  0  0  0  0
   37.3690   34.6800   40.3400 H   0  0  0  0  0  0  0  0  0  0  0  0
   44.8540   33.7430   40.0640 C   0  0  0  0  0  0  0  0  0  0  0  0
   43.5000   33.9500   40.3740 C   0  0  0  0  0  0  0  0  0  0  0  0
   42.5350   34.0720   39.3720 C   0  0  0  0  0  0  0  0  0  0  0  0
   43.0010   33.9780   38.0910 N   0  0  0  0  0  0  0  0  0  0  0  0
   44.3110   33.7790   37.8230 C   0  0  0  0  0  0  0  0  0  0  0  0
   45.2240   33.6640   38.7900 N   0  0  0  0  0  0  0  0  0  0  0  0
   45.5650   33.6540   40.8520 H   0  0  0  0  0  0  0  0  0  0  0  0
   43.1620   34.0200   41.3900 H   0  0  0  0  0  0  0  0  0  0  0  0
   44.4690   33.7350   36.7570 H   0  0  0  0  0  0  0  0  0  0  0  0
   38.0300   32.2030   39.5380 C   0  0  0  0  0  0  0  0  0  0  0  0
   37.4410   31.4410   40.5360 C   0  0  0  0  0  0  0  0  0  0  0  0
   36.6880   30.4550   39.9000 C   0  0  0  0  0  0  0  0  0  0  0  0
   36.8370   30.6410   38.5860 N   0  0  0  0  0  0  0  0  0  0  0  0
   37.6340   31.6800   38.3520 N   0  0  0  0  0  0  0  0  0  0  0  0
   37.5910   31.6440   41.5800 H   0  0  0  0  0  0  0  0  0  0  0  0
   36.1310   29.7320   40.4880 H   0  0  0  0  0  0  0  0  0  0  0  0
   34.9980   29.1610   38.0490 C   0  0  0  0  0  3  0  0  0  0  0  0
   36.1760   29.7730   37.6710 C   0  0  0  0  0  0  0  0  0  0  0  0
   36.7020   29.5310   36.3980 C   0  0  0  0  0  0  0  0  0  0  0  0
   37.6260   30.0290   36.1390 H   0  0  0  0  0  0  0  0  0  0  0  0
   36.0550   28.6800   35.4970 C   0  0  0  0  0  0  0  0  0  0  0  0
   36.4020   28.3310   34.2480 N   0  0  0  0  0  0  0  0  0  0  0  0
   35.4170   27.4910   33.8570 C   0  0  0  0  0  0  0  0  0  0  0  0
   35.3090   26.9700   32.8940 H   0  0  0  0  0  0  0  0  0  0  0  0
   34.4780   27.3170   34.8310 N   0  0  0  0  0  0  0  0  0  0  0  0
   34.8740   28.0640   35.8670 C   0  0  0  0  0  0  0  0  0  0  0  0
   34.3820   28.3260   37.1370 C   0  0  0  0  0  3  0  0  0  0  0  0
   37.2080   28.5930   33.6550 H   0  0  0  0  0  0  0  0  0  0  0  0
  1  2  1  0  0  0  0
  2  3  2  0  0  0  0
  2  7  1  0  0  0  0
  3  4  1  0  0  0  0
  4  8  1  0  0  0  0
  4  5  2  0  0  0  0
  5  9  1  0  0  0  0
  6  5  1  0  0  0  0
  6 10  1  0  0  0  0
  7  6  2  0  0  0  0
 11 12  1  0  0  0  0
 11 17  1  0  0  0  0
 12 18  1  0  0  0  0
 13  3  1  0  0  0  0
 13 12  2  0  0  0  0
 14 13  1  0  0  0  0
 15 14  2  0  0  0  0
 15 16  1  0  0  0  0
 16 11  2  0  0  0  0
 19 15  1  0  0  0  0
 20  7  1  0  0  0  0
 20 21  1  0  0  0  0
 21 25  1  0  0  0  0
 22 26  1  0  0  0  0
 22 21  2  0  0  0  0
 23 22  1  0  0  0  0
 24 23  1  0  0  0  0
 24 20  2  0  0  0  0
 28 27  1  0  0  0  0
 28 23  1  0  0  0  0
 29 28  2  0  0  0  0
 30 29  1  0  0  0  0
 31 36  2  0  0  0  0
 31 29  1  0  0  0  0
 32 31  1  0  0  0  0
 33 32  1  0  0  0  0
 33 35  2  0  0  0  0
 34 33  1  0  0  0  0
 35 36  1  0  0  0  0
 36 37  1  0  0  0  0
 37 27  2  0  0  0  0
 38 32  1  0  0  0  0
M  END
>  <minimizedAffinity>
-6.18524408

$$$$

 OpenBabel03242513003D

 38 42  0  0  0  0  0  0  0  0999 V2000
   37.6030   26.8250   40.1430 F   0  0  0  0  0  0  0  0  0  0  0  0
   36.6300   26.7460   39.2000 C   0  0  0  0  0  0  0  0  0  0  0  0
   36.3510   25.5610   38.5510 C   0  0  0  0  0  0  0  0  0  0  0  0
   35.3530   25.5770   37.6150 C   0  0  0  0  0  0  0  0  0  0  0  0
   34.6230   26.6820   37.2870 C   0  0  0  0  0  0  0  0  0  0  0  0
   34.9360   27.8380   37.9580 C   0  0  0  0  0  0  0  0  0  0  0  0
   35.9250   27.8930   38.9080 C   0  0  0  0  0  0  0  0  0  0  0  0
   35.1530   24.6340   37.1210 H   0  0  0  0  0  0  0  0  0  0  0  0
   33.8490   26.6110   36.5340 H   0  0  0  0  0  0  0  0  0  0  0  0
   34.3760   28.7370   37.7240 H   0  0  0  0  0  0  0  0  0  0  0  0
   37.6660   22.4920   40.3640 C   0  0  0  0  0  0  0  0  0  0  0  0
   36.8840   23.6140   40.0480 C   0  0  0  0  0  0  0  0  0  0  0  0
   37.1410   24.3860   38.9140 C   0  0  0  0  0  0  0  0  0  0  0  0
   38.1970   23.9730   38.1480 N   0  0  0  0  0  0  0  0  0  0  0  0
   38.9320   22.8890   38.4770 C   0  0  0  0  0  0  0  0  0  0  0  0
   38.6750   22.1590   39.5650 N   0  0  0  0  0  0  0  0  0  0  0  0
   37.4430   21.9240   41.2360 H   0  0  0  0  0  0  0  0  0  0  0  0
   36.0610   23.9160   40.6680 H   0  0  0  0  0  0  0  0  0  0  0  0
   39.7120   22.7350   37.7480 H   0  0  0  0  0  0  0  0  0  0  0  0
   36.2440   29.1320   39.6140 C   0  0  0  0  0  0  0  0  0  0  0  0
   35.7310   29.5420   40.8350 C   0  0  0  0  0  0  0  0  0  0  0  0
   36.3100   30.7770   41.1230 C   0  0  0  0  0  0  0  0  0  0  0  0
   37.1250   31.0680   40.1070 N   0  0  0  0  0  0  0  0  0  0  0  0
   37.0990   30.0970   39.1970 N   0  0  0  0  0  0  0  0  0  0  0  0
   35.0220   28.9530   41.3880 H   0  0  0  0  0  0  0  0  0  0  0  0
   36.0540   31.2970   42.0410 H   0  0  0  0  0  0  0  0  0  0  0  0
   37.2620   33.4490   39.6870 C   0  0  0  0  0  3  0  0  0  0  0  0
   37.8640   32.2860   40.1220 C   0  0  0  0  0  0  0  0  0  0  0  0
   39.1890   32.3200   40.5700 C   0  0  0  0  0  0  0  0  0  0  0  0
   39.6250   31.3880   40.9030 H   0  0  0  0  0  0  0  0  0  0  0  0
   39.9160   33.5140   40.5860 C   0  0  0  0  0  0  0  0  0  0  0  0
   41.1810   33.7410   40.9760 N   0  0  0  0  0  0  0  0  0  0  0  0
   41.3530   35.0660   40.7760 C   0  0  0  0  0  0  0  0  0  0  0  0
   42.2510   35.6740   40.9650 H   0  0  0  0  0  0  0  0  0  0  0  0
   40.2290   35.6560   40.2740 N   0  0  0  0  0  0  0  0  0  0  0  0
   39.3210   34.6830   40.1530 C   0  0  0  0  0  0  0  0  0  0  0  0
   38.0060   34.6120   39.7150 C   0  0  0  0  0  3  0  0  0  0  0  0
   41.9130   33.1130   41.3500 H   0  0  0  0  0  0  0  0  0  0  0  0
  2  1  1  0  0  0  0
  3 13  1  0  0  0  0
  3  2  2  0  0  0  0
  4  3  1  0  0  0  0
  5  4  2  0  0  0  0
  5  6  1  0  0  0  0
  6  7  2  0  0  0  0
  7  2  1  0  0  0  0
  7 20  1  0  0  0  0
  8  4  1  0  0  0  0
  9  5  1  0  0  0  0
 10  6  1  0  0  0  0
 11 17  1  0  0  0  0
 12 11  1  0  0  0  0
 12 18  1  0  0  0  0
 13 12  2  0  0  0  0
 14 15  2  0  0  0  0
 14 13  1  0  0  0  0
 15 16  1  0  0  0  0
 16 11  2  0  0  0  0
 19 15  1  0  0  0  0
 20 21  1  0  0  0  0
 21 22  2  0  0  0  0
 21 25  1  0  0  0  0
 22 26  1  0  0  0  0
 23 28  1  0  0  0  0
 23 22  1  0  0  0  0
 24 20  2  0  0  0  0
 24 23  1  0  0  0  0
 27 37  2  0  0  0  0
 27 28  1  0  0  0  0
 28 29  2  0  0  0  0
 29 31  1  0  0  0  0
 29 30  1  0  0  0  0
 31 32  1  0  0  0  0
 32 38  1  0  0  0  0
 33 34  1  0  0  0  0
 33 32  1  0  0  0  0
 35 33  2  0  0  0  0
 36 35  1  0  0  0  0
 36 31  2  0  0  0  0
 37 36  1  0  0  0  0
M  END
>  <minimizedAffinity>
-6.18204403

$$$$

 OpenBabel03242513003D

 38 42  0  0  0  0  0  0  0  0999 V2000
   39.4030   26.9370   40.9580 F   0  0  0  0  0  0  0  0  0  0  0  0
   38.4900   27.1860   41.9310 C   0  0  0  0  0  0  0  0  0  0  0  0
   37.2900   26.5070   41.9840 C   0  0  0  0  0  0  0  0  0  0  0  0
   36.4310   26.8250   43.0010 C   0  0  0  0  0  0  0  0  0  0  0  0
   36.6860   27.7650   43.9570 C   0  0  0  0  0  0  0  0  0  0  0  0
   37.8910   28.4140   43.8650 C   0  0  0  0  0  0  0  0  0  0  0  0
   38.7990   28.1450   42.8710 C   0  0  0  0  0  0  0  0  0  0  0  0
   35.4970   26.2780   43.0200 H   0  0  0  0  0  0  0  0  0  0  0  0
   35.9530   27.9570   44.7290 H   0  0  0  0  0  0  0  0  0  0  0  0
   38.1290   29.1670   44.6090 H   0  0  0  0  0  0  0  0  0  0  0  0
   36.9830   23.2040   40.1320 C   0  0  0  0  0  0  0  0  0  0  0  0
   37.2420   24.1380   41.1480 C   0  0  0  0  0  0  0  0  0  0  0  0
   37.0330   25.5040   40.9520 C   0  0  0  0  0  0  0  0  0  0  0  0
   36.5660   25.8570   39.7170 N   0  0  0  0  0  0  0  0  0  0  0  0
   36.3260   24.9360   38.7580 C   0  0  0  0  0  0  0  0  0  0  0  0
   36.5300   23.6320   38.9580 N   0  0  0  0  0  0  0  0  0  0  0  0
   37.1530   22.1690   40.3140 H   0  0  0  0  0  0  0  0  0  0  0  0
   37.6080   23.8320   42.1090 H   0  0  0  0  0  0  0  0  0  0  0  0
   35.9640   25.4180   37.8630 H   0  0  0  0  0  0  0  0  0  0  0  0
   40.0780   28.8460   42.7880 C   0  0  0  0  0  0  0  0  0  0  0  0
   41.3340   28.3000   43.0070 C   0  0  0  0  0  0  0  0  0  0  0  0
   42.2590   29.3260   42.8210 C   0  0  0  0  0  0  0  0  0  0  0  0
   41.5630   30.4220   42.5080 N   0  0  0  0  0  0  0  0  0  0  0  0
   40.2610   30.1540   42.4830 N   0  0  0  0  0  0  0  0  0  0  0  0
   41.4750   27.2670   43.2670 H   0  0  0  0  0  0  0  0  0  0  0  0
   43.3200   29.1310   42.9410 H   0  0  0  0  0  0  0  0  0  0  0  0
   41.8010   32.4790   41.2530 C   0  0  0  0  0  3  0  0  0  0  0  0
   42.2490   31.6450   42.2570 C   0  0  0  0  0  0  0  0  0  0  0  0
   43.3670   32.0130   43.0130 C   0  0  0  0  0  0  0  0  0  0  0  0
   43.6870   31.3330   43.7910 H   0  0  0  0  0  0  0  0  0  0  0  0
   44.0420   33.2130   42.7700 C   0  0  0  0  0  0  0  0  0  0  0  0
   45.1190   33.7300   43.3820 N   0  0  0  0  0  0  0  0  0  0  0  0
   45.3320   34.9000   42.7400 C   0  0  0  0  0  0  0  0  0  0  0  0
   46.1200   35.6450   42.9250 H   0  0  0  0  0  0  0  0  0  0  0  0
   44.4150   35.1130   41.7520 N   0  0  0  0  0  0  0  0  0  0  0  0
   43.6000   34.0540   41.7670 C   0  0  0  0  0  0  0  0  0  0  0  0
   42.4880   33.6580   41.0370 C   0  0  0  0  0  3  0  0  0  0  0  0
   45.7040   33.3830   44.1620 H   0  0  0  0  0  0  0  0  0  0  0  0
  1  2  1  0  0  0  0
  2  3  2  0  0  0  0
  2  7  1  0  0  0  0
  3  4  1  0  0  0  0
  4  8  1  0  0  0  0
  4  5  2  0  0  0  0
  5  9  1  0  0  0  0
  6  5  1  0  0  0  0
  6 10  1  0  0  0  0
  7  6  2  0  0  0  0
 11 17  1  0  0  0  0
 11 12  1  0  0  0  0
 12 18  1  0  0  0  0
 13 12  2  0  0  0  0
 13  3  1  0  0  0  0
 14 13  1  0  0  0  0
 15 16  1  0  0  0  0
 15 14  2  0  0  0  0
 16 11  2  0  0  0  0
 19 15  1  0  0  0  0
 20  7  1  0  0  0  0
 20 21  1  0  0  0  0
 21 25  1  0  0  0  0
 22 26  1  0  0  0  0
 22 21  2  0  0  0  0
 23 22  1  0  0  0  0
 24 23  1  0  0  0  0
 24 20  2  0  0  0  0
 27 28  1  0  0  0  0
 28 23  1  0  0  0  0
 28 29  2  0  0  0  0
 29 30  1  0  0  0  0
 31 29  1  0  0  0  0
 31 32  1  0  0  0  0
 32 38  1  0  0  0  0
 33 34  1  0  0  0  0
 33 32  1  0  0  0  0
 35 36  1  0  0  0  0
 35 33  2  0  0  0  0
 36 31  2  0  0  0  0
 37 27  2  0  0  0  0
 37 36  1  0  0  0  0
M  END
>  <minimizedAffinity>
-6.0647459

$$$$
