
 OpenBabel03242520023D

 28 31  0  0  0  0  0  0  0  0999 V2000
   47.1530   31.1840   45.6910 C   0  0  0  0  0  0  0  0  0  0  0  0
   47.9100   30.1200   45.1890 C   0  0  0  0  0  0  0  0  0  0  0  0
   48.3800   30.4850   43.9670 C   0  0  0  0  0  0  0  0  0  0  0  0
   47.9270   31.7280   43.7250 N   0  0  0  0  0  0  0  0  0  0  0  0
   47.1910   32.1450   44.7620 N   0  0  0  0  0  0  0  0  0  0  0  0
   48.1160   29.1620   45.6460 H   0  0  0  0  0  0  0  0  0  0  0  0
   48.9930   29.9970   43.2280 H   0  0  0  0  0  0  0  0  0  0  0  0
   48.1860   34.0430   42.8710 C   0  0  0  0  0  0  0  0  0  0  0  0
   48.0470   32.6680   42.6610 C   0  0  0  0  0  0  0  0  0  0  0  0
   48.0210   32.1810   41.3560 C   0  0  0  0  0  0  0  0  0  0  0  0
   47.9140   31.1120   41.1310 H   0  0  0  0  0  0  0  0  0  0  0  0
   48.1310   33.0250   40.2500 C   0  0  0  0  0  0  0  0  0  0  0  0
   48.1350   32.8090   38.9240 N   0  0  0  0  0  0  0  0  0  0  0  0
   48.2680   33.9820   38.3040 C   0  0  0  0  0  0  0  0  0  0  0  0
   48.3050   34.1300   37.2280 H   0  0  0  0  0  0  0  0  0  0  0  0
   48.3500   34.9410   39.2600 N   0  0  0  0  0  0  0  0  0  0  0  0
   48.2660   34.3630   40.4840 C   0  0  0  0  0  0  0  0  0  0  0  0
   48.2950   34.8820   41.7670 C   0  0  0  0  0  0  0  0  0  0  0  0
   48.0490   31.9020   38.4300 H   0  0  0  0  0  0  0  0  0  0  0  0
   45.9160   32.3590   48.9430 C   0  0  0  0  0  0  0  0  0  0  0  0
   45.1840   31.2490   49.3980 C   0  0  0  0  0  0  0  0  0  0  0  0
   45.1170   30.0880   48.5740 C   0  0  0  0  0  0  0  0  0  0  0  0
   45.7740   30.1240   47.3810 N   0  0  0  0  0  0  0  0  0  0  0  0
   46.4700   31.2120   46.9800 C   0  0  0  0  0  0  0  0  0  0  0  0
   46.5400   32.3190   47.7510 N   0  0  0  0  0  0  0  0  0  0  0  0
   46.0120   33.2600   49.5020 H   0  0  0  0  0  0  0  0  0  0  0  0
   44.6870   31.2920   50.3560 H   0  0  0  0  0  0  0  0  0  0  0  0
   44.5560   29.2280   48.9150 H   0  0  0  0  0  0  0  0  0  0  0  0
  1 24  1  0  0  0  0
  2  6  1  0  0  0  0
  2  1  1  0  0  0  0
  3  2  2  0  0  0  0
  4  3  1  0  0  0  0
  4  5  1  0  0  0  0
  5  1  2  0  0  0  0
  7  3  1  0  0  0  0
  9  8  1  0  0  0  0
  9  4  1  0  0  0  0
 10  9  2  0  0  0  0
 11 10  1  0  0  0  0
 12 17  2  0  0  0  0
 12 10  1  0  0  0  0
 13 12  1  0  0  0  0
 14 13  1  0  0  0  0
 14 16  2  0  0  0  0
 15 14  1  0  0  0  0
 16 17  1  0  0  0  0
 17 18  1  0  0  0  0
 18  8  2  0  0  0  0
 19 13  1  0  0  0  0
 20 21  1  0  0  0  0
 20 26  1  0  0  0  0
 21 27  1  0  0  0  0
 22 28  1  0  0  0  0
 22 21  2  0  0  0  0
 23 22  1  0  0  0  0
 24 23  2  0  0  0  0
 24 25  1  0  0  0  0
 25 20  2  0  0  0  0
M  END
>  <minimizedAffinity>
-4.91772175

>  <minimizedRMSD>
9.2850771

$$$$
