
 OpenBabel03252509103D

 44 48  0  0  0  0  0  0  0  0999 V2000
   35.9620   27.7870   38.9080 C   0  0  0  0  0  0  0  0  0  0  0  0
   35.6500   28.5080   40.0230 C   0  0  0  0  0  0  0  0  0  0  0  0
   34.4710   29.2330   40.0630 C   0  0  0  0  0  0  0  0  0  0  0  0
   33.6120   29.2300   38.9880 C   0  0  0  0  0  0  0  0  0  0  0  0
   33.8930   28.5070   37.8320 C   0  0  0  0  0  0  0  0  0  0  0  0
   35.0910   27.7830   37.8150 C   0  0  0  0  0  0  0  0  0  0  0  0
   34.2010   29.8140   40.9390 H   0  0  0  0  0  0  0  0  0  0  0  0
   32.6850   29.7580   38.9340 H   0  0  0  0  0  0  0  0  0  0  0  0
   33.2870   28.4460   36.9480 H   0  0  0  0  0  0  0  0  0  0  0  0
   35.3410   27.2070   36.9260 H   0  0  0  0  0  0  0  0  0  0  0  0
   39.5190   30.7130   42.6350 Cl  0  0  0  0  0  0  0  0  0  0  0  0
   38.2440   29.5410   42.4200 C   0  0  0  0  0  0  0  0  0  0  0  0
   37.4800   29.5350   41.2970 C   0  0  0  0  0  0  0  0  0  0  0  0
   36.4830   28.5700   41.2160 C   0  0  0  0  0  0  0  0  0  0  0  0
   36.2700   27.6630   42.2220 C   0  0  0  0  0  0  0  0  0  0  0  0
   37.0420   27.6820   43.3390 C   0  0  0  0  0  0  0  0  0  0  0  0
   38.0400   28.6340   43.4340 C   0  0  0  0  0  0  0  0  0  0  0  0
   35.4740   26.9350   42.1020 H   0  0  0  0  0  0  0  0  0  0  0  0
   36.8430   26.9530   44.1030 H   0  0  0  0  0  0  0  0  0  0  0  0
   38.6350   28.6200   44.3370 H   0  0  0  0  0  0  0  0  0  0  0  0
   37.2740   32.6470   39.1570 C   0  0  0  0  0  0  0  0  0  0  0  0
   37.0250   31.7050   40.1600 C   0  0  0  0  0  0  0  0  0  0  0  0
   37.7280   30.5170   40.2580 C   0  0  0  0  0  0  0  0  0  0  0  0
   38.6570   30.3660   39.3080 N   0  0  0  0  0  0  0  0  0  0  0  0
   38.9110   31.2500   38.3440 C   0  0  0  0  0  0  0  0  0  0  0  0
   38.2280   32.3830   38.2650 N   0  0  0  0  0  0  0  0  0  0  0  0
   36.7000   33.5590   39.1220 H   0  0  0  0  0  0  0  0  0  0  0  0
   36.2430   31.9110   40.8990 H   0  0  0  0  0  0  0  0  0  0  0  0
   39.7080   30.9370   37.6680 H   0  0  0  0  0  0  0  0  0  0  0  0
   37.3960   26.9040   38.7910 S   0  0  0  0  0  0  0  0  0  0  0  0
   37.1310   25.6180   37.9660 O   0  0  0  0  0  0  0  0  0  0  0  0
   38.3200   27.7130   37.8830 O   0  0  0  0  0  0  0  0  0  0  0  0
   37.7880   25.0920   40.8190 C   0  0  0  0  0  3  0  0  0  0  0  0
   38.2520   26.2360   40.1120 C   0  0  0  0  0  0  0  0  0  0  0  0
   39.4820   26.5940   40.6510 C   0  0  0  0  0  0  0  0  0  0  0  0
   39.9710   27.4360   40.1860 H   0  0  0  0  0  0  0  0  0  0  0  0
   40.1730   26.0100   41.6640 C   0  0  0  0  0  0  0  0  0  0  0  0
   41.3460   26.2650   42.2600 N   0  0  0  0  0  0  0  0  0  0  0  0
   41.4950   25.3140   43.2270 C   0  0  0  0  0  0  0  0  0  0  0  0
   42.3610   25.2680   43.8770 H   0  0  0  0  0  0  0  0  0  0  0  0
   40.4130   24.4880   43.2140 N   0  0  0  0  0  0  0  0  0  0  0  0
   39.5790   24.9100   42.2430 C   0  0  0  0  0  0  0  0  0  0  0  0
   38.3660   24.3940   41.8570 C   0  0  0  0  0  3  0  0  0  0  0  0
   41.9940   27.0350   42.0190 H   0  0  0  0  0  0  0  0  0  0  0  0
  1  2  1  0  0  0  0
  2  3  2  0  0  0  0
  2 14  1  0  0  0  0
  3  7  1  0  0  0  0
  4  3  1  0  0  0  0
  5  4  2  0  0  0  0
  6  5  1  0  0  0  0
  6  1  2  0  0  0  0
  8  4  1  0  0  0  0
  9  5  1  0  0  0  0
 10  6  1  0  0  0  0
 12 11  1  0  0  0  0
 12 17  1  0  0  0  0
 13 12  2  0  0  0  0
 14 13  1  0  0  0  0
 14 15  2  0  0  0  0
 15 16  1  0  0  0  0
 16 17  2  0  0  0  0
 16 19  1  0  0  0  0
 17 20  1  0  0  0  0
 18 15  1  0  0  0  0
 21 22  1  0  0  0  0
 22 23  2  0  0  0  0
 22 28  1  0  0  0  0
 23 13  1  0  0  0  0
 24 23  1  0  0  0  0
 25 24  2  0  0  0  0
 26 25  1  0  0  0  0
 26 21  2  0  0  0  0
 27 21  1  0  0  0  0
 29 25  1  0  0  0  0
 30  1  1  0  0  0  0
 30 34  1  0  0  0  0
 31 30  2  0  0  0  0
 32 30  2  0  0  0  0
 33 43  1  0  0  0  0
 34 35  1  0  0  0  0
 34 33  2  0  0  0  0
 35 37  2  0  0  0  0
 36 35  1  0  0  0  0
 37 42  1  0  0  0  0
 37 38  1  0  0  0  0
 38 39  1  0  0  0  0
 39 40  1  0  0  0  0
 41 39  2  0  0  0  0
 42 41  1  0  0  0  0
 43 42  2  0  0  0  0
 44 38  1  0  0  0  0
M  END
>  <minimizedAffinity>
-6.87820005

$$$$

 OpenBabel03252509103D

 44 48  0  0  0  0  0  0  0  0999 V2000
   37.7370   28.4500   41.2110 C   0  0  0  0  0  0  0  0  0  0  0  0
   37.4070   27.1330   41.3390 C   0  0  0  0  0  0  0  0  0  0  0  0
   37.0390   26.6360   42.5790 C   0  0  0  0  0  0  0  0  0  0  0  0
   37.0040   27.4620   43.6790 C   0  0  0  0  0  0  0  0  0  0  0  0
   37.3330   28.8110   43.5900 C   0  0  0  0  0  0  0  0  0  0  0  0
   37.7010   29.2890   42.3280 C   0  0  0  0  0  0  0  0  0  0  0  0
   36.7720   25.5920   42.7060 H   0  0  0  0  0  0  0  0  0  0  0  0
   36.7320   27.1640   44.6690 H   0  0  0  0  0  0  0  0  0  0  0  0
   37.3350   29.5270   44.3910 H   0  0  0  0  0  0  0  0  0  0  0  0
   37.9650   30.3400   42.2240 H   0  0  0  0  0  0  0  0  0  0  0  0
   39.8160   23.4580   38.6300 Cl  0  0  0  0  0  0  0  0  0  0  0  0
   38.4750   24.5190   38.9800 C   0  0  0  0  0  0  0  0  0  0  0  0
   38.5190   25.3780   40.0310 C   0  0  0  0  0  0  0  0  0  0  0  0
   37.4020   26.1800   40.2380 C   0  0  0  0  0  0  0  0  0  0  0  0
   36.3000   26.1100   39.4260 C   0  0  0  0  0  0  0  0  0  0  0  0
   36.2720   25.2460   38.3790 C   0  0  0  0  0  0  0  0  0  0  0  0
   37.3750   24.4430   38.1570 C   0  0  0  0  0  0  0  0  0  0  0  0
   35.4570   26.7600   39.6400 H   0  0  0  0  0  0  0  0  0  0  0  0
   35.3890   25.2240   37.7660 H   0  0  0  0  0  0  0  0  0  0  0  0
   37.3180   23.7670   37.3160 H   0  0  0  0  0  0  0  0  0  0  0  0
   40.9140   24.8110   42.9030 C   0  0  0  0  0  0  0  0  0  0  0  0
   39.7710   24.7710   42.0980 C   0  0  0  0  0  0  0  0  0  0  0  0
   39.6970   25.4170   40.8760 C   0  0  0  0  0  0  0  0  0  0  0  0
   40.8170   26.0730   40.5500 N   0  0  0  0  0  0  0  0  0  0  0  0
   41.9160   26.1230   41.3010 C   0  0  0  0  0  0  0  0  0  0  0  0
   41.9690   25.4990   42.4680 N   0  0  0  0  0  0  0  0  0  0  0  0
   40.9240   24.2920   43.8480 H   0  0  0  0  0  0  0  0  0  0  0  0
   38.8980   24.2080   42.4440 H   0  0  0  0  0  0  0  0  0  0  0  0
   42.7190   26.7120   40.8540 H   0  0  0  0  0  0  0  0  0  0  0  0
   38.2160   29.1070   39.7310 S   0  0  0  0  0  0  0  0  0  0  0  0
   38.3830   30.6410   39.8910 O   0  0  0  0  0  0  0  0  0  0  0  0
   39.6470   28.6260   39.4960 O   0  0  0  0  0  0  0  0  0  0  0  0
   35.8850   29.2140   38.2800 C   0  0  0  0  0  3  0  0  0  0  0  0
   37.3000   29.0590   38.2890 C   0  0  0  0  0  0  0  0  0  0  0  0
   37.7190   28.9470   36.9690 C   0  0  0  0  0  0  0  0  0  0  0  0
   38.7840   28.8540   36.8210 H   0  0  0  0  0  0  0  0  0  0  0  0
   36.9760   28.9710   35.8320 C   0  0  0  0  0  0  0  0  0  0  0  0
   37.2670   28.8720   34.5270 N   0  0  0  0  0  0  0  0  0  0  0  0
   36.0780   28.9680   33.8650 C   0  0  0  0  0  0  0  0  0  0  0  0
   36.0010   28.9220   32.7850 H   0  0  0  0  0  0  0  0  0  0  0  0
   35.0720   29.1240   34.7690 N   0  0  0  0  0  0  0  0  0  0  0  0
   35.6190   29.1280   36.0020 C   0  0  0  0  0  0  0  0  0  0  0  0
   35.0030   29.2580   37.2230 C   0  0  0  0  0  3  0  0  0  0  0  0
   38.2120   28.7480   34.1230 H   0  0  0  0  0  0  0  0  0  0  0  0
  1  2  2  0  0  0  0
  1  6  1  0  0  0  0
  2  3  1  0  0  0  0
  3  7  1  0  0  0  0
  3  4  2  0  0  0  0
  4  8  1  0  0  0  0
  5  4  1  0  0  0  0
  5  9  1  0  0  0  0
  6  5  2  0  0  0  0
 10  6  1  0  0  0  0
 11 12  1  0  0  0  0
 12 13  1  0  0  0  0
 13 14  2  0  0  0  0
 13 23  1  0  0  0  0
 14  2  1  0  0  0  0
 15 18  1  0  0  0  0
 15 14  1  0  0  0  0
 16 15  2  0  0  0  0
 17 16  1  0  0  0  0
 17 12  2  0  0  0  0
 19 16  1  0  0  0  0
 20 17  1  0  0  0  0
 21 27  1  0  0  0  0
 22 28  1  0  0  0  0
 22 21  2  0  0  0  0
 23 22  1  0  0  0  0
 24 23  2  0  0  0  0
 24 25  1  0  0  0  0
 25 26  2  0  0  0  0
 26 21  1  0  0  0  0
 29 25  1  0  0  0  0
 30 31  2  0  0  0  0
 30  1  1  0  0  0  0
 32 30  2  0  0  0  0
 33 34  1  0  0  0  0
 34 30  1  0  0  0  0
 35 34  2  0  0  0  0
 36 35  1  0  0  0  0
 37 42  2  0  0  0  0
 37 35  1  0  0  0  0
 38 37  1  0  0  0  0
 39 38  1  0  0  0  0
 39 41  2  0  0  0  0
 40 39  1  0  0  0  0
 41 42  1  0  0  0  0
 42 43  1  0  0  0  0
 43 33  2  0  0  0  0
 44 38  1  0  0  0  0
M  END
>  <minimizedAffinity>
-6.4435029

$$$$

 OpenBabel03252509103D

 44 48  0  0  0  0  0  0  0  0999 V2000
   36.0750   27.4230   39.0370 C   0  0  0  0  0  0  0  0  0  0  0  0
   36.7040   26.7270   40.0280 C   0  0  0  0  0  0  0  0  0  0  0  0
   36.7550   25.3450   39.9680 C   0  0  0  0  0  0  0  0  0  0  0  0
   36.1760   24.6700   38.9170 C   0  0  0  0  0  0  0  0  0  0  0  0
   35.5250   25.3420   37.8880 C   0  0  0  0  0  0  0  0  0  0  0  0
   35.4870   26.7380   37.9700 C   0  0  0  0  0  0  0  0  0  0  0  0
   37.2500   24.7690   40.7430 H   0  0  0  0  0  0  0  0  0  0  0  0
   36.1690   23.6090   38.7920 H   0  0  0  0  0  0  0  0  0  0  0  0
   35.0470   24.9020   37.0330 H   0  0  0  0  0  0  0  0  0  0  0  0
   34.9850   27.2960   37.1810 H   0  0  0  0  0  0  0  0  0  0  0  0
   41.0350   28.2190   42.4100 Cl  0  0  0  0  0  0  0  0  0  0  0  0
   39.3050   28.0220   42.2860 C   0  0  0  0  0  0  0  0  0  0  0  0
   38.7420   27.4550   41.1880 C   0  0  0  0  0  0  0  0  0  0  0  0
   37.3560   27.3450   41.1740 C   0  0  0  0  0  0  0  0  0  0  0  0
   36.5840   27.7910   42.2160 C   0  0  0  0  0  0  0  0  0  0  0  0
   37.1620   28.3540   43.3070 C   0  0  0  0  0  0  0  0  0  0  0  0
   38.5400   28.4690   43.3390 C   0  0  0  0  0  0  0  0  0  0  0  0
   35.5060   27.6800   42.1460 H   0  0  0  0  0  0  0  0  0  0  0  0
   36.5210   28.6880   44.1030 H   0  0  0  0  0  0  0  0  0  0  0  0
   38.9650   28.9220   44.2220 H   0  0  0  0  0  0  0  0  0  0  0  0
   40.7260   27.3600   37.9690 C   0  0  0  0  0  0  0  0  0  0  0  0
   39.9040   27.8010   39.0110 C   0  0  0  0  0  0  0  0  0  0  0  0
   39.5890   27.0060   40.1000 C   0  0  0  0  0  0  0  0  0  0  0  0
   40.1450   25.7910   40.0520 N   0  0  0  0  0  0  0  0  0  0  0  0
   40.9310   25.3510   39.0700 C   0  0  0  0  0  0  0  0  0  0  0  0
   41.2220   26.1250   38.0350 N   0  0  0  0  0  0  0  0  0  0  0  0
   40.9430   28.0160   37.1410 H   0  0  0  0  0  0  0  0  0  0  0  0
   39.4910   28.8140   38.9680 H   0  0  0  0  0  0  0  0  0  0  0  0
   41.2820   24.3290   39.2210 H   0  0  0  0  0  0  0  0  0  0  0  0
   35.9600   29.1080   39.0680 S   0  0  0  0  0  0  0  0  0  0  0  0
   35.1900   29.5840   37.8090 O   0  0  0  0  0  0  0  0  0  0  0  0
   35.0030   29.4470   40.2090 O   0  0  0  0  0  0  0  0  0  0  0  0
   37.8970   30.6850   40.2130 C   0  0  0  0  0  3  0  0  0  0  0  0
   37.2860   30.1870   39.0290 C   0  0  0  0  0  0  0  0  0  0  0  0
   38.0040   30.6790   37.9460 C   0  0  0  0  0  0  0  0  0  0  0  0
   37.6670   30.3540   36.9730 H   0  0  0  0  0  0  0  0  0  0  0  0
   39.0930   31.4900   37.9410 C   0  0  0  0  0  0  0  0  0  0  0  0
   39.8550   32.0210   36.9740 N   0  0  0  0  0  0  0  0  0  0  0  0
   40.8120   32.7590   37.6070 C   0  0  0  0  0  0  0  0  0  0  0  0
   41.5780   33.3090   37.0750 H   0  0  0  0  0  0  0  0  0  0  0  0
   40.6280   32.6720   38.9540 N   0  0  0  0  0  0  0  0  0  0  0  0
   39.5580   31.8820   39.1770 C   0  0  0  0  0  0  0  0  0  0  0  0
   38.9920   31.5060   40.3700 C   0  0  0  0  0  3  0  0  0  0  0  0
   39.7250   31.8860   35.9560 H   0  0  0  0  0  0  0  0  0  0  0  0
  1 30  1  0  0  0  0
  1  2  1  0  0  0  0
  2 14  1  0  0  0  0
  3  2  2  0  0  0  0
  3  7  1  0  0  0  0
  4  3  1  0  0  0  0
  5  6  1  0  0  0  0
  5  4  2  0  0  0  0
  6  1  2  0  0  0  0
  8  4  1  0  0  0  0
  9  5  1  0  0  0  0
 10  6  1  0  0  0  0
 12 11  1  0  0  0  0
 12 17  1  0  0  0  0
 13 12  2  0  0  0  0
 14 13  1  0  0  0  0
 14 15  2  0  0  0  0
 15 16  1  0  0  0  0
 16 17  2  0  0  0  0
 16 19  1  0  0  0  0
 17 20  1  0  0  0  0
 18 15  1  0  0  0  0
 21 26  2  0  0  0  0
 21 22  1  0  0  0  0
 22 23  2  0  0  0  0
 23 13  1  0  0  0  0
 24 23  1  0  0  0  0
 25 29  1  0  0  0  0
 25 24  2  0  0  0  0
 26 25  1  0  0  0  0
 27 21  1  0  0  0  0
 28 22  1  0  0  0  0
 30 32  2  0  0  0  0
 31 30  2  0  0  0  0
 33 43  1  0  0  0  0
 34 30  1  0  0  0  0
 34 33  2  0  0  0  0
 35 34  1  0  0  0  0
 36 35  1  0  0  0  0
 37 35  2  0  0  0  0
 37 42  1  0  0  0  0
 38 39  1  0  0  0  0
 38 37  1  0  0  0  0
 39 41  2  0  0  0  0
 40 39  1  0  0  0  0
 41 42  1  0  0  0  0
 42 43  2  0  0  0  0
 44 38  1  0  0  0  0
M  END
>  <minimizedAffinity>
-6.4248209

$$$$

 OpenBabel03252509103D

 44 48  0  0  0  0  0  0  0  0999 V2000
   36.5810   28.0410   41.1030 C   0  0  0  0  0  0  0  0  0  0  0  0
   36.6120   27.0650   40.1500 C   0  0  0  0  0  0  0  0  0  0  0  0
   35.8990   27.2330   38.9740 C   0  0  0  0  0  0  0  0  0  0  0  0
   35.1630   28.3750   38.7600 C   0  0  0  0  0  0  0  0  0  0  0  0
   35.1070   29.3950   39.7060 C   0  0  0  0  0  0  0  0  0  0  0  0
   35.8340   29.2030   40.8860 C   0  0  0  0  0  0  0  0  0  0  0  0
   35.9080   26.4700   38.2020 H   0  0  0  0  0  0  0  0  0  0  0  0
   34.5880   28.5860   37.8860 H   0  0  0  0  0  0  0  0  0  0  0  0
   34.5620   30.3170   39.6270 H   0  0  0  0  0  0  0  0  0  0  0  0
   35.8120   29.9810   41.6470 H   0  0  0  0  0  0  0  0  0  0  0  0
   40.7520   24.2390   38.9180 Cl  0  0  0  0  0  0  0  0  0  0  0  0
   39.2280   24.5130   39.7220 C   0  0  0  0  0  0  0  0  0  0  0  0
   38.5700   25.6940   39.5910 C   0  0  0  0  0  0  0  0  0  0  0  0
   37.3660   25.8260   40.2740 C   0  0  0  0  0  0  0  0  0  0  0  0
   36.8600   24.8160   41.0510 C   0  0  0  0  0  0  0  0  0  0  0  0
   37.5300   23.6410   41.1720 C   0  0  0  0  0  0  0  0  0  0  0  0
   38.7280   23.4920   40.4970 C   0  0  0  0  0  0  0  0  0  0  0  0
   35.9170   24.9790   41.5620 H   0  0  0  0  0  0  0  0  0  0  0  0
   37.0980   22.8740   41.7890 H   0  0  0  0  0  0  0  0  0  0  0  0
   39.2330   22.5440   40.6160 H   0  0  0  0  0  0  0  0  0  0  0  0
   40.4960   28.7530   38.4780 C   0  0  0  0  0  0  0  0  0  0  0  0
   39.9470   27.7470   39.2800 C   0  0  0  0  0  0  0  0  0  0  0  0
   39.1410   26.7440   38.7700 C   0  0  0  0  0  0  0  0  0  0  0  0
   38.9460   26.8360   37.4500 N   0  0  0  0  0  0  0  0  0  0  0  0
   39.4590   27.7840   36.6680 C   0  0  0  0  0  0  0  0  0  0  0  0
   40.2290   28.7370   37.1730 N   0  0  0  0  0  0  0  0  0  0  0  0
   41.1190   29.5130   38.9220 H   0  0  0  0  0  0  0  0  0  0  0  0
   40.1600   27.7490   40.3540 H   0  0  0  0  0  0  0  0  0  0  0  0
   39.1790   27.6800   35.6190 H   0  0  0  0  0  0  0  0  0  0  0  0
   37.4100   27.8830   42.5650 S   0  0  0  0  0  0  0  0  0  0  0  0
   37.3410   29.2300   43.3310 O   0  0  0  0  0  0  0  0  0  0  0  0
   36.5670   26.9490   43.4320 O   0  0  0  0  0  0  0  0  0  0  0  0
   40.0640   28.5630   42.7670 C   0  0  0  0  0  3  0  0  0  0  0  0
   39.0770   27.5390   42.7220 C   0  0  0  0  0  0  0  0  0  0  0  0
   39.7240   26.3220   42.8950 C   0  0  0  0  0  0  0  0  0  0  0  0
   39.0880   25.4500   42.9130 H   0  0  0  0  0  0  0  0  0  0  0  0
   41.0480   26.0760   43.0770 C   0  0  0  0  0  0  0  0  0  0  0  0
   41.7730   24.9630   43.2510 N   0  0  0  0  0  0  0  0  0  0  0  0
   43.0690   25.3710   43.3790 C   0  0  0  0  0  0  0  0  0  0  0  0
   43.8900   24.6810   43.5330 H   0  0  0  0  0  0  0  0  0  0  0  0
   43.1240   26.7280   43.2840 N   0  0  0  0  0  0  0  0  0  0  0  0
   41.8680   27.1820   43.0950 C   0  0  0  0  0  0  0  0  0  0  0  0
   41.4280   28.4740   42.9430 C   0  0  0  0  0  3  0  0  0  0  0  0
   41.4040   23.9960   43.2780 H   0  0  0  0  0  0  0  0  0  0  0  0
  1 30  1  0  0  0  0
  2 14  1  0  0  0  0
  2  1  2  0  0  0  0
  3  2  1  0  0  0  0
  4  3  2  0  0  0  0
  4  5  1  0  0  0  0
  5  6  2  0  0  0  0
  6  1  1  0  0  0  0
  6 10  1  0  0  0  0
  7  3  1  0  0  0  0
  8  4  1  0  0  0  0
  9  5  1  0  0  0  0
 11 12  1  0  0  0  0
 12 17  1  0  0  0  0
 13 12  2  0  0  0  0
 13 14  1  0  0  0  0
 14 15  2  0  0  0  0
 15 16  1  0  0  0  0
 15 18  1  0  0  0  0
 16 19  1  0  0  0  0
 17 20  1  0  0  0  0
 17 16  2  0  0  0  0
 21 27  1  0  0  0  0
 21 22  1  0  0  0  0
 22 28  1  0  0  0  0
 23 22  2  0  0  0  0
 23 13  1  0  0  0  0
 24 23  1  0  0  0  0
 25 26  1  0  0  0  0
 25 24  2  0  0  0  0
 26 21  2  0  0  0  0
 29 25  1  0  0  0  0
 30 34  1  0  0  0  0
 30 31  2  0  0  0  0
 30 32  2  0  0  0  0
 33 43  1  0  0  0  0
 34 33  2  0  0  0  0
 34 35  1  0  0  0  0
 35 36  1  0  0  0  0
 35 37  2  0  0  0  0
 37 42  1  0  0  0  0
 37 38  1  0  0  0  0
 38 44  1  0  0  0  0
 38 39  1  0  0  0  0
 39 40  1  0  0  0  0
 41 39  2  0  0  0  0
 42 41  1  0  0  0  0
 43 42  2  0  0  0  0
M  END
>  <minimizedAffinity>
-6.42039013

$$$$

 OpenBabel03252509103D

 44 48  0  0  0  0  0  0  0  0999 V2000
   37.4120   28.0060   40.9220 C   0  0  0  0  0  0  0  0  0  0  0  0
   37.6430   29.2170   41.5080 C   0  0  0  0  0  0  0  0  0  0  0  0
   37.6690   29.3150   42.8890 C   0  0  0  0  0  0  0  0  0  0  0  0
   37.4650   28.2030   43.6730 C   0  0  0  0  0  0  0  0  0  0  0  0
   37.2270   26.9510   43.1150 C   0  0  0  0  0  0  0  0  0  0  0  0
   37.2050   26.8760   41.7180 C   0  0  0  0  0  0  0  0  0  0  0  0
   37.8510   30.2670   43.3780 H   0  0  0  0  0  0  0  0  0  0  0  0
   37.4690   28.1890   44.7410 H   0  0  0  0  0  0  0  0  0  0  0  0
   37.0570   26.0320   43.6440 H   0  0  0  0  0  0  0  0  0  0  0  0
   37.0210   25.9110   41.2480 H   0  0  0  0  0  0  0  0  0  0  0  0
   40.9440   32.7560   39.7110 Cl  0  0  0  0  0  0  0  0  0  0  0  0
   39.3530   32.0800   39.9530 C   0  0  0  0  0  0  0  0  0  0  0  0
   39.1830   30.9160   40.6330 C   0  0  0  0  0  0  0  0  0  0  0  0
   37.8800   30.4490   40.7710 C   0  0  0  0  0  0  0  0  0  0  0  0
   36.8100   31.1240   40.2430 C   0  0  0  0  0  0  0  0  0  0  0  0
   36.9970   32.2860   39.5660 C   0  0  0  0  0  0  0  0  0  0  0  0
   38.2850   32.7660   39.4220 C   0  0  0  0  0  0  0  0  0  0  0  0
   35.8170   30.7080   40.3810 H   0  0  0  0  0  0  0  0  0  0  0  0
   36.1300   32.7850   39.1710 H   0  0  0  0  0  0  0  0  0  0  0  0
   38.3960   33.6940   38.8780 H   0  0  0  0  0  0  0  0  0  0  0  0
   42.0130   29.8490   42.9030 C   0  0  0  0  0  0  0  0  0  0  0  0
   40.9000   30.5270   42.3960 C   0  0  0  0  0  0  0  0  0  0  0  0
   40.3400   30.2240   41.1670 C   0  0  0  0  0  0  0  0  0  0  0  0
   40.9650   29.2300   40.5260 N   0  0  0  0  0  0  0  0  0  0  0  0
   42.0260   28.5720   40.9910 C   0  0  0  0  0  0  0  0  0  0  0  0
   42.5490   28.8750   42.1690 N   0  0  0  0  0  0  0  0  0  0  0  0
   42.4140   30.1210   43.8670 H   0  0  0  0  0  0  0  0  0  0  0  0
   40.4500   31.3290   42.9910 H   0  0  0  0  0  0  0  0  0  0  0  0
   42.3860   27.7960   40.3130 H   0  0  0  0  0  0  0  0  0  0  0  0
   37.3440   27.8280   39.2450 S   0  0  0  0  0  0  0  0  0  0  0  0
   38.5050   28.6340   38.6050 O   0  0  0  0  0  0  0  0  0  0  0  0
   37.7290   26.3790   38.9560 O   0  0  0  0  0  0  0  0  0  0  0  0
   36.2040   28.5630   36.8550 C   0  0  0  0  0  3  0  0  0  0  0  0
   36.0490   28.3370   38.2510 C   0  0  0  0  0  0  0  0  0  0  0  0
   34.7100   28.5360   38.5630 C   0  0  0  0  0  0  0  0  0  0  0  0
   34.4380   28.3670   39.5940 H   0  0  0  0  0  0  0  0  0  0  0  0
   33.6840   28.8830   37.7430 C   0  0  0  0  0  0  0  0  0  0  0  0
   32.3750   29.1000   37.9300 N   0  0  0  0  0  0  0  0  0  0  0  0
   31.8650   29.4240   36.7060 C   0  0  0  0  0  0  0  0  0  0  0  0
   30.8190   29.6540   36.5470 H   0  0  0  0  0  0  0  0  0  0  0  0
   32.8660   29.4010   35.7840 N   0  0  0  0  0  0  0  0  0  0  0  0
   34.0080   29.0640   36.4170 C   0  0  0  0  0  0  0  0  0  0  0  0
   35.2730   28.9160   35.9030 C   0  0  0  0  0  3  0  0  0  0  0  0
   31.8710   29.0320   38.8320 H   0  0  0  0  0  0  0  0  0  0  0  0
  1  2  2  0  0  0  0
  1  6  1  0  0  0  0
  2  3  1  0  0  0  0
  3  7  1  0  0  0  0
  3  4  2  0  0  0  0
  4  8  1  0  0  0  0
  5  9  1  0  0  0  0
  5  4  1  0  0  0  0
  6  5  2  0  0  0  0
 10  6  1  0  0  0  0
 11 12  1  0  0  0  0
 12 13  1  0  0  0  0
 13 14  2  0  0  0  0
 13 23  1  0  0  0  0
 14  2  1  0  0  0  0
 15 18  1  0  0  0  0
 15 14  1  0  0  0  0
 16 15  2  0  0  0  0
 17 16  1  0  0  0  0
 17 12  2  0  0  0  0
 19 16  1  0  0  0  0
 20 17  1  0  0  0  0
 21 27  1  0  0  0  0
 22 21  1  0  0  0  0
 22 28  1  0  0  0  0
 23 22  2  0  0  0  0
 24 25  2  0  0  0  0
 24 23  1  0  0  0  0
 25 26  1  0  0  0  0
 26 21  2  0  0  0  0
 29 25  1  0  0  0  0
 30  1  1  0  0  0  0
 31 30  2  0  0  0  0
 32 30  2  0  0  0  0
 33 34  1  0  0  0  0
 34 35  2  0  0  0  0
 34 30  1  0  0  0  0
 35 36  1  0  0  0  0
 37 38  1  0  0  0  0
 37 35  1  0  0  0  0
 38 44  1  0  0  0  0
 39 38  1  0  0  0  0
 40 39  1  0  0  0  0
 41 42  1  0  0  0  0
 41 39  2  0  0  0  0
 42 37  2  0  0  0  0
 43 42  1  0  0  0  0
 43 33  2  0  0  0  0
M  END
>  <minimizedAffinity>
-6.38136482

$$$$

 OpenBabel03252509103D

 44 48  0  0  0  0  0  0  0  0999 V2000
   37.1380   30.0110   39.0020 C   0  0  0  0  0  0  0  0  0  0  0  0
   37.6860   31.0670   38.3340 C   0  0  0  0  0  0  0  0  0  0  0  0
   37.5520   31.1520   36.9580 C   0  0  0  0  0  0  0  0  0  0  0  0
   36.8700   30.1810   36.2620 C   0  0  0  0  0  0  0  0  0  0  0  0
   36.2950   29.0890   36.9050 C   0  0  0  0  0  0  0  0  0  0  0  0
   36.4440   29.0250   38.2950 C   0  0  0  0  0  0  0  0  0  0  0  0
   37.9800   31.9820   36.4050 H   0  0  0  0  0  0  0  0  0  0  0  0
   36.7190   30.1680   35.2040 H   0  0  0  0  0  0  0  0  0  0  0  0
   35.7480   28.2860   36.4460 H   0  0  0  0  0  0  0  0  0  0  0  0
   36.0070   28.1830   38.8290 H   0  0  0  0  0  0  0  0  0  0  0  0
   42.1870   33.2670   39.5790 Cl  0  0  0  0  0  0  0  0  0  0  0  0
   40.4450   33.1660   39.5690 C   0  0  0  0  0  0  0  0  0  0  0  0
   39.8070   32.1450   38.9390 C   0  0  0  0  0  0  0  0  0  0  0  0
   38.4170   32.1490   38.9770 C   0  0  0  0  0  0  0  0  0  0  0  0
   37.7140   33.1380   39.6150 C   0  0  0  0  0  0  0  0  0  0  0  0
   38.3660   34.1520   40.2400 C   0  0  0  0  0  0  0  0  0  0  0  0
   39.7480   34.1610   40.2140 C   0  0  0  0  0  0  0  0  0  0  0  0
   36.6290   33.0890   39.6080 H   0  0  0  0  0  0  0  0  0  0  0  0
   37.7770   34.9050   40.7300 H   0  0  0  0  0  0  0  0  0  0  0  0
   40.2340   34.9820   40.7220 H   0  0  0  0  0  0  0  0  0  0  0  0
   41.4210   28.8390   38.0600 C   0  0  0  0  0  0  0  0  0  0  0  0
   40.6720   29.8180   38.7200 C   0  0  0  0  0  0  0  0  0  0  0  0
   40.5840   31.1230   38.2650 C   0  0  0  0  0  0  0  0  0  0  0  0
   41.2790   31.3450   37.1440 N   0  0  0  0  0  0  0  0  0  0  0  0
   41.9980   30.4270   36.4990 C   0  0  0  0  0  0  0  0  0  0  0  0
   42.0710   29.1830   36.9490 N   0  0  0  0  0  0  0  0  0  0  0  0
   41.4590   27.8360   38.4530 H   0  0  0  0  0  0  0  0  0  0  0  0
   40.1330   29.5470   39.6340 H   0  0  0  0  0  0  0  0  0  0  0  0
   42.4890   30.8120   35.6040 H   0  0  0  0  0  0  0  0  0  0  0  0
   37.2890   29.8410   40.6750 S   0  0  0  0  0  0  0  0  0  0  0  0
   36.6200   31.0560   41.3670 O   0  0  0  0  0  0  0  0  0  0  0  0
   36.3810   28.6760   41.0670 O   0  0  0  0  0  0  0  0  0  0  0  0
   39.4280   28.5670   41.8370 C   0  0  0  0  0  3  0  0  0  0  0  0
   38.7680   29.7900   41.5300 C   0  0  0  0  0  0  0  0  0  0  0  0
   39.5740   30.8280   41.9810 C   0  0  0  0  0  0  0  0  0  0  0  0
   39.2080   31.8240   41.7860 H   0  0  0  0  0  0  0  0  0  0  0  0
   40.7780   30.7650   42.6080 C   0  0  0  0  0  0  0  0  0  0  0  0
   41.6300   31.6840   43.0820 N   0  0  0  0  0  0  0  0  0  0  0  0
   42.6800   30.9910   43.6100 C   0  0  0  0  0  0  0  0  0  0  0  0
   43.5330   31.4750   44.0700 H   0  0  0  0  0  0  0  0  0  0  0  0
   42.4600   29.6560   43.4550 N   0  0  0  0  0  0  0  0  0  0  0  0
   41.2750   29.5000   42.8300 C   0  0  0  0  0  0  0  0  0  0  0  0
   40.6360   28.3420   42.4610 C   0  0  0  0  0  3  0  0  0  0  0  0
   41.4990   32.7100   43.0440 H   0  0  0  0  0  0  0  0  0  0  0  0
  1 30  1  0  0  0  0
  2 14  1  0  0  0  0
  2  1  1  0  0  0  0
  3  2  2  0  0  0  0
  4  5  2  0  0  0  0
  4  3  1  0  0  0  0
  5  6  1  0  0  0  0
  6 10  1  0  0  0  0
  6  1  2  0  0  0  0
  7  3  1  0  0  0  0
  8  4  1  0  0  0  0
  9  5  1  0  0  0  0
 12 11  1  0  0  0  0
 12 17  1  0  0  0  0
 13 14  1  0  0  0  0
 13 12  2  0  0  0  0
 14 15  2  0  0  0  0
 15 16  1  0  0  0  0
 16 19  1  0  0  0  0
 17 16  2  0  0  0  0
 17 20  1  0  0  0  0
 18 15  1  0  0  0  0
 21 27  1  0  0  0  0
 21 22  1  0  0  0  0
 22 28  1  0  0  0  0
 23 22  2  0  0  0  0
 23 13  1  0  0  0  0
 24 23  1  0  0  0  0
 25 26  1  0  0  0  0
 25 24  2  0  0  0  0
 26 21  2  0  0  0  0
 29 25  1  0  0  0  0
 30 32  2  0  0  0  0
 30 31  2  0  0  0  0
 30 34  1  0  0  0  0
 33 43  1  0  0  0  0
 34 33  2  0  0  0  0
 34 35  1  0  0  0  0
 35 37  2  0  0  0  0
 36 35  1  0  0  0  0
 37 42  1  0  0  0  0
 37 38  1  0  0  0  0
 38 39  1  0  0  0  0
 39 40  1  0  0  0  0
 41 39  2  0  0  0  0
 42 41  1  0  0  0  0
 43 42  2  0  0  0  0
 44 38  1  0  0  0  0
M  END
>  <minimizedAffinity>
-6.27744389

$$$$

 OpenBabel03252509103D

 44 48  0  0  0  0  0  0  0  0999 V2000
   37.2290   25.8690   39.9560 C   0  0  0  0  0  0  0  0  0  0  0  0
   37.0520   26.6720   41.0440 C   0  0  0  0  0  0  0  0  0  0  0  0
   37.0000   26.1110   42.3090 C   0  0  0  0  0  0  0  0  0  0  0  0
   37.1250   24.7510   42.4750 C   0  0  0  0  0  0  0  0  0  0  0  0
   37.3070   23.8970   41.3920 C   0  0  0  0  0  0  0  0  0  0  0  0
   37.3570   24.4870   40.1240 C   0  0  0  0  0  0  0  0  0  0  0  0
   36.8600   26.7300   43.1900 H   0  0  0  0  0  0  0  0  0  0  0  0
   37.0970   24.2360   43.4110 H   0  0  0  0  0  0  0  0  0  0  0  0
   37.4140   22.8290   41.4250 H   0  0  0  0  0  0  0  0  0  0  0  0
   37.4980   23.8470   39.2550 H   0  0  0  0  0  0  0  0  0  0  0  0
   39.1440   31.3590   41.6070 Cl  0  0  0  0  0  0  0  0  0  0  0  0
   37.8370   30.2630   41.2370 C   0  0  0  0  0  0  0  0  0  0  0  0
   38.0140   28.9170   41.2960 C   0  0  0  0  0  0  0  0  0  0  0  0
   36.9200   28.1210   40.9770 C   0  0  0  0  0  0  0  0  0  0  0  0
   35.7130   28.6610   40.6150 C   0  0  0  0  0  0  0  0  0  0  0  0
   35.5520   30.0080   40.5610 C   0  0  0  0  0  0  0  0  0  0  0  0
   36.6290   30.8150   40.8770 C   0  0  0  0  0  0  0  0  0  0  0  0
   34.8960   27.9880   40.3750 H   0  0  0  0  0  0  0  0  0  0  0  0
   34.5890   30.3900   40.2750 H   0  0  0  0  0  0  0  0  0  0  0  0
   36.4650   31.8810   40.8240 H   0  0  0  0  0  0  0  0  0  0  0  0
   40.9280   27.6360   43.3380 C   0  0  0  0  0  0  0  0  0  0  0  0
   39.6790   28.1560   42.9860 C   0  0  0  0  0  0  0  0  0  0  0  0
   39.3090   28.3810   41.6720 C   0  0  0  0  0  0  0  0  0  0  0  0
   40.2560   28.0520   40.7860 N   0  0  0  0  0  0  0  0  0  0  0  0
   41.4510   27.5540   41.0990 C   0  0  0  0  0  0  0  0  0  0  0  0
   41.7890   27.3460   42.3630 N   0  0  0  0  0  0  0  0  0  0  0  0
   41.1720   27.4780   44.3770 H   0  0  0  0  0  0  0  0  0  0  0  0
   38.9630   28.3980   43.7790 H   0  0  0  0  0  0  0  0  0  0  0  0
   42.0780   27.3530   40.2290 H   0  0  0  0  0  0  0  0  0  0  0  0
   37.2770   26.4920   38.3880 S   0  0  0  0  0  0  0  0  0  0  0  0
   38.3980   27.5620   38.3050 O   0  0  0  0  0  0  0  0  0  0  0  0
   37.8060   25.3680   37.5000 O   0  0  0  0  0  0  0  0  0  0  0  0
   36.2110   28.5700   36.9410 C   0  0  0  0  0  3  0  0  0  0  0  0
   36.0040   27.3400   37.6250 C   0  0  0  0  0  0  0  0  0  0  0  0
   34.6670   26.9930   37.4710 C   0  0  0  0  0  0  0  0  0  0  0  0
   34.3720   26.0560   37.9170 H   0  0  0  0  0  0  0  0  0  0  0  0
   33.6840   27.6540   36.8080 C   0  0  0  0  0  0  0  0  0  0  0  0
   32.3810   27.4200   36.5980 N   0  0  0  0  0  0  0  0  0  0  0  0
   31.9230   28.4640   35.8480 C   0  0  0  0  0  0  0  0  0  0  0  0
   30.8940   28.5450   35.5210 H   0  0  0  0  0  0  0  0  0  0  0  0
   32.9490   29.3260   35.6070 N   0  0  0  0  0  0  0  0  0  0  0  0
   34.0550   28.8330   36.2000 C   0  0  0  0  0  0  0  0  0  0  0  0
   35.3260   29.3530   36.2310 C   0  0  0  0  0  3  0  0  0  0  0  0
   31.8480   26.6030   36.9450 H   0  0  0  0  0  0  0  0  0  0  0  0
  1  6  2  0  0  0  0
  1  2  1  0  0  0  0
  2  3  2  0  0  0  0
  3  4  1  0  0  0  0
  3  7  1  0  0  0  0
  4  8  1  0  0  0  0
  5  9  1  0  0  0  0
  5  4  2  0  0  0  0
  6  5  1  0  0  0  0
 10  6  1  0  0  0  0
 12 13  1  0  0  0  0
 12 11  1  0  0  0  0
 13 23  1  0  0  0  0
 14  2  1  0  0  0  0
 14 13  2  0  0  0  0
 15 14  1  0  0  0  0
 16 15  2  0  0  0  0
 16 17  1  0  0  0  0
 17 12  2  0  0  0  0
 18 15  1  0  0  0  0
 19 16  1  0  0  0  0
 20 17  1  0  0  0  0
 21 27  1  0  0  0  0
 22 21  1  0  0  0  0
 22 28  1  0  0  0  0
 23 22  2  0  0  0  0
 24 25  2  0  0  0  0
 24 23  1  0  0  0  0
 25 26  1  0  0  0  0
 26 21  2  0  0  0  0
 29 25  1  0  0  0  0
 30  1  1  0  0  0  0
 31 30  2  0  0  0  0
 32 30  2  0  0  0  0
 33 34  1  0  0  0  0
 34 30  1  0  0  0  0
 35 34  2  0  0  0  0
 35 36  1  0  0  0  0
 37 35  1  0  0  0  0
 38 37  1  0  0  0  0
 38 44  1  0  0  0  0
 39 38  1  0  0  0  0
 40 39  1  0  0  0  0
 41 39  2  0  0  0  0
 41 42  1  0  0  0  0
 42 43  1  0  0  0  0
 42 37  2  0  0  0  0
 43 33  2  0  0  0  0
M  END
>  <minimizedAffinity>
-6.23894548

$$$$

 OpenBabel03252509103D

 44 48  0  0  0  0  0  0  0  0999 V2000
   37.3860   26.0650   39.8270 C   0  0  0  0  0  0  0  0  0  0  0  0
   37.1660   26.7530   40.9850 C   0  0  0  0  0  0  0  0  0  0  0  0
   36.9450   26.0580   42.1620 C   0  0  0  0  0  0  0  0  0  0  0  0
   36.9460   24.6820   42.1720 C   0  0  0  0  0  0  0  0  0  0  0  0
   37.1660   23.9440   41.0130 C   0  0  0  0  0  0  0  0  0  0  0  0
   37.3870   24.6680   39.8360 C   0  0  0  0  0  0  0  0  0  0  0  0
   36.7680   26.5830   43.0960 H   0  0  0  0  0  0  0  0  0  0  0  0
   36.7860   24.0690   43.0320 H   0  0  0  0  0  0  0  0  0  0  0  0
   37.1850   22.8740   40.9250 H   0  0  0  0  0  0  0  0  0  0  0  0
   37.5630   24.1210   38.9110 H   0  0  0  0  0  0  0  0  0  0  0  0
   39.5620   31.1390   42.2770 Cl  0  0  0  0  0  0  0  0  0  0  0  0
   38.2120   30.2130   41.6730 C   0  0  0  0  0  0  0  0  0  0  0  0
   38.2760   28.8590   41.5820 C   0  0  0  0  0  0  0  0  0  0  0  0
   37.1550   28.2050   41.0830 C   0  0  0  0  0  0  0  0  0  0  0  0
   36.0330   28.8890   40.6930 C   0  0  0  0  0  0  0  0  0  0  0  0
   35.9840   30.2420   40.7900 C   0  0  0  0  0  0  0  0  0  0  0  0
   37.0890   30.9080   41.2870 C   0  0  0  0  0  0  0  0  0  0  0  0
   35.1900   28.3230   40.3080 H   0  0  0  0  0  0  0  0  0  0  0  0
   35.0840   30.7390   40.4750 H   0  0  0  0  0  0  0  0  0  0  0  0
   37.0150   31.9840   41.3500 H   0  0  0  0  0  0  0  0  0  0  0  0
   40.8730   27.0780   43.6770 C   0  0  0  0  0  0  0  0  0  0  0  0
   39.7050   27.7450   43.2920 C   0  0  0  0  0  0  0  0  0  0  0  0
   39.4850   28.1710   41.9940 C   0  0  0  0  0  0  0  0  0  0  0  0
   40.4890   27.8820   41.1590 N   0  0  0  0  0  0  0  0  0  0  0  0
   41.6080   27.2480   41.5050 C   0  0  0  0  0  0  0  0  0  0  0  0
   41.8030   26.8470   42.7520 N   0  0  0  0  0  0  0  0  0  0  0  0
   40.9990   26.7650   44.7020 H   0  0  0  0  0  0  0  0  0  0  0  0
   38.9330   27.9400   44.0440 H   0  0  0  0  0  0  0  0  0  0  0  0
   42.3030   27.1100   40.6750 H   0  0  0  0  0  0  0  0  0  0  0  0
   37.6370   26.8570   38.3560 S   0  0  0  0  0  0  0  0  0  0  0  0
   38.1620   25.8330   37.3160 O   0  0  0  0  0  0  0  0  0  0  0  0
   36.2510   27.2110   37.8230 O   0  0  0  0  0  0  0  0  0  0  0  0
   40.1400   27.9060   37.9310 C   0  0  0  0  0  3  0  0  0  0  0  0
   38.7460   28.1320   38.1010 C   0  0  0  0  0  0  0  0  0  0  0  0
   38.5190   29.4950   37.9470 C   0  0  0  0  0  0  0  0  0  0  0  0
   37.4900   29.8100   38.0210 H   0  0  0  0  0  0  0  0  0  0  0  0
   39.4110   30.4850   37.6850 C   0  0  0  0  0  0  0  0  0  0  0  0
   39.3080   31.8110   37.5200 N   0  0  0  0  0  0  0  0  0  0  0  0
   40.5730   32.2620   37.2790 C   0  0  0  0  0  0  0  0  0  0  0  0
   40.8010   33.3070   37.1040 H   0  0  0  0  0  0  0  0  0  0  0  0
   41.4360   31.2100   37.2980 N   0  0  0  0  0  0  0  0  0  0  0  0
   40.7240   30.0930   37.5500 C   0  0  0  0  0  0  0  0  0  0  0  0
   41.1590   28.7950   37.6640 C   0  0  0  0  0  3  0  0  0  0  0  0
   38.4340   32.3630   37.5700 H   0  0  0  0  0  0  0  0  0  0  0  0
  1  6  2  0  0  0  0
  1  2  1  0  0  0  0
  2 14  1  0  0  0  0
  2  3  2  0  0  0  0
  3  4  1  0  0  0  0
  3  7  1  0  0  0  0
  4  8  1  0  0  0  0
  5  4  2  0  0  0  0
  6  5  1  0  0  0  0
  9  5  1  0  0  0  0
 10  6  1  0  0  0  0
 12 11  1  0  0  0  0
 13 12  1  0  0  0  0
 13 23  1  0  0  0  0
 14 13  2  0  0  0  0
 15 16  2  0  0  0  0
 15 14  1  0  0  0  0
 16 17  1  0  0  0  0
 17 20  1  0  0  0  0
 17 12  2  0  0  0  0
 18 15  1  0  0  0  0
 19 16  1  0  0  0  0
 21 27  1  0  0  0  0
 22 21  1  0  0  0  0
 22 28  1  0  0  0  0
 23 22  2  0  0  0  0
 24 25  2  0  0  0  0
 24 23  1  0  0  0  0
 25 26  1  0  0  0  0
 26 21  2  0  0  0  0
 29 25  1  0  0  0  0
 30  1  1  0  0  0  0
 31 30  2  0  0  0  0
 32 30  2  0  0  0  0
 33 34  1  0  0  0  0
 34 30  1  0  0  0  0
 35 36  1  0  0  0  0
 35 34  2  0  0  0  0
 37 35  1  0  0  0  0
 38 44  1  0  0  0  0
 38 37  1  0  0  0  0
 39 41  2  0  0  0  0
 39 38  1  0  0  0  0
 40 39  1  0  0  0  0
 41 42  1  0  0  0  0
 42 43  1  0  0  0  0
 42 37  2  0  0  0  0
 43 33  2  0  0  0  0
M  END
>  <minimizedAffinity>
-6.20169735

$$$$

 OpenBabel03252509103D

 44 48  0  0  0  0  0  0  0  0999 V2000
   37.1800   30.6780   40.0650 C   0  0  0  0  0  0  0  0  0  0  0  0
   38.0900   30.7040   41.0810 C   0  0  0  0  0  0  0  0  0  0  0  0
   38.7810   31.8730   41.3510 C   0  0  0  0  0  0  0  0  0  0  0  0
   38.5560   33.0070   40.6040 C   0  0  0  0  0  0  0  0  0  0  0  0
   37.6360   33.0210   39.5590 C   0  0  0  0  0  0  0  0  0  0  0  0
   36.9500   31.8290   39.3050 C   0  0  0  0  0  0  0  0  0  0  0  0
   39.5100   31.9190   42.1540 H   0  0  0  0  0  0  0  0  0  0  0  0
   39.0420   33.9470   40.7430 H   0  0  0  0  0  0  0  0  0  0  0  0
   37.3960   33.8540   38.9250 H   0  0  0  0  0  0  0  0  0  0  0  0
   36.2230   31.8060   38.4950 H   0  0  0  0  0  0  0  0  0  0  0  0
   41.3190   26.9230   42.4690 Cl  0  0  0  0  0  0  0  0  0  0  0  0
   39.8330   27.8310   42.5800 C   0  0  0  0  0  0  0  0  0  0  0  0
   39.6020   28.8980   41.7720 C   0  0  0  0  0  0  0  0  0  0  0  0
   38.3930   29.5650   41.9360 C   0  0  0  0  0  0  0  0  0  0  0  0
   37.4710   29.1730   42.8710 C   0  0  0  0  0  0  0  0  0  0  0  0
   37.7160   28.1040   43.6710 C   0  0  0  0  0  0  0  0  0  0  0  0
   38.9120   27.4270   43.5200 C   0  0  0  0  0  0  0  0  0  0  0  0
   36.5460   29.7360   42.9540 H   0  0  0  0  0  0  0  0  0  0  0  0
   36.9660   27.8280   44.3900 H   0  0  0  0  0  0  0  0  0  0  0  0
   39.0730   26.5810   44.1730 H   0  0  0  0  0  0  0  0  0  0  0  0
   41.5120   29.3270   38.5360 C   0  0  0  0  0  0  0  0  0  0  0  0
   40.5410   28.9390   39.4650 C   0  0  0  0  0  0  0  0  0  0  0  0
   40.6060   29.2910   40.8020 C   0  0  0  0  0  0  0  0  0  0  0  0
   41.6770   30.0310   41.1080 N   0  0  0  0  0  0  0  0  0  0  0  0
   42.6130   30.4120   40.2400 C   0  0  0  0  0  0  0  0  0  0  0  0
   42.5360   30.0660   38.9640 N   0  0  0  0  0  0  0  0  0  0  0  0
   41.4190   29.0280   37.5040 H   0  0  0  0  0  0  0  0  0  0  0  0
   39.6950   28.3330   39.1250 H   0  0  0  0  0  0  0  0  0  0  0  0
   43.4050   31.0110   40.6920 H   0  0  0  0  0  0  0  0  0  0  0  0
   36.3240   29.2760   39.6730 S   0  0  0  0  0  0  0  0  0  0  0  0
   35.1500   29.1060   40.6710 O   0  0  0  0  0  0  0  0  0  0  0  0
   35.6160   29.5660   38.3510 O   0  0  0  0  0  0  0  0  0  0  0  0
   37.9480   27.2530   38.7680 C   0  0  0  0  0  3  0  0  0  0  0  0
   36.9650   27.6910   39.6990 C   0  0  0  0  0  0  0  0  0  0  0  0
   36.7330   26.6490   40.5880 C   0  0  0  0  0  0  0  0  0  0  0  0
   36.0240   26.8540   41.3750 H   0  0  0  0  0  0  0  0  0  0  0  0
   37.2990   25.4150   40.6240 C   0  0  0  0  0  0  0  0  0  0  0  0
   37.1540   24.3470   41.4210 N   0  0  0  0  0  0  0  0  0  0  0  0
   38.0090   23.3980   40.9420 C   0  0  0  0  0  0  0  0  0  0  0  0
   38.1100   22.4170   41.3910 H   0  0  0  0  0  0  0  0  0  0  0  0
   38.6680   23.8930   39.8580 N   0  0  0  0  0  0  0  0  0  0  0  0
   38.2340   25.1530   39.6480 C   0  0  0  0  0  0  0  0  0  0  0  0
   38.6090   26.0470   38.6750 C   0  0  0  0  0  3  0  0  0  0  0  0
   36.5150   24.2770   42.2330 H   0  0  0  0  0  0  0  0  0  0  0  0
  1  2  1  0  0  0  0
  2  3  2  0  0  0  0
  2 14  1  0  0  0  0
  3  7  1  0  0  0  0
  4  8  1  0  0  0  0
  4  3  1  0  0  0  0
  5  4  2  0  0  0  0
  6  5  1  0  0  0  0
  6  1  2  0  0  0  0
  9  5  1  0  0  0  0
 10  6  1  0  0  0  0
 11 12  1  0  0  0  0
 12 17  1  0  0  0  0
 13 14  1  0  0  0  0
 13 12  2  0  0  0  0
 14 15  2  0  0  0  0
 15 18  1  0  0  0  0
 15 16  1  0  0  0  0
 16 19  1  0  0  0  0
 17 16  2  0  0  0  0
 17 20  1  0  0  0  0
 21 26  2  0  0  0  0
 21 22  1  0  0  0  0
 22 23  2  0  0  0  0
 23 24  1  0  0  0  0
 23 13  1  0  0  0  0
 25 29  1  0  0  0  0
 25 24  2  0  0  0  0
 26 25  1  0  0  0  0
 27 21  1  0  0  0  0
 28 22  1  0  0  0  0
 30 34  1  0  0  0  0
 30  1  1  0  0  0  0
 30 31  2  0  0  0  0
 32 30  2  0  0  0  0
 33 34  1  0  0  0  0
 34 35  2  0  0  0  0
 35 37  1  0  0  0  0
 35 36  1  0  0  0  0
 37 38  1  0  0  0  0
 38 44  1  0  0  0  0
 39 40  1  0  0  0  0
 39 38  1  0  0  0  0
 41 39  2  0  0  0  0
 42 41  1  0  0  0  0
 42 37  2  0  0  0  0
 43 33  2  0  0  0  0
 43 42  1  0  0  0  0
M  END
>  <minimizedAffinity>
-6.18488169

$$$$
