
 OpenBabel03242519473D

 41 44  0  0  1  0  0  0  0  0999 V2000
   46.9320   32.7410   46.4200 C   0  0  2  0  0  0  0  0  0  0  0  0
   46.9960   32.6130   44.9510 C   0  0  1  0  0  0  0  0  0  0  0  0
   46.1720   31.4350   44.6610 O   0  0  0  0  0  0  0  0  0  0  0  0
   46.8700   30.5630   45.5290 C   0  0  0  0  0  0  0  0  0  0  0  0
   46.6560   31.3140   46.8700 C   0  0  2  0  0  0  0  0  0  0  0  0
   47.8440   33.1440   46.8940 H   0  0  0  0  0  0  0  0  0  0  0  0
   47.9710   32.3220   44.5490 H   0  0  0  0  0  0  0  0  0  0  0  0
   46.5590   29.5480   45.5270 H   0  0  0  0  0  0  0  0  0  0  0  0
   47.9500   30.6460   45.2450 H   0  0  0  0  0  0  0  0  0  0  0  0
   47.4120   30.8880   47.5660 H   0  0  0  0  0  0  0  0  0  0  0  0
   44.7270   35.2860   43.9350 C   0  0  0  0  0  0  0  0  0  0  0  0
   45.4090   35.9320   42.9060 C   0  0  0  0  0  0  0  0  0  0  0  0
   46.6800   35.4480   42.5350 C   0  0  0  0  0  0  0  0  0  0  0  0
   47.1960   34.3610   43.2000 N   0  0  0  0  0  0  0  0  0  0  0  0
   46.5020   33.7640   44.1920 C   0  0  0  0  0  0  0  0  0  0  0  0
   45.2750   34.2110   44.5680 N   0  0  0  0  0  0  0  0  0  0  0  0
   44.9730   36.7750   42.4140 H   0  0  0  0  0  0  0  0  0  0  0  0
   47.2380   35.9260   41.7390 H   0  0  0  0  0  0  0  0  0  0  0  0
   43.4610   35.7180   44.3490 O   0  0  0  0  0  0  0  0  0  0  0  0
   42.9180   36.1860   43.6260 H   0  0  0  0  0  0  0  0  0  0  0  0
   45.7950   33.5440   46.7790 O   0  0  0  0  0  0  0  0  0  0  0  0
   45.7940   33.5190   47.7680 H   0  0  0  0  0  0  0  0  0  0  0  0
   45.3540   31.1410   47.2250 O   0  0  0  0  0  0  0  0  0  0  0  0
   45.0700   30.1330   48.1110 C   0  0  0  0  0  0  0  0  0  0  0  0
   45.2840   30.4290   49.1320 H   0  0  0  0  0  0  0  0  0  0  0  0
   43.8740   30.1940   48.1660 H   0  0  0  0  0  0  0  0  0  0  0  0
   45.4010   28.7600   47.6930 C   0  0  0  0  0  0  0  0  0  0  0  0
   46.3190   28.6660   47.0780 H   0  0  0  0  0  0  0  0  0  0  0  0
   45.4520   28.1030   48.5970 H   0  0  0  0  0  0  0  0  0  0  0  0
   43.6100   28.7820   45.7910 C   0  0  0  0  0  3  0  0  0  0  0  0
   44.3140   28.2250   46.8310 C   0  0  0  0  0  0  0  0  0  0  0  0
   43.9020   26.9120   47.1140 C   0  0  0  0  0  0  0  0  0  0  0  0
   44.3820   26.3610   47.9170 H   0  0  0  0  0  0  0  0  0  0  0  0
   42.9110   26.2180   46.4530 C   0  0  0  0  0  0  0  0  0  0  0  0
   42.4030   24.9820   46.5930 N   0  0  0  0  0  0  0  0  0  0  0  0
   41.4420   24.8250   45.6710 C   0  0  0  0  0  0  0  0  0  0  0  0
   40.8230   23.9510   45.4990 H   0  0  0  0  0  0  0  0  0  0  0  0
   41.3520   25.9790   44.9490 N   0  0  0  0  0  0  0  0  0  0  0  0
   42.2580   26.8480   45.4260 C   0  0  0  0  0  0  0  0  0  0  0  0
   42.6140   28.1370   45.0980 C   0  0  0  0  0  3  0  0  0  0  0  0
   42.7020   24.2820   47.2880 H   0  0  0  0  0  0  0  0  0  0  0  0
  1 21  1  0  0  0  0
  1  5  1  0  0  0  0
  1  6  1  1  0  0  0
  2  7  1  6  0  0  0
  2  1  1  0  0  0  0
  3  2  1  0  0  0  0
  3  4  1  0  0  0  0
  4  5  1  0  0  0  0
  5 23  1  0  0  0  0
  5 10  1  1  0  0  0
  8  4  1  0  0  0  0
  9  4  1  0  0  0  0
 11 19  1  0  0  0  0
 11 16  1  0  0  0  0
 12 11  2  0  0  0  0
 13 12  1  0  0  0  0
 13 14  2  0  0  0  0
 14 15  1  0  0  0  0
 15 16  2  0  0  0  0
 15  2  1  0  0  0  0
 17 12  1  0  0  0  0
 18 13  1  0  0  0  0
 20 19  1  0  0  0  0
 21 22  1  0  0  0  0
 23 24  1  0  0  0  0
 24 26  1  0  0  0  0
 24 25  1  0  0  0  0
 27 24  1  0  0  0  0
 27 29  1  0  0  0  0
 28 27  1  0  0  0  0
 30 31  1  0  0  0  0
 31 32  2  0  0  0  0
 31 27  1  0  0  0  0
 32 33  1  0  0  0  0
 34 35  1  0  0  0  0
 34 32  1  0  0  0  0
 35 41  1  0  0  0  0
 36 35  1  0  0  0  0
 37 36  1  0  0  0  0
 38 39  1  0  0  0  0
 38 36  2  0  0  0  0
 39 34  2  0  0  0  0
 40 39  1  0  0  0  0
 40 30  2  0  0  0  0
M  END
>  <minimizedAffinity>
-5.77934408

>  <minimizedRMSD>
0.472860932

$$$$
