
 OpenBabel03242516073D

 39 43  0  0  0  0  0  0  0  0999 V2000
   36.9290   27.5240   39.6930 C   0  0  0  0  0  0  0  0  0  0  0  0
   37.1720   28.5560   38.7890 C   0  0  0  0  0  0  0  0  0  0  0  0
   36.3620   28.0040   37.2620 S   0  0  0  0  0  0  0  0  0  0  0  0
   35.7920   26.3880   38.1220 C   0  0  0  0  0  0  0  0  0  0  0  0
   36.2290   26.5660   39.1360 N   0  0  0  0  0  0  0  0  0  0  0  0
   35.0320   25.3420   37.5200 N   0  0  0  0  0  0  0  0  0  0  0  0
   34.1250   25.1280   38.0140 H   0  0  0  0  0  0  0  0  0  0  0  0
   35.5230   24.9530   36.6610 H   0  0  0  0  0  0  0  0  0  0  0  0
   39.2230   30.0130   38.6280 C   0  0  0  0  0  3  0  0  0  0  0  0
   37.9020   29.8040   38.9680 C   0  0  0  0  0  0  0  0  0  0  0  0
   37.1370   30.8220   39.5350 C   0  0  0  0  0  0  0  0  0  0  0  0
   36.0960   30.7070   39.8190 H   0  0  0  0  0  0  0  0  0  0  0  0
   37.7440   32.0400   39.7440 C   0  0  0  0  0  0  0  0  0  0  0  0
   37.2940   33.2190   40.2660 N   0  0  0  0  0  0  0  0  0  0  0  0
   38.2410   34.1610   40.2810 C   0  0  0  0  0  0  0  0  0  0  0  0
   38.0950   35.1750   40.6560 H   0  0  0  0  0  0  0  0  0  0  0  0
   39.3400   33.5900   39.7570 N   0  0  0  0  0  0  0  0  0  0  0  0
   39.0780   32.3230   39.4240 C   0  0  0  0  0  0  0  0  0  0  0  0
   39.7760   31.2490   38.8600 C   0  0  0  0  0  3  0  0  0  0  0  0
   36.3040   33.3590   40.6170 H   0  0  0  0  0  0  0  0  0  0  0  0
   39.7430   26.7860   40.0660 Cl  0  0  0  0  0  0  0  0  0  0  0  0
   38.7180   27.2200   41.4140 C   0  0  0  0  0  0  0  0  0  0  0  0
   39.1580   27.2410   42.7030 C   0  0  0  0  0  0  0  0  0  0  0  0
   38.2550   27.5990   43.6650 C   0  0  0  0  0  0  0  0  0  0  0  0
   36.9790   27.9220   43.3870 C   0  0  0  0  0  0  0  0  0  0  0  0
   36.5170   27.9060   42.0970 C   0  0  0  0  0  0  0  0  0  0  0  0
   37.4120   27.5460   41.0930 C   0  0  0  0  0  0  0  0  0  0  0  0
   38.5930   27.6190   44.6940 H   0  0  0  0  0  0  0  0  0  0  0  0
   36.2890   28.2000   44.1670 H   0  0  0  0  0  0  0  0  0  0  0  0
   35.4950   28.1670   41.8900 H   0  0  0  0  0  0  0  0  0  0  0  0
   42.8870   27.4560   43.3430 C   0  0  0  0  0  0  0  0  0  0  0  0
   41.5650   27.8260   43.1110 C   0  0  0  0  0  0  0  0  0  0  0  0
   40.5420   26.8840   42.9440 C   0  0  0  0  0  0  0  0  0  0  0  0
   40.9530   25.5860   43.0270 N   0  0  0  0  0  0  0  0  0  0  0  0
   42.2340   25.2440   43.2500 C   0  0  0  0  0  0  0  0  0  0  0  0
   43.1860   26.1520   43.4060 N   0  0  0  0  0  0  0  0  0  0  0  0
   43.5920   28.2920   43.4560 H   0  0  0  0  0  0  0  0  0  0  0  0
   41.2730   28.8760   43.0520 H   0  0  0  0  0  0  0  0  0  0  0  0
   42.5670   24.2180   43.3170 H   0  0  0  0  0  0  0  0  0  0  0  0
  1 27  1  0  0  0  0
  2 10  1  0  0  0  0
  2  1  2  0  0  0  0
  3  4  1  0  0  0  0
  3  2  1  0  0  0  0
  4  5  2  0  0  0  0
  5  1  1  0  0  0  0
  6  7  1  0  0  0  0
  6  4  1  0  0  0  0
  8  6  1  0  0  0  0
  9 19  2  0  0  0  0
  9 10  1  0  0  0  0
 10 11  2  0  0  0  0
 11 13  1  0  0  0  0
 11 12  1  0  0  0  0
 13 14  1  0  0  0  0
 14 15  1  0  0  0  0
 14 20  1  0  0  0  0
 15 16  1  0  0  0  0
 17 15  2  0  0  0  0
 18 13  2  0  0  0  0
 18 17  1  0  0  0  0
 19 18  1  0  0  0  0
 21 22  1  0  0  0  0
 22 23  1  0  0  0  0
 23 33  1  0  0  0  0
 23 24  2  0  0  0  0
 24 28  1  0  0  0  0
 25 24  1  0  0  0  0
 25 29  1  0  0  0  0
 26 25  2  0  0  0  0
 27 22  2  0  0  0  0
 27 26  1  0  0  0  0
 30 26  1  0  0  0  0
 31 36  1  0  0  0  0
 31 37  1  0  0  0  0
 32 31  2  0  0  0  0
 33 34  2  0  0  0  0
 33 32  1  0  0  0  0
 34 35  1  0  0  0  0
 35 39  1  0  0  0  0
 35 36  2  0  0  0  0
 38 32  1  0  0  0  0
M  END
>  <minimizedAffinity>
-6.51782274

$$$$

 OpenBabel03242516073D

 39 43  0  0  0  0  0  0  0  0999 V2000
   37.5690   29.9730   37.7400 C   0  0  0  0  0  0  0  0  0  0  0  0
   37.3340   28.7590   38.3820 C   0  0  0  0  0  0  0  0  0  0  0  0
   36.9100   27.6220   37.0340 S   0  0  0  0  0  0  0  0  0  0  0  0
   37.1260   29.0280   35.7490 C   0  0  0  0  0  0  0  0  0  0  0  0
   37.4060   29.8580   36.4440 N   0  0  0  0  0  0  0  0  0  0  0  0
   36.9490   28.9100   34.3390 N   0  0  0  0  0  0  0  0  0  0  0  0
   37.7970   29.1770   33.7720 H   0  0  0  0  0  0  0  0  0  0  0  0
   35.9720   28.5640   34.1000 H   0  0  0  0  0  0  0  0  0  0  0  0
   36.3340   28.4830   40.6790 C   0  0  0  0  0  3  0  0  0  0  0  0
   37.3940   28.4230   39.7990 C   0  0  0  0  0  0  0  0  0  0  0  0
   38.6580   28.0190   40.2230 C   0  0  0  0  0  0  0  0  0  0  0  0
   39.5230   27.9550   39.5700 H   0  0  0  0  0  0  0  0  0  0  0  0
   38.8120   27.6820   41.5490 C   0  0  0  0  0  0  0  0  0  0  0  0
   39.8880   27.2560   42.2750 N   0  0  0  0  0  0  0  0  0  0  0  0
   39.5810   27.0420   43.5580 C   0  0  0  0  0  0  0  0  0  0  0  0
   40.2900   26.6990   44.3120 H   0  0  0  0  0  0  0  0  0  0  0  0
   38.2740   27.3340   43.6790 N   0  0  0  0  0  0  0  0  0  0  0  0
   37.7830   27.7190   42.4980 C   0  0  0  0  0  0  0  0  0  0  0  0
   36.5460   28.1340   41.9920 C   0  0  0  0  0  3  0  0  0  0  0  0
   40.8520   27.1150   41.8590 H   0  0  0  0  0  0  0  0  0  0  0  0
   40.4340   30.6000   37.7240 Cl  0  0  0  0  0  0  0  0  0  0  0  0
   39.2720   31.6240   38.5340 C   0  0  0  0  0  0  0  0  0  0  0  0
   39.6210   32.7600   39.1980 C   0  0  0  0  0  0  0  0  0  0  0  0
   38.6150   33.4720   39.7890 C   0  0  0  0  0  0  0  0  0  0  0  0
   37.3240   33.0960   39.7370 C   0  0  0  0  0  0  0  0  0  0  0  0
   36.9520   31.9560   39.0740 C   0  0  0  0  0  0  0  0  0  0  0  0
   37.9540   31.2080   38.4610 C   0  0  0  0  0  0  0  0  0  0  0  0
   38.8810   34.3780   40.3200 H   0  0  0  0  0  0  0  0  0  0  0  0
   36.5520   33.6780   40.2130 H   0  0  0  0  0  0  0  0  0  0  0  0
   35.9170   31.6690   39.0410 H   0  0  0  0  0  0  0  0  0  0  0  0
   43.2400   33.1250   40.2610 C   0  0  0  0  0  0  0  0  0  0  0  0
   41.8940   32.7710   40.2650 C   0  0  0  0  0  0  0  0  0  0  0  0
   41.0260   33.1170   39.2210 C   0  0  0  0  0  0  0  0  0  0  0  0
   41.6130   33.8240   38.2120 N   0  0  0  0  0  0  0  0  0  0  0  0
   42.9140   34.1600   38.2240 C   0  0  0  0  0  0  0  0  0  0  0  0
   43.7170   33.8210   39.2220 N   0  0  0  0  0  0  0  0  0  0  0  0
   43.8120   32.7920   41.1400 H   0  0  0  0  0  0  0  0  0  0  0  0
   41.4600   32.2040   41.0890 H   0  0  0  0  0  0  0  0  0  0  0  0
   43.3850   34.7200   37.4290 H   0  0  0  0  0  0  0  0  0  0  0  0
  1  2  2  0  0  0  0
  1 27  1  0  0  0  0
  2 10  1  0  0  0  0
  3  2  1  0  0  0  0
  4  5  2  0  0  0  0
  4  3  1  0  0  0  0
  5  1  1  0  0  0  0
  6  4  1  0  0  0  0
  7  6  1  0  0  0  0
  8  6  1  0  0  0  0
  9 19  1  0  0  0  0
 10 11  1  0  0  0  0
 10  9  2  0  0  0  0
 11 13  2  0  0  0  0
 12 11  1  0  0  0  0
 13 14  1  0  0  0  0
 13 18  1  0  0  0  0
 14 15  1  0  0  0  0
 15 17  2  0  0  0  0
 15 16  1  0  0  0  0
 18 17  1  0  0  0  0
 19 18  2  0  0  0  0
 20 14  1  0  0  0  0
 21 22  1  0  0  0  0
 22 23  1  0  0  0  0
 23 33  1  0  0  0  0
 23 24  2  0  0  0  0
 24 28  1  0  0  0  0
 25 24  1  0  0  0  0
 25 29  1  0  0  0  0
 26 25  2  0  0  0  0
 27 22  2  0  0  0  0
 27 26  1  0  0  0  0
 30 26  1  0  0  0  0
 31 32  1  0  0  0  0
 31 37  1  0  0  0  0
 32 38  1  0  0  0  0
 33 32  2  0  0  0  0
 34 35  2  0  0  0  0
 34 33  1  0  0  0  0
 35 36  1  0  0  0  0
 36 31  2  0  0  0  0
 39 35  1  0  0  0  0
M  END
>  <minimizedAffinity>
-6.516747

$$$$

 OpenBabel03242516073D

 39 43  0  0  0  0  0  0  0  0999 V2000
   37.7220   25.8120   40.7170 C   0  0  0  0  0  0  0  0  0  0  0  0
   38.9010   25.1630   40.3600 C   0  0  0  0  0  0  0  0  0  0  0  0
   38.3440   23.7580   39.3570 S   0  0  0  0  0  0  0  0  0  0  0  0
   36.5160   24.2900   39.5860 C   0  0  0  0  0  0  0  0  0  0  0  0
   36.6780   25.1980   40.2180 N   0  0  0  0  0  0  0  0  0  0  0  0
   35.3760   23.6250   39.0460 N   0  0  0  0  0  0  0  0  0  0  0  0
   34.7720   24.2330   38.4310 H   0  0  0  0  0  0  0  0  0  0  0  0
   35.3340   22.6110   39.3640 H   0  0  0  0  0  0  0  0  0  0  0  0
   41.1490   26.1990   39.8860 C   0  0  0  0  0  3  0  0  0  0  0  0
   40.2840   25.4850   40.6880 C   0  0  0  0  0  0  0  0  0  0  0  0
   40.6930   24.9970   41.9280 C   0  0  0  0  0  0  0  0  0  0  0  0
   40.0500   24.4310   42.5950 H   0  0  0  0  0  0  0  0  0  0  0  0
   41.9870   25.2510   42.3230 C   0  0  0  0  0  0  0  0  0  0  0  0
   42.6900   24.9250   43.4470 N   0  0  0  0  0  0  0  0  0  0  0  0
   43.9440   25.3850   43.4110 C   0  0  0  0  0  0  0  0  0  0  0  0
   44.6770   25.2380   44.2060 H   0  0  0  0  0  0  0  0  0  0  0  0
   44.0690   26.0270   42.2370 N   0  0  0  0  0  0  0  0  0  0  0  0
   42.9180   25.9670   41.5620 C   0  0  0  0  0  0  0  0  0  0  0  0
   42.4300   26.4230   40.3320 C   0  0  0  0  0  3  0  0  0  0  0  0
   42.2780   24.3710   44.2510 H   0  0  0  0  0  0  0  0  0  0  0  0
   38.1510   28.3290   39.2740 Cl  0  0  0  0  0  0  0  0  0  0  0  0
   37.8820   28.2920   41.0010 C   0  0  0  0  0  0  0  0  0  0  0  0
   37.8550   29.4150   41.7710 C   0  0  0  0  0  0  0  0  0  0  0  0
   37.6350   29.2490   43.1090 C   0  0  0  0  0  0  0  0  0  0  0  0
   37.4490   28.0430   43.6760 C   0  0  0  0  0  0  0  0  0  0  0  0
   37.4720   26.9020   42.9190 C   0  0  0  0  0  0  0  0  0  0  0  0
   37.6940   27.0370   41.5510 C   0  0  0  0  0  0  0  0  0  0  0  0
   37.6120   30.1350   43.7320 H   0  0  0  0  0  0  0  0  0  0  0  0
   37.2770   27.9430   44.7350 H   0  0  0  0  0  0  0  0  0  0  0  0
   37.3210   25.9450   43.3850 H   0  0  0  0  0  0  0  0  0  0  0  0
   37.2500   32.6710   39.9280 C   0  0  0  0  0  0  0  0  0  0  0  0
   37.0240   31.4510   40.5590 C   0  0  0  0  0  0  0  0  0  0  0  0
   38.0620   30.6870   41.1070 C   0  0  0  0  0  0  0  0  0  0  0  0
   39.3020   31.2410   40.9670 N   0  0  0  0  0  0  0  0  0  0  0  0
   39.5050   32.4190   40.3540 C   0  0  0  0  0  0  0  0  0  0  0  0
   38.5070   33.1250   39.8430 N   0  0  0  0  0  0  0  0  0  0  0  0
   36.3500   33.1700   39.5410 H   0  0  0  0  0  0  0  0  0  0  0  0
   36.0170   31.0400   40.6520 H   0  0  0  0  0  0  0  0  0  0  0  0
   40.4830   32.8630   40.2390 H   0  0  0  0  0  0  0  0  0  0  0  0
  1 27  1  0  0  0  0
  2 10  1  0  0  0  0
  2  1  2  0  0  0  0
  3  4  1  0  0  0  0
  3  2  1  0  0  0  0
  4  5  2  0  0  0  0
  5  1  1  0  0  0  0
  6  8  1  0  0  0  0
  6  4  1  0  0  0  0
  7  6  1  0  0  0  0
  9 19  2  0  0  0  0
  9 10  1  0  0  0  0
 10 11  2  0  0  0  0
 11 13  1  0  0  0  0
 11 12  1  0  0  0  0
 13 14  1  0  0  0  0
 14 20  1  0  0  0  0
 15 14  1  0  0  0  0
 15 16  1  0  0  0  0
 17 15  2  0  0  0  0
 18 17  1  0  0  0  0
 18 13  2  0  0  0  0
 19 18  1  0  0  0  0
 21 22  1  0  0  0  0
 22 27  2  0  0  0  0
 22 23  1  0  0  0  0
 23 24  2  0  0  0  0
 24 25  1  0  0  0  0
 24 28  1  0  0  0  0
 25 29  1  0  0  0  0
 26 30  1  0  0  0  0
 26 25  2  0  0  0  0
 27 26  1  0  0  0  0
 31 32  1  0  0  0  0
 32 38  1  0  0  0  0
 32 33  2  0  0  0  0
 33 23  1  0  0  0  0
 34 33  1  0  0  0  0
 35 34  2  0  0  0  0
 36 31  2  0  0  0  0
 36 35  1  0  0  0  0
 37 31  1  0  0  0  0
 39 35  1  0  0  0  0
M  END
>  <minimizedAffinity>
-6.30249929

$$$$

 OpenBabel03242516073D

 39 43  0  0  0  0  0  0  0  0999 V2000
   38.9130   29.7760   41.5670 C   0  0  0  0  0  0  0  0  0  0  0  0
   38.6430   30.3850   40.3450 C   0  0  0  0  0  0  0  0  0  0  0  0
   39.8930   31.6950   40.2190 S   0  0  0  0  0  0  0  0  0  0  0  0
   40.6220   31.1920   41.9190 C   0  0  0  0  0  0  0  0  0  0  0  0
   39.9330   30.3450   42.1610 N   0  0  0  0  0  0  0  0  0  0  0  0
   41.7310   31.8090   42.5710 N   0  0  0  0  0  0  0  0  0  0  0  0
   42.5230   31.1500   42.7930 H   0  0  0  0  0  0  0  0  0  0  0  0
   41.5620   32.8480   42.7210 H   0  0  0  0  0  0  0  0  0  0  0  0
   36.2710   29.9190   39.6330 C   0  0  0  0  0  3  0  0  0  0  0  0
   37.6110   30.0890   39.3580 C   0  0  0  0  0  0  0  0  0  0  0  0
   38.0970   29.9830   38.0570 C   0  0  0  0  0  0  0  0  0  0  0  0
   39.1420   30.1090   37.7910 H   0  0  0  0  0  0  0  0  0  0  0  0
   37.1940   29.7030   37.0560 C   0  0  0  0  0  0  0  0  0  0  0  0
   37.3320   29.5360   35.7070 N   0  0  0  0  0  0  0  0  0  0  0  0
   36.1680   29.2710   35.1080 C   0  0  0  0  0  0  0  0  0  0  0  0
   36.0510   29.1030   34.0370 H   0  0  0  0  0  0  0  0  0  0  0  0
   35.2430   29.2620   36.0840 N   0  0  0  0  0  0  0  0  0  0  0  0
   35.8220   29.5180   37.2600 C   0  0  0  0  0  0  0  0  0  0  0  0
   35.4150   29.6400   38.5940 C   0  0  0  0  0  3  0  0  0  0  0  0
   38.2620   29.6110   35.2040 H   0  0  0  0  0  0  0  0  0  0  0  0
   39.2380   27.2510   40.1110 Cl  0  0  0  0  0  0  0  0  0  0  0  0
   38.1870   27.3830   41.5020 C   0  0  0  0  0  0  0  0  0  0  0  0
   37.4650   26.3350   41.9870 C   0  0  0  0  0  0  0  0  0  0  0  0
   36.6820   26.5720   43.0820 C   0  0  0  0  0  0  0  0  0  0  0  0
   36.6020   27.7750   43.6800 C   0  0  0  0  0  0  0  0  0  0  0  0
   37.3210   28.8410   43.2060 C   0  0  0  0  0  0  0  0  0  0  0  0
   38.1290   28.6340   42.0920 C   0  0  0  0  0  0  0  0  0  0  0  0
   36.1020   25.7460   43.4770 H   0  0  0  0  0  0  0  0  0  0  0  0
   35.9760   27.9310   44.5420 H   0  0  0  0  0  0  0  0  0  0  0  0
   37.2480   29.7950   43.6950 H   0  0  0  0  0  0  0  0  0  0  0  0
   36.7730   23.3420   39.7690 C   0  0  0  0  0  0  0  0  0  0  0  0
   36.6280   24.5670   40.4140 C   0  0  0  0  0  0  0  0  0  0  0  0
   37.5890   25.0630   41.3040 C   0  0  0  0  0  0  0  0  0  0  0  0
   38.6680   24.2460   41.4800 N   0  0  0  0  0  0  0  0  0  0  0  0
   38.7930   23.0650   40.8510 C   0  0  0  0  0  0  0  0  0  0  0  0
   37.8700   22.6150   40.0130 N   0  0  0  0  0  0  0  0  0  0  0  0
   35.9470   23.0690   39.0970 H   0  0  0  0  0  0  0  0  0  0  0  0
   35.7510   25.1940   40.2470 H   0  0  0  0  0  0  0  0  0  0  0  0
   39.6430   22.4120   40.9860 H   0  0  0  0  0  0  0  0  0  0  0  0
  1 27  1  0  0  0  0
  1  5  1  0  0  0  0
  2  1  2  0  0  0  0
  3  2  1  0  0  0  0
  3  4  1  0  0  0  0
  4  5  2  0  0  0  0
  4  6  1  0  0  0  0
  6  8  1  0  0  0  0
  6  7  1  0  0  0  0
 10  9  1  0  0  0  0
 10  2  1  0  0  0  0
 11 10  2  0  0  0  0
 12 11  1  0  0  0  0
 13 18  2  0  0  0  0
 13 11  1  0  0  0  0
 14 13  1  0  0  0  0
 15 14  1  0  0  0  0
 15 17  2  0  0  0  0
 16 15  1  0  0  0  0
 17 18  1  0  0  0  0
 18 19  1  0  0  0  0
 19  9  2  0  0  0  0
 20 14  1  0  0  0  0
 21 22  1  0  0  0  0
 22 23  2  0  0  0  0
 22 27  1  0  0  0  0
 23 24  1  0  0  0  0
 24 28  1  0  0  0  0
 24 25  2  0  0  0  0
 25 29  1  0  0  0  0
 26 25  1  0  0  0  0
 26 30  1  0  0  0  0
 27 26  2  0  0  0  0
 31 36  2  0  0  0  0
 31 32  1  0  0  0  0
 32 33  2  0  0  0  0
 33 34  1  0  0  0  0
 33 23  1  0  0  0  0
 35 39  1  0  0  0  0
 35 34  2  0  0  0  0
 36 35  1  0  0  0  0
 37 31  1  0  0  0  0
 38 32  1  0  0  0  0
M  END
>  <minimizedAffinity>
-6.25803041

$$$$

 OpenBabel03242516073D

 39 43  0  0  0  0  0  0  0  0999 V2000
   37.8060   29.1590   40.4650 C   0  0  0  0  0  0  0  0  0  0  0  0
   37.0970   28.3100   39.6170 C   0  0  0  0  0  0  0  0  0  0  0  0
   37.1530   26.7030   40.4570 S   0  0  0  0  0  0  0  0  0  0  0  0
   38.1740   27.4620   41.8910 C   0  0  0  0  0  0  0  0  0  0  0  0
   38.2390   28.5150   41.5200 N   0  0  0  0  0  0  0  0  0  0  0  0
   38.6490   26.7650   43.0420 N   0  0  0  0  0  0  0  0  0  0  0  0
   38.3200   27.1710   43.9580 H   0  0  0  0  0  0  0  0  0  0  0  0
   39.2630   25.9420   42.7690 H   0  0  0  0  0  0  0  0  0  0  0  0
   35.1000   28.8360   38.1720 C   0  0  0  0  0  3  0  0  0  0  0  0
   36.4470   28.5890   38.3440 C   0  0  0  0  0  0  0  0  0  0  0  0
   37.3200   28.5850   37.2580 C   0  0  0  0  0  0  0  0  0  0  0  0
   38.3860   28.3970   37.3410 H   0  0  0  0  0  0  0  0  0  0  0  0
   36.7940   28.8370   36.0110 C   0  0  0  0  0  0  0  0  0  0  0  0
   37.3560   28.9070   34.7680 N   0  0  0  0  0  0  0  0  0  0  0  0
   36.4560   29.1810   33.8190 C   0  0  0  0  0  0  0  0  0  0  0  0
   36.6900   29.2820   32.7590 H   0  0  0  0  0  0  0  0  0  0  0  0
   35.2750   29.2950   34.4520 N   0  0  0  0  0  0  0  0  0  0  0  0
   35.4410   29.0960   35.7620 C   0  0  0  0  0  0  0  0  0  0  0  0
   34.6310   29.0810   36.9040 C   0  0  0  0  0  3  0  0  0  0  0  0
   38.3890   28.7580   34.5880 H   0  0  0  0  0  0  0  0  0  0  0  0
   40.4860   29.8690   39.5090 Cl  0  0  0  0  0  0  0  0  0  0  0  0
   39.2350   31.0720   39.7190 C   0  0  0  0  0  0  0  0  0  0  0  0
   39.4260   32.3940   39.4540 C   0  0  0  0  0  0  0  0  0  0  0  0
   38.3650   33.2310   39.6590 C   0  0  0  0  0  0  0  0  0  0  0  0
   37.1690   32.8020   40.1030 C   0  0  0  0  0  0  0  0  0  0  0  0
   36.9570   31.4760   40.3750 C   0  0  0  0  0  0  0  0  0  0  0  0
   38.0180   30.5960   40.1760 C   0  0  0  0  0  0  0  0  0  0  0  0
   38.5040   34.2850   39.4530 H   0  0  0  0  0  0  0  0  0  0  0  0
   36.3500   33.4860   40.2550 H   0  0  0  0  0  0  0  0  0  0  0  0
   35.9960   31.1480   40.7270 H   0  0  0  0  0  0  0  0  0  0  0  0
   43.0120   33.6130   39.3420 C   0  0  0  0  0  0  0  0  0  0  0  0
   41.7640   33.2300   39.8250 C   0  0  0  0  0  0  0  0  0  0  0  0
   40.7340   32.7990   38.9790 C   0  0  0  0  0  0  0  0  0  0  0  0
   41.0610   32.7890   37.6540 N   0  0  0  0  0  0  0  0  0  0  0  0
   42.2700   33.1620   37.2030 C   0  0  0  0  0  0  0  0  0  0  0  0
   43.2300   33.5670   38.0220 N   0  0  0  0  0  0  0  0  0  0  0  0
   43.7310   33.9300   40.1100 H   0  0  0  0  0  0  0  0  0  0  0  0
   41.5390   33.2510   40.8920 H   0  0  0  0  0  0  0  0  0  0  0  0
   42.5360   33.1580   36.1560 H   0  0  0  0  0  0  0  0  0  0  0  0
  1  5  1  0  0  0  0
  2  3  1  0  0  0  0
  2  1  2  0  0  0  0
  3  4  1  0  0  0  0
  4  6  1  0  0  0  0
  5  4  2  0  0  0  0
  6  7  1  0  0  0  0
  8  6  1  0  0  0  0
  9 10  1  0  0  0  0
 10  2  1  0  0  0  0
 11 12  1  0  0  0  0
 11 10  2  0  0  0  0
 13 11  1  0  0  0  0
 14 13  1  0  0  0  0
 15 17  2  0  0  0  0
 15 14  1  0  0  0  0
 16 15  1  0  0  0  0
 17 18  1  0  0  0  0
 18 13  2  0  0  0  0
 18 19  1  0  0  0  0
 19  9  2  0  0  0  0
 20 14  1  0  0  0  0
 21 22  1  0  0  0  0
 22 27  1  0  0  0  0
 23 24  1  0  0  0  0
 23 22  2  0  0  0  0
 24 25  2  0  0  0  0
 25 29  1  0  0  0  0
 25 26  1  0  0  0  0
 26 30  1  0  0  0  0
 27 26  2  0  0  0  0
 27  1  1  0  0  0  0
 28 24  1  0  0  0  0
 31 32  1  0  0  0  0
 31 37  1  0  0  0  0
 32 38  1  0  0  0  0
 33 23  1  0  0  0  0
 33 32  2  0  0  0  0
 34 33  1  0  0  0  0
 35 34  2  0  0  0  0
 35 36  1  0  0  0  0
 36 31  2  0  0  0  0
 39 35  1  0  0  0  0
M  END
>  <minimizedAffinity>
-6.21872187

$$$$

 OpenBabel03242516073D

 39 43  0  0  0  0  0  0  0  0999 V2000
   38.3800   30.9010   40.9580 C   0  0  0  0  0  0  0  0  0  0  0  0
   37.3750   31.1920   40.0380 C   0  0  0  0  0  0  0  0  0  0  0  0
   37.6350   32.9440   39.6420 S   0  0  0  0  0  0  0  0  0  0  0  0
   39.1320   33.0160   40.8370 C   0  0  0  0  0  0  0  0  0  0  0  0
   39.1210   31.9560   41.1950 N   0  0  0  0  0  0  0  0  0  0  0  0
   39.9410   34.1610   41.0990 N   0  0  0  0  0  0  0  0  0  0  0  0
   40.9660   34.0200   40.9000 H   0  0  0  0  0  0  0  0  0  0  0  0
   39.3560   34.9730   41.4570 H   0  0  0  0  0  0  0  0  0  0  0  0
   35.3250   29.7380   40.2180 C   0  0  0  0  0  3  0  0  0  0  0  0
   36.3310   30.3360   39.4890 C   0  0  0  0  0  0  0  0  0  0  0  0
   36.4260   30.1530   38.1110 C   0  0  0  0  0  0  0  0  0  0  0  0
   37.1980   30.6020   37.4950 H   0  0  0  0  0  0  0  0  0  0  0  0
   35.4820   29.3560   37.5040 C   0  0  0  0  0  0  0  0  0  0  0  0
   35.2890   28.9790   36.2050 N   0  0  0  0  0  0  0  0  0  0  0  0
   34.2280   28.1810   36.0620 C   0  0  0  0  0  0  0  0  0  0  0  0
   33.8940   27.7650   35.1100 H   0  0  0  0  0  0  0  0  0  0  0  0
   33.7100   28.0290   37.2940 N   0  0  0  0  0  0  0  0  0  0  0  0
   34.4340   28.7180   38.1790 C   0  0  0  0  0  0  0  0  0  0  0  0
   34.4100   28.9530   39.5580 C   0  0  0  0  0  3  0  0  0  0  0  0
   35.9160   29.2900   35.4100 H   0  0  0  0  0  0  0  0  0  0  0  0
   39.9160   28.9850   39.3540 Cl  0  0  0  0  0  0  0  0  0  0  0  0
   39.2600   28.5600   40.9170 C   0  0  0  0  0  0  0  0  0  0  0  0
   39.4210   27.3300   41.4790 C   0  0  0  0  0  0  0  0  0  0  0  0
   38.8580   27.1260   42.7080 C   0  0  0  0  0  0  0  0  0  0  0  0
   38.1680   28.0770   43.3640 C   0  0  0  0  0  0  0  0  0  0  0  0
   37.9960   29.3210   42.8160 C   0  0  0  0  0  0  0  0  0  0  0  0
   38.5570   29.5610   41.5640 C   0  0  0  0  0  0  0  0  0  0  0  0
   38.9790   26.1510   43.1640 H   0  0  0  0  0  0  0  0  0  0  0  0
   37.7360   27.8880   44.3330 H   0  0  0  0  0  0  0  0  0  0  0  0
   37.4430   30.0710   43.3520 H   0  0  0  0  0  0  0  0  0  0  0  0
   42.2490   25.1920   40.1410 C   0  0  0  0  0  0  0  0  0  0  0  0
   41.5510   26.1470   40.8750 C   0  0  0  0  0  0  0  0  0  0  0  0
   40.1720   26.3440   40.7270 C   0  0  0  0  0  0  0  0  0  0  0  0
   39.5810   25.5240   39.8110 N   0  0  0  0  0  0  0  0  0  0  0  0
   40.2690   24.6070   39.1080 C   0  0  0  0  0  0  0  0  0  0  0  0
   41.5740   24.4380   39.2640 N   0  0  0  0  0  0  0  0  0  0  0  0
   43.3270   25.1390   40.3510 H   0  0  0  0  0  0  0  0  0  0  0  0
   42.0580   26.7850   41.6000 H   0  0  0  0  0  0  0  0  0  0  0  0
   39.8080   23.9550   38.3800 H   0  0  0  0  0  0  0  0  0  0  0  0
  1  5  1  0  0  0  0
  1 27  1  0  0  0  0
  2  1  2  0  0  0  0
  3  2  1  0  0  0  0
  3  4  1  0  0  0  0
  4  6  1  0  0  0  0
  4  5  2  0  0  0  0
  6  8  1  0  0  0  0
  7  6  1  0  0  0  0
 10  2  1  0  0  0  0
 10  9  2  0  0  0  0
 11 10  1  0  0  0  0
 12 11  1  0  0  0  0
 13 11  2  0  0  0  0
 13 18  1  0  0  0  0
 14 13  1  0  0  0  0
 15 14  1  0  0  0  0
 15 17  2  0  0  0  0
 16 15  1  0  0  0  0
 17 18  1  0  0  0  0
 18 19  2  0  0  0  0
 19  9  1  0  0  0  0
 20 14  1  0  0  0  0
 21 22  1  0  0  0  0
 22 23  2  0  0  0  0
 22 27  1  0  0  0  0
 23 24  1  0  0  0  0
 24 28  1  0  0  0  0
 24 25  2  0  0  0  0
 25 29  1  0  0  0  0
 26 30  1  0  0  0  0
 26 25  1  0  0  0  0
 27 26  2  0  0  0  0
 31 37  1  0  0  0  0
 31 32  1  0  0  0  0
 32 38  1  0  0  0  0
 33 32  2  0  0  0  0
 33 23  1  0  0  0  0
 34 33  1  0  0  0  0
 35 36  1  0  0  0  0
 35 34  2  0  0  0  0
 36 31  2  0  0  0  0
 39 35  1  0  0  0  0
M  END
>  <minimizedAffinity>
-6.21311617

$$$$

 OpenBabel03242516073D

 39 43  0  0  0  0  0  0  0  0999 V2000
   37.8260   30.4970   40.8900 C   0  0  0  0  0  0  0  0  0  0  0  0
   37.2810   30.2870   39.6250 C   0  0  0  0  0  0  0  0  0  0  0  0
   37.2520   31.9400   38.8780 S   0  0  0  0  0  0  0  0  0  0  0  0
   38.0180   32.6950   40.4650 C   0  0  0  0  0  0  0  0  0  0  0  0
   38.1110   31.7620   41.0750 N   0  0  0  0  0  0  0  0  0  0  0  0
   38.3290   34.0720   40.6720 N   0  0  0  0  0  0  0  0  0  0  0  0
   39.3400   34.2560   40.9080 H   0  0  0  0  0  0  0  0  0  0  0  0
   37.4690   34.6850   40.5500 H   0  0  0  0  0  0  0  0  0  0  0  0
   37.5900   27.9320   38.7820 C   0  0  0  0  0  3  0  0  0  0  0  0
   36.8190   29.0560   38.9970 C   0  0  0  0  0  0  0  0  0  0  0  0
   35.4820   29.0950   38.6080 C   0  0  0  0  0  0  0  0  0  0  0  0
   34.8350   29.9540   38.7550 H   0  0  0  0  0  0  0  0  0  0  0  0
   34.9570   27.9750   38.0020 C   0  0  0  0  0  0  0  0  0  0  0  0
   33.7160   27.6860   37.5110 N   0  0  0  0  0  0  0  0  0  0  0  0
   33.6470   26.4550   36.9990 C   0  0  0  0  0  0  0  0  0  0  0  0
   32.7500   26.0210   36.5550 H   0  0  0  0  0  0  0  0  0  0  0  0
   34.8710   25.9200   37.1560 N   0  0  0  0  0  0  0  0  0  0  0  0
   35.6780   26.8010   37.7530 C   0  0  0  0  0  0  0  0  0  0  0  0
   37.0120   26.8430   38.1740 C   0  0  0  0  0  3  0  0  0  0  0  0
   32.9060   28.3690   37.5380 H   0  0  0  0  0  0  0  0  0  0  0  0
   40.4980   29.2870   40.8560 Cl  0  0  0  0  0  0  0  0  0  0  0  0
   39.2560   28.7460   41.9610 C   0  0  0  0  0  0  0  0  0  0  0  0
   39.4510   27.7440   42.8620 C   0  0  0  0  0  0  0  0  0  0  0  0
   38.3980   27.4160   43.6690 C   0  0  0  0  0  0  0  0  0  0  0  0
   37.2060   28.0370   43.6050 C   0  0  0  0  0  0  0  0  0  0  0  0
   36.9900   29.0470   42.7050 C   0  0  0  0  0  0  0  0  0  0  0  0
   38.0430   29.4050   41.8680 C   0  0  0  0  0  0  0  0  0  0  0  0
   38.5410   26.6200   44.3890 H   0  0  0  0  0  0  0  0  0  0  0  0
   36.3930   27.7570   44.2550 H   0  0  0  0  0  0  0  0  0  0  0  0
   36.0330   29.5340   42.6660 H   0  0  0  0  0  0  0  0  0  0  0  0
   43.0680   26.9490   43.6680 C   0  0  0  0  0  0  0  0  0  0  0  0
   41.8260   27.5770   43.6610 C   0  0  0  0  0  0  0  0  0  0  0  0
   40.7550   27.1110   42.8870 C   0  0  0  0  0  0  0  0  0  0  0  0
   41.0370   25.9980   42.1490 N   0  0  0  0  0  0  0  0  0  0  0  0
   42.2420   25.4030   42.1650 C   0  0  0  0  0  0  0  0  0  0  0  0
   43.2410   25.8620   42.9060 N   0  0  0  0  0  0  0  0  0  0  0  0
   43.8220   27.4150   44.3180 H   0  0  0  0  0  0  0  0  0  0  0  0
   41.6370   28.4660   44.2650 H   0  0  0  0  0  0  0  0  0  0  0  0
   42.4730   24.5230   41.5830 H   0  0  0  0  0  0  0  0  0  0  0  0
  1  5  1  0  0  0  0
  1 27  1  0  0  0  0
  2  1  2  0  0  0  0
  3  2  1  0  0  0  0
  3  4  1  0  0  0  0
  4  6  1  0  0  0  0
  4  5  2  0  0  0  0
  6  7  1  0  0  0  0
  8  6  1  0  0  0  0
  9 10  1  0  0  0  0
 10  2  1  0  0  0  0
 11 12  1  0  0  0  0
 11 10  2  0  0  0  0
 13 11  1  0  0  0  0
 14 20  1  0  0  0  0
 14 13  1  0  0  0  0
 15 17  2  0  0  0  0
 15 14  1  0  0  0  0
 16 15  1  0  0  0  0
 17 18  1  0  0  0  0
 18 13  2  0  0  0  0
 18 19  1  0  0  0  0
 19  9  2  0  0  0  0
 21 22  1  0  0  0  0
 22 23  1  0  0  0  0
 23 33  1  0  0  0  0
 23 24  2  0  0  0  0
 24 28  1  0  0  0  0
 25 24  1  0  0  0  0
 25 29  1  0  0  0  0
 26 25  2  0  0  0  0
 27 22  2  0  0  0  0
 27 26  1  0  0  0  0
 30 26  1  0  0  0  0
 31 37  1  0  0  0  0
 32 31  1  0  0  0  0
 32 38  1  0  0  0  0
 33 32  2  0  0  0  0
 34 35  2  0  0  0  0
 34 33  1  0  0  0  0
 35 36  1  0  0  0  0
 36 31  2  0  0  0  0
 39 35  1  0  0  0  0
M  END
>  <minimizedAffinity>
-6.21303988

$$$$

 OpenBabel03242516073D

 39 43  0  0  0  0  0  0  0  0999 V2000
   38.0430   30.9500   40.2050 C   0  0  0  0  0  0  0  0  0  0  0  0
   38.9540   30.4640   41.1400 C   0  0  0  0  0  0  0  0  0  0  0  0
   40.1730   31.7980   41.3030 S   0  0  0  0  0  0  0  0  0  0  0  0
   39.2190   32.8570   40.0210 C   0  0  0  0  0  0  0  0  0  0  0  0
   38.3830   32.1490   39.7970 N   0  0  0  0  0  0  0  0  0  0  0  0
   39.5850   34.1610   39.5740 N   0  0  0  0  0  0  0  0  0  0  0  0
   38.8430   34.8950   39.7280 H   0  0  0  0  0  0  0  0  0  0  0  0
   40.5620   34.1660   39.1550 H   0  0  0  0  0  0  0  0  0  0  0  0
   38.3150   28.9250   43.0310 C   0  0  0  0  0  3  0  0  0  0  0  0
   38.9760   29.1920   41.8510 C   0  0  0  0  0  0  0  0  0  0  0  0
   39.7520   28.2180   41.2260 C   0  0  0  0  0  0  0  0  0  0  0  0
   40.2910   28.3790   40.2980 H   0  0  0  0  0  0  0  0  0  0  0  0
   39.8360   26.9810   41.8260 C   0  0  0  0  0  0  0  0  0  0  0  0
   40.4920   25.8320   41.4880 N   0  0  0  0  0  0  0  0  0  0  0  0
   40.2920   24.8540   42.3760 C   0  0  0  0  0  0  0  0  0  0  0  0
   40.7220   23.8550   42.2990 H   0  0  0  0  0  0  0  0  0  0  0  0
   39.4840   25.3710   43.3200 N   0  0  0  0  0  0  0  0  0  0  0  0
   39.1920   26.6390   43.0220 C   0  0  0  0  0  0  0  0  0  0  0  0
   38.4340   27.6720   43.5850 C   0  0  0  0  0  3  0  0  0  0  0  0
   41.0910   25.7390   40.6190 H   0  0  0  0  0  0  0  0  0  0  0  0
   38.1840   29.8960   37.4720 Cl  0  0  0  0  0  0  0  0  0  0  0  0
   36.7880   29.6300   38.4910 C   0  0  0  0  0  0  0  0  0  0  0  0
   35.6960   28.9260   38.0830 C   0  0  0  0  0  0  0  0  0  0  0  0
   34.6720   28.7900   38.9780 C   0  0  0  0  0  0  0  0  0  0  0  0
   34.7060   29.3160   40.2160 C   0  0  0  0  0  0  0  0  0  0  0  0
   35.7960   30.0280   40.6450 C   0  0  0  0  0  0  0  0  0  0  0  0
   36.8570   30.1840   39.7570 C   0  0  0  0  0  0  0  0  0  0  0  0
   33.7970   28.2320   38.6650 H   0  0  0  0  0  0  0  0  0  0  0  0
   33.8830   29.1920   40.9000 H   0  0  0  0  0  0  0  0  0  0  0  0
   35.8100   30.4410   41.6360 H   0  0  0  0  0  0  0  0  0  0  0  0
   36.0600   26.5580   35.1470 C   0  0  0  0  0  0  0  0  0  0  0  0
   36.0530   27.0550   36.4470 C   0  0  0  0  0  0  0  0  0  0  0  0
   35.7140   28.3820   36.7400 C   0  0  0  0  0  0  0  0  0  0  0  0
   35.3940   29.1350   35.6480 N   0  0  0  0  0  0  0  0  0  0  0  0
   35.4060   28.6420   34.3970 C   0  0  0  0  0  0  0  0  0  0  0  0
   35.7310   27.3820   34.1440 N   0  0  0  0  0  0  0  0  0  0  0  0
   36.3450   25.5010   35.0540 H   0  0  0  0  0  0  0  0  0  0  0  0
   36.3140   26.4220   37.2960 H   0  0  0  0  0  0  0  0  0  0  0  0
   35.1550   29.2320   33.5280 H   0  0  0  0  0  0  0  0  0  0  0  0
  1  2  2  0  0  0  0
  2  3  1  0  0  0  0
  2 10  1  0  0  0  0
  4  3  1  0  0  0  0
  5  4  2  0  0  0  0
  5  1  1  0  0  0  0
  6  7  1  0  0  0  0
  6  4  1  0  0  0  0
  8  6  1  0  0  0  0
  9 19  1  0  0  0  0
 10  9  2  0  0  0  0
 11 13  2  0  0  0  0
 11 10  1  0  0  0  0
 12 11  1  0  0  0  0
 13 18  1  0  0  0  0
 14 13  1  0  0  0  0
 14 15  1  0  0  0  0
 15 17  2  0  0  0  0
 16 15  1  0  0  0  0
 18 17  1  0  0  0  0
 18 19  2  0  0  0  0
 20 14  1  0  0  0  0
 21 22  1  0  0  0  0
 22 27  1  0  0  0  0
 23 22  2  0  0  0  0
 23 24  1  0  0  0  0
 24 25  2  0  0  0  0
 25 26  1  0  0  0  0
 25 29  1  0  0  0  0
 26 30  1  0  0  0  0
 27  1  1  0  0  0  0
 27 26  2  0  0  0  0
 28 24  1  0  0  0  0
 31 32  1  0  0  0  0
 32 33  2  0  0  0  0
 32 38  1  0  0  0  0
 33 23  1  0  0  0  0
 34 33  1  0  0  0  0
 35 34  2  0  0  0  0
 36 35  1  0  0  0  0
 36 31  2  0  0  0  0
 37 31  1  0  0  0  0
 39 35  1  0  0  0  0
M  END
>  <minimizedAffinity>
-6.10473585

$$$$

 OpenBabel03242516073D

 39 43  0  0  0  0  0  0  0  0999 V2000
   40.3720   25.5780   42.3180 C   0  0  0  0  0  0  0  0  0  0  0  0
   40.3150   26.9190   42.6930 C   0  0  0  0  0  0  0  0  0  0  0  0
   41.8860   27.2030   43.5530 S   0  0  0  0  0  0  0  0  0  0  0  0
   42.4040   25.3810   43.2590 C   0  0  0  0  0  0  0  0  0  0  0  0
   41.4970   25.0300   42.7060 N   0  0  0  0  0  0  0  0  0  0  0  0
   43.6260   24.7780   43.6800 N   0  0  0  0  0  0  0  0  0  0  0  0
   44.1940   24.3600   42.8960 H   0  0  0  0  0  0  0  0  0  0  0  0
   43.7540   24.8590   44.7320 H   0  0  0  0  0  0  0  0  0  0  0  0
   38.1830   28.1150   43.3070 C   0  0  0  0  0  3  0  0  0  0  0  0
   39.2650   27.9070   42.4780 C   0  0  0  0  0  0  0  0  0  0  0  0
   39.4380   28.6620   41.3200 C   0  0  0  0  0  0  0  0  0  0  0  0
   40.2720   28.5360   40.6360 H   0  0  0  0  0  0  0  0  0  0  0  0
   38.4930   29.6210   41.0320 C   0  0  0  0  0  0  0  0  0  0  0  0
   38.3640   30.5120   40.0050 N   0  0  0  0  0  0  0  0  0  0  0  0
   37.2710   31.2710   40.1270 C   0  0  0  0  0  0  0  0  0  0  0  0
   36.9770   32.0460   39.4180 H   0  0  0  0  0  0  0  0  0  0  0  0
   36.6670   30.8710   41.2600 N   0  0  0  0  0  0  0  0  0  0  0  0
   37.3710   29.8870   41.8270 C   0  0  0  0  0  0  0  0  0  0  0  0
   37.2710   29.0860   42.9700 C   0  0  0  0  0  3  0  0  0  0  0  0
   39.0570   30.5840   39.2070 H   0  0  0  0  0  0  0  0  0  0  0  0
   40.7210   25.4520   39.4080 Cl  0  0  0  0  0  0  0  0  0  0  0  0
   39.3200   24.7680   40.1980 C   0  0  0  0  0  0  0  0  0  0  0  0
   38.3180   24.1420   39.5200 C   0  0  0  0  0  0  0  0  0  0  0  0
   37.2780   23.6510   40.2570 C   0  0  0  0  0  0  0  0  0  0  0  0
   37.2130   23.7610   41.5970 C   0  0  0  0  0  0  0  0  0  0  0  0
   38.2100   24.3870   42.2970 C   0  0  0  0  0  0  0  0  0  0  0  0
   39.2850   24.8990   41.5760 C   0  0  0  0  0  0  0  0  0  0  0  0
   36.4740   23.1510   39.7290 H   0  0  0  0  0  0  0  0  0  0  0  0
   36.3790   23.3630   42.1520 H   0  0  0  0  0  0  0  0  0  0  0  0
   38.1450   24.4670   43.3670 H   0  0  0  0  0  0  0  0  0  0  0  0
   39.1360   22.9050   36.0330 C   0  0  0  0  0  0  0  0  0  0  0  0
   39.0320   22.9680   37.4190 C   0  0  0  0  0  0  0  0  0  0  0  0
   38.4410   24.0530   38.0780 C   0  0  0  0  0  0  0  0  0  0  0  0
   37.9800   25.0320   37.2480 N   0  0  0  0  0  0  0  0  0  0  0  0
   38.0880   24.9590   35.9100 C   0  0  0  0  0  0  0  0  0  0  0  0
   38.6520   23.9220   35.3080 N   0  0  0  0  0  0  0  0  0  0  0  0
   39.6220   22.0000   35.6410 H   0  0  0  0  0  0  0  0  0  0  0  0
   39.4120   22.1640   38.0520 H   0  0  0  0  0  0  0  0  0  0  0  0
   37.7260   25.7310   35.2460 H   0  0  0  0  0  0  0  0  0  0  0  0
  1  2  2  0  0  0  0
  1  5  1  0  0  0  0
  2  3  1  0  0  0  0
  4  3  1  0  0  0  0
  4  6  1  0  0  0  0
  5  4  2  0  0  0  0
  6  8  1  0  0  0  0
  7  6  1  0  0  0  0
 10  2  1  0  0  0  0
 10  9  2  0  0  0  0
 11 10  1  0  0  0  0
 12 11  1  0  0  0  0
 13 11  2  0  0  0  0
 13 18  1  0  0  0  0
 14 15  1  0  0  0  0
 14 13  1  0  0  0  0
 15 17  2  0  0  0  0
 16 15  1  0  0  0  0
 17 18  1  0  0  0  0
 18 19  2  0  0  0  0
 19  9  1  0  0  0  0
 20 14  1  0  0  0  0
 21 22  1  0  0  0  0
 22 27  1  0  0  0  0
 23 22  2  0  0  0  0
 23 24  1  0  0  0  0
 24 25  2  0  0  0  0
 25 29  1  0  0  0  0
 25 26  1  0  0  0  0
 26 30  1  0  0  0  0
 27 26  2  0  0  0  0
 27  1  1  0  0  0  0
 28 24  1  0  0  0  0
 31 32  1  0  0  0  0
 32 38  1  0  0  0  0
 32 33  2  0  0  0  0
 33 23  1  0  0  0  0
 34 33  1  0  0  0  0
 35 34  2  0  0  0  0
 36 35  1  0  0  0  0
 36 31  2  0  0  0  0
 37 31  1  0  0  0  0
 39 35  1  0  0  0  0
M  END
>  <minimizedAffinity>
-6.05559683

$$$$
