
 OpenBabel03252503343D

 25 27  0  0  0  0  0  0  0  0999 V2000
   46.1330   33.9600   40.8480 C   0  0  0  0  0  0  0  0  0  0  0  0
   45.0450   33.3870   41.1310 O   0  0  0  0  0  0  0  0  0  0  0  0
   46.6310   34.7800   41.8920 N   0  0  0  0  0  0  0  0  0  0  0  0
   47.4850   35.3650   41.7650 H   0  0  0  0  0  0  0  0  0  0  0  0
   48.0400   34.4160   39.2670 C   0  0  0  0  0  3  0  0  0  0  0  0
   46.8390   33.8150   39.5800 C   0  0  0  0  0  0  0  0  0  0  0  0
   46.2630   33.0110   38.6080 C   0  0  0  0  0  0  0  0  0  0  0  0
   45.3260   32.4750   38.7070 H   0  0  0  0  0  0  0  0  0  0  0  0
   46.8690   32.8170   37.3660 C   0  0  0  0  0  0  0  0  0  0  0  0
   46.6070   32.1370   36.2420 N   0  0  0  0  0  0  0  0  0  0  0  0
   47.5850   32.3320   35.3420 C   0  0  0  0  0  0  0  0  0  0  0  0
   47.6830   31.9300   34.3360 H   0  0  0  0  0  0  0  0  0  0  0  0
   48.5290   33.1550   35.8590 N   0  0  0  0  0  0  0  0  0  0  0  0
   48.0730   33.4380   37.0930 C   0  0  0  0  0  0  0  0  0  0  0  0
   48.6550   34.2390   38.0500 C   0  0  0  0  0  3  0  0  0  0  0  0
   45.7520   31.5440   36.1040 H   0  0  0  0  0  0  0  0  0  0  0  0
   44.5120   35.9500   44.7100 C   0  0  0  0  0  0  0  0  0  0  0  0
   45.1160   35.9030   43.4360 C   0  0  0  0  0  0  0  0  0  0  0  0
   46.0060   34.8590   43.1640 C   0  0  0  0  0  0  0  0  0  0  0  0
   46.2590   33.9380   44.1160 N   0  0  0  0  0  0  0  0  0  0  0  0
   45.6560   34.0120   45.3450 C   0  0  0  0  0  0  0  0  0  0  0  0
   44.7990   35.0100   45.6150 N   0  0  0  0  0  0  0  0  0  0  0  0
   43.8190   36.7430   44.9530 H   0  0  0  0  0  0  0  0  0  0  0  0
   44.8740   36.6730   42.7080 H   0  0  0  0  0  0  0  0  0  0  0  0
   45.9310   33.2220   46.0280 H   0  0  0  0  0  0  0  0  0  0  0  0
  1  2  2  0  0  0  0
  1  3  1  0  0  0  0
  3 19  1  0  0  0  0
  4  3  1  0  0  0  0
  5  6  1  0  0  0  0
  6  1  1  0  0  0  0
  7  8  1  0  0  0  0
  7  6  2  0  0  0  0
  9  7  1  0  0  0  0
 10  9  1  0  0  0  0
 11 13  2  0  0  0  0
 11 10  1  0  0  0  0
 12 11  1  0  0  0  0
 13 14  1  0  0  0  0
 14  9  2  0  0  0  0
 14 15  1  0  0  0  0
 15  5  2  0  0  0  0
 16 10  1  0  0  0  0
 17 23  1  0  0  0  0
 17 22  1  0  0  0  0
 18 17  2  0  0  0  0
 19 18  1  0  0  0  0
 19 20  2  0  0  0  0
 20 21  1  0  0  0  0
 21 22  2  0  0  0  0
 21 25  1  0  0  0  0
 24 18  1  0  0  0  0
M  END
>  <minimizedAffinity>
-5.04763794

>  <minimizedRMSD>
1.01885772

$$$$
