
 OpenBabel03252506373D

 47 51  0  0  1  0  0  0  0  0999 V2000
   46.6500   30.0150   46.5110 S   0  0  0  0  0  0  0  0  0  0  0  0
   44.5150   35.5060   45.1350 C   0  0  0  0  0  0  0  0  0  0  0  0
   45.1680   35.5080   43.8850 C   0  0  0  0  0  0  0  0  0  0  0  0
   46.0880   34.5520   43.6190 C   0  0  0  0  0  0  0  0  0  0  0  0
   46.3270   33.6360   44.5890 N   0  0  0  0  0  0  0  0  0  0  0  0
   45.7110   33.6370   45.7620 C   0  0  0  0  0  0  0  0  0  0  0  0
   44.8000   34.5670   46.0540 N   0  0  0  0  0  0  0  0  0  0  0  0
   46.0470   32.6170   46.7180 N   0  0  0  0  0  0  0  0  0  0  0  0
   45.3120   32.3600   47.9020 C   0  0  0  0  0  0  0  0  0  0  0  0
   46.3880   32.0040   48.9110 C   0  0  0  0  0  0  0  0  0  0  0  0
   47.6690   31.9060   48.1370 C   0  0  0  0  0  0  0  0  0  0  0  0
   47.1640   31.7070   46.7080 C   0  0  1  0  0  0  0  0  0  0  0  0
   43.7850   36.2810   45.3260 H   0  0  0  0  0  0  0  0  0  0  0  0
   46.5910   34.5340   42.6820 H   0  0  0  0  0  0  0  0  0  0  0  0
   44.5130   31.7030   48.0000 H   0  0  0  0  0  0  0  0  0  0  0  0
   44.9390   33.3670   48.2710 H   0  0  0  0  0  0  0  0  0  0  0  0
   46.5020   32.7130   49.7290 H   0  0  0  0  0  0  0  0  0  0  0  0
   46.1460   31.0160   49.3920 H   0  0  0  0  0  0  0  0  0  0  0  0
   48.2450   31.0000   48.4390 H   0  0  0  0  0  0  0  0  0  0  0  0
   48.2590   32.8230   48.2550 H   0  0  0  0  0  0  0  0  0  0  0  0
   47.9980   32.0090   46.0520 H   0  0  0  0  0  0  0  0  0  0  0  0
   44.8040   36.5480   42.9610 N   0  0  0  0  0  0  0  0  0  0  0  0
   45.5910   36.8440   42.3530 H   0  0  0  0  0  0  0  0  0  0  0  0
   43.8650   36.9740   42.8900 H   0  0  0  0  0  0  0  0  0  0  0  0
   45.5240   30.5460   43.4180 O   0  0  0  0  0  0  0  0  0  0  0  0
   44.9280   29.9910   44.3540 C   0  0  0  0  0  0  0  0  0  0  0  0
   45.0770   29.7410   45.8080 C   0  0  1  0  0  0  0  0  0  0  0  0
   44.5430   28.3360   45.9410 C   0  0  0  0  0  0  0  0  0  0  0  0
   43.2040   28.5550   45.2280 C   0  0  0  0  0  0  0  0  0  0  0  0
   43.6710   29.3370   44.0910 N   0  0  0  0  0  0  0  0  0  0  0  0
   44.2050   30.3370   46.1970 H   0  0  0  0  0  0  0  0  0  0  0  0
   45.1000   27.6100   45.3190 H   0  0  0  0  0  0  0  0  0  0  0  0
   44.3750   28.0270   46.9780 H   0  0  0  0  0  0  0  0  0  0  0  0
   42.8440   27.5700   44.8990 H   0  0  0  0  0  0  0  0  0  0  0  0
   42.4890   29.1100   45.8560 H   0  0  0  0  0  0  0  0  0  0  0  0
   41.8510   30.3140   42.9450 C   0  0  0  0  0  3  0  0  0  0  0  0
   42.8350   29.3390   42.9130 C   0  0  0  0  0  0  0  0  0  0  0  0
   42.9520   28.4920   41.8460 C   0  0  0  0  0  0  0  0  0  0  0  0
   43.7450   27.7590   41.9000 H   0  0  0  0  0  0  0  0  0  0  0  0
   42.0780   28.6060   40.7770 C   0  0  0  0  0  0  0  0  0  0  0  0
   41.9900   27.9040   39.6330 N   0  0  0  0  0  0  0  0  0  0  0  0
   40.9450   28.4390   38.9360 C   0  0  0  0  0  0  0  0  0  0  0  0
   40.5770   28.1190   37.9530 H   0  0  0  0  0  0  0  0  0  0  0  0
   40.3830   29.4480   39.6130 N   0  0  0  0  0  0  0  0  0  0  0  0
   41.0690   29.5740   40.7620 C   0  0  0  0  0  0  0  0  0  0  0  0
   40.9860   30.4170   41.8730 C   0  0  0  0  0  3  0  0  0  0  0  0
   42.5970   27.1080   39.3310 H   0  0  0  0  0  0  0  0  0  0  0  0
  1 12  1  0  0  0  0
  2 13  1  0  0  0  0
  2  7  1  0  0  0  0
  3  2  2  0  0  0  0
  4  3  1  0  0  0  0
  4  5  2  0  0  0  0
  5  6  1  0  0  0  0
  6  7  2  0  0  0  0
  6  8  1  0  0  0  0
  8  9  1  0  0  0  0
  9 15  1  0  0  0  0
  9 16  1  0  0  0  0
  9 10  1  0  0  0  0
 10 18  1  0  0  0  0
 10 17  1  0  0  0  0
 11 20  1  0  0  0  0
 11 19  1  0  0  0  0
 11 10  1  0  0  0  0
 12 21  1  6  0  0  0
 12  8  1  0  0  0  0
 12 11  1  0  0  0  0
 14  4  1  0  0  0  0
 22  3  1  0  0  0  0
 23 22  1  0  0  0  0
 24 22  1  0  0  0  0
 25 26  2  0  0  0  0
 26 27  1  0  0  0  0
 27 28  1  0  0  0  0
 27 31  1  1  0  0  0
 27  1  1  0  0  0  0
 28 33  1  0  0  0  0
 29 35  1  0  0  0  0
 29 28  1  0  0  0  0
 30 26  1  0  0  0  0
 30 29  1  0  0  0  0
 32 28  1  0  0  0  0
 34 29  1  0  0  0  0
 37 36  1  0  0  0  0
 37 30  1  0  0  0  0
 38 39  1  0  0  0  0
 38 37  2  0  0  0  0
 40 38  1  0  0  0  0
 41 40  1  0  0  0  0
 42 44  2  0  0  0  0
 42 41  1  0  0  0  0
 43 42  1  0  0  0  0
 44 45  1  0  0  0  0
 45 40  2  0  0  0  0
 45 46  1  0  0  0  0
 46 36  2  0  0  0  0
 47 41  1  0  0  0  0
M  END
>  <minimizedAffinity>
-5.4840827

>  <minimizedRMSD>
0.775401771

$$$$
