
 OpenBabel03252506383D

 47 51  0  0  1  0  0  0  0  0999 V2000
   46.6390   30.0410   46.5120 S   0  0  0  0  0  0  0  0  0  0  0  0
   44.5050   35.5310   45.1340 C   0  0  0  0  0  0  0  0  0  0  0  0
   45.1590   35.5320   43.8840 C   0  0  0  0  0  0  0  0  0  0  0  0
   46.0780   34.5760   43.6190 C   0  0  0  0  0  0  0  0  0  0  0  0
   46.3170   33.6600   44.5890 N   0  0  0  0  0  0  0  0  0  0  0  0
   45.7010   33.6620   45.7620 C   0  0  0  0  0  0  0  0  0  0  0  0
   44.7900   34.5920   46.0540 N   0  0  0  0  0  0  0  0  0  0  0  0
   46.0360   32.6420   46.7190 N   0  0  0  0  0  0  0  0  0  0  0  0
   45.3010   32.3860   47.9020 C   0  0  0  0  0  0  0  0  0  0  0  0
   46.3760   32.0300   48.9120 C   0  0  0  0  0  0  0  0  0  0  0  0
   47.6570   31.9310   48.1380 C   0  0  0  0  0  0  0  0  0  0  0  0
   47.1530   31.7320   46.7100 C   0  0  1  0  0  0  0  0  0  0  0  0
   43.7750   36.3060   45.3240 H   0  0  0  0  0  0  0  0  0  0  0  0
   46.5820   34.5580   42.6820 H   0  0  0  0  0  0  0  0  0  0  0  0
   44.5010   31.7290   48.0000 H   0  0  0  0  0  0  0  0  0  0  0  0
   44.9270   33.3930   48.2710 H   0  0  0  0  0  0  0  0  0  0  0  0
   46.4900   32.7390   49.7300 H   0  0  0  0  0  0  0  0  0  0  0  0
   46.1340   31.0420   49.3930 H   0  0  0  0  0  0  0  0  0  0  0  0
   48.2340   31.0260   48.4410 H   0  0  0  0  0  0  0  0  0  0  0  0
   48.2480   32.8480   48.2560 H   0  0  0  0  0  0  0  0  0  0  0  0
   47.9880   32.0340   46.0530 H   0  0  0  0  0  0  0  0  0  0  0  0
   44.7950   36.5720   42.9600 N   0  0  0  0  0  0  0  0  0  0  0  0
   45.5830   36.8680   42.3520 H   0  0  0  0  0  0  0  0  0  0  0  0
   43.8560   36.9990   42.8890 H   0  0  0  0  0  0  0  0  0  0  0  0
   45.6240   30.6150   43.3890 O   0  0  0  0  0  0  0  0  0  0  0  0
   44.9990   30.0380   44.2930 C   0  0  0  0  0  0  0  0  0  0  0  0
   45.0950   29.7640   45.7460 C   0  0  1  0  0  0  0  0  0  0  0  0
   44.5710   28.3520   45.8360 C   0  0  0  0  0  0  0  0  0  0  0  0
   43.2570   28.5720   45.0760 C   0  0  0  0  0  0  0  0  0  0  0  0
   43.7590   29.3780   43.9710 N   0  0  0  0  0  0  0  0  0  0  0  0
   44.2040   30.3460   46.1120 H   0  0  0  0  0  0  0  0  0  0  0  0
   45.1570   27.6420   45.2220 H   0  0  0  0  0  0  0  0  0  0  0  0
   44.3670   28.0240   46.8600 H   0  0  0  0  0  0  0  0  0  0  0  0
   42.9190   27.5900   44.7180 H   0  0  0  0  0  0  0  0  0  0  0  0
   42.5140   29.1100   45.6870 H   0  0  0  0  0  0  0  0  0  0  0  0
   41.8310   30.1810   42.8660 C   0  0  0  0  0  3  0  0  0  0  0  0
   42.9670   29.3930   42.7620 C   0  0  0  0  0  0  0  0  0  0  0  0
   43.2560   28.7220   41.6080 C   0  0  0  0  0  0  0  0  0  0  0  0
   44.1610   28.1300   41.6100 H   0  0  0  0  0  0  0  0  0  0  0  0
   42.4060   28.8250   40.5180 C   0  0  0  0  0  0  0  0  0  0  0  0
   42.4710   28.2730   39.2940 N   0  0  0  0  0  0  0  0  0  0  0  0
   41.3700   28.7130   38.6170 C   0  0  0  0  0  0  0  0  0  0  0  0
   41.0910   28.4660   37.5850 H   0  0  0  0  0  0  0  0  0  0  0  0
   40.6270   29.5200   39.3850 N   0  0  0  0  0  0  0  0  0  0  0  0
   41.2470   29.6070   40.5710 C   0  0  0  0  0  0  0  0  0  0  0  0
   40.9910   30.2760   41.7720 C   0  0  0  0  0  3  0  0  0  0  0  0
   43.2130   27.6330   38.9270 H   0  0  0  0  0  0  0  0  0  0  0  0
  1 12  1  0  0  0  0
  2 13  1  0  0  0  0
  2  7  1  0  0  0  0
  3  2  2  0  0  0  0
  4  3  1  0  0  0  0
  4  5  2  0  0  0  0
  5  6  1  0  0  0  0
  6  7  2  0  0  0  0
  6  8  1  0  0  0  0
  8  9  1  0  0  0  0
  9 15  1  0  0  0  0
  9 16  1  0  0  0  0
  9 10  1  0  0  0  0
 10 18  1  0  0  0  0
 10 17  1  0  0  0  0
 11 20  1  0  0  0  0
 11 19  1  0  0  0  0
 11 10  1  0  0  0  0
 12 21  1  6  0  0  0
 12  8  1  0  0  0  0
 12 11  1  0  0  0  0
 14  4  1  0  0  0  0
 22  3  1  0  0  0  0
 23 22  1  0  0  0  0
 24 22  1  0  0  0  0
 25 26  2  0  0  0  0
 26 27  1  0  0  0  0
 27 28  1  0  0  0  0
 27 31  1  1  0  0  0
 27  1  1  0  0  0  0
 28 33  1  0  0  0  0
 29 35  1  0  0  0  0
 29 28  1  0  0  0  0
 30 26  1  0  0  0  0
 30 29  1  0  0  0  0
 32 28  1  0  0  0  0
 34 29  1  0  0  0  0
 37 36  1  0  0  0  0
 37 30  1  0  0  0  0
 38 39  1  0  0  0  0
 38 37  2  0  0  0  0
 40 45  2  0  0  0  0
 40 38  1  0  0  0  0
 41 40  1  0  0  0  0
 42 41  1  0  0  0  0
 42 44  2  0  0  0  0
 43 42  1  0  0  0  0
 44 45  1  0  0  0  0
 45 46  1  0  0  0  0
 46 36  2  0  0  0  0
 47 41  1  0  0  0  0
M  END
>  <minimizedAffinity>
-5.46998549

>  <minimizedRMSD>
0.169235602

$$$$
