
 OpenBabel03242517143D

 26 28  0  0  0  0  0  0  0  0999 V2000
   42.7470   35.2950   39.8670 C   0  0  0  0  0  0  0  0  0  0  0  0
   42.6280   36.4000   39.9820 H   0  0  0  0  0  0  0  0  0  0  0  0
   43.5570   35.0820   39.1460 H   0  0  0  0  0  0  0  0  0  0  0  0
   40.2240   35.3130   39.7300 C   0  0  0  0  0  0  0  0  0  0  0  0
   41.4520   34.7050   39.4490 C   0  0  0  0  0  0  0  0  0  0  0  0
   41.4740   33.5170   38.7640 C   0  0  0  0  0  0  0  0  0  0  0  0
   42.4200   33.0340   38.5390 H   0  0  0  0  0  0  0  0  0  0  0  0
   40.3160   32.8770   38.3250 C   0  0  0  0  0  0  0  0  0  0  0  0
   40.0570   31.7410   37.6520 N   0  0  0  0  0  0  0  0  0  0  0  0
   38.7160   31.6500   37.5220 C   0  0  0  0  0  0  0  0  0  0  0  0
   38.2400   30.8140   37.0100 H   0  0  0  0  0  0  0  0  0  0  0  0
   38.1390   32.7230   38.1090 N   0  0  0  0  0  0  0  0  0  0  0  0
   39.0990   33.4890   38.6080 C   0  0  0  0  0  0  0  0  0  0  0  0
   39.0840   34.6830   39.2990 C   0  0  0  0  0  0  0  0  0  0  0  0
   40.8420   31.1300   37.3450 H   0  0  0  0  0  0  0  0  0  0  0  0
   44.0140   35.3730   41.9800 C   0  0  0  0  0  0  0  0  0  0  0  0
   43.1850   34.7420   41.1850 C   0  0  0  0  0  0  0  0  0  0  0  0
   44.3110   35.6940   44.4150 C   0  0  0  0  0  0  0  0  0  0  0  0
   44.4960   34.9250   43.2690 C   0  0  0  0  0  0  0  0  0  0  0  0
   45.1550   33.7140   43.3980 C   0  0  0  0  0  0  0  0  0  0  0  0
   45.5960   33.3220   44.6330 N   0  0  0  0  0  0  0  0  0  0  0  0
   45.3980   34.0990   45.7280 C   0  0  0  0  0  0  0  0  0  0  0  0
   44.7580   35.2790   45.6150 N   0  0  0  0  0  0  0  0  0  0  0  0
   43.7890   36.6400   44.2780 H   0  0  0  0  0  0  0  0  0  0  0  0
   45.3280   33.0740   42.5480 H   0  0  0  0  0  0  0  0  0  0  0  0
   45.7360   33.8130   46.7170 H   0  0  0  0  0  0  0  0  0  0  0  0
  1  2  1  0  0  0  0
  1 17  1  0  0  0  0
  3  1  1  0  0  0  0
  5  4  1  0  0  0  0
  5  1  1  0  0  0  0
  6  5  2  0  0  0  0
  7  6  1  0  0  0  0
  8 13  2  0  0  0  0
  8  6  1  0  0  0  0
  9  8  1  0  0  0  0
 10  9  1  0  0  0  0
 10 12  2  0  0  0  0
 11 10  1  0  0  0  0
 12 13  1  0  0  0  0
 13 14  1  0  0  0  0
 14  4  2  0  0  0  0
 15  9  1  0  0  0  0
 16 19  1  0  0  0  0
 17 16  2  0  0  0  0
 18 23  1  0  0  0  0
 19 20  1  0  0  0  0
 19 18  2  0  0  0  0
 20 21  2  0  0  0  0
 21 22  1  0  0  0  0
 22 26  1  0  0  0  0
 23 22  2  0  0  0  0
 24 18  1  0  0  0  0
 25 20  1  0  0  0  0
M  END
>  <minimizedAffinity>
-5.2069726

>  <minimizedRMSD>
2.24265409

$$$$
