
 OpenBabel03242518083D

 38 41  0  0  1  0  0  0  0  0999 V2000
   38.1360   29.3050   41.2060 N   0  0  0  0  0  0  0  0  0  0  0  0
   38.6240   29.1800   42.5570 C   0  0  0  0  0  0  0  0  0  0  0  0
   37.6170   28.5780   43.4420 C   0  0  0  0  0  0  0  0  0  0  0  0
   36.5520   27.7780   42.8000 C   0  0  0  0  0  0  0  0  0  0  0  0
   36.7820   27.2910   41.4280 C   0  0  0  0  0  0  0  0  0  0  0  0
   37.6850   28.1250   40.5490 C   0  0  1  0  0  0  0  0  0  0  0  0
   39.5320   28.5310   42.4870 H   0  0  0  0  0  0  0  0  0  0  0  0
   39.0070   30.1560   42.9400 H   0  0  0  0  0  0  0  0  0  0  0  0
   37.1980   29.3880   44.0810 H   0  0  0  0  0  0  0  0  0  0  0  0
   38.1760   27.9400   44.1890 H   0  0  0  0  0  0  0  0  0  0  0  0
   36.3220   26.8900   43.4520 H   0  0  0  0  0  0  0  0  0  0  0  0
   35.6060   28.3750   42.8490 H   0  0  0  0  0  0  0  0  0  0  0  0
   35.7800   27.2590   40.9040 H   0  0  0  0  0  0  0  0  0  0  0  0
   37.0960   26.2270   41.4410 H   0  0  0  0  0  0  0  0  0  0  0  0
   38.6190   27.5000   40.4100 H   0  0  0  0  0  0  0  0  0  0  0  0
   35.7270   28.3980   39.0110 C   0  0  0  0  0  3  0  0  0  0  0  0
   37.1110   28.3020   39.2030 C   0  0  0  0  0  0  0  0  0  0  0  0
   37.7940   28.4210   38.0160 C   0  0  0  0  0  0  0  0  0  0  0  0
   38.8560   28.3840   38.0260 H   0  0  0  0  0  0  0  0  0  0  0  0
   37.2180   28.6110   36.7800 C   0  0  0  0  0  0  0  0  0  0  0  0
   37.7160   28.7460   35.5380 N   0  0  0  0  0  0  0  0  0  0  0  0
   36.6730   28.9080   34.6950 C   0  0  0  0  0  0  0  0  0  0  0  0
   36.8530   29.0380   33.6240 H   0  0  0  0  0  0  0  0  0  0  0  0
   35.5370   28.8770   35.3870 N   0  0  0  0  0  0  0  0  0  0  0  0
   35.8460   28.6930   36.6830 C   0  0  0  0  0  0  0  0  0  0  0  0
   35.0660   28.5870   37.8160 C   0  0  0  0  0  3  0  0  0  0  0  0
   38.7440   28.7240   35.3050 H   0  0  0  0  0  0  0  0  0  0  0  0
   36.9700   31.3650   40.6930 C   0  0  0  0  0  0  0  0  0  0  0  0
   38.1400   30.5630   40.5880 C   0  0  0  0  0  0  0  0  0  0  0  0
   39.2160   31.0970   39.8770 C   0  0  0  0  0  0  0  0  0  0  0  0
   39.0770   32.3260   39.3430 N   0  0  0  0  0  0  0  0  0  0  0  0
   37.9670   33.0570   39.4590 C   0  0  0  0  0  0  0  0  0  0  0  0
   36.9130   32.5840   40.1300 N   0  0  0  0  0  0  0  0  0  0  0  0
   35.8400   30.8600   41.4060 N   0  0  0  0  0  0  0  0  0  0  0  0
   40.1130   30.4800   39.7960 H   0  0  0  0  0  0  0  0  0  0  0  0
   37.8770   34.0450   39.0210 H   0  0  0  0  0  0  0  0  0  0  0  0
   35.4270   29.9070   41.1820 H   0  0  0  0  0  0  0  0  0  0  0  0
   35.2920   31.3080   42.1850 H   0  0  0  0  0  0  0  0  0  0  0  0
  1  2  1  0  0  0  0
  2  8  1  0  0  0  0
  2  3  1  0  0  0  0
  3  9  1  0  0  0  0
  3 10  1  0  0  0  0
  4 12  1  0  0  0  0
  4  3  1  0  0  0  0
  4 11  1  0  0  0  0
  5 14  1  0  0  0  0
  5  4  1  0  0  0  0
  6 15  1  6  0  0  0
  6  1  1  0  0  0  0
  6  5  1  0  0  0  0
  7  2  1  0  0  0  0
 13  5  1  0  0  0  0
 16 17  1  0  0  0  0
 17  6  1  0  0  0  0
 18 19  1  0  0  0  0
 18 17  2  0  0  0  0
 20 18  1  0  0  0  0
 21 20  1  0  0  0  0
 22 24  2  0  0  0  0
 22 21  1  0  0  0  0
 23 22  1  0  0  0  0
 24 25  1  0  0  0  0
 25 20  2  0  0  0  0
 25 26  1  0  0  0  0
 26 16  2  0  0  0  0
 27 21  1  0  0  0  0
 28 34  1  0  0  0  0
 29 28  1  0  0  0  0
 29  1  1  0  0  0  0
 30 29  2  0  0  0  0
 31 32  2  0  0  0  0
 31 30  1  0  0  0  0
 32 33  1  0  0  0  0
 33 28  2  0  0  0  0
 34 38  1  0  0  0  0
 35 30  1  0  0  0  0
 36 32  1  0  0  0  0
 37 34  1  0  0  0  0
M  END
>  <minimizedAffinity>
-6.20294762

$$$$

 OpenBabel03242518083D

 38 41  0  0  1  0  0  0  0  0999 V2000
   37.4790   28.8000   41.6940 N   0  0  0  0  0  0  0  0  0  0  0  0
   36.4770   27.8950   42.1990 C   0  0  0  0  0  0  0  0  0  0  0  0
   37.0740   26.6430   42.6820 C   0  0  0  0  0  0  0  0  0  0  0  0
   38.5070   26.6770   43.0410 C   0  0  0  0  0  0  0  0  0  0  0  0
   39.1270   27.9900   43.2960 C   0  0  0  0  0  0  0  0  0  0  0  0
   38.5380   29.1770   42.5680 C   0  0  1  0  0  0  0  0  0  0  0  0
   35.9730   28.4440   43.0330 H   0  0  0  0  0  0  0  0  0  0  0  0
   35.6690   27.7270   41.4470 H   0  0  0  0  0  0  0  0  0  0  0  0
   36.8540   25.8500   41.9300 H   0  0  0  0  0  0  0  0  0  0  0  0
   36.4640   26.3110   43.5740 H   0  0  0  0  0  0  0  0  0  0  0  0
   38.6690   26.0320   43.9490 H   0  0  0  0  0  0  0  0  0  0  0  0
   39.0680   26.1300   42.2420 H   0  0  0  0  0  0  0  0  0  0  0  0
   40.2080   27.9280   42.9680 H   0  0  0  0  0  0  0  0  0  0  0  0
   39.2030   28.1780   44.3870 H   0  0  0  0  0  0  0  0  0  0  0  0
   38.0380   29.7970   43.3740 H   0  0  0  0  0  0  0  0  0  0  0  0
   40.7800   29.4820   41.4950 C   0  0  0  0  0  3  0  0  0  0  0  0
   39.5920   30.0310   41.9930 C   0  0  0  0  0  0  0  0  0  0  0  0
   39.5640   31.3970   41.8400 C   0  0  0  0  0  0  0  0  0  0  0  0
   38.7070   31.9360   42.1630 H   0  0  0  0  0  0  0  0  0  0  0  0
   40.5640   32.1560   41.2740 C   0  0  0  0  0  0  0  0  0  0  0  0
   40.7070   33.4740   41.0460 N   0  0  0  0  0  0  0  0  0  0  0  0
   41.9080   33.6570   40.4540 C   0  0  0  0  0  0  0  0  0  0  0  0
   42.2310   34.6650   40.1770 H   0  0  0  0  0  0  0  0  0  0  0  0
   42.5130   32.4800   40.3080 N   0  0  0  0  0  0  0  0  0  0  0  0
   41.7010   31.5320   40.8090 C   0  0  0  0  0  0  0  0  0  0  0  0
   41.8290   30.1630   40.9130 C   0  0  0  0  0  3  0  0  0  0  0  0
   39.9890   34.2030   41.2980 H   0  0  0  0  0  0  0  0  0  0  0  0
   36.5320   30.4170   40.1590 C   0  0  0  0  0  0  0  0  0  0  0  0
   37.3680   29.2880   40.3850 C   0  0  0  0  0  0  0  0  0  0  0  0
   38.0250   28.7510   39.2770 C   0  0  0  0  0  0  0  0  0  0  0  0
   37.8270   29.3330   38.0770 N   0  0  0  0  0  0  0  0  0  0  0  0
   37.0390   30.3930   37.8950 C   0  0  0  0  0  0  0  0  0  0  0  0
   36.3890   30.9380   38.9280 N   0  0  0  0  0  0  0  0  0  0  0  0
   35.8330   30.9990   41.2600 N   0  0  0  0  0  0  0  0  0  0  0  0
   38.6640   27.8840   39.4520 H   0  0  0  0  0  0  0  0  0  0  0  0
   36.8940   30.8450   36.9200 H   0  0  0  0  0  0  0  0  0  0  0  0
   35.2280   30.4090   41.9030 H   0  0  0  0  0  0  0  0  0  0  0  0
   35.8090   32.0040   41.5750 H   0  0  0  0  0  0  0  0  0  0  0  0
  1  2  1  0  0  0  0
  1  6  1  0  0  0  0
  2  3  1  0  0  0  0
  2  7  1  0  0  0  0
  3  4  1  0  0  0  0
  3 10  1  0  0  0  0
  4  5  1  0  0  0  0
  4 11  1  0  0  0  0
  5 14  1  0  0  0  0
  6  5  1  0  0  0  0
  6 15  1  1  0  0  0
  8  2  1  0  0  0  0
  9  3  1  0  0  0  0
 12  4  1  0  0  0  0
 13  5  1  0  0  0  0
 16 17  1  0  0  0  0
 17  6  1  0  0  0  0
 18 17  2  0  0  0  0
 18 19  1  0  0  0  0
 20 18  1  0  0  0  0
 21 20  1  0  0  0  0
 21 27  1  0  0  0  0
 22 21  1  0  0  0  0
 23 22  1  0  0  0  0
 24 22  2  0  0  0  0
 24 25  1  0  0  0  0
 25 26  1  0  0  0  0
 25 20  2  0  0  0  0
 26 16  2  0  0  0  0
 28 29  1  0  0  0  0
 28 34  1  0  0  0  0
 29  1  1  0  0  0  0
 30 35  1  0  0  0  0
 30 29  2  0  0  0  0
 31 30  1  0  0  0  0
 32 31  2  0  0  0  0
 32 33  1  0  0  0  0
 33 28  2  0  0  0  0
 34 38  1  0  0  0  0
 34 37  1  0  0  0  0
 36 32  1  0  0  0  0
M  END
>  <minimizedAffinity>
-5.91692591

$$$$

 OpenBabel03242518083D

 38 41  0  0  1  0  0  0  0  0999 V2000
   39.3560   27.7970   42.8270 N   0  0  0  0  0  0  0  0  0  0  0  0
   39.4670   26.6400   43.6800 C   0  0  0  0  0  0  0  0  0  0  0  0
   40.7830   25.9990   43.5510 C   0  0  0  0  0  0  0  0  0  0  0  0
   41.8860   26.8300   43.0260 C   0  0  0  0  0  0  0  0  0  0  0  0
   41.7290   28.2950   43.0630 C   0  0  0  0  0  0  0  0  0  0  0  0
   40.3190   28.8330   42.9800 C   0  0  1  0  0  0  0  0  0  0  0  0
   39.3090   27.0210   44.7190 H   0  0  0  0  0  0  0  0  0  0  0  0
   38.6220   25.9300   43.5110 H   0  0  0  0  0  0  0  0  0  0  0  0
   40.6490   25.0650   42.9580 H   0  0  0  0  0  0  0  0  0  0  0  0
   41.0560   25.6020   44.5740 H   0  0  0  0  0  0  0  0  0  0  0  0
   42.8320   26.5660   43.5760 H   0  0  0  0  0  0  0  0  0  0  0  0
   42.1000   26.4870   41.9820 H   0  0  0  0  0  0  0  0  0  0  0  0
   42.2790   28.7210   42.1710 H   0  0  0  0  0  0  0  0  0  0  0  0
   42.2780   28.7230   43.9280 H   0  0  0  0  0  0  0  0  0  0  0  0
   40.1100   29.2700   44.0040 H   0  0  0  0  0  0  0  0  0  0  0  0
   40.8420   29.9000   40.7750 C   0  0  0  0  0  3  0  0  0  0  0  0
   40.2290   29.9590   42.0330 C   0  0  0  0  0  0  0  0  0  0  0  0
   39.5550   31.1440   42.2110 C   0  0  0  0  0  0  0  0  0  0  0  0
   39.0300   31.3080   43.1200 H   0  0  0  0  0  0  0  0  0  0  0  0
   39.4760   32.1630   41.2870 C   0  0  0  0  0  0  0  0  0  0  0  0
   38.8760   33.3660   41.2880 N   0  0  0  0  0  0  0  0  0  0  0  0
   39.1360   33.9520   40.0990 C   0  0  0  0  0  0  0  0  0  0  0  0
   38.7380   34.9480   39.8830 H   0  0  0  0  0  0  0  0  0  0  0  0
   39.8850   33.1370   39.3590 N   0  0  0  0  0  0  0  0  0  0  0  0
   40.1110   32.0200   40.0730 C   0  0  0  0  0  0  0  0  0  0  0  0
   40.8150   30.8680   39.7930 C   0  0  0  0  0  3  0  0  0  0  0  0
   38.3110   33.7490   42.0920 H   0  0  0  0  0  0  0  0  0  0  0  0
   37.0900   28.4830   42.3140 C   0  0  0  0  0  0  0  0  0  0  0  0
   38.3050   27.8690   41.9010 C   0  0  0  0  0  0  0  0  0  0  0  0
   38.3630   27.3880   40.5930 C   0  0  0  0  0  0  0  0  0  0  0  0
   37.2740   27.5360   39.8120 N   0  0  0  0  0  0  0  0  0  0  0  0
   36.1470   28.1170   40.2260 C   0  0  0  0  0  0  0  0  0  0  0  0
   36.0480   28.5910   41.4710 N   0  0  0  0  0  0  0  0  0  0  0  0
   36.9790   28.9860   43.6460 N   0  0  0  0  0  0  0  0  0  0  0  0
   39.2950   26.9160   40.2780 H   0  0  0  0  0  0  0  0  0  0  0  0
   35.2820   28.2260   39.5810 H   0  0  0  0  0  0  0  0  0  0  0  0
   37.2090   28.3780   44.4860 H   0  0  0  0  0  0  0  0  0  0  0  0
   36.6820   29.9420   43.9720 H   0  0  0  0  0  0  0  0  0  0  0  0
  1  6  1  0  0  0  0
  1  2  1  0  0  0  0
  2  7  1  0  0  0  0
  3  2  1  0  0  0  0
  3 10  1  0  0  0  0
  4  5  1  0  0  0  0
  4  3  1  0  0  0  0
  4 11  1  0  0  0  0
  5 14  1  0  0  0  0
  6  5  1  0  0  0  0
  6 15  1  1  0  0  0
  8  2  1  0  0  0  0
  9  3  1  0  0  0  0
 12  4  1  0  0  0  0
 13  5  1  0  0  0  0
 16 17  1  0  0  0  0
 17 18  2  0  0  0  0
 17  6  1  0  0  0  0
 18 19  1  0  0  0  0
 20 21  1  0  0  0  0
 20 18  1  0  0  0  0
 21 27  1  0  0  0  0
 22 21  1  0  0  0  0
 23 22  1  0  0  0  0
 24 25  1  0  0  0  0
 24 22  2  0  0  0  0
 25 20  2  0  0  0  0
 26 25  1  0  0  0  0
 26 16  2  0  0  0  0
 28 34  1  0  0  0  0
 29 28  1  0  0  0  0
 29  1  1  0  0  0  0
 30 29  2  0  0  0  0
 31 32  2  0  0  0  0
 31 30  1  0  0  0  0
 32 33  1  0  0  0  0
 33 28  2  0  0  0  0
 34 38  1  0  0  0  0
 34 37  1  0  0  0  0
 35 30  1  0  0  0  0
 36 32  1  0  0  0  0
M  END
>  <minimizedAffinity>
-5.83579016

$$$$

 OpenBabel03242518083D

 38 41  0  0  1  0  0  0  0  0999 V2000
   37.5340   30.2590   40.9500 N   0  0  0  0  0  0  0  0  0  0  0  0
   36.1280   30.1520   40.6510 C   0  0  0  0  0  0  0  0  0  0  0  0
   35.6200   28.7990   40.9140 C   0  0  0  0  0  0  0  0  0  0  0  0
   36.3990   27.9600   41.8480 C   0  0  0  0  0  0  0  0  0  0  0  0
   37.3510   28.6290   42.7530 C   0  0  0  0  0  0  0  0  0  0  0  0
   37.9620   29.9230   42.2660 C   0  0  1  0  0  0  0  0  0  0  0  0
   35.6250   30.9020   41.3110 H   0  0  0  0  0  0  0  0  0  0  0  0
   35.9080   30.5020   39.6130 H   0  0  0  0  0  0  0  0  0  0  0  0
   35.4700   28.2950   39.9320 H   0  0  0  0  0  0  0  0  0  0  0  0
   34.5620   28.9140   41.2950 H   0  0  0  0  0  0  0  0  0  0  0  0
   35.6850   27.3570   42.4760 H   0  0  0  0  0  0  0  0  0  0  0  0
   36.9220   27.1760   41.2430 H   0  0  0  0  0  0  0  0  0  0  0  0
   38.2160   27.9210   42.9250 H   0  0  0  0  0  0  0  0  0  0  0  0
   36.9100   28.7430   43.7650 H   0  0  0  0  0  0  0  0  0  0  0  0
   37.5140   30.7270   42.9270 H   0  0  0  0  0  0  0  0  0  0  0  0
   40.1760   28.7820   42.5260 C   0  0  0  0  0  3  0  0  0  0  0  0
   39.4150   29.9570   42.5120 C   0  0  0  0  0  0  0  0  0  0  0  0
   40.1970   31.0680   42.7240 C   0  0  0  0  0  0  0  0  0  0  0  0
   39.7420   32.0280   42.7190 H   0  0  0  0  0  0  0  0  0  0  0  0
   41.5590   31.0570   42.9260 C   0  0  0  0  0  0  0  0  0  0  0  0
   42.4690   32.0220   43.1450 N   0  0  0  0  0  0  0  0  0  0  0  0
   43.6740   31.4260   43.2740 C   0  0  0  0  0  0  0  0  0  0  0  0
   44.5660   32.0330   43.4580 H   0  0  0  0  0  0  0  0  0  0  0  0
   43.5320   30.1090   43.1400 N   0  0  0  0  0  0  0  0  0  0  0  0
   42.2300   29.8530   42.9240 C   0  0  0  0  0  0  0  0  0  0  0  0
   41.5380   28.6780   42.7190 C   0  0  0  0  0  3  0  0  0  0  0  0
   42.2430   33.0510   43.1980 H   0  0  0  0  0  0  0  0  0  0  0  0
   38.5890   32.1040   39.7880 C   0  0  0  0  0  0  0  0  0  0  0  0
   38.4170   30.7010   39.9560 C   0  0  0  0  0  0  0  0  0  0  0  0
   39.1520   29.8650   39.1150 C   0  0  0  0  0  0  0  0  0  0  0  0
   39.9700   30.4360   38.2080 N   0  0  0  0  0  0  0  0  0  0  0  0
   40.1130   31.7550   38.0740 C   0  0  0  0  0  0  0  0  0  0  0  0
   39.4270   32.5930   38.8580 N   0  0  0  0  0  0  0  0  0  0  0  0
   37.8540   33.0010   40.6220 N   0  0  0  0  0  0  0  0  0  0  0  0
   39.0180   28.7890   39.2430 H   0  0  0  0  0  0  0  0  0  0  0  0
   40.7780   32.1930   37.3380 H   0  0  0  0  0  0  0  0  0  0  0  0
   36.7990   32.9240   40.7190 H   0  0  0  0  0  0  0  0  0  0  0  0
   38.2060   33.8000   41.2100 H   0  0  0  0  0  0  0  0  0  0  0  0
  1  6  1  0  0  0  0
  2  3  1  0  0  0  0
  2  1  1  0  0  0  0
  2  7  1  0  0  0  0
  3 10  1  0  0  0  0
  3  4  1  0  0  0  0
  4 11  1  0  0  0  0
  4  5  1  0  0  0  0
  5 13  1  0  0  0  0
  5 14  1  0  0  0  0
  6 17  1  0  0  0  0
  6  5  1  0  0  0  0
  6 15  1  1  0  0  0
  8  2  1  0  0  0  0
  9  3  1  0  0  0  0
 12  4  1  0  0  0  0
 16 26  1  0  0  0  0
 17 16  2  0  0  0  0
 17 18  1  0  0  0  0
 18 20  2  0  0  0  0
 19 18  1  0  0  0  0
 20 21  1  0  0  0  0
 21 27  1  0  0  0  0
 21 22  1  0  0  0  0
 22 23  1  0  0  0  0
 24 22  2  0  0  0  0
 25 20  1  0  0  0  0
 25 24  1  0  0  0  0
 26 25  2  0  0  0  0
 28 29  1  0  0  0  0
 28 34  1  0  0  0  0
 29  1  1  0  0  0  0
 30 35  1  0  0  0  0
 30 29  2  0  0  0  0
 31 30  1  0  0  0  0
 32 31  2  0  0  0  0
 32 33  1  0  0  0  0
 33 28  2  0  0  0  0
 34 37  1  0  0  0  0
 34 38  1  0  0  0  0
 36 32  1  0  0  0  0
M  END
>  <minimizedAffinity>
-5.79506207

$$$$

 OpenBabel03242518083D

 38 41  0  0  1  0  0  0  0  0999 V2000
   36.5900   27.9490   38.7480 N   0  0  0  0  0  0  0  0  0  0  0  0
   35.8120   26.8580   38.2170 C   0  0  0  0  0  0  0  0  0  0  0  0
   34.5190   27.3210   37.6940 C   0  0  0  0  0  0  0  0  0  0  0  0
   34.4130   28.7500   37.3340 C   0  0  0  0  0  0  0  0  0  0  0  0
   35.6600   29.5050   37.1190 C   0  0  0  0  0  0  0  0  0  0  0  0
   36.8800   29.0440   37.8850 C   0  0  1  0  0  0  0  0  0  0  0  0
   36.4370   26.4170   37.4010 H   0  0  0  0  0  0  0  0  0  0  0  0
   35.7060   26.0360   38.9640 H   0  0  0  0  0  0  0  0  0  0  0  0
   33.7310   27.0170   38.4200 H   0  0  0  0  0  0  0  0  0  0  0  0
   34.2820   26.6810   36.7930 H   0  0  0  0  0  0  0  0  0  0  0  0
   33.7830   28.8450   36.4060 H   0  0  0  0  0  0  0  0  0  0  0  0
   33.7840   29.2490   38.1140 H   0  0  0  0  0  0  0  0  0  0  0  0
   35.4750   30.5730   37.4440 H   0  0  0  0  0  0  0  0  0  0  0  0
   35.8740   29.6030   36.0340 H   0  0  0  0  0  0  0  0  0  0  0  0
   37.5740   28.6140   37.1000 H   0  0  0  0  0  0  0  0  0  0  0  0
   38.9980   30.2440   38.4730 C   0  0  0  0  0  3  0  0  0  0  0  0
   37.5990   30.1810   38.4850 C   0  0  0  0  0  0  0  0  0  0  0  0
   37.0490   31.2920   39.0800 C   0  0  0  0  0  0  0  0  0  0  0  0
   35.9910   31.3770   39.1380 H   0  0  0  0  0  0  0  0  0  0  0  0
   37.7590   32.3480   39.6080 C   0  0  0  0  0  0  0  0  0  0  0  0
   37.4000   33.4920   40.2160 N   0  0  0  0  0  0  0  0  0  0  0  0
   38.5310   34.1610   40.5290 C   0  0  0  0  0  0  0  0  0  0  0  0
   38.4690   35.1290   41.0350 H   0  0  0  0  0  0  0  0  0  0  0  0
   39.5860   33.4560   40.1280 N   0  0  0  0  0  0  0  0  0  0  0  0
   39.1360   32.3260   39.5540 C   0  0  0  0  0  0  0  0  0  0  0  0
   39.7870   31.2570   38.9750 C   0  0  0  0  0  3  0  0  0  0  0  0
   36.4020   33.7810   40.3970 H   0  0  0  0  0  0  0  0  0  0  0  0
   36.2270   28.4560   41.0890 C   0  0  0  0  0  0  0  0  0  0  0  0
   37.0450   27.8880   40.0720 C   0  0  0  0  0  0  0  0  0  0  0  0
   38.2440   27.3010   40.4750 C   0  0  0  0  0  0  0  0  0  0  0  0
   38.5470   27.3090   41.7890 N   0  0  0  0  0  0  0  0  0  0  0  0
   37.7600   27.8480   42.7210 C   0  0  0  0  0  0  0  0  0  0  0  0
   36.6020   28.4220   42.3790 N   0  0  0  0  0  0  0  0  0  0  0  0
   34.9910   29.0740   40.7260 N   0  0  0  0  0  0  0  0  0  0  0  0
   38.8720   26.8660   39.6940 H   0  0  0  0  0  0  0  0  0  0  0  0
   38.0220   27.8430   43.7730 H   0  0  0  0  0  0  0  0  0  0  0  0
   34.9490   29.8220   39.9730 H   0  0  0  0  0  0  0  0  0  0  0  0
   34.0260   28.9030   41.1100 H   0  0  0  0  0  0  0  0  0  0  0  0
  1 29  1  0  0  0  0
  2  1  1  0  0  0  0
  2  8  1  0  0  0  0
  3  2  1  0  0  0  0
  3  9  1  0  0  0  0
  4  3  1  0  0  0  0
  4 12  1  0  0  0  0
  5  4  1  0  0  0  0
  5 13  1  0  0  0  0
  5  6  1  0  0  0  0
  6 15  1  6  0  0  0
  6 17  1  0  0  0  0
  6  1  1  0  0  0  0
  7  2  1  0  0  0  0
 10  3  1  0  0  0  0
 11  4  1  0  0  0  0
 14  5  1  0  0  0  0
 16 17  2  0  0  0  0
 16 26  1  0  0  0  0
 17 18  1  0  0  0  0
 18 19  1  0  0  0  0
 18 20  2  0  0  0  0
 20 21  1  0  0  0  0
 21 27  1  0  0  0  0
 21 22  1  0  0  0  0
 22 23  1  0  0  0  0
 24 22  2  0  0  0  0
 25 20  1  0  0  0  0
 25 24  1  0  0  0  0
 26 25  2  0  0  0  0
 28 33  1  0  0  0  0
 29 30  1  0  0  0  0
 29 28  2  0  0  0  0
 30 31  2  0  0  0  0
 31 32  1  0  0  0  0
 32 36  1  0  0  0  0
 33 32  2  0  0  0  0
 34 28  1  0  0  0  0
 34 38  1  0  0  0  0
 35 30  1  0  0  0  0
 37 34  1  0  0  0  0
M  END
>  <minimizedAffinity>
-5.75442266

$$$$

 OpenBabel03242518083D

 38 41  0  0  1  0  0  0  0  0999 V2000
   37.3350   27.5550   40.8180 N   0  0  0  0  0  0  0  0  0  0  0  0
   36.9720   26.1960   41.1360 C   0  0  0  0  0  0  0  0  0  0  0  0
   37.7250   25.6910   42.2910 C   0  0  0  0  0  0  0  0  0  0  0  0
   38.3050   26.6960   43.2070 C   0  0  0  0  0  0  0  0  0  0  0  0
   37.7650   28.0670   43.1610 C   0  0  0  0  0  0  0  0  0  0  0  0
   37.2000   28.5370   41.8400 C   0  0  1  0  0  0  0  0  0  0  0  0
   35.8760   26.2250   41.3570 H   0  0  0  0  0  0  0  0  0  0  0  0
   37.0590   25.5350   40.2400 H   0  0  0  0  0  0  0  0  0  0  0  0
   38.4980   24.9840   41.9110 H   0  0  0  0  0  0  0  0  0  0  0  0
   37.0290   25.0090   42.8640 H   0  0  0  0  0  0  0  0  0  0  0  0
   38.2140   26.3200   44.2630 H   0  0  0  0  0  0  0  0  0  0  0  0
   39.4110   26.7080   43.0390 H   0  0  0  0  0  0  0  0  0  0  0  0
   38.6110   28.7770   43.4080 H   0  0  0  0  0  0  0  0  0  0  0  0
   37.0470   28.2300   43.9920 H   0  0  0  0  0  0  0  0  0  0  0  0
   36.0830   28.6200   42.0110 H   0  0  0  0  0  0  0  0  0  0  0  0
   38.9530   30.3250   41.8480 C   0  0  0  0  0  3  0  0  0  0  0  0
   37.6640   29.8960   41.5100 C   0  0  0  0  0  0  0  0  0  0  0  0
   36.9650   30.8740   40.8420 C   0  0  0  0  0  0  0  0  0  0  0  0
   35.9760   30.6690   40.5130 H   0  0  0  0  0  0  0  0  0  0  0  0
   37.4460   32.1270   40.5320 C   0  0  0  0  0  0  0  0  0  0  0  0
   36.9180   33.1890   39.8990 N   0  0  0  0  0  0  0  0  0  0  0  0
   37.8560   34.1610   39.8810 C   0  0  0  0  0  0  0  0  0  0  0  0
   37.6350   35.1230   39.4080 H   0  0  0  0  0  0  0  0  0  0  0  0
   38.9560   33.7240   40.4900 N   0  0  0  0  0  0  0  0  0  0  0  0
   38.7290   32.4650   40.9030 C   0  0  0  0  0  0  0  0  0  0  0  0
   39.5160   31.5550   41.5770 C   0  0  0  0  0  3  0  0  0  0  0  0
   35.9430   33.2190   39.5010 H   0  0  0  0  0  0  0  0  0  0  0  0
   36.8130   28.1810   38.5370 C   0  0  0  0  0  0  0  0  0  0  0  0
   37.7840   27.8620   39.5270 C   0  0  0  0  0  0  0  0  0  0  0  0
   39.1230   27.8860   39.1350 C   0  0  0  0  0  0  0  0  0  0  0  0
   39.4050   28.2080   37.8560 N   0  0  0  0  0  0  0  0  0  0  0  0
   38.4730   28.5050   36.9500 C   0  0  0  0  0  0  0  0  0  0  0  0
   37.1780   28.4920   37.2820 N   0  0  0  0  0  0  0  0  0  0  0  0
   35.4280   28.1640   38.8880 N   0  0  0  0  0  0  0  0  0  0  0  0
   39.8670   27.6400   39.8940 H   0  0  0  0  0  0  0  0  0  0  0  0
   38.7230   28.7620   35.9260 H   0  0  0  0  0  0  0  0  0  0  0  0
   34.9880   27.3180   39.3570 H   0  0  0  0  0  0  0  0  0  0  0  0
   34.6990   28.9110   38.7510 H   0  0  0  0  0  0  0  0  0  0  0  0
  1  2  1  0  0  0  0
  1  6  1  0  0  0  0
  2  7  1  0  0  0  0
  2  3  1  0  0  0  0
  3 10  1  0  0  0  0
  3  4  1  0  0  0  0
  4 11  1  0  0  0  0
  5  4  1  0  0  0  0
  5 13  1  0  0  0  0
  5 14  1  0  0  0  0
  6 15  1  1  0  0  0
  6  5  1  0  0  0  0
  8  2  1  0  0  0  0
  9  3  1  0  0  0  0
 12  4  1  0  0  0  0
 17  6  1  0  0  0  0
 17 16  2  0  0  0  0
 18 17  1  0  0  0  0
 19 18  1  0  0  0  0
 20 18  2  0  0  0  0
 20 25  1  0  0  0  0
 21 20  1  0  0  0  0
 22 21  1  0  0  0  0
 22 24  2  0  0  0  0
 23 22  1  0  0  0  0
 24 25  1  0  0  0  0
 25 26  2  0  0  0  0
 26 16  1  0  0  0  0
 27 21  1  0  0  0  0
 28 34  1  0  0  0  0
 28 29  1  0  0  0  0
 29  1  1  0  0  0  0
 30 29  2  0  0  0  0
 30 35  1  0  0  0  0
 31 30  1  0  0  0  0
 32 33  1  0  0  0  0
 32 31  2  0  0  0  0
 33 28  2  0  0  0  0
 34 37  1  0  0  0  0
 36 32  1  0  0  0  0
 38 34  1  0  0  0  0
M  END
>  <minimizedAffinity>
-5.7128706

$$$$

 OpenBabel03242518083D

 38 41  0  0  1  0  0  0  0  0999 V2000
   36.4070   29.2100   39.1160 N   0  0  0  0  0  0  0  0  0  0  0  0
   35.5870   29.6730   38.0240 C   0  0  0  0  0  0  0  0  0  0  0  0
   35.5950   28.7240   36.9030 C   0  0  0  0  0  0  0  0  0  0  0  0
   35.9680   27.3270   37.2080 C   0  0  0  0  0  0  0  0  0  0  0  0
   35.8970   26.8810   38.6120 C   0  0  0  0  0  0  0  0  0  0  0  0
   36.1140   27.9340   39.6750 C   0  0  1  0  0  0  0  0  0  0  0  0
   34.5580   29.7800   38.4490 H   0  0  0  0  0  0  0  0  0  0  0  0
   35.8720   30.7080   37.7160 H   0  0  0  0  0  0  0  0  0  0  0  0
   36.2310   29.1550   36.0960 H   0  0  0  0  0  0  0  0  0  0  0  0
   34.5630   28.7520   36.4420 H   0  0  0  0  0  0  0  0  0  0  0  0
   35.3280   26.6370   36.5900 H   0  0  0  0  0  0  0  0  0  0  0  0
   36.9940   27.1530   36.7950 H   0  0  0  0  0  0  0  0  0  0  0  0
   36.7090   26.1090   38.7670 H   0  0  0  0  0  0  0  0  0  0  0  0
   34.9640   26.3080   38.7910 H   0  0  0  0  0  0  0  0  0  0  0  0
   35.1040   28.0630   40.1710 H   0  0  0  0  0  0  0  0  0  0  0  0
   36.7590   27.6880   42.0820 C   0  0  0  0  0  3  0  0  0  0  0  0
   37.0250   27.4530   40.7280 C   0  0  0  0  0  0  0  0  0  0  0  0
   38.1810   26.7260   40.5600 C   0  0  0  0  0  0  0  0  0  0  0  0
   38.4870   26.4650   39.5770 H   0  0  0  0  0  0  0  0  0  0  0  0
   38.9930   26.2740   41.5760 C   0  0  0  0  0  0  0  0  0  0  0  0
   40.1360   25.5660   41.6000 N   0  0  0  0  0  0  0  0  0  0  0  0
   40.4930   25.4110   42.8940 C   0  0  0  0  0  0  0  0  0  0  0  0
   41.4030   24.8580   43.1450 H   0  0  0  0  0  0  0  0  0  0  0  0
   39.5950   26.0080   43.6740 N   0  0  0  0  0  0  0  0  0  0  0  0
   38.6540   26.5520   42.8820 C   0  0  0  0  0  0  0  0  0  0  0  0
   37.5130   27.2740   43.1600 C   0  0  0  0  0  3  0  0  0  0  0  0
   40.6340   25.2120   40.7410 H   0  0  0  0  0  0  0  0  0  0  0  0
   37.1330   30.9440   40.6440 C   0  0  0  0  0  0  0  0  0  0  0  0
   37.4370   30.0290   39.5970 C   0  0  0  0  0  0  0  0  0  0  0  0
   38.7520   30.0120   39.1290 C   0  0  0  0  0  0  0  0  0  0  0  0
   39.6390   30.8540   39.6950 N   0  0  0  0  0  0  0  0  0  0  0  0
   39.3260   31.7000   40.6770 C   0  0  0  0  0  0  0  0  0  0  0  0
   38.0790   31.7510   41.1540 N   0  0  0  0  0  0  0  0  0  0  0  0
   35.8000   31.0040   41.1520 N   0  0  0  0  0  0  0  0  0  0  0  0
   38.9840   29.3110   38.3260 H   0  0  0  0  0  0  0  0  0  0  0  0
   40.0570   32.3690   41.1190 H   0  0  0  0  0  0  0  0  0  0  0  0
   34.9680   31.1340   40.5050 H   0  0  0  0  0  0  0  0  0  0  0  0
   35.4660   30.9370   42.1490 H   0  0  0  0  0  0  0  0  0  0  0  0
  1 29  1  0  0  0  0
  1  6  1  0  0  0  0
  2  7  1  0  0  0  0
  2  1  1  0  0  0  0
  3  4  1  0  0  0  0
  3  2  1  0  0  0  0
  4  5  1  0  0  0  0
  5 13  1  0  0  0  0
  5 14  1  0  0  0  0
  5  6  1  0  0  0  0
  6 15  1  1  0  0  0
  6 17  1  0  0  0  0
  8  2  1  0  0  0  0
  9  3  1  0  0  0  0
 10  3  1  0  0  0  0
 11  4  1  0  0  0  0
 12  4  1  0  0  0  0
 16 26  1  0  0  0  0
 17 16  2  0  0  0  0
 18 17  1  0  0  0  0
 18 20  2  0  0  0  0
 19 18  1  0  0  0  0
 20 21  1  0  0  0  0
 20 25  1  0  0  0  0
 21 22  1  0  0  0  0
 22 23  1  0  0  0  0
 22 24  2  0  0  0  0
 25 26  2  0  0  0  0
 25 24  1  0  0  0  0
 27 21  1  0  0  0  0
 28 34  1  0  0  0  0
 28 33  1  0  0  0  0
 29 28  2  0  0  0  0
 30 29  1  0  0  0  0
 30 31  2  0  0  0  0
 31 32  1  0  0  0  0
 32 36  1  0  0  0  0
 32 33  2  0  0  0  0
 34 38  1  0  0  0  0
 35 30  1  0  0  0  0
 37 34  1  0  0  0  0
M  END
>  <minimizedAffinity>
-5.67509604

$$$$

 OpenBabel03242518083D

 38 41  0  0  1  0  0  0  0  0999 V2000
   37.1230   28.3740   39.1040 N   0  0  0  0  0  0  0  0  0  0  0  0
   36.4730   27.1720   38.6450 C   0  0  0  0  0  0  0  0  0  0  0  0
   35.1320   27.4520   38.1140 C   0  0  0  0  0  0  0  0  0  0  0  0
   34.8590   28.8370   37.6760 C   0  0  0  0  0  0  0  0  0  0  0  0
   36.0090   29.7180   37.4030 C   0  0  0  0  0  0  0  0  0  0  0  0
   37.2790   29.4430   38.1780 C   0  0  1  0  0  0  0  0  0  0  0  0
   37.1390   26.7600   37.8470 H   0  0  0  0  0  0  0  0  0  0  0  0
   36.4680   26.3870   39.4380 H   0  0  0  0  0  0  0  0  0  0  0  0
   34.3890   27.1020   38.8660 H   0  0  0  0  0  0  0  0  0  0  0  0
   34.9640   26.7390   37.2530 H   0  0  0  0  0  0  0  0  0  0  0  0
   34.2160   28.8060   36.7530 H   0  0  0  0  0  0  0  0  0  0  0  0
   34.1820   29.3040   38.4360 H   0  0  0  0  0  0  0  0  0  0  0  0
   35.7040   30.7740   37.6700 H   0  0  0  0  0  0  0  0  0  0  0  0
   36.2030   29.7770   36.3120 H   0  0  0  0  0  0  0  0  0  0  0  0
   38.0130   29.0520   37.4090 H   0  0  0  0  0  0  0  0  0  0  0  0
   37.0580   31.7540   39.1200 C   0  0  0  0  0  3  0  0  0  0  0  0
   37.8660   30.6890   38.7040 C   0  0  0  0  0  0  0  0  0  0  0  0
   39.2000   30.9680   38.8830 C   0  0  0  0  0  0  0  0  0  0  0  0
   39.9210   30.2320   38.6220 H   0  0  0  0  0  0  0  0  0  0  0  0
   39.7070   32.1390   39.4020 C   0  0  0  0  0  0  0  0  0  0  0  0
   40.9540   32.5790   39.6450 N   0  0  0  0  0  0  0  0  0  0  0  0
   40.8540   33.8210   40.1670 C   0  0  0  0  0  0  0  0  0  0  0  0
   41.7590   34.3700   40.4420 H   0  0  0  0  0  0  0  0  0  0  0  0
   39.5710   34.1610   40.2550 N   0  0  0  0  0  0  0  0  0  0  0  0
   38.8370   33.1360   39.7870 C   0  0  0  0  0  0  0  0  0  0  0  0
   37.4770   32.9560   39.6500 C   0  0  0  0  0  3  0  0  0  0  0  0
   41.8290   32.0240   39.4490 H   0  0  0  0  0  0  0  0  0  0  0  0
   36.7090   28.9390   41.4230 C   0  0  0  0  0  0  0  0  0  0  0  0
   37.5910   28.4410   40.4240 C   0  0  0  0  0  0  0  0  0  0  0  0
   38.8630   28.0450   40.8380 C   0  0  0  0  0  0  0  0  0  0  0  0
   39.1690   28.1590   42.1460 N   0  0  0  0  0  0  0  0  0  0  0  0
   38.3210   28.6290   43.0620 C   0  0  0  0  0  0  0  0  0  0  0  0
   37.0930   29.0210   42.7080 N   0  0  0  0  0  0  0  0  0  0  0  0
   35.3970   29.3630   41.0470 N   0  0  0  0  0  0  0  0  0  0  0  0
   39.5390   27.6640   40.0710 H   0  0  0  0  0  0  0  0  0  0  0  0
   38.5890   28.7120   44.1090 H   0  0  0  0  0  0  0  0  0  0  0  0
   35.2470   30.0600   40.2600 H   0  0  0  0  0  0  0  0  0  0  0  0
   34.4670   29.0800   41.4510 H   0  0  0  0  0  0  0  0  0  0  0  0
  1 29  1  0  0  0  0
  2  1  1  0  0  0  0
  2  8  1  0  0  0  0
  3  2  1  0  0  0  0
  3  9  1  0  0  0  0
  4  3  1  0  0  0  0
  4 12  1  0  0  0  0
  5 13  1  0  0  0  0
  5  4  1  0  0  0  0
  5  6  1  0  0  0  0
  6 15  1  6  0  0  0
  6 17  1  0  0  0  0
  6  1  1  0  0  0  0
  7  2  1  0  0  0  0
 10  3  1  0  0  0  0
 11  4  1  0  0  0  0
 14  5  1  0  0  0  0
 16 26  1  0  0  0  0
 17 18  1  0  0  0  0
 17 16  2  0  0  0  0
 18 20  2  0  0  0  0
 19 18  1  0  0  0  0
 20 21  1  0  0  0  0
 20 25  1  0  0  0  0
 21 22  1  0  0  0  0
 22 24  2  0  0  0  0
 22 23  1  0  0  0  0
 25 24  1  0  0  0  0
 26 25  2  0  0  0  0
 27 21  1  0  0  0  0
 28 33  1  0  0  0  0
 29 30  1  0  0  0  0
 29 28  2  0  0  0  0
 30 31  2  0  0  0  0
 31 32  1  0  0  0  0
 32 36  1  0  0  0  0
 33 32  2  0  0  0  0
 34 28  1  0  0  0  0
 34 38  1  0  0  0  0
 35 30  1  0  0  0  0
 37 34  1  0  0  0  0
M  END
>  <minimizedAffinity>
-5.62284136

$$$$

 OpenBabel03242518083D

 38 41  0  0  1  0  0  0  0  0999 V2000
   37.7610   29.1050   41.8300 N   0  0  0  0  0  0  0  0  0  0  0  0
   37.2880   28.3420   42.9580 C   0  0  0  0  0  0  0  0  0  0  0  0
   38.3460   27.4910   43.5180 C   0  0  0  0  0  0  0  0  0  0  0  0
   39.7420   27.8760   43.2250 C   0  0  0  0  0  0  0  0  0  0  0  0
   40.0010   29.2560   42.7760 C   0  0  0  0  0  0  0  0  0  0  0  0
   38.8890   29.9510   42.0240 C   0  0  1  0  0  0  0  0  0  0  0  0
   36.9470   29.0990   43.7080 H   0  0  0  0  0  0  0  0  0  0  0  0
   36.3640   27.7690   42.7000 H   0  0  0  0  0  0  0  0  0  0  0  0
   38.1340   26.4400   43.2140 H   0  0  0  0  0  0  0  0  0  0  0  0
   38.1850   27.4600   44.6370 H   0  0  0  0  0  0  0  0  0  0  0  0
   40.3720   27.6810   44.1370 H   0  0  0  0  0  0  0  0  0  0  0  0
   40.1460   27.1430   42.4810 H   0  0  0  0  0  0  0  0  0  0  0  0
   40.8840   29.2270   42.0700 H   0  0  0  0  0  0  0  0  0  0  0  0
   40.3710   29.8760   43.6200 H   0  0  0  0  0  0  0  0  0  0  0  0
   38.5220   30.7610   42.7250 H   0  0  0  0  0  0  0  0  0  0  0  0
   38.9970   31.9510   40.5200 C   0  0  0  0  0  3  0  0  0  0  0  0
   39.4010   30.6460   40.8310 C   0  0  0  0  0  0  0  0  0  0  0  0
   40.3130   30.1700   39.9170 C   0  0  0  0  0  0  0  0  0  0  0  0
   40.7140   29.1950   40.0490 H   0  0  0  0  0  0  0  0  0  0  0  0
   40.7850   30.8640   38.8260 C   0  0  0  0  0  0  0  0  0  0  0  0
   41.6570   30.5660   37.8470 N   0  0  0  0  0  0  0  0  0  0  0  0
   41.7390   31.6400   37.0320 C   0  0  0  0  0  0  0  0  0  0  0  0
   42.4010   31.6130   36.1600 H   0  0  0  0  0  0  0  0  0  0  0  0
   40.9360   32.6000   37.4840 N   0  0  0  0  0  0  0  0  0  0  0  0
   40.3320   32.1450   38.5960 C   0  0  0  0  0  0  0  0  0  0  0  0
   39.4170   32.7180   39.4540 C   0  0  0  0  0  3  0  0  0  0  0  0
   42.1670   29.6460   37.7650 H   0  0  0  0  0  0  0  0  0  0  0  0
   36.0210   29.9040   40.3470 C   0  0  0  0  0  0  0  0  0  0  0  0
   37.0920   29.0030   40.6030 C   0  0  0  0  0  0  0  0  0  0  0  0
   37.4030   28.0840   39.6010 C   0  0  0  0  0  0  0  0  0  0  0  0
   36.6750   28.1100   38.4660 N   0  0  0  0  0  0  0  0  0  0  0  0
   35.6770   28.9680   38.2520 C   0  0  0  0  0  0  0  0  0  0  0  0
   35.3440   29.8640   39.1860 N   0  0  0  0  0  0  0  0  0  0  0  0
   35.6600   30.8610   41.3450 N   0  0  0  0  0  0  0  0  0  0  0  0
   38.2240   27.3920   39.7980 H   0  0  0  0  0  0  0  0  0  0  0  0
   35.1040   28.9710   37.3310 H   0  0  0  0  0  0  0  0  0  0  0  0
   35.4580   30.5650   42.3450 H   0  0  0  0  0  0  0  0  0  0  0  0
   35.5480   31.9040   41.2550 H   0  0  0  0  0  0  0  0  0  0  0  0
  1  6  1  0  0  0  0
  1  2  1  0  0  0  0
  2  3  1  0  0  0  0
  2  7  1  0  0  0  0
  3 10  1  0  0  0  0
  4  3  1  0  0  0  0
  4 11  1  0  0  0  0
  5  4  1  0  0  0  0
  5 14  1  0  0  0  0
  6 15  1  1  0  0  0
  6  5  1  0  0  0  0
  8  2  1  0  0  0  0
  9  3  1  0  0  0  0
 12  4  1  0  0  0  0
 13  5  1  0  0  0  0
 16 17  1  0  0  0  0
 17  6  1  0  0  0  0
 18 19  1  0  0  0  0
 18 17  2  0  0  0  0
 20 18  1  0  0  0  0
 21 20  1  0  0  0  0
 22 24  2  0  0  0  0
 22 21  1  0  0  0  0
 23 22  1  0  0  0  0
 24 25  1  0  0  0  0
 25 20  2  0  0  0  0
 25 26  1  0  0  0  0
 26 16  2  0  0  0  0
 27 21  1  0  0  0  0
 28 29  1  0  0  0  0
 28 34  1  0  0  0  0
 29  1  1  0  0  0  0
 30 35  1  0  0  0  0
 30 29  2  0  0  0  0
 31 30  1  0  0  0  0
 32 31  2  0  0  0  0
 32 33  1  0  0  0  0
 33 28  2  0  0  0  0
 34 37  1  0  0  0  0
 36 32  1  0  0  0  0
 38 34  1  0  0  0  0
M  END
>  <minimizedAffinity>
-5.61352205

$$$$
