
 OpenBabel03252509043D

 51 54  0  0  1  0  0  0  0  0999 V2000
   46.7140   34.3720   43.6380 N   0  0  0  0  0  0  0  0  0  0  0  0
   46.3030   35.1730   42.5500 C   0  0  0  0  0  0  0  0  0  0  0  0
   44.7980   35.2800   42.3860 C   0  0  0  0  0  0  0  0  0  0  0  0
   44.0460   35.3120   43.6890 C   0  0  0  0  0  0  0  0  0  0  0  0
   44.9780   35.2660   44.8780 C   0  0  0  0  0  0  0  0  0  0  0  0
   45.8460   33.9720   44.6220 C   0  0  2  0  0  0  0  0  0  0  0  0
   46.6970   34.9020   41.5660 H   0  0  0  0  0  0  0  0  0  0  0  0
   46.6650   36.2250   42.7260 H   0  0  0  0  0  0  0  0  0  0  0  0
   44.3990   34.4400   41.7630 H   0  0  0  0  0  0  0  0  0  0  0  0
   44.5540   36.2030   41.8160 H   0  0  0  0  0  0  0  0  0  0  0  0
   43.4360   36.2550   43.7960 H   0  0  0  0  0  0  0  0  0  0  0  0
   43.3180   34.4820   43.7940 H   0  0  0  0  0  0  0  0  0  0  0  0
   45.6330   36.1440   44.9480 H   0  0  0  0  0  0  0  0  0  0  0  0
   44.4010   35.0370   45.7880 H   0  0  0  0  0  0  0  0  0  0  0  0
   45.1230   33.1700   44.3860 H   0  0  0  0  0  0  0  0  0  0  0  0
   47.8800   33.5630   43.3700 C   0  0  0  0  0  0  0  0  0  0  0  0
   48.5460   34.1840   42.7330 H   0  0  0  0  0  0  0  0  0  0  0  0
   48.4880   33.3360   44.2780 H   0  0  0  0  0  0  0  0  0  0  0  0
   47.4330   32.3560   42.6110 C   0  0  0  0  0  0  0  0  0  0  0  0
   47.5540   31.4490   43.2030 H   0  0  0  0  0  0  0  0  0  0  0  0
   46.3510   32.4200   42.3220 H   0  0  0  0  0  0  0  0  0  0  0  0
   50.2240   31.6670   40.1930 C   0  0  0  0  0  0  0  0  0  0  0  0
   49.4830   31.7640   41.3870 C   0  0  0  0  0  0  0  0  0  0  0  0
   48.2040   32.2600   41.3450 C   0  0  0  0  0  0  0  0  0  0  0  0
   47.7220   32.6300   40.1550 N   0  0  0  0  0  0  0  0  0  0  0  0
   48.4300   32.5370   39.0220 C   0  0  0  0  0  0  0  0  0  0  0  0
   49.6780   32.0610   39.0170 N   0  0  0  0  0  0  0  0  0  0  0  0
   51.2350   31.2780   40.2120 H   0  0  0  0  0  0  0  0  0  0  0  0
   49.9610   31.4380   42.3030 H   0  0  0  0  0  0  0  0  0  0  0  0
   47.8870   32.8820   38.1490 H   0  0  0  0  0  0  0  0  0  0  0  0
   46.4530   33.8140   45.8540 O   0  0  0  0  0  0  0  0  0  0  0  0
   45.7450   31.2770   45.4490 O   0  0  0  0  0  0  0  0  0  0  0  0
   46.1920   32.2810   46.5080 P   0  0  2  0  0  0  0  0  0  0  0  0
   44.8350   32.4520   47.5460 O   0  0  0  0  0  0  0  0  0  0  0  0
   44.2630   31.6650   47.5170 H   0  0  0  0  0  0  0  0  0  0  0  0
   47.4540   31.7230   47.4250 O   0  0  0  0  0  0  0  0  0  0  0  0
   47.4870   30.3390   47.3600 C   0  0  0  0  0  0  0  0  0  0  0  0
   46.4980   29.9690   47.6700 H   0  0  0  0  0  0  0  0  0  0  0  0
   47.7710   29.9460   46.3800 H   0  0  0  0  0  0  0  0  0  0  0  0
   49.1060   28.6410   48.3040 C   0  0  0  0  0  3  0  0  0  0  0  0
   48.5230   29.8940   48.3560 C   0  0  0  0  0  0  0  0  0  0  0  0
   48.8770   30.8080   49.3480 C   0  0  0  0  0  0  0  0  0  0  0  0
   48.4110   31.8000   49.3850 H   0  0  0  0  0  0  0  0  0  0  0  0
   49.8170   30.4590   50.2870 C   0  0  0  0  0  0  0  0  0  0  0  0
   50.2920   31.1930   51.3170 N   0  0  0  0  0  0  0  0  0  0  0  0
   51.2000   30.4260   51.9600 C   0  0  0  0  0  0  0  0  0  0  0  0
   51.7690   30.7070   52.8300 H   0  0  0  0  0  0  0  0  0  0  0  0
   51.2700   29.2260   51.3130 N   0  0  0  0  0  0  0  0  0  0  0  0
   50.4240   29.2170   50.2710 C   0  0  0  0  0  0  0  0  0  0  0  0
   50.0590   28.3210   49.2750 C   0  0  0  0  0  3  0  0  0  0  0  0
   50.0660   32.1680   51.6370 H   0  0  0  0  0  0  0  0  0  0  0  0
  1  6  1  0  0  0  0
  2  8  1  0  0  0  0
  2  1  1  0  0  0  0
  3  2  1  0  0  0  0
  3  4  1  0  0  0  0
  4 12  1  0  0  0  0
  4 11  1  0  0  0  0
  4  5  1  0  0  0  0
  5 13  1  0  0  0  0
  5 14  1  0  0  0  0
  6 15  1  6  0  0  0
  6  5  1  0  0  0  0
  6 31  1  0  0  0  0
  7  2  1  0  0  0  0
  9  3  1  0  0  0  0
 10  3  1  0  0  0  0
 16  1  1  0  0  0  0
 16 18  1  0  0  0  0
 17 16  1  0  0  0  0
 19 20  1  0  0  0  0
 19 16  1  0  0  0  0
 21 19  1  0  0  0  0
 22 28  1  0  0  0  0
 22 23  1  0  0  0  0
 23 29  1  0  0  0  0
 24 23  2  0  0  0  0
 24 19  1  0  0  0  0
 25 24  1  0  0  0  0
 26 25  2  0  0  0  0
 27 26  1  0  0  0  0
 27 22  2  0  0  0  0
 30 26  1  0  0  0  0
 31 33  1  0  0  0  0
 33 32  2  6  0  0  0
 33 36  1  0  0  0  0
 33 34  1  0  0  0  0
 35 34  1  0  0  0  0
 37 36  1  0  0  0  0
 37 38  1  0  0  0  0
 37 41  1  0  0  0  0
 39 37  1  0  0  0  0
 40 41  2  0  0  0  0
 40 50  1  0  0  0  0
 41 42  1  0  0  0  0
 42 43  1  0  0  0  0
 42 44  2  0  0  0  0
 44 45  1  0  0  0  0
 45 51  1  0  0  0  0
 45 46  1  0  0  0  0
 46 47  1  0  0  0  0
 48 46  2  0  0  0  0
 49 44  1  0  0  0  0
 49 48  1  0  0  0  0
 50 49  2  0  0  0  0
M  END
>  <minimizedAffinity>
-5.50698566

>  <minimizedRMSD>
2.63770819

$$$$
