
 OpenBabel03252504323D

 43 46  0  0  0  0  0  0  0  0999 V2000
   46.2310   34.3260   42.4740 C   0  0  0  0  0  0  0  0  0  0  0  0
   46.0660   35.0770   43.3310 H   0  0  0  0  0  0  0  0  0  0  0  0
   46.6890   33.4570   42.9260 H   0  0  0  0  0  0  0  0  0  0  0  0
   44.4510   32.6530   42.4680 C   0  0  0  0  0  0  0  0  0  0  0  0
   44.8020   33.9600   42.1590 C   0  0  0  0  0  0  0  0  0  0  0  0
   43.8550   34.7830   41.6290 C   0  0  0  0  0  0  0  0  0  0  0  0
   42.6450   34.2560   41.4480 N   0  0  0  0  0  0  0  0  0  0  0  0
   42.2940   33.0200   41.7350 C   0  0  0  0  0  0  0  0  0  0  0  0
   43.2350   32.1470   42.2790 N   0  0  0  0  0  0  0  0  0  0  0  0
   45.1310   31.9250   42.8910 H   0  0  0  0  0  0  0  0  0  0  0  0
   44.1770   35.7840   41.4080 H   0  0  0  0  0  0  0  0  0  0  0  0
   40.0040   33.2940   40.8500 C   0  0  0  0  0  3  0  0  0  0  0  0
   40.9420   32.5210   41.5050 C   0  0  0  0  0  0  0  0  0  0  0  0
   40.6730   31.2520   41.9740 C   0  0  0  0  0  0  0  0  0  0  0  0
   41.4150   30.6570   42.4850 H   0  0  0  0  0  0  0  0  0  0  0  0
   39.4080   30.7340   41.7800 C   0  0  0  0  0  0  0  0  0  0  0  0
   38.8600   29.5430   42.1220 N   0  0  0  0  0  0  0  0  0  0  0  0
   37.5750   29.5500   41.6910 C   0  0  0  0  0  0  0  0  0  0  0  0
   36.8090   28.7870   41.7720 H   0  0  0  0  0  0  0  0  0  0  0  0
   37.3200   30.7240   41.0880 N   0  0  0  0  0  0  0  0  0  0  0  0
   38.4450   31.4960   41.1240 C   0  0  0  0  0  0  0  0  0  0  0  0
   38.7420   32.7670   40.6620 C   0  0  0  0  0  3  0  0  0  0  0  0
   39.3070   28.7400   42.6270 H   0  0  0  0  0  0  0  0  0  0  0  0
   46.8550   35.0150   41.4880 O   0  0  0  0  0  0  0  0  0  0  0  0
   47.7570   34.5680   40.5360 C   0  0  0  0  0  2  0  0  0  0  0  0
   47.9760   33.2410   40.5500 C   0  0  0  0  0  2  0  0  0  0  0  0
   48.9170   32.5140   39.6200 C   0  0  0  0  0  0  0  0  0  0  0  0
   49.4980   31.7490   40.1620 H   0  0  0  0  0  0  0  0  0  0  0  0
   49.6440   33.2670   39.2690 H   0  0  0  0  0  0  0  0  0  0  0  0
   48.1880   32.0340   38.5600 O   0  0  0  0  0  0  0  0  0  0  0  0
   47.6180   34.0640   36.9330 O   0  0  0  0  0  0  0  0  0  0  0  0
   48.5550   32.9000   37.1580 P   0  0  1  0  0  0  0  0  0  0  0  0
   50.1310   33.5420   37.2730 O   0  0  0  0  0  0  0  0  0  0  0  0
   50.6840   32.8890   37.7820 H   0  0  0  0  0  0  0  0  0  0  0  0
   48.5370   31.8740   35.8220 O   0  0  0  0  0  0  0  0  0  0  0  0
   49.4580   30.8530   35.9250 C   0  0  0  0  0  0  0  0  0  0  0  0
   50.5770   30.7760   34.9320 C   0  0  0  0  0  0  0  0  0  0  0  0
   49.4050   29.8170   34.8300 C   0  0  0  0  0  0  0  0  0  0  0  0
   49.6370   30.4820   36.9480 H   0  0  0  0  0  0  0  0  0  0  0  0
   51.5300   30.3840   35.3400 H   0  0  0  0  0  0  0  0  0  0  0  0
   50.6230   31.5620   34.1800 H   0  0  0  0  0  0  0  0  0  0  0  0
   48.7270   29.9660   33.9730 H   0  0  0  0  0  0  0  0  0  0  0  0
   49.6310   28.7590   35.0610 H   0  0  0  0  0  0  0  0  0  0  0  0
  1  3  1  0  0  0  0
  1  2  1  0  0  0  0
  4 10  1  0  0  0  0
  5  4  2  0  0  0  0
  5  1  1  0  0  0  0
  6  5  1  0  0  0  0
  7  6  2  0  0  0  0
  7  8  1  0  0  0  0
  8  9  2  0  0  0  0
  9  4  1  0  0  0  0
 11  6  1  0  0  0  0
 12 13  1  0  0  0  0
 13  8  1  0  0  0  0
 13 14  2  0  0  0  0
 14 15  1  0  0  0  0
 16 14  1  0  0  0  0
 16 17  1  0  0  0  0
 17 23  1  0  0  0  0
 18 19  1  0  0  0  0
 18 17  1  0  0  0  0
 20 21  1  0  0  0  0
 20 18  2  0  0  0  0
 21 16  2  0  0  0  0
 22 12  2  0  0  0  0
 22 21  1  0  0  0  0
 24  1  1  0  0  0  0
 25 26  1  0  0  0  0
 25 24  1  0  0  0  0
 27 28  1  0  0  0  0
 27 26  1  0  0  0  0
 29 27  1  0  0  0  0
 30 27  1  0  0  0  0
 32 31  2  6  0  0  0
 32 33  1  0  0  0  0
 32 30  1  0  0  0  0
 33 34  1  0  0  0  0
 35 36  1  0  0  0  0
 35 32  1  0  0  0  0
 36 39  1  0  0  0  0
 37 40  1  0  0  0  0
 37 36  1  0  0  0  0
 38 37  1  0  0  0  0
 38 43  1  0  0  0  0
 38 36  1  0  0  0  0
 41 37  1  0  0  0  0
 42 38  1  0  0  0  0
M  END
>  <minimizedAffinity>
-4.67398071

>  <minimizedRMSD>
6.5077343

$$$$
