
 OpenBabel03252507323D

 52 56  0  0  1  0  0  0  0  0999 V2000
   47.0130   32.5970   45.3950 C   0  0  0  0  0  0  0  0  0  0  0  0
   45.9670   33.2950   45.9780 C   0  0  0  0  0  0  0  0  0  0  0  0
   45.3040   34.3040   45.2410 C   0  0  0  0  0  0  0  0  0  0  0  0
   45.7670   34.5300   43.9460 N   0  0  0  0  0  0  0  0  0  0  0  0
   46.7830   33.8220   43.4460 C   0  0  0  0  0  0  0  0  0  0  0  0
   47.3960   32.8730   44.1550 N   0  0  0  0  0  0  0  0  0  0  0  0
   45.4860   33.3130   46.9340 H   0  0  0  0  0  0  0  0  0  0  0  0
   44.4880   34.9300   45.5300 H   0  0  0  0  0  0  0  0  0  0  0  0
   47.6440   31.5580   46.1850 C   0  0  2  0  0  0  0  0  0  0  0  0
   47.3230   30.1390   45.6210 C   0  0  0  0  0  0  0  0  0  0  0  0
   48.1230   29.1240   46.3630 C   0  0  0  0  0  0  0  0  0  0  0  0
   48.1660   29.2780   47.8460 C   0  0  0  0  0  0  0  0  0  0  0  0
   48.2330   30.6460   48.3010 C   0  0  0  0  0  0  0  0  0  0  0  0
   47.2490   31.5910   47.5780 C   0  0  2  0  0  0  0  0  0  0  0  0
   48.7500   31.6120   46.0300 H   0  0  0  0  0  0  0  0  0  0  0  0
   46.2400   29.9640   45.6010 H   0  0  0  0  0  0  0  0  0  0  0  0
   47.6540   30.2000   44.5650 H   0  0  0  0  0  0  0  0  0  0  0  0
   49.0980   29.0600   45.8420 H   0  0  0  0  0  0  0  0  0  0  0  0
   47.6350   28.1230   46.1700 H   0  0  0  0  0  0  0  0  0  0  0  0
   47.7820   28.4660   48.4620 H   0  0  0  0  0  0  0  0  0  0  0  0
   49.2750   28.9710   48.0250 H   0  0  0  0  0  0  0  0  0  0  0  0
   49.2100   31.1860   48.2430 H   0  0  0  0  0  0  0  0  0  0  0  0
   47.9480   30.6980   49.3850 H   0  0  0  0  0  0  0  0  0  0  0  0
   47.4210   32.5240   48.1170 H   0  0  0  0  0  0  0  0  0  0  0  0
   45.8940   31.0580   47.7270 N   0  0  0  0  0  0  0  0  0  0  0  0
   45.1780   30.6330   48.8600 C   0  0  0  0  0  0  0  0  0  0  0  0
   44.6440   31.4480   49.6960 O   0  0  0  0  0  0  0  0  0  0  0  0
   45.0830   29.2160   49.0080 N   0  0  0  0  0  0  0  0  0  0  0  0
   45.2590   30.8560   46.8650 H   0  0  0  0  0  0  0  0  0  0  0  0
   44.7790   28.4920   48.3540 H   0  0  0  0  0  0  0  0  0  0  0  0
   45.3560   28.7850   49.9180 H   0  0  0  0  0  0  0  0  0  0  0  0
   47.2360   34.1230   42.0830 C   0  0  0  0  0  0  0  0  0  0  0  0
   48.2630   35.0110   41.8560 C   0  0  0  0  0  0  0  0  0  0  0  0
   48.7420   35.3430   40.6080 C   0  0  0  0  0  0  0  0  0  0  0  0
   48.1120   34.7120   39.5590 C   0  0  0  0  0  0  0  0  0  0  0  0
   47.0860   33.8230   39.7680 C   0  0  0  0  0  0  0  0  0  0  0  0
   46.6470   33.5290   41.0320 N   0  0  0  0  0  0  0  0  0  0  0  0
   48.7090   35.4680   42.7350 H   0  0  0  0  0  0  0  0  0  0  0  0
   49.5400   36.0350   40.4670 H   0  0  0  0  0  0  0  0  0  0  0  0
   48.4500   34.9380   38.5590 H   0  0  0  0  0  0  0  0  0  0  0  0
   45.4280   32.2020   38.9700 C   0  0  0  0  0  3  0  0  0  0  0  0
   46.3980   33.1390   38.6810 C   0  0  0  0  0  0  0  0  0  0  0  0
   46.6410   33.3540   37.3520 C   0  0  0  0  0  0  0  0  0  0  0  0
   47.3790   34.0670   37.0590 H   0  0  0  0  0  0  0  0  0  0  0  0
   45.9870   32.7040   36.3240 C   0  0  0  0  0  0  0  0  0  0  0  0
   46.0940   32.7860   34.9730 N   0  0  0  0  0  0  0  0  0  0  0  0
   45.2190   31.9300   34.4390 C   0  0  0  0  0  0  0  0  0  0  0  0
   45.1270   31.8230   33.3600 H   0  0  0  0  0  0  0  0  0  0  0  0
   44.5540   31.3000   35.4480 N   0  0  0  0  0  0  0  0  0  0  0  0
   45.0130   31.7630   36.6330 C   0  0  0  0  0  0  0  0  0  0  0  0
   44.7420   31.5220   37.9610 C   0  0  0  0  0  3  0  0  0  0  0  0
   46.7540   33.4190   34.4690 H   0  0  0  0  0  0  0  0  0  0  0  0
  1  2  1  0  0  0  0
  1  9  1  0  0  0  0
  2  7  1  0  0  0  0
  3  8  1  0  0  0  0
  3  2  2  0  0  0  0
  4  3  1  0  0  0  0
  5  4  2  0  0  0  0
  5  6  1  0  0  0  0
  6  1  2  0  0  0  0
  9 15  1  6  0  0  0
  9 14  1  0  0  0  0
 10  9  1  0  0  0  0
 10 11  1  0  0  0  0
 11 12  1  0  0  0  0
 12 21  1  0  0  0  0
 12 13  1  0  0  0  0
 12 20  1  0  0  0  0
 13 23  1  0  0  0  0
 14 25  1  0  0  0  0
 14 24  1  1  0  0  0
 14 13  1  0  0  0  0
 16 10  1  0  0  0  0
 17 10  1  0  0  0  0
 18 11  1  0  0  0  0
 19 11  1  0  0  0  0
 22 13  1  0  0  0  0
 25 26  1  0  0  0  0
 26 28  1  0  0  0  0
 26 27  2  0  0  0  0
 28 31  1  0  0  0  0
 29 25  1  0  0  0  0
 30 28  1  0  0  0  0
 32  5  1  0  0  0  0
 33 32  1  0  0  0  0
 33 38  1  0  0  0  0
 34 33  2  0  0  0  0
 35 36  2  0  0  0  0
 35 34  1  0  0  0  0
 36 37  1  0  0  0  0
 37 32  2  0  0  0  0
 39 34  1  0  0  0  0
 40 35  1  0  0  0  0
 42 41  1  0  0  0  0
 42 36  1  0  0  0  0
 43 42  2  0  0  0  0
 44 43  1  0  0  0  0
 45 50  2  0  0  0  0
 45 43  1  0  0  0  0
 46 45  1  0  0  0  0
 47 46  1  0  0  0  0
 47 49  2  0  0  0  0
 48 47  1  0  0  0  0
 49 50  1  0  0  0  0
 50 51  1  0  0  0  0
 51 41  2  0  0  0  0
 52 46  1  0  0  0  0
M  END
>  <minimizedAffinity>
-7.05752611

>  <minimizedRMSD>
0.408698767

$$$$
