
 OpenBabel03252503323D

 44 47  0  0  1  0  0  0  0  0999 V2000
   45.4590   34.4250   42.1870 C   0  0  0  0  0  0  0  0  0  0  0  0
   46.5450   35.2160   41.7140 C   0  0  0  0  0  0  0  0  0  0  0  0
   47.8300   34.8020   42.1140 C   0  0  0  0  0  0  0  0  0  0  0  0
   47.9300   33.7150   42.8940 N   0  0  0  0  0  0  0  0  0  0  0  0
   46.8700   32.9970   43.3160 C   0  0  0  0  0  0  0  0  0  0  0  0
   45.6230   33.3640   42.9540 N   0  0  0  0  0  0  0  0  0  0  0  0
   43.8350   34.4310   40.4910 C   0  0  0  0  0  0  0  0  0  0  0  0
   44.7620   33.9130   39.7790 O   0  0  0  0  0  0  0  0  0  0  0  0
   44.1150   34.7780   41.8280 N   0  0  0  0  0  0  0  0  0  0  0  0
   42.5740   34.6210   39.8760 N   0  0  0  0  0  0  0  0  0  0  0  0
   42.4650   34.5370   38.4070 C   0  0  0  0  0  0  0  0  0  0  0  0
   41.3460   35.4890   38.1160 C   0  0  0  0  0  0  0  0  0  0  0  0
   40.8380   35.9560   39.4490 C   0  0  0  0  0  0  0  0  0  0  0  0
   41.2680   34.8740   40.4100 C   0  0  1  0  0  0  0  0  0  0  0  0
   46.2920   36.0690   41.0870 H   0  0  0  0  0  0  0  0  0  0  0  0
   47.0070   32.1260   43.9470 H   0  0  0  0  0  0  0  0  0  0  0  0
   43.3610   35.2330   42.3990 H   0  0  0  0  0  0  0  0  0  0  0  0
   42.1430   33.5240   38.0800 H   0  0  0  0  0  0  0  0  0  0  0  0
   43.3720   34.8990   37.9040 H   0  0  0  0  0  0  0  0  0  0  0  0
   41.6390   36.3280   37.4540 H   0  0  0  0  0  0  0  0  0  0  0  0
   40.4690   34.9860   37.6160 H   0  0  0  0  0  0  0  0  0  0  0  0
   41.6080   36.7670   39.7070 H   0  0  0  0  0  0  0  0  0  0  0  0
   39.9390   36.4740   39.5250 H   0  0  0  0  0  0  0  0  0  0  0  0
   41.1780   35.3420   41.3960 H   0  0  0  0  0  0  0  0  0  0  0  0
   39.7950   33.0630   41.4950 C   0  0  0  0  0  0  0  0  0  0  0  0
   39.8250   33.8450   42.4700 O   0  0  0  0  0  0  0  0  0  0  0  0
   40.4730   33.6540   40.3610 N   0  0  0  0  0  0  0  0  0  0  0  0
   40.3990   33.1780   39.4090 H   0  0  0  0  0  0  0  0  0  0  0  0
   37.8790   31.4850   41.0650 C   0  0  0  0  0  0  0  0  0  0  0  0
   39.1970   31.7620   41.4470 C   0  0  0  0  0  0  0  0  0  0  0  0
   40.0370   30.7240   41.8180 C   0  0  0  0  0  0  0  0  0  0  0  0
   41.0660   30.8730   42.1240 H   0  0  0  0  0  0  0  0  0  0  0  0
   39.6150   29.3970   41.8270 C   0  0  0  0  0  0  0  0  0  0  0  0
   40.1970   28.2130   42.1340 N   0  0  0  0  0  0  0  0  0  0  0  0
   39.2380   27.2690   41.9350 C   0  0  0  0  0  0  0  0  0  0  0  0
   39.3550   26.2000   42.0850 H   0  0  0  0  0  0  0  0  0  0  0  0
   38.0900   27.8410   41.5170 N   0  0  0  0  0  0  0  0  0  0  0  0
   38.3130   29.1480   41.4480 C   0  0  0  0  0  0  0  0  0  0  0  0
   37.4590   30.1610   41.0750 C   0  0  0  0  0  0  0  0  0  0  0  0
   41.1810   28.0890   42.4540 H   0  0  0  0  0  0  0  0  0  0  0  0
   48.9230   35.6340   41.6120 C   0  0  0  0  0  0  0  0  0  0  0  0
   50.1320   35.0700   42.0110 F   0  0  0  0  0  0  0  0  0  0  0  0
   48.8410   36.8570   42.2970 F   0  0  0  0  0  0  0  0  0  0  0  0
   48.9320   35.7860   40.2590 F   0  0  0  0  0  0  0  0  0  0  0  0
  1  6  1  0  0  0  0
  2  3  1  0  0  0  0
  2  1  2  0  0  0  0
  3  4  2  0  0  0  0
  4  5  1  0  0  0  0
  5 16  1  0  0  0  0
  6  5  2  0  0  0  0
  7  9  1  0  0  0  0
  8  7  2  0  0  0  0
  9  1  1  0  0  0  0
  9 17  1  0  0  0  0
 10 14  1  0  0  0  0
 10  7  1  0  0  0  0
 11 10  1  0  0  0  0
 12 11  1  0  0  0  0
 12 13  1  0  0  0  0
 13 23  1  0  0  0  0
 13 22  1  0  0  0  0
 13 14  1  0  0  0  0
 14 24  1  1  0  0  0
 15  2  1  0  0  0  0
 18 11  1  0  0  0  0
 19 11  1  0  0  0  0
 20 12  1  0  0  0  0
 21 12  1  0  0  0  0
 25 26  2  0  0  0  0
 27 14  1  0  0  0  0
 27 25  1  0  0  0  0
 28 27  1  0  0  0  0
 29 39  2  0  0  0  0
 29 30  1  0  0  0  0
 30 25  1  0  0  0  0
 30 31  2  0  0  0  0
 31 33  1  0  0  0  0
 31 32  1  0  0  0  0
 33 34  1  0  0  0  0
 34 40  1  0  0  0  0
 35 36  1  0  0  0  0
 35 34  1  0  0  0  0
 37 35  2  0  0  0  0
 38 37  1  0  0  0  0
 38 33  2  0  0  0  0
 39 38  1  0  0  0  0
 41 42  1  0  0  0  0
 41  3  1  0  0  0  0
 41 43  1  0  0  0  0
 44 41  1  0  0  0  0
M  END
>  <minimizedAffinity>
-7.20890331

>  <minimizedRMSD>
1.2839663

$$$$
