
 OpenBabel03252500553D

 33 35  0  0  0  0  0  0  0  0999 V2000
   37.3350   29.2320   39.8020 O   0  0  0  0  0  0  0  0  0  0  0  0
   36.7620   30.2190   40.7970 P   0  0  1  0  0  0  0  0  0  0  0  0
   35.0770   29.9840   40.9080 O   0  0  0  0  0  0  0  0  0  0  0  0
   34.8720   29.0140   40.7910 H   0  0  0  0  0  0  0  0  0  0  0  0
   37.4170   29.9260   42.3250 O   0  0  0  0  0  0  0  0  0  0  0  0
   38.5700   28.0680   43.1870 C   0  0  0  0  0  0  0  0  0  0  0  0
   38.6290   29.3250   42.6080 C   0  0  0  0  0  0  0  0  0  0  0  0
   39.9010   29.8740   42.3590 C   0  0  0  0  0  0  0  0  0  0  0  0
   40.9750   29.1380   42.7030 N   0  0  0  0  0  0  0  0  0  0  0  0
   40.8910   27.9190   43.2660 C   0  0  0  0  0  0  0  0  0  0  0  0
   39.6900   27.4000   43.4990 N   0  0  0  0  0  0  0  0  0  0  0  0
   39.9070   30.8450   41.9120 H   0  0  0  0  0  0  0  0  0  0  0  0
   41.7920   27.3810   43.5170 H   0  0  0  0  0  0  0  0  0  0  0  0
   37.2780   27.4290   43.4760 C   0  0  0  0  0  0  0  0  0  0  0  0
   36.4600   28.1870   43.3380 H   0  0  0  0  0  0  0  0  0  0  0  0
   37.1620   27.0510   44.4960 H   0  0  0  0  0  0  0  0  0  0  0  0
   37.0330   26.3320   42.4670 C   0  0  0  0  0  0  0  0  0  0  0  0
   36.1300   25.7760   42.7780 H   0  0  0  0  0  0  0  0  0  0  0  0
   36.9410   26.7100   41.4470 H   0  0  0  0  0  0  0  0  0  0  0  0
   37.8960   25.6030   42.4930 H   0  0  0  0  0  0  0  0  0  0  0  0
   36.9970   31.8080   40.2540 O   0  0  0  0  0  0  0  0  0  0  0  0
   38.8340   33.1430   40.8380 C   0  0  0  0  0  3  0  0  0  0  0  0
   38.2120   32.3570   39.8780 C   0  0  0  0  0  0  0  0  0  0  0  0
   38.7700   32.1440   38.6380 C   0  0  0  0  0  0  0  0  0  0  0  0
   38.2670   31.5350   37.9220 H   0  0  0  0  0  0  0  0  0  0  0  0
   39.9810   32.7250   38.3390 C   0  0  0  0  0  0  0  0  0  0  0  0
   40.7830   32.7210   37.2460 N   0  0  0  0  0  0  0  0  0  0  0  0
   41.8960   33.4640   37.4520 C   0  0  0  0  0  0  0  0  0  0  0  0
   42.6820   33.6190   36.7480 H   0  0  0  0  0  0  0  0  0  0  0  0
   41.7970   33.9530   38.7030 N   0  0  0  0  0  0  0  0  0  0  0  0
   40.6550   33.5260   39.2630 C   0  0  0  0  0  0  0  0  0  0  0  0
   40.0440   33.7050   40.4990 C   0  0  0  0  0  3  0  0  0  0  0  0
   40.5620   32.2020   36.3550 H   0  0  0  0  0  0  0  0  0  0  0  0
  2  1  2  6  0  0  0
  2  3  1  0  0  0  0
  2  5  1  0  0  0  0
  4  3  1  0  0  0  0
  5  7  1  0  0  0  0
  6 14  1  0  0  0  0
  6 11  1  0  0  0  0
  7  6  2  0  0  0  0
  8  7  1  0  0  0  0
  8  9  2  0  0  0  0
  9 10  1  0  0  0  0
 10 11  2  0  0  0  0
 10 13  1  0  0  0  0
 12  8  1  0  0  0  0
 14 16  1  0  0  0  0
 15 14  1  0  0  0  0
 17 20  1  0  0  0  0
 17 18  1  0  0  0  0
 17 14  1  0  0  0  0
 19 17  1  0  0  0  0
 21  2  1  0  0  0  0
 23 21  1  0  0  0  0
 23 22  2  0  0  0  0
 24 23  1  0  0  0  0
 25 24  1  0  0  0  0
 26 24  2  0  0  0  0
 26 31  1  0  0  0  0
 27 28  1  0  0  0  0
 27 26  1  0  0  0  0
 28 30  2  0  0  0  0
 29 28  1  0  0  0  0
 30 31  1  0  0  0  0
 31 32  2  0  0  0  0
 32 22  1  0  0  0  0
 33 27  1  0  0  0  0
M  END
>  <minimizedAffinity>
-5.62494659

$$$$

 OpenBabel03252500553D

 33 35  0  0  0  0  0  0  0  0999 V2000
   35.1580   29.0930   40.0470 O   0  0  0  0  0  0  0  0  0  0  0  0
   36.2280   30.0940   40.4300 P   0  0  1  0  0  0  0  0  0  0  0  0
   35.5940   31.1730   41.5880 O   0  0  0  0  0  0  0  0  0  0  0  0
   34.9490   30.6860   42.1720 H   0  0  0  0  0  0  0  0  0  0  0  0
   37.5280   29.2880   41.1450 O   0  0  0  0  0  0  0  0  0  0  0  0
   38.0550   27.1740   42.0270 C   0  0  0  0  0  0  0  0  0  0  0  0
   37.9260   27.9860   40.9120 C   0  0  0  0  0  0  0  0  0  0  0  0
   38.2080   27.4200   39.6540 C   0  0  0  0  0  0  0  0  0  0  0  0
   38.5850   26.1280   39.6220 N   0  0  0  0  0  0  0  0  0  0  0  0
   38.7020   25.3610   40.7210 C   0  0  0  0  0  0  0  0  0  0  0  0
   38.4360   25.8940   41.9090 N   0  0  0  0  0  0  0  0  0  0  0  0
   38.0990   28.0760   38.8170 H   0  0  0  0  0  0  0  0  0  0  0  0
   39.0090   24.3300   40.6260 H   0  0  0  0  0  0  0  0  0  0  0  0
   37.7770   27.6930   43.3750 C   0  0  0  0  0  0  0  0  0  0  0  0
   37.8810   28.8120   43.3610 H   0  0  0  0  0  0  0  0  0  0  0  0
   38.4550   27.3420   44.1590 H   0  0  0  0  0  0  0  0  0  0  0  0
   36.3410   27.3910   43.7340 C   0  0  0  0  0  0  0  0  0  0  0  0
   36.1880   27.6640   44.7940 H   0  0  0  0  0  0  0  0  0  0  0  0
   35.6280   27.8990   43.0810 H   0  0  0  0  0  0  0  0  0  0  0  0
   36.1610   26.2790   43.6480 H   0  0  0  0  0  0  0  0  0  0  0  0
   36.6700   31.0280   39.0850 O   0  0  0  0  0  0  0  0  0  0  0  0
   38.2160   32.5970   39.8900 C   0  0  0  0  0  3  0  0  0  0  0  0
   37.8890   31.6650   38.9150 C   0  0  0  0  0  0  0  0  0  0  0  0
   38.7220   31.3980   37.8520 C   0  0  0  0  0  0  0  0  0  0  0  0
   38.4420   30.6770   37.1190 H   0  0  0  0  0  0  0  0  0  0  0  0
   39.9170   32.0740   37.7520 C   0  0  0  0  0  0  0  0  0  0  0  0
   40.9380   32.0520   36.8610 N   0  0  0  0  0  0  0  0  0  0  0  0
   41.9130   32.9250   37.2130 C   0  0  0  0  0  0  0  0  0  0  0  0
   42.8190   33.0960   36.6780 H   0  0  0  0  0  0  0  0  0  0  0  0
   41.5000   33.5130   38.3510 N   0  0  0  0  0  0  0  0  0  0  0  0
   40.3020   33.0220   38.7020 C   0  0  0  0  0  0  0  0  0  0  0  0
   39.4210   33.2490   39.7520 C   0  0  0  0  0  3  0  0  0  0  0  0
   40.9640   31.4330   36.0080 H   0  0  0  0  0  0  0  0  0  0  0  0
  2  1  2  6  0  0  0
  2  5  1  0  0  0  0
  2  3  1  0  0  0  0
  3  4  1  0  0  0  0
  6 14  1  0  0  0  0
  7  5  1  0  0  0  0
  7  6  2  0  0  0  0
  8  7  1  0  0  0  0
  9  8  2  0  0  0  0
  9 10  1  0  0  0  0
 10 11  2  0  0  0  0
 11  6  1  0  0  0  0
 12  8  1  0  0  0  0
 13 10  1  0  0  0  0
 14 17  1  0  0  0  0
 14 16  1  0  0  0  0
 15 14  1  0  0  0  0
 17 18  1  0  0  0  0
 19 17  1  0  0  0  0
 20 17  1  0  0  0  0
 21  2  1  0  0  0  0
 23 21  1  0  0  0  0
 23 22  2  0  0  0  0
 24 23  1  0  0  0  0
 25 24  1  0  0  0  0
 26 24  2  0  0  0  0
 26 31  1  0  0  0  0
 27 28  1  0  0  0  0
 27 26  1  0  0  0  0
 28 30  2  0  0  0  0
 29 28  1  0  0  0  0
 30 31  1  0  0  0  0
 31 32  2  0  0  0  0
 32 22  1  0  0  0  0
 33 27  1  0  0  0  0
M  END
>  <minimizedAffinity>
-5.59018469

$$$$

 OpenBabel03252500553D

 33 35  0  0  0  0  0  0  0  0999 V2000
   34.8990   27.8900   38.0630 O   0  0  0  0  0  0  0  0  0  0  0  0
   35.5750   28.8590   39.0100 P   0  0  1  0  0  0  0  0  0  0  0  0
   34.4690   29.3150   40.2250 O   0  0  0  0  0  0  0  0  0  0  0  0
   33.8720   28.5430   40.4330 H   0  0  0  0  0  0  0  0  0  0  0  0
   36.8750   28.0950   39.7690 O   0  0  0  0  0  0  0  0  0  0  0  0
   37.1820   26.9010   41.7700 C   0  0  0  0  0  0  0  0  0  0  0  0
   37.1820   28.1220   41.1170 C   0  0  0  0  0  0  0  0  0  0  0  0
   37.4900   29.2700   41.8710 C   0  0  0  0  0  0  0  0  0  0  0  0
   37.7640   29.1010   43.1780 N   0  0  0  0  0  0  0  0  0  0  0  0
   37.7570   27.9020   43.7900 C   0  0  0  0  0  0  0  0  0  0  0  0
   37.4660   26.8190   43.0780 N   0  0  0  0  0  0  0  0  0  0  0  0
   37.4800   30.1940   41.3330 H   0  0  0  0  0  0  0  0  0  0  0  0
   37.9860   27.8360   44.8430 H   0  0  0  0  0  0  0  0  0  0  0  0
   36.8700   25.6580   41.0500 C   0  0  0  0  0  0  0  0  0  0  0  0
   37.4910   25.6170   40.1130 H   0  0  0  0  0  0  0  0  0  0  0  0
   35.8310   25.5570   40.7210 H   0  0  0  0  0  0  0  0  0  0  0  0
   37.2810   24.4790   41.9000 C   0  0  0  0  0  0  0  0  0  0  0  0
   36.9180   23.5580   41.4060 H   0  0  0  0  0  0  0  0  0  0  0  0
   38.3570   24.4420   42.0770 H   0  0  0  0  0  0  0  0  0  0  0  0
   36.7640   24.5440   42.9020 H   0  0  0  0  0  0  0  0  0  0  0  0
   36.0100   30.2780   38.1900 O   0  0  0  0  0  0  0  0  0  0  0  0
   38.2360   30.9310   37.8520 C   0  0  0  0  0  3  0  0  0  0  0  0
   37.0480   31.1240   38.5440 C   0  0  0  0  0  0  0  0  0  0  0  0
   36.9190   32.0900   39.5160 C   0  0  0  0  0  0  0  0  0  0  0  0
   35.9930   32.2130   40.0300 H   0  0  0  0  0  0  0  0  0  0  0  0
   37.9980   32.8920   39.8110 C   0  0  0  0  0  0  0  0  0  0  0  0
   38.2050   33.9070   40.6850 N   0  0  0  0  0  0  0  0  0  0  0  0
   39.4690   34.3840   40.5910 C   0  0  0  0  0  0  0  0  0  0  0  0
   39.8800   35.1800   41.1700 H   0  0  0  0  0  0  0  0  0  0  0  0
   40.0780   33.6530   39.6390 N   0  0  0  0  0  0  0  0  0  0  0  0
   39.2190   32.7470   39.1490 C   0  0  0  0  0  0  0  0  0  0  0  0
   39.2900   31.7550   38.1780 C   0  0  0  0  0  3  0  0  0  0  0  0
   37.4710   34.2740   41.3470 H   0  0  0  0  0  0  0  0  0  0  0  0
  2  1  2  6  0  0  0
  2  5  1  0  0  0  0
  2  3  1  0  0  0  0
  3  4  1  0  0  0  0
  5  7  1  0  0  0  0
  6 11  1  0  0  0  0
  7  6  2  0  0  0  0
  7  8  1  0  0  0  0
  8  9  2  0  0  0  0
  9 10  1  0  0  0  0
 10 13  1  0  0  0  0
 11 10  2  0  0  0  0
 12  8  1  0  0  0  0
 14  6  1  0  0  0  0
 14 17  1  0  0  0  0
 15 14  1  0  0  0  0
 16 14  1  0  0  0  0
 17 19  1  0  0  0  0
 17 20  1  0  0  0  0
 18 17  1  0  0  0  0
 21 23  1  0  0  0  0
 21  2  1  0  0  0  0
 22 32  2  0  0  0  0
 22 23  1  0  0  0  0
 23 24  2  0  0  0  0
 24 26  1  0  0  0  0
 24 25  1  0  0  0  0
 26 27  1  0  0  0  0
 27 33  1  0  0  0  0
 28 27  1  0  0  0  0
 28 29  1  0  0  0  0
 30 28  2  0  0  0  0
 31 30  1  0  0  0  0
 31 26  2  0  0  0  0
 32 31  1  0  0  0  0
M  END
>  <minimizedAffinity>
-5.57670736

$$$$

 OpenBabel03252500553D

 33 35  0  0  0  0  0  0  0  0999 V2000
   35.9330   28.4170   41.2740 O   0  0  0  0  0  0  0  0  0  0  0  0
   36.7270   29.7030   41.1920 P   0  0  1  0  0  0  0  0  0  0  0  0
   35.6610   31.0260   41.3350 O   0  0  0  0  0  0  0  0  0  0  0  0
   34.9160   30.7830   41.9530 H   0  0  0  0  0  0  0  0  0  0  0  0
   37.8110   29.7830   42.4830 O   0  0  0  0  0  0  0  0  0  0  0  0
   40.0330   29.0250   42.5950 C   0  0  0  0  0  0  0  0  0  0  0  0
   38.6980   28.8010   42.8840 C   0  0  0  0  0  0  0  0  0  0  0  0
   38.3630   27.6090   43.5540 C   0  0  0  0  0  0  0  0  0  0  0  0
   39.3660   26.7670   43.8660 N   0  0  0  0  0  0  0  0  0  0  0  0
   40.6570   27.0080   43.5730 C   0  0  0  0  0  0  0  0  0  0  0  0
   40.9730   28.1340   42.9410 N   0  0  0  0  0  0  0  0  0  0  0  0
   37.3230   27.4710   43.7600 H   0  0  0  0  0  0  0  0  0  0  0  0
   41.4130   26.2910   43.8520 H   0  0  0  0  0  0  0  0  0  0  0  0
   40.4610   30.2470   41.8980 C   0  0  0  0  0  0  0  0  0  0  0  0
   39.5520   30.8640   41.6590 H   0  0  0  0  0  0  0  0  0  0  0  0
   40.9700   30.0870   40.9430 H   0  0  0  0  0  0  0  0  0  0  0  0
   41.3180   31.0720   42.8300 C   0  0  0  0  0  0  0  0  0  0  0  0
   41.7400   31.9150   42.2510 H   0  0  0  0  0  0  0  0  0  0  0  0
   40.7700   31.4220   43.7070 H   0  0  0  0  0  0  0  0  0  0  0  0
   42.1870   30.4470   43.1880 H   0  0  0  0  0  0  0  0  0  0  0  0
   37.4720   29.8420   39.6750 O   0  0  0  0  0  0  0  0  0  0  0  0
   35.4870   29.4670   38.4870 C   0  0  0  0  0  3  0  0  0  0  0  0
   36.8700   29.5740   38.4570 C   0  0  0  0  0  0  0  0  0  0  0  0
   37.5880   29.4220   37.2920 C   0  0  0  0  0  0  0  0  0  0  0  0
   38.6510   29.5090   37.3020 H   0  0  0  0  0  0  0  0  0  0  0  0
   36.9160   29.1570   36.1200 C   0  0  0  0  0  0  0  0  0  0  0  0
   37.3050   28.9560   34.8380 N   0  0  0  0  0  0  0  0  0  0  0  0
   36.2400   28.7260   34.0340 C   0  0  0  0  0  0  0  0  0  0  0  0
   36.2800   28.5390   32.9840 H   0  0  0  0  0  0  0  0  0  0  0  0
   35.1520   28.7800   34.8240 N   0  0  0  0  0  0  0  0  0  0  0  0
   35.5260   29.0380   36.0870 C   0  0  0  0  0  0  0  0  0  0  0  0
   34.8540   29.2010   37.2920 C   0  0  0  0  0  3  0  0  0  0  0  0
   38.3090   28.9790   34.5160 H   0  0  0  0  0  0  0  0  0  0  0  0
  2  1  2  1  0  0  0
  2  3  1  0  0  0  0
  2  5  1  0  0  0  0
  3  4  1  0  0  0  0
  5  7  1  0  0  0  0
  6  7  2  0  0  0  0
  6 11  1  0  0  0  0
  7  8  1  0  0  0  0
  8 12  1  0  0  0  0
  8  9  2  0  0  0  0
 10 13  1  0  0  0  0
 10  9  1  0  0  0  0
 11 10  2  0  0  0  0
 14  6  1  0  0  0  0
 14 17  1  0  0  0  0
 15 14  1  0  0  0  0
 16 14  1  0  0  0  0
 17 20  1  0  0  0  0
 17 19  1  0  0  0  0
 18 17  1  0  0  0  0
 21  2  1  0  0  0  0
 23 22  1  0  0  0  0
 23 21  1  0  0  0  0
 24 25  1  0  0  0  0
 24 23  2  0  0  0  0
 26 24  1  0  0  0  0
 27 26  1  0  0  0  0
 28 30  2  0  0  0  0
 28 27  1  0  0  0  0
 29 28  1  0  0  0  0
 30 31  1  0  0  0  0
 31 26  2  0  0  0  0
 31 32  1  0  0  0  0
 32 22  2  0  0  0  0
 33 27  1  0  0  0  0
M  END
>  <minimizedAffinity>
-5.49864483

$$$$

 OpenBabel03252500553D

 33 35  0  0  0  0  0  0  0  0999 V2000
   34.9800   27.8030   38.1700 O   0  0  0  0  0  0  0  0  0  0  0  0
   35.6660   28.8160   39.0630 P   0  0  1  0  0  0  0  0  0  0  0  0
   34.5640   29.3490   40.2500 O   0  0  0  0  0  0  0  0  0  0  0  0
   33.9590   28.5950   40.5000 H   0  0  0  0  0  0  0  0  0  0  0  0
   36.9580   28.0820   39.8630 O   0  0  0  0  0  0  0  0  0  0  0  0
   36.9110   26.7330   41.7880 C   0  0  0  0  0  0  0  0  0  0  0  0
   36.9830   26.8110   40.4070 C   0  0  0  0  0  0  0  0  0  0  0  0
   37.0740   25.6050   39.6850 C   0  0  0  0  0  0  0  0  0  0  0  0
   37.0850   24.4580   40.3890 N   0  0  0  0  0  0  0  0  0  0  0  0
   37.0140   24.4090   41.7320 C   0  0  0  0  0  0  0  0  0  0  0  0
   36.9280   25.5470   42.4130 N   0  0  0  0  0  0  0  0  0  0  0  0
   37.1280   25.7050   38.6230 H   0  0  0  0  0  0  0  0  0  0  0  0
   37.0280   23.4540   42.2360 H   0  0  0  0  0  0  0  0  0  0  0  0
   36.8140   27.9470   42.6090 C   0  0  0  0  0  0  0  0  0  0  0  0
   35.7470   28.0780   42.9390 H   0  0  0  0  0  0  0  0  0  0  0  0
   37.0830   28.8780   42.1010 H   0  0  0  0  0  0  0  0  0  0  0  0
   37.6400   27.7640   43.8620 C   0  0  0  0  0  0  0  0  0  0  0  0
   37.6660   28.7290   44.4000 H   0  0  0  0  0  0  0  0  0  0  0  0
   37.2670   26.9590   44.4980 H   0  0  0  0  0  0  0  0  0  0  0  0
   38.7030   27.5150   43.5730 H   0  0  0  0  0  0  0  0  0  0  0  0
   36.1150   30.1840   38.1680 O   0  0  0  0  0  0  0  0  0  0  0  0
   38.2850   30.9950   37.8080 C   0  0  0  0  0  3  0  0  0  0  0  0
   37.1000   31.0890   38.5250 C   0  0  0  0  0  0  0  0  0  0  0  0
   36.9250   32.0210   39.5230 C   0  0  0  0  0  0  0  0  0  0  0  0
   36.0030   32.0680   40.0560 H   0  0  0  0  0  0  0  0  0  0  0  0
   37.9530   32.8870   39.8200 C   0  0  0  0  0  0  0  0  0  0  0  0
   38.1060   33.8920   40.7160 N   0  0  0  0  0  0  0  0  0  0  0  0
   39.3340   34.4560   40.6130 C   0  0  0  0  0  0  0  0  0  0  0  0
   39.7000   35.2640   41.2040 H   0  0  0  0  0  0  0  0  0  0  0  0
   39.9730   33.7920   39.6310 N   0  0  0  0  0  0  0  0  0  0  0  0
   39.1670   32.8410   39.1330 C   0  0  0  0  0  0  0  0  0  0  0  0
   39.2870   31.8810   38.1360 C   0  0  0  0  0  3  0  0  0  0  0  0
   37.3620   34.1910   41.4000 H   0  0  0  0  0  0  0  0  0  0  0  0
  2  1  2  6  0  0  0
  2  5  1  0  0  0  0
  2  3  1  0  0  0  0
  3  4  1  0  0  0  0
  5  7  1  0  0  0  0
  6 11  1  0  0  0  0
  6 14  1  0  0  0  0
  7  6  2  0  0  0  0
  8  9  2  0  0  0  0
  8  7  1  0  0  0  0
  9 10  1  0  0  0  0
 10 13  1  0  0  0  0
 10 11  2  0  0  0  0
 12  8  1  0  0  0  0
 14 15  1  0  0  0  0
 14 17  1  0  0  0  0
 16 14  1  0  0  0  0
 17 18  1  0  0  0  0
 17 19  1  0  0  0  0
 20 17  1  0  0  0  0
 21 23  1  0  0  0  0
 21  2  1  0  0  0  0
 22 32  2  0  0  0  0
 22 23  1  0  0  0  0
 23 24  2  0  0  0  0
 24 26  1  0  0  0  0
 24 25  1  0  0  0  0
 26 27  1  0  0  0  0
 27 33  1  0  0  0  0
 28 27  1  0  0  0  0
 28 29  1  0  0  0  0
 30 28  2  0  0  0  0
 31 30  1  0  0  0  0
 31 26  2  0  0  0  0
 32 31  1  0  0  0  0
M  END
>  <minimizedAffinity>
-5.49004126

$$$$

 OpenBabel03252500553D

 33 35  0  0  0  0  0  0  0  0999 V2000
   35.9560   29.6900   38.5790 O   0  0  0  0  0  0  0  0  0  0  0  0
   35.5790   29.3460   40.0050 P   0  0  1  0  0  0  0  0  0  0  0  0
   33.8790   29.3310   40.1430 O   0  0  0  0  0  0  0  0  0  0  0  0
   33.4820   29.0020   39.2890 H   0  0  0  0  0  0  0  0  0  0  0  0
   36.1320   27.7960   40.3790 O   0  0  0  0  0  0  0  0  0  0  0  0
   37.8110   26.9790   41.8060 C   0  0  0  0  0  0  0  0  0  0  0  0
   37.4460   27.4000   40.5380 C   0  0  0  0  0  0  0  0  0  0  0  0
   38.4330   27.3880   39.5340 C   0  0  0  0  0  0  0  0  0  0  0  0
   39.6650   26.9680   39.8770 N   0  0  0  0  0  0  0  0  0  0  0  0
   39.9940   26.5640   41.1180 C   0  0  0  0  0  0  0  0  0  0  0  0
   39.0630   26.5750   42.0650 N   0  0  0  0  0  0  0  0  0  0  0  0
   38.1150   27.7200   38.5690 H   0  0  0  0  0  0  0  0  0  0  0  0
   41.0020   26.2380   41.3260 H   0  0  0  0  0  0  0  0  0  0  0  0
   36.8360   26.9630   42.9060 C   0  0  0  0  0  0  0  0  0  0  0  0
   36.9710   26.0150   43.4960 H   0  0  0  0  0  0  0  0  0  0  0  0
   35.7860   26.9750   42.6000 H   0  0  0  0  0  0  0  0  0  0  0  0
   37.1330   28.1080   43.8460 C   0  0  0  0  0  0  0  0  0  0  0  0
   36.3160   28.1630   44.5880 H   0  0  0  0  0  0  0  0  0  0  0  0
   38.1080   28.0150   44.3280 H   0  0  0  0  0  0  0  0  0  0  0  0
   37.1220   29.0770   43.2670 H   0  0  0  0  0  0  0  0  0  0  0  0
   36.1430   30.5400   41.0690 O   0  0  0  0  0  0  0  0  0  0  0  0
   38.4510   30.6840   41.4510 C   0  0  0  0  0  3  0  0  0  0  0  0
   37.3120   31.2670   40.9140 C   0  0  0  0  0  0  0  0  0  0  0  0
   37.3480   32.4850   40.2740 C   0  0  0  0  0  0  0  0  0  0  0  0
   36.4560   32.9060   39.8720 H   0  0  0  0  0  0  0  0  0  0  0  0
   38.5500   33.1470   40.1610 C   0  0  0  0  0  0  0  0  0  0  0  0
   38.9260   34.3260   39.6100 N   0  0  0  0  0  0  0  0  0  0  0  0
   40.2560   34.5360   39.7620 C   0  0  0  0  0  0  0  0  0  0  0  0
   40.7960   35.3880   39.4170 H   0  0  0  0  0  0  0  0  0  0  0  0
   40.7330   33.4660   40.4260 N   0  0  0  0  0  0  0  0  0  0  0  0
   39.7310   32.6110   40.6800 C   0  0  0  0  0  0  0  0  0  0  0  0
   39.6330   31.3790   41.3150 C   0  0  0  0  0  3  0  0  0  0  0  0
   38.2640   34.9890   39.1260 H   0  0  0  0  0  0  0  0  0  0  0  0
  2  1  2  6  0  0  0
  2  3  1  0  0  0  0
  2  5  1  0  0  0  0
  2 21  1  0  0  0  0
  4  3  1  0  0  0  0
  5  7  1  0  0  0  0
  6 11  1  0  0  0  0
  6 14  1  0  0  0  0
  7  6  2  0  0  0  0
  8  9  2  0  0  0  0
  8  7  1  0  0  0  0
  9 10  1  0  0  0  0
 10 13  1  0  0  0  0
 10 11  2  0  0  0  0
 12  8  1  0  0  0  0
 14 15  1  0  0  0  0
 14 17  1  0  0  0  0
 16 14  1  0  0  0  0
 17 19  1  0  0  0  0
 17 18  1  0  0  0  0
 20 17  1  0  0  0  0
 23 21  1  0  0  0  0
 23 22  2  0  0  0  0
 24 23  1  0  0  0  0
 25 24  1  0  0  0  0
 26 24  2  0  0  0  0
 26 31  1  0  0  0  0
 27 28  1  0  0  0  0
 27 26  1  0  0  0  0
 28 30  2  0  0  0  0
 29 28  1  0  0  0  0
 30 31  1  0  0  0  0
 31 32  2  0  0  0  0
 32 22  1  0  0  0  0
 33 27  1  0  0  0  0
M  END
>  <minimizedAffinity>
-5.47971582

$$$$

 OpenBabel03252500553D

 33 35  0  0  0  0  0  0  0  0999 V2000
   37.3310   28.7000   39.6180 O   0  0  0  0  0  0  0  0  0  0  0  0
   36.4220   28.8960   40.8130 P   0  0  1  0  0  0  0  0  0  0  0  0
   34.8020   28.9260   40.2810 O   0  0  0  0  0  0  0  0  0  0  0  0
   34.6990   28.3070   39.5050 H   0  0  0  0  0  0  0  0  0  0  0  0
   36.5850   27.5890   41.8690 O   0  0  0  0  0  0  0  0  0  0  0  0
   37.9640   25.7570   42.3850 C   0  0  0  0  0  0  0  0  0  0  0  0
   37.7550   27.1250   42.4410 C   0  0  0  0  0  0  0  0  0  0  0  0
   38.7380   27.9150   43.0660 C   0  0  0  0  0  0  0  0  0  0  0  0
   39.8170   27.2840   43.5680 N   0  0  0  0  0  0  0  0  0  0  0  0
   39.9960   25.9520   43.5020 C   0  0  0  0  0  0  0  0  0  0  0  0
   39.0680   25.2070   42.9110 N   0  0  0  0  0  0  0  0  0  0  0  0
   38.5420   28.9650   43.0900 H   0  0  0  0  0  0  0  0  0  0  0  0
   40.8850   25.5090   43.9250 H   0  0  0  0  0  0  0  0  0  0  0  0
   36.9820   24.8680   41.7490 C   0  0  0  0  0  0  0  0  0  0  0  0
   36.5590   25.3840   40.8440 H   0  0  0  0  0  0  0  0  0  0  0  0
   36.1210   24.6020   42.3690 H   0  0  0  0  0  0  0  0  0  0  0  0
   37.6880   23.6270   41.2540 C   0  0  0  0  0  0  0  0  0  0  0  0
   36.9210   22.9130   40.9020 H   0  0  0  0  0  0  0  0  0  0  0  0
   38.4230   23.8420   40.4760 H   0  0  0  0  0  0  0  0  0  0  0  0
   38.2270   23.1360   42.1170 H   0  0  0  0  0  0  0  0  0  0  0  0
   36.7220   30.3960   41.5430 O   0  0  0  0  0  0  0  0  0  0  0  0
   37.0540   32.2350   40.1270 C   0  0  0  0  0  3  0  0  0  0  0  0
   37.5910   31.3630   41.0640 C   0  0  0  0  0  0  0  0  0  0  0  0
   38.8980   31.4580   41.4840 C   0  0  0  0  0  0  0  0  0  0  0  0
   39.2810   30.7730   42.2050 H   0  0  0  0  0  0  0  0  0  0  0  0
   39.7000   32.4480   40.9600 C   0  0  0  0  0  0  0  0  0  0  0  0
   40.9920   32.8100   41.1490 N   0  0  0  0  0  0  0  0  0  0  0  0
   41.3190   33.8760   40.3800 C   0  0  0  0  0  0  0  0  0  0  0  0
   42.2730   34.3510   40.3460 H   0  0  0  0  0  0  0  0  0  0  0  0
   40.2100   34.1950   39.6870 N   0  0  0  0  0  0  0  0  0  0  0  0
   39.2170   33.3540   40.0140 C   0  0  0  0  0  0  0  0  0  0  0  0
   37.8900   33.2100   39.6290 C   0  0  0  0  0  3  0  0  0  0  0  0
   41.6510   32.3210   41.8110 H   0  0  0  0  0  0  0  0  0  0  0  0
  2  1  2  6  0  0  0
  2 21  1  0  0  0  0
  2  5  1  0  0  0  0
  3  2  1  0  0  0  0
  4  3  1  0  0  0  0
  5  7  1  0  0  0  0
  6  7  2  0  0  0  0
  6 11  1  0  0  0  0
  7  8  1  0  0  0  0
  8 12  1  0  0  0  0
  8  9  2  0  0  0  0
 10  9  1  0  0  0  0
 10 13  1  0  0  0  0
 11 10  2  0  0  0  0
 14 16  1  0  0  0  0
 14  6  1  0  0  0  0
 15 14  1  0  0  0  0
 17 14  1  0  0  0  0
 17 20  1  0  0  0  0
 18 17  1  0  0  0  0
 19 17  1  0  0  0  0
 22 23  1  0  0  0  0
 23 24  2  0  0  0  0
 23 21  1  0  0  0  0
 24 25  1  0  0  0  0
 26 27  1  0  0  0  0
 26 24  1  0  0  0  0
 27 33  1  0  0  0  0
 28 27  1  0  0  0  0
 29 28  1  0  0  0  0
 30 31  1  0  0  0  0
 30 28  2  0  0  0  0
 31 26  2  0  0  0  0
 32 31  1  0  0  0  0
 32 22  2  0  0  0  0
M  END
>  <minimizedAffinity>
-5.44263697

$$$$

 OpenBabel03252500553D

 33 35  0  0  0  0  0  0  0  0999 V2000
   34.9400   29.4740   39.4320 O   0  0  0  0  0  0  0  0  0  0  0  0
   36.1440   30.1940   40.0020 P   0  0  1  0  0  0  0  0  0  0  0  0
   35.7380   30.8350   41.5290 O   0  0  0  0  0  0  0  0  0  0  0  0
   35.0970   30.2200   41.9840 H   0  0  0  0  0  0  0  0  0  0  0  0
   37.4050   29.0960   40.2310 O   0  0  0  0  0  0  0  0  0  0  0  0
   38.8630   28.8430   42.0570 C   0  0  0  0  0  0  0  0  0  0  0  0
   37.7190   28.4250   41.3980 C   0  0  0  0  0  0  0  0  0  0  0  0
   36.9840   27.3670   41.9650 C   0  0  0  0  0  0  0  0  0  0  0  0
   37.4460   26.8340   43.1120 N   0  0  0  0  0  0  0  0  0  0  0  0
   38.5610   27.2580   43.7330 C   0  0  0  0  0  0  0  0  0  0  0  0
   39.2540   28.2570   43.1980 N   0  0  0  0  0  0  0  0  0  0  0  0
   36.1080   27.0720   41.4290 H   0  0  0  0  0  0  0  0  0  0  0  0
   38.8760   26.7860   44.6520 H   0  0  0  0  0  0  0  0  0  0  0  0
   39.6820   29.9420   41.5260 C   0  0  0  0  0  0  0  0  0  0  0  0
   39.1280   30.4320   40.6800 H   0  0  0  0  0  0  0  0  0  0  0  0
   40.6510   29.6450   41.1130 H   0  0  0  0  0  0  0  0  0  0  0  0
   39.8570   30.9910   42.6000 C   0  0  0  0  0  0  0  0  0  0  0  0
   40.5820   31.7400   42.2330 H   0  0  0  0  0  0  0  0  0  0  0  0
   38.9130   31.4550   42.8930 H   0  0  0  0  0  0  0  0  0  0  0  0
   40.3090   30.5130   43.5180 H   0  0  0  0  0  0  0  0  0  0  0  0
   36.5640   31.5100   39.0180 O   0  0  0  0  0  0  0  0  0  0  0  0
   38.2330   32.9570   39.8050 C   0  0  0  0  0  3  0  0  0  0  0  0
   37.8430   32.0180   38.8590 C   0  0  0  0  0  0  0  0  0  0  0  0
   38.6740   31.6260   37.8350 C   0  0  0  0  0  0  0  0  0  0  0  0
   38.3450   30.9030   37.1240 H   0  0  0  0  0  0  0  0  0  0  0  0
   39.9320   32.1780   37.7450 C   0  0  0  0  0  0  0  0  0  0  0  0
   40.9690   32.0190   36.8880 N   0  0  0  0  0  0  0  0  0  0  0  0
   42.0150   32.8080   37.2330 C   0  0  0  0  0  0  0  0  0  0  0  0
   42.9480   32.8680   36.7190 H   0  0  0  0  0  0  0  0  0  0  0  0
   41.6310   33.4840   38.3320 N   0  0  0  0  0  0  0  0  0  0  0  0
   40.3820   33.1260   38.6660 C   0  0  0  0  0  0  0  0  0  0  0  0
   39.4990   33.4840   39.6780 C   0  0  0  0  0  3  0  0  0  0  0  0
   40.9580   31.3640   36.0620 H   0  0  0  0  0  0  0  0  0  0  0  0
  2  1  2  6  0  0  0
  2  5  1  0  0  0  0
  2  3  1  0  0  0  0
  3  4  1  0  0  0  0
  5  7  1  0  0  0  0
  6 11  1  0  0  0  0
  7  8  1  0  0  0  0
  7  6  2  0  0  0  0
  8  9  2  0  0  0  0
  9 10  1  0  0  0  0
 10 13  1  0  0  0  0
 11 10  2  0  0  0  0
 12  8  1  0  0  0  0
 14  6  1  0  0  0  0
 14 17  1  0  0  0  0
 15 14  1  0  0  0  0
 16 14  1  0  0  0  0
 17 19  1  0  0  0  0
 17 20  1  0  0  0  0
 18 17  1  0  0  0  0
 21  2  1  0  0  0  0
 23 21  1  0  0  0  0
 23 22  2  0  0  0  0
 24 23  1  0  0  0  0
 25 24  1  0  0  0  0
 26 24  2  0  0  0  0
 26 31  1  0  0  0  0
 27 28  1  0  0  0  0
 27 26  1  0  0  0  0
 28 30  2  0  0  0  0
 29 28  1  0  0  0  0
 30 31  1  0  0  0  0
 31 32  2  0  0  0  0
 32 22  1  0  0  0  0
 33 27  1  0  0  0  0
M  END
>  <minimizedAffinity>
-5.42692137

$$$$

 OpenBabel03252500553D

 33 35  0  0  0  0  0  0  0  0999 V2000
   38.7360   28.5420   41.8340 O   0  0  0  0  0  0  0  0  0  0  0  0
   37.3050   28.4610   42.3220 P   0  0  1  0  0  0  0  0  0  0  0  0
   37.2010   29.1740   43.8670 O   0  0  0  0  0  0  0  0  0  0  0  0
   37.8440   29.9360   43.9220 H   0  0  0  0  0  0  0  0  0  0  0  0
   36.3030   29.3440   41.2880 O   0  0  0  0  0  0  0  0  0  0  0  0
   36.4280   30.1880   39.0980 C   0  0  0  0  0  0  0  0  0  0  0  0
   36.6810   30.3740   40.4470 C   0  0  0  0  0  0  0  0  0  0  0  0
   37.2910   31.5800   40.8410 C   0  0  0  0  0  0  0  0  0  0  0  0
   37.5880   32.4710   39.8760 N   0  0  0  0  0  0  0  0  0  0  0  0
   37.3320   32.2660   38.5710 C   0  0  0  0  0  0  0  0  0  0  0  0
   36.7550   31.1280   38.2000 N   0  0  0  0  0  0  0  0  0  0  0  0
   37.4710   31.6870   41.8890 H   0  0  0  0  0  0  0  0  0  0  0  0
   37.5960   33.0230   37.8470 H   0  0  0  0  0  0  0  0  0  0  0  0
   35.7930   28.9560   38.6110 C   0  0  0  0  0  0  0  0  0  0  0  0
   34.8890   28.7390   39.2430 H   0  0  0  0  0  0  0  0  0  0  0  0
   36.4140   28.0570   38.6650 H   0  0  0  0  0  0  0  0  0  0  0  0
   35.2970   29.1800   37.2010 C   0  0  0  0  0  0  0  0  0  0  0  0
   34.9460   28.2100   36.8030 H   0  0  0  0  0  0  0  0  0  0  0  0
   34.5180   29.9420   37.1450 H   0  0  0  0  0  0  0  0  0  0  0  0
   36.1590   29.5130   36.5520 H   0  0  0  0  0  0  0  0  0  0  0  0
   36.8320   26.8430   42.5010 O   0  0  0  0  0  0  0  0  0  0  0  0
   36.8570   26.1400   40.2640 C   0  0  0  0  0  3  0  0  0  0  0  0
   37.0900   25.8260   41.5960 C   0  0  0  0  0  0  0  0  0  0  0  0
   37.5420   24.5850   41.9840 C   0  0  0  0  0  0  0  0  0  0  0  0
   37.7100   24.3740   43.0150 H   0  0  0  0  0  0  0  0  0  0  0  0
   37.7740   23.6260   41.0240 C   0  0  0  0  0  0  0  0  0  0  0  0
   38.2080   22.3430   41.0620 N   0  0  0  0  0  0  0  0  0  0  0  0
   38.2710   21.8110   39.8180 C   0  0  0  0  0  0  0  0  0  0  0  0
   38.5820   20.8190   39.5790 H   0  0  0  0  0  0  0  0  0  0  0  0
   37.8660   22.7770   38.9730 N   0  0  0  0  0  0  0  0  0  0  0  0
   37.5600   23.8830   39.6680 C   0  0  0  0  0  0  0  0  0  0  0  0
   37.1030   25.1530   39.3360 C   0  0  0  0  0  3  0  0  0  0  0  0
   38.4630   21.8330   41.9480 H   0  0  0  0  0  0  0  0  0  0  0  0
  2  1  2  6  0  0  0
  2 21  1  0  0  0  0
  2  3  1  0  0  0  0
  3  4  1  0  0  0  0
  5  2  1  0  0  0  0
  6  7  1  0  0  0  0
  7  8  2  0  0  0  0
  7  5  1  0  0  0  0
  8 12  1  0  0  0  0
  9  8  1  0  0  0  0
 10  9  2  0  0  0  0
 11 10  1  0  0  0  0
 11  6  2  0  0  0  0
 13 10  1  0  0  0  0
 14 16  1  0  0  0  0
 14  6  1  0  0  0  0
 14 15  1  0  0  0  0
 17 14  1  0  0  0  0
 18 17  1  0  0  0  0
 19 17  1  0  0  0  0
 20 17  1  0  0  0  0
 22 23  1  0  0  0  0
 23 24  2  0  0  0  0
 23 21  1  0  0  0  0
 24 25  1  0  0  0  0
 26 27  1  0  0  0  0
 26 24  1  0  0  0  0
 27 33  1  0  0  0  0
 28 27  1  0  0  0  0
 29 28  1  0  0  0  0
 30 31  1  0  0  0  0
 30 28  2  0  0  0  0
 31 26  2  0  0  0  0
 32 31  1  0  0  0  0
 32 22  2  0  0  0  0
M  END
>  <minimizedAffinity>
-5.26868963

$$$$
