
 OpenBabel03252503273D

 28 30  0  0  0  0  0  0  0  0999 V2000
   45.5670   34.7060   42.4680 C   0  0  0  0  0  0  0  0  0  0  0  0
   46.6470   35.2610   41.7750 C   0  0  0  0  0  0  0  0  0  0  0  0
   47.9340   34.9590   42.2860 C   0  0  0  0  0  0  0  0  0  0  0  0
   48.0090   34.1670   43.3900 N   0  0  0  0  0  0  0  0  0  0  0  0
   46.9250   33.6670   44.0090 C   0  0  0  0  0  0  0  0  0  0  0  0
   45.6960   33.9330   43.5520 N   0  0  0  0  0  0  0  0  0  0  0  0
   43.9080   34.1980   40.8600 C   0  0  0  0  0  0  0  0  0  0  0  0
   44.8220   33.4380   40.3910 O   0  0  0  0  0  0  0  0  0  0  0  0
   44.2310   34.9640   42.0150 N   0  0  0  0  0  0  0  0  0  0  0  0
   46.4180   35.8670   40.9160 H   0  0  0  0  0  0  0  0  0  0  0  0
   47.1150   33.0490   44.8800 H   0  0  0  0  0  0  0  0  0  0  0  0
   43.5720   35.6090   42.4480 H   0  0  0  0  0  0  0  0  0  0  0  0
   42.3260   34.8350   38.9980 C   0  0  0  0  0  3  0  0  0  0  0  0
   42.5860   34.2840   40.2400 C   0  0  0  0  0  0  0  0  0  0  0  0
   41.5190   33.7810   40.9350 C   0  0  0  0  0  0  0  0  0  0  0  0
   41.6710   33.3460   41.8990 H   0  0  0  0  0  0  0  0  0  0  0  0
   40.2200   33.8190   40.4240 C   0  0  0  0  0  0  0  0  0  0  0  0
   39.0160   33.4020   40.8950 N   0  0  0  0  0  0  0  0  0  0  0  0
   38.0650   33.6930   39.9660 C   0  0  0  0  0  0  0  0  0  0  0  0
   36.9910   33.4980   40.0170 H   0  0  0  0  0  0  0  0  0  0  0  0
   38.6580   34.2880   38.9180 N   0  0  0  0  0  0  0  0  0  0  0  0
   39.9740   34.3740   39.1780 C   0  0  0  0  0  0  0  0  0  0  0  0
   41.0500   34.8800   38.4770 C   0  0  0  0  0  3  0  0  0  0  0  0
   38.8400   32.9330   41.8180 H   0  0  0  0  0  0  0  0  0  0  0  0
   49.0420   35.5480   41.5460 C   0  0  0  0  0  0  0  0  0  0  0  0
   50.2210   34.8790   41.9060 F   0  0  0  0  0  0  0  0  0  0  0  0
   49.2020   36.8440   42.0100 F   0  0  0  0  0  0  0  0  0  0  0  0
   48.9180   35.4420   40.1960 F   0  0  0  0  0  0  0  0  0  0  0  0
  1  6  1  0  0  0  0
  2  3  1  0  0  0  0
  2  1  2  0  0  0  0
  3  4  2  0  0  0  0
  4  5  1  0  0  0  0
  5 11  1  0  0  0  0
  6  5  2  0  0  0  0
  7  9  1  0  0  0  0
  8  7  2  0  0  0  0
  9 12  1  0  0  0  0
  9  1  1  0  0  0  0
 10  2  1  0  0  0  0
 13 14  1  0  0  0  0
 14  7  1  0  0  0  0
 14 15  2  0  0  0  0
 15 16  1  0  0  0  0
 17 18  1  0  0  0  0
 17 15  1  0  0  0  0
 18 24  1  0  0  0  0
 19 20  1  0  0  0  0
 19 18  1  0  0  0  0
 21 22  1  0  0  0  0
 21 19  2  0  0  0  0
 22 17  2  0  0  0  0
 23 13  2  0  0  0  0
 23 22  1  0  0  0  0
 25 26  1  0  0  0  0
 25 27  1  0  0  0  0
 25  3  1  0  0  0  0
 28 25  1  0  0  0  0
M  END
>  <minimizedAffinity>
-6.38416672

>  <minimizedRMSD>
2.46302176

$$$$
