
 OpenBabel03252508593D

 48 51  0  0  1  0  0  0  0  0999 V2000
   47.1730   34.1570   43.0870 N   0  0  0  0  0  0  0  0  0  0  0  0
   46.6670   35.3430   42.4970 C   0  0  0  0  0  0  0  0  0  0  0  0
   45.1960   35.5950   42.7030 C   0  0  0  0  0  0  0  0  0  0  0  0
   44.6520   35.0860   44.0120 C   0  0  0  0  0  0  0  0  0  0  0  0
   45.7450   34.5210   44.8880 C   0  0  0  0  0  0  0  0  0  0  0  0
   46.4030   33.4210   43.9750 C   0  0  2  0  0  0  0  0  0  0  0  0
   46.8780   35.4820   41.4340 H   0  0  0  0  0  0  0  0  0  0  0  0
   47.1930   36.1970   43.0200 H   0  0  0  0  0  0  0  0  0  0  0  0
   45.0250   36.7060   42.6070 H   0  0  0  0  0  0  0  0  0  0  0  0
   44.6350   35.1320   41.8570 H   0  0  0  0  0  0  0  0  0  0  0  0
   44.1860   35.9220   44.5760 H   0  0  0  0  0  0  0  0  0  0  0  0
   43.9010   34.3040   43.8450 H   0  0  0  0  0  0  0  0  0  0  0  0
   45.3030   34.0010   45.7440 H   0  0  0  0  0  0  0  0  0  0  0  0
   46.5200   35.2460   45.1400 H   0  0  0  0  0  0  0  0  0  0  0  0
   45.5650   32.8090   43.5630 H   0  0  0  0  0  0  0  0  0  0  0  0
   48.1500   33.4750   42.2910 C   0  0  0  0  0  0  0  0  0  0  0  0
   48.7380   32.7850   42.9490 H   0  0  0  0  0  0  0  0  0  0  0  0
   48.8440   34.1930   41.8490 H   0  0  0  0  0  0  0  0  0  0  0  0
   47.4410   32.6040   41.2980 C   0  0  0  0  0  0  0  0  0  0  0  0
   46.3640   32.8730   41.2420 H   0  0  0  0  0  0  0  0  0  0  0  0
   47.4900   31.5220   41.5200 H   0  0  0  0  0  0  0  0  0  0  0  0
   49.3330   32.1380   38.0870 C   0  0  0  0  0  0  0  0  0  0  0  0
   48.8030   31.9130   39.3700 C   0  0  0  0  0  0  0  0  0  0  0  0
   47.9920   32.8610   39.9420 C   0  0  0  0  0  0  0  0  0  0  0  0
   47.7440   33.9720   39.2380 N   0  0  0  0  0  0  0  0  0  0  0  0
   48.2490   34.1900   38.0130 C   0  0  0  0  0  0  0  0  0  0  0  0
   49.0450   33.2830   37.4260 N   0  0  0  0  0  0  0  0  0  0  0  0
   49.9750   31.4260   37.5910 H   0  0  0  0  0  0  0  0  0  0  0  0
   49.0430   31.0050   39.8720 H   0  0  0  0  0  0  0  0  0  0  0  0
   47.9780   35.1280   37.5410 H   0  0  0  0  0  0  0  0  0  0  0  0
   47.1900   32.7370   44.8940 O   0  0  0  0  0  0  0  0  0  0  0  0
   45.9670   30.5690   43.9800 O   0  0  0  0  0  0  0  0  0  0  0  0
   46.6230   31.1800   45.2020 P   0  0  2  0  0  0  0  0  0  0  0  0
   45.3610   31.3570   46.3470 O   0  0  0  0  0  0  0  0  0  0  0  0
   45.7170   31.1830   47.2540 H   0  0  0  0  0  0  0  0  0  0  0  0
   47.8090   30.2220   45.8740 O   0  0  0  0  0  0  0  0  0  0  0  0
   48.3360   28.0950   44.9950 C   0  0  0  0  0  3  0  0  0  0  0  0
   47.7970   28.8640   46.0330 C   0  0  0  0  0  0  0  0  0  0  0  0
   47.2910   28.2070   47.1370 C   0  0  0  0  0  0  0  0  0  0  0  0
   46.8680   28.8000   47.9510 H   0  0  0  0  0  0  0  0  0  0  0  0
   47.3320   26.8100   47.1880 C   0  0  0  0  0  0  0  0  0  0  0  0
   46.9030   25.9560   48.1560 N   0  0  0  0  0  0  0  0  0  0  0  0
   47.1450   24.6830   47.7810 C   0  0  0  0  0  0  0  0  0  0  0  0
   46.8980   23.8120   48.3740 H   0  0  0  0  0  0  0  0  0  0  0  0
   47.7330   24.7480   46.5650 N   0  0  0  0  0  0  0  0  0  0  0  0
   47.8610   26.0410   46.1730 C   0  0  0  0  0  0  0  0  0  0  0  0
   48.3630   26.7080   45.0750 C   0  0  0  0  0  3  0  0  0  0  0  0
   46.4580   26.2800   49.0410 H   0  0  0  0  0  0  0  0  0  0  0  0
  1  6  1  0  0  0  0
  2  3  1  0  0  0  0
  2  8  1  0  0  0  0
  2  1  1  0  0  0  0
  3  4  1  0  0  0  0
  4 11  1  0  0  0  0
  4  5  1  0  0  0  0
  5 14  1  0  0  0  0
  5 13  1  0  0  0  0
  6 15  1  6  0  0  0
  6  5  1  0  0  0  0
  6 31  1  0  0  0  0
  7  2  1  0  0  0  0
  9  3  1  0  0  0  0
 10  3  1  0  0  0  0
 12  4  1  0  0  0  0
 16 17  1  0  0  0  0
 16  1  1  0  0  0  0
 18 16  1  0  0  0  0
 19 21  1  0  0  0  0
 19 16  1  0  0  0  0
 20 19  1  0  0  0  0
 22 23  1  0  0  0  0
 23 29  1  0  0  0  0
 23 24  2  0  0  0  0
 24 19  1  0  0  0  0
 25 24  1  0  0  0  0
 26 25  2  0  0  0  0
 27 26  1  0  0  0  0
 27 22  2  0  0  0  0
 28 22  1  0  0  0  0
 30 26  1  0  0  0  0
 31 33  1  0  0  0  0
 33 32  2  6  0  0  0
 33 36  1  0  0  0  0
 33 34  1  0  0  0  0
 34 35  1  0  0  0  0
 36 38  1  0  0  0  0
 37 47  2  0  0  0  0
 37 38  1  0  0  0  0
 38 39  2  0  0  0  0
 39 41  1  0  0  0  0
 39 40  1  0  0  0  0
 41 42  1  0  0  0  0
 42 48  1  0  0  0  0
 43 42  1  0  0  0  0
 43 44  1  0  0  0  0
 45 43  2  0  0  0  0
 46 45  1  0  0  0  0
 46 41  2  0  0  0  0
 47 46  1  0  0  0  0
M  END
>  <minimizedAffinity>
-4.13956738

>  <minimizedRMSD>
0.196880326

$$$$
