
 OpenBabel03252500273D

 46 49  0  0  1  0  0  0  0  0999 V2000
   44.8480   33.1250   47.8060 O   0  0  0  0  0  0  0  0  0  0  0  0
   46.0510   32.3150   47.4740 P   0  0  1  0  0  0  0  0  0  0  0  0
   47.4430   33.2130   47.8310 O   0  0  0  0  0  0  0  0  0  0  0  0
   47.3340   34.1650   47.5690 H   0  0  0  0  0  0  0  0  0  0  0  0
   46.0030   30.9620   48.4160 O   0  0  0  0  0  0  0  0  0  0  0  0
   48.3180   30.5420   48.0110 C   0  0  2  0  0  0  0  0  0  0  0  0
   46.9230   30.0440   47.9790 C   0  0  2  0  0  0  0  0  0  0  0  0
   46.6840   29.5930   46.6240 C   0  0  0  0  0  0  0  0  0  0  0  0
   47.9180   29.3090   46.0200 O   0  0  0  0  0  0  0  0  0  0  0  0
   48.8540   29.4660   46.9850 C   0  0  0  0  0  0  0  0  0  0  0  0
   48.5820   31.4010   47.3720 H   0  0  0  0  0  0  0  0  0  0  0  0
   46.9180   29.2690   48.7980 H   0  0  0  0  0  0  0  0  0  0  0  0
   45.8720   29.8880   45.9970 H   0  0  0  0  0  0  0  0  0  0  0  0
   46.3560   28.5020   46.7720 H   0  0  0  0  0  0  0  0  0  0  0  0
   48.8450   28.5410   47.6240 H   0  0  0  0  0  0  0  0  0  0  0  0
   49.8730   29.6990   46.6890 H   0  0  0  0  0  0  0  0  0  0  0  0
   49.0050   30.3840   49.1540 O   0  0  0  0  0  0  0  0  0  0  0  0
   49.6740   31.3090   49.7830 C   0  0  0  0  0  0  0  0  0  0  0  0
   49.2570   32.2610   49.9470 H   0  0  0  0  0  0  0  0  0  0  0  0
   50.5570   31.6520   49.0090 H   0  0  0  0  0  0  0  0  0  0  0  0
   50.4560   30.6550   50.9120 C   0  0  0  0  0  0  0  0  0  0  0  0
   50.6550   29.5970   50.6970 H   0  0  0  0  0  0  0  0  0  0  0  0
   49.9290   30.7820   51.8870 H   0  0  0  0  0  0  0  0  0  0  0  0
   51.4250   31.1840   51.0310 H   0  0  0  0  0  0  0  0  0  0  0  0
   45.9400   31.9660   45.8090 O   0  0  0  0  0  0  0  0  0  0  0  0
   45.7300   34.7790   43.5880 C   0  0  0  0  0  0  0  0  0  0  0  0
   46.9650   34.7660   42.9000 C   0  0  0  0  0  0  0  0  0  0  0  0
   47.8640   33.7340   43.2490 C   0  0  0  0  0  0  0  0  0  0  0  0
   47.5040   32.8440   44.1940 N   0  0  0  0  0  0  0  0  0  0  0  0
   46.3190   32.8940   44.8220 C   0  0  0  0  0  0  0  0  0  0  0  0
   45.4480   33.8610   44.5110 N   0  0  0  0  0  0  0  0  0  0  0  0
   47.2160   35.4990   42.1490 H   0  0  0  0  0  0  0  0  0  0  0  0
   48.8030   33.7150   42.7340 H   0  0  0  0  0  0  0  0  0  0  0  0
   44.8260   35.7570   43.2880 O   0  0  0  0  0  0  0  0  0  0  0  0
   45.3380   38.0490   42.7200 C   0  0  0  0  0  3  0  0  0  0  0  0
   44.9820   37.0830   43.6460 C   0  0  0  0  0  0  0  0  0  0  0  0
   44.7500   37.3340   44.9930 C   0  0  0  0  0  0  0  0  0  0  0  0
   44.4760   36.5800   45.6960 H   0  0  0  0  0  0  0  0  0  0  0  0
   44.8870   38.6450   45.4320 C   0  0  0  0  0  0  0  0  0  0  0  0
   44.7320   39.2000   46.6620 N   0  0  0  0  0  0  0  0  0  0  0  0
   44.9890   40.5190   46.5230 C   0  0  0  0  0  0  0  0  0  0  0  0
   44.9510   41.2420   47.3260 H   0  0  0  0  0  0  0  0  0  0  0  0
   45.2970   40.7920   45.2470 N   0  0  0  0  0  0  0  0  0  0  0  0
   45.2400   39.6420   44.5480 C   0  0  0  0  0  0  0  0  0  0  0  0
   45.4650   39.3490   43.2050 C   0  0  0  0  0  3  0  0  0  0  0  0
   44.4670   38.6480   47.4950 H   0  0  0  0  0  0  0  0  0  0  0  0
  2  1  2  1  0  0  0
  2  3  1  0  0  0  0
  2  5  1  0  0  0  0
  4  3  1  0  0  0  0
  6 11  1  6  0  0  0
  6 17  1  0  0  0  0
  7  6  1  0  0  0  0
  7  5  1  0  0  0  0
  7 12  1  1  0  0  0
  8 14  1  0  0  0  0
  8  7  1  0  0  0  0
  9  8  1  0  0  0  0
  9 10  1  0  0  0  0
 10 15  1  0  0  0  0
 10  6  1  0  0  0  0
 13  8  1  0  0  0  0
 16 10  1  0  0  0  0
 17 18  1  0  0  0  0
 18 19  1  0  0  0  0
 18 21  1  0  0  0  0
 20 18  1  0  0  0  0
 21 24  1  0  0  0  0
 21 23  1  0  0  0  0
 22 21  1  0  0  0  0
 25  2  1  0  0  0  0
 26 31  1  0  0  0  0
 27 28  1  0  0  0  0
 27 26  2  0  0  0  0
 28 29  2  0  0  0  0
 29 30  1  0  0  0  0
 30 25  1  0  0  0  0
 31 30  2  0  0  0  0
 32 27  1  0  0  0  0
 33 28  1  0  0  0  0
 34 26  1  0  0  0  0
 34 36  1  0  0  0  0
 35 45  2  0  0  0  0
 35 36  1  0  0  0  0
 36 37  2  0  0  0  0
 37 39  1  0  0  0  0
 37 38  1  0  0  0  0
 39 40  1  0  0  0  0
 40 46  1  0  0  0  0
 41 40  1  0  0  0  0
 41 42  1  0  0  0  0
 43 41  2  0  0  0  0
 44 43  1  0  0  0  0
 44 39  2  0  0  0  0
 45 44  1  0  0  0  0
M  END
>  <minimizedAffinity>
-3.03086638

>  <minimizedRMSD>
2.07173133

$$$$
