
 OpenBabel03252509083D

 44 48  0  0  0  0  0  0  0  0999 V2000
   47.7390   31.8770   38.9820 C   0  0  0  0  0  0  0  0  0  0  0  0
   47.2060   33.1300   38.8920 C   0  0  0  0  0  0  0  0  0  0  0  0
   47.7670   34.0520   38.0240 C   0  0  0  0  0  0  0  0  0  0  0  0
   48.8560   33.7140   37.2540 C   0  0  0  0  0  0  0  0  0  0  0  0
   49.4290   32.4470   37.3160 C   0  0  0  0  0  0  0  0  0  0  0  0
   48.8440   31.5330   38.2000 C   0  0  0  0  0  0  0  0  0  0  0  0
   47.3610   35.0550   37.9350 H   0  0  0  0  0  0  0  0  0  0  0  0
   49.3490   34.3610   36.5610 H   0  0  0  0  0  0  0  0  0  0  0  0
   50.2750   32.0960   36.7560 H   0  0  0  0  0  0  0  0  0  0  0  0
   49.2680   30.5330   38.2730 H   0  0  0  0  0  0  0  0  0  0  0  0
   45.2670   35.3100   43.1510 Cl  0  0  0  0  0  0  0  0  0  0  0  0
   45.1400   34.5580   41.5820 C   0  0  0  0  0  0  0  0  0  0  0  0
   46.2480   34.1680   40.9000 C   0  0  0  0  0  0  0  0  0  0  0  0
   46.0510   33.5830   39.6540 C   0  0  0  0  0  0  0  0  0  0  0  0
   44.7970   33.4090   39.1260 C   0  0  0  0  0  0  0  0  0  0  0  0
   43.6990   33.8050   39.8200 C   0  0  0  0  0  0  0  0  0  0  0  0
   43.8780   34.3850   41.0620 C   0  0  0  0  0  0  0  0  0  0  0  0
   44.7070   32.9500   38.1470 H   0  0  0  0  0  0  0  0  0  0  0  0
   42.7350   33.6480   39.3720 H   0  0  0  0  0  0  0  0  0  0  0  0
   42.9820   34.6870   41.5860 H   0  0  0  0  0  0  0  0  0  0  0  0
   49.5550   35.7300   41.8640 C   0  0  0  0  0  0  0  0  0  0  0  0
   48.2930   35.5360   41.2930 C   0  0  0  0  0  0  0  0  0  0  0  0
   47.5590   34.3780   41.4840 C   0  0  0  0  0  0  0  0  0  0  0  0
   48.1720   33.4790   42.2620 N   0  0  0  0  0  0  0  0  0  0  0  0
   49.3720   33.6450   42.8170 C   0  0  0  0  0  0  0  0  0  0  0  0
   50.0610   34.7590   42.6230 N   0  0  0  0  0  0  0  0  0  0  0  0
   50.0890   36.6500   41.6860 H   0  0  0  0  0  0  0  0  0  0  0  0
   47.8660   36.3270   40.6680 H   0  0  0  0  0  0  0  0  0  0  0  0
   49.6930   32.7920   43.4160 H   0  0  0  0  0  0  0  0  0  0  0  0
   47.1130   30.7180   40.0380 S   0  0  0  0  0  0  0  0  0  0  0  0
   47.4240   29.3060   39.4780 O   0  0  0  0  0  0  0  0  0  0  0  0
   47.9710   30.7870   41.3000 O   0  0  0  0  0  0  0  0  0  0  0  0
   44.9370   30.8210   41.7130 C   0  0  0  0  0  3  0  0  0  0  0  0
   45.4580   30.5260   40.4220 C   0  0  0  0  0  0  0  0  0  0  0  0
   44.3920   30.1550   39.6130 C   0  0  0  0  0  0  0  0  0  0  0  0
   44.6370   29.9310   38.5860 H   0  0  0  0  0  0  0  0  0  0  0  0
   43.0720   30.0660   39.9260 C   0  0  0  0  0  0  0  0  0  0  0  0
   41.9730   29.7250   39.2380 N   0  0  0  0  0  0  0  0  0  0  0  0
   40.9310   29.8310   40.1130 C   0  0  0  0  0  0  0  0  0  0  0  0
   39.9070   29.6150   39.8360 H   0  0  0  0  0  0  0  0  0  0  0  0
   41.4030   30.2370   41.3250 N   0  0  0  0  0  0  0  0  0  0  0  0
   42.7380   30.3880   41.2230 C   0  0  0  0  0  0  0  0  0  0  0  0
   43.6410   30.7790   42.1790 C   0  0  0  0  0  3  0  0  0  0  0  0
   41.9430   29.4410   38.2440 H   0  0  0  0  0  0  0  0  0  0  0  0
  1 30  1  0  0  0  0
  2  1  1  0  0  0  0
  2 14  1  0  0  0  0
  3  2  2  0  0  0  0
  4  5  2  0  0  0  0
  4  3  1  0  0  0  0
  5  6  1  0  0  0  0
  6 10  1  0  0  0  0
  6  1  2  0  0  0  0
  7  3  1  0  0  0  0
  8  4  1  0  0  0  0
  9  5  1  0  0  0  0
 12 11  1  0  0  0  0
 13 23  1  0  0  0  0
 13 12  2  0  0  0  0
 14 13  1  0  0  0  0
 15 14  2  0  0  0  0
 15 16  1  0  0  0  0
 16 17  2  0  0  0  0
 17 12  1  0  0  0  0
 17 20  1  0  0  0  0
 18 15  1  0  0  0  0
 19 16  1  0  0  0  0
 21 26  1  0  0  0  0
 22 23  1  0  0  0  0
 22 21  2  0  0  0  0
 23 24  2  0  0  0  0
 24 25  1  0  0  0  0
 25 29  1  0  0  0  0
 26 25  2  0  0  0  0
 27 21  1  0  0  0  0
 28 22  1  0  0  0  0
 30 34  1  0  0  0  0
 30 32  2  0  0  0  0
 31 30  2  0  0  0  0
 33 43  1  0  0  0  0
 34 33  2  0  0  0  0
 35 37  2  0  0  0  0
 35 34  1  0  0  0  0
 36 35  1  0  0  0  0
 37 42  1  0  0  0  0
 38 37  1  0  0  0  0
 38 39  1  0  0  0  0
 39 41  2  0  0  0  0
 40 39  1  0  0  0  0
 42 41  1  0  0  0  0
 42 43  2  0  0  0  0
 44 38  1  0  0  0  0
M  END
>  <minimizedAffinity>
-4.87310648

>  <minimizedRMSD>
1.09335434

$$$$
