
 OpenBabel03252509083D

 44 48  0  0  0  0  0  0  0  0999 V2000
   47.3900   32.2220   37.7330 C   0  0  0  0  0  0  0  0  0  0  0  0
   46.8080   32.3430   36.5050 C   0  0  0  0  0  0  0  0  0  0  0  0
   45.5040   32.8000   36.4060 C   0  0  0  0  0  0  0  0  0  0  0  0
   44.7940   33.1330   37.5360 C   0  0  0  0  0  0  0  0  0  0  0  0
   45.3510   33.0240   38.8070 C   0  0  0  0  0  0  0  0  0  0  0  0
   46.6680   32.5600   38.8810 C   0  0  0  0  0  0  0  0  0  0  0  0
   45.0200   32.9040   35.4400 H   0  0  0  0  0  0  0  0  0  0  0  0
   43.7880   33.4930   37.5520 H   0  0  0  0  0  0  0  0  0  0  0  0
   44.8740   33.2600   39.7410 H   0  0  0  0  0  0  0  0  0  0  0  0
   47.1350   32.4630   39.8600 H   0  0  0  0  0  0  0  0  0  0  0  0
   47.4870   29.1390   32.5140 Cl  0  0  0  0  0  0  0  0  0  0  0  0
   47.8150   30.5860   33.4320 C   0  0  0  0  0  0  0  0  0  0  0  0
   47.1530   30.8470   34.5890 C   0  0  0  0  0  0  0  0  0  0  0  0
   47.4750   32.0270   35.2500 C   0  0  0  0  0  0  0  0  0  0  0  0
   48.4140   32.8980   34.7600 C   0  0  0  0  0  0  0  0  0  0  0  0
   49.0680   32.6230   33.6020 C   0  0  0  0  0  0  0  0  0  0  0  0
   48.7620   31.4520   32.9340 C   0  0  0  0  0  0  0  0  0  0  0  0
   48.6210   33.8050   35.3190 H   0  0  0  0  0  0  0  0  0  0  0  0
   49.7980   33.3310   33.2540 H   0  0  0  0  0  0  0  0  0  0  0  0
   49.3010   31.2660   32.0160 H   0  0  0  0  0  0  0  0  0  0  0  0
   43.8890   29.0090   35.1140 C   0  0  0  0  0  0  0  0  0  0  0  0
   44.8400   29.9220   34.6460 C   0  0  0  0  0  0  0  0  0  0  0  0
   46.1580   29.9080   35.0710 C   0  0  0  0  0  0  0  0  0  0  0  0
   46.4220   28.9460   35.9610 N   0  0  0  0  0  0  0  0  0  0  0  0
   45.5320   28.0670   36.4190 C   0  0  0  0  0  0  0  0  0  0  0  0
   44.2750   28.0940   36.0020 N   0  0  0  0  0  0  0  0  0  0  0  0
   42.8740   29.0590   34.7530 H   0  0  0  0  0  0  0  0  0  0  0  0
   44.5350   30.6780   33.9160 H   0  0  0  0  0  0  0  0  0  0  0  0
   45.9500   27.3630   37.1410 H   0  0  0  0  0  0  0  0  0  0  0  0
   48.9670   31.6480   37.9180 S   0  0  0  0  0  0  0  0  0  0  0  0
   49.1010   30.2940   37.1720 O   0  0  0  0  0  0  0  0  0  0  0  0
   49.8570   32.5820   37.1010 O   0  0  0  0  0  0  0  0  0  0  0  0
   51.0190   31.6480   39.7450 C   0  0  0  0  0  3  0  0  0  0  0  0
   49.6980   31.2380   39.4070 C   0  0  0  0  0  0  0  0  0  0  0  0
   49.1750   30.5610   40.5020 C   0  0  0  0  0  0  0  0  0  0  0  0
   48.1590   30.2160   40.3980 H   0  0  0  0  0  0  0  0  0  0  0  0
   49.7570   30.2980   41.7020 C   0  0  0  0  0  0  0  0  0  0  0  0
   49.3560   29.6630   42.8120 N   0  0  0  0  0  0  0  0  0  0  0  0
   50.4010   29.7310   43.6860 C   0  0  0  0  0  0  0  0  0  0  0  0
   50.3670   29.2980   44.6790 H   0  0  0  0  0  0  0  0  0  0  0  0
   51.4310   30.4060   43.1030 N   0  0  0  0  0  0  0  0  0  0  0  0
   51.0410   30.7670   41.8640 C   0  0  0  0  0  0  0  0  0  0  0  0
   51.7380   31.4610   40.9050 C   0  0  0  0  0  3  0  0  0  0  0  0
   48.4330   29.2170   42.9560 H   0  0  0  0  0  0  0  0  0  0  0  0
  1 30  1  0  0  0  0
  1  6  1  0  0  0  0
  2  1  2  0  0  0  0
  3  2  1  0  0  0  0
  3  4  2  0  0  0  0
  4  8  1  0  0  0  0
  4  5  1  0  0  0  0
  5  6  2  0  0  0  0
  5  9  1  0  0  0  0
  6 10  1  0  0  0  0
  7  3  1  0  0  0  0
 11 12  1  0  0  0  0
 12 13  1  0  0  0  0
 13 23  1  0  0  0  0
 13 14  2  0  0  0  0
 14  2  1  0  0  0  0
 15 14  1  0  0  0  0
 15 18  1  0  0  0  0
 16 15  2  0  0  0  0
 17 12  2  0  0  0  0
 17 16  1  0  0  0  0
 19 16  1  0  0  0  0
 20 17  1  0  0  0  0
 21 26  1  0  0  0  0
 22 23  1  0  0  0  0
 22 21  2  0  0  0  0
 23 24  2  0  0  0  0
 24 25  1  0  0  0  0
 25 29  1  0  0  0  0
 26 25  2  0  0  0  0
 27 21  1  0  0  0  0
 28 22  1  0  0  0  0
 30 34  1  0  0  0  0
 31 30  2  0  0  0  0
 32 30  2  0  0  0  0
 33 43  1  0  0  0  0
 34 33  2  0  0  0  0
 34 35  1  0  0  0  0
 35 37  2  0  0  0  0
 36 35  1  0  0  0  0
 37 42  1  0  0  0  0
 37 38  1  0  0  0  0
 38 44  1  0  0  0  0
 38 39  1  0  0  0  0
 39 40  1  0  0  0  0
 41 39  2  0  0  0  0
 42 41  1  0  0  0  0
 43 42  2  0  0  0  0
M  END
>  <minimizedAffinity>
-3.88900352

>  <minimizedRMSD>
7.21337271

$$$$
