
 OpenBabel03242517493D

 46 50  0  0  0  0  0  0  0  0999 V2000
   39.8880   31.5250   39.0570 C   0  0  0  0  0  0  0  0  0  0  0  0
   39.0440   30.8320   39.9270 C   0  0  0  0  0  0  0  0  0  0  0  0
   38.3420   31.5690   40.8770 C   0  0  0  0  0  0  0  0  0  0  0  0
   38.5190   32.9050   40.8980 N   0  0  0  0  0  0  0  0  0  0  0  0
   39.3430   33.5460   40.0400 C   0  0  0  0  0  0  0  0  0  0  0  0
   40.0360   32.8920   39.1150 N   0  0  0  0  0  0  0  0  0  0  0  0
   40.4570   31.0020   38.3000 H   0  0  0  0  0  0  0  0  0  0  0  0
   37.6800   31.0840   41.5710 H   0  0  0  0  0  0  0  0  0  0  0  0
   39.4560   35.0230   40.1600 C   0  0  0  0  0  0  0  0  0  0  0  0
   39.3740   35.3380   41.2310 H   0  0  0  0  0  0  0  0  0  0  0  0
   38.6360   35.5390   39.6370 H   0  0  0  0  0  0  0  0  0  0  0  0
   40.8140   35.5180   39.6580 C   0  0  0  0  0  0  0  0  0  0  0  0
   40.6900   36.4560   39.0810 H   0  0  0  0  0  0  0  0  0  0  0  0
   41.2620   34.7430   39.0210 H   0  0  0  0  0  0  0  0  0  0  0  0
   41.4930   36.8150   41.7400 C   0  0  0  0  0  3  0  0  0  0  0  0
   41.6630   35.7640   40.8660 C   0  0  0  0  0  0  0  0  0  0  0  0
   42.6760   34.8700   41.1060 C   0  0  0  0  0  0  0  0  0  0  0  0
   42.8380   34.0190   40.4300 H   0  0  0  0  0  0  0  0  0  0  0  0
   43.5530   34.9420   42.1700 C   0  0  0  0  0  0  0  0  0  0  0  0
   44.5920   34.1660   42.5570 N   0  0  0  0  0  0  0  0  0  0  0  0
   45.0480   34.7670   43.6800 C   0  0  0  0  0  0  0  0  0  0  0  0
   45.9030   34.3270   44.2020 H   0  0  0  0  0  0  0  0  0  0  0  0
   44.3400   35.8660   43.9930 N   0  0  0  0  0  0  0  0  0  0  0  0
   43.3690   36.0130   43.0460 C   0  0  0  0  0  0  0  0  0  0  0  0
   42.3530   36.9290   42.8250 C   0  0  0  0  0  3  0  0  0  0  0  0
   44.9340   33.3130   42.0810 H   0  0  0  0  0  0  0  0  0  0  0  0
   38.8790   29.0660   39.8190 S   0  0  0  0  0  0  0  0  0  0  0  0
   38.3040   28.4200   41.3540 C   0  0  0  0  0  0  0  0  0  0  0  0
   39.0790   28.3530   42.5140 C   0  0  0  0  0  0  0  0  0  0  0  0
   38.5440   27.8260   43.6910 C   0  0  0  0  0  0  0  0  0  0  0  0
   37.2570   27.3650   43.7380 C   0  0  0  0  0  0  0  0  0  0  0  0
   36.4950   27.4300   42.5990 C   0  0  0  0  0  0  0  0  0  0  0  0
   36.9920   27.9460   41.4170 C   0  0  0  0  0  0  0  0  0  0  0  0
   40.0940   28.7190   42.4680 H   0  0  0  0  0  0  0  0  0  0  0  0
   39.1510   27.7770   44.5860 H   0  0  0  0  0  0  0  0  0  0  0  0
   36.7980   26.9480   44.6220 H   0  0  0  0  0  0  0  0  0  0  0  0
   35.4710   27.0670   42.6240 H   0  0  0  0  0  0  0  0  0  0  0  0
   36.1640   28.0050   40.2200 C   0  0  0  0  0  0  0  0  0  0  0  0
   35.2560   28.9890   39.9630 C   0  0  0  0  0  0  0  0  0  0  0  0
   34.4710   29.0290   38.8080 C   0  0  0  0  0  0  0  0  0  0  0  0
   34.6210   28.0390   37.9020 N   0  0  0  0  0  0  0  0  0  0  0  0
   35.5180   27.0680   38.1570 C   0  0  0  0  0  0  0  0  0  0  0  0
   36.2620   27.0520   39.2760 N   0  0  0  0  0  0  0  0  0  0  0  0
   35.1230   29.7900   40.6770 H   0  0  0  0  0  0  0  0  0  0  0  0
   33.7570   29.8190   38.6240 H   0  0  0  0  0  0  0  0  0  0  0  0
   35.7300   26.2210   37.5090 H   0  0  0  0  0  0  0  0  0  0  0  0
  1  6  2  0  0  0  0
  1  2  1  0  0  0  0
  2  3  2  0  0  0  0
  3  4  1  0  0  0  0
  3  8  1  0  0  0  0
  5  9  1  0  0  0  0
  5  4  2  0  0  0  0
  6  5  1  0  0  0  0
  7  1  1  0  0  0  0
  9 10  1  0  0  0  0
 11  9  1  0  0  0  0
 12  9  1  0  0  0  0
 12 16  1  0  0  0  0
 13 12  1  0  0  0  0
 14 12  1  0  0  0  0
 15 25  1  0  0  0  0
 16 17  1  0  0  0  0
 16 15  2  0  0  0  0
 17 19  2  0  0  0  0
 18 17  1  0  0  0  0
 19 20  1  0  0  0  0
 19 24  1  0  0  0  0
 20 21  1  0  0  0  0
 21 23  2  0  0  0  0
 21 22  1  0  0  0  0
 24 23  1  0  0  0  0
 25 24  2  0  0  0  0
 26 20  1  0  0  0  0
 27  2  1  0  0  0  0
 27 28  1  0  0  0  0
 28 33  2  0  0  0  0
 28 29  1  0  0  0  0
 29 30  2  0  0  0  0
 30 31  1  0  0  0  0
 30 35  1  0  0  0  0
 31 36  1  0  0  0  0
 32 37  1  0  0  0  0
 32 31  2  0  0  0  0
 33 32  1  0  0  0  0
 34 29  1  0  0  0  0
 38 33  1  0  0  0  0
 39 38  1  0  0  0  0
 39 44  1  0  0  0  0
 40 39  2  0  0  0  0
 41 42  2  0  0  0  0
 41 40  1  0  0  0  0
 42 43  1  0  0  0  0
 43 38  2  0  0  0  0
 45 40  1  0  0  0  0
 46 42  1  0  0  0  0
M  END
>  <minimizedAffinity>
-7.22439861

$$$$

 OpenBabel03242517493D

 46 50  0  0  0  0  0  0  0  0999 V2000
   36.3070   30.1980   41.4260 C   0  0  0  0  0  0  0  0  0  0  0  0
   36.9470   28.9840   41.1630 C   0  0  0  0  0  0  0  0  0  0  0  0
   37.8400   28.9360   40.0970 C   0  0  0  0  0  0  0  0  0  0  0  0
   38.0340   30.0640   39.3850 N   0  0  0  0  0  0  0  0  0  0  0  0
   37.4010   31.2240   39.6650 C   0  0  0  0  0  0  0  0  0  0  0  0
   36.5380   31.3240   40.6700 N   0  0  0  0  0  0  0  0  0  0  0  0
   35.6040   30.2910   42.2410 H   0  0  0  0  0  0  0  0  0  0  0  0
   38.3580   28.0280   39.8530 H   0  0  0  0  0  0  0  0  0  0  0  0
   37.6960   32.4010   38.8070 C   0  0  0  0  0  0  0  0  0  0  0  0
   36.9560   32.4730   37.9700 H   0  0  0  0  0  0  0  0  0  0  0  0
   38.6810   32.3170   38.3230 H   0  0  0  0  0  0  0  0  0  0  0  0
   37.5920   33.7050   39.6000 C   0  0  0  0  0  0  0  0  0  0  0  0
   36.9760   33.5520   40.5090 H   0  0  0  0  0  0  0  0  0  0  0  0
   37.1340   34.4740   38.9630 H   0  0  0  0  0  0  0  0  0  0  0  0
   40.1250   33.4510   39.5540 C   0  0  0  0  0  3  0  0  0  0  0  0
   38.9860   34.0970   39.9820 C   0  0  0  0  0  0  0  0  0  0  0  0
   39.1200   35.1780   40.8170 C   0  0  0  0  0  0  0  0  0  0  0  0
   38.2320   35.7170   41.1760 H   0  0  0  0  0  0  0  0  0  0  0  0
   40.3250   35.6770   41.2700 C   0  0  0  0  0  0  0  0  0  0  0  0
   40.6430   36.7130   42.0800 N   0  0  0  0  0  0  0  0  0  0  0  0
   41.9940   36.6810   42.1360 C   0  0  0  0  0  0  0  0  0  0  0  0
   42.5140   37.4310   42.7400 H   0  0  0  0  0  0  0  0  0  0  0  0
   42.5110   35.6810   41.4010 N   0  0  0  0  0  0  0  0  0  0  0  0
   41.4700   35.0120   40.8280 C   0  0  0  0  0  0  0  0  0  0  0  0
   41.3610   33.9180   39.9850 C   0  0  0  0  0  3  0  0  0  0  0  0
   39.9800   37.3620   42.5380 H   0  0  0  0  0  0  0  0  0  0  0  0
   36.6220   27.5520   42.1640 S   0  0  0  0  0  0  0  0  0  0  0  0
   38.1400   26.7970   42.6440 C   0  0  0  0  0  0  0  0  0  0  0  0
   38.9850   27.3010   43.6360 C   0  0  0  0  0  0  0  0  0  0  0  0
   40.1710   26.6380   43.9550 C   0  0  0  0  0  0  0  0  0  0  0  0
   40.5350   25.4880   43.3110 C   0  0  0  0  0  0  0  0  0  0  0  0
   39.7060   24.9920   42.3360 C   0  0  0  0  0  0  0  0  0  0  0  0
   38.5240   25.6210   41.9940 C   0  0  0  0  0  0  0  0  0  0  0  0
   38.6900   28.2090   44.1390 H   0  0  0  0  0  0  0  0  0  0  0  0
   40.8210   27.0350   44.7250 H   0  0  0  0  0  0  0  0  0  0  0  0
   41.4410   24.9390   43.5210 H   0  0  0  0  0  0  0  0  0  0  0  0
   39.9830   24.0780   41.8170 H   0  0  0  0  0  0  0  0  0  0  0  0
   37.6580   25.0760   40.9560 C   0  0  0  0  0  0  0  0  0  0  0  0
   36.6670   24.1700   41.1820 C   0  0  0  0  0  0  0  0  0  0  0  0
   35.8470   23.6590   40.1730 C   0  0  0  0  0  0  0  0  0  0  0  0
   36.0520   24.0870   38.9090 N   0  0  0  0  0  0  0  0  0  0  0  0
   37.0320   24.9830   38.6870 C   0  0  0  0  0  0  0  0  0  0  0  0
   37.8070   25.4600   39.6750 N   0  0  0  0  0  0  0  0  0  0  0  0
   36.4880   23.8150   42.1880 H   0  0  0  0  0  0  0  0  0  0  0  0
   35.0650   22.9390   40.3740 H   0  0  0  0  0  0  0  0  0  0  0  0
   37.2940   25.4030   37.7180 H   0  0  0  0  0  0  0  0  0  0  0  0
  1  7  1  0  0  0  0
  2  1  1  0  0  0  0
  2 27  1  0  0  0  0
  3  2  2  0  0  0  0
  4  5  2  0  0  0  0
  4  3  1  0  0  0  0
  5  6  1  0  0  0  0
  6  1  2  0  0  0  0
  8  3  1  0  0  0  0
  9 12  1  0  0  0  0
  9  5  1  0  0  0  0
 10  9  1  0  0  0  0
 11  9  1  0  0  0  0
 12 16  1  0  0  0  0
 12 13  1  0  0  0  0
 14 12  1  0  0  0  0
 15 16  2  0  0  0  0
 15 25  1  0  0  0  0
 16 17  1  0  0  0  0
 17 18  1  0  0  0  0
 17 19  2  0  0  0  0
 19 20  1  0  0  0  0
 20 21  1  0  0  0  0
 20 26  1  0  0  0  0
 21 22  1  0  0  0  0
 23 21  2  0  0  0  0
 24 19  1  0  0  0  0
 24 23  1  0  0  0  0
 25 24  2  0  0  0  0
 27 28  1  0  0  0  0
 28 29  1  0  0  0  0
 29 30  2  0  0  0  0
 29 34  1  0  0  0  0
 30 35  1  0  0  0  0
 31 36  1  0  0  0  0
 31 30  1  0  0  0  0
 32 31  2  0  0  0  0
 33 32  1  0  0  0  0
 33 28  2  0  0  0  0
 37 32  1  0  0  0  0
 38 39  1  0  0  0  0
 38 33  1  0  0  0  0
 39 44  1  0  0  0  0
 40 45  1  0  0  0  0
 40 39  2  0  0  0  0
 41 40  1  0  0  0  0
 42 41  2  0  0  0  0
 42 43  1  0  0  0  0
 43 38  2  0  0  0  0
 46 42  1  0  0  0  0
M  END
>  <minimizedAffinity>
-7.17031765

$$$$

 OpenBabel03242517493D

 46 50  0  0  0  0  0  0  0  0999 V2000
   37.7760   33.3470   40.3020 C   0  0  0  0  0  0  0  0  0  0  0  0
   37.9560   31.9940   40.5960 C   0  0  0  0  0  0  0  0  0  0  0  0
   39.2590   31.5150   40.6850 C   0  0  0  0  0  0  0  0  0  0  0  0
   40.2680   32.3860   40.4840 N   0  0  0  0  0  0  0  0  0  0  0  0
   40.0610   33.6910   40.2020 C   0  0  0  0  0  0  0  0  0  0  0  0
   38.8380   34.2000   40.1050 N   0  0  0  0  0  0  0  0  0  0  0  0
   36.7850   33.7720   40.2210 H   0  0  0  0  0  0  0  0  0  0  0  0
   39.4520   30.4820   40.9090 H   0  0  0  0  0  0  0  0  0  0  0  0
   41.2530   34.5540   39.9990 C   0  0  0  0  0  0  0  0  0  0  0  0
   41.4070   34.7640   38.9100 H   0  0  0  0  0  0  0  0  0  0  0  0
   42.1770   34.0610   40.3380 H   0  0  0  0  0  0  0  0  0  0  0  0
   41.0800   35.9100   40.6870 C   0  0  0  0  0  0  0  0  0  0  0  0
   40.0620   35.9910   41.1220 H   0  0  0  0  0  0  0  0  0  0  0  0
   41.2340   36.7070   39.9470 H   0  0  0  0  0  0  0  0  0  0  0  0
   42.1580   36.9670   42.7350 C   0  0  0  0  0  3  0  0  0  0  0  0
   42.1110   35.9870   41.7700 C   0  0  0  0  0  0  0  0  0  0  0  0
   43.0680   35.0040   41.7870 C   0  0  0  0  0  0  0  0  0  0  0  0
   43.0590   34.2050   41.0310 H   0  0  0  0  0  0  0  0  0  0  0  0
   44.0910   34.9180   42.7100 C   0  0  0  0  0  0  0  0  0  0  0  0
   45.1050   34.0370   42.8780 N   0  0  0  0  0  0  0  0  0  0  0  0
   45.7660   34.5030   43.9610 C   0  0  0  0  0  0  0  0  0  0  0  0
   46.6470   33.9580   44.3150 H   0  0  0  0  0  0  0  0  0  0  0  0
   45.2070   35.6200   44.4590 N   0  0  0  0  0  0  0  0  0  0  0  0
   44.1260   35.9190   43.6810 C   0  0  0  0  0  0  0  0  0  0  0  0
   43.1710   36.9230   43.6860 C   0  0  0  0  0  3  0  0  0  0  0  0
   45.3010   33.2070   42.2930 H   0  0  0  0  0  0  0  0  0  0  0  0
   36.5580   30.9250   40.8450 S   0  0  0  0  0  0  0  0  0  0  0  0
   36.5280   29.6740   39.6060 C   0  0  0  0  0  0  0  0  0  0  0  0
   36.1820   29.9020   38.2720 C   0  0  0  0  0  0  0  0  0  0  0  0
   36.1860   28.8510   37.3520 C   0  0  0  0  0  0  0  0  0  0  0  0
   36.5250   27.5820   37.7300 C   0  0  0  0  0  0  0  0  0  0  0  0
   36.8640   27.3560   39.0410 C   0  0  0  0  0  0  0  0  0  0  0  0
   36.8720   28.3720   39.9780 C   0  0  0  0  0  0  0  0  0  0  0  0
   35.9160   30.9070   37.9820 H   0  0  0  0  0  0  0  0  0  0  0  0
   35.9160   29.0360   36.3210 H   0  0  0  0  0  0  0  0  0  0  0  0
   36.5420   26.7370   37.0580 H   0  0  0  0  0  0  0  0  0  0  0  0
   37.1360   26.3510   39.3530 H   0  0  0  0  0  0  0  0  0  0  0  0
   37.2370   28.1090   41.3640 C   0  0  0  0  0  0  0  0  0  0  0  0
   38.5170   28.1000   41.8320 C   0  0  0  0  0  0  0  0  0  0  0  0
   38.8460   27.8460   43.1650 C   0  0  0  0  0  0  0  0  0  0  0  0
   37.8430   27.5960   44.0320 N   0  0  0  0  0  0  0  0  0  0  0  0
   36.5790   27.6050   43.5690 C   0  0  0  0  0  0  0  0  0  0  0  0
   36.2880   27.8530   42.2810 N   0  0  0  0  0  0  0  0  0  0  0  0
   39.3340   28.2990   41.1510 H   0  0  0  0  0  0  0  0  0  0  0  0
   39.8700   27.8440   43.5150 H   0  0  0  0  0  0  0  0  0  0  0  0
   35.6880   27.4190   44.1650 H   0  0  0  0  0  0  0  0  0  0  0  0
  1  2  1  0  0  0  0
  2  3  2  0  0  0  0
  2 27  1  0  0  0  0
  3  8  1  0  0  0  0
  4  3  1  0  0  0  0
  5  4  2  0  0  0  0
  6  5  1  0  0  0  0
  6  1  2  0  0  0  0
  7  1  1  0  0  0  0
  9  5  1  0  0  0  0
  9 11  1  0  0  0  0
  9 12  1  0  0  0  0
 10  9  1  0  0  0  0
 12 13  1  0  0  0  0
 12 16  1  0  0  0  0
 14 12  1  0  0  0  0
 15 25  1  0  0  0  0
 16 17  1  0  0  0  0
 16 15  2  0  0  0  0
 17 19  2  0  0  0  0
 18 17  1  0  0  0  0
 19 20  1  0  0  0  0
 19 24  1  0  0  0  0
 20 21  1  0  0  0  0
 21 22  1  0  0  0  0
 21 23  2  0  0  0  0
 24 25  2  0  0  0  0
 24 23  1  0  0  0  0
 26 20  1  0  0  0  0
 28 33  1  0  0  0  0
 28 27  1  0  0  0  0
 29 28  2  0  0  0  0
 30 31  2  0  0  0  0
 30 29  1  0  0  0  0
 31 32  1  0  0  0  0
 32 37  1  0  0  0  0
 32 33  2  0  0  0  0
 33 38  1  0  0  0  0
 34 29  1  0  0  0  0
 35 30  1  0  0  0  0
 36 31  1  0  0  0  0
 38 39  2  0  0  0  0
 38 43  1  0  0  0  0
 39 40  1  0  0  0  0
 40 45  1  0  0  0  0
 40 41  2  0  0  0  0
 42 41  1  0  0  0  0
 42 46  1  0  0  0  0
 43 42  2  0  0  0  0
 44 39  1  0  0  0  0
M  END
>  <minimizedAffinity>
-7.09356022

$$$$

 OpenBabel03242517493D

 46 50  0  0  0  0  0  0  0  0999 V2000
   39.0950   31.3100   39.3720 C   0  0  0  0  0  0  0  0  0  0  0  0
   38.1260   31.8700   40.2060 C   0  0  0  0  0  0  0  0  0  0  0  0
   38.3390   33.1640   40.6750 C   0  0  0  0  0  0  0  0  0  0  0  0
   39.4670   33.7960   40.2930 N   0  0  0  0  0  0  0  0  0  0  0  0
   40.3860   33.2270   39.4830 C   0  0  0  0  0  0  0  0  0  0  0  0
   40.2320   31.9950   39.0090 N   0  0  0  0  0  0  0  0  0  0  0  0
   38.9800   30.3090   38.9800 H   0  0  0  0  0  0  0  0  0  0  0  0
   37.6240   33.6410   41.3190 H   0  0  0  0  0  0  0  0  0  0  0  0
   41.5900   34.0220   39.1320 C   0  0  0  0  0  0  0  0  0  0  0  0
   41.5950   34.9940   39.6890 H   0  0  0  0  0  0  0  0  0  0  0  0
   41.6030   34.2940   38.0650 H   0  0  0  0  0  0  0  0  0  0  0  0
   42.8740   33.2870   39.5190 C   0  0  0  0  0  0  0  0  0  0  0  0
   43.5140   33.1380   38.6250 H   0  0  0  0  0  0  0  0  0  0  0  0
   42.6090   32.3130   39.9540 H   0  0  0  0  0  0  0  0  0  0  0  0
   44.9490   34.2920   40.5960 C   0  0  0  0  0  3  0  0  0  0  0  0
   43.5820   34.1400   40.5240 C   0  0  0  0  0  0  0  0  0  0  0  0
   42.7990   34.8120   41.4290 C   0  0  0  0  0  0  0  0  0  0  0  0
   41.7050   34.7150   41.3990 H   0  0  0  0  0  0  0  0  0  0  0  0
   43.2810   35.6410   42.4230 C   0  0  0  0  0  0  0  0  0  0  0  0
   42.6710   36.3720   43.3850 N   0  0  0  0  0  0  0  0  0  0  0  0
   43.6930   36.9660   44.0410 C   0  0  0  0  0  0  0  0  0  0  0  0
   43.4650   37.6260   44.8830 H   0  0  0  0  0  0  0  0  0  0  0  0
   44.8910   36.6360   43.5260 N   0  0  0  0  0  0  0  0  0  0  0  0
   44.6680   35.7850   42.4830 C   0  0  0  0  0  0  0  0  0  0  0  0
   45.4800   35.1160   41.5810 C   0  0  0  0  0  3  0  0  0  0  0  0
   41.6530   36.4380   43.5540 H   0  0  0  0  0  0  0  0  0  0  0  0
   36.6700   30.9530   40.6520 S   0  0  0  0  0  0  0  0  0  0  0  0
   36.4090   29.6440   39.5020 C   0  0  0  0  0  0  0  0  0  0  0  0
   35.8690   29.8200   38.2260 C   0  0  0  0  0  0  0  0  0  0  0  0
   35.6960   28.7260   37.3760 C   0  0  0  0  0  0  0  0  0  0  0  0
   36.0480   27.4640   37.7670 C   0  0  0  0  0  0  0  0  0  0  0  0
   36.5780   27.2900   39.0200 C   0  0  0  0  0  0  0  0  0  0  0  0
   36.7640   28.3490   39.8880 C   0  0  0  0  0  0  0  0  0  0  0  0
   35.5940   30.8200   37.9250 H   0  0  0  0  0  0  0  0  0  0  0  0
   35.2760   28.8710   36.3880 H   0  0  0  0  0  0  0  0  0  0  0  0
   35.9340   26.5870   37.1470 H   0  0  0  0  0  0  0  0  0  0  0  0
   36.8620   26.2910   39.3420 H   0  0  0  0  0  0  0  0  0  0  0  0
   37.3290   28.1410   41.2140 C   0  0  0  0  0  0  0  0  0  0  0  0
   36.5920   27.8890   42.3320 C   0  0  0  0  0  0  0  0  0  0  0  0
   37.1530   27.6910   43.5960 C   0  0  0  0  0  0  0  0  0  0  0  0
   38.4960   27.7540   43.7120 N   0  0  0  0  0  0  0  0  0  0  0  0
   39.2240   28.0030   42.6080 C   0  0  0  0  0  0  0  0  0  0  0  0
   38.6600   28.1900   41.4030 N   0  0  0  0  0  0  0  0  0  0  0  0
   35.5140   27.8340   42.2570 H   0  0  0  0  0  0  0  0  0  0  0  0
   36.5480   27.4920   44.4700 H   0  0  0  0  0  0  0  0  0  0  0  0
   40.3090   28.0780   42.5710 H   0  0  0  0  0  0  0  0  0  0  0  0
  1  2  1  0  0  0  0
  2 27  1  0  0  0  0
  2  3  2  0  0  0  0
  3  8  1  0  0  0  0
  4  3  1  0  0  0  0
  5  4  2  0  0  0  0
  6  1  2  0  0  0  0
  6  5  1  0  0  0  0
  7  1  1  0  0  0  0
  9  5  1  0  0  0  0
  9 12  1  0  0  0  0
  9 10  1  0  0  0  0
 11  9  1  0  0  0  0
 12 14  1  0  0  0  0
 12 16  1  0  0  0  0
 13 12  1  0  0  0  0
 15 25  1  0  0  0  0
 16 15  2  0  0  0  0
 16 17  1  0  0  0  0
 17 19  2  0  0  0  0
 18 17  1  0  0  0  0
 19 24  1  0  0  0  0
 19 20  1  0  0  0  0
 20 26  1  0  0  0  0
 20 21  1  0  0  0  0
 21 22  1  0  0  0  0
 23 21  2  0  0  0  0
 24 23  1  0  0  0  0
 25 24  2  0  0  0  0
 28 33  1  0  0  0  0
 28 27  1  0  0  0  0
 29 28  2  0  0  0  0
 30 31  2  0  0  0  0
 30 29  1  0  0  0  0
 31 32  1  0  0  0  0
 32 37  1  0  0  0  0
 32 33  2  0  0  0  0
 33 38  1  0  0  0  0
 34 29  1  0  0  0  0
 35 30  1  0  0  0  0
 36 31  1  0  0  0  0
 38 43  2  0  0  0  0
 38 39  1  0  0  0  0
 39 40  2  0  0  0  0
 40 41  1  0  0  0  0
 40 45  1  0  0  0  0
 42 41  2  0  0  0  0
 43 42  1  0  0  0  0
 44 39  1  0  0  0  0
 46 42  1  0  0  0  0
M  END
>  <minimizedAffinity>
-6.94895935

$$$$

 OpenBabel03242517493D

 46 50  0  0  0  0  0  0  0  0999 V2000
   38.6460   29.7390   42.2420 C   0  0  0  0  0  0  0  0  0  0  0  0
   37.3110   29.5180   41.8970 C   0  0  0  0  0  0  0  0  0  0  0  0
   36.7330   28.3070   42.2680 C   0  0  0  0  0  0  0  0  0  0  0  0
   37.4980   27.4230   42.9390 N   0  0  0  0  0  0  0  0  0  0  0  0
   38.7870   27.6660   43.2600 C   0  0  0  0  0  0  0  0  0  0  0  0
   39.3870   28.8040   42.9300 N   0  0  0  0  0  0  0  0  0  0  0  0
   39.1430   30.6610   41.9790 H   0  0  0  0  0  0  0  0  0  0  0  0
   35.7100   28.0880   42.0270 H   0  0  0  0  0  0  0  0  0  0  0  0
   39.5290   26.6130   44.0010 C   0  0  0  0  0  0  0  0  0  0  0  0
   38.8930   25.7000   44.1290 H   0  0  0  0  0  0  0  0  0  0  0  0
   39.7870   26.9370   45.0210 H   0  0  0  0  0  0  0  0  0  0  0  0
   40.7800   26.1750   43.2390 C   0  0  0  0  0  0  0  0  0  0  0  0
   41.3940   25.4970   43.8670 H   0  0  0  0  0  0  0  0  0  0  0  0
   41.3640   27.0670   42.9710 H   0  0  0  0  0  0  0  0  0  0  0  0
   40.7340   25.7500   40.7300 C   0  0  0  0  0  3  0  0  0  0  0  0
   40.3160   25.4590   42.0090 C   0  0  0  0  0  0  0  0  0  0  0  0
   39.4110   24.4430   42.1870 C   0  0  0  0  0  0  0  0  0  0  0  0
   39.0570   24.1830   43.1950 H   0  0  0  0  0  0  0  0  0  0  0  0
   38.8770   23.6770   41.1690 C   0  0  0  0  0  0  0  0  0  0  0  0
   37.9910   22.6550   41.1570 N   0  0  0  0  0  0  0  0  0  0  0  0
   37.8800   22.3340   39.8480 C   0  0  0  0  0  0  0  0  0  0  0  0
   37.2100   21.5180   39.5610 H   0  0  0  0  0  0  0  0  0  0  0  0
   38.6530   23.1080   39.0660 N   0  0  0  0  0  0  0  0  0  0  0  0
   39.3100   23.9850   39.8790 C   0  0  0  0  0  0  0  0  0  0  0  0
   40.2240   25.0060   39.6730 C   0  0  0  0  0  3  0  0  0  0  0  0
   37.5230   22.2370   41.9800 H   0  0  0  0  0  0  0  0  0  0  0  0
   36.3870   30.7500   41.0100 S   0  0  0  0  0  0  0  0  0  0  0  0
   36.5220   30.4710   39.2760 C   0  0  0  0  0  0  0  0  0  0  0  0
   35.8020   29.4970   38.5820 C   0  0  0  0  0  0  0  0  0  0  0  0
   35.9690   29.3430   37.2040 C   0  0  0  0  0  0  0  0  0  0  0  0
   36.8350   30.1360   36.5040 C   0  0  0  0  0  0  0  0  0  0  0  0
   37.5440   31.0940   37.1850 C   0  0  0  0  0  0  0  0  0  0  0  0
   37.4030   31.2740   38.5480 C   0  0  0  0  0  0  0  0  0  0  0  0
   35.1200   28.8750   39.1420 H   0  0  0  0  0  0  0  0  0  0  0  0
   35.4070   28.5850   36.6740 H   0  0  0  0  0  0  0  0  0  0  0  0
   37.0000   30.0570   35.4400 H   0  0  0  0  0  0  0  0  0  0  0  0
   38.2360   31.7310   36.6390 H   0  0  0  0  0  0  0  0  0  0  0  0
   38.1660   32.2980   39.2500 C   0  0  0  0  0  0  0  0  0  0  0  0
   37.6830   33.5320   39.5680 C   0  0  0  0  0  0  0  0  0  0  0  0
   38.4300   34.5010   40.2420 C   0  0  0  0  0  0  0  0  0  0  0  0
   39.6960   34.1960   40.5950 N   0  0  0  0  0  0  0  0  0  0  0  0
   40.1730   32.9770   40.2800 C   0  0  0  0  0  0  0  0  0  0  0  0
   39.4340   32.0620   39.6310 N   0  0  0  0  0  0  0  0  0  0  0  0
   36.6690   33.7940   39.2940 H   0  0  0  0  0  0  0  0  0  0  0  0
   38.0260   35.4740   40.4840 H   0  0  0  0  0  0  0  0  0  0  0  0
   41.1730   32.6130   40.5080 H   0  0  0  0  0  0  0  0  0  0  0  0
  1  6  1  0  0  0  0
  2  1  2  0  0  0  0
  2  3  1  0  0  0  0
  3  4  2  0  0  0  0
  4  5  1  0  0  0  0
  5  9  1  0  0  0  0
  6  5  2  0  0  0  0
  7  1  1  0  0  0  0
  8  3  1  0  0  0  0
  9 10  1  0  0  0  0
  9 11  1  0  0  0  0
 12 13  1  0  0  0  0
 12  9  1  0  0  0  0
 14 12  1  0  0  0  0
 15 16  1  0  0  0  0
 16 17  2  0  0  0  0
 16 12  1  0  0  0  0
 17 18  1  0  0  0  0
 19 17  1  0  0  0  0
 20 19  1  0  0  0  0
 20 26  1  0  0  0  0
 21 20  1  0  0  0  0
 22 21  1  0  0  0  0
 23 21  2  0  0  0  0
 23 24  1  0  0  0  0
 24 19  2  0  0  0  0
 25 24  1  0  0  0  0
 25 15  2  0  0  0  0
 27  2  1  0  0  0  0
 28 27  1  0  0  0  0
 29 34  1  0  0  0  0
 29 28  1  0  0  0  0
 30 29  2  0  0  0  0
 31 32  2  0  0  0  0
 31 30  1  0  0  0  0
 32 33  1  0  0  0  0
 33 38  1  0  0  0  0
 33 28  2  0  0  0  0
 35 30  1  0  0  0  0
 36 31  1  0  0  0  0
 37 32  1  0  0  0  0
 38 39  2  0  0  0  0
 38 43  1  0  0  0  0
 39 40  1  0  0  0  0
 40 45  1  0  0  0  0
 40 41  2  0  0  0  0
 42 46  1  0  0  0  0
 42 41  1  0  0  0  0
 43 42  2  0  0  0  0
 44 39  1  0  0  0  0
M  END
>  <minimizedAffinity>
-6.83383226

$$$$

 OpenBabel03242517493D

 46 50  0  0  0  0  0  0  0  0999 V2000
   37.1030   30.1550   40.3020 C   0  0  0  0  0  0  0  0  0  0  0  0
   38.1970   31.0230   40.3390 C   0  0  0  0  0  0  0  0  0  0  0  0
   38.9950   31.0170   41.4790 C   0  0  0  0  0  0  0  0  0  0  0  0
   38.6650   30.1720   42.4770 N   0  0  0  0  0  0  0  0  0  0  0  0
   37.6010   29.3430   42.4110 C   0  0  0  0  0  0  0  0  0  0  0  0
   36.8060   29.3090   41.3470 N   0  0  0  0  0  0  0  0  0  0  0  0
   36.4510   30.1190   39.4420 H   0  0  0  0  0  0  0  0  0  0  0  0
   39.8480   31.6650   41.5580 H   0  0  0  0  0  0  0  0  0  0  0  0
   37.3370   28.4580   43.5740 C   0  0  0  0  0  0  0  0  0  0  0  0
   36.3800   28.7460   44.0790 H   0  0  0  0  0  0  0  0  0  0  0  0
   38.1170   28.5520   44.3450 H   0  0  0  0  0  0  0  0  0  0  0  0
   37.1820   27.0000   43.1380 C   0  0  0  0  0  0  0  0  0  0  0  0
   36.6390   26.9450   42.1720 H   0  0  0  0  0  0  0  0  0  0  0  0
   36.6240   26.4540   43.9120 H   0  0  0  0  0  0  0  0  0  0  0  0
   38.9440   25.5630   41.9940 C   0  0  0  0  0  3  0  0  0  0  0  0
   38.5610   26.4390   42.9860 C   0  0  0  0  0  0  0  0  0  0  0  0
   39.4980   26.8350   43.9070 C   0  0  0  0  0  0  0  0  0  0  0  0
   39.2270   27.5340   44.7110 H   0  0  0  0  0  0  0  0  0  0  0  0
   40.8150   26.4190   43.9190 C   0  0  0  0  0  0  0  0  0  0  0  0
   41.8590   26.7000   44.7330 N   0  0  0  0  0  0  0  0  0  0  0  0
   42.8790   25.9790   44.2160 C   0  0  0  0  0  0  0  0  0  0  0  0
   43.8590   26.0300   44.7010 H   0  0  0  0  0  0  0  0  0  0  0  0
   42.5080   25.2750   43.1320 N   0  0  0  0  0  0  0  0  0  0  0  0
   41.1870   25.5320   42.9080 C   0  0  0  0  0  0  0  0  0  0  0  0
   40.2600   25.1170   41.9660 C   0  0  0  0  0  3  0  0  0  0  0  0
   41.8460   27.3280   45.5550 H   0  0  0  0  0  0  0  0  0  0  0  0
   38.5480   32.0990   38.9690 S   0  0  0  0  0  0  0  0  0  0  0  0
   39.3710   33.5490   39.5390 C   0  0  0  0  0  0  0  0  0  0  0  0
   38.7290   34.6170   40.1700 C   0  0  0  0  0  0  0  0  0  0  0  0
   39.4590   35.7300   40.5920 C   0  0  0  0  0  0  0  0  0  0  0  0
   40.8100   35.8040   40.4000 C   0  0  0  0  0  0  0  0  0  0  0  0
   41.4430   34.7560   39.7790 C   0  0  0  0  0  0  0  0  0  0  0  0
   40.7520   33.6380   39.3490 C   0  0  0  0  0  0  0  0  0  0  0  0
   37.6610   34.5500   40.3180 H   0  0  0  0  0  0  0  0  0  0  0  0
   38.9530   36.5530   41.0800 H   0  0  0  0  0  0  0  0  0  0  0  0
   41.4180   36.6420   40.7060 H   0  0  0  0  0  0  0  0  0  0  0  0
   42.5170   34.8030   39.6210 H   0  0  0  0  0  0  0  0  0  0  0  0
   41.4450   32.5370   38.6930 C   0  0  0  0  0  0  0  0  0  0  0  0
   41.6450   32.4490   37.3480 C   0  0  0  0  0  0  0  0  0  0  0  0
   42.3110   31.3840   36.7370 C   0  0  0  0  0  0  0  0  0  0  0  0
   42.7820   30.3930   37.5230 N   0  0  0  0  0  0  0  0  0  0  0  0
   42.5850   30.4810   38.8520 C   0  0  0  0  0  0  0  0  0  0  0  0
   41.9390   31.5160   39.4150 N   0  0  0  0  0  0  0  0  0  0  0  0
   41.2750   33.2340   36.7020 H   0  0  0  0  0  0  0  0  0  0  0  0
   42.4590   31.3350   35.6670 H   0  0  0  0  0  0  0  0  0  0  0  0
   42.9140   29.7510   39.5880 H   0  0  0  0  0  0  0  0  0  0  0  0
  1  2  2  0  0  0  0
  1  6  1  0  0  0  0
  2  3  1  0  0  0  0
  3  8  1  0  0  0  0
  3  4  2  0  0  0  0
  5  4  1  0  0  0  0
  5  9  1  0  0  0  0
  6  5  2  0  0  0  0
  7  1  1  0  0  0  0
  9 10  1  0  0  0  0
  9 11  1  0  0  0  0
 12  9  1  0  0  0  0
 12 14  1  0  0  0  0
 13 12  1  0  0  0  0
 15 16  1  0  0  0  0
 16 12  1  0  0  0  0
 16 17  2  0  0  0  0
 17 19  1  0  0  0  0
 17 18  1  0  0  0  0
 19 20  1  0  0  0  0
 20 26  1  0  0  0  0
 21 22  1  0  0  0  0
 21 20  1  0  0  0  0
 23 21  2  0  0  0  0
 24 23  1  0  0  0  0
 24 19  2  0  0  0  0
 25 15  2  0  0  0  0
 25 24  1  0  0  0  0
 27 28  1  0  0  0  0
 27  2  1  0  0  0  0
 28 29  1  0  0  0  0
 29 34  1  0  0  0  0
 29 30  2  0  0  0  0
 30 35  1  0  0  0  0
 31 30  1  0  0  0  0
 31 36  1  0  0  0  0
 32 31  2  0  0  0  0
 33 28  2  0  0  0  0
 33 32  1  0  0  0  0
 37 32  1  0  0  0  0
 38 33  1  0  0  0  0
 38 43  1  0  0  0  0
 39 38  2  0  0  0  0
 40 39  1  0  0  0  0
 40 41  2  0  0  0  0
 41 42  1  0  0  0  0
 42 43  2  0  0  0  0
 42 46  1  0  0  0  0
 44 39  1  0  0  0  0
 45 40  1  0  0  0  0
M  END
>  <minimizedAffinity>
-6.7885952

$$$$

 OpenBabel03242517493D

 46 50  0  0  0  0  0  0  0  0999 V2000
   39.2450   31.0410   37.9080 C   0  0  0  0  0  0  0  0  0  0  0  0
   39.5100   30.0640   38.8700 C   0  0  0  0  0  0  0  0  0  0  0  0
   40.4520   30.3550   39.8520 C   0  0  0  0  0  0  0  0  0  0  0  0
   41.0500   31.5630   39.8150 N   0  0  0  0  0  0  0  0  0  0  0  0
   40.7710   32.4880   38.8720 C   0  0  0  0  0  0  0  0  0  0  0  0
   39.8820   32.2610   37.9110 N   0  0  0  0  0  0  0  0  0  0  0  0
   38.5240   30.8670   37.1220 H   0  0  0  0  0  0  0  0  0  0  0  0
   40.6920   29.6380   40.6150 H   0  0  0  0  0  0  0  0  0  0  0  0
   41.4950   33.7840   38.9350 C   0  0  0  0  0  0  0  0  0  0  0  0
   41.7190   34.1600   37.9040 H   0  0  0  0  0  0  0  0  0  0  0  0
   42.4720   33.6820   39.4300 H   0  0  0  0  0  0  0  0  0  0  0  0
   40.6500   34.8590   39.6210 C   0  0  0  0  0  0  0  0  0  0  0  0
   39.7080   34.4180   40.0050 H   0  0  0  0  0  0  0  0  0  0  0  0
   40.4230   35.6510   38.8940 H   0  0  0  0  0  0  0  0  0  0  0  0
   41.2010   36.5790   41.4140 C   0  0  0  0  0  3  0  0  0  0  0  0
   41.4660   35.3990   40.7540 C   0  0  0  0  0  0  0  0  0  0  0  0
   42.5470   34.6550   41.1510 C   0  0  0  0  0  0  0  0  0  0  0  0
   42.7860   33.7080   40.6470 H   0  0  0  0  0  0  0  0  0  0  0  0
   43.4070   35.0000   42.1760 C   0  0  0  0  0  0  0  0  0  0  0  0
   44.5030   34.4010   42.6960 N   0  0  0  0  0  0  0  0  0  0  0  0
   44.8980   35.2390   43.6800 C   0  0  0  0  0  0  0  0  0  0  0  0
   45.7820   34.9800   44.2700 H   0  0  0  0  0  0  0  0  0  0  0  0
   44.0980   36.3150   43.7850 N   0  0  0  0  0  0  0  0  0  0  0  0
   43.1260   36.1980   42.8340 C   0  0  0  0  0  0  0  0  0  0  0  0
   42.0390   36.9680   42.4520 C   0  0  0  0  0  3  0  0  0  0  0  0
   44.9190   33.5050   42.3870 H   0  0  0  0  0  0  0  0  0  0  0  0
   38.6670   28.5000   38.8310 S   0  0  0  0  0  0  0  0  0  0  0  0
   36.9240   28.7570   38.8010 C   0  0  0  0  0  0  0  0  0  0  0  0
   36.1890   29.0020   37.6390 C   0  0  0  0  0  0  0  0  0  0  0  0
   34.8070   29.1940   37.7050 C   0  0  0  0  0  0  0  0  0  0  0  0
   34.1430   29.1480   38.8990 C   0  0  0  0  0  0  0  0  0  0  0  0
   34.8640   28.9080   40.0420 C   0  0  0  0  0  0  0  0  0  0  0  0
   36.2320   28.7120   40.0140 C   0  0  0  0  0  0  0  0  0  0  0  0
   36.7220   29.0370   36.7010 H   0  0  0  0  0  0  0  0  0  0  0  0
   34.2450   29.3840   36.8000 H   0  0  0  0  0  0  0  0  0  0  0  0
   33.0780   29.2910   39.0030 H   0  0  0  0  0  0  0  0  0  0  0  0
   34.3470   28.8680   40.9980 H   0  0  0  0  0  0  0  0  0  0  0  0
   36.9770   28.4580   41.2400 C   0  0  0  0  0  0  0  0  0  0  0  0
   37.4910   29.4320   42.0420 C   0  0  0  0  0  0  0  0  0  0  0  0
   38.2030   29.1680   43.2150 C   0  0  0  0  0  0  0  0  0  0  0  0
   38.3900   27.8790   43.5690 N   0  0  0  0  0  0  0  0  0  0  0  0
   37.8820   26.9170   42.7760 C   0  0  0  0  0  0  0  0  0  0  0  0
   37.2010   27.1970   41.6520 N   0  0  0  0  0  0  0  0  0  0  0  0
   37.3500   30.4710   41.7750 H   0  0  0  0  0  0  0  0  0  0  0  0
   38.6010   29.9580   43.8370 H   0  0  0  0  0  0  0  0  0  0  0  0
   37.9650   25.8470   42.9510 H   0  0  0  0  0  0  0  0  0  0  0  0
  1  6  2  0  0  0  0
  1  2  1  0  0  0  0
  2  3  2  0  0  0  0
  3  8  1  0  0  0  0
  4  3  1  0  0  0  0
  5  9  1  0  0  0  0
  5  4  2  0  0  0  0
  6  5  1  0  0  0  0
  7  1  1  0  0  0  0
  9 11  1  0  0  0  0
  9 12  1  0  0  0  0
 10  9  1  0  0  0  0
 12 13  1  0  0  0  0
 12 16  1  0  0  0  0
 14 12  1  0  0  0  0
 15 25  1  0  0  0  0
 16 17  1  0  0  0  0
 16 15  2  0  0  0  0
 17 19  2  0  0  0  0
 18 17  1  0  0  0  0
 19 20  1  0  0  0  0
 19 24  1  0  0  0  0
 20 21  1  0  0  0  0
 21 23  2  0  0  0  0
 21 22  1  0  0  0  0
 24 23  1  0  0  0  0
 25 24  2  0  0  0  0
 26 20  1  0  0  0  0
 27  2  1  0  0  0  0
 28 27  1  0  0  0  0
 28 33  1  0  0  0  0
 29 30  1  0  0  0  0
 29 28  2  0  0  0  0
 30 31  2  0  0  0  0
 31 36  1  0  0  0  0
 31 32  1  0  0  0  0
 32 37  1  0  0  0  0
 33 32  2  0  0  0  0
 33 38  1  0  0  0  0
 34 29  1  0  0  0  0
 35 30  1  0  0  0  0
 38 43  2  0  0  0  0
 38 39  1  0  0  0  0
 39 40  2  0  0  0  0
 40 41  1  0  0  0  0
 40 45  1  0  0  0  0
 42 46  1  0  0  0  0
 42 41  2  0  0  0  0
 43 42  1  0  0  0  0
 44 39  1  0  0  0  0
M  END
>  <minimizedAffinity>
-6.78780079

$$$$

 OpenBabel03242517493D

 46 50  0  0  0  0  0  0  0  0999 V2000
   38.8370   30.3320   40.1180 C   0  0  0  0  0  0  0  0  0  0  0  0
   39.8460   30.9530   40.8570 C   0  0  0  0  0  0  0  0  0  0  0  0
   39.8670   30.7480   42.2330 C   0  0  0  0  0  0  0  0  0  0  0  0
   38.9120   29.9620   42.7690 N   0  0  0  0  0  0  0  0  0  0  0  0
   37.9490   29.3730   42.0270 C   0  0  0  0  0  0  0  0  0  0  0  0
   37.8830   29.5360   40.7100 N   0  0  0  0  0  0  0  0  0  0  0  0
   38.7740   30.4570   39.0470 H   0  0  0  0  0  0  0  0  0  0  0  0
   40.6220   31.2030   42.8470 H   0  0  0  0  0  0  0  0  0  0  0  0
   36.9500   28.5280   42.7300 C   0  0  0  0  0  0  0  0  0  0  0  0
   36.4030   27.8760   42.0010 H   0  0  0  0  0  0  0  0  0  0  0  0
   36.1750   29.1350   43.2220 H   0  0  0  0  0  0  0  0  0  0  0  0
   37.6230   27.5930   43.7360 C   0  0  0  0  0  0  0  0  0  0  0  0
   36.9110   27.3180   44.5400 H   0  0  0  0  0  0  0  0  0  0  0  0
   38.4960   28.1030   44.1680 H   0  0  0  0  0  0  0  0  0  0  0  0
   39.3230   25.8520   42.9870 C   0  0  0  0  0  3  0  0  0  0  0  0
   38.0460   26.3700   42.9820 C   0  0  0  0  0  0  0  0  0  0  0  0
   37.0830   25.7330   42.2420 C   0  0  0  0  0  0  0  0  0  0  0  0
   36.0540   26.1190   42.2170 H   0  0  0  0  0  0  0  0  0  0  0  0
   37.2950   24.5960   41.4870 C   0  0  0  0  0  0  0  0  0  0  0  0
   36.4810   23.8460   40.7090 N   0  0  0  0  0  0  0  0  0  0  0  0
   37.2870   22.8660   40.2420 C   0  0  0  0  0  0  0  0  0  0  0  0
   36.8640   22.1090   39.5750 H   0  0  0  0  0  0  0  0  0  0  0  0
   38.5470   22.9820   40.6970 N   0  0  0  0  0  0  0  0  0  0  0  0
   38.5930   24.0830   41.5010 C   0  0  0  0  0  0  0  0  0  0  0  0
   39.5830   24.7090   42.2420 C   0  0  0  0  0  3  0  0  0  0  0  0
   35.4750   24.0120   40.5320 H   0  0  0  0  0  0  0  0  0  0  0  0
   41.0610   31.9730   40.0550 S   0  0  0  0  0  0  0  0  0  0  0  0
   40.5200   33.6490   40.0330 C   0  0  0  0  0  0  0  0  0  0  0  0
   39.2290   34.0590   40.3720 C   0  0  0  0  0  0  0  0  0  0  0  0
   38.8830   35.4110   40.3290 C   0  0  0  0  0  0  0  0  0  0  0  0
   39.7920   36.3620   39.9560 C   0  0  0  0  0  0  0  0  0  0  0  0
   41.0620   35.9610   39.6220 C   0  0  0  0  0  0  0  0  0  0  0  0
   41.4390   34.6310   39.6540 C   0  0  0  0  0  0  0  0  0  0  0  0
   38.5180   33.3020   40.6660 H   0  0  0  0  0  0  0  0  0  0  0  0
   37.8800   35.7200   40.5930 H   0  0  0  0  0  0  0  0  0  0  0  0
   39.5740   37.4180   39.9060 H   0  0  0  0  0  0  0  0  0  0  0  0
   41.7930   36.7070   39.3240 H   0  0  0  0  0  0  0  0  0  0  0  0
   42.7920   34.2290   39.2960 C   0  0  0  0  0  0  0  0  0  0  0  0
   43.8200   34.1190   40.1840 C   0  0  0  0  0  0  0  0  0  0  0  0
   45.1120   33.7310   39.8210 C   0  0  0  0  0  0  0  0  0  0  0  0
   45.3510   33.4510   38.5220 N   0  0  0  0  0  0  0  0  0  0  0  0
   44.3350   33.5600   37.6460 C   0  0  0  0  0  0  0  0  0  0  0  0
   43.1010   33.9360   38.0200 N   0  0  0  0  0  0  0  0  0  0  0  0
   43.6470   34.3380   41.2290 H   0  0  0  0  0  0  0  0  0  0  0  0
   45.9140   33.6500   40.5420 H   0  0  0  0  0  0  0  0  0  0  0  0
   44.4000   33.3640   36.5780 H   0  0  0  0  0  0  0  0  0  0  0  0
  1  6  2  0  0  0  0
  1  2  1  0  0  0  0
  2  3  2  0  0  0  0
  3  4  1  0  0  0  0
  3  8  1  0  0  0  0
  5  9  1  0  0  0  0
  5  4  2  0  0  0  0
  6  5  1  0  0  0  0
  7  1  1  0  0  0  0
  9 11  1  0  0  0  0
  9 12  1  0  0  0  0
 10  9  1  0  0  0  0
 12 14  1  0  0  0  0
 12 13  1  0  0  0  0
 16 15  1  0  0  0  0
 16 12  1  0  0  0  0
 17 16  2  0  0  0  0
 18 17  1  0  0  0  0
 19 24  2  0  0  0  0
 19 17  1  0  0  0  0
 20 19  1  0  0  0  0
 21 23  2  0  0  0  0
 21 20  1  0  0  0  0
 22 21  1  0  0  0  0
 23 24  1  0  0  0  0
 24 25  1  0  0  0  0
 25 15  2  0  0  0  0
 26 20  1  0  0  0  0
 27  2  1  0  0  0  0
 28 27  1  0  0  0  0
 28 29  1  0  0  0  0
 29 34  1  0  0  0  0
 30 29  2  0  0  0  0
 30 35  1  0  0  0  0
 31 30  1  0  0  0  0
 32 33  1  0  0  0  0
 32 31  2  0  0  0  0
 33 28  2  0  0  0  0
 36 31  1  0  0  0  0
 37 32  1  0  0  0  0
 38 33  1  0  0  0  0
 38 39  1  0  0  0  0
 39 44  1  0  0  0  0
 40 39  2  0  0  0  0
 40 45  1  0  0  0  0
 41 40  1  0  0  0  0
 42 43  1  0  0  0  0
 42 41  2  0  0  0  0
 43 38  2  0  0  0  0
 46 42  1  0  0  0  0
M  END
>  <minimizedAffinity>
-6.77545881

$$$$

 OpenBabel03242517493D

 46 50  0  0  0  0  0  0  0  0999 V2000
   39.2700   31.4350   41.2890 C   0  0  0  0  0  0  0  0  0  0  0  0
   39.4940   30.7390   40.1000 C   0  0  0  0  0  0  0  0  0  0  0  0
   39.7060   31.4800   38.9410 C   0  0  0  0  0  0  0  0  0  0  0  0
   39.6840   32.8240   39.0380 N   0  0  0  0  0  0  0  0  0  0  0  0
   39.4660   33.4690   40.2050 C   0  0  0  0  0  0  0  0  0  0  0  0
   39.2570   32.8110   41.3390 N   0  0  0  0  0  0  0  0  0  0  0  0
   39.0990   30.9090   42.2180 H   0  0  0  0  0  0  0  0  0  0  0  0
   39.8830   30.9930   38.0000 H   0  0  0  0  0  0  0  0  0  0  0  0
   39.4640   34.9550   40.1870 C   0  0  0  0  0  0  0  0  0  0  0  0
   39.3240   35.3600   41.2220 H   0  0  0  0  0  0  0  0  0  0  0  0
   38.6250   35.3550   39.5980 H   0  0  0  0  0  0  0  0  0  0  0  0
   40.7960   35.5050   39.6760 C   0  0  0  0  0  0  0  0  0  0  0  0
   40.6310   36.4490   39.1170 H   0  0  0  0  0  0  0  0  0  0  0  0
   41.2610   34.7580   39.0170 H   0  0  0  0  0  0  0  0  0  0  0  0
   41.4880   36.8140   41.7460 C   0  0  0  0  0  3  0  0  0  0  0  0
   41.6540   35.7600   40.8760 C   0  0  0  0  0  0  0  0  0  0  0  0
   42.6730   34.8710   41.1100 C   0  0  0  0  0  0  0  0  0  0  0  0
   42.8330   34.0180   40.4360 H   0  0  0  0  0  0  0  0  0  0  0  0
   43.5590   34.9510   42.1670 C   0  0  0  0  0  0  0  0  0  0  0  0
   44.6030   34.1800   42.5490 N   0  0  0  0  0  0  0  0  0  0  0  0
   45.0660   34.7870   43.6650 C   0  0  0  0  0  0  0  0  0  0  0  0
   45.9280   34.3530   44.1820 H   0  0  0  0  0  0  0  0  0  0  0  0
   44.3570   35.8850   43.9800 N   0  0  0  0  0  0  0  0  0  0  0  0
   43.3780   36.0240   43.0400 C   0  0  0  0  0  0  0  0  0  0  0  0
   42.3560   36.9350   42.8240 C   0  0  0  0  0  3  0  0  0  0  0  0
   44.9450   33.3270   42.0730 H   0  0  0  0  0  0  0  0  0  0  0  0
   39.5040   28.9610   40.0760 S   0  0  0  0  0  0  0  0  0  0  0  0
   38.5270   28.3370   41.4030 C   0  0  0  0  0  0  0  0  0  0  0  0
   37.1320   28.2880   41.3910 C   0  0  0  0  0  0  0  0  0  0  0  0
   36.4340   27.7760   42.4870 C   0  0  0  0  0  0  0  0  0  0  0  0
   37.0930   27.3110   43.5910 C   0  0  0  0  0  0  0  0  0  0  0  0
   38.4650   27.3590   43.6040 C   0  0  0  0  0  0  0  0  0  0  0  0
   39.1880   27.8590   42.5370 C   0  0  0  0  0  0  0  0  0  0  0  0
   36.6190   28.6570   40.5150 H   0  0  0  0  0  0  0  0  0  0  0  0
   35.3520   27.7420   42.4700 H   0  0  0  0  0  0  0  0  0  0  0  0
   36.6010   26.9060   44.4620 H   0  0  0  0  0  0  0  0  0  0  0  0
   39.0010   26.9920   44.4750 H   0  0  0  0  0  0  0  0  0  0  0  0
   40.6440   27.8990   42.5730 C   0  0  0  0  0  0  0  0  0  0  0  0
   41.4490   26.8540   42.2300 C   0  0  0  0  0  0  0  0  0  0  0  0
   42.8440   26.9110   42.2710 C   0  0  0  0  0  0  0  0  0  0  0  0
   43.4210   28.0640   42.6720 N   0  0  0  0  0  0  0  0  0  0  0  0
   42.6260   29.0950   43.0100 C   0  0  0  0  0  0  0  0  0  0  0  0
   41.2860   29.0150   42.9620 N   0  0  0  0  0  0  0  0  0  0  0  0
   41.0030   25.9220   41.9060 H   0  0  0  0  0  0  0  0  0  0  0  0
   43.4630   26.0690   41.9940 H   0  0  0  0  0  0  0  0  0  0  0  0
   42.9680   30.0710   43.3470 H   0  0  0  0  0  0  0  0  0  0  0  0
  1  6  1  0  0  0  0
  1  7  1  0  0  0  0
  2  1  2  0  0  0  0
  3  4  2  0  0  0  0
  3  2  1  0  0  0  0
  4  5  1  0  0  0  0
  5  6  2  0  0  0  0
  8  3  1  0  0  0  0
  9  5  1  0  0  0  0
  9 10  1  0  0  0  0
 11  9  1  0  0  0  0
 12  9  1  0  0  0  0
 12 16  1  0  0  0  0
 13 12  1  0  0  0  0
 14 12  1  0  0  0  0
 15 25  1  0  0  0  0
 16 17  1  0  0  0  0
 16 15  2  0  0  0  0
 17 19  2  0  0  0  0
 18 17  1  0  0  0  0
 19 20  1  0  0  0  0
 19 24  1  0  0  0  0
 20 21  1  0  0  0  0
 21 23  2  0  0  0  0
 21 22  1  0  0  0  0
 24 23  1  0  0  0  0
 25 24  2  0  0  0  0
 26 20  1  0  0  0  0
 27  2  1  0  0  0  0
 27 28  1  0  0  0  0
 28 33  1  0  0  0  0
 29 28  2  0  0  0  0
 29 30  1  0  0  0  0
 30 31  2  0  0  0  0
 31 32  1  0  0  0  0
 31 36  1  0  0  0  0
 32 37  1  0  0  0  0
 33 38  1  0  0  0  0
 33 32  2  0  0  0  0
 34 29  1  0  0  0  0
 35 30  1  0  0  0  0
 38 43  1  0  0  0  0
 39 40  1  0  0  0  0
 39 38  2  0  0  0  0
 40 41  2  0  0  0  0
 41 42  1  0  0  0  0
 42 46  1  0  0  0  0
 43 42  2  0  0  0  0
 44 39  1  0  0  0  0
 45 40  1  0  0  0  0
M  END
>  <minimizedAffinity>
-6.72471714

$$$$
