
 OpenBabel03252508593D

 48 51  0  0  1  0  0  0  0  0999 V2000
   46.6460   34.5630   43.5230 N   0  0  0  0  0  0  0  0  0  0  0  0
   46.1290   35.5650   42.6630 C   0  0  0  0  0  0  0  0  0  0  0  0
   44.6300   35.7210   42.6740 C   0  0  0  0  0  0  0  0  0  0  0  0
   43.9810   35.4240   44.0000 C   0  0  0  0  0  0  0  0  0  0  0  0
   45.0060   35.1350   45.0710 C   0  0  0  0  0  0  0  0  0  0  0  0
   45.8340   33.9440   44.4620 C   0  0  2  0  0  0  0  0  0  0  0  0
   46.4470   35.5180   41.6190 H   0  0  0  0  0  0  0  0  0  0  0  0
   46.5340   36.5460   43.0540 H   0  0  0  0  0  0  0  0  0  0  0  0
   44.3960   36.7740   42.3430 H   0  0  0  0  0  0  0  0  0  0  0  0
   44.2000   35.0580   41.8870 H   0  0  0  0  0  0  0  0  0  0  0  0
   43.3990   36.3070   44.3390 H   0  0  0  0  0  0  0  0  0  0  0  0
   43.3080   34.5610   43.9200 H   0  0  0  0  0  0  0  0  0  0  0  0
   44.5090   34.7510   45.9670 H   0  0  0  0  0  0  0  0  0  0  0  0
   45.6970   35.9610   45.2460 H   0  0  0  0  0  0  0  0  0  0  0  0
   45.0910   33.1940   44.1010 H   0  0  0  0  0  0  0  0  0  0  0  0
   47.7500   33.8310   42.9750 C   0  0  0  0  0  0  0  0  0  0  0  0
   48.3080   33.3350   43.8090 H   0  0  0  0  0  0  0  0  0  0  0  0
   48.4370   34.5100   42.4660 H   0  0  0  0  0  0  0  0  0  0  0  0
   47.2170   32.7260   42.1130 C   0  0  0  0  0  0  0  0  0  0  0  0
   46.1130   32.8100   42.0100 H   0  0  0  0  0  0  0  0  0  0  0  0
   47.4260   31.7080   42.4920 H   0  0  0  0  0  0  0  0  0  0  0  0
   49.0590   31.9770   38.9270 C   0  0  0  0  0  0  0  0  0  0  0  0
   48.5330   31.8570   40.2260 C   0  0  0  0  0  0  0  0  0  0  0  0
   47.7630   32.8710   40.7390 C   0  0  0  0  0  0  0  0  0  0  0  0
   47.5480   33.9400   39.9640 N   0  0  0  0  0  0  0  0  0  0  0  0
   48.0490   34.0570   38.7230 C   0  0  0  0  0  0  0  0  0  0  0  0
   48.8050   33.0840   38.1930 N   0  0  0  0  0  0  0  0  0  0  0  0
   49.6700   31.2100   38.4760 H   0  0  0  0  0  0  0  0  0  0  0  0
   48.7450   30.9780   40.7870 H   0  0  0  0  0  0  0  0  0  0  0  0
   47.8070   34.9700   38.1900 H   0  0  0  0  0  0  0  0  0  0  0  0
   46.5590   33.5200   45.5690 O   0  0  0  0  0  0  0  0  0  0  0  0
   45.6330   31.1470   44.8320 O   0  0  0  0  0  0  0  0  0  0  0  0
   46.2220   31.9240   45.9920 P   0  0  2  0  0  0  0  0  0  0  0  0
   44.9740   32.0010   47.1620 O   0  0  0  0  0  0  0  0  0  0  0  0
   45.3700   31.9400   48.0670 H   0  0  0  0  0  0  0  0  0  0  0  0
   47.5450   31.1860   46.6860 O   0  0  0  0  0  0  0  0  0  0  0  0
   48.9860   29.3400   46.9880 C   0  0  0  0  0  3  0  0  0  0  0  0
   47.6900   29.8680   47.0160 C   0  0  0  0  0  0  0  0  0  0  0  0
   46.6510   29.0280   47.3710 C   0  0  0  0  0  0  0  0  0  0  0  0
   45.6370   29.4310   47.3960 H   0  0  0  0  0  0  0  0  0  0  0  0
   46.9200   27.6930   47.6880 C   0  0  0  0  0  0  0  0  0  0  0  0
   46.0760   26.6940   48.0610 N   0  0  0  0  0  0  0  0  0  0  0  0
   46.7760   25.5600   48.2690 C   0  0  0  0  0  0  0  0  0  0  0  0
   46.3380   24.6170   48.5750 H   0  0  0  0  0  0  0  0  0  0  0  0
   48.0700   25.8580   48.0230 N   0  0  0  0  0  0  0  0  0  0  0  0
   48.1920   27.1610   47.6640 C   0  0  0  0  0  0  0  0  0  0  0  0
   49.2210   28.0080   47.3080 C   0  0  0  0  0  3  0  0  0  0  0  0
   45.0470   26.8290   48.1580 H   0  0  0  0  0  0  0  0  0  0  0  0
  1  6  1  0  0  0  0
  2  3  1  0  0  0  0
  2  8  1  0  0  0  0
  2  1  1  0  0  0  0
  3  4  1  0  0  0  0
  4 11  1  0  0  0  0
  4  5  1  0  0  0  0
  5 14  1  0  0  0  0
  5 13  1  0  0  0  0
  6 15  1  6  0  0  0
  6  5  1  0  0  0  0
  6 31  1  0  0  0  0
  7  2  1  0  0  0  0
  9  3  1  0  0  0  0
 10  3  1  0  0  0  0
 12  4  1  0  0  0  0
 16  1  1  0  0  0  0
 16 17  1  0  0  0  0
 18 16  1  0  0  0  0
 19 21  1  0  0  0  0
 19 16  1  0  0  0  0
 20 19  1  0  0  0  0
 22 23  1  0  0  0  0
 23 24  2  0  0  0  0
 23 29  1  0  0  0  0
 24 19  1  0  0  0  0
 25 24  1  0  0  0  0
 26 25  2  0  0  0  0
 27 26  1  0  0  0  0
 27 22  2  0  0  0  0
 28 22  1  0  0  0  0
 30 26  1  0  0  0  0
 31 33  1  0  0  0  0
 33 32  2  6  0  0  0
 33 36  1  0  0  0  0
 33 34  1  0  0  0  0
 34 35  1  0  0  0  0
 36 38  1  0  0  0  0
 37 38  2  0  0  0  0
 37 47  1  0  0  0  0
 38 39  1  0  0  0  0
 39 40  1  0  0  0  0
 39 41  2  0  0  0  0
 41 42  1  0  0  0  0
 42 48  1  0  0  0  0
 42 43  1  0  0  0  0
 43 44  1  0  0  0  0
 45 43  2  0  0  0  0
 46 41  1  0  0  0  0
 46 45  1  0  0  0  0
 47 46  2  0  0  0  0
M  END
>  <minimizedAffinity>
-4.71741486

>  <minimizedRMSD>
1.37225902

$$$$
