
 OpenBabel03252509003D

 48 51  0  0  1  0  0  0  0  0999 V2000
   46.9380   34.3730   43.2940 N   0  0  0  0  0  0  0  0  0  0  0  0
   46.4380   35.5030   42.5990 C   0  0  0  0  0  0  0  0  0  0  0  0
   44.9540   35.7350   42.7190 C   0  0  0  0  0  0  0  0  0  0  0  0
   44.3590   35.3050   44.0340 C   0  0  0  0  0  0  0  0  0  0  0  0
   45.4200   34.8260   44.9970 C   0  0  0  0  0  0  0  0  0  0  0  0
   46.1420   33.6820   44.1950 C   0  0  2  0  0  0  0  0  0  0  0  0
   46.6960   35.5730   41.5410 H   0  0  0  0  0  0  0  0  0  0  0  0
   46.9210   36.4030   43.0850 H   0  0  0  0  0  0  0  0  0  0  0  0
   44.7660   36.8320   42.5380 H   0  0  0  0  0  0  0  0  0  0  0  0
   44.4430   35.2020   41.8830 H   0  0  0  0  0  0  0  0  0  0  0  0
   43.8490   36.1660   44.5160 H   0  0  0  0  0  0  0  0  0  0  0  0
   43.6320   34.4960   43.8880 H   0  0  0  0  0  0  0  0  0  0  0  0
   44.9480   34.3570   45.8660 H   0  0  0  0  0  0  0  0  0  0  0  0
   46.1670   35.5860   45.2330 H   0  0  0  0  0  0  0  0  0  0  0  0
   45.3370   33.0240   43.7880 H   0  0  0  0  0  0  0  0  0  0  0  0
   47.9660   33.6600   42.5930 C   0  0  0  0  0  0  0  0  0  0  0  0
   48.5420   33.0390   43.3250 H   0  0  0  0  0  0  0  0  0  0  0  0
   48.6600   34.3620   42.1270 H   0  0  0  0  0  0  0  0  0  0  0  0
   47.3230   32.6970   41.6410 C   0  0  0  0  0  0  0  0  0  0  0  0
   46.2340   32.9030   41.5540 H   0  0  0  0  0  0  0  0  0  0  0  0
   47.4250   31.6340   41.9260 H   0  0  0  0  0  0  0  0  0  0  0  0
   49.2870   32.1510   38.4870 C   0  0  0  0  0  0  0  0  0  0  0  0
   48.7470   31.9690   39.7730 C   0  0  0  0  0  0  0  0  0  0  0  0
   47.8830   32.9070   40.2810 C   0  0  0  0  0  0  0  0  0  0  0  0
   47.5940   33.9650   39.5140 N   0  0  0  0  0  0  0  0  0  0  0  0
   48.1090   34.1420   38.2860 C   0  0  0  0  0  0  0  0  0  0  0  0
   48.9560   33.2430   37.7610 N   0  0  0  0  0  0  0  0  0  0  0  0
   49.9700   31.4450   38.0400 H   0  0  0  0  0  0  0  0  0  0  0  0
   49.0210   31.1030   40.3270 H   0  0  0  0  0  0  0  0  0  0  0  0
   47.8020   35.0380   37.7600 H   0  0  0  0  0  0  0  0  0  0  0  0
   46.8970   33.0820   45.1940 O   0  0  0  0  0  0  0  0  0  0  0  0
   45.4700   30.9320   44.5830 O   0  0  0  0  0  0  0  0  0  0  0  0
   46.2600   31.6020   45.6900 P   0  0  2  0  0  0  0  0  0  0  0  0
   45.1090   31.9690   46.9050 O   0  0  0  0  0  0  0  0  0  0  0  0
   45.5260   31.8520   47.7940 H   0  0  0  0  0  0  0  0  0  0  0  0
   47.4330   30.6260   46.3580 O   0  0  0  0  0  0  0  0  0  0  0  0
   48.3800   28.4740   46.5600 C   0  0  0  0  0  3  0  0  0  0  0  0
   47.3020   29.3360   46.7890 C   0  0  0  0  0  0  0  0  0  0  0  0
   46.1850   28.8310   47.4270 C   0  0  0  0  0  0  0  0  0  0  0  0
   45.3390   29.4960   47.6090 H   0  0  0  0  0  0  0  0  0  0  0  0
   46.1640   27.4890   47.8230 C   0  0  0  0  0  0  0  0  0  0  0  0
   45.1930   26.7780   48.4570 N   0  0  0  0  0  0  0  0  0  0  0  0
   45.6070   25.5060   48.6400 C   0  0  0  0  0  0  0  0  0  0  0  0
   45.0190   24.7350   49.1220 H   0  0  0  0  0  0  0  0  0  0  0  0
   46.8490   25.4290   48.1140 N   0  0  0  0  0  0  0  0  0  0  0  0
   47.2200   26.6290   47.6040 C   0  0  0  0  0  0  0  0  0  0  0  0
   48.3290   27.1450   46.9650 C   0  0  0  0  0  3  0  0  0  0  0  0
   44.2800   27.1930   48.7400 H   0  0  0  0  0  0  0  0  0  0  0  0
  1  6  1  0  0  0  0
  2  3  1  0  0  0  0
  2  8  1  0  0  0  0
  2  1  1  0  0  0  0
  3  4  1  0  0  0  0
  4 11  1  0  0  0  0
  4  5  1  0  0  0  0
  5 14  1  0  0  0  0
  5 13  1  0  0  0  0
  6 15  1  6  0  0  0
  6  5  1  0  0  0  0
  6 31  1  0  0  0  0
  7  2  1  0  0  0  0
  9  3  1  0  0  0  0
 10  3  1  0  0  0  0
 12  4  1  0  0  0  0
 16  1  1  0  0  0  0
 16 17  1  0  0  0  0
 18 16  1  0  0  0  0
 19 21  1  0  0  0  0
 19 16  1  0  0  0  0
 20 19  1  0  0  0  0
 22 23  1  0  0  0  0
 23 24  2  0  0  0  0
 23 29  1  0  0  0  0
 24 19  1  0  0  0  0
 25 24  1  0  0  0  0
 26 25  2  0  0  0  0
 27 26  1  0  0  0  0
 27 22  2  0  0  0  0
 28 22  1  0  0  0  0
 30 26  1  0  0  0  0
 31 33  1  0  0  0  0
 33 32  2  6  0  0  0
 33 36  1  0  0  0  0
 33 34  1  0  0  0  0
 34 35  1  0  0  0  0
 36 38  1  0  0  0  0
 37 38  2  0  0  0  0
 37 47  1  0  0  0  0
 38 39  1  0  0  0  0
 39 40  1  0  0  0  0
 39 41  2  0  0  0  0
 41 42  1  0  0  0  0
 42 43  1  0  0  0  0
 42 48  1  0  0  0  0
 43 44  1  0  0  0  0
 45 43  2  0  0  0  0
 46 41  1  0  0  0  0
 46 45  1  0  0  0  0
 47 46  2  0  0  0  0
M  END
>  <minimizedAffinity>
-4.60491133

>  <minimizedRMSD>
1.16206813

$$$$
