
 OpenBabel03252509043D

 51 54  0  0  1  0  0  0  0  0999 V2000
   47.1510   34.1590   43.0740 N   0  0  0  0  0  0  0  0  0  0  0  0
   46.6490   35.3520   42.5080 C   0  0  0  0  0  0  0  0  0  0  0  0
   45.1580   35.5580   42.7020 C   0  0  0  0  0  0  0  0  0  0  0  0
   44.6450   35.0630   44.0270 C   0  0  0  0  0  0  0  0  0  0  0  0
   45.7530   34.5010   44.8860 C   0  0  0  0  0  0  0  0  0  0  0  0
   46.4230   33.4090   43.9630 C   0  0  2  0  0  0  0  0  0  0  0  0
   46.8400   35.5060   41.4410 H   0  0  0  0  0  0  0  0  0  0  0  0
   47.1450   36.2250   43.0190 H   0  0  0  0  0  0  0  0  0  0  0  0
   44.5720   35.0660   41.8850 H   0  0  0  0  0  0  0  0  0  0  0  0
   44.9210   36.6410   42.6150 H   0  0  0  0  0  0  0  0  0  0  0  0
   44.1650   35.8920   44.6250 H   0  0  0  0  0  0  0  0  0  0  0  0
   43.8610   34.2860   43.9290 H   0  0  0  0  0  0  0  0  0  0  0  0
   46.5000   35.2520   45.1740 H   0  0  0  0  0  0  0  0  0  0  0  0
   45.3180   33.9280   45.7190 H   0  0  0  0  0  0  0  0  0  0  0  0
   45.5900   32.7990   43.5700 H   0  0  0  0  0  0  0  0  0  0  0  0
   48.1610   33.5060   42.2770 C   0  0  0  0  0  0  0  0  0  0  0  0
   48.7130   34.3170   41.7540 H   0  0  0  0  0  0  0  0  0  0  0  0
   48.9370   32.9780   42.8800 H   0  0  0  0  0  0  0  0  0  0  0  0
   47.4650   32.6400   41.2780 C   0  0  0  0  0  0  0  0  0  0  0  0
   47.5740   31.5850   41.5240 H   0  0  0  0  0  0  0  0  0  0  0  0
   46.3660   32.8560   41.2300 H   0  0  0  0  0  0  0  0  0  0  0  0
   49.3490   32.2370   38.0520 C   0  0  0  0  0  0  0  0  0  0  0  0
   48.8260   31.9840   39.3350 C   0  0  0  0  0  0  0  0  0  0  0  0
   48.0100   32.9190   39.9230 C   0  0  0  0  0  0  0  0  0  0  0  0
   47.7500   34.0340   39.2370 N   0  0  0  0  0  0  0  0  0  0  0  0
   48.2490   34.2710   38.0160 C   0  0  0  0  0  0  0  0  0  0  0  0
   49.0470   33.3910   37.4070 N   0  0  0  0  0  0  0  0  0  0  0  0
   49.9940   31.5090   37.5760 H   0  0  0  0  0  0  0  0  0  0  0  0
   49.0950   31.0500   39.8130 H   0  0  0  0  0  0  0  0  0  0  0  0
   47.9370   35.2250   37.6040 H   0  0  0  0  0  0  0  0  0  0  0  0
   47.2090   32.7350   44.8780 O   0  0  0  0  0  0  0  0  0  0  0  0
   46.0300   30.5530   43.9050 O   0  0  0  0  0  0  0  0  0  0  0  0
   46.6740   31.1580   45.1490 P   0  0  2  0  0  0  0  0  0  0  0  0
   45.3890   31.2990   46.2790 O   0  0  0  0  0  0  0  0  0  0  0  0
   44.6790   30.6610   46.0930 H   0  0  0  0  0  0  0  0  0  0  0  0
   47.8220   30.1700   45.8200 O   0  0  0  0  0  0  0  0  0  0  0  0
   47.7200   28.9070   45.2590 C   0  0  0  0  0  0  0  0  0  0  0  0
   46.7260   28.5100   45.5180 H   0  0  0  0  0  0  0  0  0  0  0  0
   47.8890   28.8840   44.1800 H   0  0  0  0  0  0  0  0  0  0  0  0
   49.9490   27.7140   45.2620 C   0  0  0  0  0  3  0  0  0  0  0  0
   48.7820   28.0660   45.9130 C   0  0  0  0  0  0  0  0  0  0  0  0
   48.5380   27.6490   47.2220 C   0  0  0  0  0  0  0  0  0  0  0  0
   47.6090   27.9310   47.7340 H   0  0  0  0  0  0  0  0  0  0  0  0
   49.4720   26.8790   47.8730 C   0  0  0  0  0  0  0  0  0  0  0  0
   49.4240   26.3800   49.1270 N   0  0  0  0  0  0  0  0  0  0  0  0
   50.5690   25.6890   49.3170 C   0  0  0  0  0  0  0  0  0  0  0  0
   50.8540   25.1620   50.2120 H   0  0  0  0  0  0  0  0  0  0  0  0
   51.3060   25.7730   48.1720 N   0  0  0  0  0  0  0  0  0  0  0  0
   50.6510   26.5050   47.2570 C   0  0  0  0  0  0  0  0  0  0  0  0
   50.8760   26.9290   45.9550 C   0  0  0  0  0  3  0  0  0  0  0  0
   48.6920   26.4560   49.8780 H   0  0  0  0  0  0  0  0  0  0  0  0
  1  6  1  0  0  0  0
  2  3  1  0  0  0  0
  2  8  1  0  0  0  0
  2  1  1  0  0  0  0
  3  4  1  0  0  0  0
  4 11  1  0  0  0  0
  4  5  1  0  0  0  0
  5 13  1  0  0  0  0
  5 14  1  0  0  0  0
  6 15  1  6  0  0  0
  6 31  1  0  0  0  0
  6  5  1  0  0  0  0
  7  2  1  0  0  0  0
  9  3  1  0  0  0  0
 10  3  1  0  0  0  0
 12  4  1  0  0  0  0
 16 18  1  0  0  0  0
 16  1  1  0  0  0  0
 17 16  1  0  0  0  0
 19 20  1  0  0  0  0
 19 16  1  0  0  0  0
 21 19  1  0  0  0  0
 22 23  1  0  0  0  0
 23 29  1  0  0  0  0
 23 24  2  0  0  0  0
 24 19  1  0  0  0  0
 25 24  1  0  0  0  0
 26 25  2  0  0  0  0
 27 26  1  0  0  0  0
 27 22  2  0  0  0  0
 28 22  1  0  0  0  0
 30 26  1  0  0  0  0
 31 33  1  0  0  0  0
 33 32  2  6  0  0  0
 33 36  1  0  0  0  0
 33 34  1  0  0  0  0
 35 34  1  0  0  0  0
 37 38  1  0  0  0  0
 37 36  1  0  0  0  0
 37 41  1  0  0  0  0
 39 37  1  0  0  0  0
 40 41  2  0  0  0  0
 40 50  1  0  0  0  0
 41 42  1  0  0  0  0
 42 43  1  0  0  0  0
 42 44  2  0  0  0  0
 44 45  1  0  0  0  0
 45 46  1  0  0  0  0
 45 51  1  0  0  0  0
 46 47  1  0  0  0  0
 48 46  2  0  0  0  0
 49 44  1  0  0  0  0
 49 48  1  0  0  0  0
 50 49  2  0  0  0  0
M  END
>  <minimizedAffinity>
-3.95008111

>  <minimizedRMSD>
0.0656303391

$$$$
