
 OpenBabel03252503343D

 25 27  0  0  0  0  0  0  0  0999 V2000
   46.1290   33.9820   40.8310 C   0  0  0  0  0  0  0  0  0  0  0  0
   45.0260   33.4330   41.1050 O   0  0  0  0  0  0  0  0  0  0  0  0
   46.6390   34.7860   41.8820 N   0  0  0  0  0  0  0  0  0  0  0  0
   47.5060   35.3520   41.7630 H   0  0  0  0  0  0  0  0  0  0  0  0
   48.0460   34.4190   39.2550 C   0  0  0  0  0  3  0  0  0  0  0  0
   46.8390   33.8270   39.5660 C   0  0  0  0  0  0  0  0  0  0  0  0
   46.2600   33.0240   38.5940 C   0  0  0  0  0  0  0  0  0  0  0  0
   45.3190   32.4950   38.6910 H   0  0  0  0  0  0  0  0  0  0  0  0
   46.8700   32.8210   37.3570 C   0  0  0  0  0  0  0  0  0  0  0  0
   46.6070   32.1400   36.2320 N   0  0  0  0  0  0  0  0  0  0  0  0
   47.5910   32.3240   35.3370 C   0  0  0  0  0  0  0  0  0  0  0  0
   47.6900   31.9170   34.3320 H   0  0  0  0  0  0  0  0  0  0  0  0
   48.5390   33.1420   35.8540 N   0  0  0  0  0  0  0  0  0  0  0  0
   48.0790   33.4330   37.0850 C   0  0  0  0  0  0  0  0  0  0  0  0
   48.6630   34.2320   38.0410 C   0  0  0  0  0  3  0  0  0  0  0  0
   45.7480   31.5520   36.0930 H   0  0  0  0  0  0  0  0  0  0  0  0
   44.5200   35.9820   44.6890 C   0  0  0  0  0  0  0  0  0  0  0  0
   45.1310   35.9280   43.4170 C   0  0  0  0  0  0  0  0  0  0  0  0
   46.0080   34.8720   43.1510 C   0  0  0  0  0  0  0  0  0  0  0  0
   46.2440   33.9480   44.1030 N   0  0  0  0  0  0  0  0  0  0  0  0
   45.6350   34.0290   45.3290 C   0  0  0  0  0  0  0  0  0  0  0  0
   44.7900   35.0390   45.5950 N   0  0  0  0  0  0  0  0  0  0  0  0
   43.8370   36.7850   44.9280 H   0  0  0  0  0  0  0  0  0  0  0  0
   44.9030   36.7010   42.6890 H   0  0  0  0  0  0  0  0  0  0  0  0
   45.8960   33.2360   46.0130 H   0  0  0  0  0  0  0  0  0  0  0  0
  1  2  2  0  0  0  0
  1  3  1  0  0  0  0
  3 19  1  0  0  0  0
  4  3  1  0  0  0  0
  5  6  1  0  0  0  0
  6  1  1  0  0  0  0
  7  8  1  0  0  0  0
  7  6  2  0  0  0  0
  9  7  1  0  0  0  0
 10  9  1  0  0  0  0
 11 13  2  0  0  0  0
 11 10  1  0  0  0  0
 12 11  1  0  0  0  0
 13 14  1  0  0  0  0
 14  9  2  0  0  0  0
 14 15  1  0  0  0  0
 15  5  2  0  0  0  0
 16 10  1  0  0  0  0
 17 23  1  0  0  0  0
 17 22  1  0  0  0  0
 18 17  2  0  0  0  0
 19 18  1  0  0  0  0
 19 20  2  0  0  0  0
 20 21  1  0  0  0  0
 21 22  2  0  0  0  0
 21 25  1  0  0  0  0
 24 18  1  0  0  0  0
M  END
>  <minimizedAffinity>
-5.03908825

>  <minimizedRMSD>
0.556635082

$$$$
