
 OpenBabel03242517483D

 46 50  0  0  0  0  0  0  0  0999 V2000
   38.1970   31.4230   41.1790 C   0  0  0  0  0  0  0  0  0  0  0  0
   39.5560   31.3680   40.8610 C   0  0  0  0  0  0  0  0  0  0  0  0
   40.0580   30.1720   40.3550 C   0  0  0  0  0  0  0  0  0  0  0  0
   39.2020   29.1420   40.2030 N   0  0  0  0  0  0  0  0  0  0  0  0
   37.8910   29.2270   40.5180 C   0  0  0  0  0  0  0  0  0  0  0  0
   37.3610   30.3440   41.0050 N   0  0  0  0  0  0  0  0  0  0  0  0
   37.7550   32.3270   41.5750 H   0  0  0  0  0  0  0  0  0  0  0  0
   41.0960   30.0770   40.0950 H   0  0  0  0  0  0  0  0  0  0  0  0
   37.0460   28.0240   40.3060 C   0  0  0  0  0  0  0  0  0  0  0  0
   36.4120   27.8250   41.2080 H   0  0  0  0  0  0  0  0  0  0  0  0
   37.6540   27.1170   40.1670 H   0  0  0  0  0  0  0  0  0  0  0  0
   36.0880   28.2190   39.1300 C   0  0  0  0  0  0  0  0  0  0  0  0
   36.4430   27.6490   38.2480 H   0  0  0  0  0  0  0  0  0  0  0  0
   36.0350   29.2900   38.8870 H   0  0  0  0  0  0  0  0  0  0  0  0
   34.5120   26.4380   40.0370 C   0  0  0  0  0  0  0  0  0  0  0  0
   34.7490   27.7110   39.5670 C   0  0  0  0  0  0  0  0  0  0  0  0
   33.6960   28.5870   39.4890 C   0  0  0  0  0  0  0  0  0  0  0  0
   33.8500   29.6110   39.1190 H   0  0  0  0  0  0  0  0  0  0  0  0
   32.3960   28.2890   39.8480 C   0  0  0  0  0  0  0  0  0  0  0  0
   31.2530   29.0120   39.8380 N   0  0  0  0  0  0  0  0  0  0  0  0
   30.3200   28.1540   40.3090 C   0  0  0  0  0  0  0  0  0  0  0  0
   29.2860   28.5000   40.4030 H   0  0  0  0  0  0  0  0  0  0  0  0
   30.8380   26.9490   40.6050 N   0  0  0  0  0  0  0  0  0  0  0  0
   32.1720   26.9960   40.3220 C   0  0  0  0  0  0  0  0  0  0  0  0
   33.2190   26.0920   40.4110 C   0  0  0  0  0  0  0  0  0  0  0  0
   31.1490   29.9950   39.5330 H   0  0  0  0  0  0  0  0  0  0  0  0
   40.6030   32.7840   41.0990 S   0  0  0  0  0  0  0  0  0  0  0  0
   40.5410   33.8240   39.6780 C   0  0  0  0  0  0  0  0  0  0  0  0
   39.4800   33.8450   38.7690 C   0  0  0  0  0  0  0  0  0  0  0  0
   39.5120   34.7020   37.6670 C   0  0  0  0  0  0  0  0  0  0  0  0
   40.5730   35.5360   37.4510 C   0  0  0  0  0  0  0  0  0  0  0  0
   41.6170   35.5160   38.3420 C   0  0  0  0  0  0  0  0  0  0  0  0
   41.6190   34.6810   39.4440 C   0  0  0  0  0  0  0  0  0  0  0  0
   38.6470   33.1830   38.9480 H   0  0  0  0  0  0  0  0  0  0  0  0
   38.6860   34.7120   36.9680 H   0  0  0  0  0  0  0  0  0  0  0  0
   40.6450   36.2160   36.6150 H   0  0  0  0  0  0  0  0  0  0  0  0
   42.4660   36.1750   38.1810 H   0  0  0  0  0  0  0  0  0  0  0  0
   42.7370   34.6770   40.3780 C   0  0  0  0  0  0  0  0  0  0  0  0
   43.8950   33.9850   40.1850 C   0  0  0  0  0  0  0  0  0  0  0  0
   44.9560   33.9940   41.0930 C   0  0  0  0  0  0  0  0  0  0  0  0
   44.8250   34.7270   42.2180 N   0  0  0  0  0  0  0  0  0  0  0  0
   43.6810   35.4110   42.4080 C   0  0  0  0  0  0  0  0  0  0  0  0
   42.6740   35.3860   41.5190 N   0  0  0  0  0  0  0  0  0  0  0  0
   44.0180   33.3920   39.2890 H   0  0  0  0  0  0  0  0  0  0  0  0
   45.8670   33.4370   40.9200 H   0  0  0  0  0  0  0  0  0  0  0  0
   43.4550   36.0350   43.2690 H   0  0  0  0  0  0  0  0  0  0  0  0
  1  7  1  0  0  0  0
  2 27  1  0  0  0  0
  2  1  2  0  0  0  0
  3  2  1  0  0  0  0
  4  3  2  0  0  0  0
  4  5  1  0  0  0  0
  5  6  2  0  0  0  0
  6  1  1  0  0  0  0
  8  3  1  0  0  0  0
  9  5  1  0  0  0  0
  9 10  1  0  0  0  0
 11  9  1  0  0  0  0
 12 16  1  0  0  0  0
 12  9  1  0  0  0  0
 13 12  1  0  0  0  0
 14 12  1  0  0  0  0
 15 25  1  0  0  0  0
 16 15  2  0  0  0  0
 17 16  1  0  0  0  0
 17 19  2  0  0  0  0
 18 17  1  0  0  0  0
 19 24  1  0  0  0  0
 20 19  1  0  0  0  0
 20 21  1  0  0  0  0
 21 22  1  0  0  0  0
 21 23  2  0  0  0  0
 24 25  2  0  0  0  0
 24 23  1  0  0  0  0
 26 20  1  0  0  0  0
 28 27  1  0  0  0  0
 29 34  1  0  0  0  0
 29 28  2  0  0  0  0
 30 29  1  0  0  0  0
 31 30  2  0  0  0  0
 31 32  1  0  0  0  0
 32 33  2  0  0  0  0
 33 28  1  0  0  0  0
 33 38  1  0  0  0  0
 35 30  1  0  0  0  0
 36 31  1  0  0  0  0
 37 32  1  0  0  0  0
 38 43  1  0  0  0  0
 39 38  2  0  0  0  0
 39 40  1  0  0  0  0
 40 41  2  0  0  0  0
 41 42  1  0  0  0  0
 42 46  1  0  0  0  0
 43 42  2  0  0  0  0
 44 39  1  0  0  0  0
 45 40  1  0  0  0  0
M  END
>  <minimizedAffinity>
-6.25385714

>  <minimizedRMSD>
1.42114913

$$$$
