
 OpenBabel03252504343D

 43 46  0  0  0  0  0  0  0  0999 V2000
   34.9140   28.7220   38.9750 C   0  0  0  0  0  0  0  0  0  0  0  0
   34.5630   28.6120   40.0660 H   0  0  0  0  0  0  0  0  0  0  0  0
   34.0600   29.0850   38.4220 H   0  0  0  0  0  0  0  0  0  0  0  0
   35.9640   30.4090   40.3950 C   0  0  0  0  0  0  0  0  0  0  0  0
   35.8740   29.8760   39.1170 C   0  0  0  0  0  0  0  0  0  0  0  0
   36.6470   30.4100   38.1300 C   0  0  0  0  0  0  0  0  0  0  0  0
   37.4420   31.4210   38.4800 N   0  0  0  0  0  0  0  0  0  0  0  0
   37.5400   31.9380   39.6870 C   0  0  0  0  0  0  0  0  0  0  0  0
   36.7650   31.4200   40.7230 N   0  0  0  0  0  0  0  0  0  0  0  0
   35.3910   30.0540   41.2420 H   0  0  0  0  0  0  0  0  0  0  0  0
   36.5410   29.9620   37.1590 H   0  0  0  0  0  0  0  0  0  0  0  0
   38.0110   34.3560   39.8760 C   0  0  0  0  0  3  0  0  0  0  0  0
   38.4390   33.0490   39.9870 C   0  0  0  0  0  0  0  0  0  0  0  0
   39.7180   32.7090   40.3800 C   0  0  0  0  0  0  0  0  0  0  0  0
   40.0410   31.6810   40.4620 H   0  0  0  0  0  0  0  0  0  0  0  0
   40.6070   33.7220   40.6750 C   0  0  0  0  0  0  0  0  0  0  0  0
   41.8990   33.6970   41.0780 N   0  0  0  0  0  0  0  0  0  0  0  0
   42.3020   34.9830   41.2260 C   0  0  0  0  0  0  0  0  0  0  0  0
   43.2620   35.3810   41.5330 H   0  0  0  0  0  0  0  0  0  0  0  0
   41.2790   35.8020   40.9210 N   0  0  0  0  0  0  0  0  0  0  0  0
   40.1960   35.0490   40.5700 C   0  0  0  0  0  0  0  0  0  0  0  0
   38.9070   35.3620   40.1730 C   0  0  0  0  0  3  0  0  0  0  0  0
   42.5120   32.8650   41.2540 H   0  0  0  0  0  0  0  0  0  0  0  0
   35.5080   27.5450   38.6550 O   0  0  0  0  0  0  0  0  0  0  0  0
   36.5720   26.9010   39.2650 C   0  0  0  0  0  2  0  0  0  0  0  0
   36.5670   25.5620   39.1340 C   0  0  0  0  0  2  0  0  0  0  0  0
   37.6110   24.6370   39.7120 C   0  0  0  0  0  0  0  0  0  0  0  0
   38.1200   24.0670   38.9170 H   0  0  0  0  0  0  0  0  0  0  0  0
   37.0610   23.8980   40.3210 H   0  0  0  0  0  0  0  0  0  0  0  0
   38.4470   25.3770   40.5110 O   0  0  0  0  0  0  0  0  0  0  0  0
   36.7240   24.6030   42.3890 O   0  0  0  0  0  0  0  0  0  0  0  0
   38.1480   25.0440   42.1380 P   0  0  1  0  0  0  0  0  0  0  0  0
   39.1640   23.7790   42.6640 O   0  0  0  0  0  0  0  0  0  0  0  0
   40.0290   23.8690   42.1790 H   0  0  0  0  0  0  0  0  0  0  0  0
   38.5120   26.3910   43.0810 O   0  0  0  0  0  0  0  0  0  0  0  0
   37.6110   27.4200   42.9090 C   0  0  0  0  0  0  0  0  0  0  0  0
   38.0090   28.8130   43.2890 C   0  0  0  0  0  0  0  0  0  0  0  0
   37.0640   28.0250   44.1780 C   0  0  0  0  0  0  0  0  0  0  0  0
   36.8970   27.2860   42.0780 H   0  0  0  0  0  0  0  0  0  0  0  0
   37.5750   29.6080   42.6510 H   0  0  0  0  0  0  0  0  0  0  0  0
   39.0220   28.9500   43.6650 H   0  0  0  0  0  0  0  0  0  0  0  0
   37.4680   27.7020   45.1520 H   0  0  0  0  0  0  0  0  0  0  0  0
   36.0200   28.3910   44.2090 H   0  0  0  0  0  0  0  0  0  0  0  0
  1  5  1  0  0  0  0
  1  2  1  0  0  0  0
  3  1  1  0  0  0  0
  4  9  1  0  0  0  0
  4 10  1  0  0  0  0
  5  4  2  0  0  0  0
  6  7  2  0  0  0  0
  6  5  1  0  0  0  0
  7  8  1  0  0  0  0
  8 13  1  0  0  0  0
  8  9  2  0  0  0  0
 11  6  1  0  0  0  0
 12 13  2  0  0  0  0
 12 22  1  0  0  0  0
 13 14  1  0  0  0  0
 14 15  1  0  0  0  0
 14 16  2  0  0  0  0
 16 17  1  0  0  0  0
 17 18  1  0  0  0  0
 17 23  1  0  0  0  0
 18 19  1  0  0  0  0
 20 18  2  0  0  0  0
 21 16  1  0  0  0  0
 21 20  1  0  0  0  0
 22 21  2  0  0  0  0
 24  1  1  0  0  0  0
 24 25  1  0  0  0  0
 26 25  1  0  0  0  0
 26 27  1  0  0  0  0
 27 29  1  0  0  0  0
 27 30  1  0  0  0  0
 28 27  1  0  0  0  0
 30 32  1  0  0  0  0
 32 31  2  1  0  0  0
 32 33  1  0  0  0  0
 32 35  1  0  0  0  0
 34 33  1  0  0  0  0
 36 35  1  0  0  0  0
 36 37  1  0  0  0  0
 36 38  1  0  0  0  0
 37 41  1  0  0  0  0
 37 38  1  0  0  0  0
 38 43  1  0  0  0  0
 38 42  1  0  0  0  0
 39 36  1  0  0  0  0
 40 37  1  0  0  0  0
M  END
>  <minimizedAffinity>
-5.99746704

$$$$

 OpenBabel03252504343D

 43 46  0  0  0  0  0  0  0  0999 V2000
   37.6310   31.1410   37.4340 C   0  0  0  0  0  0  0  0  0  0  0  0
   36.8170   31.8560   37.0440 H   0  0  0  0  0  0  0  0  0  0  0  0
   38.2670   30.9250   36.5870 H   0  0  0  0  0  0  0  0  0  0  0  0
   39.7750   32.0480   38.1720 C   0  0  0  0  0  0  0  0  0  0  0  0
   38.3980   32.0730   38.3380 C   0  0  0  0  0  0  0  0  0  0  0  0
   37.8660   32.9220   39.2620 C   0  0  0  0  0  0  0  0  0  0  0  0
   38.7310   33.6730   39.9430 N   0  0  0  0  0  0  0  0  0  0  0  0
   40.0390   33.6630   39.7980 C   0  0  0  0  0  0  0  0  0  0  0  0
   40.6210   32.8080   38.8630 N   0  0  0  0  0  0  0  0  0  0  0  0
   40.2900   31.4090   37.4650 H   0  0  0  0  0  0  0  0  0  0  0  0
   36.7960   32.9030   39.3520 H   0  0  0  0  0  0  0  0  0  0  0  0
   40.5800   35.8360   40.8410 C   0  0  0  0  0  3  0  0  0  0  0  0
   40.9170   34.5220   40.5880 C   0  0  0  0  0  0  0  0  0  0  0  0
   42.0810   33.9430   41.0510 C   0  0  0  0  0  0  0  0  0  0  0  0
   42.3330   32.9120   40.8460 H   0  0  0  0  0  0  0  0  0  0  0  0
   42.9450   34.7120   41.8020 C   0  0  0  0  0  0  0  0  0  0  0  0
   44.1350   34.4260   42.3820 N   0  0  0  0  0  0  0  0  0  0  0  0
   44.5630   35.5510   43.0050 C   0  0  0  0  0  0  0  0  0  0  0  0
   45.4660   35.7290   43.5780 H   0  0  0  0  0  0  0  0  0  0  0  0
   43.6560   36.5280   42.8210 N   0  0  0  0  0  0  0  0  0  0  0  0
   42.6250   36.0410   42.0710 C   0  0  0  0  0  0  0  0  0  0  0  0
   41.4510   36.5980   41.5930 C   0  0  0  0  0  3  0  0  0  0  0  0
   44.6630   33.5210   42.3740 H   0  0  0  0  0  0  0  0  0  0  0  0
   36.9750   30.1510   38.0890 O   0  0  0  0  0  0  0  0  0  0  0  0
   37.1970   29.6370   39.3560 C   0  0  0  0  0  2  0  0  0  0  0  0
   36.1490   28.9820   39.8880 C   0  0  0  0  0  2  0  0  0  0  0  0
   36.1380   28.3390   41.2540 C   0  0  0  0  0  0  0  0  0  0  0  0
   35.3060   27.6220   41.3480 H   0  0  0  0  0  0  0  0  0  0  0  0
   35.9330   29.1510   41.9730 H   0  0  0  0  0  0  0  0  0  0  0  0
   37.3820   27.8080   41.4890 O   0  0  0  0  0  0  0  0  0  0  0  0
   38.8610   29.4940   42.9250 O   0  0  0  0  0  0  0  0  0  0  0  0
   37.9500   28.2910   43.0030 P   0  0  1  0  0  0  0  0  0  0  0  0
   36.6340   28.7230   44.0000 O   0  0  0  0  0  0  0  0  0  0  0  0
   35.8720   28.1270   43.7640 H   0  0  0  0  0  0  0  0  0  0  0  0
   38.7410   27.0110   43.7600 O   0  0  0  0  0  0  0  0  0  0  0  0
   39.9270   26.6800   43.1400 C   0  0  0  0  0  0  0  0  0  0  0  0
   40.5120   25.3190   43.3630 C   0  0  0  0  0  0  0  0  0  0  0  0
   41.1180   26.5270   44.0540 C   0  0  0  0  0  0  0  0  0  0  0  0
   40.1080   27.1780   42.1720 H   0  0  0  0  0  0  0  0  0  0  0  0
   41.0520   24.9000   42.4900 H   0  0  0  0  0  0  0  0  0  0  0  0
   39.9450   24.6360   43.9930 H   0  0  0  0  0  0  0  0  0  0  0  0
   40.9760   26.5840   45.1460 H   0  0  0  0  0  0  0  0  0  0  0  0
   42.1240   26.8240   43.7030 H   0  0  0  0  0  0  0  0  0  0  0  0
  1 24  1  0  0  0  0
  1  5  1  0  0  0  0
  2  1  1  0  0  0  0
  3  1  1  0  0  0  0
  4  5  2  0  0  0  0
  4  9  1  0  0  0  0
  5  6  1  0  0  0  0
  6 11  1  0  0  0  0
  6  7  2  0  0  0  0
  8  7  1  0  0  0  0
  8 13  1  0  0  0  0
  9  8  2  0  0  0  0
 10  4  1  0  0  0  0
 12 22  1  0  0  0  0
 13 12  2  0  0  0  0
 13 14  1  0  0  0  0
 14 16  2  0  0  0  0
 15 14  1  0  0  0  0
 16 21  1  0  0  0  0
 16 17  1  0  0  0  0
 17 18  1  0  0  0  0
 18 19  1  0  0  0  0
 20 18  2  0  0  0  0
 21 20  1  0  0  0  0
 22 21  2  0  0  0  0
 23 17  1  0  0  0  0
 24 25  1  0  0  0  0
 25 26  1  0  0  0  0
 26 27  1  0  0  0  0
 27 28  1  0  0  0  0
 27 30  1  0  0  0  0
 27 29  1  0  0  0  0
 30 32  1  0  0  0  0
 32 31  2  6  0  0  0
 32 35  1  0  0  0  0
 32 33  1  0  0  0  0
 34 33  1  0  0  0  0
 36 37  1  0  0  0  0
 36 35  1  0  0  0  0
 36 38  1  0  0  0  0
 37 41  1  0  0  0  0
 37 38  1  0  0  0  0
 38 42  1  0  0  0  0
 39 36  1  0  0  0  0
 40 37  1  0  0  0  0
 43 38  1  0  0  0  0
M  END
>  <minimizedAffinity>
-5.84772205

$$$$

 OpenBabel03252504343D

 43 46  0  0  0  0  0  0  0  0999 V2000
   36.3010   29.5780   37.8410 C   0  0  0  0  0  0  0  0  0  0  0  0
   35.5210   30.1820   37.2470 H   0  0  0  0  0  0  0  0  0  0  0  0
   36.9740   29.1580   37.1070 H   0  0  0  0  0  0  0  0  0  0  0  0
   38.1970   31.1170   37.8890 C   0  0  0  0  0  0  0  0  0  0  0  0
   37.0400   30.6980   38.5300 C   0  0  0  0  0  0  0  0  0  0  0  0
   36.6690   31.3220   39.6830 C   0  0  0  0  0  0  0  0  0  0  0  0
   37.4640   32.3030   40.1080 N   0  0  0  0  0  0  0  0  0  0  0  0
   38.5640   32.7140   39.5130 C   0  0  0  0  0  0  0  0  0  0  0  0
   38.9770   32.1000   38.3320 N   0  0  0  0  0  0  0  0  0  0  0  0
   38.5730   30.6840   36.9710 H   0  0  0  0  0  0  0  0  0  0  0  0
   35.7660   30.9610   40.1400 H   0  0  0  0  0  0  0  0  0  0  0  0
   38.9350   35.1060   40.0040 C   0  0  0  0  0  3  0  0  0  0  0  0
   39.3790   33.8010   40.0470 C   0  0  0  0  0  0  0  0  0  0  0  0
   40.5980   33.4410   40.5860 C   0  0  0  0  0  0  0  0  0  0  0  0
   40.9350   32.4150   40.6140 H   0  0  0  0  0  0  0  0  0  0  0  0
   41.4070   34.4310   41.1040 C   0  0  0  0  0  0  0  0  0  0  0  0
   42.6290   34.3840   41.6860 N   0  0  0  0  0  0  0  0  0  0  0  0
   42.9700   35.6540   42.0150 C   0  0  0  0  0  0  0  0  0  0  0  0
   43.8650   36.0320   42.4950 H   0  0  0  0  0  0  0  0  0  0  0  0
   41.9780   36.4850   41.6470 N   0  0  0  0  0  0  0  0  0  0  0  0
   40.9780   35.7560   41.0710 C   0  0  0  0  0  0  0  0  0  0  0  0
   39.7510   36.0900   40.5240 C   0  0  0  0  0  3  0  0  0  0  0  0
   43.2340   33.5470   41.8670 H   0  0  0  0  0  0  0  0  0  0  0  0
   35.5940   28.7830   38.6820 O   0  0  0  0  0  0  0  0  0  0  0  0
   35.9470   27.5700   39.2510 C   0  0  0  0  0  2  0  0  0  0  0  0
   37.0090   26.9710   38.6830 C   0  0  0  0  0  2  0  0  0  0  0  0
   37.5830   25.6430   39.1170 C   0  0  0  0  0  0  0  0  0  0  0  0
   38.2560   25.2330   38.3460 H   0  0  0  0  0  0  0  0  0  0  0  0
   36.7280   24.9490   39.1850 H   0  0  0  0  0  0  0  0  0  0  0  0
   38.1570   25.8060   40.3530 O   0  0  0  0  0  0  0  0  0  0  0  0
   36.2450   24.0330   40.8960 O   0  0  0  0  0  0  0  0  0  0  0  0
   37.3590   24.8580   41.4990 P   0  0  1  0  0  0  0  0  0  0  0  0
   38.4600   23.7680   42.2120 O   0  0  0  0  0  0  0  0  0  0  0  0
   39.3420   24.2260   42.2660 H   0  0  0  0  0  0  0  0  0  0  0  0
   36.7570   25.8300   42.7360 O   0  0  0  0  0  0  0  0  0  0  0  0
   37.2840   27.1040   42.7150 C   0  0  0  0  0  0  0  0  0  0  0  0
   38.4820   27.4130   43.5600 C   0  0  0  0  0  0  0  0  0  0  0  0
   37.1090   27.9020   43.9830 C   0  0  0  0  0  0  0  0  0  0  0  0
   37.1560   27.6510   41.7650 H   0  0  0  0  0  0  0  0  0  0  0  0
   39.1800   28.1520   43.1190 H   0  0  0  0  0  0  0  0  0  0  0  0
   38.9010   26.5910   44.1390 H   0  0  0  0  0  0  0  0  0  0  0  0
   36.6730   27.4170   44.8730 H   0  0  0  0  0  0  0  0  0  0  0  0
   36.9530   28.9950   43.9290 H   0  0  0  0  0  0  0  0  0  0  0  0
  1  5  1  0  0  0  0
  1 24  1  0  0  0  0
  2  1  1  0  0  0  0
  3  1  1  0  0  0  0
  4  9  2  0  0  0  0
  4  5  1  0  0  0  0
  5  6  2  0  0  0  0
  6  7  1  0  0  0  0
  6 11  1  0  0  0  0
  8 13  1  0  0  0  0
  8  7  2  0  0  0  0
  9  8  1  0  0  0  0
 10  4  1  0  0  0  0
 12 13  2  0  0  0  0
 12 22  1  0  0  0  0
 13 14  1  0  0  0  0
 14 15  1  0  0  0  0
 14 16  2  0  0  0  0
 16 17  1  0  0  0  0
 17 23  1  0  0  0  0
 17 18  1  0  0  0  0
 18 19  1  0  0  0  0
 20 18  2  0  0  0  0
 21 16  1  0  0  0  0
 21 20  1  0  0  0  0
 22 21  2  0  0  0  0
 24 25  1  0  0  0  0
 26 27  1  0  0  0  0
 26 25  1  0  0  0  0
 27 29  1  0  0  0  0
 27 30  1  0  0  0  0
 28 27  1  0  0  0  0
 30 32  1  0  0  0  0
 32 31  2  6  0  0  0
 32 33  1  0  0  0  0
 32 35  1  0  0  0  0
 33 34  1  0  0  0  0
 36 35  1  0  0  0  0
 36 37  1  0  0  0  0
 36 38  1  0  0  0  0
 37 38  1  0  0  0  0
 37 41  1  0  0  0  0
 38 42  1  0  0  0  0
 39 36  1  0  0  0  0
 40 37  1  0  0  0  0
 43 38  1  0  0  0  0
M  END
>  <minimizedAffinity>
-5.79515982

$$$$

 OpenBabel03252504343D

 43 46  0  0  0  0  0  0  0  0999 V2000
   36.7570   30.8810   40.8910 C   0  0  0  0  0  0  0  0  0  0  0  0
   36.1310   31.1880   39.9750 H   0  0  0  0  0  0  0  0  0  0  0  0
   36.1390   31.0850   41.7550 H   0  0  0  0  0  0  0  0  0  0  0  0
   36.2810   28.9330   39.4970 C   0  0  0  0  0  0  0  0  0  0  0  0
   36.7840   29.3840   40.7090 C   0  0  0  0  0  0  0  0  0  0  0  0
   37.2620   28.4700   41.6000 C   0  0  0  0  0  0  0  0  0  0  0  0
   37.2050   27.1930   41.2260 N   0  0  0  0  0  0  0  0  0  0  0  0
   36.7320   26.7470   40.0810 C   0  0  0  0  0  0  0  0  0  0  0  0
   36.2340   27.6510   39.1440 N   0  0  0  0  0  0  0  0  0  0  0  0
   35.8800   29.5800   38.7270 H   0  0  0  0  0  0  0  0  0  0  0  0
   37.6400   28.8700   42.5230 H   0  0  0  0  0  0  0  0  0  0  0  0
   35.8930   24.8480   38.7420 C   0  0  0  0  0  3  0  0  0  0  0  0
   36.7070   25.3260   39.7490 C   0  0  0  0  0  0  0  0  0  0  0  0
   37.5340   24.5100   40.4940 C   0  0  0  0  0  0  0  0  0  0  0  0
   38.1680   24.8970   41.2800 H   0  0  0  0  0  0  0  0  0  0  0  0
   37.5480   23.1590   40.2200 C   0  0  0  0  0  0  0  0  0  0  0  0
   38.2420   22.1340   40.7710 N   0  0  0  0  0  0  0  0  0  0  0  0
   37.8750   21.0020   40.1220 C   0  0  0  0  0  0  0  0  0  0  0  0
   38.2030   19.9790   40.2670 H   0  0  0  0  0  0  0  0  0  0  0  0
   36.9670   21.3100   39.1790 N   0  0  0  0  0  0  0  0  0  0  0  0
   36.7340   22.6550   39.2080 C   0  0  0  0  0  0  0  0  0  0  0  0
   35.9130   23.4950   38.4750 C   0  0  0  0  0  3  0  0  0  0  0  0
   38.9390   22.1640   41.5530 H   0  0  0  0  0  0  0  0  0  0  0  0
   37.9640   31.4790   40.7360 O   0  0  0  0  0  0  0  0  0  0  0  0
   38.7440   31.6050   39.5990 C   0  0  0  0  0  2  0  0  0  0  0  0
   40.0690   31.6390   39.8270 C   0  0  0  0  0  2  0  0  0  0  0  0
   41.1250   31.7770   38.7560 C   0  0  0  0  0  0  0  0  0  0  0  0
   41.2200   30.8470   38.1720 H   0  0  0  0  0  0  0  0  0  0  0  0
   42.0830   31.9120   39.2860 H   0  0  0  0  0  0  0  0  0  0  0  0
   40.8380   32.8940   38.0110 O   0  0  0  0  0  0  0  0  0  0  0  0
   43.2110   33.5440   39.0300 O   0  0  0  0  0  0  0  0  0  0  0  0
   42.0680   34.0380   38.1740 P   0  0  1  0  0  0  0  0  0  0  0  0
   42.7150   34.4090   36.6400 O   0  0  0  0  0  0  0  0  0  0  0  0
   41.9700   34.3630   35.9810 H   0  0  0  0  0  0  0  0  0  0  0  0
   41.4470   35.4700   38.8060 O   0  0  0  0  0  0  0  0  0  0  0  0
   40.8980   35.3040   40.0600 C   0  0  0  0  0  0  0  0  0  0  0  0
   39.4090   35.3310   40.2160 C   0  0  0  0  0  0  0  0  0  0  0  0
   40.2380   36.5260   40.6490 C   0  0  0  0  0  0  0  0  0  0  0  0
   41.4880   34.6790   40.7520 H   0  0  0  0  0  0  0  0  0  0  0  0
   39.0150   34.6620   41.0070 H   0  0  0  0  0  0  0  0  0  0  0  0
   38.8210   35.4550   39.3080 H   0  0  0  0  0  0  0  0  0  0  0  0
   40.1360   37.4370   40.0350 H   0  0  0  0  0  0  0  0  0  0  0  0
   40.2850   36.7060   41.7390 H   0  0  0  0  0  0  0  0  0  0  0  0
  1  3  1  0  0  0  0
  2  1  1  0  0  0  0
  4  5  1  0  0  0  0
  5  1  1  0  0  0  0
  5  6  2  0  0  0  0
  6 11  1  0  0  0  0
  7  6  1  0  0  0  0
  8  7  2  0  0  0  0
  9  4  2  0  0  0  0
  9  8  1  0  0  0  0
 10  4  1  0  0  0  0
 12 13  1  0  0  0  0
 13  8  1  0  0  0  0
 13 14  2  0  0  0  0
 14 15  1  0  0  0  0
 16 14  1  0  0  0  0
 16 17  1  0  0  0  0
 17 23  1  0  0  0  0
 18 19  1  0  0  0  0
 18 17  1  0  0  0  0
 20 21  1  0  0  0  0
 20 18  2  0  0  0  0
 21 16  2  0  0  0  0
 22 12  2  0  0  0  0
 22 21  1  0  0  0  0
 24  1  1  0  0  0  0
 25 26  1  0  0  0  0
 25 24  1  0  0  0  0
 27 29  1  0  0  0  0
 27 26  1  0  0  0  0
 28 27  1  0  0  0  0
 30 32  1  0  0  0  0
 30 27  1  0  0  0  0
 32 35  1  0  0  0  0
 32 31  2  1  0  0  0
 33 32  1  0  0  0  0
 34 33  1  0  0  0  0
 35 36  1  0  0  0  0
 36 37  1  0  0  0  0
 36 38  1  0  0  0  0
 36 39  1  0  0  0  0
 37 38  1  0  0  0  0
 37 40  1  0  0  0  0
 38 43  1  0  0  0  0
 41 37  1  0  0  0  0
 42 38  1  0  0  0  0
M  END
>  <minimizedAffinity>
-5.60011578

$$$$

 OpenBabel03252504343D

 43 46  0  0  0  0  0  0  0  0999 V2000
   37.1250   33.1930   39.2280 C   0  0  0  0  0  0  0  0  0  0  0  0
   37.6870   33.2070   38.2230 H   0  0  0  0  0  0  0  0  0  0  0  0
   36.0880   33.3860   38.9920 H   0  0  0  0  0  0  0  0  0  0  0  0
   36.6000   31.3610   40.7550 C   0  0  0  0  0  0  0  0  0  0  0  0
   37.2350   31.7310   39.5780 C   0  0  0  0  0  0  0  0  0  0  0  0
   37.8710   30.7710   38.8490 C   0  0  0  0  0  0  0  0  0  0  0  0
   37.8300   29.5320   39.3360 N   0  0  0  0  0  0  0  0  0  0  0  0
   37.2320   29.1630   40.4500 C   0  0  0  0  0  0  0  0  0  0  0  0
   36.5710   30.1160   41.2240 N   0  0  0  0  0  0  0  0  0  0  0  0
   36.0700   32.0490   41.4010 H   0  0  0  0  0  0  0  0  0  0  0  0
   38.3470   31.1080   37.9460 H   0  0  0  0  0  0  0  0  0  0  0  0
   37.0230   27.4780   42.2440 C   0  0  0  0  0  3  0  0  0  0  0  0
   37.2340   27.7790   40.9140 C   0  0  0  0  0  0  0  0  0  0  0  0
   37.4570   26.8140   39.9530 C   0  0  0  0  0  0  0  0  0  0  0  0
   37.6210   27.0620   38.9140 H   0  0  0  0  0  0  0  0  0  0  0  0
   37.4690   25.4900   40.3400 C   0  0  0  0  0  0  0  0  0  0  0  0
   37.6570   24.3470   39.6370 N   0  0  0  0  0  0  0  0  0  0  0  0
   37.5680   23.3150   40.5110 C   0  0  0  0  0  0  0  0  0  0  0  0
   37.6600   22.2480   40.3410 H   0  0  0  0  0  0  0  0  0  0  0  0
   37.3280   23.8010   41.7420 N   0  0  0  0  0  0  0  0  0  0  0  0
   37.2580   25.1630   41.6770 C   0  0  0  0  0  0  0  0  0  0  0  0
   37.0370   26.1510   42.6220 C   0  0  0  0  0  3  0  0  0  0  0  0
   37.8410   24.2350   38.6110 H   0  0  0  0  0  0  0  0  0  0  0  0
   37.8200   34.0130   40.0550 O   0  0  0  0  0  0  0  0  0  0  0  0
   39.1840   34.2500   40.1180 C   0  0  0  0  0  2  0  0  0  0  0  0
   39.5230   35.4370   40.6520 C   0  0  0  0  0  2  0  0  0  0  0  0
   40.9400   35.9310   40.8230 C   0  0  0  0  0  0  0  0  0  0  0  0
   41.1690   36.1160   41.8850 H   0  0  0  0  0  0  0  0  0  0  0  0
   40.9850   36.9110   40.3190 H   0  0  0  0  0  0  0  0  0  0  0  0
   41.7830   35.0430   40.2020 O   0  0  0  0  0  0  0  0  0  0  0  0
   43.2870   35.4780   42.3550 O   0  0  0  0  0  0  0  0  0  0  0  0
   42.9310   34.4630   41.2940 P   0  0  1  0  0  0  0  0  0  0  0  0
   42.3190   33.0900   42.1000 O   0  0  0  0  0  0  0  0  0  0  0  0
   41.7460   32.5940   41.4540 H   0  0  0  0  0  0  0  0  0  0  0  0
   44.3170   33.9740   40.4710 O   0  0  0  0  0  0  0  0  0  0  0  0
   44.1590   34.0020   39.1020 C   0  0  0  0  0  0  0  0  0  0  0  0
   43.9480   32.7160   38.3640 C   0  0  0  0  0  0  0  0  0  0  0  0
   45.2950   33.4120   38.3040 C   0  0  0  0  0  0  0  0  0  0  0  0
   43.6990   34.9200   38.7000 H   0  0  0  0  0  0  0  0  0  0  0  0
   43.2860   32.7950   37.4780 H   0  0  0  0  0  0  0  0  0  0  0  0
   43.9000   31.8070   38.9610 H   0  0  0  0  0  0  0  0  0  0  0  0
   46.1250   32.9100   38.8290 H   0  0  0  0  0  0  0  0  0  0  0  0
   45.5660   33.8470   37.3240 H   0  0  0  0  0  0  0  0  0  0  0  0
  1  5  1  0  0  0  0
  1 24  1  0  0  0  0
  2  1  1  0  0  0  0
  3  1  1  0  0  0  0
  4  9  1  0  0  0  0
  4 10  1  0  0  0  0
  5  4  2  0  0  0  0
  6  7  2  0  0  0  0
  6  5  1  0  0  0  0
  7  8  1  0  0  0  0
  8 13  1  0  0  0  0
  8  9  2  0  0  0  0
 11  6  1  0  0  0  0
 12 22  1  0  0  0  0
 13 12  2  0  0  0  0
 14 16  2  0  0  0  0
 14 13  1  0  0  0  0
 15 14  1  0  0  0  0
 16 21  1  0  0  0  0
 17 16  1  0  0  0  0
 17 18  1  0  0  0  0
 18 20  2  0  0  0  0
 19 18  1  0  0  0  0
 21 20  1  0  0  0  0
 21 22  2  0  0  0  0
 23 17  1  0  0  0  0
 24 25  1  0  0  0  0
 25 26  1  0  0  0  0
 26 27  1  0  0  0  0
 27 28  1  0  0  0  0
 29 27  1  0  0  0  0
 30 27  1  0  0  0  0
 30 32  1  0  0  0  0
 32 33  1  0  0  0  0
 32 31  2  1  0  0  0
 34 33  1  0  0  0  0
 35 32  1  0  0  0  0
 36 35  1  0  0  0  0
 37 41  1  0  0  0  0
 37 36  1  0  0  0  0
 38 37  1  0  0  0  0
 38 42  1  0  0  0  0
 38 36  1  0  0  0  0
 39 36  1  0  0  0  0
 40 37  1  0  0  0  0
 43 38  1  0  0  0  0
M  END
>  <minimizedAffinity>
-5.58565569

$$$$

 OpenBabel03252504343D

 43 46  0  0  0  0  0  0  0  0999 V2000
   37.2620   33.3380   39.1370 C   0  0  0  0  0  0  0  0  0  0  0  0
   37.9760   33.3310   38.2340 H   0  0  0  0  0  0  0  0  0  0  0  0
   36.2670   33.4530   38.7290 H   0  0  0  0  0  0  0  0  0  0  0  0
   36.5190   31.5350   40.6070 C   0  0  0  0  0  0  0  0  0  0  0  0
   37.3910   31.9070   39.5940 C   0  0  0  0  0  0  0  0  0  0  0  0
   38.2530   30.9750   39.0990 C   0  0  0  0  0  0  0  0  0  0  0  0
   38.1860   29.7590   39.6390 N   0  0  0  0  0  0  0  0  0  0  0  0
   37.3650   29.3890   40.6000 C   0  0  0  0  0  0  0  0  0  0  0  0
   36.4690   30.3140   41.1330 N   0  0  0  0  0  0  0  0  0  0  0  0
   35.8000   32.2030   41.0650 H   0  0  0  0  0  0  0  0  0  0  0  0
   38.9070   31.3130   38.3160 H   0  0  0  0  0  0  0  0  0  0  0  0
   36.9380   27.7840   42.4280 C   0  0  0  0  0  3  0  0  0  0  0  0
   37.3570   28.0320   41.1370 C   0  0  0  0  0  0  0  0  0  0  0  0
   37.7870   27.0350   40.2840 C   0  0  0  0  0  0  0  0  0  0  0  0
   38.1120   27.2420   39.2750 H   0  0  0  0  0  0  0  0  0  0  0  0
   37.7980   25.7350   40.7430 C   0  0  0  0  0  0  0  0  0  0  0  0
   38.1580   24.5720   40.1490 N   0  0  0  0  0  0  0  0  0  0  0  0
   37.9730   23.5800   41.0550 C   0  0  0  0  0  0  0  0  0  0  0  0
   38.1450   22.5140   40.9640 H   0  0  0  0  0  0  0  0  0  0  0  0
   37.5030   24.1110   42.1980 N   0  0  0  0  0  0  0  0  0  0  0  0
   37.3790   25.4620   42.0440 C   0  0  0  0  0  0  0  0  0  0  0  0
   36.9530   26.4800   42.8790 C   0  0  0  0  0  3  0  0  0  0  0  0
   38.5190   24.4210   39.1770 H   0  0  0  0  0  0  0  0  0  0  0  0
   37.7710   34.2440   40.0080 O   0  0  0  0  0  0  0  0  0  0  0  0
   38.9870   34.2400   40.6720 C   0  0  0  0  0  2  0  0  0  0  0  0
   39.9830   34.8690   40.0230 C   0  0  0  0  0  2  0  0  0  0  0  0
   41.3990   34.9950   40.5330 C   0  0  0  0  0  0  0  0  0  0  0  0
   41.4310   34.9220   41.6330 H   0  0  0  0  0  0  0  0  0  0  0  0
   41.7260   36.0180   40.2800 H   0  0  0  0  0  0  0  0  0  0  0  0
   42.1780   34.0760   39.8750 O   0  0  0  0  0  0  0  0  0  0  0  0
   43.9240   32.1750   40.5300 O   0  0  0  0  0  0  0  0  0  0  0  0
   42.6160   32.8250   40.9190 P   0  0  1  0  0  0  0  0  0  0  0  0
   42.8110   33.4350   42.5000 O   0  0  0  0  0  0  0  0  0  0  0  0
   42.1450   34.1650   42.6230 H   0  0  0  0  0  0  0  0  0  0  0  0
   41.3920   31.6700   40.9850 O   0  0  0  0  0  0  0  0  0  0  0  0
   41.2100   31.1600   42.2530 C   0  0  0  0  0  0  0  0  0  0  0  0
   40.6240   29.7920   42.4140 C   0  0  0  0  0  0  0  0  0  0  0  0
   39.7760   31.0180   42.6980 C   0  0  0  0  0  0  0  0  0  0  0  0
   41.9290   31.5160   43.0100 H   0  0  0  0  0  0  0  0  0  0  0  0
   41.0130   29.2210   43.2810 H   0  0  0  0  0  0  0  0  0  0  0  0
   40.3920   29.2450   41.5010 H   0  0  0  0  0  0  0  0  0  0  0  0
   38.9620   31.2230   41.9820 H   0  0  0  0  0  0  0  0  0  0  0  0
   39.5090   31.1800   43.7590 H   0  0  0  0  0  0  0  0  0  0  0  0
  1  5  1  0  0  0  0
  1 24  1  0  0  0  0
  2  1  1  0  0  0  0
  3  1  1  0  0  0  0
  4 10  1  0  0  0  0
  4  9  1  0  0  0  0
  5  4  2  0  0  0  0
  6  5  1  0  0  0  0
  6  7  2  0  0  0  0
  7  8  1  0  0  0  0
  8  9  2  0  0  0  0
  8 13  1  0  0  0  0
 11  6  1  0  0  0  0
 12 22  1  0  0  0  0
 13 12  2  0  0  0  0
 14 16  2  0  0  0  0
 14 13  1  0  0  0  0
 15 14  1  0  0  0  0
 16 21  1  0  0  0  0
 17 16  1  0  0  0  0
 17 18  1  0  0  0  0
 18 20  2  0  0  0  0
 19 18  1  0  0  0  0
 21 20  1  0  0  0  0
 21 22  2  0  0  0  0
 23 17  1  0  0  0  0
 24 25  1  0  0  0  0
 26 27  1  0  0  0  0
 26 25  1  0  0  0  0
 27 28  1  0  0  0  0
 29 27  1  0  0  0  0
 30 27  1  0  0  0  0
 30 32  1  0  0  0  0
 32 31  2  6  0  0  0
 32 35  1  0  0  0  0
 32 33  1  0  0  0  0
 33 34  1  0  0  0  0
 35 36  1  0  0  0  0
 36 37  1  0  0  0  0
 36 38  1  0  0  0  0
 36 39  1  0  0  0  0
 37 38  1  0  0  0  0
 37 40  1  0  0  0  0
 38 43  1  0  0  0  0
 41 37  1  0  0  0  0
 42 38  1  0  0  0  0
M  END
>  <minimizedAffinity>
-5.46593237

$$$$

 OpenBabel03252504343D

 43 46  0  0  0  0  0  0  0  0999 V2000
   37.2960   29.1240   42.3940 C   0  0  0  0  0  0  0  0  0  0  0  0
   36.7050   29.0930   43.3810 H   0  0  0  0  0  0  0  0  0  0  0  0
   38.3290   29.2830   42.6710 H   0  0  0  0  0  0  0  0  0  0  0  0
   37.0720   27.4950   40.5880 C   0  0  0  0  0  0  0  0  0  0  0  0
   37.1700   27.6860   41.9590 C   0  0  0  0  0  0  0  0  0  0  0  0
   37.1610   26.5930   42.7730 C   0  0  0  0  0  0  0  0  0  0  0  0
   37.0570   25.4080   42.1740 N   0  0  0  0  0  0  0  0  0  0  0  0
   36.9630   25.2090   40.8760 C   0  0  0  0  0  0  0  0  0  0  0  0
   36.9680   26.3010   40.0100 N   0  0  0  0  0  0  0  0  0  0  0  0
   37.0690   28.2980   39.8620 H   0  0  0  0  0  0  0  0  0  0  0  0
   37.2390   26.7940   43.8260 H   0  0  0  0  0  0  0  0  0  0  0  0
   35.8640   23.5760   39.3830 C   0  0  0  0  0  3  0  0  0  0  0  0
   36.8530   23.8720   40.2990 C   0  0  0  0  0  0  0  0  0  0  0  0
   37.7830   22.9450   40.7230 C   0  0  0  0  0  0  0  0  0  0  0  0
   38.5530   23.1900   41.4420 H   0  0  0  0  0  0  0  0  0  0  0  0
   37.7220   21.6670   40.2080 C   0  0  0  0  0  0  0  0  0  0  0  0
   38.4830   20.5690   40.4300 N   0  0  0  0  0  0  0  0  0  0  0  0
   37.9860   19.5700   39.6600 C   0  0  0  0  0  0  0  0  0  0  0  0
   38.3150   18.5420   39.5550 H   0  0  0  0  0  0  0  0  0  0  0  0
   36.9310   20.0330   38.9660 N   0  0  0  0  0  0  0  0  0  0  0  0
   36.7330   21.3470   39.2820 C   0  0  0  0  0  0  0  0  0  0  0  0
   35.8110   22.2950   38.8730 C   0  0  0  0  0  3  0  0  0  0  0  0
   39.3080   20.4640   41.0680 H   0  0  0  0  0  0  0  0  0  0  0  0
   36.6410   30.0020   41.5940 O   0  0  0  0  0  0  0  0  0  0  0  0
   37.1000   31.1710   41.0090 C   0  0  0  0  0  2  0  0  0  0  0  0
   36.8460   31.2760   39.6920 C   0  0  0  0  0  2  0  0  0  0  0  0
   37.2490   32.4470   38.8280 C   0  0  0  0  0  0  0  0  0  0  0  0
   37.6800   33.2590   39.4380 H   0  0  0  0  0  0  0  0  0  0  0  0
   36.3150   32.8440   38.3960 H   0  0  0  0  0  0  0  0  0  0  0  0
   38.0700   31.9830   37.8300 O   0  0  0  0  0  0  0  0  0  0  0  0
   40.2960   30.7320   38.5860 O   0  0  0  0  0  0  0  0  0  0  0  0
   39.6860   32.0860   38.3050 P   0  0  1  0  0  0  0  0  0  0  0  0
   40.6080   32.8020   37.0610 O   0  0  0  0  0  0  0  0  0  0  0  0
   40.0310   33.4770   36.6110 H   0  0  0  0  0  0  0  0  0  0  0  0
   39.8290   33.0800   39.6570 O   0  0  0  0  0  0  0  0  0  0  0  0
   40.5870   34.2050   39.4110 C   0  0  0  0  0  0  0  0  0  0  0  0
   41.3090   34.8630   40.5460 C   0  0  0  0  0  0  0  0  0  0  0  0
   40.0460   35.4910   39.9860 C   0  0  0  0  0  0  0  0  0  0  0  0
   41.0300   34.2630   38.4020 H   0  0  0  0  0  0  0  0  0  0  0  0
   42.2800   35.3220   40.2720 H   0  0  0  0  0  0  0  0  0  0  0  0
   41.2210   34.3930   41.5250 H   0  0  0  0  0  0  0  0  0  0  0  0
   39.1580   35.4630   40.6390 H   0  0  0  0  0  0  0  0  0  0  0  0
   40.1870   36.4420   39.4380 H   0  0  0  0  0  0  0  0  0  0  0  0
  1  3  1  0  0  0  0
  1  2  1  0  0  0  0
  4  5  1  0  0  0  0
  5  1  1  0  0  0  0
  5  6  2  0  0  0  0
  6 11  1  0  0  0  0
  7  6  1  0  0  0  0
  8  7  2  0  0  0  0
  9  4  2  0  0  0  0
  9  8  1  0  0  0  0
 10  4  1  0  0  0  0
 12 13  1  0  0  0  0
 13 14  2  0  0  0  0
 13  8  1  0  0  0  0
 14 15  1  0  0  0  0
 16 17  1  0  0  0  0
 16 14  1  0  0  0  0
 17 23  1  0  0  0  0
 18 17  1  0  0  0  0
 19 18  1  0  0  0  0
 20 21  1  0  0  0  0
 20 18  2  0  0  0  0
 21 16  2  0  0  0  0
 22 21  1  0  0  0  0
 22 12  2  0  0  0  0
 24  1  1  0  0  0  0
 25 24  1  0  0  0  0
 26 25  1  0  0  0  0
 27 28  1  0  0  0  0
 27 26  1  0  0  0  0
 29 27  1  0  0  0  0
 30 32  1  0  0  0  0
 30 27  1  0  0  0  0
 32 31  2  1  0  0  0
 32 35  1  0  0  0  0
 33 32  1  0  0  0  0
 34 33  1  0  0  0  0
 36 35  1  0  0  0  0
 36 38  1  0  0  0  0
 36 37  1  0  0  0  0
 37 41  1  0  0  0  0
 38 37  1  0  0  0  0
 38 42  1  0  0  0  0
 39 36  1  0  0  0  0
 40 37  1  0  0  0  0
 43 38  1  0  0  0  0
M  END
>  <minimizedAffinity>
-5.45132971

$$$$

 OpenBabel03252504343D

 43 46  0  0  0  0  0  0  0  0999 V2000
   40.2390   25.6640   43.8230 C   0  0  0  0  0  0  0  0  0  0  0  0
   41.2840   25.6670   43.3400 H   0  0  0  0  0  0  0  0  0  0  0  0
   40.4010   25.8050   44.8830 H   0  0  0  0  0  0  0  0  0  0  0  0
   40.5060   27.6050   42.3660 C   0  0  0  0  0  0  0  0  0  0  0  0
   39.6890   26.9590   43.2830 C   0  0  0  0  0  0  0  0  0  0  0  0
   38.4880   27.5200   43.5980 C   0  0  0  0  0  0  0  0  0  0  0  0
   38.1910   28.6670   42.9870 N   0  0  0  0  0  0  0  0  0  0  0  0
   38.9530   29.2930   42.1150 C   0  0  0  0  0  0  0  0  0  0  0  0
   40.1890   28.7500   41.7670 N   0  0  0  0  0  0  0  0  0  0  0  0
   41.4760   27.2390   42.0530 H   0  0  0  0  0  0  0  0  0  0  0  0
   37.8930   26.9820   44.3120 H   0  0  0  0  0  0  0  0  0  0  0  0
   37.3390   30.6590   40.8380 C   0  0  0  0  0  3  0  0  0  0  0  0
   38.5510   30.5490   41.4890 C   0  0  0  0  0  0  0  0  0  0  0  0
   39.4460   31.5950   41.5900 C   0  0  0  0  0  0  0  0  0  0  0  0
   40.3920   31.4960   42.1020 H   0  0  0  0  0  0  0  0  0  0  0  0
   39.1130   32.8040   41.0150 C   0  0  0  0  0  0  0  0  0  0  0  0
   39.7740   33.9850   40.9530 N   0  0  0  0  0  0  0  0  0  0  0  0
   38.9910   34.8510   40.2650 C   0  0  0  0  0  0  0  0  0  0  0  0
   39.1630   35.8890   40.0030 H   0  0  0  0  0  0  0  0  0  0  0  0
   37.8570   34.2250   39.9010 N   0  0  0  0  0  0  0  0  0  0  0  0
   37.8940   32.9380   40.3530 C   0  0  0  0  0  0  0  0  0  0  0  0
   37.0150   31.8720   40.2660 C   0  0  0  0  0  3  0  0  0  0  0  0
   40.7140   34.2280   41.3460 H   0  0  0  0  0  0  0  0  0  0  0  0
   39.6130   24.5570   43.3510 O   0  0  0  0  0  0  0  0  0  0  0  0
   39.1920   24.2660   42.0640 C   0  0  0  0  0  2  0  0  0  0  0  0
   37.8580   24.1850   41.9150 C   0  0  0  0  0  2  0  0  0  0  0  0
   37.1540   23.8740   40.6150 C   0  0  0  0  0  0  0  0  0  0  0  0
   36.6700   22.8840   40.6540 H   0  0  0  0  0  0  0  0  0  0  0  0
   37.9440   23.8050   39.8480 H   0  0  0  0  0  0  0  0  0  0  0  0
   36.3070   24.9150   40.3250 O   0  0  0  0  0  0  0  0  0  0  0  0
   38.0000   26.8960   39.7770 O   0  0  0  0  0  0  0  0  0  0  0  0
   37.0040   25.9330   39.1740 P   0  0  1  0  0  0  0  0  0  0  0  0
   37.8440   25.0040   38.0160 O   0  0  0  0  0  0  0  0  0  0  0  0
   37.3420   24.1520   37.8940 H   0  0  0  0  0  0  0  0  0  0  0  0
   35.8040   26.7800   38.3490 O   0  0  0  0  0  0  0  0  0  0  0  0
   35.6250   28.0570   38.8370 C   0  0  0  0  0  0  0  0  0  0  0  0
   34.3610   28.7920   38.5120 C   0  0  0  0  0  0  0  0  0  0  0  0
   35.6530   29.1570   37.8050 C   0  0  0  0  0  0  0  0  0  0  0  0
   36.1230   28.2680   39.7980 H   0  0  0  0  0  0  0  0  0  0  0  0
   34.0020   29.4700   39.3130 H   0  0  0  0  0  0  0  0  0  0  0  0
   33.6190   28.2600   37.9180 H   0  0  0  0  0  0  0  0  0  0  0  0
   35.7120   28.8970   36.7350 H   0  0  0  0  0  0  0  0  0  0  0  0
   36.0780   30.1450   38.0640 H   0  0  0  0  0  0  0  0  0  0  0  0
  1  3  1  0  0  0  0
  2  1  1  0  0  0  0
  4  5  1  0  0  0  0
  5  6  2  0  0  0  0
  5  1  1  0  0  0  0
  6 11  1  0  0  0  0
  7  6  1  0  0  0  0
  8  7  2  0  0  0  0
  9  8  1  0  0  0  0
  9  4  2  0  0  0  0
 10  4  1  0  0  0  0
 12 13  1  0  0  0  0
 13 14  2  0  0  0  0
 13  8  1  0  0  0  0
 14 15  1  0  0  0  0
 16 14  1  0  0  0  0
 17 16  1  0  0  0  0
 17 23  1  0  0  0  0
 18 17  1  0  0  0  0
 19 18  1  0  0  0  0
 20 18  2  0  0  0  0
 20 21  1  0  0  0  0
 21 16  2  0  0  0  0
 22 21  1  0  0  0  0
 22 12  2  0  0  0  0
 24  1  1  0  0  0  0
 25 24  1  0  0  0  0
 26 25  1  0  0  0  0
 27 28  1  0  0  0  0
 27 26  1  0  0  0  0
 29 27  1  0  0  0  0
 30 27  1  0  0  0  0
 32 31  2  1  0  0  0
 32 30  1  0  0  0  0
 33 32  1  0  0  0  0
 34 33  1  0  0  0  0
 35 36  1  0  0  0  0
 35 32  1  0  0  0  0
 36 39  1  0  0  0  0
 37 36  1  0  0  0  0
 37 40  1  0  0  0  0
 38 43  1  0  0  0  0
 38 37  1  0  0  0  0
 38 36  1  0  0  0  0
 41 37  1  0  0  0  0
 42 38  1  0  0  0  0
M  END
>  <minimizedAffinity>
-5.45075369

$$$$

 OpenBabel03252504343D

 43 46  0  0  0  0  0  0  0  0999 V2000
   34.1930   27.6040   37.6880 C   0  0  0  0  0  0  0  0  0  0  0  0
   33.8100   27.0150   38.6000 H   0  0  0  0  0  0  0  0  0  0  0  0
   33.3310   28.1130   37.2790 H   0  0  0  0  0  0  0  0  0  0  0  0
   35.8120   29.4250   37.5280 C   0  0  0  0  0  0  0  0  0  0  0  0
   35.0380   28.6470   38.3760 C   0  0  0  0  0  0  0  0  0  0  0  0
   35.0890   28.8900   39.7160 C   0  0  0  0  0  0  0  0  0  0  0  0
   35.8950   29.8760   40.1090 N   0  0  0  0  0  0  0  0  0  0  0  0
   36.6350   30.6250   39.3190 C   0  0  0  0  0  0  0  0  0  0  0  0
   36.6110   30.4060   37.9420 N   0  0  0  0  0  0  0  0  0  0  0  0
   35.8400   29.3080   36.4520 H   0  0  0  0  0  0  0  0  0  0  0  0
   34.4710   28.2610   40.3290 H   0  0  0  0  0  0  0  0  0  0  0  0
   38.4640   31.4210   40.7760 C   0  0  0  0  0  3  0  0  0  0  0  0
   37.4930   31.6880   39.8330 C   0  0  0  0  0  0  0  0  0  0  0  0
   37.2710   32.9510   39.3230 C   0  0  0  0  0  0  0  0  0  0  0  0
   36.5060   33.1480   38.5850 H   0  0  0  0  0  0  0  0  0  0  0  0
   38.0550   33.9920   39.7770 C   0  0  0  0  0  0  0  0  0  0  0  0
   38.0700   35.3100   39.4670 N   0  0  0  0  0  0  0  0  0  0  0  0
   39.0470   35.8890   40.2080 C   0  0  0  0  0  0  0  0  0  0  0  0
   39.3710   36.9230   40.2480 H   0  0  0  0  0  0  0  0  0  0  0  0
   39.6350   34.9490   40.9700 N   0  0  0  0  0  0  0  0  0  0  0  0
   39.0410   33.7440   40.7280 C   0  0  0  0  0  0  0  0  0  0  0  0
   39.2430   32.4670   41.2240 C   0  0  0  0  0  3  0  0  0  0  0  0
   37.4600   35.8290   38.7900 H   0  0  0  0  0  0  0  0  0  0  0  0
   34.9040   26.7190   36.9450 O   0  0  0  0  0  0  0  0  0  0  0  0
   35.9310   25.8730   37.3290 C   0  0  0  0  0  2  0  0  0  0  0  0
   35.7070   25.2010   38.4730 C   0  0  0  0  0  2  0  0  0  0  0  0
   36.6740   24.2260   39.1020 C   0  0  0  0  0  0  0  0  0  0  0  0
   36.8820   23.3820   38.4230 H   0  0  0  0  0  0  0  0  0  0  0  0
   36.1540   23.8010   39.9770 H   0  0  0  0  0  0  0  0  0  0  0  0
   37.7850   24.9230   39.5070 O   0  0  0  0  0  0  0  0  0  0  0  0
   36.6490   24.4000   41.8580 O   0  0  0  0  0  0  0  0  0  0  0  0
   37.7220   25.2110   41.1690 P   0  0  1  0  0  0  0  0  0  0  0  0
   39.2100   24.7820   41.8840 O   0  0  0  0  0  0  0  0  0  0  0  0
   39.9290   24.9900   41.2280 H   0  0  0  0  0  0  0  0  0  0  0  0
   37.4890   26.8530   41.4640 O   0  0  0  0  0  0  0  0  0  0  0  0
   37.7400   27.1970   42.7750 C   0  0  0  0  0  0  0  0  0  0  0  0
   36.5900   27.5310   43.6750 C   0  0  0  0  0  0  0  0  0  0  0  0
   37.4740   28.6390   43.1310 C   0  0  0  0  0  0  0  0  0  0  0  0
   38.6380   26.7360   43.2190 H   0  0  0  0  0  0  0  0  0  0  0  0
   36.7300   27.2330   44.7330 H   0  0  0  0  0  0  0  0  0  0  0  0
   35.5920   27.4560   43.2470 H   0  0  0  0  0  0  0  0  0  0  0  0
   37.0120   29.3060   42.3840 H   0  0  0  0  0  0  0  0  0  0  0  0
   38.1130   29.1500   43.8750 H   0  0  0  0  0  0  0  0  0  0  0  0
  1  5  1  0  0  0  0
  1  2  1  0  0  0  0
  3  1  1  0  0  0  0
  4  9  2  0  0  0  0
  4  5  1  0  0  0  0
  5  6  2  0  0  0  0
  6  7  1  0  0  0  0
  6 11  1  0  0  0  0
  8 13  1  0  0  0  0
  8  7  2  0  0  0  0
  9  8  1  0  0  0  0
 10  4  1  0  0  0  0
 12 22  1  0  0  0  0
 13 12  2  0  0  0  0
 14 16  2  0  0  0  0
 14 13  1  0  0  0  0
 15 14  1  0  0  0  0
 16 21  1  0  0  0  0
 17 16  1  0  0  0  0
 17 18  1  0  0  0  0
 18 19  1  0  0  0  0
 18 20  2  0  0  0  0
 21 20  1  0  0  0  0
 21 22  2  0  0  0  0
 23 17  1  0  0  0  0
 24 25  1  0  0  0  0
 24  1  1  0  0  0  0
 25 26  1  0  0  0  0
 26 27  1  0  0  0  0
 27 30  1  0  0  0  0
 27 29  1  0  0  0  0
 28 27  1  0  0  0  0
 30 32  1  0  0  0  0
 32 35  1  0  0  0  0
 32 31  2  1  0  0  0
 32 33  1  0  0  0  0
 34 33  1  0  0  0  0
 35 36  1  0  0  0  0
 36 38  1  0  0  0  0
 36 39  1  0  0  0  0
 36 37  1  0  0  0  0
 37 40  1  0  0  0  0
 38 37  1  0  0  0  0
 38 43  1  0  0  0  0
 41 37  1  0  0  0  0
 42 38  1  0  0  0  0
M  END
>  <minimizedAffinity>
-5.42675734

$$$$
