
 OpenBabel03252509083D

 44 48  0  0  0  0  0  0  0  0999 V2000
   48.0800   31.5230   38.6910 C   0  0  0  0  0  0  0  0  0  0  0  0
   47.4450   32.2390   37.7190 C   0  0  0  0  0  0  0  0  0  0  0  0
   46.7170   33.3660   38.0640 C   0  0  0  0  0  0  0  0  0  0  0  0
   46.6310   33.7670   39.3780 C   0  0  0  0  0  0  0  0  0  0  0  0
   47.2640   33.0640   40.3980 C   0  0  0  0  0  0  0  0  0  0  0  0
   47.9930   31.9290   40.0260 C   0  0  0  0  0  0  0  0  0  0  0  0
   46.2040   33.9520   37.3090 H   0  0  0  0  0  0  0  0  0  0  0  0
   46.0940   34.6200   39.7300 H   0  0  0  0  0  0  0  0  0  0  0  0
   47.2530   33.3010   41.4460 H   0  0  0  0  0  0  0  0  0  0  0  0
   48.5010   31.3560   40.8000 H   0  0  0  0  0  0  0  0  0  0  0  0
   45.3590   29.8160   33.6670 Cl  0  0  0  0  0  0  0  0  0  0  0  0
   46.5660   30.8060   34.4460 C   0  0  0  0  0  0  0  0  0  0  0  0
   46.4790   31.1050   35.7680 C   0  0  0  0  0  0  0  0  0  0  0  0
   47.4820   31.9060   36.3030 C   0  0  0  0  0  0  0  0  0  0  0  0
   48.5140   32.3810   35.5360 C   0  0  0  0  0  0  0  0  0  0  0  0
   48.5880   32.0730   34.2150 C   0  0  0  0  0  0  0  0  0  0  0  0
   47.6000   31.2750   33.6690 C   0  0  0  0  0  0  0  0  0  0  0  0
   49.2670   33.0040   36.0090 H   0  0  0  0  0  0  0  0  0  0  0  0
   49.4140   32.4640   33.6500 H   0  0  0  0  0  0  0  0  0  0  0  0
   47.6900   31.0500   32.6150 H   0  0  0  0  0  0  0  0  0  0  0  0
   43.1310   30.8060   37.5030 C   0  0  0  0  0  0  0  0  0  0  0  0
   44.2000   31.3100   36.7550 C   0  0  0  0  0  0  0  0  0  0  0  0
   45.3660   30.5940   36.5460 C   0  0  0  0  0  0  0  0  0  0  0  0
   45.3640   29.3880   37.1250 N   0  0  0  0  0  0  0  0  0  0  0  0
   44.3570   28.8890   37.8410 C   0  0  0  0  0  0  0  0  0  0  0  0
   43.2480   29.5880   38.0310 N   0  0  0  0  0  0  0  0  0  0  0  0
   42.2420   31.4020   37.6380 H   0  0  0  0  0  0  0  0  0  0  0  0
   44.1160   32.3100   36.3160 H   0  0  0  0  0  0  0  0  0  0  0  0
   44.5540   27.8880   38.2270 H   0  0  0  0  0  0  0  0  0  0  0  0
   48.9620   30.1270   38.3350 S   0  0  0  0  0  0  0  0  0  0  0  0
   48.1460   28.8870   38.7860 O   0  0  0  0  0  0  0  0  0  0  0  0
   48.9660   30.0040   36.8130 O   0  0  0  0  0  0  0  0  0  0  0  0
   51.2090   28.5690   38.5990 C   0  0  0  0  0  3  0  0  0  0  0  0
   50.4890   29.7320   38.9940 C   0  0  0  0  0  0  0  0  0  0  0  0
   51.2830   30.4340   39.8920 C   0  0  0  0  0  0  0  0  0  0  0  0
   50.8710   31.3630   40.2540 H   0  0  0  0  0  0  0  0  0  0  0  0
   52.5230   30.1280   40.3570 C   0  0  0  0  0  0  0  0  0  0  0  0
   53.3680   30.7200   41.2120 N   0  0  0  0  0  0  0  0  0  0  0  0
   54.4710   29.9190   41.2690 C   0  0  0  0  0  0  0  0  0  0  0  0
   55.3310   30.1460   41.8870 H   0  0  0  0  0  0  0  0  0  0  0  0
   54.2900   28.8460   40.4500 N   0  0  0  0  0  0  0  0  0  0  0  0
   53.0760   28.9640   39.8730 C   0  0  0  0  0  0  0  0  0  0  0  0
   52.4600   28.1280   38.9770 C   0  0  0  0  0  3  0  0  0  0  0  0
   53.1990   31.6080   41.7170 H   0  0  0  0  0  0  0  0  0  0  0  0
  1  6  1  0  0  0  0
  2  3  1  0  0  0  0
  2  1  2  0  0  0  0
  3  4  2  0  0  0  0
  4  8  1  0  0  0  0
  4  5  1  0  0  0  0
  5  9  1  0  0  0  0
  6  5  2  0  0  0  0
  6 10  1  0  0  0  0
  7  3  1  0  0  0  0
 11 12  1  0  0  0  0
 12 13  1  0  0  0  0
 13 14  2  0  0  0  0
 13 23  1  0  0  0  0
 14  2  1  0  0  0  0
 15 18  1  0  0  0  0
 15 14  1  0  0  0  0
 16 15  2  0  0  0  0
 17 16  1  0  0  0  0
 17 12  2  0  0  0  0
 19 16  1  0  0  0  0
 20 17  1  0  0  0  0
 21 27  1  0  0  0  0
 21 26  1  0  0  0  0
 22 21  2  0  0  0  0
 23 22  1  0  0  0  0
 23 24  2  0  0  0  0
 24 25  1  0  0  0  0
 25 26  2  0  0  0  0
 25 29  1  0  0  0  0
 28 22  1  0  0  0  0
 30  1  1  0  0  0  0
 30 31  2  0  0  0  0
 30 34  1  0  0  0  0
 32 30  2  0  0  0  0
 33 43  2  0  0  0  0
 33 34  1  0  0  0  0
 34 35  2  0  0  0  0
 35 36  1  0  0  0  0
 35 37  1  0  0  0  0
 37 38  1  0  0  0  0
 38 39  1  0  0  0  0
 38 44  1  0  0  0  0
 39 40  1  0  0  0  0
 41 39  2  0  0  0  0
 42 37  2  0  0  0  0
 42 41  1  0  0  0  0
 43 42  1  0  0  0  0
M  END
>  <minimizedAffinity>
-3.29307032

>  <minimizedRMSD>
7.35871983

$$$$
