
 OpenBabel03252507323D

 52 56  0  0  1  0  0  0  0  0999 V2000
   46.9410   32.8070   45.4910 C   0  0  0  0  0  0  0  0  0  0  0  0
   45.8440   33.4810   46.0050 C   0  0  0  0  0  0  0  0  0  0  0  0
   45.1630   34.4240   45.1980 C   0  0  0  0  0  0  0  0  0  0  0  0
   45.6620   34.6130   43.9120 N   0  0  0  0  0  0  0  0  0  0  0  0
   46.7260   33.9320   43.4800 C   0  0  0  0  0  0  0  0  0  0  0  0
   47.3550   33.0450   44.2530 N   0  0  0  0  0  0  0  0  0  0  0  0
   45.3290   33.5200   46.9410 H   0  0  0  0  0  0  0  0  0  0  0  0
   44.3100   35.0220   45.4300 H   0  0  0  0  0  0  0  0  0  0  0  0
   47.5900   31.8360   46.3490 C   0  0  2  0  0  0  0  0  0  0  0  0
   47.3600   30.3800   45.8370 C   0  0  0  0  0  0  0  0  0  0  0  0
   48.1790   29.4380   46.6530 C   0  0  0  0  0  0  0  0  0  0  0  0
   48.1550   29.6580   48.1280 C   0  0  0  0  0  0  0  0  0  0  0  0
   48.1370   31.0450   48.5240 C   0  0  0  0  0  0  0  0  0  0  0  0
   47.1380   31.9080   47.7230 C   0  0  2  0  0  0  0  0  0  0  0  0
   48.6970   31.9380   46.2330 H   0  0  0  0  0  0  0  0  0  0  0  0
   46.2890   30.1500   45.7840 H   0  0  0  0  0  0  0  0  0  0  0  0
   47.7300   30.4120   44.7920 H   0  0  0  0  0  0  0  0  0  0  0  0
   49.1760   29.4010   46.1720 H   0  0  0  0  0  0  0  0  0  0  0  0
   47.7470   28.4070   46.4860 H   0  0  0  0  0  0  0  0  0  0  0  0
   47.7860   28.8540   48.7650 H   0  0  0  0  0  0  0  0  0  0  0  0
   49.2700   29.4150   48.3620 H   0  0  0  0  0  0  0  0  0  0  0  0
   49.0890   31.6300   48.4790 H   0  0  0  0  0  0  0  0  0  0  0  0
   47.8080   31.1290   49.5930 H   0  0  0  0  0  0  0  0  0  0  0  0
   47.2440   32.8710   48.2260 H   0  0  0  0  0  0  0  0  0  0  0  0
   45.8060   31.3150   47.8440 N   0  0  0  0  0  0  0  0  0  0  0  0
   45.1420   30.7310   48.9370 C   0  0  0  0  0  0  0  0  0  0  0  0
   44.6110   31.4190   49.8820 O   0  0  0  0  0  0  0  0  0  0  0  0
   45.0940   29.3040   48.9120 N   0  0  0  0  0  0  0  0  0  0  0  0
   45.1490   31.1980   46.9830 H   0  0  0  0  0  0  0  0  0  0  0  0
   44.7910   28.6550   48.1830 H   0  0  0  0  0  0  0  0  0  0  0  0
   45.4100   28.7750   49.7540 H   0  0  0  0  0  0  0  0  0  0  0  0
   47.2140   34.1920   42.1210 C   0  0  0  0  0  0  0  0  0  0  0  0
   48.1730   35.1500   41.8820 C   0  0  0  0  0  0  0  0  0  0  0  0
   48.6800   35.4500   40.6360 C   0  0  0  0  0  0  0  0  0  0  0  0
   48.1510   34.7090   39.6020 C   0  0  0  0  0  0  0  0  0  0  0  0
   47.1940   33.7490   39.8230 C   0  0  0  0  0  0  0  0  0  0  0  0
   46.7250   33.4910   41.0840 N   0  0  0  0  0  0  0  0  0  0  0  0
   48.5400   35.6920   42.7480 H   0  0  0  0  0  0  0  0  0  0  0  0
   49.4230   36.1980   40.4850 H   0  0  0  0  0  0  0  0  0  0  0  0
   48.5150   34.9050   38.6050 H   0  0  0  0  0  0  0  0  0  0  0  0
   47.4430   32.2370   37.9100 C   0  0  0  0  0  3  0  0  0  0  0  0
   46.6150   32.9480   38.7530 C   0  0  0  0  0  0  0  0  0  0  0  0
   45.2740   32.8350   38.5050 C   0  0  0  0  0  0  0  0  0  0  0  0
   44.5790   33.3610   39.1220 H   0  0  0  0  0  0  0  0  0  0  0  0
   44.7290   32.0760   37.4910 C   0  0  0  0  0  0  0  0  0  0  0  0
   43.4470   31.8500   37.1010 N   0  0  0  0  0  0  0  0  0  0  0  0
   43.4760   31.0260   36.0520 C   0  0  0  0  0  0  0  0  0  0  0  0
   42.5570   30.7030   35.5660 H   0  0  0  0  0  0  0  0  0  0  0  0
   44.7740   30.7260   35.7690 N   0  0  0  0  0  0  0  0  0  0  0  0
   45.5760   31.3660   36.6490 C   0  0  0  0  0  0  0  0  0  0  0  0
   46.9320   31.4550   36.8700 C   0  0  0  0  0  3  0  0  0  0  0  0
   42.6070   32.2620   37.5640 H   0  0  0  0  0  0  0  0  0  0  0  0
  1  2  1  0  0  0  0
  1  9  1  0  0  0  0
  2  7  1  0  0  0  0
  3  8  1  0  0  0  0
  3  2  2  0  0  0  0
  4  3  1  0  0  0  0
  5  4  2  0  0  0  0
  5  6  1  0  0  0  0
  6  1  2  0  0  0  0
  9 15  1  6  0  0  0
  9 14  1  0  0  0  0
 10  9  1  0  0  0  0
 10 11  1  0  0  0  0
 11 12  1  0  0  0  0
 12 21  1  0  0  0  0
 12 13  1  0  0  0  0
 12 20  1  0  0  0  0
 13 23  1  0  0  0  0
 14 25  1  0  0  0  0
 14 24  1  1  0  0  0
 14 13  1  0  0  0  0
 16 10  1  0  0  0  0
 17 10  1  0  0  0  0
 18 11  1  0  0  0  0
 19 11  1  0  0  0  0
 22 13  1  0  0  0  0
 25 26  1  0  0  0  0
 26 27  2  0  0  0  0
 28 26  1  0  0  0  0
 28 31  1  0  0  0  0
 29 25  1  0  0  0  0
 30 28  1  0  0  0  0
 32  5  1  0  0  0  0
 33 32  1  0  0  0  0
 33 38  1  0  0  0  0
 34 33  2  0  0  0  0
 35 36  2  0  0  0  0
 35 34  1  0  0  0  0
 36 37  1  0  0  0  0
 37 32  2  0  0  0  0
 39 34  1  0  0  0  0
 40 35  1  0  0  0  0
 41 42  1  0  0  0  0
 42 36  1  0  0  0  0
 43 42  2  0  0  0  0
 43 44  1  0  0  0  0
 45 43  1  0  0  0  0
 46 45  1  0  0  0  0
 46 52  1  0  0  0  0
 47 46  1  0  0  0  0
 48 47  1  0  0  0  0
 49 47  2  0  0  0  0
 49 50  1  0  0  0  0
 50 51  1  0  0  0  0
 50 45  2  0  0  0  0
 51 41  2  0  0  0  0
M  END
>  <minimizedAffinity>
-6.82606936

>  <minimizedRMSD>
0.152342305

$$$$
