
 OpenBabel03242520273D

 41 44  0  0  0  0  0  0  0  0999 V2000
   39.6460   27.6740   42.5890 C   0  0  0  0  0  0  0  0  0  0  0  0
   38.4830   27.4990   41.7810 C   0  0  0  0  0  0  0  0  0  0  0  0
   37.7910   28.6290   41.3840 C   0  0  0  0  0  0  0  0  0  0  0  0
   38.2460   29.8560   41.7780 N   0  0  0  0  0  0  0  0  0  0  0  0
   39.3430   29.9970   42.5380 C   0  0  0  0  0  0  0  0  0  0  0  0
   40.0320   28.9200   42.9380 N   0  0  0  0  0  0  0  0  0  0  0  0
   40.2120   26.8150   42.9180 H   0  0  0  0  0  0  0  0  0  0  0  0
   39.6440   31.0070   42.8130 H   0  0  0  0  0  0  0  0  0  0  0  0
   38.1540   26.1600   41.4650 N   0  0  0  0  0  0  0  0  0  0  0  0
   37.1380   25.3990   42.1670 C   0  0  0  0  0  0  0  0  0  0  0  0
   36.9560   24.0750   41.5050 C   0  0  0  0  0  0  0  0  0  0  0  0
   38.1890   23.3590   41.3170 N   0  0  0  0  0  0  0  0  0  0  0  0
   39.2340   24.1140   40.7130 C   0  0  0  0  0  0  0  0  0  0  0  0
   38.8850   25.5240   40.3690 C   0  0  0  0  0  0  0  0  0  0  0  0
   36.1700   25.9600   42.0830 H   0  0  0  0  0  0  0  0  0  0  0  0
   37.3410   25.2310   43.2260 H   0  0  0  0  0  0  0  0  0  0  0  0
   36.4980   24.2410   40.4970 H   0  0  0  0  0  0  0  0  0  0  0  0
   36.2830   23.4660   42.1090 H   0  0  0  0  0  0  0  0  0  0  0  0
   37.9900   22.4310   40.9070 H   0  0  0  0  0  0  0  0  0  0  0  0
   40.0900   24.1650   41.4360 H   0  0  0  0  0  0  0  0  0  0  0  0
   39.6540   23.6360   39.7890 H   0  0  0  0  0  0  0  0  0  0  0  0
   39.8180   26.0600   40.1280 H   0  0  0  0  0  0  0  0  0  0  0  0
   38.2010   25.5140   39.4950 H   0  0  0  0  0  0  0  0  0  0  0  0
   36.6660   28.4290   40.6000 O   0  0  0  0  0  0  0  0  0  0  0  0
   34.2760   29.2500   39.8420 O   0  0  0  0  0  0  0  0  0  0  0  0
   35.6810   29.7850   40.1850 P   0  0  1  0  0  0  0  0  0  0  0  0
   35.6230   30.8060   41.4930 O   0  0  0  0  0  0  0  0  0  0  0  0
   36.4500   30.7260   42.0390 H   0  0  0  0  0  0  0  0  0  0  0  0
   36.3200   30.4810   38.7950 O   0  0  0  0  0  0  0  0  0  0  0  0
   37.6330   32.3300   39.4730 C   0  0  0  0  0  3  0  0  0  0  0  0
   37.4950   31.1880   38.7000 C   0  0  0  0  0  0  0  0  0  0  0  0
   38.4970   30.7570   37.8520 C   0  0  0  0  0  0  0  0  0  0  0  0
   38.4270   29.8780   37.2390 H   0  0  0  0  0  0  0  0  0  0  0  0
   39.6710   31.4820   37.7700 C   0  0  0  0  0  0  0  0  0  0  0  0
   40.7880   31.2930   37.0420 N   0  0  0  0  0  0  0  0  0  0  0  0
   41.6010   32.3150   37.3700 C   0  0  0  0  0  0  0  0  0  0  0  0
   42.5870   32.4410   36.9430 H   0  0  0  0  0  0  0  0  0  0  0  0
   41.0070   33.1190   38.2780 N   0  0  0  0  0  0  0  0  0  0  0  0
   39.7840   32.6140   38.5490 C   0  0  0  0  0  0  0  0  0  0  0  0
   38.8130   33.0790   39.4050 C   0  0  0  0  0  3  0  0  0  0  0  0
   40.9490   30.5070   36.3750 H   0  0  0  0  0  0  0  0  0  0  0  0
  1  7  1  0  0  0  0
  1  6  1  0  0  0  0
  2  1  2  0  0  0  0
  3  4  2  0  0  0  0
  3  2  1  0  0  0  0
  4  5  1  0  0  0  0
  5  8  1  0  0  0  0
  5  6  2  0  0  0  0
  9  2  1  0  0  0  0
  9 10  1  0  0  0  0
 10 16  1  0  0  0  0
 11 18  1  0  0  0  0
 11 10  1  0  0  0  0
 12 11  1  0  0  0  0
 13 12  1  0  0  0  0
 13 20  1  0  0  0  0
 14 13  1  0  0  0  0
 14  9  1  0  0  0  0
 15 10  1  0  0  0  0
 17 11  1  0  0  0  0
 19 12  1  0  0  0  0
 21 13  1  0  0  0  0
 22 14  1  0  0  0  0
 23 14  1  0  0  0  0
 24  3  1  0  0  0  0
 26 25  2  6  0  0  0
 26 24  1  0  0  0  0
 26 27  1  0  0  0  0
 27 28  1  0  0  0  0
 29 26  1  0  0  0  0
 31 29  1  0  0  0  0
 31 30  2  0  0  0  0
 32 31  1  0  0  0  0
 33 32  1  0  0  0  0
 34 32  2  0  0  0  0
 34 39  1  0  0  0  0
 35 36  1  0  0  0  0
 35 34  1  0  0  0  0
 36 38  2  0  0  0  0
 37 36  1  0  0  0  0
 38 39  1  0  0  0  0
 39 40  2  0  0  0  0
 40 30  1  0  0  0  0
 41 35  1  0  0  0  0
M  END
>  <minimizedAffinity>
-6.10408211

$$$$

 OpenBabel03242520273D

 41 44  0  0  0  0  0  0  0  0999 V2000
   36.8200   24.8560   41.3440 C   0  0  0  0  0  0  0  0  0  0  0  0
   37.0180   26.2140   40.9540 C   0  0  0  0  0  0  0  0  0  0  0  0
   36.8090   26.5470   39.6280 C   0  0  0  0  0  0  0  0  0  0  0  0
   36.4250   25.5710   38.7530 N   0  0  0  0  0  0  0  0  0  0  0  0
   36.2450   24.2990   39.1420 C   0  0  0  0  0  0  0  0  0  0  0  0
   36.4410   23.9470   40.4190 N   0  0  0  0  0  0  0  0  0  0  0  0
   36.9730   24.5580   42.3710 H   0  0  0  0  0  0  0  0  0  0  0  0
   35.9390   23.5750   38.3870 H   0  0  0  0  0  0  0  0  0  0  0  0
   37.4140   27.0950   41.9880 N   0  0  0  0  0  0  0  0  0  0  0  0
   36.5450   27.4920   43.0780 C   0  0  0  0  0  0  0  0  0  0  0  0
   37.3090   28.3210   44.0540 C   0  0  0  0  0  0  0  0  0  0  0  0
   38.0090   29.4190   43.4420 N   0  0  0  0  0  0  0  0  0  0  0  0
   38.7980   29.0700   42.3090 C   0  0  0  0  0  0  0  0  0  0  0  0
   38.7780   27.6240   41.9400 C   0  0  0  0  0  0  0  0  0  0  0  0
   36.2110   26.5610   43.6080 H   0  0  0  0  0  0  0  0  0  0  0  0
   35.6540   28.0460   42.7770 H   0  0  0  0  0  0  0  0  0  0  0  0
   38.0670   27.6690   44.5570 H   0  0  0  0  0  0  0  0  0  0  0  0
   36.6200   28.7140   44.8020 H   0  0  0  0  0  0  0  0  0  0  0  0
   38.4710   29.9840   44.1740 H   0  0  0  0  0  0  0  0  0  0  0  0
   38.4020   29.6320   41.4230 H   0  0  0  0  0  0  0  0  0  0  0  0
   39.8720   29.3800   42.4020 H   0  0  0  0  0  0  0  0  0  0  0  0
   39.2270   27.5200   40.9380 H   0  0  0  0  0  0  0  0  0  0  0  0
   39.3640   27.0600   42.6940 H   0  0  0  0  0  0  0  0  0  0  0  0
   37.0080   27.8740   39.2780 O   0  0  0  0  0  0  0  0  0  0  0  0
   34.6030   28.1490   38.2260 O   0  0  0  0  0  0  0  0  0  0  0  0
   35.6360   28.9050   39.0870 P   0  0  1  0  0  0  0  0  0  0  0  0
   35.0210   29.2390   40.5920 O   0  0  0  0  0  0  0  0  0  0  0  0
   35.7380   29.2060   41.2800 H   0  0  0  0  0  0  0  0  0  0  0  0
   36.1280   30.2620   38.2260 O   0  0  0  0  0  0  0  0  0  0  0  0
   38.3800   30.9300   37.9370 C   0  0  0  0  0  3  0  0  0  0  0  0
   37.1550   31.1130   38.5580 C   0  0  0  0  0  0  0  0  0  0  0  0
   36.9520   32.1150   39.4870 C   0  0  0  0  0  0  0  0  0  0  0  0
   36.0170   32.2880   39.9880 H   0  0  0  0  0  0  0  0  0  0  0  0
   37.9970   32.9610   39.8080 C   0  0  0  0  0  0  0  0  0  0  0  0
   38.0750   34.0000   40.6610 N   0  0  0  0  0  0  0  0  0  0  0  0
   39.3410   34.4470   40.5600 C   0  0  0  0  0  0  0  0  0  0  0  0
   39.7140   35.2860   41.1310 H   0  0  0  0  0  0  0  0  0  0  0  0
   40.0330   33.7070   39.6680 N   0  0  0  0  0  0  0  0  0  0  0  0
   39.2050   32.7590   39.1770 C   0  0  0  0  0  0  0  0  0  0  0  0
   39.4520   31.7750   38.2480 C   0  0  0  0  0  3  0  0  0  0  0  0
   37.2940   34.3530   41.2580 H   0  0  0  0  0  0  0  0  0  0  0  0
  1  7  1  0  0  0  0
  2  1  1  0  0  0  0
  2  9  1  0  0  0  0
  3  2  2  0  0  0  0
  4  5  2  0  0  0  0
  4  3  1  0  0  0  0
  5  6  1  0  0  0  0
  6  1  2  0  0  0  0
  8  5  1  0  0  0  0
  9 10  1  0  0  0  0
 10 15  1  0  0  0  0
 10 11  1  0  0  0  0
 11 17  1  0  0  0  0
 11 18  1  0  0  0  0
 12 11  1  0  0  0  0
 12 19  1  0  0  0  0
 13 21  1  0  0  0  0
 13 12  1  0  0  0  0
 14  9  1  0  0  0  0
 14 13  1  0  0  0  0
 14 23  1  0  0  0  0
 16 10  1  0  0  0  0
 20 13  1  0  0  0  0
 22 14  1  0  0  0  0
 24  3  1  0  0  0  0
 26 25  2  6  0  0  0
 26 24  1  0  0  0  0
 26 27  1  0  0  0  0
 27 28  1  0  0  0  0
 29 31  1  0  0  0  0
 29 26  1  0  0  0  0
 30 40  2  0  0  0  0
 30 31  1  0  0  0  0
 31 32  2  0  0  0  0
 32 34  1  0  0  0  0
 32 33  1  0  0  0  0
 34 35  1  0  0  0  0
 35 41  1  0  0  0  0
 36 35  1  0  0  0  0
 36 37  1  0  0  0  0
 38 36  2  0  0  0  0
 39 38  1  0  0  0  0
 39 34  2  0  0  0  0
 40 39  1  0  0  0  0
M  END
>  <minimizedAffinity>
-6.10263777

$$$$

 OpenBabel03242520273D

 41 44  0  0  0  0  0  0  0  0999 V2000
   39.7060   24.7990   42.5890 C   0  0  0  0  0  0  0  0  0  0  0  0
   38.6160   25.3220   41.8300 C   0  0  0  0  0  0  0  0  0  0  0  0
   38.0650   26.5270   42.2280 C   0  0  0  0  0  0  0  0  0  0  0  0
   38.5820   27.1620   43.3220 N   0  0  0  0  0  0  0  0  0  0  0  0
   39.6080   26.6510   44.0210 C   0  0  0  0  0  0  0  0  0  0  0  0
   40.1610   25.4860   43.6600 N   0  0  0  0  0  0  0  0  0  0  0  0
   40.1620   23.8620   42.3080 H   0  0  0  0  0  0  0  0  0  0  0  0
   39.9660   27.2140   44.8820 H   0  0  0  0  0  0  0  0  0  0  0  0
   38.2060   24.5360   40.7280 N   0  0  0  0  0  0  0  0  0  0  0  0
   37.2910   23.4170   40.8390 C   0  0  0  0  0  0  0  0  0  0  0  0
   36.9730   22.8910   39.4800 C   0  0  0  0  0  0  0  0  0  0  0  0
   38.1430   22.6060   38.6940 N   0  0  0  0  0  0  0  0  0  0  0  0
   39.1030   23.6560   38.6440 C   0  0  0  0  0  0  0  0  0  0  0  0
   38.7430   24.8850   39.4120 C   0  0  0  0  0  0  0  0  0  0  0  0
   36.3370   23.7980   41.2900 H   0  0  0  0  0  0  0  0  0  0  0  0
   37.6490   22.5910   41.4560 H   0  0  0  0  0  0  0  0  0  0  0  0
   36.3710   23.6590   38.9330 H   0  0  0  0  0  0  0  0  0  0  0  0
   36.3850   21.9790   39.5820 H   0  0  0  0  0  0  0  0  0  0  0  0
   37.8580   22.1940   37.7890 H   0  0  0  0  0  0  0  0  0  0  0  0
   40.0610   23.2740   39.0860 H   0  0  0  0  0  0  0  0  0  0  0  0
   39.3630   23.9740   37.6000 H   0  0  0  0  0  0  0  0  0  0  0  0
   39.6420   25.5190   39.4860 H   0  0  0  0  0  0  0  0  0  0  0  0
   37.9330   25.4140   38.8690 H   0  0  0  0  0  0  0  0  0  0  0  0
   37.0090   27.0110   41.4720 O   0  0  0  0  0  0  0  0  0  0  0  0
   35.2720   28.9090   40.8860 O   0  0  0  0  0  0  0  0  0  0  0  0
   36.6820   28.7060   41.4760 P   0  0  1  0  0  0  0  0  0  0  0  0
   36.7500   29.2460   43.0450 O   0  0  0  0  0  0  0  0  0  0  0  0
   37.3720   28.6870   43.5830 H   0  0  0  0  0  0  0  0  0  0  0  0
   37.7840   29.4460   40.4440 O   0  0  0  0  0  0  0  0  0  0  0  0
   37.0230   31.5800   39.7600 C   0  0  0  0  0  3  0  0  0  0  0  0
   38.0150   30.7950   40.3250 C   0  0  0  0  0  0  0  0  0  0  0  0
   39.2100   31.3340   40.7620 C   0  0  0  0  0  0  0  0  0  0  0  0
   40.0010   30.7580   41.2050 H   0  0  0  0  0  0  0  0  0  0  0  0
   39.4240   32.6940   40.6340 C   0  0  0  0  0  0  0  0  0  0  0  0
   40.4740   33.4670   40.9700 N   0  0  0  0  0  0  0  0  0  0  0  0
   40.1230   34.7170   40.6100 C   0  0  0  0  0  0  0  0  0  0  0  0
   40.7680   35.5720   40.7540 H   0  0  0  0  0  0  0  0  0  0  0  0
   38.8870   34.7210   40.0660 N   0  0  0  0  0  0  0  0  0  0  0  0
   38.4230   33.4530   40.0690 C   0  0  0  0  0  0  0  0  0  0  0  0
   37.2190   32.9580   39.6200 C   0  0  0  0  0  3  0  0  0  0  0  0
   41.3570   33.1300   41.4130 H   0  0  0  0  0  0  0  0  0  0  0  0
  1  6  1  0  0  0  0
  2  3  1  0  0  0  0
  2  1  2  0  0  0  0
  3  4  2  0  0  0  0
  4  5  1  0  0  0  0
  5  8  1  0  0  0  0
  6  5  2  0  0  0  0
  7  1  1  0  0  0  0
  9 10  1  0  0  0  0
  9  2  1  0  0  0  0
 10 15  1  0  0  0  0
 10 16  1  0  0  0  0
 11 18  1  0  0  0  0
 11 10  1  0  0  0  0
 12 11  1  0  0  0  0
 13 12  1  0  0  0  0
 13 20  1  0  0  0  0
 13 14  1  0  0  0  0
 14 22  1  0  0  0  0
 14  9  1  0  0  0  0
 17 11  1  0  0  0  0
 19 12  1  0  0  0  0
 21 13  1  0  0  0  0
 23 14  1  0  0  0  0
 24 26  1  0  0  0  0
 24  3  1  0  0  0  0
 26 25  2  6  0  0  0
 26 27  1  0  0  0  0
 27 28  1  0  0  0  0
 29 26  1  0  0  0  0
 30 31  1  0  0  0  0
 31 29  1  0  0  0  0
 31 32  2  0  0  0  0
 32 33  1  0  0  0  0
 34 32  1  0  0  0  0
 34 35  1  0  0  0  0
 35 41  1  0  0  0  0
 36 37  1  0  0  0  0
 36 35  1  0  0  0  0
 38 39  1  0  0  0  0
 38 36  2  0  0  0  0
 39 34  2  0  0  0  0
 40 30  2  0  0  0  0
 40 39  1  0  0  0  0
M  END
>  <minimizedAffinity>
-6.06145954

$$$$

 OpenBabel03242520273D

 41 44  0  0  0  0  0  0  0  0999 V2000
   36.9690   30.2960   36.1800 C   0  0  0  0  0  0  0  0  0  0  0  0
   37.2860   30.0990   37.5570 C   0  0  0  0  0  0  0  0  0  0  0  0
   36.6410   29.0790   38.2340 C   0  0  0  0  0  0  0  0  0  0  0  0
   35.7350   28.3090   37.5620 N   0  0  0  0  0  0  0  0  0  0  0  0
   35.4520   28.5120   36.2650 C   0  0  0  0  0  0  0  0  0  0  0  0
   36.0610   29.4930   35.5850 N   0  0  0  0  0  0  0  0  0  0  0  0
   37.4530   31.0820   35.6190 H   0  0  0  0  0  0  0  0  0  0  0  0
   34.7180   27.8580   35.7970 H   0  0  0  0  0  0  0  0  0  0  0  0
   38.2480   30.9860   38.0960 N   0  0  0  0  0  0  0  0  0  0  0  0
   37.9050   32.2190   38.7790 C   0  0  0  0  0  0  0  0  0  0  0  0
   39.1390   32.8480   39.3300 C   0  0  0  0  0  0  0  0  0  0  0  0
   40.1850   32.9980   38.3540 N   0  0  0  0  0  0  0  0  0  0  0  0
   40.4780   31.8230   37.6040 C   0  0  0  0  0  0  0  0  0  0  0  0
   39.6580   30.6250   37.9510 C   0  0  0  0  0  0  0  0  0  0  0  0
   37.2380   31.9590   39.6430 H   0  0  0  0  0  0  0  0  0  0  0  0
   37.3860   32.9550   38.1620 H   0  0  0  0  0  0  0  0  0  0  0  0
   39.5300   32.2010   40.1550 H   0  0  0  0  0  0  0  0  0  0  0  0
   38.8870   33.8300   39.7320 H   0  0  0  0  0  0  0  0  0  0  0  0
   40.9880   33.4880   38.7820 H   0  0  0  0  0  0  0  0  0  0  0  0
   40.2810   32.0430   36.5220 H   0  0  0  0  0  0  0  0  0  0  0  0
   41.5570   31.5200   37.6540 H   0  0  0  0  0  0  0  0  0  0  0  0
   39.8120   29.8650   37.1660 H   0  0  0  0  0  0  0  0  0  0  0  0
   39.9920   30.2440   38.9380 H   0  0  0  0  0  0  0  0  0  0  0  0
   36.9700   28.9100   39.5700 O   0  0  0  0  0  0  0  0  0  0  0  0
   36.1980   30.6970   41.3520 O   0  0  0  0  0  0  0  0  0  0  0  0
   35.8050   29.3210   40.7770 P   0  0  1  0  0  0  0  0  0  0  0  0
   34.3100   29.3840   40.0590 O   0  0  0  0  0  0  0  0  0  0  0  0
   34.2700   28.7720   39.2760 H   0  0  0  0  0  0  0  0  0  0  0  0
   35.9290   28.1920   42.0160 O   0  0  0  0  0  0  0  0  0  0  0  0
   38.0700   28.2360   43.0240 C   0  0  0  0  0  3  0  0  0  0  0  0
   37.0640   27.5170   42.3980 C   0  0  0  0  0  0  0  0  0  0  0  0
   37.1800   26.1630   42.1540 C   0  0  0  0  0  0  0  0  0  0  0  0
   36.4220   25.5730   41.6720 H   0  0  0  0  0  0  0  0  0  0  0  0
   38.3290   25.5010   42.5450 C   0  0  0  0  0  0  0  0  0  0  0  0
   38.6980   24.2110   42.4350 N   0  0  0  0  0  0  0  0  0  0  0  0
   39.9230   24.1450   42.9910 C   0  0  0  0  0  0  0  0  0  0  0  0
   40.4900   23.2260   43.0540 H   0  0  0  0  0  0  0  0  0  0  0  0
   40.3060   25.3600   43.4360 N   0  0  0  0  0  0  0  0  0  0  0  0
   39.3150   26.2370   43.1660 C   0  0  0  0  0  0  0  0  0  0  0  0
   39.2420   27.5870   43.4280 C   0  0  0  0  0  3  0  0  0  0  0  0
   38.1260   23.4530   42.0020 H   0  0  0  0  0  0  0  0  0  0  0  0
  1  2  1  0  0  0  0
  2  9  1  0  0  0  0
  2  3  2  0  0  0  0
  3 24  1  0  0  0  0
  4  3  1  0  0  0  0
  5  4  2  0  0  0  0
  6  1  2  0  0  0  0
  6  5  1  0  0  0  0
  7  1  1  0  0  0  0
  8  5  1  0  0  0  0
  9 10  1  0  0  0  0
 10 11  1  0  0  0  0
 10 15  1  0  0  0  0
 11 18  1  0  0  0  0
 11 17  1  0  0  0  0
 12 19  1  0  0  0  0
 12 11  1  0  0  0  0
 13 21  1  0  0  0  0
 13 14  1  0  0  0  0
 13 12  1  0  0  0  0
 14  9  1  0  0  0  0
 14 23  1  0  0  0  0
 16 10  1  0  0  0  0
 20 13  1  0  0  0  0
 22 14  1  0  0  0  0
 24 26  1  0  0  0  0
 26 25  2  1  0  0  0
 26 29  1  0  0  0  0
 27 26  1  0  0  0  0
 28 27  1  0  0  0  0
 29 31  1  0  0  0  0
 30 40  1  0  0  0  0
 31 30  2  0  0  0  0
 32 31  1  0  0  0  0
 32 34  2  0  0  0  0
 33 32  1  0  0  0  0
 34 39  1  0  0  0  0
 35 34  1  0  0  0  0
 35 36  1  0  0  0  0
 36 37  1  0  0  0  0
 36 38  2  0  0  0  0
 39 40  2  0  0  0  0
 39 38  1  0  0  0  0
 41 35  1  0  0  0  0
M  END
>  <minimizedAffinity>
-5.95624495

$$$$

 OpenBabel03242520273D

 41 44  0  0  0  0  0  0  0  0999 V2000
   41.1250   30.7500   40.3410 C   0  0  0  0  0  0  0  0  0  0  0  0
   39.7790   30.9450   40.7720 C   0  0  0  0  0  0  0  0  0  0  0  0
   39.2210   29.9970   41.6120 C   0  0  0  0  0  0  0  0  0  0  0  0
   39.9750   28.9230   41.9910 N   0  0  0  0  0  0  0  0  0  0  0  0
   41.2410   28.7600   41.5730 C   0  0  0  0  0  0  0  0  0  0  0  0
   41.8060   29.6610   40.7590 N   0  0  0  0  0  0  0  0  0  0  0  0
   41.5940   31.4690   39.6860 H   0  0  0  0  0  0  0  0  0  0  0  0
   41.7790   27.8780   41.9160 H   0  0  0  0  0  0  0  0  0  0  0  0
   39.1440   32.1110   40.2850 N   0  0  0  0  0  0  0  0  0  0  0  0
   39.0380   33.3410   41.0460 C   0  0  0  0  0  0  0  0  0  0  0  0
   38.4270   34.4060   40.1980 C   0  0  0  0  0  0  0  0  0  0  0  0
   37.1940   34.0000   39.5770 N   0  0  0  0  0  0  0  0  0  0  0  0
   37.2470   32.7480   38.9010 C   0  0  0  0  0  0  0  0  0  0  0  0
   38.5700   32.0580   38.9400 C   0  0  0  0  0  0  0  0  0  0  0  0
   40.0760   33.6710   41.3130 H   0  0  0  0  0  0  0  0  0  0  0  0
   38.4610   33.2610   41.9690 H   0  0  0  0  0  0  0  0  0  0  0  0
   39.1490   34.6700   39.3850 H   0  0  0  0  0  0  0  0  0  0  0  0
   38.2400   35.2850   40.8140 H   0  0  0  0  0  0  0  0  0  0  0  0
   36.7950   34.7960   39.0510 H   0  0  0  0  0  0  0  0  0  0  0  0
   36.5120   32.0560   39.3910 H   0  0  0  0  0  0  0  0  0  0  0  0
   36.9290   32.8070   37.8270 H   0  0  0  0  0  0  0  0  0  0  0  0
   38.4270   31.0210   38.5920 H   0  0  0  0  0  0  0  0  0  0  0  0
   39.2710   32.6030   38.2740 H   0  0  0  0  0  0  0  0  0  0  0  0
   37.9130   30.2130   42.0150 O   0  0  0  0  0  0  0  0  0  0  0  0
   36.1480   28.2520   41.9360 O   0  0  0  0  0  0  0  0  0  0  0  0
   36.6300   29.4730   41.1260 P   0  0  1  0  0  0  0  0  0  0  0  0
   35.4100   30.5850   40.9510 O   0  0  0  0  0  0  0  0  0  0  0  0
   35.7740   31.5100   40.9480 H   0  0  0  0  0  0  0  0  0  0  0  0
   37.2650   28.9110   39.6760 O   0  0  0  0  0  0  0  0  0  0  0  0
   35.2640   28.9660   38.4140 C   0  0  0  0  0  3  0  0  0  0  0  0
   36.6490   28.9380   38.4480 C   0  0  0  0  0  0  0  0  0  0  0  0
   37.4060   28.9340   37.2920 C   0  0  0  0  0  0  0  0  0  0  0  0
   38.4800   28.9120   37.2780 H   0  0  0  0  0  0  0  0  0  0  0  0
   36.7680   28.9610   36.0660 C   0  0  0  0  0  0  0  0  0  0  0  0
   37.2490   28.9650   34.8090 N   0  0  0  0  0  0  0  0  0  0  0  0
   36.1630   28.9950   34.0130 C   0  0  0  0  0  0  0  0  0  0  0  0
   36.2260   29.0060   32.9340 H   0  0  0  0  0  0  0  0  0  0  0  0
   35.0350   29.0110   34.7550 N   0  0  0  0  0  0  0  0  0  0  0  0
   35.3900   28.9890   36.0580 C   0  0  0  0  0  0  0  0  0  0  0  0
   34.5980   28.9930   37.1830 C   0  0  0  0  0  3  0  0  0  0  0  0
   38.2600   28.9460   34.5480 H   0  0  0  0  0  0  0  0  0  0  0  0
  1  6  2  0  0  0  0
  1  2  1  0  0  0  0
  2  3  2  0  0  0  0
  3  4  1  0  0  0  0
  3 24  1  0  0  0  0
  5  8  1  0  0  0  0
  5  4  2  0  0  0  0
  6  5  1  0  0  0  0
  7  1  1  0  0  0  0
  9  2  1  0  0  0  0
  9 10  1  0  0  0  0
 10 15  1  0  0  0  0
 10 16  1  0  0  0  0
 11 18  1  0  0  0  0
 11 10  1  0  0  0  0
 12 11  1  0  0  0  0
 13 14  1  0  0  0  0
 13 20  1  0  0  0  0
 13 12  1  0  0  0  0
 14  9  1  0  0  0  0
 17 11  1  0  0  0  0
 19 12  1  0  0  0  0
 21 13  1  0  0  0  0
 22 14  1  0  0  0  0
 23 14  1  0  0  0  0
 26 25  2  1  0  0  0
 26 24  1  0  0  0  0
 27 26  1  0  0  0  0
 28 27  1  0  0  0  0
 29 26  1  0  0  0  0
 30 31  1  0  0  0  0
 31 29  1  0  0  0  0
 32 31  2  0  0  0  0
 33 32  1  0  0  0  0
 34 32  1  0  0  0  0
 35 34  1  0  0  0  0
 36 38  2  0  0  0  0
 36 35  1  0  0  0  0
 37 36  1  0  0  0  0
 38 39  1  0  0  0  0
 39 34  2  0  0  0  0
 39 40  1  0  0  0  0
 40 30  2  0  0  0  0
 41 35  1  0  0  0  0
M  END
>  <minimizedAffinity>
-5.91640091

$$$$

 OpenBabel03242520273D

 41 44  0  0  0  0  0  0  0  0999 V2000
   38.8260   28.1950   43.3240 C   0  0  0  0  0  0  0  0  0  0  0  0
   38.7790   28.8360   42.0500 C   0  0  0  0  0  0  0  0  0  0  0  0
   37.6170   28.7220   41.3080 C   0  0  0  0  0  0  0  0  0  0  0  0
   36.5720   28.0080   41.8190 N   0  0  0  0  0  0  0  0  0  0  0  0
   36.6380   27.4130   43.0210 C   0  0  0  0  0  0  0  0  0  0  0  0
   37.7500   27.5050   43.7620 N   0  0  0  0  0  0  0  0  0  0  0  0
   39.7150   28.2620   43.9330 H   0  0  0  0  0  0  0  0  0  0  0  0
   35.7640   26.8600   43.3630 H   0  0  0  0  0  0  0  0  0  0  0  0
   39.9500   29.5350   41.6740 N   0  0  0  0  0  0  0  0  0  0  0  0
   41.0380   28.9300   40.9300 C   0  0  0  0  0  0  0  0  0  0  0  0
   42.0530   29.9690   40.5910 C   0  0  0  0  0  0  0  0  0  0  0  0
   42.4850   30.7340   41.7300 N   0  0  0  0  0  0  0  0  0  0  0  0
   41.4330   31.2620   42.5310 C   0  0  0  0  0  0  0  0  0  0  0  0
   40.0520   30.9420   42.0620 C   0  0  0  0  0  0  0  0  0  0  0  0
   40.6180   28.5350   39.9680 H   0  0  0  0  0  0  0  0  0  0  0  0
   41.5420   28.1080   41.4410 H   0  0  0  0  0  0  0  0  0  0  0  0
   41.6030   30.6780   39.8520 H   0  0  0  0  0  0  0  0  0  0  0  0
   42.9200   29.4840   40.1420 H   0  0  0  0  0  0  0  0  0  0  0  0
   43.2250   31.3960   41.4400 H   0  0  0  0  0  0  0  0  0  0  0  0
   41.5280   30.8290   43.5620 H   0  0  0  0  0  0  0  0  0  0  0  0
   41.4930   32.3740   42.6700 H   0  0  0  0  0  0  0  0  0  0  0  0
   39.3470   31.2010   42.8700 H   0  0  0  0  0  0  0  0  0  0  0  0
   39.8430   31.5390   41.1510 H   0  0  0  0  0  0  0  0  0  0  0  0
   37.6000   29.3550   40.0740 O   0  0  0  0  0  0  0  0  0  0  0  0
   35.3230   29.6120   38.7670 O   0  0  0  0  0  0  0  0  0  0  0  0
   36.2800   30.3980   39.6850 P   0  0  1  0  0  0  0  0  0  0  0  0
   35.5230   30.8300   41.0980 O   0  0  0  0  0  0  0  0  0  0  0  0
   36.1650   30.8240   41.8570 H   0  0  0  0  0  0  0  0  0  0  0  0
   36.8890   31.6940   38.8050 O   0  0  0  0  0  0  0  0  0  0  0  0
   37.6900   33.6030   39.9520 C   0  0  0  0  0  3  0  0  0  0  0  0
   37.9470   32.4970   39.1580 C   0  0  0  0  0  0  0  0  0  0  0  0
   39.2220   32.1950   38.7220 C   0  0  0  0  0  0  0  0  0  0  0  0
   39.4610   31.3470   38.1060 H   0  0  0  0  0  0  0  0  0  0  0  0
   40.2740   33.0140   39.0870 C   0  0  0  0  0  0  0  0  0  0  0  0
   41.5900   32.9560   38.8100 N   0  0  0  0  0  0  0  0  0  0  0  0
   42.1310   34.0210   39.4320 C   0  0  0  0  0  0  0  0  0  0  0  0
   43.1880   34.2470   39.3940 H   0  0  0  0  0  0  0  0  0  0  0  0
   41.1780   34.7230   40.0800 N   0  0  0  0  0  0  0  0  0  0  0  0
   39.9930   34.1080   39.8770 C   0  0  0  0  0  0  0  0  0  0  0  0
   38.7390   34.4470   40.3330 C   0  0  0  0  0  3  0  0  0  0  0  0
   42.0540   32.2220   38.2290 H   0  0  0  0  0  0  0  0  0  0  0  0
  1  6  1  0  0  0  0
  1  7  1  0  0  0  0
  2  1  2  0  0  0  0
  3  4  2  0  0  0  0
  3  2  1  0  0  0  0
  4  5  1  0  0  0  0
  5  8  1  0  0  0  0
  5  6  2  0  0  0  0
  9  2  1  0  0  0  0
  9 14  1  0  0  0  0
 10 16  1  0  0  0  0
 10  9  1  0  0  0  0
 11 10  1  0  0  0  0
 11 12  1  0  0  0  0
 12 13  1  0  0  0  0
 13 21  1  0  0  0  0
 13 20  1  0  0  0  0
 14 13  1  0  0  0  0
 14 22  1  0  0  0  0
 15 10  1  0  0  0  0
 17 11  1  0  0  0  0
 18 11  1  0  0  0  0
 19 12  1  0  0  0  0
 23 14  1  0  0  0  0
 24  3  1  0  0  0  0
 26 25  2  6  0  0  0
 26 24  1  0  0  0  0
 26 27  1  0  0  0  0
 27 28  1  0  0  0  0
 29 31  1  0  0  0  0
 29 26  1  0  0  0  0
 30 40  1  0  0  0  0
 31 30  2  0  0  0  0
 32 34  2  0  0  0  0
 32 31  1  0  0  0  0
 33 32  1  0  0  0  0
 34 39  1  0  0  0  0
 35 34  1  0  0  0  0
 35 36  1  0  0  0  0
 36 38  2  0  0  0  0
 37 36  1  0  0  0  0
 39 38  1  0  0  0  0
 39 40  2  0  0  0  0
 41 35  1  0  0  0  0
M  END
>  <minimizedAffinity>
-5.7349143

$$$$

 OpenBabel03242520273D

 41 44  0  0  0  0  0  0  0  0999 V2000
   36.4020   30.3910   38.0380 C   0  0  0  0  0  0  0  0  0  0  0  0
   36.7780   30.6400   39.3920 C   0  0  0  0  0  0  0  0  0  0  0  0
   36.1340   29.9260   40.3870 C   0  0  0  0  0  0  0  0  0  0  0  0
   35.1730   29.0210   40.0360 N   0  0  0  0  0  0  0  0  0  0  0  0
   34.8360   28.8040   38.7550 C   0  0  0  0  0  0  0  0  0  0  0  0
   35.4420   29.4800   37.7710 N   0  0  0  0  0  0  0  0  0  0  0  0
   36.8840   30.9280   37.2340 H   0  0  0  0  0  0  0  0  0  0  0  0
   34.0600   28.0660   38.5530 H   0  0  0  0  0  0  0  0  0  0  0  0
   37.7920   31.6100   39.5770 N   0  0  0  0  0  0  0  0  0  0  0  0
   37.5210   33.0120   39.8250 C   0  0  0  0  0  0  0  0  0  0  0  0
   38.7990   33.7310   40.0980 C   0  0  0  0  0  0  0  0  0  0  0  0
   39.8040   33.5030   39.0930 N   0  0  0  0  0  0  0  0  0  0  0  0
   40.0230   32.1360   38.7630 C   0  0  0  0  0  0  0  0  0  0  0  0
   39.1820   31.1570   39.5120 C   0  0  0  0  0  0  0  0  0  0  0  0
   36.8860   33.0810   40.7480 H   0  0  0  0  0  0  0  0  0  0  0  0
   36.9990   33.5290   39.0170 H   0  0  0  0  0  0  0  0  0  0  0  0
   39.2060   33.3720   41.0770 H   0  0  0  0  0  0  0  0  0  0  0  0
   38.5980   34.8000   40.1610 H   0  0  0  0  0  0  0  0  0  0  0  0
   40.6410   34.0700   39.3090 H   0  0  0  0  0  0  0  0  0  0  0  0
   39.7840   31.9970   37.6760 H   0  0  0  0  0  0  0  0  0  0  0  0
   41.0930   31.8160   38.8750 H   0  0  0  0  0  0  0  0  0  0  0  0
   39.2750   30.1750   39.0170 H   0  0  0  0  0  0  0  0  0  0  0  0
   39.5480   31.1050   40.5580 H   0  0  0  0  0  0  0  0  0  0  0  0
   36.5200   30.1890   41.6920 O   0  0  0  0  0  0  0  0  0  0  0  0
   38.6740   29.8850   43.1860 O   0  0  0  0  0  0  0  0  0  0  0  0
   37.5590   29.0700   42.5000 P   0  0  1  0  0  0  0  0  0  0  0  0
   36.6580   28.2390   43.6200 O   0  0  0  0  0  0  0  0  0  0  0  0
   35.7090   28.1770   43.3320 H   0  0  0  0  0  0  0  0  0  0  0  0
   38.2760   28.0970   41.3320 O   0  0  0  0  0  0  0  0  0  0  0  0
   38.8930   25.9410   42.0890 C   0  0  0  0  0  3  0  0  0  0  0  0
   38.1590   26.7320   41.2200 C   0  0  0  0  0  0  0  0  0  0  0  0
   37.3290   26.1850   40.2610 C   0  0  0  0  0  0  0  0  0  0  0  0
   36.7450   26.7650   39.5700 H   0  0  0  0  0  0  0  0  0  0  0  0
   37.2240   24.8100   40.1630 C   0  0  0  0  0  0  0  0  0  0  0  0
   36.5040   24.0260   39.3380 N   0  0  0  0  0  0  0  0  0  0  0  0
   36.7990   22.7630   39.7030 C   0  0  0  0  0  0  0  0  0  0  0  0
   36.3700   21.8970   39.2180 H   0  0  0  0  0  0  0  0  0  0  0  0
   37.6780   22.7610   40.7280 N   0  0  0  0  0  0  0  0  0  0  0  0
   37.9630   24.0440   41.0380 C   0  0  0  0  0  0  0  0  0  0  0  0
   38.8020   24.5470   42.0070 C   0  0  0  0  0  3  0  0  0  0  0  0
   35.8650   24.3650   38.5860 H   0  0  0  0  0  0  0  0  0  0  0  0
  1  2  1  0  0  0  0
  2  9  1  0  0  0  0
  2  3  2  0  0  0  0
  3 24  1  0  0  0  0
  4  3  1  0  0  0  0
  5  4  2  0  0  0  0
  6  1  2  0  0  0  0
  6  5  1  0  0  0  0
  7  1  1  0  0  0  0
  8  5  1  0  0  0  0
  9 10  1  0  0  0  0
 10 11  1  0  0  0  0
 10 15  1  0  0  0  0
 11 18  1  0  0  0  0
 11 17  1  0  0  0  0
 12 19  1  0  0  0  0
 12 11  1  0  0  0  0
 13 21  1  0  0  0  0
 13 12  1  0  0  0  0
 13 14  1  0  0  0  0
 14  9  1  0  0  0  0
 14 23  1  0  0  0  0
 16 10  1  0  0  0  0
 20 13  1  0  0  0  0
 22 14  1  0  0  0  0
 24 26  1  0  0  0  0
 26 25  2  1  0  0  0
 26 27  1  0  0  0  0
 28 27  1  0  0  0  0
 29 26  1  0  0  0  0
 31 29  1  0  0  0  0
 31 30  2  0  0  0  0
 32 31  1  0  0  0  0
 33 32  1  0  0  0  0
 34 32  2  0  0  0  0
 34 39  1  0  0  0  0
 35 36  1  0  0  0  0
 35 34  1  0  0  0  0
 36 38  2  0  0  0  0
 37 36  1  0  0  0  0
 38 39  1  0  0  0  0
 39 40  2  0  0  0  0
 40 30  1  0  0  0  0
 41 35  1  0  0  0  0
M  END
>  <minimizedAffinity>
-5.7229538

$$$$

 OpenBabel03242520273D

 41 44  0  0  0  0  0  0  0  0999 V2000
   37.3530   33.5870   39.8590 C   0  0  0  0  0  0  0  0  0  0  0  0
   38.0170   32.3240   39.9110 C   0  0  0  0  0  0  0  0  0  0  0  0
   39.3950   32.3190   40.0330 C   0  0  0  0  0  0  0  0  0  0  0  0
   40.0580   33.5120   40.0970 N   0  0  0  0  0  0  0  0  0  0  0  0
   39.4130   34.6880   40.0460 C   0  0  0  0  0  0  0  0  0  0  0  0
   38.0790   34.7240   39.9280 N   0  0  0  0  0  0  0  0  0  0  0  0
   36.2780   33.6300   39.7650 H   0  0  0  0  0  0  0  0  0  0  0  0
   40.0090   35.5970   40.1020 H   0  0  0  0  0  0  0  0  0  0  0  0
   37.1780   31.1880   39.8320 N   0  0  0  0  0  0  0  0  0  0  0  0
   36.4340   30.6630   40.9610 C   0  0  0  0  0  0  0  0  0  0  0  0
   35.5570   29.5450   40.5080 C   0  0  0  0  0  0  0  0  0  0  0  0
   36.2610   28.5380   39.7590 N   0  0  0  0  0  0  0  0  0  0  0  0
   37.0740   29.0370   38.7020 C   0  0  0  0  0  0  0  0  0  0  0  0
   37.0640   30.5200   38.5350 C   0  0  0  0  0  0  0  0  0  0  0  0
   35.7720   31.4820   41.3470 H   0  0  0  0  0  0  0  0  0  0  0  0
   37.0480   30.3070   41.7900 H   0  0  0  0  0  0  0  0  0  0  0  0
   34.7570   29.9660   39.8490 H   0  0  0  0  0  0  0  0  0  0  0  0
   35.0970   29.0800   41.3800 H   0  0  0  0  0  0  0  0  0  0  0  0
   35.6130   27.7680   39.5240 H   0  0  0  0  0  0  0  0  0  0  0  0
   38.1370   28.7460   38.9120 H   0  0  0  0  0  0  0  0  0  0  0  0
   36.8340   28.5840   37.7040 H   0  0  0  0  0  0  0  0  0  0  0  0
   37.8880   30.7950   37.8550 H   0  0  0  0  0  0  0  0  0  0  0  0
   36.0850   30.8200   38.1090 H   0  0  0  0  0  0  0  0  0  0  0  0
   40.0130   31.0790   40.0820 O   0  0  0  0  0  0  0  0  0  0  0  0
   42.6390   30.9950   40.3240 O   0  0  0  0  0  0  0  0  0  0  0  0
   41.3470   30.8490   41.1530 P   0  0  1  0  0  0  0  0  0  0  0  0
   41.2710   32.0100   42.3370 O   0  0  0  0  0  0  0  0  0  0  0  0
   40.3300   32.2890   42.4970 H   0  0  0  0  0  0  0  0  0  0  0  0
   41.2800   29.2710   41.7280 O   0  0  0  0  0  0  0  0  0  0  0  0
   39.9740   27.3140   41.4730 C   0  0  0  0  0  3  0  0  0  0  0  0
   40.1450   28.5640   42.0450 C   0  0  0  0  0  0  0  0  0  0  0  0
   39.2120   29.1030   42.9110 C   0  0  0  0  0  0  0  0  0  0  0  0
   39.3100   30.0670   43.3740 H   0  0  0  0  0  0  0  0  0  0  0  0
   38.0770   28.3770   43.2180 C   0  0  0  0  0  0  0  0  0  0  0  0
   37.0280   28.6540   44.0150 N   0  0  0  0  0  0  0  0  0  0  0  0
   36.2220   27.5780   43.9280 C   0  0  0  0  0  0  0  0  0  0  0  0
   35.2860   27.5020   44.4640 H   0  0  0  0  0  0  0  0  0  0  0  0
   36.7550   26.6560   43.0990 N   0  0  0  0  0  0  0  0  0  0  0  0
   37.9290   27.1360   42.6360 C   0  0  0  0  0  0  0  0  0  0  0  0
   38.8310   26.5620   41.7690 C   0  0  0  0  0  3  0  0  0  0  0  0
   36.9030   29.5320   44.5670 H   0  0  0  0  0  0  0  0  0  0  0  0
  1  2  2  0  0  0  0
  1  6  1  0  0  0  0
  2  3  1  0  0  0  0
  3 24  1  0  0  0  0
  3  4  2  0  0  0  0
  5  4  1  0  0  0  0
  5  8  1  0  0  0  0
  6  5  2  0  0  0  0
  7  1  1  0  0  0  0
  9  2  1  0  0  0  0
  9 10  1  0  0  0  0
 10 15  1  0  0  0  0
 10 16  1  0  0  0  0
 11 10  1  0  0  0  0
 11 18  1  0  0  0  0
 12 11  1  0  0  0  0
 13 20  1  0  0  0  0
 13 12  1  0  0  0  0
 14 13  1  0  0  0  0
 14  9  1  0  0  0  0
 17 11  1  0  0  0  0
 19 12  1  0  0  0  0
 21 13  1  0  0  0  0
 22 14  1  0  0  0  0
 23 14  1  0  0  0  0
 24 26  1  0  0  0  0
 26 25  2  6  0  0  0
 26 29  1  0  0  0  0
 26 27  1  0  0  0  0
 27 28  1  0  0  0  0
 29 31  1  0  0  0  0
 30 40  2  0  0  0  0
 30 31  1  0  0  0  0
 31 32  2  0  0  0  0
 32 34  1  0  0  0  0
 32 33  1  0  0  0  0
 34 35  1  0  0  0  0
 35 41  1  0  0  0  0
 36 35  1  0  0  0  0
 36 37  1  0  0  0  0
 38 36  2  0  0  0  0
 39 38  1  0  0  0  0
 39 34  2  0  0  0  0
 40 39  1  0  0  0  0
M  END
>  <minimizedAffinity>
-5.71190166

$$$$

 OpenBabel03242520273D

 41 44  0  0  0  0  0  0  0  0999 V2000
   41.0500   30.4980   41.2300 C   0  0  0  0  0  0  0  0  0  0  0  0
   39.6380   30.5830   41.4220 C   0  0  0  0  0  0  0  0  0  0  0  0
   39.0390   29.6590   42.2600 C   0  0  0  0  0  0  0  0  0  0  0  0
   39.8170   28.7120   42.8640 N   0  0  0  0  0  0  0  0  0  0  0  0
   41.1440   28.6510   42.6680 C   0  0  0  0  0  0  0  0  0  0  0  0
   41.7500   29.5320   41.8620 N   0  0  0  0  0  0  0  0  0  0  0  0
   41.5520   31.2030   40.5840 H   0  0  0  0  0  0  0  0  0  0  0  0
   41.6980   27.8680   43.1840 H   0  0  0  0  0  0  0  0  0  0  0  0
   38.9870   31.6250   40.7210 N   0  0  0  0  0  0  0  0  0  0  0  0
   38.9950   33.0080   41.1550 C   0  0  0  0  0  0  0  0  0  0  0  0
   38.3270   33.8610   40.1300 C   0  0  0  0  0  0  0  0  0  0  0  0
   37.0250   33.3800   39.7530 N   0  0  0  0  0  0  0  0  0  0  0  0
   36.9710   31.9990   39.4110 C   0  0  0  0  0  0  0  0  0  0  0  0
   38.2720   31.2710   39.4940 C   0  0  0  0  0  0  0  0  0  0  0  0
   40.0650   33.3380   41.2290 H   0  0  0  0  0  0  0  0  0  0  0  0
   38.5190   33.1900   42.1200 H   0  0  0  0  0  0  0  0  0  0  0  0
   38.9660   33.8780   39.2110 H   0  0  0  0  0  0  0  0  0  0  0  0
   38.2310   34.8740   40.5190 H   0  0  0  0  0  0  0  0  0  0  0  0
   36.5940   34.0410   39.0840 H   0  0  0  0  0  0  0  0  0  0  0  0
   36.2740   31.4890   40.1270 H   0  0  0  0  0  0  0  0  0  0  0  0
   36.5420   31.8070   38.3920 H   0  0  0  0  0  0  0  0  0  0  0  0
   38.0640   30.1890   39.4340 H   0  0  0  0  0  0  0  0  0  0  0  0
   38.9120   31.5960   38.6490 H   0  0  0  0  0  0  0  0  0  0  0  0
   37.6680   29.7650   42.4280 O   0  0  0  0  0  0  0  0  0  0  0  0
   36.2910   27.5720   42.9370 O   0  0  0  0  0  0  0  0  0  0  0  0
   36.6460   28.5310   41.7830 P   0  0  1  0  0  0  0  0  0  0  0  0
   35.2820   29.2520   41.1720 O   0  0  0  0  0  0  0  0  0  0  0  0
   35.4780   30.1790   40.8700 H   0  0  0  0  0  0  0  0  0  0  0  0
   37.5360   27.6660   40.6490 O   0  0  0  0  0  0  0  0  0  0  0  0
   36.4240   26.0720   39.2990 C   0  0  0  0  0  3  0  0  0  0  0  0
   37.3490   26.3520   40.2920 C   0  0  0  0  0  0  0  0  0  0  0  0
   38.0710   25.3550   40.9180 C   0  0  0  0  0  0  0  0  0  0  0  0
   38.7960   25.5330   41.6910 H   0  0  0  0  0  0  0  0  0  0  0  0
   37.8680   24.0390   40.5450 C   0  0  0  0  0  0  0  0  0  0  0  0
   38.4250   22.8920   40.9790 N   0  0  0  0  0  0  0  0  0  0  0  0
   37.8410   21.9190   40.2550 C   0  0  0  0  0  0  0  0  0  0  0  0
   38.0830   20.8720   40.3760 H   0  0  0  0  0  0  0  0  0  0  0  0
   36.9460   22.4450   39.3920 N   0  0  0  0  0  0  0  0  0  0  0  0
   36.9440   23.7850   39.5550 C   0  0  0  0  0  0  0  0  0  0  0  0
   36.2030   24.7470   38.9070 C   0  0  0  0  0  3  0  0  0  0  0  0
   39.1520   22.8170   41.7250 H   0  0  0  0  0  0  0  0  0  0  0  0
  1  2  2  0  0  0  0
  1  6  1  0  0  0  0
  2  3  1  0  0  0  0
  3 24  1  0  0  0  0
  3  4  2  0  0  0  0
  5  4  1  0  0  0  0
  5  8  1  0  0  0  0
  6  5  2  0  0  0  0
  7  1  1  0  0  0  0
  9 10  1  0  0  0  0
  9  2  1  0  0  0  0
 10 15  1  0  0  0  0
 10 16  1  0  0  0  0
 11 18  1  0  0  0  0
 11 10  1  0  0  0  0
 12 11  1  0  0  0  0
 13 14  1  0  0  0  0
 13 12  1  0  0  0  0
 13 20  1  0  0  0  0
 14  9  1  0  0  0  0
 17 11  1  0  0  0  0
 19 12  1  0  0  0  0
 21 13  1  0  0  0  0
 22 14  1  0  0  0  0
 23 14  1  0  0  0  0
 26 24  1  0  0  0  0
 26 25  2  1  0  0  0
 27 26  1  0  0  0  0
 28 27  1  0  0  0  0
 29 26  1  0  0  0  0
 30 31  1  0  0  0  0
 31 29  1  0  0  0  0
 31 32  2  0  0  0  0
 32 33  1  0  0  0  0
 34 32  1  0  0  0  0
 34 35  1  0  0  0  0
 35 41  1  0  0  0  0
 36 37  1  0  0  0  0
 36 35  1  0  0  0  0
 38 39  1  0  0  0  0
 38 36  2  0  0  0  0
 39 34  2  0  0  0  0
 40 30  2  0  0  0  0
 40 39  1  0  0  0  0
M  END
>  <minimizedAffinity>
-5.67151117

$$$$
