
 OpenBabel03252504273D

 25 27  0  0  0  0  0  0  0  0999 V2000
   43.7880   35.8090   41.3810 O   0  0  0  0  0  0  0  0  0  0  0  0
   41.4180   35.3730   41.6480 C   0  0  0  0  0  0  0  0  0  0  0  0
   42.5460   35.4780   40.8650 C   0  0  0  0  0  0  0  0  0  0  0  0
   42.3890   35.2340   39.5110 C   0  0  0  0  0  0  0  0  0  0  0  0
   43.2090   35.2950   38.8390 H   0  0  0  0  0  0  0  0  0  0  0  0
   41.1710   34.9040   38.9710 C   0  0  0  0  0  0  0  0  0  0  0  0
   40.7760   34.6290   37.7160 N   0  0  0  0  0  0  0  0  0  0  0  0
   39.4600   34.3560   37.6690 C   0  0  0  0  0  0  0  0  0  0  0  0
   38.8960   34.1030   36.7750 H   0  0  0  0  0  0  0  0  0  0  0  0
   39.0230   34.4670   38.9420 N   0  0  0  0  0  0  0  0  0  0  0  0
   40.0400   34.7970   39.7450 C   0  0  0  0  0  0  0  0  0  0  0  0
   40.1860   35.0400   41.1100 C   0  0  0  0  0  0  0  0  0  0  0  0
   41.3850   34.6190   36.8670 H   0  0  0  0  0  0  0  0  0  0  0  0
   44.7100   34.8180   41.6700 C   0  0  0  0  0  0  0  0  0  0  0  0
   44.3590   33.8820   41.1450 H   0  0  0  0  0  0  0  0  0  0  0  0
   45.6960   35.0270   41.1890 H   0  0  0  0  0  0  0  0  0  0  0  0
   44.5040   35.6020   43.9360 C   0  0  0  0  0  0  0  0  0  0  0  0
   44.8920   34.5760   43.1010 C   0  0  0  0  0  0  0  0  0  0  0  0
   45.4100   33.4370   43.6820 C   0  0  0  0  0  0  0  0  0  0  0  0
   45.5000   33.4090   45.0310 N   0  0  0  0  0  0  0  0  0  0  0  0
   45.1200   34.4120   45.8330 C   0  0  0  0  0  0  0  0  0  0  0  0
   44.5970   35.5690   45.3040 N   0  0  0  0  0  0  0  0  0  0  0  0
   44.0810   36.5420   43.5490 H   0  0  0  0  0  0  0  0  0  0  0  0
   45.7090   32.6460   43.0210 H   0  0  0  0  0  0  0  0  0  0  0  0
   45.2030   34.3640   46.9110 H   0  0  0  0  0  0  0  0  0  0  0  0
  1 14  1  0  0  0  0
  3  1  1  0  0  0  0
  3  2  2  0  0  0  0
  4  3  1  0  0  0  0
  5  4  1  0  0  0  0
  6  4  2  0  0  0  0
  6 11  1  0  0  0  0
  7  6  1  0  0  0  0
  8  7  1  0  0  0  0
  8 10  2  0  0  0  0
  9  8  1  0  0  0  0
 10 11  1  0  0  0  0
 11 12  2  0  0  0  0
 12  2  1  0  0  0  0
 13  7  1  0  0  0  0
 14 18  1  0  0  0  0
 15 14  1  0  0  0  0
 16 14  1  0  0  0  0
 17 22  1  0  0  0  0
 18 19  1  0  0  0  0
 18 17  2  0  0  0  0
 19 20  2  0  0  0  0
 20 21  1  0  0  0  0
 21 25  1  0  0  0  0
 22 21  2  0  0  0  0
 23 17  1  0  0  0  0
 24 19  1  0  0  0  0
M  END
>  <minimizedAffinity>
-5.32374096

>  <minimizedRMSD>
2.49999309

$$$$
