
 OpenBabel03252500293D

 46 49  0  0  1  0  0  0  0  0999 V2000
   37.2580   29.0160   40.2430 O   0  0  0  0  0  0  0  0  0  0  0  0
   37.2200   29.8500   41.4740 P   0  0  1  0  0  0  0  0  0  0  0  0
   35.7590   30.7060   41.5230 O   0  0  0  0  0  0  0  0  0  0  0  0
   35.5120   31.0470   40.6220 H   0  0  0  0  0  0  0  0  0  0  0  0
   37.3070   28.8220   42.7610 O   0  0  0  0  0  0  0  0  0  0  0  0
   37.7850   26.4940   42.9860 C   0  0  2  0  0  0  0  0  0  0  0  0
   38.2220   27.8290   42.5170 C   0  0  2  0  0  0  0  0  0  0  0  0
   39.5100   28.0740   43.1310 C   0  0  0  0  0  0  0  0  0  0  0  0
   40.0830   26.8430   43.4830 O   0  0  0  0  0  0  0  0  0  0  0  0
   39.2460   25.8900   43.0080 C   0  0  0  0  0  0  0  0  0  0  0  0
   37.6210   26.3460   44.0660 H   0  0  0  0  0  0  0  0  0  0  0  0
   38.1880   27.7210   41.3960 H   0  0  0  0  0  0  0  0  0  0  0  0
   39.7830   28.9370   43.6970 H   0  0  0  0  0  0  0  0  0  0  0  0
   40.1880   28.2820   42.2270 H   0  0  0  0  0  0  0  0  0  0  0  0
   39.4460   25.7780   41.9070 H   0  0  0  0  0  0  0  0  0  0  0  0
   39.2460   24.9130   43.4840 H   0  0  0  0  0  0  0  0  0  0  0  0
   37.0570   25.7480   42.1400 O   0  0  0  0  0  0  0  0  0  0  0  0
   37.2010   24.4720   41.9200 C   0  0  0  0  0  0  0  0  0  0  0  0
   37.2350   23.7860   42.7180 H   0  0  0  0  0  0  0  0  0  0  0  0
   38.3570   24.3380   41.5440 H   0  0  0  0  0  0  0  0  0  0  0  0
   36.4010   24.1030   40.6810 C   0  0  0  0  0  0  0  0  0  0  0  0
   36.2680   24.9700   40.0210 H   0  0  0  0  0  0  0  0  0  0  0  0
   35.4220   23.6470   40.9590 H   0  0  0  0  0  0  0  0  0  0  0  0
   36.9460   23.3100   40.1240 H   0  0  0  0  0  0  0  0  0  0  0  0
   38.5600   30.9000   41.3740 O   0  0  0  0  0  0  0  0  0  0  0  0
   39.5140   34.2270   40.4240 C   0  0  0  0  0  0  0  0  0  0  0  0
   38.3810   34.7280   39.7420 C   0  0  0  0  0  0  0  0  0  0  0  0
   37.2790   33.8500   39.6340 C   0  0  0  0  0  0  0  0  0  0  0  0
   37.3670   32.6180   40.1720 N   0  0  0  0  0  0  0  0  0  0  0  0
   38.4640   32.1850   40.8120 C   0  0  0  0  0  0  0  0  0  0  0  0
   39.5230   32.9950   40.9290 N   0  0  0  0  0  0  0  0  0  0  0  0
   38.3500   35.7220   39.3250 H   0  0  0  0  0  0  0  0  0  0  0  0
   36.4150   34.2200   39.1200 H   0  0  0  0  0  0  0  0  0  0  0  0
   40.6070   35.0350   40.5550 O   0  0  0  0  0  0  0  0  0  0  0  0
   42.8630   34.4480   41.1860 C   0  0  0  0  0  3  0  0  0  0  0  0
   41.8920   34.6500   40.2200 C   0  0  0  0  0  0  0  0  0  0  0  0
   42.0960   34.4930   38.8560 C   0  0  0  0  0  0  0  0  0  0  0  0
   41.3380   34.6520   38.1230 H   0  0  0  0  0  0  0  0  0  0  0  0
   43.3640   34.1060   38.4390 C   0  0  0  0  0  0  0  0  0  0  0  0
   43.8700   33.8730   37.2000 N   0  0  0  0  0  0  0  0  0  0  0  0
   45.1630   33.5230   37.3740 C   0  0  0  0  0  0  0  0  0  0  0  0
   45.8460   33.2730   36.5730 H   0  0  0  0  0  0  0  0  0  0  0  0
   45.4680   33.5330   38.6790 N   0  0  0  0  0  0  0  0  0  0  0  0
   44.3650   33.8930   39.3630 C   0  0  0  0  0  0  0  0  0  0  0  0
   44.1200   34.0610   40.7240 C   0  0  0  0  0  3  0  0  0  0  0  0
   43.3040   33.9680   36.3390 H   0  0  0  0  0  0  0  0  0  0  0  0
  2  1  2  6  0  0  0
  2  3  1  0  0  0  0
  2  5  1  0  0  0  0
  4  3  1  0  0  0  0
  6 10  1  0  0  0  0
  6 11  1  1  0  0  0
  7 12  1  6  0  0  0
  7  5  1  0  0  0  0
  7  6  1  0  0  0  0
  7  8  1  0  0  0  0
  8  9  1  0  0  0  0
  8 13  1  0  0  0  0
 10  9  1  0  0  0  0
 10 16  1  0  0  0  0
 14  8  1  0  0  0  0
 15 10  1  0  0  0  0
 17  6  1  0  0  0  0
 18 17  1  0  0  0  0
 18 19  1  0  0  0  0
 20 18  1  0  0  0  0
 21 23  1  0  0  0  0
 21 18  1  0  0  0  0
 22 21  1  0  0  0  0
 24 21  1  0  0  0  0
 25  2  1  0  0  0  0
 26 34  1  0  0  0  0
 26 31  1  0  0  0  0
 27 26  2  0  0  0  0
 28 27  1  0  0  0  0
 28 29  2  0  0  0  0
 29 30  1  0  0  0  0
 30 31  2  0  0  0  0
 30 25  1  0  0  0  0
 32 27  1  0  0  0  0
 33 28  1  0  0  0  0
 36 34  1  0  0  0  0
 36 35  2  0  0  0  0
 37 36  1  0  0  0  0
 38 37  1  0  0  0  0
 39 37  2  0  0  0  0
 39 44  1  0  0  0  0
 40 41  1  0  0  0  0
 40 39  1  0  0  0  0
 41 43  2  0  0  0  0
 42 41  1  0  0  0  0
 43 44  1  0  0  0  0
 44 45  2  0  0  0  0
 45 35  1  0  0  0  0
 46 40  1  0  0  0  0
M  END
>  <minimizedAffinity>
-6.29514599

$$$$

 OpenBabel03252500293D

 46 49  0  0  1  0  0  0  0  0999 V2000
   39.5820   32.0140   41.1040 O   0  0  0  0  0  0  0  0  0  0  0  0
   38.7550   33.1350   40.5830 P   0  0  1  0  0  0  0  0  0  0  0  0
   38.9430   34.4820   41.5920 O   0  0  0  0  0  0  0  0  0  0  0  0
   38.9640   34.2140   42.5490 H   0  0  0  0  0  0  0  0  0  0  0  0
   39.3090   33.4880   39.0710 O   0  0  0  0  0  0  0  0  0  0  0  0
   41.4130   34.6130   39.1580 C   0  0  2  0  0  0  0  0  0  0  0  0
   40.6720   33.3390   39.0150 C   0  0  2  0  0  0  0  0  0  0  0  0
   41.1320   32.7370   37.7820 C   0  0  0  0  0  0  0  0  0  0  0  0
   42.3950   33.2590   37.4690 O   0  0  0  0  0  0  0  0  0  0  0  0
   42.7420   34.0520   38.5110 C   0  0  0  0  0  0  0  0  0  0  0  0
   41.2720   35.3900   38.3890 H   0  0  0  0  0  0  0  0  0  0  0  0
   40.9090   32.8050   39.9800 H   0  0  0  0  0  0  0  0  0  0  0  0
   40.5160   32.3960   36.9800 H   0  0  0  0  0  0  0  0  0  0  0  0
   41.4980   31.7020   38.1230 H   0  0  0  0  0  0  0  0  0  0  0  0
   43.1150   33.3870   39.3370 H   0  0  0  0  0  0  0  0  0  0  0  0
   43.4500   34.8580   38.3390 H   0  0  0  0  0  0  0  0  0  0  0  0
   41.7140   35.0190   40.4020 O   0  0  0  0  0  0  0  0  0  0  0  0
   42.5330   34.4300   41.2260 C   0  0  0  0  0  0  0  0  0  0  0  0
   43.1000   33.5960   40.9220 H   0  0  0  0  0  0  0  0  0  0  0  0
   41.8190   33.8520   42.0330 H   0  0  0  0  0  0  0  0  0  0  0  0
   43.2070   35.4940   42.0780 C   0  0  0  0  0  0  0  0  0  0  0  0
   42.5880   36.3970   42.1510 H   0  0  0  0  0  0  0  0  0  0  0  0
   44.2270   35.7270   41.6910 H   0  0  0  0  0  0  0  0  0  0  0  0
   43.3670   35.0870   43.1000 H   0  0  0  0  0  0  0  0  0  0  0  0
   37.1450   32.5710   40.5820 O   0  0  0  0  0  0  0  0  0  0  0  0
   36.4040   29.0770   40.9360 C   0  0  0  0  0  0  0  0  0  0  0  0
   36.1660   28.6410   39.6120 C   0  0  0  0  0  0  0  0  0  0  0  0
   36.2770   29.6220   38.6020 C   0  0  0  0  0  0  0  0  0  0  0  0
   36.5950   30.8850   38.9470 N   0  0  0  0  0  0  0  0  0  0  0  0
   36.8130   31.2540   40.2180 C   0  0  0  0  0  0  0  0  0  0  0  0
   36.7150   30.3450   41.1950 N   0  0  0  0  0  0  0  0  0  0  0  0
   35.9130   27.6190   39.3770 H   0  0  0  0  0  0  0  0  0  0  0  0
   36.0980   29.3020   37.5950 H   0  0  0  0  0  0  0  0  0  0  0  0
   36.3080   28.1670   41.9490 O   0  0  0  0  0  0  0  0  0  0  0  0
   37.1540   25.9050   41.9220 C   0  0  0  0  0  3  0  0  0  0  0  0
   37.2920   27.2430   42.2480 C   0  0  0  0  0  0  0  0  0  0  0  0
   38.3970   27.7850   42.8920 C   0  0  0  0  0  0  0  0  0  0  0  0
   38.4900   28.8180   43.1380 H   0  0  0  0  0  0  0  0  0  0  0  0
   39.4310   26.9180   43.2270 C   0  0  0  0  0  0  0  0  0  0  0  0
   40.6200   27.1360   43.8470 N   0  0  0  0  0  0  0  0  0  0  0  0
   41.2400   25.9390   43.9160 C   0  0  0  0  0  0  0  0  0  0  0  0
   42.2140   25.7740   44.3580 H   0  0  0  0  0  0  0  0  0  0  0  0
   40.4720   24.9920   43.3580 N   0  0  0  0  0  0  0  0  0  0  0  0
   39.3400   25.5760   42.9210 C   0  0  0  0  0  0  0  0  0  0  0  0
   38.2140   25.0710   42.2760 C   0  0  0  0  0  3  0  0  0  0  0  0
   40.9170   28.0720   44.1730 H   0  0  0  0  0  0  0  0  0  0  0  0
  2  1  2  1  0  0  0
  2  3  1  0  0  0  0
  3  4  1  0  0  0  0
  5  2  1  0  0  0  0
  6 11  1  6  0  0  0
  6 17  1  0  0  0  0
  7  5  1  0  0  0  0
  7  6  1  0  0  0  0
  7 12  1  1  0  0  0
  8 14  1  0  0  0  0
  8  7  1  0  0  0  0
  9  8  1  0  0  0  0
  9 10  1  0  0  0  0
 10  6  1  0  0  0  0
 10 15  1  0  0  0  0
 13  8  1  0  0  0  0
 16 10  1  0  0  0  0
 17 18  1  0  0  0  0
 18 20  1  0  0  0  0
 18 21  1  0  0  0  0
 19 18  1  0  0  0  0
 21 22  1  0  0  0  0
 21 24  1  0  0  0  0
 23 21  1  0  0  0  0
 25  2  1  0  0  0  0
 26 31  1  0  0  0  0
 26 34  1  0  0  0  0
 27 26  2  0  0  0  0
 28 29  2  0  0  0  0
 28 27  1  0  0  0  0
 29 30  1  0  0  0  0
 30 25  1  0  0  0  0
 30 31  2  0  0  0  0
 32 27  1  0  0  0  0
 33 28  1  0  0  0  0
 34 36  1  0  0  0  0
 35 36  2  0  0  0  0
 35 45  1  0  0  0  0
 36 37  1  0  0  0  0
 37 38  1  0  0  0  0
 37 39  2  0  0  0  0
 39 40  1  0  0  0  0
 40 41  1  0  0  0  0
 40 46  1  0  0  0  0
 41 42  1  0  0  0  0
 43 41  2  0  0  0  0
 44 39  1  0  0  0  0
 44 43  1  0  0  0  0
 45 44  2  0  0  0  0
M  END
>  <minimizedAffinity>
-6.18220949

$$$$

 OpenBabel03252500293D

 46 49  0  0  1  0  0  0  0  0999 V2000
   36.3900   26.7350   43.4720 O   0  0  0  0  0  0  0  0  0  0  0  0
   37.5100   27.7140   43.4320 P   0  0  1  0  0  0  0  0  0  0  0  0
   37.0390   29.1310   44.2320 O   0  0  0  0  0  0  0  0  0  0  0  0
   36.0970   29.3670   44.0210 H   0  0  0  0  0  0  0  0  0  0  0  0
   38.7860   27.0270   44.2190 O   0  0  0  0  0  0  0  0  0  0  0  0
   39.9750   25.1110   43.4340 C   0  0  2  0  0  0  0  0  0  0  0  0
   39.7090   26.5640   43.3160 C   0  0  2  0  0  0  0  0  0  0  0  0
   40.9940   27.2220   43.4220 C   0  0  0  0  0  0  0  0  0  0  0  0
   41.9990   26.3050   43.0800 O   0  0  0  0  0  0  0  0  0  0  0  0
   41.3610   25.1810   42.6780 C   0  0  0  0  0  0  0  0  0  0  0  0
   40.4150   24.7340   44.3720 H   0  0  0  0  0  0  0  0  0  0  0  0
   39.1620   26.6360   42.3330 H   0  0  0  0  0  0  0  0  0  0  0  0
   41.2410   28.0150   44.0920 H   0  0  0  0  0  0  0  0  0  0  0  0
   41.0450   27.8390   42.4540 H   0  0  0  0  0  0  0  0  0  0  0  0
   41.0170   25.3440   41.6190 H   0  0  0  0  0  0  0  0  0  0  0  0
   41.8830   24.2310   42.7530 H   0  0  0  0  0  0  0  0  0  0  0  0
   39.1820   24.2780   42.7410 O   0  0  0  0  0  0  0  0  0  0  0  0
   38.7830   24.4410   41.5120 C   0  0  0  0  0  0  0  0  0  0  0  0
   39.4090   24.1930   40.7020 H   0  0  0  0  0  0  0  0  0  0  0  0
   38.7650   25.6510   41.3360 H   0  0  0  0  0  0  0  0  0  0  0  0
   37.3100   24.0700   41.4300 C   0  0  0  0  0  0  0  0  0  0  0  0
   36.8160   24.1870   42.4020 H   0  0  0  0  0  0  0  0  0  0  0  0
   37.1810   23.0380   41.0260 H   0  0  0  0  0  0  0  0  0  0  0  0
   36.8120   24.7370   40.6940 H   0  0  0  0  0  0  0  0  0  0  0  0
   37.8270   28.0010   41.7810 O   0  0  0  0  0  0  0  0  0  0  0  0
   38.8380   30.9500   40.0030 C   0  0  0  0  0  0  0  0  0  0  0  0
   37.7080   31.7970   40.0710 C   0  0  0  0  0  0  0  0  0  0  0  0
   36.5870   31.2880   40.7630 C   0  0  0  0  0  0  0  0  0  0  0  0
   36.6560   30.0560   41.3060 N   0  0  0  0  0  0  0  0  0  0  0  0
   37.7510   29.2870   41.2170 C   0  0  0  0  0  0  0  0  0  0  0  0
   38.8270   29.7440   40.5670 N   0  0  0  0  0  0  0  0  0  0  0  0
   37.6930   32.7780   39.6220 H   0  0  0  0  0  0  0  0  0  0  0  0
   35.7250   31.9220   40.8210 H   0  0  0  0  0  0  0  0  0  0  0  0
   39.9480   31.3950   39.3430 O   0  0  0  0  0  0  0  0  0  0  0  0
   40.7630   33.6560   39.1000 C   0  0  0  0  0  3  0  0  0  0  0  0
   40.7290   32.4500   39.7790 C   0  0  0  0  0  0  0  0  0  0  0  0
   41.4540   32.1760   40.9310 C   0  0  0  0  0  0  0  0  0  0  0  0
   41.4190   31.2410   41.4430 H   0  0  0  0  0  0  0  0  0  0  0  0
   42.2650   33.1870   41.4330 C   0  0  0  0  0  0  0  0  0  0  0  0
   43.0790   33.2300   42.5190 N   0  0  0  0  0  0  0  0  0  0  0  0
   43.6320   34.4620   42.5350 C   0  0  0  0  0  0  0  0  0  0  0  0
   44.3330   34.8130   43.2810 H   0  0  0  0  0  0  0  0  0  0  0  0
   43.1840   35.1780   41.4950 N   0  0  0  0  0  0  0  0  0  0  0  0
   42.3320   34.4070   40.7920 C   0  0  0  0  0  0  0  0  0  0  0  0
   41.5890   34.6420   39.6380 C   0  0  0  0  0  3  0  0  0  0  0  0
   43.1960   32.4270   43.1610 H   0  0  0  0  0  0  0  0  0  0  0  0
  2  1  2  1  0  0  0
  2  5  1  0  0  0  0
  2  3  1  0  0  0  0
  4  3  1  0  0  0  0
  6 11  1  1  0  0  0
  7 12  1  6  0  0  0
  7  8  1  0  0  0  0
  7  6  1  0  0  0  0
  7  5  1  0  0  0  0
  8 13  1  0  0  0  0
  9  8  1  0  0  0  0
 10 16  1  0  0  0  0
 10  9  1  0  0  0  0
 10  6  1  0  0  0  0
 14  8  1  0  0  0  0
 15 10  1  0  0  0  0
 17  6  1  0  0  0  0
 18 17  1  0  0  0  0
 19 18  1  0  0  0  0
 20 18  1  0  0  0  0
 21 18  1  0  0  0  0
 21 22  1  0  0  0  0
 23 21  1  0  0  0  0
 24 21  1  0  0  0  0
 25  2  1  0  0  0  0
 26 27  2  0  0  0  0
 26 31  1  0  0  0  0
 27 28  1  0  0  0  0
 28 33  1  0  0  0  0
 28 29  2  0  0  0  0
 30 29  1  0  0  0  0
 30 25  1  0  0  0  0
 31 30  2  0  0  0  0
 32 27  1  0  0  0  0
 34 36  1  0  0  0  0
 34 26  1  0  0  0  0
 35 45  2  0  0  0  0
 35 36  1  0  0  0  0
 36 37  2  0  0  0  0
 37 39  1  0  0  0  0
 37 38  1  0  0  0  0
 39 40  1  0  0  0  0
 40 41  1  0  0  0  0
 40 46  1  0  0  0  0
 41 42  1  0  0  0  0
 43 41  2  0  0  0  0
 44 39  2  0  0  0  0
 44 43  1  0  0  0  0
 45 44  1  0  0  0  0
M  END
>  <minimizedAffinity>
-6.01893187

$$$$

 OpenBabel03252500293D

 46 49  0  0  1  0  0  0  0  0999 V2000
   36.2490   27.0340   43.4990 O   0  0  0  0  0  0  0  0  0  0  0  0
   37.4960   27.7600   43.1400 P   0  0  1  0  0  0  0  0  0  0  0  0
   37.2880   29.4130   43.4480 O   0  0  0  0  0  0  0  0  0  0  0  0
   36.3800   29.7170   43.1800 H   0  0  0  0  0  0  0  0  0  0  0  0
   38.7000   27.1620   44.0950 O   0  0  0  0  0  0  0  0  0  0  0  0
   40.0970   25.2760   43.6580 C   0  0  2  0  0  0  0  0  0  0  0  0
   39.7210   26.6690   43.3230 C   0  0  2  0  0  0  0  0  0  0  0  0
   40.9370   27.4500   43.4140 C   0  0  0  0  0  0  0  0  0  0  0  0
   42.0360   26.5920   43.2650 O   0  0  0  0  0  0  0  0  0  0  0  0
   41.5240   25.3700   42.9840 C   0  0  0  0  0  0  0  0  0  0  0  0
   40.4960   25.0690   44.6640 H   0  0  0  0  0  0  0  0  0  0  0  0
   39.2420   26.5590   42.3080 H   0  0  0  0  0  0  0  0  0  0  0  0
   41.0690   28.3440   43.9810 H   0  0  0  0  0  0  0  0  0  0  0  0
   41.0060   27.9350   42.3740 H   0  0  0  0  0  0  0  0  0  0  0  0
   41.2440   25.3590   41.8950 H   0  0  0  0  0  0  0  0  0  0  0  0
   42.1150   24.4900   43.2230 H   0  0  0  0  0  0  0  0  0  0  0  0
   39.4270   24.2890   43.0420 O   0  0  0  0  0  0  0  0  0  0  0  0
   39.0900   24.2570   41.7830 C   0  0  0  0  0  0  0  0  0  0  0  0
   39.7230   23.8220   41.0640 H   0  0  0  0  0  0  0  0  0  0  0  0
   39.1790   25.4140   41.3960 H   0  0  0  0  0  0  0  0  0  0  0  0
   37.5950   23.9890   41.6910 C   0  0  0  0  0  0  0  0  0  0  0  0
   37.0760   24.3150   42.6010 H   0  0  0  0  0  0  0  0  0  0  0  0
   37.3960   22.9140   41.4700 H   0  0  0  0  0  0  0  0  0  0  0  0
   37.1830   24.5480   40.8250 H   0  0  0  0  0  0  0  0  0  0  0  0
   37.7560   27.4590   41.4820 O   0  0  0  0  0  0  0  0  0  0  0  0
   36.4790   30.1470   39.4760 C   0  0  0  0  0  0  0  0  0  0  0  0
   35.6330   29.5070   38.5410 C   0  0  0  0  0  0  0  0  0  0  0  0
   35.5340   28.1020   38.6490 C   0  0  0  0  0  0  0  0  0  0  0  0
   36.2330   27.4680   39.6100 N   0  0  0  0  0  0  0  0  0  0  0  0
   37.0250   28.1170   40.4770 C   0  0  0  0  0  0  0  0  0  0  0  0
   37.1380   29.4480   40.3980 N   0  0  0  0  0  0  0  0  0  0  0  0
   35.0890   30.0520   37.7850 H   0  0  0  0  0  0  0  0  0  0  0  0
   34.8950   27.6060   37.9460 H   0  0  0  0  0  0  0  0  0  0  0  0
   36.6110   31.5050   39.4130 O   0  0  0  0  0  0  0  0  0  0  0  0
   38.2470   32.9490   40.4480 C   0  0  0  0  0  3  0  0  0  0  0  0
   37.8290   32.1580   39.3910 C   0  0  0  0  0  0  0  0  0  0  0  0
   38.5630   31.9440   38.2320 C   0  0  0  0  0  0  0  0  0  0  0  0
   38.2280   31.3330   37.4250 H   0  0  0  0  0  0  0  0  0  0  0  0
   39.8010   32.5680   38.1330 C   0  0  0  0  0  0  0  0  0  0  0  0
   40.7370   32.5560   37.1490 N   0  0  0  0  0  0  0  0  0  0  0  0
   41.7520   33.3380   37.5770 C   0  0  0  0  0  0  0  0  0  0  0  0
   42.6560   33.5340   37.0160 H   0  0  0  0  0  0  0  0  0  0  0  0
   41.4710   33.8290   38.7920 N   0  0  0  0  0  0  0  0  0  0  0  0
   40.2610   33.3650   39.1610 C   0  0  0  0  0  0  0  0  0  0  0  0
   39.4940   33.5560   40.3080 C   0  0  0  0  0  3  0  0  0  0  0  0
   40.6170   32.0230   36.2700 H   0  0  0  0  0  0  0  0  0  0  0  0
  2  3  1  0  0  0  0
  2  1  2  1  0  0  0
  2  5  1  0  0  0  0
  4  3  1  0  0  0  0
  6 11  1  1  0  0  0
  7 12  1  6  0  0  0
  7  8  1  0  0  0  0
  7  6  1  0  0  0  0
  7  5  1  0  0  0  0
  8 13  1  0  0  0  0
  9  8  1  0  0  0  0
 10 16  1  0  0  0  0
 10  9  1  0  0  0  0
 10  6  1  0  0  0  0
 14  8  1  0  0  0  0
 15 10  1  0  0  0  0
 17  6  1  0  0  0  0
 18 17  1  0  0  0  0
 19 18  1  0  0  0  0
 20 18  1  0  0  0  0
 21 18  1  0  0  0  0
 21 22  1  0  0  0  0
 23 21  1  0  0  0  0
 24 21  1  0  0  0  0
 25  2  1  0  0  0  0
 26 31  1  0  0  0  0
 27 28  1  0  0  0  0
 27 26  2  0  0  0  0
 28 29  2  0  0  0  0
 29 30  1  0  0  0  0
 30 25  1  0  0  0  0
 31 30  2  0  0  0  0
 32 27  1  0  0  0  0
 33 28  1  0  0  0  0
 34 26  1  0  0  0  0
 36 34  1  0  0  0  0
 36 35  2  0  0  0  0
 37 36  1  0  0  0  0
 38 37  1  0  0  0  0
 39 37  2  0  0  0  0
 39 44  1  0  0  0  0
 40 41  1  0  0  0  0
 40 39  1  0  0  0  0
 41 43  2  0  0  0  0
 42 41  1  0  0  0  0
 43 44  1  0  0  0  0
 44 45  2  0  0  0  0
 45 35  1  0  0  0  0
 46 40  1  0  0  0  0
M  END
>  <minimizedAffinity>
-6.00866032

$$$$

 OpenBabel03252500293D

 46 49  0  0  1  0  0  0  0  0999 V2000
   36.9420   34.2590   39.2470 O   0  0  0  0  0  0  0  0  0  0  0  0
   37.8820   33.2130   39.7320 P   0  0  1  0  0  0  0  0  0  0  0  0
   38.4830   32.3440   38.4070 O   0  0  0  0  0  0  0  0  0  0  0  0
   37.7690   32.1720   37.7380 H   0  0  0  0  0  0  0  0  0  0  0  0
   39.1200   33.9880   40.4990 O   0  0  0  0  0  0  0  0  0  0  0  0
   41.0140   32.5500   40.7090 C   0  0  2  0  0  0  0  0  0  0  0  0
   40.3240   33.6200   39.9530 C   0  0  2  0  0  0  0  0  0  0  0  0
   41.2640   34.7160   39.8490 C   0  0  0  0  0  0  0  0  0  0  0  0
   42.5630   34.2130   40.0110 O   0  0  0  0  0  0  0  0  0  0  0  0
   42.4360   32.8670   40.0950 C   0  0  0  0  0  0  0  0  0  0  0  0
   41.3270   32.7600   41.7450 H   0  0  0  0  0  0  0  0  0  0  0  0
   40.0220   33.0960   39.0010 H   0  0  0  0  0  0  0  0  0  0  0  0
   41.0790   35.7310   40.1230 H   0  0  0  0  0  0  0  0  0  0  0  0
   41.3300   34.8900   38.7150 H   0  0  0  0  0  0  0  0  0  0  0  0
   42.3080   32.4700   39.0500 H   0  0  0  0  0  0  0  0  0  0  0  0
   43.2070   32.3030   40.6110 H   0  0  0  0  0  0  0  0  0  0  0  0
   40.7160   31.2790   40.3960 O   0  0  0  0  0  0  0  0  0  0  0  0
   40.2560   30.3740   41.2120 C   0  0  0  0  0  0  0  0  0  0  0  0
   40.6250   29.3870   41.1900 H   0  0  0  0  0  0  0  0  0  0  0  0
   39.1240   30.1300   40.8190 H   0  0  0  0  0  0  0  0  0  0  0  0
   40.0080   31.0240   42.5640 C   0  0  0  0  0  0  0  0  0  0  0  0
   39.8310   32.1030   42.4600 H   0  0  0  0  0  0  0  0  0  0  0  0
   40.8470   30.8140   43.2680 H   0  0  0  0  0  0  0  0  0  0  0  0
   39.1130   30.5590   43.0280 H   0  0  0  0  0  0  0  0  0  0  0  0
   36.9770   32.2150   40.7790 O   0  0  0  0  0  0  0  0  0  0  0  0
   36.2890   28.7120   41.1490 C   0  0  0  0  0  0  0  0  0  0  0  0
   35.9020   28.2990   39.8530 C   0  0  0  0  0  0  0  0  0  0  0  0
   35.8950   29.2990   38.8550 C   0  0  0  0  0  0  0  0  0  0  0  0
   36.2470   30.5570   39.1860 N   0  0  0  0  0  0  0  0  0  0  0  0
   36.6090   30.9040   40.4300 C   0  0  0  0  0  0  0  0  0  0  0  0
   36.6240   29.9770   41.3950 N   0  0  0  0  0  0  0  0  0  0  0  0
   35.6260   27.2810   39.6300 H   0  0  0  0  0  0  0  0  0  0  0  0
   35.6030   28.9970   37.8700 H   0  0  0  0  0  0  0  0  0  0  0  0
   36.3110   27.7840   42.1500 O   0  0  0  0  0  0  0  0  0  0  0  0
   37.3610   25.6100   42.0820 C   0  0  0  0  0  3  0  0  0  0  0  0
   37.3880   26.9560   42.4060 C   0  0  0  0  0  0  0  0  0  0  0  0
   38.4630   27.5980   43.0050 C   0  0  0  0  0  0  0  0  0  0  0  0
   38.4700   28.6360   43.2500 H   0  0  0  0  0  0  0  0  0  0  0  0
   39.5860   26.8320   43.2950 C   0  0  0  0  0  0  0  0  0  0  0  0
   40.7740   27.1600   43.8670 N   0  0  0  0  0  0  0  0  0  0  0  0
   41.5050   26.0250   43.9080 C   0  0  0  0  0  0  0  0  0  0  0  0
   42.5070   25.9520   44.3090 H   0  0  0  0  0  0  0  0  0  0  0  0
   40.8060   25.0110   43.3790 N   0  0  0  0  0  0  0  0  0  0  0  0
   39.6080   25.4870   42.9900 C   0  0  0  0  0  0  0  0  0  0  0  0
   38.5080   24.8790   42.3890 C   0  0  0  0  0  3  0  0  0  0  0  0
   40.9960   28.1200   44.1830 H   0  0  0  0  0  0  0  0  0  0  0  0
  2  1  2  6  0  0  0
  2  5  1  0  0  0  0
  2 25  1  0  0  0  0
  3  2  1  0  0  0  0
  4  3  1  0  0  0  0
  6 11  1  1  0  0  0
  7 12  1  6  0  0  0
  7  5  1  0  0  0  0
  7  6  1  0  0  0  0
  8  7  1  0  0  0  0
  8  9  1  0  0  0  0
  8 13  1  0  0  0  0
  9 10  1  0  0  0  0
 10 16  1  0  0  0  0
 10  6  1  0  0  0  0
 14  8  1  0  0  0  0
 15 10  1  0  0  0  0
 17  6  1  0  0  0  0
 17 18  1  0  0  0  0
 18 21  1  0  0  0  0
 19 18  1  0  0  0  0
 20 18  1  0  0  0  0
 21 24  1  0  0  0  0
 21 23  1  0  0  0  0
 22 21  1  0  0  0  0
 26 31  1  0  0  0  0
 26 34  1  0  0  0  0
 27 26  2  0  0  0  0
 28 29  2  0  0  0  0
 28 27  1  0  0  0  0
 29 30  1  0  0  0  0
 30 25  1  0  0  0  0
 30 31  2  0  0  0  0
 32 27  1  0  0  0  0
 33 28  1  0  0  0  0
 34 36  1  0  0  0  0
 35 45  2  0  0  0  0
 35 36  1  0  0  0  0
 36 37  2  0  0  0  0
 37 38  1  0  0  0  0
 37 39  1  0  0  0  0
 39 40  1  0  0  0  0
 40 41  1  0  0  0  0
 40 46  1  0  0  0  0
 41 42  1  0  0  0  0
 43 41  2  0  0  0  0
 44 39  2  0  0  0  0
 44 43  1  0  0  0  0
 45 44  1  0  0  0  0
M  END
>  <minimizedAffinity>
-5.80483246

$$$$

 OpenBabel03252500293D

 46 49  0  0  1  0  0  0  0  0999 V2000
   42.6150   29.3320   40.7360 O   0  0  0  0  0  0  0  0  0  0  0  0
   41.6300   29.9040   41.6910 P   0  0  1  0  0  0  0  0  0  0  0  0
   40.0820   29.8320   41.0070 O   0  0  0  0  0  0  0  0  0  0  0  0
   40.1060   30.0620   40.0400 H   0  0  0  0  0  0  0  0  0  0  0  0
   41.6800   28.9800   43.0560 O   0  0  0  0  0  0  0  0  0  0  0  0
   39.8800   27.4790   43.5090 C   0  0  2  0  0  0  0  0  0  0  0  0
   41.1600   27.7350   42.8080 C   0  0  2  0  0  0  0  0  0  0  0  0
   42.0500   26.6570   43.1820 C   0  0  0  0  0  0  0  0  0  0  0  0
   41.2800   25.5610   43.6010 O   0  0  0  0  0  0  0  0  0  0  0  0
   39.9890   25.9070   43.3880 C   0  0  0  0  0  0  0  0  0  0  0  0
   39.8780   27.4750   44.6110 H   0  0  0  0  0  0  0  0  0  0  0  0
   40.8410   27.8030   41.7290 H   0  0  0  0  0  0  0  0  0  0  0  0
   43.0340   26.7630   43.5820 H   0  0  0  0  0  0  0  0  0  0  0  0
   42.3610   26.2190   42.1660 H   0  0  0  0  0  0  0  0  0  0  0  0
   39.7730   25.7640   42.2930 H   0  0  0  0  0  0  0  0  0  0  0  0
   39.2160   25.4260   43.9820 H   0  0  0  0  0  0  0  0  0  0  0  0
   38.7490   27.8520   42.8890 O   0  0  0  0  0  0  0  0  0  0  0  0
   37.7210   28.4270   43.4440 C   0  0  0  0  0  0  0  0  0  0  0  0
   37.5130   29.4460   43.2750 H   0  0  0  0  0  0  0  0  0  0  0  0
   38.0030   28.5160   44.6310 H   0  0  0  0  0  0  0  0  0  0  0  0
   36.5610   27.4430   43.4500 C   0  0  0  0  0  0  0  0  0  0  0  0
   36.9200   26.4060   43.4240 H   0  0  0  0  0  0  0  0  0  0  0  0
   35.8560   27.6530   42.6110 H   0  0  0  0  0  0  0  0  0  0  0  0
   35.9670   27.5930   44.3760 H   0  0  0  0  0  0  0  0  0  0  0  0
   42.1200   31.5150   41.9650 O   0  0  0  0  0  0  0  0  0  0  0  0
   39.9010   33.5860   40.0490 C   0  0  0  0  0  0  0  0  0  0  0  0
   40.7320   34.6220   39.5640 C   0  0  0  0  0  0  0  0  0  0  0  0
   42.0920   34.5590   39.9380 C   0  0  0  0  0  0  0  0  0  0  0  0
   42.5110   33.5420   40.7160 N   0  0  0  0  0  0  0  0  0  0  0  0
   41.6860   32.5780   41.1540 C   0  0  0  0  0  0  0  0  0  0  0  0
   40.3930   32.6130   40.8150 N   0  0  0  0  0  0  0  0  0  0  0  0
   40.3560   35.4210   38.9430 H   0  0  0  0  0  0  0  0  0  0  0  0
   42.7300   35.3400   39.5760 H   0  0  0  0  0  0  0  0  0  0  0  0
   38.5760   33.6020   39.7180 O   0  0  0  0  0  0  0  0  0  0  0  0
   37.8880   31.8990   38.1490 C   0  0  0  0  0  3  0  0  0  0  0  0
   37.8480   32.4680   39.4110 C   0  0  0  0  0  0  0  0  0  0  0  0
   37.0950   31.9780   40.4700 C   0  0  0  0  0  0  0  0  0  0  0  0
   37.0730   32.4270   41.4370 H   0  0  0  0  0  0  0  0  0  0  0  0
   36.3330   30.8380   40.2400 C   0  0  0  0  0  0  0  0  0  0  0  0
   35.5090   30.1290   41.0550 N   0  0  0  0  0  0  0  0  0  0  0  0
   35.0240   29.1090   40.3150 C   0  0  0  0  0  0  0  0  0  0  0  0
   34.3340   28.3590   40.6780 H   0  0  0  0  0  0  0  0  0  0  0  0
   35.5230   29.1670   39.0730 N   0  0  0  0  0  0  0  0  0  0  0  0
   36.3410   30.2340   39.0000 C   0  0  0  0  0  0  0  0  0  0  0  0
   37.1090   30.7570   37.9630 C   0  0  0  0  0  3  0  0  0  0  0  0
   35.3410   30.3900   42.0420 H   0  0  0  0  0  0  0  0  0  0  0  0
  2  1  2  6  0  0  0
  2 25  1  0  0  0  0
  2  5  1  0  0  0  0
  3  2  1  0  0  0  0
  4  3  1  0  0  0  0
  6 11  1  1  0  0  0
  7 12  1  6  0  0  0
  7  5  1  0  0  0  0
  7  8  1  0  0  0  0
  7  6  1  0  0  0  0
  8 13  1  0  0  0  0
  8  9  1  0  0  0  0
 10  6  1  0  0  0  0
 10  9  1  0  0  0  0
 10 16  1  0  0  0  0
 14  8  1  0  0  0  0
 15 10  1  0  0  0  0
 17 18  1  0  0  0  0
 17  6  1  0  0  0  0
 18 21  1  0  0  0  0
 18 20  1  0  0  0  0
 19 18  1  0  0  0  0
 21 24  1  0  0  0  0
 22 21  1  0  0  0  0
 23 21  1  0  0  0  0
 26 31  1  0  0  0  0
 27 28  1  0  0  0  0
 27 26  2  0  0  0  0
 28 29  2  0  0  0  0
 29 30  1  0  0  0  0
 30 25  1  0  0  0  0
 31 30  2  0  0  0  0
 32 27  1  0  0  0  0
 33 28  1  0  0  0  0
 34 26  1  0  0  0  0
 35 36  1  0  0  0  0
 36 34  1  0  0  0  0
 36 37  2  0  0  0  0
 37 38  1  0  0  0  0
 39 37  1  0  0  0  0
 39 40  1  0  0  0  0
 40 46  1  0  0  0  0
 41 42  1  0  0  0  0
 41 40  1  0  0  0  0
 43 41  2  0  0  0  0
 44 43  1  0  0  0  0
 44 39  2  0  0  0  0
 45 35  2  0  0  0  0
 45 44  1  0  0  0  0
M  END
>  <minimizedAffinity>
-5.73430014

$$$$

 OpenBabel03252500293D

 46 49  0  0  1  0  0  0  0  0999 V2000
   36.1580   27.1590   43.5450 O   0  0  0  0  0  0  0  0  0  0  0  0
   37.4450   27.7580   43.0990 P   0  0  1  0  0  0  0  0  0  0  0  0
   37.3340   29.4460   43.1850 O   0  0  0  0  0  0  0  0  0  0  0  0
   36.4450   29.7640   42.8750 H   0  0  0  0  0  0  0  0  0  0  0  0
   38.6160   27.2210   44.1290 O   0  0  0  0  0  0  0  0  0  0  0  0
   40.1790   27.8050   42.4220 C   0  0  2  0  0  0  0  0  0  0  0  0
   39.7210   26.8160   43.4260 C   0  0  2  0  0  0  0  0  0  0  0  0
   39.5210   25.5740   42.7100 C   0  0  0  0  0  0  0  0  0  0  0  0
   40.2860   25.6020   41.5350 O   0  0  0  0  0  0  0  0  0  0  0  0
   41.0030   26.7490   41.5810 C   0  0  0  0  0  0  0  0  0  0  0  0
   39.5020   28.0580   41.5900 H   0  0  0  0  0  0  0  0  0  0  0  0
   40.5420   26.8510   44.1990 H   0  0  0  0  0  0  0  0  0  0  0  0
   38.6370   24.9770   42.7210 H   0  0  0  0  0  0  0  0  0  0  0  0
   40.1910   24.8380   43.2850 H   0  0  0  0  0  0  0  0  0  0  0  0
   41.8810   26.5760   42.2630 H   0  0  0  0  0  0  0  0  0  0  0  0
   41.3430   27.1900   40.6480 H   0  0  0  0  0  0  0  0  0  0  0  0
   41.0390   28.7510   42.8320 O   0  0  0  0  0  0  0  0  0  0  0  0
   42.1740   28.5470   43.4390 C   0  0  0  0  0  0  0  0  0  0  0  0
   42.7070   27.6490   43.3030 H   0  0  0  0  0  0  0  0  0  0  0  0
   41.8860   28.3850   44.6160 H   0  0  0  0  0  0  0  0  0  0  0  0
   42.9500   29.8550   43.4610 C   0  0  0  0  0  0  0  0  0  0  0  0
   42.2760   30.7180   43.3970 H   0  0  0  0  0  0  0  0  0  0  0  0
   43.7200   29.8760   42.6540 H   0  0  0  0  0  0  0  0  0  0  0  0
   43.5210   29.9170   44.4120 H   0  0  0  0  0  0  0  0  0  0  0  0
   37.6810   27.2250   41.4960 O   0  0  0  0  0  0  0  0  0  0  0  0
   36.3270   29.6790   39.2530 C   0  0  0  0  0  0  0  0  0  0  0  0
   35.5790   28.9190   38.3230 C   0  0  0  0  0  0  0  0  0  0  0  0
   35.5740   27.5210   38.5210 C   0  0  0  0  0  0  0  0  0  0  0  0
   36.2640   27.0030   39.5560 N   0  0  0  0  0  0  0  0  0  0  0  0
   36.9600   27.7620   40.4140 C   0  0  0  0  0  0  0  0  0  0  0  0
   36.9830   29.0900   40.2510 N   0  0  0  0  0  0  0  0  0  0  0  0
   35.0400   29.3740   37.5070 H   0  0  0  0  0  0  0  0  0  0  0  0
   35.0100   26.9360   37.8220 H   0  0  0  0  0  0  0  0  0  0  0  0
   36.3660   31.0360   39.1060 O   0  0  0  0  0  0  0  0  0  0  0  0
   38.6270   31.5050   38.3980 C   0  0  0  0  0  3  0  0  0  0  0  0
   37.5250   31.7850   39.1880 C   0  0  0  0  0  0  0  0  0  0  0  0
   37.4670   32.8130   40.1200 C   0  0  0  0  0  0  0  0  0  0  0  0
   36.6110   33.0170   40.7220 H   0  0  0  0  0  0  0  0  0  0  0  0
   38.5950   33.6120   40.2620 C   0  0  0  0  0  0  0  0  0  0  0  0
   38.8460   34.6750   41.0700 N   0  0  0  0  0  0  0  0  0  0  0  0
   40.1070   35.0740   40.7960 C   0  0  0  0  0  0  0  0  0  0  0  0
   40.6080   35.9040   41.2760 H   0  0  0  0  0  0  0  0  0  0  0  0
   40.6390   34.2920   39.8460 N   0  0  0  0  0  0  0  0  0  0  0  0
   39.7170   33.3740   39.4970 C   0  0  0  0  0  0  0  0  0  0  0  0
   39.7360   32.3310   38.5730 C   0  0  0  0  0  3  0  0  0  0  0  0
   38.1500   35.0450   41.7390 H   0  0  0  0  0  0  0  0  0  0  0  0
  2  3  1  0  0  0  0
  2  1  2  1  0  0  0
  2  5  1  0  0  0  0
  4  3  1  0  0  0  0
  6 11  1  6  0  0  0
  6 17  1  0  0  0  0
  6  7  1  0  0  0  0
  7  5  1  0  0  0  0
  7 12  1  1  0  0  0
  8 13  1  0  0  0  0
  8 14  1  0  0  0  0
  8  7  1  0  0  0  0
  9 10  1  0  0  0  0
  9  8  1  0  0  0  0
 10 15  1  0  0  0  0
 10  6  1  0  0  0  0
 16 10  1  0  0  0  0
 17 18  1  0  0  0  0
 18 21  1  0  0  0  0
 18 20  1  0  0  0  0
 19 18  1  0  0  0  0
 21 24  1  0  0  0  0
 22 21  1  0  0  0  0
 23 21  1  0  0  0  0
 25  2  1  0  0  0  0
 26 31  1  0  0  0  0
 27 28  1  0  0  0  0
 27 26  2  0  0  0  0
 28 29  2  0  0  0  0
 29 30  1  0  0  0  0
 30 25  1  0  0  0  0
 31 30  2  0  0  0  0
 32 27  1  0  0  0  0
 33 28  1  0  0  0  0
 34 36  1  0  0  0  0
 34 26  1  0  0  0  0
 35 45  2  0  0  0  0
 35 36  1  0  0  0  0
 36 37  2  0  0  0  0
 37 39  1  0  0  0  0
 37 38  1  0  0  0  0
 39 40  1  0  0  0  0
 40 46  1  0  0  0  0
 41 40  1  0  0  0  0
 41 42  1  0  0  0  0
 43 41  2  0  0  0  0
 44 43  1  0  0  0  0
 44 39  2  0  0  0  0
 45 44  1  0  0  0  0
M  END
>  <minimizedAffinity>
-5.68313646

$$$$

 OpenBabel03252500293D

 46 49  0  0  1  0  0  0  0  0999 V2000
   42.9070   31.7850   42.9960 O   0  0  0  0  0  0  0  0  0  0  0  0
   41.7970   31.2350   42.1730 P   0  0  1  0  0  0  0  0  0  0  0  0
   40.3320   31.4550   42.9940 O   0  0  0  0  0  0  0  0  0  0  0  0
   40.4340   31.2760   43.9660 H   0  0  0  0  0  0  0  0  0  0  0  0
   41.7760   32.0790   40.7570 O   0  0  0  0  0  0  0  0  0  0  0  0
   39.7690   33.1800   40.0790 C   0  0  2  0  0  0  0  0  0  0  0  0
   41.0110   33.2100   40.8870 C   0  0  2  0  0  0  0  0  0  0  0  0
   41.7100   34.4210   40.5130 C   0  0  0  0  0  0  0  0  0  0  0  0
   40.7860   35.3260   39.9710 O   0  0  0  0  0  0  0  0  0  0  0  0
   39.5690   34.7480   40.1090 C   0  0  0  0  0  0  0  0  0  0  0  0
   39.8600   33.1320   38.9810 H   0  0  0  0  0  0  0  0  0  0  0  0
   40.6210   33.1330   41.9420 H   0  0  0  0  0  0  0  0  0  0  0  0
   42.7270   34.4870   40.1940 H   0  0  0  0  0  0  0  0  0  0  0  0
   41.8460   34.9580   41.5200 H   0  0  0  0  0  0  0  0  0  0  0  0
   39.2380   34.8990   41.1730 H   0  0  0  0  0  0  0  0  0  0  0  0
   38.7730   35.0420   39.4300 H   0  0  0  0  0  0  0  0  0  0  0  0
   38.6810   32.6270   40.6360 O   0  0  0  0  0  0  0  0  0  0  0  0
   38.1050   31.5190   40.2630 C   0  0  0  0  0  0  0  0  0  0  0  0
   37.8870   30.7610   40.9600 H   0  0  0  0  0  0  0  0  0  0  0  0
   38.9550   30.9120   39.6260 H   0  0  0  0  0  0  0  0  0  0  0  0
   37.0660   31.8490   39.2020 C   0  0  0  0  0  0  0  0  0  0  0  0
   37.3150   32.7810   38.6780 H   0  0  0  0  0  0  0  0  0  0  0  0
   36.0430   31.8890   39.6450 H   0  0  0  0  0  0  0  0  0  0  0  0
   37.0330   31.0220   38.4620 H   0  0  0  0  0  0  0  0  0  0  0  0
   42.1500   29.5810   41.9520 O   0  0  0  0  0  0  0  0  0  0  0  0
   39.4540   27.5760   43.2150 C   0  0  0  0  0  0  0  0  0  0  0  0
   40.0920   26.6260   44.0460 C   0  0  0  0  0  0  0  0  0  0  0  0
   41.4980   26.7240   44.1400 C   0  0  0  0  0  0  0  0  0  0  0  0
   42.1350   27.6900   43.4510 N   0  0  0  0  0  0  0  0  0  0  0  0
   41.4880   28.5710   42.6730 C   0  0  0  0  0  0  0  0  0  0  0  0
   40.1560   28.5020   42.5650 N   0  0  0  0  0  0  0  0  0  0  0  0
   39.5440   25.8670   44.5820 H   0  0  0  0  0  0  0  0  0  0  0  0
   41.9910   26.0090   44.7680 H   0  0  0  0  0  0  0  0  0  0  0  0
   38.0950   27.5230   43.0880 O   0  0  0  0  0  0  0  0  0  0  0  0
   37.7780   26.6920   40.8420 C   0  0  0  0  0  3  0  0  0  0  0  0
   37.4350   27.5500   41.8740 C   0  0  0  0  0  0  0  0  0  0  0  0
   36.4250   28.5000   41.8020 C   0  0  0  0  0  0  0  0  0  0  0  0
   36.1720   29.1550   42.6040 H   0  0  0  0  0  0  0  0  0  0  0  0
   35.7140   28.5900   40.6110 C   0  0  0  0  0  0  0  0  0  0  0  0
   34.6890   29.3990   40.2350 N   0  0  0  0  0  0  0  0  0  0  0  0
   34.3780   29.0580   38.9660 C   0  0  0  0  0  0  0  0  0  0  0  0
   33.5980   29.5210   38.3770 H   0  0  0  0  0  0  0  0  0  0  0  0
   35.1770   28.0650   38.5490 N   0  0  0  0  0  0  0  0  0  0  0  0
   36.0180   27.7560   39.5550 C   0  0  0  0  0  0  0  0  0  0  0  0
   37.0400   26.8160   39.6670 C   0  0  0  0  0  3  0  0  0  0  0  0
   34.2830   30.1140   40.8630 H   0  0  0  0  0  0  0  0  0  0  0  0
  2  3  1  0  0  0  0
  2  1  2  1  0  0  0
  3  4  1  0  0  0  0
  5  7  1  0  0  0  0
  5  2  1  0  0  0  0
  6 11  1  6  0  0  0
  6 10  1  0  0  0  0
  6 17  1  0  0  0  0
  6  7  1  0  0  0  0
  7 12  1  1  0  0  0
  8  7  1  0  0  0  0
  8 14  1  0  0  0  0
  9 10  1  0  0  0  0
  9  8  1  0  0  0  0
 10 15  1  0  0  0  0
 13  8  1  0  0  0  0
 16 10  1  0  0  0  0
 18 17  1  0  0  0  0
 18 19  1  0  0  0  0
 20 18  1  0  0  0  0
 21 23  1  0  0  0  0
 21 18  1  0  0  0  0
 22 21  1  0  0  0  0
 24 21  1  0  0  0  0
 25  2  1  0  0  0  0
 25 30  1  0  0  0  0
 26 27  1  0  0  0  0
 27 28  2  0  0  0  0
 27 32  1  0  0  0  0
 28 33  1  0  0  0  0
 29 28  1  0  0  0  0
 30 29  2  0  0  0  0
 31 30  1  0  0  0  0
 31 26  2  0  0  0  0
 34 26  1  0  0  0  0
 35 36  1  0  0  0  0
 36 34  1  0  0  0  0
 37 36  2  0  0  0  0
 37 38  1  0  0  0  0
 39 37  1  0  0  0  0
 40 39  1  0  0  0  0
 40 46  1  0  0  0  0
 41 40  1  0  0  0  0
 42 41  1  0  0  0  0
 43 41  2  0  0  0  0
 43 44  1  0  0  0  0
 44 45  1  0  0  0  0
 44 39  2  0  0  0  0
 45 35  2  0  0  0  0
M  END
>  <minimizedAffinity>
-5.65259409

$$$$

 OpenBabel03252500293D

 46 49  0  0  1  0  0  0  0  0999 V2000
   41.7110   34.0250   37.8820 O   0  0  0  0  0  0  0  0  0  0  0  0
   41.2370   32.6160   37.9300 P   0  0  1  0  0  0  0  0  0  0  0  0
   40.0570   32.3840   36.7370 O   0  0  0  0  0  0  0  0  0  0  0  0
   39.4460   33.1650   36.6790 H   0  0  0  0  0  0  0  0  0  0  0  0
   42.5400   31.6540   37.6210 O   0  0  0  0  0  0  0  0  0  0  0  0
   42.0000   29.3310   37.7310 C   0  0  2  0  0  0  0  0  0  0  0  0
   42.1580   30.5490   36.9030 C   0  0  2  0  0  0  0  0  0  0  0  0
   43.0850   30.2040   35.8460 C   0  0  0  0  0  0  0  0  0  0  0  0
   43.0790   28.8110   35.6780 O   0  0  0  0  0  0  0  0  0  0  0  0
   42.1190   28.3370   36.5070 C   0  0  0  0  0  0  0  0  0  0  0  0
   42.8880   28.9300   38.2470 H   0  0  0  0  0  0  0  0  0  0  0  0
   41.0960   30.7900   36.6120 H   0  0  0  0  0  0  0  0  0  0  0  0
   43.9710   30.7390   35.5870 H   0  0  0  0  0  0  0  0  0  0  0  0
   42.4900   30.4530   34.8940 H   0  0  0  0  0  0  0  0  0  0  0  0
   41.1250   28.4980   36.0060 H   0  0  0  0  0  0  0  0  0  0  0  0
   42.1940   27.3110   36.8570 H   0  0  0  0  0  0  0  0  0  0  0  0
   40.8030   29.1210   38.3020 O   0  0  0  0  0  0  0  0  0  0  0  0
   39.6710   28.9600   37.6780 C   0  0  0  0  0  0  0  0  0  0  0  0
   39.6460   28.7700   36.6420 H   0  0  0  0  0  0  0  0  0  0  0  0
   39.1570   30.0690   37.6490 H   0  0  0  0  0  0  0  0  0  0  0  0
   38.7290   28.1790   38.5810 C   0  0  0  0  0  0  0  0  0  0  0  0
   38.9930   28.3090   39.6380 H   0  0  0  0  0  0  0  0  0  0  0  0
   38.7050   27.1010   38.2950 H   0  0  0  0  0  0  0  0  0  0  0  0
   37.6930   28.5460   38.4240 H   0  0  0  0  0  0  0  0  0  0  0  0
   40.6010   32.3850   39.4950 O   0  0  0  0  0  0  0  0  0  0  0  0
   37.7950   30.7960   41.0700 C   0  0  0  0  0  0  0  0  0  0  0  0
   36.7030   31.1140   40.2290 C   0  0  0  0  0  0  0  0  0  0  0  0
   36.9980   31.9040   39.0960 C   0  0  0  0  0  0  0  0  0  0  0  0
   38.2680   32.3000   38.8860 N   0  0  0  0  0  0  0  0  0  0  0  0
   39.2740   31.9740   39.7120 C   0  0  0  0  0  0  0  0  0  0  0  0
   39.0240   31.2260   40.7930 N   0  0  0  0  0  0  0  0  0  0  0  0
   35.6990   30.7770   40.4330 H   0  0  0  0  0  0  0  0  0  0  0  0
   36.1780   32.1500   38.4520 H   0  0  0  0  0  0  0  0  0  0  0  0
   37.5630   30.0350   42.1800 O   0  0  0  0  0  0  0  0  0  0  0  0
   36.7810   27.8060   41.6790 C   0  0  0  0  0  3  0  0  0  0  0  0
   37.7240   28.6630   42.2190 C   0  0  0  0  0  0  0  0  0  0  0  0
   38.8970   28.2500   42.8380 C   0  0  0  0  0  0  0  0  0  0  0  0
   39.6150   28.9220   43.2500 H   0  0  0  0  0  0  0  0  0  0  0  0
   39.1320   26.8830   42.9170 C   0  0  0  0  0  0  0  0  0  0  0  0
   40.1650   26.1780   43.4490 N   0  0  0  0  0  0  0  0  0  0  0  0
   39.8810   24.8730   43.2490 C   0  0  0  0  0  0  0  0  0  0  0  0
   40.5110   24.0510   43.5610 H   0  0  0  0  0  0  0  0  0  0  0  0
   38.7080   24.7520   42.6110 N   0  0  0  0  0  0  0  0  0  0  0  0
   38.2220   25.9890   42.3930 C   0  0  0  0  0  0  0  0  0  0  0  0
   37.0570   26.4430   41.7790 C   0  0  0  0  0  3  0  0  0  0  0  0
   40.9760   26.6330   43.9030 H   0  0  0  0  0  0  0  0  0  0  0  0
  2  1  2  6  0  0  0
  2 25  1  0  0  0  0
  3  2  1  0  0  0  0
  4  3  1  0  0  0  0
  5  2  1  0  0  0  0
  6 11  1  1  0  0  0
  6 17  1  0  0  0  0
  7 12  1  6  0  0  0
  7  5  1  0  0  0  0
  7  6  1  0  0  0  0
  8  7  1  0  0  0  0
  9  8  1  0  0  0  0
  9 10  1  0  0  0  0
 10 16  1  0  0  0  0
 10  6  1  0  0  0  0
 13  8  1  0  0  0  0
 14  8  1  0  0  0  0
 15 10  1  0  0  0  0
 18 17  1  0  0  0  0
 18 21  1  0  0  0  0
 19 18  1  0  0  0  0
 20 18  1  0  0  0  0
 21 22  1  0  0  0  0
 23 21  1  0  0  0  0
 24 21  1  0  0  0  0
 25 30  1  0  0  0  0
 26 34  1  0  0  0  0
 27 32  1  0  0  0  0
 27 26  2  0  0  0  0
 28 27  1  0  0  0  0
 29 28  2  0  0  0  0
 29 30  1  0  0  0  0
 30 31  2  0  0  0  0
 31 26  1  0  0  0  0
 33 28  1  0  0  0  0
 34 36  1  0  0  0  0
 35 45  2  0  0  0  0
 35 36  1  0  0  0  0
 36 37  2  0  0  0  0
 37 39  1  0  0  0  0
 37 38  1  0  0  0  0
 39 40  1  0  0  0  0
 40 46  1  0  0  0  0
 41 40  1  0  0  0  0
 41 42  1  0  0  0  0
 43 41  2  0  0  0  0
 44 43  1  0  0  0  0
 44 39  2  0  0  0  0
 45 44  1  0  0  0  0
M  END
>  <minimizedAffinity>
-5.65244627

$$$$
