
 OpenBabel03252509003D

 48 51  0  0  1  0  0  0  0  0999 V2000
   46.6170   34.5790   43.5320 N   0  0  0  0  0  0  0  0  0  0  0  0
   46.1000   35.5760   42.6670 C   0  0  0  0  0  0  0  0  0  0  0  0
   44.6010   35.7300   42.6760 C   0  0  0  0  0  0  0  0  0  0  0  0
   43.9510   35.4380   44.0020 C   0  0  0  0  0  0  0  0  0  0  0  0
   44.9750   35.1550   45.0750 C   0  0  0  0  0  0  0  0  0  0  0  0
   45.8060   33.9630   44.4720 C   0  0  2  0  0  0  0  0  0  0  0  0
   46.4190   35.5250   41.6240 H   0  0  0  0  0  0  0  0  0  0  0  0
   46.5030   36.5600   43.0540 H   0  0  0  0  0  0  0  0  0  0  0  0
   44.3660   36.7810   42.3400 H   0  0  0  0  0  0  0  0  0  0  0  0
   44.1720   35.0630   41.8910 H   0  0  0  0  0  0  0  0  0  0  0  0
   43.3670   36.3220   44.3370 H   0  0  0  0  0  0  0  0  0  0  0  0
   43.2790   34.5740   43.9260 H   0  0  0  0  0  0  0  0  0  0  0  0
   44.4770   34.7740   45.9720 H   0  0  0  0  0  0  0  0  0  0  0  0
   45.6650   35.9830   45.2480 H   0  0  0  0  0  0  0  0  0  0  0  0
   45.0640   33.2090   44.1140 H   0  0  0  0  0  0  0  0  0  0  0  0
   47.7230   33.8460   42.9880 C   0  0  0  0  0  0  0  0  0  0  0  0
   48.2790   33.3510   43.8250 H   0  0  0  0  0  0  0  0  0  0  0  0
   48.4120   34.5240   42.4800 H   0  0  0  0  0  0  0  0  0  0  0  0
   47.1920   32.7400   42.1260 C   0  0  0  0  0  0  0  0  0  0  0  0
   46.0890   32.8260   42.0160 H   0  0  0  0  0  0  0  0  0  0  0  0
   47.3970   31.7230   42.5080 H   0  0  0  0  0  0  0  0  0  0  0  0
   49.0530   31.9790   38.9530 C   0  0  0  0  0  0  0  0  0  0  0  0
   48.5190   31.8640   40.2500 C   0  0  0  0  0  0  0  0  0  0  0  0
   47.7480   32.8800   40.7550 C   0  0  0  0  0  0  0  0  0  0  0  0
   47.5380   33.9480   39.9750 N   0  0  0  0  0  0  0  0  0  0  0  0
   48.0470   34.0600   38.7370 C   0  0  0  0  0  0  0  0  0  0  0  0
   48.8050   33.0840   38.2140 N   0  0  0  0  0  0  0  0  0  0  0  0
   49.6660   31.2100   38.5080 H   0  0  0  0  0  0  0  0  0  0  0  0
   48.7270   30.9860   40.8140 H   0  0  0  0  0  0  0  0  0  0  0  0
   47.8090   34.9720   38.2000 H   0  0  0  0  0  0  0  0  0  0  0  0
   46.5300   33.5450   45.5820 O   0  0  0  0  0  0  0  0  0  0  0  0
   45.6240   31.1660   44.8370 O   0  0  0  0  0  0  0  0  0  0  0  0
   46.2120   31.9430   45.9980 P   0  0  2  0  0  0  0  0  0  0  0  0
   44.9700   32.0000   47.1760 O   0  0  0  0  0  0  0  0  0  0  0  0
   45.3720   31.9380   48.0780 H   0  0  0  0  0  0  0  0  0  0  0  0
   47.5470   31.2150   46.6800 O   0  0  0  0  0  0  0  0  0  0  0  0
   49.0030   29.3590   46.5960 C   0  0  0  0  0  3  0  0  0  0  0  0
   47.7450   29.8820   46.9140 C   0  0  0  0  0  0  0  0  0  0  0  0
   46.7950   29.0270   47.4370 C   0  0  0  0  0  0  0  0  0  0  0  0
   45.8100   29.4270   47.6870 H   0  0  0  0  0  0  0  0  0  0  0  0
   47.1120   27.6790   47.6320 C   0  0  0  0  0  0  0  0  0  0  0  0
   46.3540   26.6630   48.1250 N   0  0  0  0  0  0  0  0  0  0  0  0
   47.0730   25.5210   48.1340 C   0  0  0  0  0  0  0  0  0  0  0  0
   46.7000   24.5660   48.4810 H   0  0  0  0  0  0  0  0  0  0  0  0
   48.2920   25.8330   47.6420 N   0  0  0  0  0  0  0  0  0  0  0  0
   48.3480   27.1510   47.3230 C   0  0  0  0  0  0  0  0  0  0  0  0
   49.2890   28.0150   46.8030 C   0  0  0  0  0  3  0  0  0  0  0  0
   45.3680   26.7920   48.4370 H   0  0  0  0  0  0  0  0  0  0  0  0
  1  6  1  0  0  0  0
  2  3  1  0  0  0  0
  2  8  1  0  0  0  0
  2  1  1  0  0  0  0
  3  4  1  0  0  0  0
  4 11  1  0  0  0  0
  4  5  1  0  0  0  0
  5 14  1  0  0  0  0
  5 13  1  0  0  0  0
  6 15  1  6  0  0  0
  6  5  1  0  0  0  0
  6 31  1  0  0  0  0
  7  2  1  0  0  0  0
  9  3  1  0  0  0  0
 10  3  1  0  0  0  0
 12  4  1  0  0  0  0
 16  1  1  0  0  0  0
 16 17  1  0  0  0  0
 18 16  1  0  0  0  0
 19 21  1  0  0  0  0
 19 16  1  0  0  0  0
 20 19  1  0  0  0  0
 22 23  1  0  0  0  0
 23 24  2  0  0  0  0
 23 29  1  0  0  0  0
 24 19  1  0  0  0  0
 25 24  1  0  0  0  0
 26 25  2  0  0  0  0
 27 26  1  0  0  0  0
 27 22  2  0  0  0  0
 28 22  1  0  0  0  0
 30 26  1  0  0  0  0
 31 33  1  0  0  0  0
 33 32  2  6  0  0  0
 33 36  1  0  0  0  0
 33 34  1  0  0  0  0
 34 35  1  0  0  0  0
 36 38  1  0  0  0  0
 37 47  2  0  0  0  0
 37 38  1  0  0  0  0
 38 39  2  0  0  0  0
 39 41  1  0  0  0  0
 39 40  1  0  0  0  0
 41 42  1  0  0  0  0
 42 43  1  0  0  0  0
 42 48  1  0  0  0  0
 43 44  1  0  0  0  0
 45 43  2  0  0  0  0
 46 41  2  0  0  0  0
 46 45  1  0  0  0  0
 47 46  1  0  0  0  0
M  END
>  <minimizedAffinity>
-4.67484903

>  <minimizedRMSD>
1.33304751

$$$$
