
 OpenBabel03252507323D

 52 56  0  0  1  0  0  0  0  0999 V2000
   46.9400   32.8050   45.4610 C   0  0  0  0  0  0  0  0  0  0  0  0
   45.8470   33.4840   45.9770 C   0  0  0  0  0  0  0  0  0  0  0  0
   45.1660   34.4270   45.1710 C   0  0  0  0  0  0  0  0  0  0  0  0
   45.6610   34.6110   43.8820 N   0  0  0  0  0  0  0  0  0  0  0  0
   46.7210   33.9250   43.4480 C   0  0  0  0  0  0  0  0  0  0  0  0
   47.3500   33.0380   44.2210 N   0  0  0  0  0  0  0  0  0  0  0  0
   45.3360   33.5270   46.9160 H   0  0  0  0  0  0  0  0  0  0  0  0
   44.3160   35.0290   45.4050 H   0  0  0  0  0  0  0  0  0  0  0  0
   47.5880   31.8340   46.3190 C   0  0  2  0  0  0  0  0  0  0  0  0
   47.3490   30.3770   45.8140 C   0  0  0  0  0  0  0  0  0  0  0  0
   48.1670   29.4340   46.6290 C   0  0  0  0  0  0  0  0  0  0  0  0
   48.1530   29.6590   48.1030 C   0  0  0  0  0  0  0  0  0  0  0  0
   48.1440   31.0480   48.4940 C   0  0  0  0  0  0  0  0  0  0  0  0
   47.1450   31.9130   47.6960 C   0  0  2  0  0  0  0  0  0  0  0  0
   48.6960   31.9300   46.1970 H   0  0  0  0  0  0  0  0  0  0  0  0
   46.2770   30.1520   45.7670 H   0  0  0  0  0  0  0  0  0  0  0  0
   47.7130   30.4040   44.7670 H   0  0  0  0  0  0  0  0  0  0  0  0
   49.1610   29.3900   46.1430 H   0  0  0  0  0  0  0  0  0  0  0  0
   47.7300   28.4050   46.4680 H   0  0  0  0  0  0  0  0  0  0  0  0
   47.7840   28.8590   48.7450 H   0  0  0  0  0  0  0  0  0  0  0  0
   49.2670   29.4110   48.3320 H   0  0  0  0  0  0  0  0  0  0  0  0
   49.0980   31.6280   48.4420 H   0  0  0  0  0  0  0  0  0  0  0  0
   47.8200   31.1370   49.5650 H   0  0  0  0  0  0  0  0  0  0  0  0
   47.2570   32.8770   48.1950 H   0  0  0  0  0  0  0  0  0  0  0  0
   45.8100   31.3260   47.8260 N   0  0  0  0  0  0  0  0  0  0  0  0
   45.1520   30.7420   48.9220 C   0  0  0  0  0  0  0  0  0  0  0  0
   44.6330   31.4290   49.8740 O   0  0  0  0  0  0  0  0  0  0  0  0
   45.0960   29.3160   48.8930 N   0  0  0  0  0  0  0  0  0  0  0  0
   45.1450   31.2160   46.9700 H   0  0  0  0  0  0  0  0  0  0  0  0
   44.7830   28.6710   48.1630 H   0  0  0  0  0  0  0  0  0  0  0  0
   45.4160   28.7810   49.7300 H   0  0  0  0  0  0  0  0  0  0  0  0
   47.2040   34.1790   42.0860 C   0  0  0  0  0  0  0  0  0  0  0  0
   48.1800   35.1200   41.8430 C   0  0  0  0  0  0  0  0  0  0  0  0
   48.6830   35.4140   40.5950 C   0  0  0  0  0  0  0  0  0  0  0  0
   48.1340   34.6860   39.5630 C   0  0  0  0  0  0  0  0  0  0  0  0
   47.1600   33.7430   39.7880 C   0  0  0  0  0  0  0  0  0  0  0  0
   46.6950   33.4910   41.0520 N   0  0  0  0  0  0  0  0  0  0  0  0
   48.5620   35.6530   42.7090 H   0  0  0  0  0  0  0  0  0  0  0  0
   49.4390   36.1480   40.4410 H   0  0  0  0  0  0  0  0  0  0  0  0
   48.4950   34.8780   38.5640 H   0  0  0  0  0  0  0  0  0  0  0  0
   46.1320   31.6700   38.9780 C   0  0  0  0  0  3  0  0  0  0  0  0
   46.5590   32.9560   38.7190 C   0  0  0  0  0  0  0  0  0  0  0  0
   46.3770   33.3990   37.4370 C   0  0  0  0  0  0  0  0  0  0  0  0
   46.6860   34.3850   37.1710 H   0  0  0  0  0  0  0  0  0  0  0  0
   45.8070   32.6510   36.4270 C   0  0  0  0  0  0  0  0  0  0  0  0
   45.5490   32.9190   35.1210 N   0  0  0  0  0  0  0  0  0  0  0  0
   44.9820   31.8370   34.5840 C   0  0  0  0  0  0  0  0  0  0  0  0
   44.6850   31.8200   33.5370 H   0  0  0  0  0  0  0  0  0  0  0  0
   44.8740   30.8780   35.5460 N   0  0  0  0  0  0  0  0  0  0  0  0
   45.3810   31.3580   36.7050 C   0  0  0  0  0  0  0  0  0  0  0  0
   45.5490   30.8790   37.9840 C   0  0  0  0  0  3  0  0  0  0  0  0
   45.7700   33.8220   34.6490 H   0  0  0  0  0  0  0  0  0  0  0  0
  1  2  1  0  0  0  0
  1  9  1  0  0  0  0
  2  7  1  0  0  0  0
  3  8  1  0  0  0  0
  3  2  2  0  0  0  0
  4  3  1  0  0  0  0
  5  4  2  0  0  0  0
  5  6  1  0  0  0  0
  6  1  2  0  0  0  0
  9 15  1  6  0  0  0
  9 14  1  0  0  0  0
 10  9  1  0  0  0  0
 10 11  1  0  0  0  0
 11 12  1  0  0  0  0
 12 21  1  0  0  0  0
 12 13  1  0  0  0  0
 12 20  1  0  0  0  0
 13 23  1  0  0  0  0
 14 25  1  0  0  0  0
 14 24  1  1  0  0  0
 14 13  1  0  0  0  0
 16 10  1  0  0  0  0
 17 10  1  0  0  0  0
 18 11  1  0  0  0  0
 19 11  1  0  0  0  0
 22 13  1  0  0  0  0
 25 26  1  0  0  0  0
 26 27  2  0  0  0  0
 28 26  1  0  0  0  0
 28 31  1  0  0  0  0
 29 25  1  0  0  0  0
 30 28  1  0  0  0  0
 32  5  1  0  0  0  0
 33 32  1  0  0  0  0
 33 38  1  0  0  0  0
 34 33  2  0  0  0  0
 35 36  2  0  0  0  0
 35 34  1  0  0  0  0
 36 37  1  0  0  0  0
 37 32  2  0  0  0  0
 39 34  1  0  0  0  0
 40 35  1  0  0  0  0
 42 41  1  0  0  0  0
 42 36  1  0  0  0  0
 43 42  2  0  0  0  0
 44 43  1  0  0  0  0
 45 50  2  0  0  0  0
 45 43  1  0  0  0  0
 46 45  1  0  0  0  0
 47 46  1  0  0  0  0
 47 49  2  0  0  0  0
 48 47  1  0  0  0  0
 49 50  1  0  0  0  0
 50 51  1  0  0  0  0
 51 41  2  0  0  0  0
 52 46  1  0  0  0  0
M  END
>  <minimizedAffinity>
-7.17516184

>  <minimizedRMSD>
0.138027072

$$$$
