
 OpenBabel03252500523D

 38 41  0  0  0  0  0  0  0  0999 V2000
   37.3190   28.6040   42.7000 C   0  0  0  0  0  0  0  0  0  0  0  0
   37.2080   28.5110   43.9420 O   0  0  0  0  0  0  0  0  0  0  0  0
   39.1270   30.2430   42.5530 C   0  0  0  0  0  0  0  0  0  0  0  0
   37.8750   29.8370   42.1560 C   0  0  0  0  0  0  0  0  0  0  0  0
   37.1320   30.5930   41.2360 C   0  0  0  0  0  0  0  0  0  0  0  0
   37.7050   31.7450   40.7550 N   0  0  0  0  0  0  0  0  0  0  0  0
   38.9190   32.1200   41.1530 C   0  0  0  0  0  0  0  0  0  0  0  0
   39.6120   31.3800   42.0340 N   0  0  0  0  0  0  0  0  0  0  0  0
   39.7050   29.6640   43.2620 H   0  0  0  0  0  0  0  0  0  0  0  0
   36.1440   30.2900   40.9110 H   0  0  0  0  0  0  0  0  0  0  0  0
   39.5120   33.3420   40.6350 C   0  0  0  0  0  0  0  0  0  0  0  0
   40.7310   33.3870   40.0620 C   0  0  0  0  0  0  0  0  0  0  0  0
   41.2990   34.5360   39.5700 C   0  0  0  0  0  0  0  0  0  0  0  0
   40.5700   35.6700   39.6800 N   0  0  0  0  0  0  0  0  0  0  0  0
   39.3780   35.6280   40.2390 C   0  0  0  0  0  0  0  0  0  0  0  0
   38.7940   34.5220   40.7300 N   0  0  0  0  0  0  0  0  0  0  0  0
   41.3230   32.4710   39.9720 H   0  0  0  0  0  0  0  0  0  0  0  0
   42.2860   34.5450   39.1120 H   0  0  0  0  0  0  0  0  0  0  0  0
   38.7800   36.5350   40.3340 H   0  0  0  0  0  0  0  0  0  0  0  0
   36.8600   27.4490   42.1270 O   0  0  0  0  0  0  0  0  0  0  0  0
   37.6750   26.5270   41.5120 C   0  0  0  0  0  0  0  0  0  0  0  0
   38.4740   26.8880   40.8580 H   0  0  0  0  0  0  0  0  0  0  0  0
   37.0010   25.9560   40.8010 H   0  0  0  0  0  0  0  0  0  0  0  0
   38.1720   25.4260   42.4430 C   0  0  0  0  0  0  0  0  0  0  0  0
   37.4830   25.3790   43.3120 H   0  0  0  0  0  0  0  0  0  0  0  0
   38.0650   24.4410   41.9300 H   0  0  0  0  0  0  0  0  0  0  0  0
   40.4990   25.0620   41.9970 C   0  0  0  0  0  3  0  0  0  0  0  0
   39.5680   25.6170   42.8490 C   0  0  0  0  0  0  0  0  0  0  0  0
   39.9800   26.2900   43.9830 C   0  0  0  0  0  0  0  0  0  0  0  0
   39.2350   26.7080   44.6230 H   0  0  0  0  0  0  0  0  0  0  0  0
   41.3430   26.3620   44.1900 C   0  0  0  0  0  0  0  0  0  0  0  0
   42.0480   26.9350   45.1800 N   0  0  0  0  0  0  0  0  0  0  0  0
   43.3710   26.7840   45.0190 C   0  0  0  0  0  0  0  0  0  0  0  0
   44.1860   27.1280   45.6380 H   0  0  0  0  0  0  0  0  0  0  0  0
   43.4910   26.0770   43.8620 N   0  0  0  0  0  0  0  0  0  0  0  0
   42.2860   25.8140   43.3490 C   0  0  0  0  0  0  0  0  0  0  0  0
   41.8580   25.1410   42.2140 C   0  0  0  0  0  3  0  0  0  0  0  0
   41.6550   27.4470   45.9970 H   0  0  0  0  0  0  0  0  0  0  0  0
  1  2  2  0  0  0  0
  3  9  1  0  0  0  0
  4  3  1  0  0  0  0
  4  1  1  0  0  0  0
  5  4  2  0  0  0  0
  6  7  2  0  0  0  0
  6  5  1  0  0  0  0
  7  8  1  0  0  0  0
  8  3  2  0  0  0  0
 10  5  1  0  0  0  0
 11 16  1  0  0  0  0
 11  7  1  0  0  0  0
 12 11  2  0  0  0  0
 13 14  2  0  0  0  0
 13 12  1  0  0  0  0
 14 15  1  0  0  0  0
 15 19  1  0  0  0  0
 15 16  2  0  0  0  0
 17 12  1  0  0  0  0
 18 13  1  0  0  0  0
 20  1  1  0  0  0  0
 21 20  1  0  0  0  0
 21 24  1  0  0  0  0
 22 21  1  0  0  0  0
 23 21  1  0  0  0  0
 24 28  1  0  0  0  0
 24 25  1  0  0  0  0
 26 24  1  0  0  0  0
 27 37  2  0  0  0  0
 27 28  1  0  0  0  0
 28 29  2  0  0  0  0
 29 31  1  0  0  0  0
 29 30  1  0  0  0  0
 31 32  1  0  0  0  0
 32 38  1  0  0  0  0
 33 32  1  0  0  0  0
 33 34  1  0  0  0  0
 35 33  2  0  0  0  0
 36 35  1  0  0  0  0
 36 31  2  0  0  0  0
 37 36  1  0  0  0  0
M  END
>  <minimizedAffinity>
-6.21611023

$$$$

 OpenBabel03252500523D

 38 41  0  0  0  0  0  0  0  0999 V2000
   35.6600   29.0110   39.8000 C   0  0  0  0  0  0  0  0  0  0  0  0
   34.4260   29.2100   39.8460 O   0  0  0  0  0  0  0  0  0  0  0  0
   36.5140   31.0630   40.8180 C   0  0  0  0  0  0  0  0  0  0  0  0
   36.5370   30.1750   39.7690 C   0  0  0  0  0  0  0  0  0  0  0  0
   37.3940   30.3760   38.6750 C   0  0  0  0  0  0  0  0  0  0  0  0
   38.2000   31.4880   38.7000 N   0  0  0  0  0  0  0  0  0  0  0  0
   38.1610   32.3350   39.7250 C   0  0  0  0  0  0  0  0  0  0  0  0
   37.3340   32.1220   40.7610 N   0  0  0  0  0  0  0  0  0  0  0  0
   35.8560   30.9130   41.6650 H   0  0  0  0  0  0  0  0  0  0  0  0
   37.4270   29.6880   37.8400 H   0  0  0  0  0  0  0  0  0  0  0  0
   39.0210   33.5090   39.7360 C   0  0  0  0  0  0  0  0  0  0  0  0
   40.3130   33.4820   39.3550 C   0  0  0  0  0  0  0  0  0  0  0  0
   41.1320   34.5840   39.3620 C   0  0  0  0  0  0  0  0  0  0  0  0
   40.5820   35.7470   39.7790 N   0  0  0  0  0  0  0  0  0  0  0  0
   39.3180   35.7750   40.1520 C   0  0  0  0  0  0  0  0  0  0  0  0
   38.4910   34.7160   40.1570 N   0  0  0  0  0  0  0  0  0  0  0  0
   40.7600   32.5420   39.0170 H   0  0  0  0  0  0  0  0  0  0  0  0
   42.1730   34.5350   39.0490 H   0  0  0  0  0  0  0  0  0  0  0  0
   38.8630   36.7070   40.4900 H   0  0  0  0  0  0  0  0  0  0  0  0
   35.8900   27.6620   39.7880 O   0  0  0  0  0  0  0  0  0  0  0  0
   36.9130   27.0580   40.4830 C   0  0  0  0  0  0  0  0  0  0  0  0
   37.9110   27.0410   40.0350 H   0  0  0  0  0  0  0  0  0  0  0  0
   36.6350   25.9590   40.5310 H   0  0  0  0  0  0  0  0  0  0  0  0
   36.9700   27.4440   41.9570 C   0  0  0  0  0  0  0  0  0  0  0  0
   36.3860   28.3790   42.0860 H   0  0  0  0  0  0  0  0  0  0  0  0
   36.4270   26.6740   42.5550 H   0  0  0  0  0  0  0  0  0  0  0  0
   39.0670   28.6040   41.8930 C   0  0  0  0  0  3  0  0  0  0  0  0
   38.3440   27.5720   42.4540 C   0  0  0  0  0  0  0  0  0  0  0  0
   38.9240   26.7570   43.4060 C   0  0  0  0  0  0  0  0  0  0  0  0
   38.3370   25.9660   43.8210 H   0  0  0  0  0  0  0  0  0  0  0  0
   40.2310   27.0420   43.7410 C   0  0  0  0  0  0  0  0  0  0  0  0
   41.0600   26.4470   44.6150 N   0  0  0  0  0  0  0  0  0  0  0  0
   42.2680   27.0290   44.6520 C   0  0  0  0  0  0  0  0  0  0  0  0
   43.1350   26.7820   45.2460 H   0  0  0  0  0  0  0  0  0  0  0  0
   42.1820   28.0440   43.7490 N   0  0  0  0  0  0  0  0  0  0  0  0
   40.9680   28.0690   43.1910 C   0  0  0  0  0  0  0  0  0  0  0  0
   40.3730   28.8800   42.2360 C   0  0  0  0  0  3  0  0  0  0  0  0
   40.8340   25.6270   45.2150 H   0  0  0  0  0  0  0  0  0  0  0  0
  1  2  2  0  0  0  0
  3  9  1  0  0  0  0
  4  1  1  0  0  0  0
  4  3  2  0  0  0  0
  5  6  2  0  0  0  0
  5  4  1  0  0  0  0
  6  7  1  0  0  0  0
  7 11  1  0  0  0  0
  7  8  2  0  0  0  0
  8  3  1  0  0  0  0
 10  5  1  0  0  0  0
 11 16  1  0  0  0  0
 12 13  1  0  0  0  0
 12 11  2  0  0  0  0
 13 14  2  0  0  0  0
 14 15  1  0  0  0  0
 15 16  2  0  0  0  0
 15 19  1  0  0  0  0
 17 12  1  0  0  0  0
 18 13  1  0  0  0  0
 20  1  1  0  0  0  0
 20 21  1  0  0  0  0
 21 23  1  0  0  0  0
 21 24  1  0  0  0  0
 22 21  1  0  0  0  0
 24 25  1  0  0  0  0
 24 28  1  0  0  0  0
 24 26  1  0  0  0  0
 27 37  2  0  0  0  0
 27 28  1  0  0  0  0
 28 29  2  0  0  0  0
 29 31  1  0  0  0  0
 29 30  1  0  0  0  0
 31 32  1  0  0  0  0
 32 33  1  0  0  0  0
 32 38  1  0  0  0  0
 33 34  1  0  0  0  0
 35 33  2  0  0  0  0
 36 31  2  0  0  0  0
 36 35  1  0  0  0  0
 37 36  1  0  0  0  0
M  END
>  <minimizedAffinity>
-6.08843374

$$$$

 OpenBabel03252500523D

 38 41  0  0  0  0  0  0  0  0999 V2000
   36.6790   30.1240   37.8380 C   0  0  0  0  0  0  0  0  0  0  0  0
   36.9140   29.7340   36.6730 O   0  0  0  0  0  0  0  0  0  0  0  0
   38.9590   30.8140   38.3880 C   0  0  0  0  0  0  0  0  0  0  0  0
   37.6100   31.0710   38.4400 C   0  0  0  0  0  0  0  0  0  0  0  0
   37.1230   32.2310   39.0620 C   0  0  0  0  0  0  0  0  0  0  0  0
   38.0450   33.0890   39.6100 N   0  0  0  0  0  0  0  0  0  0  0  0
   39.3470   32.8200   39.5490 C   0  0  0  0  0  0  0  0  0  0  0  0
   39.7900   31.7040   38.9490 N   0  0  0  0  0  0  0  0  0  0  0  0
   39.3420   29.9200   37.9100 H   0  0  0  0  0  0  0  0  0  0  0  0
   36.0640   32.4520   39.1120 H   0  0  0  0  0  0  0  0  0  0  0  0
   40.3110   33.7380   40.1350 C   0  0  0  0  0  0  0  0  0  0  0  0
   41.5830   33.3960   40.4140 C   0  0  0  0  0  0  0  0  0  0  0  0
   42.5000   34.2560   40.9670 C   0  0  0  0  0  0  0  0  0  0  0  0
   42.0720   35.5110   41.2350 N   0  0  0  0  0  0  0  0  0  0  0  0
   40.8280   35.8480   40.9620 C   0  0  0  0  0  0  0  0  0  0  0  0
   39.9070   35.0310   40.4220 N   0  0  0  0  0  0  0  0  0  0  0  0
   41.9330   32.3820   40.1980 H   0  0  0  0  0  0  0  0  0  0  0  0
   43.5230   33.9530   41.1820 H   0  0  0  0  0  0  0  0  0  0  0  0
   40.4700   36.8560   41.1730 H   0  0  0  0  0  0  0  0  0  0  0  0
   35.5330   29.5250   38.2830 O   0  0  0  0  0  0  0  0  0  0  0  0
   35.5110   28.5450   39.2500 C   0  0  0  0  0  0  0  0  0  0  0  0
   36.1870   27.6910   39.1440 H   0  0  0  0  0  0  0  0  0  0  0  0
   34.4840   28.0700   39.1730 H   0  0  0  0  0  0  0  0  0  0  0  0
   35.5150   29.0850   40.6760 C   0  0  0  0  0  0  0  0  0  0  0  0
   35.5180   30.1940   40.6190 H   0  0  0  0  0  0  0  0  0  0  0  0
   34.5480   28.8200   41.1670 H   0  0  0  0  0  0  0  0  0  0  0  0
   37.3350   29.5230   42.1710 C   0  0  0  0  0  3  0  0  0  0  0  0
   36.6290   28.5660   41.4740 C   0  0  0  0  0  0  0  0  0  0  0  0
   36.9930   27.2360   41.5610 C   0  0  0  0  0  0  0  0  0  0  0  0
   36.4260   26.5190   41.0080 H   0  0  0  0  0  0  0  0  0  0  0  0
   38.0740   26.9480   42.3680 C   0  0  0  0  0  0  0  0  0  0  0  0
   38.6630   25.7760   42.6560 N   0  0  0  0  0  0  0  0  0  0  0  0
   39.7020   25.9170   43.4930 C   0  0  0  0  0  0  0  0  0  0  0  0
   40.3650   25.1710   43.9030 H   0  0  0  0  0  0  0  0  0  0  0  0
   39.7580   27.2560   43.7370 N   0  0  0  0  0  0  0  0  0  0  0  0
   38.7900   27.8920   43.0720 C   0  0  0  0  0  0  0  0  0  0  0  0
   38.4150   29.2240   42.9750 C   0  0  0  0  0  3  0  0  0  0  0  0
   38.3810   24.8410   42.2940 H   0  0  0  0  0  0  0  0  0  0  0  0
  1 20  1  0  0  0  0
  1  4  1  0  0  0  0
  2  1  2  0  0  0  0
  3  4  2  0  0  0  0
  3  8  1  0  0  0  0
  4  5  1  0  0  0  0
  5 10  1  0  0  0  0
  5  6  2  0  0  0  0
  7  6  1  0  0  0  0
  7 11  1  0  0  0  0
  8  7  2  0  0  0  0
  9  3  1  0  0  0  0
 11 12  2  0  0  0  0
 11 16  1  0  0  0  0
 12 13  1  0  0  0  0
 13 18  1  0  0  0  0
 13 14  2  0  0  0  0
 15 19  1  0  0  0  0
 15 14  1  0  0  0  0
 16 15  2  0  0  0  0
 17 12  1  0  0  0  0
 20 21  1  0  0  0  0
 21 24  1  0  0  0  0
 22 21  1  0  0  0  0
 23 21  1  0  0  0  0
 24 26  1  0  0  0  0
 24 28  1  0  0  0  0
 25 24  1  0  0  0  0
 27 37  1  0  0  0  0
 28 29  1  0  0  0  0
 28 27  2  0  0  0  0
 29 31  2  0  0  0  0
 30 29  1  0  0  0  0
 31 32  1  0  0  0  0
 31 36  1  0  0  0  0
 32 33  1  0  0  0  0
 33 35  2  0  0  0  0
 33 34  1  0  0  0  0
 36 35  1  0  0  0  0
 37 36  2  0  0  0  0
 38 32  1  0  0  0  0
M  END
>  <minimizedAffinity>
-5.9109683

$$$$

 OpenBabel03252500523D

 38 41  0  0  0  0  0  0  0  0999 V2000
   37.7150   28.2010   41.5250 C   0  0  0  0  0  0  0  0  0  0  0  0
   36.5180   28.0750   41.8670 O   0  0  0  0  0  0  0  0  0  0  0  0
   37.9110   30.1080   40.0090 C   0  0  0  0  0  0  0  0  0  0  0  0
   38.2010   29.5420   41.2270 C   0  0  0  0  0  0  0  0  0  0  0  0
   38.9570   30.2400   42.1820 C   0  0  0  0  0  0  0  0  0  0  0  0
   39.3890   31.5010   41.8490 N   0  0  0  0  0  0  0  0  0  0  0  0
   39.0960   32.0290   40.6630 C   0  0  0  0  0  0  0  0  0  0  0  0
   38.3710   31.3440   39.7650 N   0  0  0  0  0  0  0  0  0  0  0  0
   37.3280   29.5750   39.2680 H   0  0  0  0  0  0  0  0  0  0  0  0
   39.1970   29.8110   43.1480 H   0  0  0  0  0  0  0  0  0  0  0  0
   39.5600   33.3650   40.3250 C   0  0  0  0  0  0  0  0  0  0  0  0
   38.8000   34.4690   40.4600 C   0  0  0  0  0  0  0  0  0  0  0  0
   39.2290   35.7340   40.1440 C   0  0  0  0  0  0  0  0  0  0  0  0
   40.4920   35.8470   39.6730 N   0  0  0  0  0  0  0  0  0  0  0  0
   41.2380   34.7690   39.5390 C   0  0  0  0  0  0  0  0  0  0  0  0
   40.8480   33.5180   39.8390 N   0  0  0  0  0  0  0  0  0  0  0  0
   37.7780   34.3810   40.8420 H   0  0  0  0  0  0  0  0  0  0  0  0
   38.5940   36.6090   40.2630 H   0  0  0  0  0  0  0  0  0  0  0  0
   42.2570   34.8460   39.1610 H   0  0  0  0  0  0  0  0  0  0  0  0
   38.3040   26.9660   41.5170 O   0  0  0  0  0  0  0  0  0  0  0  0
   38.4700   26.1930   42.6440 C   0  0  0  0  0  0  0  0  0  0  0  0
   38.8120   25.1610   42.5250 H   0  0  0  0  0  0  0  0  0  0  0  0
   37.4300   26.0700   43.0800 H   0  0  0  0  0  0  0  0  0  0  0  0
   39.2150   26.9000   43.7720 C   0  0  0  0  0  0  0  0  0  0  0  0
   38.8810   27.9590   43.7880 H   0  0  0  0  0  0  0  0  0  0  0  0
   38.8830   26.4730   44.7480 H   0  0  0  0  0  0  0  0  0  0  0  0
   41.3370   27.9690   43.4630 C   0  0  0  0  0  3  0  0  0  0  0  0
   40.6710   26.7770   43.6520 C   0  0  0  0  0  0  0  0  0  0  0  0
   41.3760   25.5910   43.7140 C   0  0  0  0  0  0  0  0  0  0  0  0
   40.8300   24.6840   43.8600 H   0  0  0  0  0  0  0  0  0  0  0  0
   42.7450   25.6850   43.5790 C   0  0  0  0  0  0  0  0  0  0  0  0
   43.6940   24.7340   43.5940 N   0  0  0  0  0  0  0  0  0  0  0  0
   44.9260   25.2370   43.4270 C   0  0  0  0  0  0  0  0  0  0  0  0
   45.8800   24.7310   43.3940 H   0  0  0  0  0  0  0  0  0  0  0  0
   44.7290   26.5780   43.3020 N   0  0  0  0  0  0  0  0  0  0  0  0
   43.4270   26.8680   43.3910 C   0  0  0  0  0  0  0  0  0  0  0  0
   42.7070   28.0510   43.3300 C   0  0  0  0  0  3  0  0  0  0  0  0
   43.5360   23.7120   43.7170 H   0  0  0  0  0  0  0  0  0  0  0  0
  1  2  2  0  0  0  0
  3  4  1  0  0  0  0
  4  1  1  0  0  0  0
  4  5  2  0  0  0  0
  5 10  1  0  0  0  0
  6  5  1  0  0  0  0
  7  6  2  0  0  0  0
  8  3  2  0  0  0  0
  8  7  1  0  0  0  0
  9  3  1  0  0  0  0
 11 12  1  0  0  0  0
 11  7  1  0  0  0  0
 12 17  1  0  0  0  0
 13 18  1  0  0  0  0
 13 12  2  0  0  0  0
 14 13  1  0  0  0  0
 15 14  2  0  0  0  0
 15 16  1  0  0  0  0
 16 11  2  0  0  0  0
 19 15  1  0  0  0  0
 20  1  1  0  0  0  0
 20 21  1  0  0  0  0
 21 23  1  0  0  0  0
 21 24  1  0  0  0  0
 22 21  1  0  0  0  0
 24 25  1  0  0  0  0
 24 26  1  0  0  0  0
 27 28  1  0  0  0  0
 28 29  2  0  0  0  0
 28 24  1  0  0  0  0
 29 30  1  0  0  0  0
 31 32  1  0  0  0  0
 31 29  1  0  0  0  0
 32 38  1  0  0  0  0
 33 32  1  0  0  0  0
 34 33  1  0  0  0  0
 35 36  1  0  0  0  0
 35 33  2  0  0  0  0
 36 31  2  0  0  0  0
 37 36  1  0  0  0  0
 37 27  2  0  0  0  0
M  END
>  <minimizedAffinity>
-5.89700222

$$$$

 OpenBabel03252500523D

 38 41  0  0  0  0  0  0  0  0999 V2000
   36.8340   27.5290   42.3730 C   0  0  0  0  0  0  0  0  0  0  0  0
   36.6850   27.5050   43.6140 O   0  0  0  0  0  0  0  0  0  0  0  0
   38.0330   26.3920   40.5710 C   0  0  0  0  0  0  0  0  0  0  0  0
   37.2770   26.3060   41.7150 C   0  0  0  0  0  0  0  0  0  0  0  0
   36.9290   25.0570   42.2540 C   0  0  0  0  0  0  0  0  0  0  0  0
   37.3740   23.9370   41.5950 N   0  0  0  0  0  0  0  0  0  0  0  0
   38.1050   24.0450   40.4880 C   0  0  0  0  0  0  0  0  0  0  0  0
   38.4260   25.2490   39.9900 N   0  0  0  0  0  0  0  0  0  0  0  0
   38.3050   27.3530   40.1500 H   0  0  0  0  0  0  0  0  0  0  0  0
   36.3330   24.9680   43.1550 H   0  0  0  0  0  0  0  0  0  0  0  0
   38.5690   22.8500   39.8010 C   0  0  0  0  0  0  0  0  0  0  0  0
   38.0910   21.6170   40.0580 C   0  0  0  0  0  0  0  0  0  0  0  0
   38.5220   20.4830   39.4150 C   0  0  0  0  0  0  0  0  0  0  0  0
   39.4810   20.6450   38.4750 N   0  0  0  0  0  0  0  0  0  0  0  0
   39.9500   21.8500   38.2210 C   0  0  0  0  0  0  0  0  0  0  0  0
   39.5490   22.9780   38.8320 N   0  0  0  0  0  0  0  0  0  0  0  0
   37.3150   21.4820   40.8180 H   0  0  0  0  0  0  0  0  0  0  0  0
   38.1190   19.4980   39.6420 H   0  0  0  0  0  0  0  0  0  0  0  0
   40.7220   21.9940   37.4660 H   0  0  0  0  0  0  0  0  0  0  0  0
   36.5230   28.7810   41.9150 O   0  0  0  0  0  0  0  0  0  0  0  0
   37.4510   29.7830   41.7480 C   0  0  0  0  0  0  0  0  0  0  0  0
   38.4490   29.6490   42.1750 H   0  0  0  0  0  0  0  0  0  0  0  0
   37.0420   30.6700   42.3260 H   0  0  0  0  0  0  0  0  0  0  0  0
   37.5220   30.3270   40.3250 C   0  0  0  0  0  0  0  0  0  0  0  0
   38.2150   29.6780   39.7480 H   0  0  0  0  0  0  0  0  0  0  0  0
   36.5270   30.2000   39.8370 H   0  0  0  0  0  0  0  0  0  0  0  0
   37.0510   32.5550   39.5780 C   0  0  0  0  0  3  0  0  0  0  0  0
   37.9140   31.7390   40.2790 C   0  0  0  0  0  0  0  0  0  0  0  0
   39.0440   32.2700   40.8690 C   0  0  0  0  0  0  0  0  0  0  0  0
   39.6930   31.6120   41.4040 H   0  0  0  0  0  0  0  0  0  0  0  0
   39.2370   33.6270   40.7120 C   0  0  0  0  0  0  0  0  0  0  0  0
   40.2190   34.4290   41.1560 N   0  0  0  0  0  0  0  0  0  0  0  0
   40.0440   35.7060   40.7860 C   0  0  0  0  0  0  0  0  0  0  0  0
   40.6550   36.5730   40.9870 H   0  0  0  0  0  0  0  0  0  0  0  0
   38.8840   35.6940   40.0720 N   0  0  0  0  0  0  0  0  0  0  0  0
   38.3840   34.4570   40.0160 C   0  0  0  0  0  0  0  0  0  0  0  0
   37.2540   33.9100   39.4270 C   0  0  0  0  0  3  0  0  0  0  0  0
   41.0410   34.1360   41.7240 H   0  0  0  0  0  0  0  0  0  0  0  0
  1  2  2  0  0  0  0
  3  4  1  0  0  0  0
  4  5  2  0  0  0  0
  4  1  1  0  0  0  0
  5 10  1  0  0  0  0
  6  5  1  0  0  0  0
  7  6  2  0  0  0  0
  8  7  1  0  0  0  0
  8  3  2  0  0  0  0
  9  3  1  0  0  0  0
 11 12  1  0  0  0  0
 11  7  1  0  0  0  0
 12 17  1  0  0  0  0
 13 18  1  0  0  0  0
 13 12  2  0  0  0  0
 14 13  1  0  0  0  0
 15 14  2  0  0  0  0
 15 16  1  0  0  0  0
 16 11  2  0  0  0  0
 19 15  1  0  0  0  0
 20  1  1  0  0  0  0
 21 20  1  0  0  0  0
 21 22  1  0  0  0  0
 21 23  1  0  0  0  0
 24 21  1  0  0  0  0
 25 24  1  0  0  0  0
 26 24  1  0  0  0  0
 27 28  1  0  0  0  0
 28 24  1  0  0  0  0
 28 29  2  0  0  0  0
 29 30  1  0  0  0  0
 31 29  1  0  0  0  0
 31 32  1  0  0  0  0
 32 38  1  0  0  0  0
 33 34  1  0  0  0  0
 33 32  1  0  0  0  0
 35 33  2  0  0  0  0
 36 35  1  0  0  0  0
 36 31  2  0  0  0  0
 37 27  2  0  0  0  0
 37 36  1  0  0  0  0
M  END
>  <minimizedAffinity>
-5.79227161

$$$$

 OpenBabel03252500523D

 38 41  0  0  0  0  0  0  0  0999 V2000
   39.4770   28.1400   42.7870 C   0  0  0  0  0  0  0  0  0  0  0  0
   40.3390   27.6140   43.5270 O   0  0  0  0  0  0  0  0  0  0  0  0
   39.8440   30.5520   42.6430 C   0  0  0  0  0  0  0  0  0  0  0  0
   39.8610   29.3230   42.0280 C   0  0  0  0  0  0  0  0  0  0  0  0
   40.2430   29.1980   40.6830 C   0  0  0  0  0  0  0  0  0  0  0  0
   40.5970   30.3460   40.0170 N   0  0  0  0  0  0  0  0  0  0  0  0
   40.5730   31.5250   40.6320 C   0  0  0  0  0  0  0  0  0  0  0  0
   40.2040   31.6220   41.9190 N   0  0  0  0  0  0  0  0  0  0  0  0
   39.5500   30.6560   43.6810 H   0  0  0  0  0  0  0  0  0  0  0  0
   40.2630   28.2380   40.1810 H   0  0  0  0  0  0  0  0  0  0  0  0
   40.9500   32.7320   39.9120 C   0  0  0  0  0  0  0  0  0  0  0  0
   41.5980   32.7160   38.7320 C   0  0  0  0  0  0  0  0  0  0  0  0
   41.9580   33.8490   38.0450 C   0  0  0  0  0  0  0  0  0  0  0  0
   41.6290   35.0330   38.6100 N   0  0  0  0  0  0  0  0  0  0  0  0
   40.9940   35.0510   39.7650 C   0  0  0  0  0  0  0  0  0  0  0  0
   40.6280   33.9610   40.4610 N   0  0  0  0  0  0  0  0  0  0  0  0
   41.8660   31.7600   38.2720 H   0  0  0  0  0  0  0  0  0  0  0  0
   42.4820   33.8080   37.0920 H   0  0  0  0  0  0  0  0  0  0  0  0
   40.7230   35.9980   40.2310 H   0  0  0  0  0  0  0  0  0  0  0  0
   38.3150   27.4230   42.8840 O   0  0  0  0  0  0  0  0  0  0  0  0
   37.0820   27.9960   43.0980 C   0  0  0  0  0  0  0  0  0  0  0  0
   37.0320   28.9400   43.6500 H   0  0  0  0  0  0  0  0  0  0  0  0
   36.5280   27.2740   43.7750 H   0  0  0  0  0  0  0  0  0  0  0  0
   36.1940   28.0290   41.8590 C   0  0  0  0  0  0  0  0  0  0  0  0
   36.2970   27.0510   41.3410 H   0  0  0  0  0  0  0  0  0  0  0  0
   35.1260   28.0790   42.1800 H   0  0  0  0  0  0  0  0  0  0  0  0
   36.7630   28.8170   39.6690 C   0  0  0  0  0  3  0  0  0  0  0  0
   36.4950   29.1600   40.9770 C   0  0  0  0  0  0  0  0  0  0  0  0
   36.5230   30.4850   41.3660 C   0  0  0  0  0  0  0  0  0  0  0  0
   36.3110   30.7180   42.3870 H   0  0  0  0  0  0  0  0  0  0  0  0
   36.8270   31.4050   40.3840 C   0  0  0  0  0  0  0  0  0  0  0  0
   36.9320   32.7430   40.4410 N   0  0  0  0  0  0  0  0  0  0  0  0
   37.2510   33.2820   39.2540 C   0  0  0  0  0  0  0  0  0  0  0  0
   37.4040   34.3160   38.9840 H   0  0  0  0  0  0  0  0  0  0  0  0
   37.3480   32.2150   38.4140 N   0  0  0  0  0  0  0  0  0  0  0  0
   37.0970   31.0790   39.0720 C   0  0  0  0  0  0  0  0  0  0  0  0
   37.0660   29.7450   38.6960 C   0  0  0  0  0  3  0  0  0  0  0  0
   36.7920   33.3350   41.2860 H   0  0  0  0  0  0  0  0  0  0  0  0
  1 20  1  0  0  0  0
  1  2  2  0  0  0  0
  3  9  1  0  0  0  0
  4  3  1  0  0  0  0
  4  1  1  0  0  0  0
  5  4  2  0  0  0  0
  6  7  2  0  0  0  0
  6  5  1  0  0  0  0
  7  8  1  0  0  0  0
  8  3  2  0  0  0  0
 10  5  1  0  0  0  0
 11 16  1  0  0  0  0
 11  7  1  0  0  0  0
 12 11  2  0  0  0  0
 13 14  2  0  0  0  0
 13 12  1  0  0  0  0
 14 15  1  0  0  0  0
 15 19  1  0  0  0  0
 15 16  2  0  0  0  0
 17 12  1  0  0  0  0
 18 13  1  0  0  0  0
 20 21  1  0  0  0  0
 21 22  1  0  0  0  0
 21 23  1  0  0  0  0
 24 26  1  0  0  0  0
 24 21  1  0  0  0  0
 25 24  1  0  0  0  0
 27 28  1  0  0  0  0
 28 29  2  0  0  0  0
 28 24  1  0  0  0  0
 29 30  1  0  0  0  0
 31 32  1  0  0  0  0
 31 29  1  0  0  0  0
 32 38  1  0  0  0  0
 33 32  1  0  0  0  0
 34 33  1  0  0  0  0
 35 36  1  0  0  0  0
 35 33  2  0  0  0  0
 36 31  2  0  0  0  0
 37 36  1  0  0  0  0
 37 27  2  0  0  0  0
M  END
>  <minimizedAffinity>
-5.7742095

$$$$

 OpenBabel03252500523D

 38 41  0  0  0  0  0  0  0  0999 V2000
   38.0550   31.8920   38.7110 C   0  0  0  0  0  0  0  0  0  0  0  0
   37.9810   31.8130   37.4650 O   0  0  0  0  0  0  0  0  0  0  0  0
   39.1890   33.7420   39.8370 C   0  0  0  0  0  0  0  0  0  0  0  0
   39.2560   32.4850   39.2860 C   0  0  0  0  0  0  0  0  0  0  0  0
   40.4640   31.7700   39.2730 C   0  0  0  0  0  0  0  0  0  0  0  0
   41.5640   32.3760   39.8300 N   0  0  0  0  0  0  0  0  0  0  0  0
   41.4760   33.5940   40.3580 C   0  0  0  0  0  0  0  0  0  0  0  0
   40.3100   34.2590   40.3600 N   0  0  0  0  0  0  0  0  0  0  0  0
   38.2600   34.2990   39.8500 H   0  0  0  0  0  0  0  0  0  0  0  0
   40.5370   30.7780   38.8440 H   0  0  0  0  0  0  0  0  0  0  0  0
   42.6490   34.2230   40.9430 C   0  0  0  0  0  0  0  0  0  0  0  0
   43.9090   33.8120   40.6960 C   0  0  0  0  0  0  0  0  0  0  0  0
   45.0230   34.3990   41.2440 C   0  0  0  0  0  0  0  0  0  0  0  0
   44.8120   35.4460   42.0750 N   0  0  0  0  0  0  0  0  0  0  0  0
   43.5810   35.8480   42.3180 C   0  0  0  0  0  0  0  0  0  0  0  0
   42.4710   35.2960   41.7980 N   0  0  0  0  0  0  0  0  0  0  0  0
   44.0820   32.9670   40.0240 H   0  0  0  0  0  0  0  0  0  0  0  0
   46.0300   34.0480   41.0270 H   0  0  0  0  0  0  0  0  0  0  0  0
   43.3980   36.6910   42.9860 H   0  0  0  0  0  0  0  0  0  0  0  0
   36.9150   31.3670   39.2560 O   0  0  0  0  0  0  0  0  0  0  0  0
   36.6920   31.2700   40.6100 C   0  0  0  0  0  0  0  0  0  0  0  0
   36.2350   32.1200   41.1270 H   0  0  0  0  0  0  0  0  0  0  0  0
   37.7220   31.2080   41.0800 H   0  0  0  0  0  0  0  0  0  0  0  0
   36.0580   29.9520   41.0380 C   0  0  0  0  0  0  0  0  0  0  0  0
   35.1620   30.1880   41.6510 H   0  0  0  0  0  0  0  0  0  0  0  0
   35.6640   29.4280   40.1350 H   0  0  0  0  0  0  0  0  0  0  0  0
   36.4600   27.8820   42.1780 C   0  0  0  0  0  3  0  0  0  0  0  0
   36.9990   29.0740   41.7420 C   0  0  0  0  0  0  0  0  0  0  0  0
   38.3280   29.3630   41.9800 C   0  0  0  0  0  0  0  0  0  0  0  0
   38.7140   30.2950   41.6290 H   0  0  0  0  0  0  0  0  0  0  0  0
   39.0500   28.4050   42.6600 C   0  0  0  0  0  0  0  0  0  0  0  0
   40.3390   28.3850   43.0390 N   0  0  0  0  0  0  0  0  0  0  0  0
   40.6640   27.2580   43.6910 C   0  0  0  0  0  0  0  0  0  0  0  0
   41.6100   26.9530   44.1130 H   0  0  0  0  0  0  0  0  0  0  0  0
   39.5090   26.5390   43.7160 N   0  0  0  0  0  0  0  0  0  0  0  0
   38.5280   27.2090   43.1030 C   0  0  0  0  0  0  0  0  0  0  0  0
   37.1920   26.9320   42.8580 C   0  0  0  0  0  3  0  0  0  0  0  0
   41.0400   29.1360   42.8690 H   0  0  0  0  0  0  0  0  0  0  0  0
  1 20  1  0  0  0  0
  1  4  1  0  0  0  0
  2  1  2  0  0  0  0
  3  9  1  0  0  0  0
  3  8  1  0  0  0  0
  4  3  2  0  0  0  0
  5  4  1  0  0  0  0
  5  6  2  0  0  0  0
  6  7  1  0  0  0  0
  7  8  2  0  0  0  0
  7 11  1  0  0  0  0
 10  5  1  0  0  0  0
 11 16  1  0  0  0  0
 12 11  2  0  0  0  0
 12 13  1  0  0  0  0
 13 14  2  0  0  0  0
 14 15  1  0  0  0  0
 15 19  1  0  0  0  0
 16 15  2  0  0  0  0
 17 12  1  0  0  0  0
 18 13  1  0  0  0  0
 20 21  1  0  0  0  0
 21 24  1  0  0  0  0
 21 23  1  0  0  0  0
 21 22  1  0  0  0  0
 24 25  1  0  0  0  0
 24 28  1  0  0  0  0
 26 24  1  0  0  0  0
 27 37  1  0  0  0  0
 28 29  1  0  0  0  0
 28 27  2  0  0  0  0
 29 31  2  0  0  0  0
 30 29  1  0  0  0  0
 31 32  1  0  0  0  0
 31 36  1  0  0  0  0
 32 33  1  0  0  0  0
 33 35  2  0  0  0  0
 33 34  1  0  0  0  0
 36 35  1  0  0  0  0
 37 36  2  0  0  0  0
 38 32  1  0  0  0  0
M  END
>  <minimizedAffinity>
-5.76624489

$$$$

 OpenBabel03252500523D

 38 41  0  0  0  0  0  0  0  0999 V2000
   37.0490   27.9030   42.4650 C   0  0  0  0  0  0  0  0  0  0  0  0
   36.2150   27.5740   43.3370 O   0  0  0  0  0  0  0  0  0  0  0  0
   38.9360   26.8660   43.6230 C   0  0  0  0  0  0  0  0  0  0  0  0
   38.4600   27.8820   42.8290 C   0  0  0  0  0  0  0  0  0  0  0  0
   39.3170   28.8940   42.3680 C   0  0  0  0  0  0  0  0  0  0  0  0
   40.6370   28.8240   42.7400 N   0  0  0  0  0  0  0  0  0  0  0  0
   41.0760   27.8310   43.5100 C   0  0  0  0  0  0  0  0  0  0  0  0
   40.2390   26.8730   43.9390 N   0  0  0  0  0  0  0  0  0  0  0  0
   38.2800   26.0820   43.9820 H   0  0  0  0  0  0  0  0  0  0  0  0
   38.9610   29.7030   41.7410 H   0  0  0  0  0  0  0  0  0  0  0  0
   42.4770   27.7700   43.8960 C   0  0  0  0  0  0  0  0  0  0  0  0
   43.2750   28.8540   43.9520 C   0  0  0  0  0  0  0  0  0  0  0  0
   44.5990   28.8070   44.3150 C   0  0  0  0  0  0  0  0  0  0  0  0
   45.1000   27.5910   44.6300 N   0  0  0  0  0  0  0  0  0  0  0  0
   44.3200   26.5300   44.5760 C   0  0  0  0  0  0  0  0  0  0  0  0
   43.0230   26.5420   44.2250 N   0  0  0  0  0  0  0  0  0  0  0  0
   42.8720   29.8390   43.6980 H   0  0  0  0  0  0  0  0  0  0  0  0
   45.2220   29.6990   44.3520 H   0  0  0  0  0  0  0  0  0  0  0  0
   44.7120   25.5440   44.8270 H   0  0  0  0  0  0  0  0  0  0  0  0
   36.3820   28.2200   41.3130 O   0  0  0  0  0  0  0  0  0  0  0  0
   36.0540   29.5070   40.9520 C   0  0  0  0  0  0  0  0  0  0  0  0
   36.1990   30.3080   41.6830 H   0  0  0  0  0  0  0  0  0  0  0  0
   34.9300   29.4990   40.8000 H   0  0  0  0  0  0  0  0  0  0  0  0
   36.5670   29.9120   39.5740 C   0  0  0  0  0  0  0  0  0  0  0  0
   37.0330   29.0170   39.1090 H   0  0  0  0  0  0  0  0  0  0  0  0
   35.6960   30.1610   38.9220 H   0  0  0  0  0  0  0  0  0  0  0  0
   38.6000   30.9350   38.8240 C   0  0  0  0  0  3  0  0  0  0  0  0
   37.4840   31.0540   39.6250 C   0  0  0  0  0  0  0  0  0  0  0  0
   37.3000   32.1870   40.3940 C   0  0  0  0  0  0  0  0  0  0  0  0
   36.4260   32.2490   41.0040 H   0  0  0  0  0  0  0  0  0  0  0  0
   38.2800   33.1540   40.3030 C   0  0  0  0  0  0  0  0  0  0  0  0
   38.3920   34.3460   40.9110 N   0  0  0  0  0  0  0  0  0  0  0  0
   39.5070   35.0010   40.5540 C   0  0  0  0  0  0  0  0  0  0  0  0
   39.8710   35.9680   40.8670 H   0  0  0  0  0  0  0  0  0  0  0  0
   40.1210   34.1640   39.6720 N   0  0  0  0  0  0  0  0  0  0  0  0
   39.4010   33.0510   39.5070 C   0  0  0  0  0  0  0  0  0  0  0  0
   39.5730   31.9080   38.7410 C   0  0  0  0  0  3  0  0  0  0  0  0
   37.7160   34.7550   41.5890 H   0  0  0  0  0  0  0  0  0  0  0  0
  1  4  1  0  0  0  0
  1  2  2  0  0  0  0
  3  8  1  0  0  0  0
  3  9  1  0  0  0  0
  4  3  2  0  0  0  0
  5  6  2  0  0  0  0
  5  4  1  0  0  0  0
  6  7  1  0  0  0  0
  7 11  1  0  0  0  0
  7  8  2  0  0  0  0
 10  5  1  0  0  0  0
 11 12  2  0  0  0  0
 11 16  1  0  0  0  0
 12 13  1  0  0  0  0
 13 18  1  0  0  0  0
 13 14  2  0  0  0  0
 15 14  1  0  0  0  0
 15 19  1  0  0  0  0
 16 15  2  0  0  0  0
 17 12  1  0  0  0  0
 20  1  1  0  0  0  0
 21 20  1  0  0  0  0
 21 22  1  0  0  0  0
 23 21  1  0  0  0  0
 24 28  1  0  0  0  0
 24 21  1  0  0  0  0
 25 24  1  0  0  0  0
 26 24  1  0  0  0  0
 27 28  1  0  0  0  0
 28 29  2  0  0  0  0
 29 30  1  0  0  0  0
 31 29  1  0  0  0  0
 31 32  1  0  0  0  0
 32 38  1  0  0  0  0
 33 34  1  0  0  0  0
 33 32  1  0  0  0  0
 35 33  2  0  0  0  0
 36 35  1  0  0  0  0
 36 31  2  0  0  0  0
 37 27  2  0  0  0  0
 37 36  1  0  0  0  0
M  END
>  <minimizedAffinity>
-5.59648228

$$$$

 OpenBabel03252500523D

 38 41  0  0  0  0  0  0  0  0999 V2000
   40.4350   32.8530   40.4830 C   0  0  0  0  0  0  0  0  0  0  0  0
   41.4630   33.4750   40.8310 O   0  0  0  0  0  0  0  0  0  0  0  0
   40.0070   31.1790   42.2120 C   0  0  0  0  0  0  0  0  0  0  0  0
   40.3060   31.4630   40.9010 C   0  0  0  0  0  0  0  0  0  0  0  0
   40.4850   30.4320   39.9660 C   0  0  0  0  0  0  0  0  0  0  0  0
   40.3500   29.1400   40.4130 N   0  0  0  0  0  0  0  0  0  0  0  0
   40.0610   28.8880   41.6880 C   0  0  0  0  0  0  0  0  0  0  0  0
   39.8920   29.8900   42.5650 N   0  0  0  0  0  0  0  0  0  0  0  0
   39.8670   31.9700   42.9390 H   0  0  0  0  0  0  0  0  0  0  0  0
   40.7210   30.6350   38.9280 H   0  0  0  0  0  0  0  0  0  0  0  0
   39.9210   27.5150   42.1470 C   0  0  0  0  0  0  0  0  0  0  0  0
   40.1040   27.1420   43.4290 C   0  0  0  0  0  0  0  0  0  0  0  0
   39.9740   25.8490   43.8710 C   0  0  0  0  0  0  0  0  0  0  0  0
   39.6430   24.9200   42.9460 N   0  0  0  0  0  0  0  0  0  0  0  0
   39.4630   25.2830   41.6920 C   0  0  0  0  0  0  0  0  0  0  0  0
   39.5820   26.5380   41.2270 N   0  0  0  0  0  0  0  0  0  0  0  0
   40.3720   27.8910   44.1790 H   0  0  0  0  0  0  0  0  0  0  0  0
   40.1280   25.5740   44.9130 H   0  0  0  0  0  0  0  0  0  0  0  0
   39.1950   24.5440   40.9360 H   0  0  0  0  0  0  0  0  0  0  0  0
   39.6390   33.6900   39.7500 O   0  0  0  0  0  0  0  0  0  0  0  0
   38.4110   34.1410   40.1760 C   0  0  0  0  0  0  0  0  0  0  0  0
   38.2840   35.2110   40.3680 H   0  0  0  0  0  0  0  0  0  0  0  0
   38.2590   33.6770   41.2000 H   0  0  0  0  0  0  0  0  0  0  0  0
   37.2370   33.5750   39.3850 C   0  0  0  0  0  0  0  0  0  0  0  0
   36.3330   34.1620   39.6520 H   0  0  0  0  0  0  0  0  0  0  0  0
   37.4030   33.7710   38.2990 H   0  0  0  0  0  0  0  0  0  0  0  0
   37.2020   31.3590   38.4730 C   0  0  0  0  0  3  0  0  0  0  0  0
   37.0510   32.1370   39.6010 C   0  0  0  0  0  0  0  0  0  0  0  0
   36.7470   31.5490   40.8130 C   0  0  0  0  0  0  0  0  0  0  0  0
   36.6360   32.1790   41.6680 H   0  0  0  0  0  0  0  0  0  0  0  0
   36.6130   30.1760   40.8100 C   0  0  0  0  0  0  0  0  0  0  0  0
   36.3270   29.3220   41.8080 N   0  0  0  0  0  0  0  0  0  0  0  0
   36.2840   28.0470   41.3930 C   0  0  0  0  0  0  0  0  0  0  0  0
   36.0820   27.1460   41.9530 H   0  0  0  0  0  0  0  0  0  0  0  0
   36.5600   28.1150   40.0620 N   0  0  0  0  0  0  0  0  0  0  0  0
   36.7610   29.3840   39.6920 C   0  0  0  0  0  0  0  0  0  0  0  0
   37.0650   29.9880   38.4820 C   0  0  0  0  0  3  0  0  0  0  0  0
   36.1500   29.5770   42.8020 H   0  0  0  0  0  0  0  0  0  0  0  0
  1  2  2  0  0  0  0
  1  4  1  0  0  0  0
  3  8  1  0  0  0  0
  3  9  1  0  0  0  0
  4  3  2  0  0  0  0
  5  6  2  0  0  0  0
  5  4  1  0  0  0  0
  6  7  1  0  0  0  0
  7 11  1  0  0  0  0
  7  8  2  0  0  0  0
 10  5  1  0  0  0  0
 11 12  1  0  0  0  0
 12 13  2  0  0  0  0
 12 17  1  0  0  0  0
 13 18  1  0  0  0  0
 14 13  1  0  0  0  0
 15 14  2  0  0  0  0
 16 15  1  0  0  0  0
 16 11  2  0  0  0  0
 19 15  1  0  0  0  0
 20 21  1  0  0  0  0
 20  1  1  0  0  0  0
 21 22  1  0  0  0  0
 21 23  1  0  0  0  0
 24 28  1  0  0  0  0
 24 25  1  0  0  0  0
 24 21  1  0  0  0  0
 26 24  1  0  0  0  0
 27 37  2  0  0  0  0
 27 28  1  0  0  0  0
 28 29  2  0  0  0  0
 29 30  1  0  0  0  0
 31 29  1  0  0  0  0
 31 32  1  0  0  0  0
 32 38  1  0  0  0  0
 33 32  1  0  0  0  0
 33 34  1  0  0  0  0
 35 33  2  0  0  0  0
 36 35  1  0  0  0  0
 36 31  2  0  0  0  0
 37 36  1  0  0  0  0
M  END
>  <minimizedAffinity>
-5.57814169

$$$$
