
 OpenBabel03252509043D

 51 54  0  0  1  0  0  0  0  0999 V2000
   46.9370   34.2700   43.5980 N   0  0  0  0  0  0  0  0  0  0  0  0
   46.4360   35.2220   42.6830 C   0  0  0  0  0  0  0  0  0  0  0  0
   44.9210   35.2630   42.5910 C   0  0  0  0  0  0  0  0  0  0  0  0
   44.2260   35.0200   43.9030 C   0  0  0  0  0  0  0  0  0  0  0  0
   45.2090   34.8240   45.0330 C   0  0  0  0  0  0  0  0  0  0  0  0
   46.1360   33.6520   44.5240 C   0  0  2  0  0  0  0  0  0  0  0  0
   46.8010   35.1530   41.6540 H   0  0  0  0  0  0  0  0  0  0  0  0
   46.7460   36.2480   43.0310 H   0  0  0  0  0  0  0  0  0  0  0  0
   44.5420   34.5220   41.8420 H   0  0  0  0  0  0  0  0  0  0  0  0
   44.6030   36.2540   42.2010 H   0  0  0  0  0  0  0  0  0  0  0  0
   43.5700   35.8900   44.1950 H   0  0  0  0  0  0  0  0  0  0  0  0
   43.5500   34.1410   43.8820 H   0  0  0  0  0  0  0  0  0  0  0  0
   45.8170   35.7160   45.2360 H   0  0  0  0  0  0  0  0  0  0  0  0
   44.6860   34.4040   45.9060 H   0  0  0  0  0  0  0  0  0  0  0  0
   45.4490   32.8600   44.1730 H   0  0  0  0  0  0  0  0  0  0  0  0
   48.1330   33.5950   43.1530 C   0  0  0  0  0  0  0  0  0  0  0  0
   48.6470   34.3000   42.4640 H   0  0  0  0  0  0  0  0  0  0  0  0
   48.8720   33.4050   43.9670 H   0  0  0  0  0  0  0  0  0  0  0  0
   47.7140   32.3710   42.4050 C   0  0  0  0  0  0  0  0  0  0  0  0
   48.0820   31.4670   42.8880 H   0  0  0  0  0  0  0  0  0  0  0  0
   46.5980   32.2810   42.3410 H   0  0  0  0  0  0  0  0  0  0  0  0
   49.6780   31.6610   39.2820 C   0  0  0  0  0  0  0  0  0  0  0  0
   49.1980   31.5900   40.6040 C   0  0  0  0  0  0  0  0  0  0  0  0
   48.2120   32.4560   41.0070 C   0  0  0  0  0  0  0  0  0  0  0  0
   47.7530   33.3320   40.1100 N   0  0  0  0  0  0  0  0  0  0  0  0
   48.2110   33.3970   38.8540 C   0  0  0  0  0  0  0  0  0  0  0  0
   49.1700   32.5750   38.4190 N   0  0  0  0  0  0  0  0  0  0  0  0
   50.4560   30.9850   38.9500 H   0  0  0  0  0  0  0  0  0  0  0  0
   49.6340   30.8460   41.2580 H   0  0  0  0  0  0  0  0  0  0  0  0
   47.7280   34.1660   38.2600 H   0  0  0  0  0  0  0  0  0  0  0  0
   46.8040   33.3190   45.6870 O   0  0  0  0  0  0  0  0  0  0  0  0
   46.1190   30.8240   45.0470 O   0  0  0  0  0  0  0  0  0  0  0  0
   46.4430   31.7550   46.2110 P   0  0  2  0  0  0  0  0  0  0  0  0
   44.9710   31.8930   47.0820 O   0  0  0  0  0  0  0  0  0  0  0  0
   44.3960   31.1220   46.9360 H   0  0  0  0  0  0  0  0  0  0  0  0
   47.5740   31.1200   47.2410 O   0  0  0  0  0  0  0  0  0  0  0  0
   48.2720   30.1170   46.5890 C   0  0  0  0  0  0  0  0  0  0  0  0
   47.5350   29.4900   46.0620 H   0  0  0  0  0  0  0  0  0  0  0  0
   49.0450   30.4810   45.9080 H   0  0  0  0  0  0  0  0  0  0  0  0
   48.8530   27.9260   47.7110 C   0  0  0  0  0  3  0  0  0  0  0  0
   48.9460   29.3030   47.6610 C   0  0  0  0  0  0  0  0  0  0  0  0
   49.6790   30.0080   48.6160 C   0  0  0  0  0  0  0  0  0  0  0  0
   49.7500   31.1010   48.5730 H   0  0  0  0  0  0  0  0  0  0  0  0
   50.3180   29.3200   49.6210 C   0  0  0  0  0  0  0  0  0  0  0  0
   51.0690   29.8100   50.6300 N   0  0  0  0  0  0  0  0  0  0  0  0
   51.4830   28.7530   51.3610 C   0  0  0  0  0  0  0  0  0  0  0  0
   52.1020   28.7900   52.2420 H   0  0  0  0  0  0  0  0  0  0  0  0
   50.9770   27.6220   50.7880 N   0  0  0  0  0  0  0  0  0  0  0  0
   50.2500   27.9430   49.7060 C   0  0  0  0  0  0  0  0  0  0  0  0
   49.5160   27.2610   48.7470 C   0  0  0  0  0  3  0  0  0  0  0  0
   51.3370   30.7960   50.8820 H   0  0  0  0  0  0  0  0  0  0  0  0
  1  6  1  0  0  0  0
  2  8  1  0  0  0  0
  2  1  1  0  0  0  0
  3  2  1  0  0  0  0
  3  4  1  0  0  0  0
  4 11  1  0  0  0  0
  4  5  1  0  0  0  0
  5 13  1  0  0  0  0
  5 14  1  0  0  0  0
  6 15  1  6  0  0  0
  6  5  1  0  0  0  0
  6 31  1  0  0  0  0
  7  2  1  0  0  0  0
  9  3  1  0  0  0  0
 10  3  1  0  0  0  0
 12  4  1  0  0  0  0
 16  1  1  0  0  0  0
 16 18  1  0  0  0  0
 17 16  1  0  0  0  0
 19 20  1  0  0  0  0
 19 16  1  0  0  0  0
 21 19  1  0  0  0  0
 22 23  1  0  0  0  0
 23 24  2  0  0  0  0
 23 29  1  0  0  0  0
 24 19  1  0  0  0  0
 25 24  1  0  0  0  0
 26 25  2  0  0  0  0
 27 26  1  0  0  0  0
 27 22  2  0  0  0  0
 28 22  1  0  0  0  0
 30 26  1  0  0  0  0
 31 33  1  0  0  0  0
 33 32  2  6  0  0  0
 33 34  1  0  0  0  0
 33 36  1  0  0  0  0
 35 34  1  0  0  0  0
 37 36  1  0  0  0  0
 37 41  1  0  0  0  0
 38 37  1  0  0  0  0
 39 37  1  0  0  0  0
 40 50  1  0  0  0  0
 41 40  2  0  0  0  0
 41 42  1  0  0  0  0
 42 44  2  0  0  0  0
 43 42  1  0  0  0  0
 44 49  1  0  0  0  0
 44 45  1  0  0  0  0
 45 51  1  0  0  0  0
 45 46  1  0  0  0  0
 46 47  1  0  0  0  0
 48 46  2  0  0  0  0
 49 48  1  0  0  0  0
 50 49  2  0  0  0  0
M  END
>  <minimizedAffinity>
-4.63165188

>  <minimizedRMSD>
2.30777645

$$$$
