
 OpenBabel03242519363D

 27 29  0  0  0  0  0  0  0  0999 V2000
   36.4540   30.9430   38.7650 O   0  0  0  0  0  0  0  0  0  0  0  0
   37.1290   31.3830   40.0460 P   0  0  1  0  0  0  0  0  0  0  0  0
   36.9770   33.0360   40.2870 O   0  0  0  0  0  0  0  0  0  0  0  0
   37.8390   33.4980   40.4290 H   0  0  0  0  0  0  0  0  0  0  0  0
   36.3640   30.5940   41.3770 O   0  0  0  0  0  0  0  0  0  0  0  0
   37.0440   27.0120   41.7090 C   0  0  0  0  0  0  0  0  0  0  0  0
   36.5070   28.2300   41.2320 C   0  0  0  0  0  0  0  0  0  0  0  0
   36.8980   29.4050   41.8540 C   0  0  0  0  0  0  0  0  0  0  0  0
   37.7750   29.3310   42.8870 N   0  0  0  0  0  0  0  0  0  0  0  0
   38.2730   28.1620   43.3240 C   0  0  0  0  0  0  0  0  0  0  0  0
   37.9170   27.0060   42.7480 N   0  0  0  0  0  0  0  0  0  0  0  0
   36.7230   26.0920   41.2040 H   0  0  0  0  0  0  0  0  0  0  0  0
   35.8140   28.1960   40.4040 H   0  0  0  0  0  0  0  0  0  0  0  0
   38.9660   28.0800   44.1380 H   0  0  0  0  0  0  0  0  0  0  0  0
   38.7400   30.8820   40.0360 O   0  0  0  0  0  0  0  0  0  0  0  0
   40.1200   32.4900   39.2060 C   0  0  0  0  0  3  0  0  0  0  0  0
   39.8440   31.6680   40.3050 C   0  0  0  0  0  0  0  0  0  0  0  0
   40.6450   31.7430   41.4240 C   0  0  0  0  0  0  0  0  0  0  0  0
   40.3260   31.0610   42.1980 H   0  0  0  0  0  0  0  0  0  0  0  0
   41.7060   32.6250   41.4450 C   0  0  0  0  0  0  0  0  0  0  0  0
   42.5830   32.8360   42.4300 N   0  0  0  0  0  0  0  0  0  0  0  0
   43.4360   33.7890   41.9930 C   0  0  0  0  0  0  0  0  0  0  0  0
   44.2770   34.2140   42.5240 H   0  0  0  0  0  0  0  0  0  0  0  0
   43.0730   34.1570   40.7350 N   0  0  0  0  0  0  0  0  0  0  0  0
   41.9890   33.4400   40.3710 C   0  0  0  0  0  0  0  0  0  0  0  0
   41.1970   33.3830   39.2310 C   0  0  0  0  0  3  0  0  0  0  0  0
   42.6140   32.3600   43.3690 H   0  0  0  0  0  0  0  0  0  0  0  0
  2  1  2  6  0  0  0
  2  3  1  0  0  0  0
  2  5  1  0  0  0  0
  3  4  1  0  0  0  0
  5  8  1  0  0  0  0
  6 11  1  0  0  0  0
  7  6  2  0  0  0  0
  7  8  1  0  0  0  0
  8  9  2  0  0  0  0
  9 10  1  0  0  0  0
 10 14  1  0  0  0  0
 11 10  2  0  0  0  0
 12  6  1  0  0  0  0
 13  7  1  0  0  0  0
 15  2  1  0  0  0  0
 15 17  1  0  0  0  0
 16 26  2  0  0  0  0
 16 17  1  0  0  0  0
 17 18  2  0  0  0  0
 18 20  1  0  0  0  0
 18 19  1  0  0  0  0
 20 21  1  0  0  0  0
 21 27  1  0  0  0  0
 22 21  1  0  0  0  0
 22 23  1  0  0  0  0
 24 22  2  0  0  0  0
 25 24  1  0  0  0  0
 25 20  2  0  0  0  0
 26 25  1  0  0  0  0
M  END
>  <minimizedAffinity>
-5.25624704

$$$$

 OpenBabel03242519363D

 27 29  0  0  0  0  0  0  0  0999 V2000
   37.4830   28.8800   40.1530 O   0  0  0  0  0  0  0  0  0  0  0  0
   36.7570   29.8660   41.0420 P   0  0  1  0  0  0  0  0  0  0  0  0
   35.1050   29.5790   41.0620 O   0  0  0  0  0  0  0  0  0  0  0  0
   34.5610   30.3700   40.8270 H   0  0  0  0  0  0  0  0  0  0  0  0
   37.3330   29.6860   42.6590 O   0  0  0  0  0  0  0  0  0  0  0  0
   39.2440   26.7350   43.6790 C   0  0  0  0  0  0  0  0  0  0  0  0
   38.1500   27.5960   43.4290 C   0  0  0  0  0  0  0  0  0  0  0  0
   38.4140   28.8500   42.9020 C   0  0  0  0  0  0  0  0  0  0  0  0
   39.7040   29.1910   42.6540 N   0  0  0  0  0  0  0  0  0  0  0  0
   40.7270   28.3570   42.9000 C   0  0  0  0  0  0  0  0  0  0  0  0
   40.5120   27.1370   43.4100 N   0  0  0  0  0  0  0  0  0  0  0  0
   39.0160   25.7460   44.0960 H   0  0  0  0  0  0  0  0  0  0  0  0
   37.1560   27.2420   43.6560 H   0  0  0  0  0  0  0  0  0  0  0  0
   41.7530   28.6060   42.7120 H   0  0  0  0  0  0  0  0  0  0  0  0
   37.1290   31.4400   40.5600 O   0  0  0  0  0  0  0  0  0  0  0  0
   39.2170   32.2700   40.9200 C   0  0  0  0  0  3  0  0  0  0  0  0
   38.2970   31.8550   39.9510 C   0  0  0  0  0  0  0  0  0  0  0  0
   38.6480   31.9100   38.6180 C   0  0  0  0  0  0  0  0  0  0  0  0
   37.8530   31.5620   37.9750 H   0  0  0  0  0  0  0  0  0  0  0  0
   39.8970   32.3720   38.2610 C   0  0  0  0  0  0  0  0  0  0  0  0
   40.4100   32.4950   37.0340 N   0  0  0  0  0  0  0  0  0  0  0  0
   41.6590   32.9880   37.1830 C   0  0  0  0  0  0  0  0  0  0  0  0
   42.3750   33.2170   36.4040 H   0  0  0  0  0  0  0  0  0  0  0  0
   41.9050   33.1630   38.5090 N   0  0  0  0  0  0  0  0  0  0  0  0
   40.8120   32.7820   39.2040 C   0  0  0  0  0  0  0  0  0  0  0  0
   40.4840   32.7380   40.5530 C   0  0  0  0  0  3  0  0  0  0  0  0
   39.9430   32.2590   36.1200 H   0  0  0  0  0  0  0  0  0  0  0  0
  2  1  2  6  0  0  0
  2  3  1  0  0  0  0
  2  5  1  0  0  0  0
  4  3  1  0  0  0  0
  5  8  1  0  0  0  0
  6 12  1  0  0  0  0
  7 13  1  0  0  0  0
  7  6  1  0  0  0  0
  8  7  2  0  0  0  0
  9 10  2  0  0  0  0
  9  8  1  0  0  0  0
 10 11  1  0  0  0  0
 11  6  2  0  0  0  0
 14 10  1  0  0  0  0
 15  2  1  0  0  0  0
 17 15  1  0  0  0  0
 17 16  2  0  0  0  0
 18 17  1  0  0  0  0
 19 18  1  0  0  0  0
 20 18  2  0  0  0  0
 20 25  1  0  0  0  0
 21 22  1  0  0  0  0
 21 20  1  0  0  0  0
 22 24  2  0  0  0  0
 23 22  1  0  0  0  0
 24 25  1  0  0  0  0
 25 26  2  0  0  0  0
 26 16  1  0  0  0  0
 27 21  1  0  0  0  0
M  END
>  <minimizedAffinity>
-5.24220228

$$$$

 OpenBabel03242519363D

 27 29  0  0  0  0  0  0  0  0999 V2000
   36.9750   28.8370   39.6440 O   0  0  0  0  0  0  0  0  0  0  0  0
   35.9440   29.2130   40.6860 P   0  0  1  0  0  0  0  0  0  0  0  0
   34.4020   29.2840   40.0330 O   0  0  0  0  0  0  0  0  0  0  0  0
   33.9410   30.1420   40.1940 H   0  0  0  0  0  0  0  0  0  0  0  0
   35.9310   28.0030   41.9170 O   0  0  0  0  0  0  0  0  0  0  0  0
   38.5380   25.4960   42.4800 C   0  0  0  0  0  0  0  0  0  0  0  0
   37.3180   26.0850   42.0740 C   0  0  0  0  0  0  0  0  0  0  0  0
   37.1320   27.4360   42.3200 C   0  0  0  0  0  0  0  0  0  0  0  0
   38.1240   28.1260   42.9360 N   0  0  0  0  0  0  0  0  0  0  0  0
   39.2750   27.5460   43.3130 C   0  0  0  0  0  0  0  0  0  0  0  0
   39.4920   26.2420   43.0930 N   0  0  0  0  0  0  0  0  0  0  0  0
   38.6680   24.4260   42.2760 H   0  0  0  0  0  0  0  0  0  0  0  0
   36.5830   25.4600   41.5890 H   0  0  0  0  0  0  0  0  0  0  0  0
   40.0720   28.0710   43.8020 H   0  0  0  0  0  0  0  0  0  0  0  0
   36.3940   30.6620   41.4260 O   0  0  0  0  0  0  0  0  0  0  0  0
   36.9480   32.4110   40.0790 C   0  0  0  0  0  3  0  0  0  0  0  0
   37.4200   31.4990   41.0300 C   0  0  0  0  0  0  0  0  0  0  0  0
   38.7420   31.5500   41.4180 C   0  0  0  0  0  0  0  0  0  0  0  0
   38.9780   30.7960   42.1540 H   0  0  0  0  0  0  0  0  0  0  0  0
   39.5780   32.4970   40.8640 C   0  0  0  0  0  0  0  0  0  0  0  0
   40.8750   32.6970   41.1130 N   0  0  0  0  0  0  0  0  0  0  0  0
   41.2650   33.7310   40.3360 C   0  0  0  0  0  0  0  0  0  0  0  0
   42.2500   34.1740   40.2730 H   0  0  0  0  0  0  0  0  0  0  0  0
   40.1960   34.1610   39.6120 N   0  0  0  0  0  0  0  0  0  0  0  0
   39.1270   33.4000   39.9280 C   0  0  0  0  0  0  0  0  0  0  0  0
   37.8000   33.3700   39.5200 C   0  0  0  0  0  3  0  0  0  0  0  0
   41.4870   32.1600   41.7820 H   0  0  0  0  0  0  0  0  0  0  0  0
  2  1  2  6  0  0  0
  2 15  1  0  0  0  0
  2  5  1  0  0  0  0
  3  4  1  0  0  0  0
  3  2  1  0  0  0  0
  5  8  1  0  0  0  0
  6 11  1  0  0  0  0
  7  8  1  0  0  0  0
  7  6  2  0  0  0  0
  8  9  2  0  0  0  0
  9 10  1  0  0  0  0
 10 14  1  0  0  0  0
 11 10  2  0  0  0  0
 12  6  1  0  0  0  0
 13  7  1  0  0  0  0
 16 17  1  0  0  0  0
 17 18  2  0  0  0  0
 17 15  1  0  0  0  0
 18 19  1  0  0  0  0
 20 21  1  0  0  0  0
 20 18  1  0  0  0  0
 21 27  1  0  0  0  0
 22 21  1  0  0  0  0
 23 22  1  0  0  0  0
 24 25  1  0  0  0  0
 24 22  2  0  0  0  0
 25 20  2  0  0  0  0
 26 25  1  0  0  0  0
 26 16  2  0  0  0  0
M  END
>  <minimizedAffinity>
-5.17774391

$$$$

 OpenBabel03242519363D

 27 29  0  0  0  0  0  0  0  0999 V2000
   36.1730   30.2460   38.7270 O   0  0  0  0  0  0  0  0  0  0  0  0
   36.7460   30.8990   39.9660 P   0  0  1  0  0  0  0  0  0  0  0  0
   35.5900   31.0590   41.1700 O   0  0  0  0  0  0  0  0  0  0  0  0
   35.4930   31.9820   41.5090 H   0  0  0  0  0  0  0  0  0  0  0  0
   38.0080   29.8990   40.5880 O   0  0  0  0  0  0  0  0  0  0  0  0
   37.2810   26.5610   41.9030 C   0  0  0  0  0  0  0  0  0  0  0  0
   37.6040   27.5970   40.9970 C   0  0  0  0  0  0  0  0  0  0  0  0
   37.6890   28.8910   41.4870 C   0  0  0  0  0  0  0  0  0  0  0  0
   37.4590   29.1000   42.8080 N   0  0  0  0  0  0  0  0  0  0  0  0
   37.1530   28.1000   43.6510 C   0  0  0  0  0  0  0  0  0  0  0  0
   37.0620   26.8370   43.2140 N   0  0  0  0  0  0  0  0  0  0  0  0
   37.2180   25.5440   41.4970 H   0  0  0  0  0  0  0  0  0  0  0  0
   37.7720   27.3400   39.9620 H   0  0  0  0  0  0  0  0  0  0  0  0
   36.9670   28.2430   44.6970 H   0  0  0  0  0  0  0  0  0  0  0  0
   37.4480   32.3760   39.5510 O   0  0  0  0  0  0  0  0  0  0  0  0
   39.4610   32.2530   38.4960 C   0  0  0  0  0  3  0  0  0  0  0  0
   38.7890   32.6990   39.6400 C   0  0  0  0  0  0  0  0  0  0  0  0
   39.4950   33.3510   40.6280 C   0  0  0  0  0  0  0  0  0  0  0  0
   38.8630   33.6430   41.4530 H   0  0  0  0  0  0  0  0  0  0  0  0
   40.8510   33.5530   40.4760 C   0  0  0  0  0  0  0  0  0  0  0  0
   41.6940   34.1580   41.3180 N   0  0  0  0  0  0  0  0  0  0  0  0
   42.9150   34.1150   40.7420 C   0  0  0  0  0  0  0  0  0  0  0  0
   43.8430   34.5100   41.1350 H   0  0  0  0  0  0  0  0  0  0  0  0
   42.8120   33.4810   39.5430 N   0  0  0  0  0  0  0  0  0  0  0  0
   41.5250   33.1200   39.3560 C   0  0  0  0  0  0  0  0  0  0  0  0
   40.8370   32.4600   38.3460 C   0  0  0  0  0  3  0  0  0  0  0  0
   41.4640   34.5880   42.2510 H   0  0  0  0  0  0  0  0  0  0  0  0
  2  1  2  6  0  0  0
  2  5  1  0  0  0  0
  2  3  1  0  0  0  0
  3  4  1  0  0  0  0
  5  8  1  0  0  0  0
  6 11  1  0  0  0  0
  7  8  1  0  0  0  0
  7  6  2  0  0  0  0
  8  9  2  0  0  0  0
  9 10  1  0  0  0  0
 10 14  1  0  0  0  0
 11 10  2  0  0  0  0
 12  6  1  0  0  0  0
 13  7  1  0  0  0  0
 15 17  1  0  0  0  0
 15  2  1  0  0  0  0
 16 17  1  0  0  0  0
 17 18  2  0  0  0  0
 18 19  1  0  0  0  0
 20 18  1  0  0  0  0
 20 21  1  0  0  0  0
 21 27  1  0  0  0  0
 22 23  1  0  0  0  0
 22 21  1  0  0  0  0
 24 22  2  0  0  0  0
 25 24  1  0  0  0  0
 25 20  2  0  0  0  0
 26 16  2  0  0  0  0
 26 25  1  0  0  0  0
M  END
>  <minimizedAffinity>
-5.16970205

$$$$

 OpenBabel03242519363D

 27 29  0  0  0  0  0  0  0  0999 V2000
   35.4810   29.6420   37.9530 O   0  0  0  0  0  0  0  0  0  0  0  0
   35.8110   29.6850   39.4300 P   0  0  1  0  0  0  0  0  0  0  0  0
   34.4790   29.3000   40.3720 O   0  0  0  0  0  0  0  0  0  0  0  0
   34.2650   29.9810   41.0540 H   0  0  0  0  0  0  0  0  0  0  0  0
   37.0350   28.5140   39.7600 O   0  0  0  0  0  0  0  0  0  0  0  0
   39.0470   28.2870   42.8090 C   0  0  0  0  0  0  0  0  0  0  0  0
   38.6800   28.5470   41.4690 C   0  0  0  0  0  0  0  0  0  0  0  0
   37.3830   28.2530   41.0780 C   0  0  0  0  0  0  0  0  0  0  0  0
   36.5310   27.7330   41.9960 N   0  0  0  0  0  0  0  0  0  0  0  0
   36.9020   27.4940   43.2650 C   0  0  0  0  0  0  0  0  0  0  0  0
   38.1460   27.7630   43.6800 N   0  0  0  0  0  0  0  0  0  0  0  0
   40.0770   28.5250   43.1010 H   0  0  0  0  0  0  0  0  0  0  0  0
   39.4240   28.9630   40.8050 H   0  0  0  0  0  0  0  0  0  0  0  0
   36.2450   27.0830   44.0060 H   0  0  0  0  0  0  0  0  0  0  0  0
   36.4580   31.1940   39.8190 O   0  0  0  0  0  0  0  0  0  0  0  0
   38.3260   32.2930   40.5120 C   0  0  0  0  0  3  0  0  0  0  0  0
   37.6890   31.6840   39.4260 C   0  0  0  0  0  0  0  0  0  0  0  0
   38.3210   31.6540   38.2010 C   0  0  0  0  0  0  0  0  0  0  0  0
   37.7260   31.1570   37.4500 H   0  0  0  0  0  0  0  0  0  0  0  0
   39.5700   32.2230   38.0650 C   0  0  0  0  0  0  0  0  0  0  0  0
   40.3300   32.2900   36.9680 N   0  0  0  0  0  0  0  0  0  0  0  0
   41.4630   32.9380   37.3200 C   0  0  0  0  0  0  0  0  0  0  0  0
   42.3090   33.1740   36.6890 H   0  0  0  0  0  0  0  0  0  0  0  0
   41.3890   33.2640   38.6380 N   0  0  0  0  0  0  0  0  0  0  0  0
   40.2090   32.8250   39.1260 C   0  0  0  0  0  0  0  0  0  0  0  0
   39.5940   32.8700   40.3700 C   0  0  0  0  0  3  0  0  0  0  0  0
   40.1020   31.9150   36.0110 H   0  0  0  0  0  0  0  0  0  0  0  0
  2  1  2  6  0  0  0
  2  5  1  0  0  0  0
  2 15  1  0  0  0  0
  2  3  1  0  0  0  0
  3  4  1  0  0  0  0
  5  8  1  0  0  0  0
  6 12  1  0  0  0  0
  6 11  1  0  0  0  0
  7  6  2  0  0  0  0
  8  7  1  0  0  0  0
  8  9  2  0  0  0  0
  9 10  1  0  0  0  0
 10 11  2  0  0  0  0
 10 14  1  0  0  0  0
 13  7  1  0  0  0  0
 17 15  1  0  0  0  0
 17 16  2  0  0  0  0
 18 17  1  0  0  0  0
 19 18  1  0  0  0  0
 20 18  2  0  0  0  0
 20 25  1  0  0  0  0
 21 22  1  0  0  0  0
 21 20  1  0  0  0  0
 22 24  2  0  0  0  0
 23 22  1  0  0  0  0
 24 25  1  0  0  0  0
 25 26  2  0  0  0  0
 26 16  1  0  0  0  0
 27 21  1  0  0  0  0
M  END
>  <minimizedAffinity>
-5.11776447

$$$$

 OpenBabel03242519363D

 27 29  0  0  0  0  0  0  0  0999 V2000
   34.6440   27.8630   38.0580 O   0  0  0  0  0  0  0  0  0  0  0  0
   35.3940   28.7760   39.0040 P   0  0  1  0  0  0  0  0  0  0  0  0
   34.4270   29.2660   40.2840 O   0  0  0  0  0  0  0  0  0  0  0  0
   34.3820   30.2460   40.3950 H   0  0  0  0  0  0  0  0  0  0  0  0
   36.7330   27.9120   39.6660 O   0  0  0  0  0  0  0  0  0  0  0  0
   38.4270   29.0020   42.7230 C   0  0  0  0  0  0  0  0  0  0  0  0
   38.1150   28.8480   41.3520 C   0  0  0  0  0  0  0  0  0  0  0  0
   37.0290   28.0560   41.0150 C   0  0  0  0  0  0  0  0  0  0  0  0
   36.3200   27.4690   42.0110 N   0  0  0  0  0  0  0  0  0  0  0  0
   36.6340   27.6290   43.3070 C   0  0  0  0  0  0  0  0  0  0  0  0
   37.6770   28.3870   43.6720 N   0  0  0  0  0  0  0  0  0  0  0  0
   39.2900   29.6320   42.9710 H   0  0  0  0  0  0  0  0  0  0  0  0
   38.7350   29.3520   40.6250 H   0  0  0  0  0  0  0  0  0  0  0  0
   36.0880   27.1750   44.1100 H   0  0  0  0  0  0  0  0  0  0  0  0
   36.0280   30.0820   38.1430 O   0  0  0  0  0  0  0  0  0  0  0  0
   38.1760   30.7830   37.8740 C   0  0  0  0  0  3  0  0  0  0  0  0
   36.9880   30.9680   38.5910 C   0  0  0  0  0  0  0  0  0  0  0  0
   36.9350   31.9340   39.5730 C   0  0  0  0  0  0  0  0  0  0  0  0
   35.9670   31.9760   40.0480 H   0  0  0  0  0  0  0  0  0  0  0  0
   38.0510   32.7020   39.8340 C   0  0  0  0  0  0  0  0  0  0  0  0
   38.1870   33.6760   40.7390 N   0  0  0  0  0  0  0  0  0  0  0  0
   39.4530   34.1350   40.6270 C   0  0  0  0  0  0  0  0  0  0  0  0
   39.9200   34.9260   41.1990 H   0  0  0  0  0  0  0  0  0  0  0  0
   40.0870   33.4360   39.6470 N   0  0  0  0  0  0  0  0  0  0  0  0
   39.2250   32.5310   39.1360 C   0  0  0  0  0  0  0  0  0  0  0  0
   39.3060   31.5650   38.1420 C   0  0  0  0  0  3  0  0  0  0  0  0
   37.4590   34.0270   41.4130 H   0  0  0  0  0  0  0  0  0  0  0  0
  2  1  2  6  0  0  0
  2  5  1  0  0  0  0
  2  3  1  0  0  0  0
  3  4  1  0  0  0  0
  5  8  1  0  0  0  0
  6 12  1  0  0  0  0
  6 11  1  0  0  0  0
  7  6  2  0  0  0  0
  8  7  1  0  0  0  0
  8  9  2  0  0  0  0
  9 10  1  0  0  0  0
 10 11  2  0  0  0  0
 10 14  1  0  0  0  0
 13  7  1  0  0  0  0
 15 17  1  0  0  0  0
 15  2  1  0  0  0  0
 16 26  2  0  0  0  0
 16 17  1  0  0  0  0
 17 18  2  0  0  0  0
 18 20  1  0  0  0  0
 18 19  1  0  0  0  0
 20 21  1  0  0  0  0
 21 27  1  0  0  0  0
 22 21  1  0  0  0  0
 22 23  1  0  0  0  0
 24 22  2  0  0  0  0
 25 24  1  0  0  0  0
 25 20  2  0  0  0  0
 26 25  1  0  0  0  0
M  END
>  <minimizedAffinity>
-5.09259796

$$$$

 OpenBabel03242519363D

 27 29  0  0  0  0  0  0  0  0999 V2000
   37.5030   27.4400   40.9840 O   0  0  0  0  0  0  0  0  0  0  0  0
   37.2240   28.4020   42.1180 P   0  0  1  0  0  0  0  0  0  0  0  0
   36.0860   27.7870   43.1840 O   0  0  0  0  0  0  0  0  0  0  0  0
   35.3180   28.3890   43.3360 H   0  0  0  0  0  0  0  0  0  0  0  0
   38.6830   28.6530   43.0050 O   0  0  0  0  0  0  0  0  0  0  0  0
   40.8470   25.7460   43.5200 C   0  0  0  0  0  0  0  0  0  0  0  0
   39.7800   26.6600   43.6790 C   0  0  0  0  0  0  0  0  0  0  0  0
   39.7360   27.7630   42.8410 C   0  0  0  0  0  0  0  0  0  0  0  0
   40.7140   27.9130   41.9130 N   0  0  0  0  0  0  0  0  0  0  0  0
   41.7190   27.0310   41.7810 C   0  0  0  0  0  0  0  0  0  0  0  0
   41.7960   25.9530   42.5720 N   0  0  0  0  0  0  0  0  0  0  0  0
   40.8660   24.8790   44.1920 H   0  0  0  0  0  0  0  0  0  0  0  0
   39.0440   26.4620   44.4440 H   0  0  0  0  0  0  0  0  0  0  0  0
   42.5020   27.1300   41.0550 H   0  0  0  0  0  0  0  0  0  0  0  0
   36.7690   29.9000   41.4870 O   0  0  0  0  0  0  0  0  0  0  0  0
   36.9720   31.7750   40.2130 C   0  0  0  0  0  3  0  0  0  0  0  0
   37.6180   30.9260   41.1190 C   0  0  0  0  0  0  0  0  0  0  0  0
   38.9150   31.2010   41.4960 C   0  0  0  0  0  0  0  0  0  0  0  0
   39.2960   30.4730   42.1970 H   0  0  0  0  0  0  0  0  0  0  0  0
   39.5560   32.3070   40.9770 C   0  0  0  0  0  0  0  0  0  0  0  0
   40.7990   32.7300   41.2230 N   0  0  0  0  0  0  0  0  0  0  0  0
   40.9800   33.8490   40.4890 C   0  0  0  0  0  0  0  0  0  0  0  0
   41.8680   34.4660   40.4370 H   0  0  0  0  0  0  0  0  0  0  0  0
   39.8390   34.1070   39.7940 N   0  0  0  0  0  0  0  0  0  0  0  0
   38.9320   33.1510   40.0860 C   0  0  0  0  0  0  0  0  0  0  0  0
   37.6260   32.8960   39.6890 C   0  0  0  0  0  3  0  0  0  0  0  0
   41.5090   32.2860   41.8630 H   0  0  0  0  0  0  0  0  0  0  0  0
  2  1  2  6  0  0  0
  2  5  1  0  0  0  0
  2  3  1  0  0  0  0
  3  4  1  0  0  0  0
  6  7  1  0  0  0  0
  6 12  1  0  0  0  0
  7 13  1  0  0  0  0
  8  5  1  0  0  0  0
  8  7  2  0  0  0  0
  9  8  1  0  0  0  0
 10  9  2  0  0  0  0
 10 11  1  0  0  0  0
 11  6  2  0  0  0  0
 14 10  1  0  0  0  0
 15  2  1  0  0  0  0
 16 17  1  0  0  0  0
 17 15  1  0  0  0  0
 17 18  2  0  0  0  0
 18 19  1  0  0  0  0
 20 21  1  0  0  0  0
 20 18  1  0  0  0  0
 21 27  1  0  0  0  0
 22 21  1  0  0  0  0
 23 22  1  0  0  0  0
 24 25  1  0  0  0  0
 24 22  2  0  0  0  0
 25 20  2  0  0  0  0
 26 25  1  0  0  0  0
 26 16  2  0  0  0  0
M  END
>  <minimizedAffinity>
-5.06177759

$$$$

 OpenBabel03242519363D

 27 29  0  0  0  0  0  0  0  0999 V2000
   37.7370   32.4280   40.8230 O   0  0  0  0  0  0  0  0  0  0  0  0
   37.0830   31.1180   40.4410 P   0  0  1  0  0  0  0  0  0  0  0  0
   35.6150   30.9100   41.2250 O   0  0  0  0  0  0  0  0  0  0  0  0
   35.5480   30.0600   41.7240 H   0  0  0  0  0  0  0  0  0  0  0  0
   36.7670   31.1290   38.7440 O   0  0  0  0  0  0  0  0  0  0  0  0
   35.9180   28.5070   36.3360 C   0  0  0  0  0  0  0  0  0  0  0  0
   36.5670   29.6130   36.9300 C   0  0  0  0  0  0  0  0  0  0  0  0
   36.1210   30.0420   38.1700 C   0  0  0  0  0  0  0  0  0  0  0  0
   35.0880   29.3840   38.7520 N   0  0  0  0  0  0  0  0  0  0  0  0
   34.4850   28.3350   38.1680 C   0  0  0  0  0  0  0  0  0  0  0  0
   34.8880   27.8910   36.9700 N   0  0  0  0  0  0  0  0  0  0  0  0
   36.2840   28.1810   35.3540 H   0  0  0  0  0  0  0  0  0  0  0  0
   37.3820   30.0780   36.3960 H   0  0  0  0  0  0  0  0  0  0  0  0
   33.6670   27.8000   38.6090 H   0  0  0  0  0  0  0  0  0  0  0  0
   38.1530   29.8470   40.7340 O   0  0  0  0  0  0  0  0  0  0  0  0
   37.7410   28.3910   42.4340 C   0  0  0  0  0  3  0  0  0  0  0  0
   37.8110   28.5450   41.0450 C   0  0  0  0  0  0  0  0  0  0  0  0
   37.5520   27.4630   40.2300 C   0  0  0  0  0  0  0  0  0  0  0  0
   37.6380   27.7130   39.1840 H   0  0  0  0  0  0  0  0  0  0  0  0
   37.2270   26.2470   40.7960 C   0  0  0  0  0  0  0  0  0  0  0  0
   36.9460   25.0980   40.1750 N   0  0  0  0  0  0  0  0  0  0  0  0
   36.6910   24.1870   41.1390 C   0  0  0  0  0  0  0  0  0  0  0  0
   36.4260   23.1460   41.0090 H   0  0  0  0  0  0  0  0  0  0  0  0
   36.8180   24.7890   42.3530 N   0  0  0  0  0  0  0  0  0  0  0  0
   37.1540   26.0820   42.1610 C   0  0  0  0  0  0  0  0  0  0  0  0
   37.4110   27.1560   43.0030 C   0  0  0  0  0  3  0  0  0  0  0  0
   36.9240   24.9230   39.1360 H   0  0  0  0  0  0  0  0  0  0  0  0
  2 15  1  0  0  0  0
  2  1  2  1  0  0  0
  2  3  1  0  0  0  0
  3  4  1  0  0  0  0
  5  2  1  0  0  0  0
  6  7  2  0  0  0  0
  6 11  1  0  0  0  0
  7  8  1  0  0  0  0
  8  5  1  0  0  0  0
  8  9  2  0  0  0  0
 10 14  1  0  0  0  0
 10  9  1  0  0  0  0
 11 10  2  0  0  0  0
 12  6  1  0  0  0  0
 13  7  1  0  0  0  0
 15 17  1  0  0  0  0
 16 26  1  0  0  0  0
 17 16  2  0  0  0  0
 18 20  2  0  0  0  0
 18 17  1  0  0  0  0
 19 18  1  0  0  0  0
 20 25  1  0  0  0  0
 21 20  1  0  0  0  0
 21 22  1  0  0  0  0
 22 24  2  0  0  0  0
 23 22  1  0  0  0  0
 25 24  1  0  0  0  0
 25 26  2  0  0  0  0
 27 21  1  0  0  0  0
M  END
>  <minimizedAffinity>
-5.00087357

$$$$

 OpenBabel03242519363D

 27 29  0  0  0  0  0  0  0  0999 V2000
   36.8030   31.2380   38.5480 O   0  0  0  0  0  0  0  0  0  0  0  0
   37.2100   31.6480   39.9470 P   0  0  1  0  0  0  0  0  0  0  0  0
   36.9380   33.2810   40.2150 O   0  0  0  0  0  0  0  0  0  0  0  0
   37.7350   33.7700   40.5300 H   0  0  0  0  0  0  0  0  0  0  0  0
   36.2540   30.7690   41.0840 O   0  0  0  0  0  0  0  0  0  0  0  0
   36.9360   27.1780   41.2750 C   0  0  0  0  0  0  0  0  0  0  0  0
   36.4650   28.4230   40.7990 C   0  0  0  0  0  0  0  0  0  0  0  0
   36.7210   29.5520   41.5610 C   0  0  0  0  0  0  0  0  0  0  0  0
   37.4080   29.4090   42.7230 N   0  0  0  0  0  0  0  0  0  0  0  0
   37.8460   28.2150   43.1550 C   0  0  0  0  0  0  0  0  0  0  0  0
   37.6170   27.1020   42.4460 N   0  0  0  0  0  0  0  0  0  0  0  0
   36.7250   26.2950   40.6580 H   0  0  0  0  0  0  0  0  0  0  0  0
   35.9270   28.4450   39.8630 H   0  0  0  0  0  0  0  0  0  0  0  0
   38.3890   28.0790   44.0690 H   0  0  0  0  0  0  0  0  0  0  0  0
   38.8180   31.2130   40.2160 O   0  0  0  0  0  0  0  0  0  0  0  0
   40.5540   32.3450   39.2750 C   0  0  0  0  0  3  0  0  0  0  0  0
   39.8200   31.1530   39.2670 C   0  0  0  0  0  0  0  0  0  0  0  0
   40.1640   30.1540   38.3820 C   0  0  0  0  0  0  0  0  0  0  0  0
   39.5230   29.2900   38.4770 H   0  0  0  0  0  0  0  0  0  0  0  0
   41.2250   30.3420   37.5200 C   0  0  0  0  0  0  0  0  0  0  0  0
   41.7010   29.4960   36.6020 N   0  0  0  0  0  0  0  0  0  0  0  0
   42.7420   30.1160   36.0050 C   0  0  0  0  0  0  0  0  0  0  0  0
   43.3710   29.7330   35.2130 H   0  0  0  0  0  0  0  0  0  0  0  0
   42.8970   31.3470   36.5650 N   0  0  0  0  0  0  0  0  0  0  0  0
   41.9560   31.5090   37.5180 C   0  0  0  0  0  0  0  0  0  0  0  0
   41.6300   32.5320   38.3990 C   0  0  0  0  0  3  0  0  0  0  0  0
   41.3440   28.5300   36.3790 H   0  0  0  0  0  0  0  0  0  0  0  0
  2  1  2  6  0  0  0
  2  3  1  0  0  0  0
  2 15  1  0  0  0  0
  2  5  1  0  0  0  0
  3  4  1  0  0  0  0
  5  8  1  0  0  0  0
  6 11  1  0  0  0  0
  7  6  2  0  0  0  0
  7  8  1  0  0  0  0
  8  9  2  0  0  0  0
  9 10  1  0  0  0  0
 10 14  1  0  0  0  0
 11 10  2  0  0  0  0
 12  6  1  0  0  0  0
 13  7  1  0  0  0  0
 17 16  1  0  0  0  0
 17 15  1  0  0  0  0
 18 19  1  0  0  0  0
 18 17  2  0  0  0  0
 20 18  1  0  0  0  0
 21 20  1  0  0  0  0
 22 24  2  0  0  0  0
 22 21  1  0  0  0  0
 23 22  1  0  0  0  0
 24 25  1  0  0  0  0
 25 20  2  0  0  0  0
 25 26  1  0  0  0  0
 26 16  2  0  0  0  0
 27 21  1  0  0  0  0
M  END
>  <minimizedAffinity>
-4.98737717

$$$$
