
 OpenBabel03242511473D

 47 50  0  0  0  0  0  0  0  0999 V2000
   44.7280   35.7380   44.6390 C   0  0  0  0  0  0  0  0  0  0  0  0
   44.0570   35.8800   43.3950 C   0  0  0  0  0  0  0  0  0  0  0  0
   44.0500   34.7850   42.5660 C   0  0  0  0  0  0  0  0  0  0  0  0
   44.6590   33.6460   42.9470 N   0  0  0  0  0  0  0  0  0  0  0  0
   45.2820   33.5630   44.1390 C   0  0  0  0  0  0  0  0  0  0  0  0
   45.3240   34.5760   44.9760 N   0  0  0  0  0  0  0  0  0  0  0  0
   44.7370   36.5930   45.2910 H   0  0  0  0  0  0  0  0  0  0  0  0
   43.5790   36.8010   43.1170 H   0  0  0  0  0  0  0  0  0  0  0  0
   45.9280   32.2830   44.4870 C   0  0  0  0  0  0  0  0  0  0  0  0
   45.0960   31.5520   44.6530 H   0  0  0  0  0  0  0  0  0  0  0  0
   46.5050   31.9020   43.6330 H   0  0  0  0  0  0  0  0  0  0  0  0
   46.7320   32.4620   45.7490 C   0  0  0  0  0  0  0  0  0  0  0  0
   46.8740   33.5500   45.9930 H   0  0  0  0  0  0  0  0  0  0  0  0
   47.7700   32.1120   45.4900 H   0  0  0  0  0  0  0  0  0  0  0  0
   46.1450   31.7800   46.8820 C   0  0  0  0  0  0  0  0  0  0  0  0
   45.3890   32.2970   47.8980 C   0  0  0  0  0  0  0  0  0  0  0  0
   44.8830   31.5570   48.9190 C   0  0  0  0  0  0  0  0  0  0  0  0
   45.1480   30.2020   48.9330 C   0  0  0  0  0  0  0  0  0  0  0  0
   45.9070   29.6680   47.9180 C   0  0  0  0  0  0  0  0  0  0  0  0
   46.4090   30.4400   46.8930 C   0  0  0  0  0  0  0  0  0  0  0  0
   45.2060   33.3690   47.8450 H   0  0  0  0  0  0  0  0  0  0  0  0
   44.2940   32.0440   49.6850 H   0  0  0  0  0  0  0  0  0  0  0  0
   44.7140   29.6650   49.7790 H   0  0  0  0  0  0  0  0  0  0  0  0
   46.0190   28.5880   48.0820 H   0  0  0  0  0  0  0  0  0  0  0  0
   48.5150   29.3360   46.4220 C   0  0  0  0  0  0  0  0  0  0  0  0
   49.3230   29.6910   47.3680 O   0  0  0  0  0  0  0  0  0  0  0  0
   47.1500   29.5730   46.0180 N   0  0  0  0  0  0  0  0  0  0  0  0
   49.2770   28.7200   45.9550 H   0  0  0  0  0  0  0  0  0  0  0  0
   46.9340   29.0680   45.1550 H   0  0  0  0  0  0  0  0  0  0  0  0
   43.3450   34.9450   41.2680 C   0  0  0  0  0  0  0  0  0  0  0  0
   44.0180   35.5350   40.5980 H   0  0  0  0  0  0  0  0  0  0  0  0
   43.1010   33.9540   40.8870 H   0  0  0  0  0  0  0  0  0  0  0  0
   42.0930   35.7890   41.4140 C   0  0  0  0  0  0  0  0  0  0  0  0
   42.1900   36.7550   40.9140 H   0  0  0  0  0  0  0  0  0  0  0  0
   41.8700   35.9380   42.4930 H   0  0  0  0  0  0  0  0  0  0  0  0
   40.2060   34.0800   41.5540 C   0  0  0  0  0  0  0  0  0  0  0  0
   40.9860   34.9720   40.8470 C   0  0  0  0  0  0  0  0  0  0  0  0
   40.7820   35.1820   39.4790 C   0  0  0  0  0  0  0  0  0  0  0  0
   41.3690   35.8700   38.8900 H   0  0  0  0  0  0  0  0  0  0  0  0
   39.8020   34.5050   38.8140 C   0  0  0  0  0  0  0  0  0  0  0  0
   39.3530   34.4680   37.5500 N   0  0  0  0  0  0  0  0  0  0  0  0
   38.3400   33.5870   37.4960 C   0  0  0  0  0  0  0  0  0  0  0  0
   37.8500   33.4320   36.5250 H   0  0  0  0  0  0  0  0  0  0  0  0
   38.1090   33.0330   38.7220 N   0  0  0  0  0  0  0  0  0  0  0  0
   39.0230   33.6110   39.5280 C   0  0  0  0  0  0  0  0  0  0  0  0
   39.1980   33.3770   40.8930 C   0  0  0  0  0  0  0  0  0  0  0  0
   39.7760   35.0540   36.8140 H   0  0  0  0  0  0  0  0  0  0  0  0
  1  6  1  0  0  0  0
  1  7  1  0  0  0  0
  2  1  2  0  0  0  0
  3  4  2  0  0  0  0
  3  2  1  0  0  0  0
  4  5  1  0  0  0  0
  5  9  1  0  0  0  0
  5  6  2  0  0  0  0
  8  2  1  0  0  0  0
  9 10  1  0  0  0  0
  9 12  1  0  0  0  0
 11  9  1  0  0  0  0
 12 13  1  0  0  0  0
 12 15  1  0  0  0  0
 14 12  1  0  0  0  0
 15 20  2  0  0  0  0
 15 16  1  0  0  0  0
 16 17  2  0  0  0  0
 17 18  1  0  0  0  0
 17 22  1  0  0  0  0
 18 23  1  0  0  0  0
 19 24  1  0  0  0  0
 19 18  2  0  0  0  0
 20 19  1  0  0  0  0
 21 16  1  0  0  0  0
 25 26  2  0  0  0  0
 27 25  1  0  0  0  0
 27 20  1  0  0  0  0
 28 25  1  0  0  0  0
 29 27  1  0  0  0  0
 30 33  1  0  0  0  0
 30  3  1  0  0  0  0
 31 30  1  0  0  0  0
 32 30  1  0  0  0  0
 33 35  1  0  0  0  0
 34 33  1  0  0  0  0
 37 33  1  0  0  0  0
 37 36  2  0  0  0  0
 38 37  1  0  0  0  0
 39 38  1  0  0  0  0
 40 38  2  0  0  0  0
 40 45  1  0  0  0  0
 41 40  1  0  0  0  0
 42 41  1  0  0  0  0
 42 44  2  0  0  0  0
 43 42  1  0  0  0  0
 44 45  1  0  0  0  0
 45 46  2  0  0  0  0
 46 36  1  0  0  0  0
 47 41  1  0  0  0  0
M  END
>  <minimizedAffinity>
-6.37743664

>  <minimizedRMSD>
2.3480382

$$$$
