
 OpenBabel03242519473D

 41 44  0  0  1  0  0  0  0  0999 V2000
   46.6680   32.8490   46.6530 C   0  0  2  0  0  0  0  0  0  0  0  0
   47.0340   32.7230   45.2280 C   0  0  1  0  0  0  0  0  0  0  0  0
   46.5030   31.4120   44.8400 O   0  0  0  0  0  0  0  0  0  0  0  0
   47.1660   30.6890   45.8610 C   0  0  0  0  0  0  0  0  0  0  0  0
   46.5690   31.4000   47.1040 C   0  0  2  0  0  0  0  0  0  0  0  0
   47.3860   33.4160   47.2710 H   0  0  0  0  0  0  0  0  0  0  0  0
   48.1040   32.6110   45.0280 H   0  0  0  0  0  0  0  0  0  0  0  0
   47.0460   29.6350   45.8440 H   0  0  0  0  0  0  0  0  0  0  0  0
   48.2480   30.9660   45.7800 H   0  0  0  0  0  0  0  0  0  0  0  0
   47.2400   31.1240   47.9470 H   0  0  0  0  0  0  0  0  0  0  0  0
   44.7120   35.2410   43.9680 C   0  0  0  0  0  0  0  0  0  0  0  0
   45.3360   35.7300   42.8210 C   0  0  0  0  0  0  0  0  0  0  0  0
   46.5850   35.1880   42.4540 C   0  0  0  0  0  0  0  0  0  0  0  0
   47.1370   34.2020   43.2380 N   0  0  0  0  0  0  0  0  0  0  0  0
   46.4990   33.7580   44.3410 C   0  0  0  0  0  0  0  0  0  0  0  0
   45.2940   34.2620   44.7160 N   0  0  0  0  0  0  0  0  0  0  0  0
   44.8730   36.4970   42.2390 H   0  0  0  0  0  0  0  0  0  0  0  0
   47.0980   35.5440   41.5690 H   0  0  0  0  0  0  0  0  0  0  0  0
   43.4700   35.7370   44.3840 O   0  0  0  0  0  0  0  0  0  0  0  0
   42.8880   36.1010   43.6320 H   0  0  0  0  0  0  0  0  0  0  0  0
   45.3590   33.4340   46.7580 O   0  0  0  0  0  0  0  0  0  0  0  0
   45.1730   33.4190   47.7290 H   0  0  0  0  0  0  0  0  0  0  0  0
   45.2740   30.9950   47.2170 O   0  0  0  0  0  0  0  0  0  0  0  0
   45.0020   29.9910   48.1110 C   0  0  0  0  0  0  0  0  0  0  0  0
   45.2100   30.3000   49.1300 H   0  0  0  0  0  0  0  0  0  0  0  0
   43.8060   30.0350   48.1620 H   0  0  0  0  0  0  0  0  0  0  0  0
   45.3550   28.6200   47.7070 C   0  0  0  0  0  0  0  0  0  0  0  0
   46.2910   28.5300   47.1200 H   0  0  0  0  0  0  0  0  0  0  0  0
   45.3830   27.9650   48.6140 H   0  0  0  0  0  0  0  0  0  0  0  0
   43.6000   28.6350   45.7720 C   0  0  0  0  0  3  0  0  0  0  0  0
   44.2970   28.0750   46.8150 C   0  0  0  0  0  0  0  0  0  0  0  0
   43.9130   26.7470   47.0650 C   0  0  0  0  0  0  0  0  0  0  0  0
   44.3910   26.1930   47.8670 H   0  0  0  0  0  0  0  0  0  0  0  0
   42.9510   26.0430   46.3730 C   0  0  0  0  0  0  0  0  0  0  0  0
   42.4710   24.7930   46.4800 N   0  0  0  0  0  0  0  0  0  0  0  0
   41.5310   24.6300   45.5370 C   0  0  0  0  0  0  0  0  0  0  0  0
   40.9380   23.7440   45.3360 H   0  0  0  0  0  0  0  0  0  0  0  0
   41.4270   25.7950   44.8350 N   0  0  0  0  0  0  0  0  0  0  0  0
   42.3020   26.6760   45.3450 C   0  0  0  0  0  0  0  0  0  0  0  0
   42.6330   27.9800   45.0470 C   0  0  0  0  0  3  0  0  0  0  0  0
   42.7750   24.0860   47.1670 H   0  0  0  0  0  0  0  0  0  0  0  0
  1 21  1  0  0  0  0
  1  5  1  0  0  0  0
  1  6  1  1  0  0  0
  2  7  1  6  0  0  0
  2  1  1  0  0  0  0
  3  2  1  0  0  0  0
  3  4  1  0  0  0  0
  4  5  1  0  0  0  0
  5 23  1  0  0  0  0
  5 10  1  1  0  0  0
  8  4  1  0  0  0  0
  9  4  1  0  0  0  0
 11 19  1  0  0  0  0
 11 16  1  0  0  0  0
 12 11  2  0  0  0  0
 13 12  1  0  0  0  0
 13 14  2  0  0  0  0
 14 15  1  0  0  0  0
 15 16  2  0  0  0  0
 15  2  1  0  0  0  0
 17 12  1  0  0  0  0
 18 13  1  0  0  0  0
 20 19  1  0  0  0  0
 21 22  1  0  0  0  0
 23 24  1  0  0  0  0
 24 26  1  0  0  0  0
 24 25  1  0  0  0  0
 27 24  1  0  0  0  0
 27 29  1  0  0  0  0
 28 27  1  0  0  0  0
 30 31  1  0  0  0  0
 31 32  2  0  0  0  0
 31 27  1  0  0  0  0
 32 33  1  0  0  0  0
 34 35  1  0  0  0  0
 34 32  1  0  0  0  0
 35 41  1  0  0  0  0
 36 35  1  0  0  0  0
 37 36  1  0  0  0  0
 38 39  1  0  0  0  0
 38 36  2  0  0  0  0
 39 34  2  0  0  0  0
 40 39  1  0  0  0  0
 40 30  2  0  0  0  0
M  END
>  <minimizedAffinity>
-5.88849735

>  <minimizedRMSD>
0.7760306

$$$$
