
 OpenBabel03252503273D

 28 30  0  0  0  0  0  0  0  0999 V2000
   45.4470   34.8150   42.6340 C   0  0  0  0  0  0  0  0  0  0  0  0
   46.5090   35.2970   41.8650 C   0  0  0  0  0  0  0  0  0  0  0  0
   47.8070   34.9280   42.2980 C   0  0  0  0  0  0  0  0  0  0  0  0
   47.9080   34.1490   43.4100 N   0  0  0  0  0  0  0  0  0  0  0  0
   46.8390   33.7210   44.1050 C   0  0  0  0  0  0  0  0  0  0  0  0
   45.6000   34.0510   43.7210 N   0  0  0  0  0  0  0  0  0  0  0  0
   43.6610   34.3820   41.1430 C   0  0  0  0  0  0  0  0  0  0  0  0
   44.4980   33.5640   40.6310 O   0  0  0  0  0  0  0  0  0  0  0  0
   44.1010   35.1430   42.2620 N   0  0  0  0  0  0  0  0  0  0  0  0
   46.2600   35.9030   41.0110 H   0  0  0  0  0  0  0  0  0  0  0  0
   47.0500   33.1060   44.9730 H   0  0  0  0  0  0  0  0  0  0  0  0
   43.5090   35.8320   42.7250 H   0  0  0  0  0  0  0  0  0  0  0  0
   41.3750   35.4490   41.0620 C   0  0  0  0  0  3  0  0  0  0  0  0
   42.3090   34.5340   40.6080 C   0  0  0  0  0  0  0  0  0  0  0  0
   41.9300   33.7150   39.5800 C   0  0  0  0  0  0  0  0  0  0  0  0
   42.6180   32.9920   39.1970 H   0  0  0  0  0  0  0  0  0  0  0  0
   40.6590   33.7880   39.0060 C   0  0  0  0  0  0  0  0  0  0  0  0
   40.0450   33.1100   38.0020 N   0  0  0  0  0  0  0  0  0  0  0  0
   38.7840   33.6010   37.8580 C   0  0  0  0  0  0  0  0  0  0  0  0
   38.0170   33.2870   37.1470 H   0  0  0  0  0  0  0  0  0  0  0  0
   38.5990   34.5800   38.7590 N   0  0  0  0  0  0  0  0  0  0  0  0
   39.7330   34.7080   39.4700 C   0  0  0  0  0  0  0  0  0  0  0  0
   40.1150   35.5360   40.5070 C   0  0  0  0  0  3  0  0  0  0  0  0
   40.4650   32.3370   37.4290 H   0  0  0  0  0  0  0  0  0  0  0  0
   48.8970   35.4430   41.4790 C   0  0  0  0  0  0  0  0  0  0  0  0
   50.0470   34.6850   41.7470 F   0  0  0  0  0  0  0  0  0  0  0  0
   49.1860   36.7190   41.9350 F   0  0  0  0  0  0  0  0  0  0  0  0
   48.6650   35.3590   40.1430 F   0  0  0  0  0  0  0  0  0  0  0  0
  1  6  1  0  0  0  0
  2  3  1  0  0  0  0
  2  1  2  0  0  0  0
  3  4  2  0  0  0  0
  4  5  1  0  0  0  0
  5 11  1  0  0  0  0
  6  5  2  0  0  0  0
  7  9  1  0  0  0  0
  8  7  2  0  0  0  0
  9  1  1  0  0  0  0
  9 12  1  0  0  0  0
 10  2  1  0  0  0  0
 14 13  1  0  0  0  0
 14  7  1  0  0  0  0
 15 14  2  0  0  0  0
 16 15  1  0  0  0  0
 17 22  2  0  0  0  0
 17 15  1  0  0  0  0
 18 17  1  0  0  0  0
 19 18  1  0  0  0  0
 19 21  2  0  0  0  0
 20 19  1  0  0  0  0
 21 22  1  0  0  0  0
 22 23  1  0  0  0  0
 23 13  2  0  0  0  0
 24 18  1  0  0  0  0
 25 26  1  0  0  0  0
 25 27  1  0  0  0  0
 25  3  1  0  0  0  0
 28 25  1  0  0  0  0
M  END
>  <minimizedAffinity>
-6.52267218

>  <minimizedRMSD>
1.66067839

$$$$
