
 OpenBabel03252509293D

 24 26  0  0  0  0  0  0  0  0999 V2000
   46.9000   34.9050   41.9370 C   0  0  0  0  0  0  0  0  0  0  0  0
   47.2370   35.9050   41.6280 H   0  0  0  0  0  0  0  0  0  0  0  0
   47.8280   34.3180   42.1090 H   0  0  0  0  0  0  0  0  0  0  0  0
   46.9360   33.7100   39.7900 C   0  0  0  0  0  3  0  0  0  0  0  0
   46.1820   34.2360   40.8190 C   0  0  0  0  0  0  0  0  0  0  0  0
   44.8060   34.1370   40.7940 C   0  0  0  0  0  0  0  0  0  0  0  0
   44.1980   34.5510   41.6040 H   0  0  0  0  0  0  0  0  0  0  0  0
   44.1600   33.5130   39.7450 C   0  0  0  0  0  0  0  0  0  0  0  0
   42.8520   33.2700   39.4550 N   0  0  0  0  0  0  0  0  0  0  0  0
   42.8500   32.6050   38.2640 C   0  0  0  0  0  0  0  0  0  0  0  0
   41.9450   32.2730   37.7700 H   0  0  0  0  0  0  0  0  0  0  0  0
   44.1190   32.4370   37.8230 N   0  0  0  0  0  0  0  0  0  0  0  0
   44.9260   32.9990   38.7400 C   0  0  0  0  0  0  0  0  0  0  0  0
   46.3130   33.0740   38.7190 C   0  0  0  0  0  3  0  0  0  0  0  0
   42.0300   33.5460   40.0410 H   0  0  0  0  0  0  0  0  0  0  0  0
   44.5810   36.0620   44.6050 C   0  0  0  0  0  0  0  0  0  0  0  0
   45.3140   36.0170   43.3980 C   0  0  0  0  0  0  0  0  0  0  0  0
   46.1500   34.9340   43.1910 C   0  0  0  0  0  0  0  0  0  0  0  0
   46.2310   33.9660   44.1500 N   0  0  0  0  0  0  0  0  0  0  0  0
   45.5130   34.0470   45.2910 C   0  0  0  0  0  0  0  0  0  0  0  0
   44.6980   35.0790   45.5200 N   0  0  0  0  0  0  0  0  0  0  0  0
   43.9140   36.8870   44.8150 H   0  0  0  0  0  0  0  0  0  0  0  0
   45.1770   36.8290   42.7120 H   0  0  0  0  0  0  0  0  0  0  0  0
   45.6180   33.2370   46.0280 H   0  0  0  0  0  0  0  0  0  0  0  0
  1  3  1  0  0  0  0
  1 18  1  0  0  0  0
  2  1  1  0  0  0  0
  4  5  1  0  0  0  0
  5  1  1  0  0  0  0
  6  5  2  0  0  0  0
  6  7  1  0  0  0  0
  8  6  1  0  0  0  0
  9  8  1  0  0  0  0
  9 15  1  0  0  0  0
 10  9  1  0  0  0  0
 11 10  1  0  0  0  0
 12 10  2  0  0  0  0
 12 13  1  0  0  0  0
 13  8  2  0  0  0  0
 14 13  1  0  0  0  0
 14  4  2  0  0  0  0
 16 22  1  0  0  0  0
 16 21  1  0  0  0  0
 17 16  2  0  0  0  0
 18 17  1  0  0  0  0
 18 19  2  0  0  0  0
 19 20  1  0  0  0  0
 20 21  2  0  0  0  0
 20 24  1  0  0  0  0
 23 17  1  0  0  0  0
M  END
>  <minimizedAffinity>
-4.53986597

>  <minimizedRMSD>
0.358853519

$$$$
