
 OpenBabel03252507323D

 52 56  0  0  1  0  0  0  0  0999 V2000
   46.9480   32.7850   45.4380 C   0  0  0  0  0  0  0  0  0  0  0  0
   45.8530   33.4610   45.9530 C   0  0  0  0  0  0  0  0  0  0  0  0
   45.1770   34.4090   45.1480 C   0  0  0  0  0  0  0  0  0  0  0  0
   45.6780   34.6000   43.8630 N   0  0  0  0  0  0  0  0  0  0  0  0
   46.7400   33.9160   43.4310 C   0  0  0  0  0  0  0  0  0  0  0  0
   47.3650   33.0240   44.2020 N   0  0  0  0  0  0  0  0  0  0  0  0
   45.3370   33.4990   46.8880 H   0  0  0  0  0  0  0  0  0  0  0  0
   44.3260   35.0110   45.3810 H   0  0  0  0  0  0  0  0  0  0  0  0
   47.5910   31.8080   46.2940 C   0  0  2  0  0  0  0  0  0  0  0  0
   47.3270   30.3530   45.7970 C   0  0  0  0  0  0  0  0  0  0  0  0
   48.1410   29.4020   46.6090 C   0  0  0  0  0  0  0  0  0  0  0  0
   48.1430   29.6330   48.0820 C   0  0  0  0  0  0  0  0  0  0  0  0
   48.1560   31.0230   48.4680 C   0  0  0  0  0  0  0  0  0  0  0  0
   47.1620   31.8990   47.6750 C   0  0  2  0  0  0  0  0  0  0  0  0
   48.6990   31.8890   46.1620 H   0  0  0  0  0  0  0  0  0  0  0  0
   46.2520   30.1420   45.7620 H   0  0  0  0  0  0  0  0  0  0  0  0
   47.6830   30.3700   44.7470 H   0  0  0  0  0  0  0  0  0  0  0  0
   49.1300   29.3430   46.1140 H   0  0  0  0  0  0  0  0  0  0  0  0
   47.6880   28.3780   46.4560 H   0  0  0  0  0  0  0  0  0  0  0  0
   47.7690   28.8410   48.7310 H   0  0  0  0  0  0  0  0  0  0  0  0
   49.2560   29.3710   48.3020 H   0  0  0  0  0  0  0  0  0  0  0  0
   49.1170   31.5910   48.4040 H   0  0  0  0  0  0  0  0  0  0  0  0
   47.8440   31.1210   49.5410 H   0  0  0  0  0  0  0  0  0  0  0  0
   47.2910   32.8630   48.1690 H   0  0  0  0  0  0  0  0  0  0  0  0
   45.8200   31.3310   47.8200 N   0  0  0  0  0  0  0  0  0  0  0  0
   45.1660   30.7550   48.9230 C   0  0  0  0  0  0  0  0  0  0  0  0
   44.6680   31.4490   49.8810 O   0  0  0  0  0  0  0  0  0  0  0  0
   45.0910   29.3300   48.8940 N   0  0  0  0  0  0  0  0  0  0  0  0
   45.1450   31.2300   46.9710 H   0  0  0  0  0  0  0  0  0  0  0  0
   44.7610   28.6890   48.1680 H   0  0  0  0  0  0  0  0  0  0  0  0
   45.4130   28.7900   49.7270 H   0  0  0  0  0  0  0  0  0  0  0  0
   47.2310   34.1780   42.0730 C   0  0  0  0  0  0  0  0  0  0  0  0
   48.1820   35.1460   41.8360 C   0  0  0  0  0  0  0  0  0  0  0  0
   48.6900   35.4480   40.5910 C   0  0  0  0  0  0  0  0  0  0  0  0
   48.1740   34.6990   39.5580 C   0  0  0  0  0  0  0  0  0  0  0  0
   47.2260   33.7290   39.7770 C   0  0  0  0  0  0  0  0  0  0  0  0
   46.7540   33.4690   41.0360 N   0  0  0  0  0  0  0  0  0  0  0  0
   48.5390   35.6930   42.7030 H   0  0  0  0  0  0  0  0  0  0  0  0
   49.4260   36.2030   40.4420 H   0  0  0  0  0  0  0  0  0  0  0  0
   48.5400   34.8970   38.5620 H   0  0  0  0  0  0  0  0  0  0  0  0
   46.3980   31.5830   38.9260 C   0  0  0  0  0  0  0  0  0  0  0  0
   46.6600   32.9200   38.7050 C   0  0  0  0  0  0  0  0  0  0  0  0
   46.3550   33.3880   37.4560 C   0  0  0  0  0  0  0  0  0  0  0  0
   46.5340   34.4130   37.2200 H   0  0  0  0  0  0  0  0  0  0  0  0
   45.8200   32.6180   36.4440 C   0  0  0  0  0  0  0  0  0  0  0  0
   45.4600   32.9050   35.1660 N   0  0  0  0  0  0  0  0  0  0  0  0
   44.9910   31.7860   34.6100 C   0  0  0  0  0  0  0  0  0  0  0  0
   44.6400   31.7760   33.5800 H   0  0  0  0  0  0  0  0  0  0  0  0
   45.0490   30.7840   35.5320 N   0  0  0  0  0  0  0  0  0  0  0  0
   45.5620   31.2750   36.6830 C   0  0  0  0  0  0  0  0  0  0  0  0
   45.8550   30.7690   37.9300 C   0  0  0  0  0  0  0  0  0  0  0  0
   45.5480   33.8470   34.7250 H   0  0  0  0  0  0  0  0  0  0  0  0
  1  2  1  0  0  0  0
  1  9  1  0  0  0  0
  2  7  1  0  0  0  0
  3  8  1  0  0  0  0
  3  2  2  0  0  0  0
  4  3  1  0  0  0  0
  5  4  2  0  0  0  0
  5  6  1  0  0  0  0
  6  1  2  0  0  0  0
  9 15  1  6  0  0  0
  9 14  1  0  0  0  0
 10  9  1  0  0  0  0
 10 11  1  0  0  0  0
 11 12  1  0  0  0  0
 12 21  1  0  0  0  0
 12 13  1  0  0  0  0
 12 20  1  0  0  0  0
 13 23  1  0  0  0  0
 14 25  1  0  0  0  0
 14 24  1  1  0  0  0
 14 13  1  0  0  0  0
 16 10  1  0  0  0  0
 17 10  1  0  0  0  0
 18 11  1  0  0  0  0
 19 11  1  0  0  0  0
 22 13  1  0  0  0  0
 25 26  1  0  0  0  0
 26 27  2  0  0  0  0
 28 26  1  0  0  0  0
 28 31  1  0  0  0  0
 29 25  1  0  0  0  0
 30 28  1  0  0  0  0
 32  5  1  0  0  0  0
 33 32  1  0  0  0  0
 33 38  1  0  0  0  0
 34 33  2  0  0  0  0
 35 36  2  0  0  0  0
 35 34  1  0  0  0  0
 36 37  1  0  0  0  0
 37 32  2  0  0  0  0
 39 34  1  0  0  0  0
 40 35  1  0  0  0  0
 42 41  1  0  0  0  0
 42 36  1  0  0  0  0
 43 42  2  0  0  0  0
 44 43  1  0  0  0  0
 45 50  2  0  0  0  0
 45 43  1  0  0  0  0
 46 45  1  0  0  0  0
 47 46  1  0  0  0  0
 47 49  2  0  0  0  0
 48 47  1  0  0  0  0
 49 50  1  0  0  0  0
 50 51  1  0  0  0  0
 51 41  2  0  0  0  0
 52 46  1  0  0  0  0
M  END
>  <minimizedAffinity>
-7.19082689

>  <minimizedRMSD>
0.185936183

$$$$
