
 OpenBabel03252509043D

 51 54  0  0  1  0  0  0  0  0999 V2000
   46.5660   34.5580   43.6030 N   0  0  0  0  0  0  0  0  0  0  0  0
   46.0660   35.5360   42.7160 C   0  0  0  0  0  0  0  0  0  0  0  0
   44.5530   35.6610   42.7120 C   0  0  0  0  0  0  0  0  0  0  0  0
   43.9230   35.4570   44.0630 C   0  0  0  0  0  0  0  0  0  0  0  0
   44.9570   35.2070   45.1350 C   0  0  0  0  0  0  0  0  0  0  0  0
   45.7860   33.9840   44.5760 C   0  0  2  0  0  0  0  0  0  0  0  0
   46.3660   35.4470   41.6680 H   0  0  0  0  0  0  0  0  0  0  0  0
   46.4520   36.5430   43.0430 H   0  0  0  0  0  0  0  0  0  0  0  0
   44.0900   34.9430   41.9880 H   0  0  0  0  0  0  0  0  0  0  0  0
   44.2680   36.6690   42.3390 H   0  0  0  0  0  0  0  0  0  0  0  0
   43.3340   36.3630   44.3900 H   0  0  0  0  0  0  0  0  0  0  0  0
   43.1990   34.6180   44.0840 H   0  0  0  0  0  0  0  0  0  0  0  0
   45.6250   36.0630   45.2990 H   0  0  0  0  0  0  0  0  0  0  0  0
   44.4640   34.8160   46.0380 H   0  0  0  0  0  0  0  0  0  0  0  0
   45.0370   33.2330   44.2680 H   0  0  0  0  0  0  0  0  0  0  0  0
   47.6940   33.8170   43.0910 C   0  0  0  0  0  0  0  0  0  0  0  0
   48.2810   34.5340   42.4780 H   0  0  0  0  0  0  0  0  0  0  0  0
   48.4020   33.4740   43.8820 H   0  0  0  0  0  0  0  0  0  0  0  0
   47.1640   32.7220   42.2230 C   0  0  0  0  0  0  0  0  0  0  0  0
   47.3980   31.7410   42.6360 H   0  0  0  0  0  0  0  0  0  0  0  0
   46.0490   32.7770   42.1130 H   0  0  0  0  0  0  0  0  0  0  0  0
   49.0640   31.9730   39.0700 C   0  0  0  0  0  0  0  0  0  0  0  0
   48.5210   31.8530   40.3630 C   0  0  0  0  0  0  0  0  0  0  0  0
   47.7310   32.8620   40.8570 C   0  0  0  0  0  0  0  0  0  0  0  0
   47.5170   33.9210   40.0710 N   0  0  0  0  0  0  0  0  0  0  0  0
   48.0350   34.0320   38.8420 C   0  0  0  0  0  0  0  0  0  0  0  0
   48.8090   33.0750   38.3220 N   0  0  0  0  0  0  0  0  0  0  0  0
   49.6890   31.1860   38.6680 H   0  0  0  0  0  0  0  0  0  0  0  0
   48.7530   30.9560   40.9240 H   0  0  0  0  0  0  0  0  0  0  0  0
   47.7610   34.9550   38.3430 H   0  0  0  0  0  0  0  0  0  0  0  0
   46.5010   33.6140   45.6990 O   0  0  0  0  0  0  0  0  0  0  0  0
   45.6060   31.2010   45.0080 O   0  0  0  0  0  0  0  0  0  0  0  0
   46.2090   32.0140   46.1500 P   0  0  2  0  0  0  0  0  0  0  0  0
   44.9670   32.0910   47.3320 O   0  0  0  0  0  0  0  0  0  0  0  0
   44.3480   31.3450   47.2480 H   0  0  0  0  0  0  0  0  0  0  0  0
   47.5140   31.2690   46.8460 O   0  0  0  0  0  0  0  0  0  0  0  0
   47.9170   30.2140   46.0430 C   0  0  0  0  0  0  0  0  0  0  0  0
   47.0140   29.7850   45.5820 H   0  0  0  0  0  0  0  0  0  0  0  0
   48.6600   30.4850   45.2890 H   0  0  0  0  0  0  0  0  0  0  0  0
   49.7930   29.3740   47.5170 C   0  0  0  0  0  3  0  0  0  0  0  0
   48.5410   29.1970   46.9620 C   0  0  0  0  0  0  0  0  0  0  0  0
   47.7910   28.0520   47.2330 C   0  0  0  0  0  0  0  0  0  0  0  0
   46.7970   27.9170   46.7900 H   0  0  0  0  0  0  0  0  0  0  0  0
   48.3060   27.0870   48.0650 C   0  0  0  0  0  0  0  0  0  0  0  0
   47.7470   25.9200   48.4490 N   0  0  0  0  0  0  0  0  0  0  0  0
   48.6320   25.3110   49.2670 C   0  0  0  0  0  0  0  0  0  0  0  0
   48.5000   24.3580   49.7520 H   0  0  0  0  0  0  0  0  0  0  0  0
   49.7280   26.1160   49.3760 N   0  0  0  0  0  0  0  0  0  0  0  0
   49.5550   27.2250   48.6400 C   0  0  0  0  0  0  0  0  0  0  0  0
   50.2860   28.3710   48.3580 C   0  0  0  0  0  3  0  0  0  0  0  0
   46.8180   25.4840   48.2140 H   0  0  0  0  0  0  0  0  0  0  0  0
  1  6  1  0  0  0  0
  2  8  1  0  0  0  0
  2  1  1  0  0  0  0
  3  2  1  0  0  0  0
  3  4  1  0  0  0  0
  4 12  1  0  0  0  0
  4 11  1  0  0  0  0
  4  5  1  0  0  0  0
  5 13  1  0  0  0  0
  5 14  1  0  0  0  0
  6 15  1  6  0  0  0
  6  5  1  0  0  0  0
  6 31  1  0  0  0  0
  7  2  1  0  0  0  0
  9  3  1  0  0  0  0
 10  3  1  0  0  0  0
 16  1  1  0  0  0  0
 16 18  1  0  0  0  0
 17 16  1  0  0  0  0
 19 20  1  0  0  0  0
 19 16  1  0  0  0  0
 21 19  1  0  0  0  0
 22 23  1  0  0  0  0
 23 24  2  0  0  0  0
 23 29  1  0  0  0  0
 24 19  1  0  0  0  0
 25 24  1  0  0  0  0
 26 25  2  0  0  0  0
 27 26  1  0  0  0  0
 27 22  2  0  0  0  0
 28 22  1  0  0  0  0
 30 26  1  0  0  0  0
 31 33  1  0  0  0  0
 33 32  2  6  0  0  0
 33 36  1  0  0  0  0
 33 34  1  0  0  0  0
 35 34  1  0  0  0  0
 37 36  1  0  0  0  0
 37 41  1  0  0  0  0
 38 37  1  0  0  0  0
 39 37  1  0  0  0  0
 40 50  1  0  0  0  0
 41 42  1  0  0  0  0
 41 40  2  0  0  0  0
 42 44  2  0  0  0  0
 43 42  1  0  0  0  0
 44 45  1  0  0  0  0
 44 49  1  0  0  0  0
 45 46  1  0  0  0  0
 46 48  2  0  0  0  0
 46 47  1  0  0  0  0
 49 48  1  0  0  0  0
 50 49  2  0  0  0  0
 51 45  1  0  0  0  0
M  END
>  <minimizedAffinity>
-4.74178171

>  <minimizedRMSD>
1.44171345

$$$$
