
 OpenBabel03252501483D

 36 39  0  0  0  0  0  0  0  0999 V2000
   44.2790   33.4630   40.2320 C   0  0  0  0  0  0  0  0  0  0  0  0
   44.6390   34.5720   41.0460 C   0  0  0  0  0  0  0  0  0  0  0  0
   43.6760   35.5400   41.3330 C   0  0  0  0  0  0  0  0  0  0  0  0
   42.4290   35.3710   40.8130 N   0  0  0  0  0  0  0  0  0  0  0  0
   42.1250   34.3110   40.0470 C   0  0  0  0  0  0  0  0  0  0  0  0
   43.0390   33.3670   39.7590 N   0  0  0  0  0  0  0  0  0  0  0  0
   45.0670   32.7490   40.0450 H   0  0  0  0  0  0  0  0  0  0  0  0
   43.9200   36.3820   41.9430 H   0  0  0  0  0  0  0  0  0  0  0  0
   39.9940   33.6520   41.6870 F   0  0  0  0  0  0  0  0  0  0  0  0
   39.7170   33.8570   40.3780 C   0  0  0  0  0  0  0  0  0  0  0  0
   40.7710   34.1910   39.5210 C   0  0  0  0  0  0  0  0  0  0  0  0
   40.5680   34.4150   38.1730 C   0  0  0  0  0  0  0  0  0  0  0  0
   39.2580   34.2930   37.6930 C   0  0  0  0  0  0  0  0  0  0  0  0
   38.1860   33.9610   38.5300 C   0  0  0  0  0  0  0  0  0  0  0  0
   38.4330   33.7430   39.8780 C   0  0  0  0  0  0  0  0  0  0  0  0
   41.3810   34.6720   37.5150 H   0  0  0  0  0  0  0  0  0  0  0  0
   39.0930   34.4680   36.6390 H   0  0  0  0  0  0  0  0  0  0  0  0
   37.2040   33.8840   38.0980 H   0  0  0  0  0  0  0  0  0  0  0  0
   37.6070   33.4840   40.5380 H   0  0  0  0  0  0  0  0  0  0  0  0
   46.0070   34.6720   41.5630 C   0  0  0  0  0  0  0  0  0  0  0  0
   46.4190   34.1860   42.7210 C   0  0  0  0  0  0  0  0  0  0  0  0
   47.8470   34.3420   43.1620 C   0  0  0  0  0  0  0  0  0  0  0  0
   47.7930   34.3790   44.2700 H   0  0  0  0  0  0  0  0  0  0  0  0
   48.3020   35.2560   42.7640 H   0  0  0  0  0  0  0  0  0  0  0  0
   48.1930   31.8940   42.7840 C   0  0  0  0  0  0  0  0  0  0  0  0
   48.6510   33.1920   42.6820 C   0  0  0  0  0  0  0  0  0  0  0  0
   49.8900   33.4970   42.1240 C   0  0  0  0  0  0  0  0  0  0  0  0
   50.2230   34.5290   42.0570 H   0  0  0  0  0  0  0  0  0  0  0  0
   50.7100   32.4750   41.6470 C   0  0  0  0  0  0  0  0  0  0  0  0
   51.9260   32.4440   41.0710 N   0  0  0  0  0  0  0  0  0  0  0  0
   52.2420   31.1600   40.8100 C   0  0  0  0  0  0  0  0  0  0  0  0
   53.2000   31.0080   40.3440 H   0  0  0  0  0  0  0  0  0  0  0  0
   51.2090   30.3740   41.2280 N   0  0  0  0  0  0  0  0  0  0  0  0
   50.2570   31.1540   41.7450 C   0  0  0  0  0  0  0  0  0  0  0  0
   49.0100   30.8850   42.3100 C   0  0  0  0  0  0  0  0  0  0  0  0
   52.4390   33.3590   40.9090 H   0  0  0  0  0  0  0  0  0  0  0  0
  1  2  1  0  0  0  0
  2  3  2  0  0  0  0
  2 20  1  0  0  0  0
  3  8  1  0  0  0  0
  4  3  1  0  0  0  0
  5  4  2  0  0  0  0
  6  5  1  0  0  0  0
  6  1  2  0  0  0  0
  7  1  1  0  0  0  0
 10  9  1  0  0  0  0
 11  5  1  0  0  0  0
 11 10  2  0  0  0  0
 12 11  1  0  0  0  0
 13 12  2  0  0  0  0
 13 14  1  0  0  0  0
 14 15  2  0  0  0  0
 15 10  1  0  0  0  0
 15 19  1  0  0  0  0
 16 12  1  0  0  0  0
 17 13  1  0  0  0  0
 18 14  1  0  0  0  0
 20 21  2  0  0  0  0
 21 22  1  0  0  0  0
 22 23  1  0  0  0  0
 24 22  1  0  0  0  0
 26 25  1  0  0  0  0
 26 22  1  0  0  0  0
 27 26  2  0  0  0  0
 28 27  1  0  0  0  0
 29 34  2  0  0  0  0
 29 27  1  0  0  0  0
 30 29  1  0  0  0  0
 31 30  1  0  0  0  0
 31 33  2  0  0  0  0
 32 31  1  0  0  0  0
 33 34  1  0  0  0  0
 34 35  1  0  0  0  0
 35 25  2  0  0  0  0
 36 30  1  0  0  0  0
M  END
>  <minimizedAffinity>
-6.60200739

>  <minimizedRMSD>
3.96422386

$$$$
