
 OpenBabel03252506373D

 47 51  0  0  1  0  0  0  0  0999 V2000
   46.6890   29.9870   46.4950 S   0  0  0  0  0  0  0  0  0  0  0  0
   44.5290   35.4790   45.1600 C   0  0  0  0  0  0  0  0  0  0  0  0
   45.1840   35.4940   43.9120 C   0  0  0  0  0  0  0  0  0  0  0  0
   46.1090   34.5450   43.6390 C   0  0  0  0  0  0  0  0  0  0  0  0
   46.3510   33.6220   44.6020 N   0  0  0  0  0  0  0  0  0  0  0  0
   45.7330   33.6100   45.7740 C   0  0  0  0  0  0  0  0  0  0  0  0
   44.8170   34.5330   46.0720 N   0  0  0  0  0  0  0  0  0  0  0  0
   46.0720   32.5840   46.7230 N   0  0  0  0  0  0  0  0  0  0  0  0
   45.3370   32.3130   47.9030 C   0  0  0  0  0  0  0  0  0  0  0  0
   46.4120   31.9550   48.9110 C   0  0  0  0  0  0  0  0  0  0  0  0
   47.6950   31.8700   48.1380 C   0  0  0  0  0  0  0  0  0  0  0  0
   47.1940   31.6800   46.7070 C   0  0  1  0  0  0  0  0  0  0  0  0
   43.7940   36.2470   45.3560 H   0  0  0  0  0  0  0  0  0  0  0  0
   46.6150   34.5380   42.7030 H   0  0  0  0  0  0  0  0  0  0  0  0
   44.5400   31.6520   47.9940 H   0  0  0  0  0  0  0  0  0  0  0  0
   44.9570   33.3160   48.2790 H   0  0  0  0  0  0  0  0  0  0  0  0
   46.5210   32.6570   49.7350 H   0  0  0  0  0  0  0  0  0  0  0  0
   46.1740   30.9610   49.3830 H   0  0  0  0  0  0  0  0  0  0  0  0
   48.2750   30.9640   48.4340 H   0  0  0  0  0  0  0  0  0  0  0  0
   48.2800   32.7880   48.2650 H   0  0  0  0  0  0  0  0  0  0  0  0
   48.0280   31.9920   46.0550 H   0  0  0  0  0  0  0  0  0  0  0  0
   44.8160   36.5400   42.9960 N   0  0  0  0  0  0  0  0  0  0  0  0
   45.6030   36.8450   42.3910 H   0  0  0  0  0  0  0  0  0  0  0  0
   43.8750   36.9620   42.9260 H   0  0  0  0  0  0  0  0  0  0  0  0
   45.4290   30.5830   43.4660 O   0  0  0  0  0  0  0  0  0  0  0  0
   44.8790   29.9960   44.4110 C   0  0  0  0  0  0  0  0  0  0  0  0
   45.0910   29.7110   45.8510 C   0  0  1  0  0  0  0  0  0  0  0  0
   44.5800   28.2960   45.9690 C   0  0  0  0  0  0  0  0  0  0  0  0
   43.2100   28.5160   45.3180 C   0  0  0  0  0  0  0  0  0  0  0  0
   43.6200   29.3330   44.1830 N   0  0  0  0  0  0  0  0  0  0  0  0
   44.2290   30.2860   46.2900 H   0  0  0  0  0  0  0  0  0  0  0  0
   45.1190   27.5940   45.3050 H   0  0  0  0  0  0  0  0  0  0  0  0
   44.4590   27.9590   47.0040 H   0  0  0  0  0  0  0  0  0  0  0  0
   42.8480   27.5350   44.9780 H   0  0  0  0  0  0  0  0  0  0  0  0
   42.5160   29.0460   45.9890 H   0  0  0  0  0  0  0  0  0  0  0  0
   42.9700   28.3190   42.1510 C   0  0  0  0  0  3  0  0  0  0  0  0
   42.7350   29.3550   43.0410 C   0  0  0  0  0  0  0  0  0  0  0  0
   41.7520   30.2750   42.8080 C   0  0  0  0  0  0  0  0  0  0  0  0
   41.6340   31.0500   43.5510 H   0  0  0  0  0  0  0  0  0  0  0  0
   40.9730   30.1760   41.6650 C   0  0  0  0  0  0  0  0  0  0  0  0
   39.9620   30.9430   41.2190 N   0  0  0  0  0  0  0  0  0  0  0  0
   39.5540   30.3900   40.0400 C   0  0  0  0  0  0  0  0  0  0  0  0
   38.7460   30.7500   39.3900 H   0  0  0  0  0  0  0  0  0  0  0  0
   40.2810   29.3060   39.7430 N   0  0  0  0  0  0  0  0  0  0  0  0
   41.1700   29.1500   40.7370 C   0  0  0  0  0  0  0  0  0  0  0  0
   42.1860   28.2320   41.0150 C   0  0  0  0  0  3  0  0  0  0  0  0
   39.5630   31.7940   41.6790 H   0  0  0  0  0  0  0  0  0  0  0  0
  1 12  1  0  0  0  0
  2 13  1  0  0  0  0
  2  7  1  0  0  0  0
  3  2  2  0  0  0  0
  4  3  1  0  0  0  0
  4  5  2  0  0  0  0
  5  6  1  0  0  0  0
  6  7  2  0  0  0  0
  6  8  1  0  0  0  0
  8  9  1  0  0  0  0
  9 15  1  0  0  0  0
  9 16  1  0  0  0  0
  9 10  1  0  0  0  0
 10 18  1  0  0  0  0
 10 17  1  0  0  0  0
 11 20  1  0  0  0  0
 11 19  1  0  0  0  0
 11 10  1  0  0  0  0
 12 21  1  6  0  0  0
 12  8  1  0  0  0  0
 12 11  1  0  0  0  0
 14  4  1  0  0  0  0
 22  3  1  0  0  0  0
 23 22  1  0  0  0  0
 24 22  1  0  0  0  0
 25 26  2  0  0  0  0
 26 27  1  0  0  0  0
 27 28  1  0  0  0  0
 27 31  1  1  0  0  0
 27  1  1  0  0  0  0
 28 33  1  0  0  0  0
 29 28  1  0  0  0  0
 29 35  1  0  0  0  0
 30 26  1  0  0  0  0
 30 29  1  0  0  0  0
 32 28  1  0  0  0  0
 34 29  1  0  0  0  0
 36 37  1  0  0  0  0
 37 30  1  0  0  0  0
 38 37  2  0  0  0  0
 38 39  1  0  0  0  0
 40 38  1  0  0  0  0
 41 40  1  0  0  0  0
 41 47  1  0  0  0  0
 42 41  1  0  0  0  0
 43 42  1  0  0  0  0
 44 42  2  0  0  0  0
 44 45  1  0  0  0  0
 45 46  1  0  0  0  0
 45 40  2  0  0  0  0
 46 36  2  0  0  0  0
M  END
>  <minimizedAffinity>
-5.66761017

>  <minimizedRMSD>
0.419639766

$$$$
