
 OpenBabel03252507413D

 28 30  0  0  0  0  0  0  0  0999 V2000
   47.7310   34.7730   41.2450 C   0  0  0  0  0  0  0  0  0  0  0  0
   46.9690   35.0790   40.4750 H   0  0  0  0  0  0  0  0  0  0  0  0
   48.4740   35.5910   41.3410 H   0  0  0  0  0  0  0  0  0  0  0  0
   45.8680   35.3600   42.7400 C   0  0  0  0  0  0  0  0  0  0  0  0
   47.0240   34.6020   42.5190 C   0  0  0  0  0  0  0  0  0  0  0  0
   47.4110   33.7370   43.5420 C   0  0  0  0  0  0  0  0  0  0  0  0
   48.2950   33.1680   43.3570 H   0  0  0  0  0  0  0  0  0  0  0  0
   46.7040   33.6200   44.7210 C   0  0  0  0  0  0  0  0  0  0  0  0
   46.9010   32.8600   45.8150 N   0  0  0  0  0  0  0  0  0  0  0  0
   45.9050   33.1220   46.7060 C   0  0  0  0  0  0  0  0  0  0  0  0
   45.7300   32.7010   47.7020 H   0  0  0  0  0  0  0  0  0  0  0  0
   45.0820   34.0550   46.1580 N   0  0  0  0  0  0  0  0  0  0  0  0
   45.5550   34.3810   44.9250 C   0  0  0  0  0  0  0  0  0  0  0  0
   45.1590   35.2440   43.9150 C   0  0  0  0  0  0  0  0  0  0  0  0
   47.6740   32.1780   45.9830 H   0  0  0  0  0  0  0  0  0  0  0  0
   48.4660   33.5550   40.7830 C   0  0  0  0  0  0  0  0  0  0  0  0
   47.9890   32.6050   41.1100 H   0  0  0  0  0  0  0  0  0  0  0  0
   49.4690   33.5560   41.2430 H   0  0  0  0  0  0  0  0  0  0  0  0
   48.5620   33.4560   39.3120 C   0  0  0  0  0  0  0  0  0  0  0  0
   49.1190   32.2890   38.8030 C   0  0  0  0  0  0  0  0  0  0  0  0
   49.2380   32.1350   37.4360 C   0  0  0  0  0  0  0  0  0  0  0  0
   48.7940   33.1530   36.6140 N   0  0  0  0  0  0  0  0  0  0  0  0
   48.2570   34.2740   37.1540 C   0  0  0  0  0  0  0  0  0  0  0  0
   48.1400   34.4290   38.4670 N   0  0  0  0  0  0  0  0  0  0  0  0
   49.6580   31.2590   36.9990 H   0  0  0  0  0  0  0  0  0  0  0  0
   47.9470   34.9980   36.4270 H   0  0  0  0  0  0  0  0  0  0  0  0
   49.6810   30.9940   39.9140 S   0  0  0  0  0  0  0  0  0  0  0  0
   48.5840   30.0840   39.9880 H   0  0  0  0  0  0  0  0  0  0  0  0
  1  3  1  0  0  0  0
  1  5  1  0  0  0  0
  2  1  1  0  0  0  0
  4 14  1  0  0  0  0
  5  4  2  0  0  0  0
  5  6  1  0  0  0  0
  6  8  2  0  0  0  0
  7  6  1  0  0  0  0
  8 13  1  0  0  0  0
  8  9  1  0  0  0  0
  9 15  1  0  0  0  0
  9 10  1  0  0  0  0
 10 11  1  0  0  0  0
 12 10  2  0  0  0  0
 13 12  1  0  0  0  0
 14 13  2  0  0  0  0
 16 17  1  0  0  0  0
 16 18  1  0  0  0  0
 16  1  1  0  0  0  0
 19 16  1  0  0  0  0
 20 19  1  0  0  0  0
 20 27  1  0  0  0  0
 21 20  2  0  0  0  0
 22 23  2  0  0  0  0
 22 21  1  0  0  0  0
 23 24  1  0  0  0  0
 24 19  2  0  0  0  0
 25 21  1  0  0  0  0
 26 23  1  0  0  0  0
 27 28  1  0  0  0  0
M  END
>  <minimizedAffinity>
-4.95015478

>  <minimizedRMSD>
7.52551413

$$$$
