
 OpenBabel03252504483D

 30 32  0  0  0  0  0  0  0  0999 V2000
   35.2110   29.3730   39.4530 O   0  0  0  0  0  0  0  0  0  0  0  0
   36.2840   30.3130   40.0000 P   0  0  1  0  0  0  0  0  0  0  0  0
   35.6630   31.0110   41.4080 O   0  0  0  0  0  0  0  0  0  0  0  0
   35.6730   31.9840   41.3830 H   0  0  0  0  0  0  0  0  0  0  0  0
   37.6630   29.3840   40.2520 O   0  0  0  0  0  0  0  0  0  0  0  0
   39.3540   27.7200   42.9700 C   0  0  0  0  0  0  0  0  0  0  0  0
   38.2670   27.1780   43.6800 C   0  0  0  0  0  0  0  0  0  0  0  0
   36.9860   27.4200   43.1730 C   0  0  0  0  0  0  0  0  0  0  0  0
   36.8740   28.1490   42.0500 N   0  0  0  0  0  0  0  0  0  0  0  0
   37.9570   28.6570   41.3930 C   0  0  0  0  0  0  0  0  0  0  0  0
   39.2070   28.4320   41.8700 N   0  0  0  0  0  0  0  0  0  0  0  0
   38.4310   26.6060   44.5680 H   0  0  0  0  0  0  0  0  0  0  0  0
   36.1070   27.0230   43.6840 H   0  0  0  0  0  0  0  0  0  0  0  0
   40.7110   27.4420   43.5400 C   0  0  0  0  0  0  0  0  0  0  0  0
   41.4970   27.7100   42.8330 H   0  0  0  0  0  0  0  0  0  0  0  0
   40.8130   28.1150   44.4170 H   0  0  0  0  0  0  0  0  0  0  0  0
   40.7860   26.3680   43.8710 H   0  0  0  0  0  0  0  0  0  0  0  0
   36.6110   31.5700   38.9030 O   0  0  0  0  0  0  0  0  0  0  0  0
   38.4060   32.9440   39.8500 C   0  0  0  0  0  3  0  0  0  0  0  0
   37.9150   32.0880   38.8680 C   0  0  0  0  0  0  0  0  0  0  0  0
   38.7160   31.7140   37.8070 C   0  0  0  0  0  0  0  0  0  0  0  0
   38.3730   31.0580   37.0330 H   0  0  0  0  0  0  0  0  0  0  0  0
   39.9850   32.2020   37.7480 C   0  0  0  0  0  0  0  0  0  0  0  0
   41.0390   32.0890   36.9200 N   0  0  0  0  0  0  0  0  0  0  0  0
   42.0940   32.7980   37.3280 C   0  0  0  0  0  0  0  0  0  0  0  0
   43.0350   32.8410   36.8050 H   0  0  0  0  0  0  0  0  0  0  0  0
   41.7320   33.4020   38.4630 N   0  0  0  0  0  0  0  0  0  0  0  0
   40.4710   33.0600   38.7350 C   0  0  0  0  0  0  0  0  0  0  0  0
   39.6810   33.4410   39.8020 C   0  0  0  0  0  3  0  0  0  0  0  0
   41.0250   31.4990   36.0410 H   0  0  0  0  0  0  0  0  0  0  0  0
  2  1  2  6  0  0  0
  2  5  1  0  0  0  0
  2  3  1  0  0  0  0
  4  3  1  0  0  0  0
  5 10  1  0  0  0  0
  6 14  1  0  0  0  0
  6  7  1  0  0  0  0
  7 12  1  0  0  0  0
  8  7  2  0  0  0  0
  8 13  1  0  0  0  0
  9  8  1  0  0  0  0
 10 11  1  0  0  0  0
 10  9  2  0  0  0  0
 11  6  2  0  0  0  0
 14 17  1  0  0  0  0
 14 16  1  0  0  0  0
 15 14  1  0  0  0  0
 18  2  1  0  0  0  0
 20 18  1  0  0  0  0
 20 19  2  0  0  0  0
 21 20  1  0  0  0  0
 22 21  1  0  0  0  0
 23 21  2  0  0  0  0
 23 28  1  0  0  0  0
 24 25  1  0  0  0  0
 24 23  1  0  0  0  0
 25 27  2  0  0  0  0
 26 25  1  0  0  0  0
 27 28  1  0  0  0  0
 28 29  2  0  0  0  0
 29 19  1  0  0  0  0
 30 24  1  0  0  0  0
M  END
>  <minimizedAffinity>
-5.72964907

$$$$

 OpenBabel03252504483D

 30 32  0  0  0  0  0  0  0  0999 V2000
   37.4410   29.5570   39.9400 O   0  0  0  0  0  0  0  0  0  0  0  0
   37.0860   30.4790   41.1060 P   0  0  1  0  0  0  0  0  0  0  0  0
   35.4100   30.6900   41.0820 O   0  0  0  0  0  0  0  0  0  0  0  0
   35.1470   31.6260   41.0440 H   0  0  0  0  0  0  0  0  0  0  0  0
   37.6590   29.7380   42.5040 O   0  0  0  0  0  0  0  0  0  0  0  0
   37.7910   26.1330   42.4710 C   0  0  0  0  0  0  0  0  0  0  0  0
   39.0970   25.9010   42.9380 C   0  0  0  0  0  0  0  0  0  0  0  0
   39.8770   27.0210   43.2440 C   0  0  0  0  0  0  0  0  0  0  0  0
   39.3340   28.2380   43.0750 N   0  0  0  0  0  0  0  0  0  0  0  0
   38.0600   28.4190   42.6190 C   0  0  0  0  0  0  0  0  0  0  0  0
   37.2900   27.3430   42.3170 N   0  0  0  0  0  0  0  0  0  0  0  0
   39.4630   24.9030   43.0480 H   0  0  0  0  0  0  0  0  0  0  0  0
   40.8970   26.8980   43.6100 H   0  0  0  0  0  0  0  0  0  0  0  0
   36.9830   24.9130   42.1520 C   0  0  0  0  0  0  0  0  0  0  0  0
   35.9320   25.1640   42.0010 H   0  0  0  0  0  0  0  0  0  0  0  0
   37.3740   24.5370   41.1840 H   0  0  0  0  0  0  0  0  0  0  0  0
   37.1220   24.1290   42.9510 H   0  0  0  0  0  0  0  0  0  0  0  0
   37.8000   32.0100   40.9140 O   0  0  0  0  0  0  0  0  0  0  0  0
   40.2300   31.7110   41.0380 C   0  0  0  0  0  3  0  0  0  0  0  0
   39.0800   32.0700   40.3400 C   0  0  0  0  0  0  0  0  0  0  0  0
   39.1680   32.5050   39.0320 C   0  0  0  0  0  0  0  0  0  0  0  0
   38.3060   32.7890   38.4640 H   0  0  0  0  0  0  0  0  0  0  0  0
   40.3970   32.5730   38.4510 C   0  0  0  0  0  0  0  0  0  0  0  0
   40.8940   32.9280   37.2530 N   0  0  0  0  0  0  0  0  0  0  0  0
   42.2220   32.8100   37.1900 C   0  0  0  0  0  0  0  0  0  0  0  0
   42.8120   33.0440   36.3190 H   0  0  0  0  0  0  0  0  0  0  0  0
   42.6220   32.3620   38.3830 N   0  0  0  0  0  0  0  0  0  0  0  0
   41.5450   32.2120   39.1570 C   0  0  0  0  0  0  0  0  0  0  0  0
   41.4720   31.7750   40.4650 C   0  0  0  0  0  3  0  0  0  0  0  0
   40.2900   33.2650   36.4510 H   0  0  0  0  0  0  0  0  0  0  0  0
  2  1  2  6  0  0  0
  2  5  1  0  0  0  0
  3  2  1  0  0  0  0
  4  3  1  0  0  0  0
  5 10  1  0  0  0  0
  6  7  1  0  0  0  0
  7 12  1  0  0  0  0
  7  8  2  0  0  0  0
  8 13  1  0  0  0  0
  9  8  1  0  0  0  0
 10  9  2  0  0  0  0
 11  6  2  0  0  0  0
 11 10  1  0  0  0  0
 14  6  1  0  0  0  0
 14 17  1  0  0  0  0
 15 14  1  0  0  0  0
 16 14  1  0  0  0  0
 18  2  1  0  0  0  0
 20 18  1  0  0  0  0
 20 19  2  0  0  0  0
 21 20  1  0  0  0  0
 22 21  1  0  0  0  0
 23 21  2  0  0  0  0
 23 28  1  0  0  0  0
 24 23  1  0  0  0  0
 25 24  1  0  0  0  0
 25 27  2  0  0  0  0
 26 25  1  0  0  0  0
 27 28  1  0  0  0  0
 28 29  2  0  0  0  0
 29 19  1  0  0  0  0
 30 24  1  0  0  0  0
M  END
>  <minimizedAffinity>
-5.60091543

$$$$

 OpenBabel03252504483D

 30 32  0  0  0  0  0  0  0  0999 V2000
   33.9580   27.9270   37.7880 O   0  0  0  0  0  0  0  0  0  0  0  0
   35.0210   28.7030   38.5640 P   0  0  1  0  0  0  0  0  0  0  0  0
   34.2850   29.2880   39.9680 O   0  0  0  0  0  0  0  0  0  0  0  0
   34.3680   30.2530   40.0650 H   0  0  0  0  0  0  0  0  0  0  0  0
   36.2880   27.6350   38.8540 O   0  0  0  0  0  0  0  0  0  0  0  0
   37.0090   27.1050   42.3490 C   0  0  0  0  0  0  0  0  0  0  0  0
   37.2940   25.7280   42.3660 C   0  0  0  0  0  0  0  0  0  0  0  0
   37.2200   25.0430   41.1490 C   0  0  0  0  0  0  0  0  0  0  0  0
   36.8850   25.7370   40.0490 N   0  0  0  0  0  0  0  0  0  0  0  0
   36.6160   27.0760   40.0770 C   0  0  0  0  0  0  0  0  0  0  0  0
   36.6830   27.7550   41.2490 N   0  0  0  0  0  0  0  0  0  0  0  0
   37.5540   25.2400   43.2810 H   0  0  0  0  0  0  0  0  0  0  0  0
   37.4320   23.9740   41.1050 H   0  0  0  0  0  0  0  0  0  0  0  0
   37.0960   27.8080   43.6690 C   0  0  0  0  0  0  0  0  0  0  0  0
   37.0700   28.8910   43.5410 H   0  0  0  0  0  0  0  0  0  0  0  0
   36.1810   27.5200   44.2260 H   0  0  0  0  0  0  0  0  0  0  0  0
   38.0110   27.4700   44.2350 H   0  0  0  0  0  0  0  0  0  0  0  0
   35.5700   30.0430   37.6740 O   0  0  0  0  0  0  0  0  0  0  0  0
   37.0110   30.9320   39.4460 C   0  0  0  0  0  3  0  0  0  0  0  0
   36.7450   30.6790   38.1040 C   0  0  0  0  0  0  0  0  0  0  0  0
   37.6530   31.0550   37.1330 C   0  0  0  0  0  0  0  0  0  0  0  0
   37.4830   30.8770   36.0900 H   0  0  0  0  0  0  0  0  0  0  0  0
   38.8010   31.6740   37.5210 C   0  0  0  0  0  0  0  0  0  0  0  0
   39.8930   32.1770   36.9190 N   0  0  0  0  0  0  0  0  0  0  0  0
   40.7660   32.6980   37.7840 C   0  0  0  0  0  0  0  0  0  0  0  0
   41.7020   33.1500   37.5040 H   0  0  0  0  0  0  0  0  0  0  0  0
   40.2390   32.5370   39.0010 N   0  0  0  0  0  0  0  0  0  0  0  0
   39.0600   31.9250   38.8690 C   0  0  0  0  0  0  0  0  0  0  0  0
   38.1620   31.5540   39.8500 C   0  0  0  0  0  3  0  0  0  0  0  0
   40.0380   32.1580   35.8700 H   0  0  0  0  0  0  0  0  0  0  0  0
  2  1  2  6  0  0  0
  2  5  1  0  0  0  0
  2  3  1  0  0  0  0
  3  4  1  0  0  0  0
  5 10  1  0  0  0  0
  6  7  1  0  0  0  0
  6 14  1  0  0  0  0
  7 12  1  0  0  0  0
  8  7  2  0  0  0  0
  9 10  2  0  0  0  0
  9  8  1  0  0  0  0
 10 11  1  0  0  0  0
 11  6  2  0  0  0  0
 13  8  1  0  0  0  0
 14 16  1  0  0  0  0
 14 17  1  0  0  0  0
 15 14  1  0  0  0  0
 18 20  1  0  0  0  0
 18  2  1  0  0  0  0
 19 29  1  0  0  0  0
 20 19  2  0  0  0  0
 21 23  2  0  0  0  0
 21 20  1  0  0  0  0
 22 21  1  0  0  0  0
 23 28  1  0  0  0  0
 24 23  1  0  0  0  0
 24 25  1  0  0  0  0
 25 27  2  0  0  0  0
 26 25  1  0  0  0  0
 28 27  1  0  0  0  0
 28 29  2  0  0  0  0
 30 24  1  0  0  0  0
M  END
>  <minimizedAffinity>
-5.47696447

$$$$

 OpenBabel03252504483D

 30 32  0  0  0  0  0  0  0  0999 V2000
   35.5600   30.1940   39.9900 O   0  0  0  0  0  0  0  0  0  0  0  0
   36.8320   30.7470   40.6280 P   0  0  1  0  0  0  0  0  0  0  0  0
   36.6730   32.4290   40.6790 O   0  0  0  0  0  0  0  0  0  0  0  0
   37.4090   32.8910   40.2410 H   0  0  0  0  0  0  0  0  0  0  0  0
   36.9680   30.0310   42.1450 O   0  0  0  0  0  0  0  0  0  0  0  0
   37.5610   26.4850   42.4510 C   0  0  0  0  0  0  0  0  0  0  0  0
   38.8380   26.4700   43.0400 C   0  0  0  0  0  0  0  0  0  0  0  0
   39.4370   27.7060   43.3050 C   0  0  0  0  0  0  0  0  0  0  0  0
   38.7610   28.8210   42.9830 N   0  0  0  0  0  0  0  0  0  0  0  0
   37.5220   28.7910   42.4110 C   0  0  0  0  0  0  0  0  0  0  0  0
   36.9270   27.6010   42.1470 N   0  0  0  0  0  0  0  0  0  0  0  0
   39.3170   25.5420   43.2700 H   0  0  0  0  0  0  0  0  0  0  0  0
   40.4270   27.7520   43.7620 H   0  0  0  0  0  0  0  0  0  0  0  0
   36.9490   25.1450   42.1800 C   0  0  0  0  0  0  0  0  0  0  0  0
   35.8930   25.2400   41.9230 H   0  0  0  0  0  0  0  0  0  0  0  0
   37.4720   24.7500   41.2850 H   0  0  0  0  0  0  0  0  0  0  0  0
   37.1130   24.4540   43.0550 H   0  0  0  0  0  0  0  0  0  0  0  0
   38.1980   30.3880   39.6810 O   0  0  0  0  0  0  0  0  0  0  0  0
   39.6290   32.0120   38.5320 C   0  0  0  0  0  3  0  0  0  0  0  0
   39.2540   31.3120   39.6750 C   0  0  0  0  0  0  0  0  0  0  0  0
   39.9270   31.5130   40.8650 C   0  0  0  0  0  0  0  0  0  0  0  0
   39.6670   30.9930   41.7640 H   0  0  0  0  0  0  0  0  0  0  0  0
   40.9550   32.4030   40.8880 C   0  0  0  0  0  0  0  0  0  0  0  0
   41.8270   32.8670   41.8000 N   0  0  0  0  0  0  0  0  0  0  0  0
   42.6720   33.7690   41.2950 C   0  0  0  0  0  0  0  0  0  0  0  0
   43.4460   34.2600   41.8610 H   0  0  0  0  0  0  0  0  0  0  0  0
   42.3530   33.9100   40.0050 N   0  0  0  0  0  0  0  0  0  0  0  0
   41.3260   33.1010   39.7370 C   0  0  0  0  0  0  0  0  0  0  0  0
   40.6620   32.9110   38.5420 C   0  0  0  0  0  3  0  0  0  0  0  0
   41.8370   32.5470   42.8100 H   0  0  0  0  0  0  0  0  0  0  0  0
  2  1  2  6  0  0  0
  2  3  1  0  0  0  0
  2  5  1  0  0  0  0
  4  3  1  0  0  0  0
  5 10  1  0  0  0  0
  6  7  1  0  0  0  0
  7 12  1  0  0  0  0
  7  8  2  0  0  0  0
  8 13  1  0  0  0  0
  9  8  1  0  0  0  0
 10  9  2  0  0  0  0
 11 10  1  0  0  0  0
 11  6  2  0  0  0  0
 14  6  1  0  0  0  0
 14 17  1  0  0  0  0
 15 14  1  0  0  0  0
 16 14  1  0  0  0  0
 18  2  1  0  0  0  0
 19 29  2  0  0  0  0
 19 20  1  0  0  0  0
 20 18  1  0  0  0  0
 20 21  2  0  0  0  0
 21 23  1  0  0  0  0
 21 22  1  0  0  0  0
 23 24  1  0  0  0  0
 24 30  1  0  0  0  0
 25 24  1  0  0  0  0
 25 26  1  0  0  0  0
 27 25  2  0  0  0  0
 28 27  1  0  0  0  0
 28 23  2  0  0  0  0
 29 28  1  0  0  0  0
M  END
>  <minimizedAffinity>
-5.46346378

$$$$

 OpenBabel03252504483D

 30 32  0  0  0  0  0  0  0  0999 V2000
   34.6380   29.0050   40.0750 O   0  0  0  0  0  0  0  0  0  0  0  0
   35.9640   29.7320   40.2870 P   0  0  1  0  0  0  0  0  0  0  0  0
   35.8690   30.5170   41.7800 O   0  0  0  0  0  0  0  0  0  0  0  0
   36.0420   31.4730   41.7170 H   0  0  0  0  0  0  0  0  0  0  0  0
   37.1760   28.5680   40.2060 O   0  0  0  0  0  0  0  0  0  0  0  0
   36.6240   25.0030   40.2470 C   0  0  0  0  0  0  0  0  0  0  0  0
   36.8940   24.6980   41.5930 C   0  0  0  0  0  0  0  0  0  0  0  0
   37.2580   25.7580   42.4300 C   0  0  0  0  0  0  0  0  0  0  0  0
   37.3270   26.9910   41.9010 N   0  0  0  0  0  0  0  0  0  0  0  0
   37.0580   27.2430   40.5860 C   0  0  0  0  0  0  0  0  0  0  0  0
   36.7030   26.2260   39.7610 N   0  0  0  0  0  0  0  0  0  0  0  0
   36.8180   23.6920   41.9470 H   0  0  0  0  0  0  0  0  0  0  0  0
   37.4780   25.5780   43.4830 H   0  0  0  0  0  0  0  0  0  0  0  0
   36.2380   23.8460   39.3790 C   0  0  0  0  0  0  0  0  0  0  0  0
   35.8470   24.1870   38.4190 H   0  0  0  0  0  0  0  0  0  0  0  0
   37.1790   23.2940   39.1740 H   0  0  0  0  0  0  0  0  0  0  0  0
   35.5110   23.1740   39.9190 H   0  0  0  0  0  0  0  0  0  0  0  0
   36.2060   30.9200   39.0950 O   0  0  0  0  0  0  0  0  0  0  0  0
   37.9400   32.3480   40.0750 C   0  0  0  0  0  3  0  0  0  0  0  0
   37.4590   31.5510   39.0410 C   0  0  0  0  0  0  0  0  0  0  0  0
   38.2200   31.3500   37.9060 C   0  0  0  0  0  0  0  0  0  0  0  0
   37.8830   30.7430   37.0900 H   0  0  0  0  0  0  0  0  0  0  0  0
   39.4390   31.9490   37.8270 C   0  0  0  0  0  0  0  0  0  0  0  0
   40.4440   32.0080   36.9360 N   0  0  0  0  0  0  0  0  0  0  0  0
   41.4620   32.7630   37.3540 C   0  0  0  0  0  0  0  0  0  0  0  0
   42.3620   32.9380   36.7880 H   0  0  0  0  0  0  0  0  0  0  0  0
   41.1240   33.2230   38.5620 N   0  0  0  0  0  0  0  0  0  0  0  0
   39.9140   32.7490   38.8670 C   0  0  0  0  0  0  0  0  0  0  0  0
   39.1650   32.9570   40.0080 C   0  0  0  0  0  3  0  0  0  0  0  0
   40.4230   31.5050   36.0030 H   0  0  0  0  0  0  0  0  0  0  0  0
  2  1  2  6  0  0  0
  2  3  1  0  0  0  0
  4  3  1  0  0  0  0
  5  2  1  0  0  0  0
  5 10  1  0  0  0  0
  6  7  1  0  0  0  0
  7 12  1  0  0  0  0
  7  8  2  0  0  0  0
  8 13  1  0  0  0  0
  9  8  1  0  0  0  0
 10  9  2  0  0  0  0
 11  6  2  0  0  0  0
 11 10  1  0  0  0  0
 14 17  1  0  0  0  0
 14  6  1  0  0  0  0
 15 14  1  0  0  0  0
 16 14  1  0  0  0  0
 18  2  1  0  0  0  0
 20 18  1  0  0  0  0
 20 19  2  0  0  0  0
 21 20  1  0  0  0  0
 22 21  1  0  0  0  0
 23 21  2  0  0  0  0
 23 28  1  0  0  0  0
 24 25  1  0  0  0  0
 24 23  1  0  0  0  0
 25 27  2  0  0  0  0
 26 25  1  0  0  0  0
 27 28  1  0  0  0  0
 28 29  2  0  0  0  0
 29 19  1  0  0  0  0
 30 24  1  0  0  0  0
M  END
>  <minimizedAffinity>
-5.45103788

$$$$

 OpenBabel03252504483D

 30 32  0  0  0  0  0  0  0  0999 V2000
   38.0250   31.7230   40.9820 O   0  0  0  0  0  0  0  0  0  0  0  0
   37.1330   30.4960   41.1670 P   0  0  1  0  0  0  0  0  0  0  0  0
   35.5490   31.0550   41.3460 O   0  0  0  0  0  0  0  0  0  0  0  0
   35.1270   30.7410   42.1650 H   0  0  0  0  0  0  0  0  0  0  0  0
   37.3620   29.5190   39.8160 O   0  0  0  0  0  0  0  0  0  0  0  0
   35.7980   29.2670   36.5750 C   0  0  0  0  0  0  0  0  0  0  0  0
   34.4840   28.9170   36.9300 C   0  0  0  0  0  0  0  0  0  0  0  0
   34.2010   28.7840   38.2940 C   0  0  0  0  0  0  0  0  0  0  0  0
   35.1950   28.9970   39.1720 N   0  0  0  0  0  0  0  0  0  0  0  0
   36.4600   29.3360   38.7830 C   0  0  0  0  0  0  0  0  0  0  0  0
   36.7500   29.4690   37.4650 N   0  0  0  0  0  0  0  0  0  0  0  0
   33.7410   28.7620   36.1760 H   0  0  0  0  0  0  0  0  0  0  0  0
   33.1980   28.5140   38.6250 H   0  0  0  0  0  0  0  0  0  0  0  0
   36.0660   29.4010   35.1070 C   0  0  0  0  0  0  0  0  0  0  0  0
   37.0340   29.8720   34.9250 H   0  0  0  0  0  0  0  0  0  0  0  0
   36.1260   28.3640   34.7160 H   0  0  0  0  0  0  0  0  0  0  0  0
   35.2230   29.9530   34.6020 H   0  0  0  0  0  0  0  0  0  0  0  0
   37.5440   29.6510   42.5840 O   0  0  0  0  0  0  0  0  0  0  0  0
   39.3520   27.9970   42.5110 C   0  0  0  0  0  3  0  0  0  0  0  0
   38.0020   28.3310   42.4510 C   0  0  0  0  0  0  0  0  0  0  0  0
   37.0520   27.3470   42.2550 C   0  0  0  0  0  0  0  0  0  0  0  0
   36.0040   27.5650   42.2030 H   0  0  0  0  0  0  0  0  0  0  0  0
   37.4670   26.0590   42.1230 C   0  0  0  0  0  0  0  0  0  0  0  0
   36.8910   24.8590   41.9270 N   0  0  0  0  0  0  0  0  0  0  0  0
   37.7780   23.8640   41.8680 C   0  0  0  0  0  0  0  0  0  0  0  0
   37.5190   22.8290   41.7170 H   0  0  0  0  0  0  0  0  0  0  0  0
   38.9830   24.4160   42.0290 N   0  0  0  0  0  0  0  0  0  0  0  0
   38.8230   25.7330   42.1840 C   0  0  0  0  0  0  0  0  0  0  0  0
   39.7830   26.7040   42.3800 C   0  0  0  0  0  3  0  0  0  0  0  0
   35.8440   24.7280   41.8320 H   0  0  0  0  0  0  0  0  0  0  0  0
  2  1  2  6  0  0  0
  2  3  1  0  0  0  0
  2 18  1  0  0  0  0
  3  4  1  0  0  0  0
  5  2  1  0  0  0  0
  6  7  2  0  0  0  0
  6 11  1  0  0  0  0
  7  8  1  0  0  0  0
  8 13  1  0  0  0  0
  8  9  2  0  0  0  0
 10  9  1  0  0  0  0
 10  5  1  0  0  0  0
 11 10  2  0  0  0  0
 12  7  1  0  0  0  0
 14  6  1  0  0  0  0
 15 14  1  0  0  0  0
 16 14  1  0  0  0  0
 17 14  1  0  0  0  0
 20 19  1  0  0  0  0
 20 18  1  0  0  0  0
 21 20  2  0  0  0  0
 22 21  1  0  0  0  0
 23 28  2  0  0  0  0
 23 21  1  0  0  0  0
 24 23  1  0  0  0  0
 25 24  1  0  0  0  0
 25 27  2  0  0  0  0
 26 25  1  0  0  0  0
 27 28  1  0  0  0  0
 28 29  1  0  0  0  0
 29 19  2  0  0  0  0
 30 24  1  0  0  0  0
M  END
>  <minimizedAffinity>
-5.34641695

$$$$

 OpenBabel03252504483D

 30 32  0  0  0  0  0  0  0  0999 V2000
   38.8480   31.8470   41.1780 O   0  0  0  0  0  0  0  0  0  0  0  0
   37.5730   31.7910   40.3380 P   0  0  1  0  0  0  0  0  0  0  0  0
   36.9560   33.3620   40.2630 O   0  0  0  0  0  0  0  0  0  0  0  0
   36.0350   33.4220   40.5720 H   0  0  0  0  0  0  0  0  0  0  0  0
   38.0040   31.1560   38.8410 O   0  0  0  0  0  0  0  0  0  0  0  0
   41.2350   32.0880   37.5330 C   0  0  0  0  0  0  0  0  0  0  0  0
   41.7800   30.8290   37.2250 C   0  0  0  0  0  0  0  0  0  0  0  0
   40.9910   29.7050   37.4900 C   0  0  0  0  0  0  0  0  0  0  0  0
   39.7700   29.8970   38.0170 N   0  0  0  0  0  0  0  0  0  0  0  0
   39.2790   31.1390   38.3010 C   0  0  0  0  0  0  0  0  0  0  0  0
   40.0310   32.2390   38.0510 N   0  0  0  0  0  0  0  0  0  0  0  0
   42.7610   30.7510   36.8060 H   0  0  0  0  0  0  0  0  0  0  0  0
   41.3650   28.7040   37.2700 H   0  0  0  0  0  0  0  0  0  0  0  0
   42.1070   33.2690   37.2370 C   0  0  0  0  0  0  0  0  0  0  0  0
   41.5430   34.2010   37.3040 H   0  0  0  0  0  0  0  0  0  0  0  0
   42.8710   33.2880   38.0410 H   0  0  0  0  0  0  0  0  0  0  0  0
   42.6080   33.1470   36.2350 H   0  0  0  0  0  0  0  0  0  0  0  0
   36.3970   30.8110   41.0780 O   0  0  0  0  0  0  0  0  0  0  0  0
   37.3860   29.2710   42.7080 C   0  0  0  0  0  3  0  0  0  0  0  0
   36.7760   29.5220   41.4820 C   0  0  0  0  0  0  0  0  0  0  0  0
   36.5190   28.4830   40.6090 C   0  0  0  0  0  0  0  0  0  0  0  0
   36.0510   28.6370   39.6580 H   0  0  0  0  0  0  0  0  0  0  0  0
   36.8760   27.2220   40.9760 C   0  0  0  0  0  0  0  0  0  0  0  0
   36.8070   25.9910   40.4400 N   0  0  0  0  0  0  0  0  0  0  0  0
   37.3190   25.0510   41.2380 C   0  0  0  0  0  0  0  0  0  0  0  0
   37.3580   24.0020   40.9930 H   0  0  0  0  0  0  0  0  0  0  0  0
   37.7430   25.6760   42.3400 N   0  0  0  0  0  0  0  0  0  0  0  0
   37.4880   26.9790   42.2060 C   0  0  0  0  0  0  0  0  0  0  0  0
   37.7510   28.0070   43.0890 C   0  0  0  0  0  3  0  0  0  0  0  0
   36.3890   25.7960   39.4860 H   0  0  0  0  0  0  0  0  0  0  0  0
  2 18  1  0  0  0  0
  2  1  2  1  0  0  0
  3  2  1  0  0  0  0
  3  4  1  0  0  0  0
  5  2  1  0  0  0  0
  6 11  1  0  0  0  0
  7  8  1  0  0  0  0
  7  6  2  0  0  0  0
  8  9  2  0  0  0  0
  9 10  1  0  0  0  0
 10  5  1  0  0  0  0
 11 10  2  0  0  0  0
 12  7  1  0  0  0  0
 13  8  1  0  0  0  0
 14 15  1  0  0  0  0
 14  6  1  0  0  0  0
 14 16  1  0  0  0  0
 17 14  1  0  0  0  0
 18 20  1  0  0  0  0
 19 29  1  0  0  0  0
 20 19  2  0  0  0  0
 21 23  2  0  0  0  0
 21 20  1  0  0  0  0
 22 21  1  0  0  0  0
 23 28  1  0  0  0  0
 24 23  1  0  0  0  0
 24 25  1  0  0  0  0
 25 27  2  0  0  0  0
 26 25  1  0  0  0  0
 28 27  1  0  0  0  0
 28 29  2  0  0  0  0
 30 24  1  0  0  0  0
M  END
>  <minimizedAffinity>
-5.28859663

$$$$

 OpenBabel03252504483D

 30 32  0  0  0  0  0  0  0  0999 V2000
   39.0180   32.2760   41.4520 O   0  0  0  0  0  0  0  0  0  0  0  0
   37.8830   31.7890   40.5540 P   0  0  1  0  0  0  0  0  0  0  0  0
   37.0340   33.1560   40.0380 O   0  0  0  0  0  0  0  0  0  0  0  0
   36.0840   33.1120   40.2460 H   0  0  0  0  0  0  0  0  0  0  0  0
   38.5930   30.9160   39.3030 O   0  0  0  0  0  0  0  0  0  0  0  0
   41.5600   30.9230   37.2510 C   0  0  0  0  0  0  0  0  0  0  0  0
   41.8850   32.2910   37.2410 C   0  0  0  0  0  0  0  0  0  0  0  0
   41.0470   33.1540   37.9550 C   0  0  0  0  0  0  0  0  0  0  0  0
   39.9940   32.6270   38.6010 N   0  0  0  0  0  0  0  0  0  0  0  0
   39.7150   31.2910   38.5840 C   0  0  0  0  0  0  0  0  0  0  0  0
   40.5170   30.4400   37.8970 N   0  0  0  0  0  0  0  0  0  0  0  0
   42.7400   32.6410   36.7040 H   0  0  0  0  0  0  0  0  0  0  0  0
   41.2530   34.2250   37.9810 H   0  0  0  0  0  0  0  0  0  0  0  0
   42.4770   30.0270   36.4760 C   0  0  0  0  0  0  0  0  0  0  0  0
   42.2850   28.9770   36.7020 H   0  0  0  0  0  0  0  0  0  0  0  0
   42.2220   30.1860   35.4080 H   0  0  0  0  0  0  0  0  0  0  0  0
   43.5520   30.3110   36.6600 H   0  0  0  0  0  0  0  0  0  0  0  0
   36.7980   30.8060   41.4180 O   0  0  0  0  0  0  0  0  0  0  0  0
   36.5370   28.3860   41.1320 C   0  0  0  0  0  3  0  0  0  0  0  0
   37.1840   29.4840   41.6910 C   0  0  0  0  0  0  0  0  0  0  0  0
   38.2520   29.3000   42.5480 C   0  0  0  0  0  0  0  0  0  0  0  0
   38.7740   30.1210   42.9960 H   0  0  0  0  0  0  0  0  0  0  0  0
   38.6470   28.0290   42.8290 C   0  0  0  0  0  0  0  0  0  0  0  0
   39.5970   27.4440   43.5800 N   0  0  0  0  0  0  0  0  0  0  0  0
   39.5610   26.1110   43.5110 C   0  0  0  0  0  0  0  0  0  0  0  0
   40.2370   25.4580   44.0380 H   0  0  0  0  0  0  0  0  0  0  0  0
   38.5560   25.7990   42.6880 N   0  0  0  0  0  0  0  0  0  0  0  0
   37.9930   26.9330   42.2670 C   0  0  0  0  0  0  0  0  0  0  0  0
   36.9250   27.1020   41.4080 C   0  0  0  0  0  3  0  0  0  0  0  0
   40.2950   27.9890   44.1620 H   0  0  0  0  0  0  0  0  0  0  0  0
  2 18  1  0  0  0  0
  2  1  2  1  0  0  0
  3  4  1  0  0  0  0
  3  2  1  0  0  0  0
  5  2  1  0  0  0  0
  6 11  1  0  0  0  0
  7  6  2  0  0  0  0
  7  8  1  0  0  0  0
  8 13  1  0  0  0  0
  8  9  2  0  0  0  0
 10  9  1  0  0  0  0
 10  5  1  0  0  0  0
 11 10  2  0  0  0  0
 12  7  1  0  0  0  0
 14 17  1  0  0  0  0
 14 15  1  0  0  0  0
 14  6  1  0  0  0  0
 16 14  1  0  0  0  0
 18 20  1  0  0  0  0
 19 29  2  0  0  0  0
 19 20  1  0  0  0  0
 20 21  2  0  0  0  0
 21 23  1  0  0  0  0
 21 22  1  0  0  0  0
 23 24  1  0  0  0  0
 24 30  1  0  0  0  0
 25 24  1  0  0  0  0
 25 26  1  0  0  0  0
 27 25  2  0  0  0  0
 28 27  1  0  0  0  0
 28 23  2  0  0  0  0
 29 28  1  0  0  0  0
M  END
>  <minimizedAffinity>
-5.23035288

$$$$

 OpenBabel03252504483D

 30 32  0  0  0  0  0  0  0  0999 V2000
   36.8030   28.9350   39.5640 O   0  0  0  0  0  0  0  0  0  0  0  0
   35.8350   29.2880   40.6920 P   0  0  1  0  0  0  0  0  0  0  0  0
   34.2780   29.2630   40.0380 O   0  0  0  0  0  0  0  0  0  0  0  0
   33.7980   30.0990   40.1730 H   0  0  0  0  0  0  0  0  0  0  0  0
   36.0780   28.1570   41.9130 O   0  0  0  0  0  0  0  0  0  0  0  0
   39.4880   27.3480   42.7700 C   0  0  0  0  0  0  0  0  0  0  0  0
   39.4740   25.9460   42.6640 C   0  0  0  0  0  0  0  0  0  0  0  0
   38.2660   25.3430   42.2970 C   0  0  0  0  0  0  0  0  0  0  0  0
   37.2050   26.1340   42.0690 N   0  0  0  0  0  0  0  0  0  0  0  0
   37.2630   27.4930   42.1840 C   0  0  0  0  0  0  0  0  0  0  0  0
   38.4260   28.0940   42.5390 N   0  0  0  0  0  0  0  0  0  0  0  0
   40.3580   25.3790   42.8610 H   0  0  0  0  0  0  0  0  0  0  0  0
   38.1990   24.2590   42.2000 H   0  0  0  0  0  0  0  0  0  0  0  0
   40.7960   27.9610   43.1660 C   0  0  0  0  0  0  0  0  0  0  0  0
   40.7840   29.0430   43.0230 H   0  0  0  0  0  0  0  0  0  0  0  0
   40.9000   27.7740   44.2550 H   0  0  0  0  0  0  0  0  0  0  0  0
   41.6450   27.4690   42.6110 H   0  0  0  0  0  0  0  0  0  0  0  0
   36.1240   30.8580   41.2750 O   0  0  0  0  0  0  0  0  0  0  0  0
   37.1190   32.3010   39.5620 C   0  0  0  0  0  3  0  0  0  0  0  0
   37.2110   31.5680   40.7420 C   0  0  0  0  0  0  0  0  0  0  0  0
   38.4030   31.5190   41.4380 C   0  0  0  0  0  0  0  0  0  0  0  0
   38.5110   30.9660   42.3490 H   0  0  0  0  0  0  0  0  0  0  0  0
   39.4730   32.1980   40.9430 C   0  0  0  0  0  0  0  0  0  0  0  0
   40.7540   32.3980   41.2990 N   0  0  0  0  0  0  0  0  0  0  0  0
   41.4140   33.1750   40.4380 C   0  0  0  0  0  0  0  0  0  0  0  0
   42.4490   33.4550   40.5420 H   0  0  0  0  0  0  0  0  0  0  0  0
   40.5450   33.5040   39.4780 N   0  0  0  0  0  0  0  0  0  0  0  0
   39.3740   32.9290   39.7590 C   0  0  0  0  0  0  0  0  0  0  0  0
   38.1890   32.9880   39.0530 C   0  0  0  0  0  3  0  0  0  0  0  0
   41.1870   31.9790   42.1710 H   0  0  0  0  0  0  0  0  0  0  0  0
  2  1  2  6  0  0  0
  2 18  1  0  0  0  0
  2  5  1  0  0  0  0
  3  4  1  0  0  0  0
  3  2  1  0  0  0  0
  5 10  1  0  0  0  0
  6 14  1  0  0  0  0
  7  6  1  0  0  0  0
  7 12  1  0  0  0  0
  8  7  2  0  0  0  0
  9 10  2  0  0  0  0
  9  8  1  0  0  0  0
 10 11  1  0  0  0  0
 11  6  2  0  0  0  0
 13  8  1  0  0  0  0
 14 16  1  0  0  0  0
 15 14  1  0  0  0  0
 17 14  1  0  0  0  0
 19 20  1  0  0  0  0
 20 18  1  0  0  0  0
 20 21  2  0  0  0  0
 21 22  1  0  0  0  0
 23 24  1  0  0  0  0
 23 21  1  0  0  0  0
 24 30  1  0  0  0  0
 25 26  1  0  0  0  0
 25 24  1  0  0  0  0
 27 28  1  0  0  0  0
 27 25  2  0  0  0  0
 28 23  2  0  0  0  0
 29 19  2  0  0  0  0
 29 28  1  0  0  0  0
M  END
>  <minimizedAffinity>
-5.18634844

$$$$
