
 OpenBabel03252502253D

 37 40  0  0  1  0  0  0  0  0999 V2000
   38.2210   30.7500   41.2200 N   0  0  0  0  0  0  0  0  0  0  0  0
   39.3690   31.5940   40.8780 C   0  0  0  0  0  0  0  0  0  0  0  0
   38.8320   33.0180   40.9820 C   0  0  0  0  0  0  0  0  0  0  0  0
   37.7910   33.2630   39.9370 C   0  0  0  0  0  0  0  0  0  0  0  0
   36.8490   32.1160   39.7180 C   0  0  0  0  0  0  0  0  0  0  0  0
   36.9050   31.0360   40.7580 C   0  0  1  0  0  0  0  0  0  0  0  0
   39.5640   31.4120   39.7970 H   0  0  0  0  0  0  0  0  0  0  0  0
   40.2140   31.4240   41.5380 H   0  0  0  0  0  0  0  0  0  0  0  0
   38.4780   33.2480   42.0030 H   0  0  0  0  0  0  0  0  0  0  0  0
   39.7170   33.6720   40.7330 H   0  0  0  0  0  0  0  0  0  0  0  0
   38.3130   33.4640   38.9740 H   0  0  0  0  0  0  0  0  0  0  0  0
   37.2570   34.2160   40.1950 H   0  0  0  0  0  0  0  0  0  0  0  0
   36.9600   31.6760   38.7020 H   0  0  0  0  0  0  0  0  0  0  0  0
   35.8140   32.5350   39.7410 H   0  0  0  0  0  0  0  0  0  0  0  0
   36.2970   31.3750   41.6400 H   0  0  0  0  0  0  0  0  0  0  0  0
   39.6720   27.7920   42.9700 C   0  0  0  0  0  0  0  0  0  0  0  0
   39.6270   28.9200   42.1140 C   0  0  0  0  0  0  0  0  0  0  0  0
   38.4000   29.6010   42.0430 C   0  0  0  0  0  0  0  0  0  0  0  0
   37.3550   29.1280   42.7970 N   0  0  0  0  0  0  0  0  0  0  0  0
   37.4460   28.0490   43.5970 C   0  0  0  0  0  0  0  0  0  0  0  0
   38.6260   27.3750   43.6790 N   0  0  0  0  0  0  0  0  0  0  0  0
   40.6040   27.2470   43.0450 H   0  0  0  0  0  0  0  0  0  0  0  0
   40.4620   29.2630   41.5390 H   0  0  0  0  0  0  0  0  0  0  0  0
   36.4990   27.8620   44.0940 H   0  0  0  0  0  0  0  0  0  0  0  0
   36.3660   29.8820   40.1910 O   0  0  0  0  0  0  0  0  0  0  0  0
   34.8480   29.2470   38.5870 C   0  0  0  0  0  3  0  0  0  0  0  0
   36.1650   29.6250   38.8660 C   0  0  0  0  0  0  0  0  0  0  0  0
   37.0380   29.6810   37.7970 C   0  0  0  0  0  0  0  0  0  0  0  0
   38.0360   29.9800   38.0880 H   0  0  0  0  0  0  0  0  0  0  0  0
   36.6280   29.3790   36.5160 C   0  0  0  0  0  0  0  0  0  0  0  0
   37.3610   29.3930   35.4070 N   0  0  0  0  0  0  0  0  0  0  0  0
   36.5110   29.0250   34.4230 C   0  0  0  0  0  0  0  0  0  0  0  0
   36.6640   28.8990   33.3620 H   0  0  0  0  0  0  0  0  0  0  0  0
   35.2770   28.7860   34.9030 N   0  0  0  0  0  0  0  0  0  0  0  0
   35.3340   29.0070   36.2370 C   0  0  0  0  0  0  0  0  0  0  0  0
   34.4440   28.9440   37.2890 C   0  0  0  0  0  3  0  0  0  0  0  0
   38.3640   29.6260   35.2650 H   0  0  0  0  0  0  0  0  0  0  0  0
  1 18  1  0  0  0  0
  2  3  1  0  0  0  0
  2  1  1  0  0  0  0
  2  8  1  0  0  0  0
  3  9  1  0  0  0  0
  4 12  1  0  0  0  0
  4  3  1  0  0  0  0
  5 14  1  0  0  0  0
  5  4  1  0  0  0  0
  5  6  1  0  0  0  0
  6  1  1  0  0  0  0
  6 15  1  1  0  0  0
  7  2  1  0  0  0  0
 10  3  1  0  0  0  0
 11  4  1  0  0  0  0
 13  5  1  0  0  0  0
 16 22  1  0  0  0  0
 16 21  1  0  0  0  0
 17 16  2  0  0  0  0
 18 17  1  0  0  0  0
 18 19  2  0  0  0  0
 19 20  1  0  0  0  0
 20 21  2  0  0  0  0
 20 24  1  0  0  0  0
 23 17  1  0  0  0  0
 25  6  1  0  0  0  0
 26 27  1  0  0  0  0
 27 25  1  0  0  0  0
 28 29  1  0  0  0  0
 28 27  2  0  0  0  0
 30 28  1  0  0  0  0
 31 30  1  0  0  0  0
 32 34  2  0  0  0  0
 32 31  1  0  0  0  0
 33 32  1  0  0  0  0
 34 35  1  0  0  0  0
 35 30  2  0  0  0  0
 35 36  1  0  0  0  0
 36 26  2  0  0  0  0
 37 31  1  0  0  0  0
M  END
>  <minimizedAffinity>
-5.65021658

$$$$

 OpenBabel03252502253D

 37 40  0  0  1  0  0  0  0  0999 V2000
   37.3550   26.5650   40.8430 N   0  0  0  0  0  0  0  0  0  0  0  0
   37.6330   25.7420   39.6630 C   0  0  0  0  0  0  0  0  0  0  0  0
   36.7570   24.5080   39.8510 C   0  0  0  0  0  0  0  0  0  0  0  0
   37.2080   23.7220   41.0400 C   0  0  0  0  0  0  0  0  0  0  0  0
   37.6000   24.5550   42.2240 C   0  0  0  0  0  0  0  0  0  0  0  0
   37.2110   26.0020   42.1430 C   0  0  1  0  0  0  0  0  0  0  0  0
   38.6860   25.3980   39.7780 H   0  0  0  0  0  0  0  0  0  0  0  0
   37.4140   26.2660   38.7370 H   0  0  0  0  0  0  0  0  0  0  0  0
   35.6850   24.7710   39.8900 H   0  0  0  0  0  0  0  0  0  0  0  0
   36.9580   23.8780   38.9360 H   0  0  0  0  0  0  0  0  0  0  0  0
   38.0960   23.1210   40.7370 H   0  0  0  0  0  0  0  0  0  0  0  0
   36.4080   22.9730   41.2850 H   0  0  0  0  0  0  0  0  0  0  0  0
   38.6840   24.4620   42.4560 H   0  0  0  0  0  0  0  0  0  0  0  0
   37.0750   24.1280   43.1110 H   0  0  0  0  0  0  0  0  0  0  0  0
   36.1280   26.0840   42.4350 H   0  0  0  0  0  0  0  0  0  0  0  0
   36.0260   30.0510   40.8850 C   0  0  0  0  0  0  0  0  0  0  0  0
   36.0320   28.6460   41.0640 C   0  0  0  0  0  0  0  0  0  0  0  0
   37.2170   27.9780   40.7120 C   0  0  0  0  0  0  0  0  0  0  0  0
   38.2630   28.7260   40.2310 N   0  0  0  0  0  0  0  0  0  0  0  0
   38.2090   30.0630   40.0790 C   0  0  0  0  0  0  0  0  0  0  0  0
   37.0690   30.7290   40.4130 N   0  0  0  0  0  0  0  0  0  0  0  0
   35.1270   30.5930   41.1470 H   0  0  0  0  0  0  0  0  0  0  0  0
   35.1990   28.0910   41.4420 H   0  0  0  0  0  0  0  0  0  0  0  0
   39.1480   30.4390   39.6850 H   0  0  0  0  0  0  0  0  0  0  0  0
   38.0240   26.7040   43.0310 O   0  0  0  0  0  0  0  0  0  0  0  0
   39.9640   27.9310   43.1350 C   0  0  0  0  0  3  0  0  0  0  0  0
   39.3850   26.6580   43.1230 C   0  0  0  0  0  0  0  0  0  0  0  0
   40.2440   25.5790   43.2040 C   0  0  0  0  0  0  0  0  0  0  0  0
   39.7260   24.6300   43.1890 H   0  0  0  0  0  0  0  0  0  0  0  0
   41.6090   25.7520   43.2920 C   0  0  0  0  0  0  0  0  0  0  0  0
   42.5410   24.8080   43.3750 N   0  0  0  0  0  0  0  0  0  0  0  0
   43.7120   25.4780   43.4390 C   0  0  0  0  0  0  0  0  0  0  0  0
   44.7300   25.1260   43.5150 H   0  0  0  0  0  0  0  0  0  0  0  0
   43.5200   26.8090   43.3980 N   0  0  0  0  0  0  0  0  0  0  0  0
   42.1830   27.0020   43.3040 C   0  0  0  0  0  0  0  0  0  0  0  0
   41.3450   28.0940   43.2240 C   0  0  0  0  0  3  0  0  0  0  0  0
   42.4510   23.7720   43.3910 H   0  0  0  0  0  0  0  0  0  0  0  0
  1  6  1  0  0  0  0
  2  7  1  0  0  0  0
  2  3  1  0  0  0  0
  2  1  1  0  0  0  0
  3  9  1  0  0  0  0
  3  4  1  0  0  0  0
  4 12  1  0  0  0  0
  4  5  1  0  0  0  0
  5 13  1  0  0  0  0
  5 14  1  0  0  0  0
  6  5  1  0  0  0  0
  6 15  1  1  0  0  0
  6 25  1  0  0  0  0
  8  2  1  0  0  0  0
 10  3  1  0  0  0  0
 11  4  1  0  0  0  0
 16 17  1  0  0  0  0
 16 22  1  0  0  0  0
 17 23  1  0  0  0  0
 18  1  1  0  0  0  0
 18 17  2  0  0  0  0
 19 18  1  0  0  0  0
 20 19  2  0  0  0  0
 20 21  1  0  0  0  0
 21 16  2  0  0  0  0
 24 20  1  0  0  0  0
 25 27  1  0  0  0  0
 26 36  1  0  0  0  0
 27 26  2  0  0  0  0
 27 28  1  0  0  0  0
 28 30  2  0  0  0  0
 29 28  1  0  0  0  0
 30 35  1  0  0  0  0
 30 31  1  0  0  0  0
 31 37  1  0  0  0  0
 31 32  1  0  0  0  0
 32 33  1  0  0  0  0
 34 32  2  0  0  0  0
 35 34  1  0  0  0  0
 36 35  2  0  0  0  0
M  END
>  <minimizedAffinity>
-5.57630873

$$$$

 OpenBabel03252502253D

 37 40  0  0  1  0  0  0  0  0999 V2000
   38.2820   25.8720   41.5770 N   0  0  0  0  0  0  0  0  0  0  0  0
   39.7260   25.8520   41.3290 C   0  0  0  0  0  0  0  0  0  0  0  0
   40.3340   25.4810   42.6780 C   0  0  0  0  0  0  0  0  0  0  0  0
   40.0840   26.5630   43.6790 C   0  0  0  0  0  0  0  0  0  0  0  0
   38.7140   27.1690   43.6110 C   0  0  0  0  0  0  0  0  0  0  0  0
   37.7250   26.4180   42.7680 C   0  0  1  0  0  0  0  0  0  0  0  0
   40.0130   26.9110   41.1380 H   0  0  0  0  0  0  0  0  0  0  0  0
   39.9980   25.1490   40.5470 H   0  0  0  0  0  0  0  0  0  0  0  0
   39.9900   24.4890   43.0210 H   0  0  0  0  0  0  0  0  0  0  0  0
   41.4460   25.4510   42.4870 H   0  0  0  0  0  0  0  0  0  0  0  0
   40.8260   27.3750   43.4990 H   0  0  0  0  0  0  0  0  0  0  0  0
   40.3260   26.1560   44.6980 H   0  0  0  0  0  0  0  0  0  0  0  0
   38.7470   28.2370   43.3030 H   0  0  0  0  0  0  0  0  0  0  0  0
   38.3100   27.1800   44.6520 H   0  0  0  0  0  0  0  0  0  0  0  0
   37.3250   25.5670   43.3830 H   0  0  0  0  0  0  0  0  0  0  0  0
   36.3100   25.2620   38.4700 C   0  0  0  0  0  0  0  0  0  0  0  0
   37.2370   25.8950   39.3330 C   0  0  0  0  0  0  0  0  0  0  0  0
   37.3840   25.3310   40.6120 C   0  0  0  0  0  0  0  0  0  0  0  0
   36.6300   24.2260   40.9210 N   0  0  0  0  0  0  0  0  0  0  0  0
   35.7610   23.6580   40.0640 C   0  0  0  0  0  0  0  0  0  0  0  0
   35.6030   24.1910   38.8200 N   0  0  0  0  0  0  0  0  0  0  0  0
   36.1760   25.6750   37.4780 H   0  0  0  0  0  0  0  0  0  0  0  0
   37.8100   26.7580   39.0620 H   0  0  0  0  0  0  0  0  0  0  0  0
   35.2800   22.8000   40.5220 H   0  0  0  0  0  0  0  0  0  0  0  0
   36.7090   27.3090   42.4240 O   0  0  0  0  0  0  0  0  0  0  0  0
   35.7470   28.8610   41.0290 C   0  0  0  0  0  3  0  0  0  0  0  0
   36.8430   28.5320   41.8330 C   0  0  0  0  0  0  0  0  0  0  0  0
   37.8630   29.4600   41.9090 C   0  0  0  0  0  0  0  0  0  0  0  0
   38.6740   29.1380   42.5480 H   0  0  0  0  0  0  0  0  0  0  0  0
   37.8010   30.6540   41.2240 C   0  0  0  0  0  0  0  0  0  0  0  0
   38.7070   31.6280   41.2100 N   0  0  0  0  0  0  0  0  0  0  0  0
   38.1880   32.5750   40.3980 C   0  0  0  0  0  0  0  0  0  0  0  0
   38.5720   33.5370   40.0930 H   0  0  0  0  0  0  0  0  0  0  0  0
   36.9890   32.2060   39.9150 N   0  0  0  0  0  0  0  0  0  0  0  0
   36.7260   30.9820   40.4310 C   0  0  0  0  0  0  0  0  0  0  0  0
   35.6950   30.0710   40.3400 C   0  0  0  0  0  3  0  0  0  0  0  0
   39.6240   31.7010   41.6940 H   0  0  0  0  0  0  0  0  0  0  0  0
  1  6  1  0  0  0  0
  2  1  1  0  0  0  0
  2  3  1  0  0  0  0
  3  9  1  0  0  0  0
  3  4  1  0  0  0  0
  4 12  1  0  0  0  0
  5  4  1  0  0  0  0
  5 14  1  0  0  0  0
  6 15  1  1  0  0  0
  6  5  1  0  0  0  0
  7  2  1  0  0  0  0
  8  2  1  0  0  0  0
 10  3  1  0  0  0  0
 11  4  1  0  0  0  0
 13  5  1  0  0  0  0
 16 21  2  0  0  0  0
 16 17  1  0  0  0  0
 17 18  2  0  0  0  0
 18 19  1  0  0  0  0
 18  1  1  0  0  0  0
 20 24  1  0  0  0  0
 20 19  2  0  0  0  0
 21 20  1  0  0  0  0
 22 16  1  0  0  0  0
 23 17  1  0  0  0  0
 25  6  1  0  0  0  0
 26 27  1  0  0  0  0
 27 28  2  0  0  0  0
 27 25  1  0  0  0  0
 28 29  1  0  0  0  0
 30 28  1  0  0  0  0
 31 30  1  0  0  0  0
 31 37  1  0  0  0  0
 32 31  1  0  0  0  0
 33 32  1  0  0  0  0
 34 32  2  0  0  0  0
 34 35  1  0  0  0  0
 35 30  2  0  0  0  0
 36 35  1  0  0  0  0
 36 26  2  0  0  0  0
M  END
>  <minimizedAffinity>
-5.57325554

$$$$

 OpenBabel03252502253D

 37 40  0  0  1  0  0  0  0  0999 V2000
   37.3790   28.4120   40.5860 N   0  0  0  0  0  0  0  0  0  0  0  0
   38.5680   27.5690   40.7340 C   0  0  0  0  0  0  0  0  0  0  0  0
   38.2890   26.7410   41.9830 C   0  0  0  0  0  0  0  0  0  0  0  0
   38.2330   27.6200   43.1920 C   0  0  0  0  0  0  0  0  0  0  0  0
   37.5240   28.9250   42.9780 C   0  0  0  0  0  0  0  0  0  0  0  0
   36.7420   29.0260   41.7020 C   0  0  1  0  0  0  0  0  0  0  0  0
   39.3990   28.2630   40.9980 H   0  0  0  0  0  0  0  0  0  0  0  0
   38.7420   26.9490   39.8580 H   0  0  0  0  0  0  0  0  0  0  0  0
   37.3870   26.1140   41.8650 H   0  0  0  0  0  0  0  0  0  0  0  0
   39.1960   26.0790   42.0920 H   0  0  0  0  0  0  0  0  0  0  0  0
   39.2790   27.8450   43.5010 H   0  0  0  0  0  0  0  0  0  0  0  0
   37.7920   27.0230   44.0360 H   0  0  0  0  0  0  0  0  0  0  0  0
   38.2150   29.7920   43.0740 H   0  0  0  0  0  0  0  0  0  0  0  0
   36.7950   29.0410   43.8160 H   0  0  0  0  0  0  0  0  0  0  0  0
   35.7560   28.5100   41.8610 H   0  0  0  0  0  0  0  0  0  0  0  0
   35.0390   28.6630   37.6920 C   0  0  0  0  0  0  0  0  0  0  0  0
   35.4670   28.3950   39.0150 C   0  0  0  0  0  0  0  0  0  0  0  0
   36.8210   28.6410   39.2950 C   0  0  0  0  0  0  0  0  0  0  0  0
   37.6150   29.1170   38.2800 N   0  0  0  0  0  0  0  0  0  0  0  0
   37.1610   29.3570   37.0360 C   0  0  0  0  0  0  0  0  0  0  0  0
   35.8520   29.1240   36.7440 N   0  0  0  0  0  0  0  0  0  0  0  0
   34.0010   28.4820   37.4470 H   0  0  0  0  0  0  0  0  0  0  0  0
   34.8220   28.0230   39.7850 H   0  0  0  0  0  0  0  0  0  0  0  0
   37.9620   29.7280   36.4030 H   0  0  0  0  0  0  0  0  0  0  0  0
   36.5600   30.3810   41.4290 O   0  0  0  0  0  0  0  0  0  0  0  0
   37.0320   32.2100   40.1210 C   0  0  0  0  0  3  0  0  0  0  0  0
   37.5110   31.2860   41.0560 C   0  0  0  0  0  0  0  0  0  0  0  0
   38.8270   31.4230   41.4520 C   0  0  0  0  0  0  0  0  0  0  0  0
   39.1260   30.6750   42.1750 H   0  0  0  0  0  0  0  0  0  0  0  0
   39.6300   32.4230   40.9470 C   0  0  0  0  0  0  0  0  0  0  0  0
   40.9050   32.6630   41.2400 N   0  0  0  0  0  0  0  0  0  0  0  0
   41.2370   33.7380   40.4920 C   0  0  0  0  0  0  0  0  0  0  0  0
   42.1650   34.2840   40.4050 H   0  0  0  0  0  0  0  0  0  0  0  0
   40.1990   34.1610   39.7490 N   0  0  0  0  0  0  0  0  0  0  0  0
   39.1650   33.3320   40.0270 C   0  0  0  0  0  0  0  0  0  0  0  0
   37.8530   33.2160   39.6170 C   0  0  0  0  0  3  0  0  0  0  0  0
   41.5510   32.1720   41.8890 H   0  0  0  0  0  0  0  0  0  0  0  0
  1  2  1  0  0  0  0
  1  6  1  0  0  0  0
  2  7  1  0  0  0  0
  2  3  1  0  0  0  0
  3 10  1  0  0  0  0
  3  4  1  0  0  0  0
  4 11  1  0  0  0  0
  4 12  1  0  0  0  0
  5 13  1  0  0  0  0
  5  4  1  0  0  0  0
  5 14  1  0  0  0  0
  6 15  1  1  0  0  0
  6  5  1  0  0  0  0
  8  2  1  0  0  0  0
  9  3  1  0  0  0  0
 16 17  1  0  0  0  0
 17 18  2  0  0  0  0
 17 23  1  0  0  0  0
 18  1  1  0  0  0  0
 19 18  1  0  0  0  0
 20 19  2  0  0  0  0
 21 20  1  0  0  0  0
 21 16  2  0  0  0  0
 22 16  1  0  0  0  0
 24 20  1  0  0  0  0
 25  6  1  0  0  0  0
 26 27  1  0  0  0  0
 27 25  1  0  0  0  0
 27 28  2  0  0  0  0
 28 29  1  0  0  0  0
 30 31  1  0  0  0  0
 30 28  1  0  0  0  0
 31 37  1  0  0  0  0
 32 31  1  0  0  0  0
 33 32  1  0  0  0  0
 34 35  1  0  0  0  0
 34 32  2  0  0  0  0
 35 30  2  0  0  0  0
 36 35  1  0  0  0  0
 36 26  2  0  0  0  0
M  END
>  <minimizedAffinity>
-5.45961237

$$$$

 OpenBabel03252502253D

 37 40  0  0  1  0  0  0  0  0999 V2000
   37.1880   25.7780   41.2580 N   0  0  0  0  0  0  0  0  0  0  0  0
   36.9670   24.5230   41.9810 C   0  0  0  0  0  0  0  0  0  0  0  0
   37.5910   23.4590   41.0850 C   0  0  0  0  0  0  0  0  0  0  0  0
   36.8380   23.3510   39.7980 C   0  0  0  0  0  0  0  0  0  0  0  0
   36.4080   24.6660   39.2180 C   0  0  0  0  0  0  0  0  0  0  0  0
   37.0350   25.8760   39.8460 C   0  0  1  0  0  0  0  0  0  0  0  0
   35.8670   24.3500   41.9530 H   0  0  0  0  0  0  0  0  0  0  0  0
   37.4100   24.5390   42.9730 H   0  0  0  0  0  0  0  0  0  0  0  0
   38.6720   23.6310   40.9390 H   0  0  0  0  0  0  0  0  0  0  0  0
   37.4360   22.4920   41.6460 H   0  0  0  0  0  0  0  0  0  0  0  0
   35.9230   22.7450   39.9850 H   0  0  0  0  0  0  0  0  0  0  0  0
   37.4580   22.7470   39.0820 H   0  0  0  0  0  0  0  0  0  0  0  0
   35.3010   24.7710   39.2050 H   0  0  0  0  0  0  0  0  0  0  0  0
   36.7120   24.6640   38.1440 H   0  0  0  0  0  0  0  0  0  0  0  0
   38.0570   26.0060   39.3970 H   0  0  0  0  0  0  0  0  0  0  0  0
   37.3260   28.6120   43.6800 C   0  0  0  0  0  0  0  0  0  0  0  0
   36.8380   27.4340   43.0640 C   0  0  0  0  0  0  0  0  0  0  0  0
   37.5720   26.9530   41.9670 C   0  0  0  0  0  0  0  0  0  0  0  0
   38.6900   27.6510   41.5820 N   0  0  0  0  0  0  0  0  0  0  0  0
   39.1160   28.7690   42.2010 C   0  0  0  0  0  0  0  0  0  0  0  0
   38.4170   29.2510   43.2660 N   0  0  0  0  0  0  0  0  0  0  0  0
   36.7800   29.0070   44.5280 H   0  0  0  0  0  0  0  0  0  0  0  0
   35.9610   26.9130   43.3890 H   0  0  0  0  0  0  0  0  0  0  0  0
   40.0160   29.1470   41.7270 H   0  0  0  0  0  0  0  0  0  0  0  0
   36.2180   26.9680   39.5550 O   0  0  0  0  0  0  0  0  0  0  0  0
   34.8640   28.2850   38.2470 C   0  0  0  0  0  3  0  0  0  0  0  0
   36.0810   27.6050   38.3560 C   0  0  0  0  0  0  0  0  0  0  0  0
   36.9350   27.6760   37.2730 C   0  0  0  0  0  0  0  0  0  0  0  0
   37.8540   27.1270   37.4290 H   0  0  0  0  0  0  0  0  0  0  0  0
   36.6010   28.3840   36.1380 C   0  0  0  0  0  0  0  0  0  0  0  0
   37.3260   28.5320   35.0330 N   0  0  0  0  0  0  0  0  0  0  0  0
   36.5710   29.3050   34.2220 C   0  0  0  0  0  0  0  0  0  0  0  0
   36.7540   29.6800   33.2270 H   0  0  0  0  0  0  0  0  0  0  0  0
   35.4040   29.6340   34.8030 N   0  0  0  0  0  0  0  0  0  0  0  0
   35.4060   29.0540   36.0260 C   0  0  0  0  0  0  0  0  0  0  0  0
   34.5370   28.9980   37.0960 C   0  0  0  0  0  3  0  0  0  0  0  0
   38.2670   28.1610   34.7900 H   0  0  0  0  0  0  0  0  0  0  0  0
  1 18  1  0  0  0  0
  1  2  1  0  0  0  0
  2  8  1  0  0  0  0
  3 10  1  0  0  0  0
  3  2  1  0  0  0  0
  4 11  1  0  0  0  0
  4  3  1  0  0  0  0
  5  4  1  0  0  0  0
  5  6  1  0  0  0  0
  6 15  1  6  0  0  0
  6  1  1  0  0  0  0
  7  2  1  0  0  0  0
  9  3  1  0  0  0  0
 12  4  1  0  0  0  0
 13  5  1  0  0  0  0
 14  5  1  0  0  0  0
 16 22  1  0  0  0  0
 17 23  1  0  0  0  0
 17 16  2  0  0  0  0
 18 17  1  0  0  0  0
 19 18  2  0  0  0  0
 19 20  1  0  0  0  0
 20 21  2  0  0  0  0
 21 16  1  0  0  0  0
 24 20  1  0  0  0  0
 25  6  1  0  0  0  0
 26 27  1  0  0  0  0
 27 25  1  0  0  0  0
 28 29  1  0  0  0  0
 28 27  2  0  0  0  0
 30 28  1  0  0  0  0
 31 30  1  0  0  0  0
 32 34  2  0  0  0  0
 32 31  1  0  0  0  0
 33 32  1  0  0  0  0
 34 35  1  0  0  0  0
 35 30  2  0  0  0  0
 35 36  1  0  0  0  0
 36 26  2  0  0  0  0
 37 31  1  0  0  0  0
M  END
>  <minimizedAffinity>
-5.42632246

$$$$

 OpenBabel03252502253D

 37 40  0  0  1  0  0  0  0  0999 V2000
   37.0950   25.5960   41.1270 N   0  0  0  0  0  0  0  0  0  0  0  0
   36.9200   24.2800   41.7450 C   0  0  0  0  0  0  0  0  0  0  0  0
   37.4560   23.3020   40.7040 C   0  0  0  0  0  0  0  0  0  0  0  0
   36.5970   23.3190   39.4800 C   0  0  0  0  0  0  0  0  0  0  0  0
   36.1350   24.6840   39.0640 C   0  0  0  0  0  0  0  0  0  0  0  0
   36.8260   25.8280   39.7480 C   0  0  1  0  0  0  0  0  0  0  0  0
   35.8200   24.1130   41.7930 H   0  0  0  0  0  0  0  0  0  0  0  0
   37.4450   24.2000   42.6930 H   0  0  0  0  0  0  0  0  0  0  0  0
   38.5230   23.4840   40.4840 H   0  0  0  0  0  0  0  0  0  0  0  0
   37.3370   22.2870   41.1830 H   0  0  0  0  0  0  0  0  0  0  0  0
   35.6940   22.7010   39.6860 H   0  0  0  0  0  0  0  0  0  0  0  0
   37.1490   22.7830   38.6610 H   0  0  0  0  0  0  0  0  0  0  0  0
   35.0320   24.7930   39.1540 H   0  0  0  0  0  0  0  0  0  0  0  0
   36.3480   24.7830   37.9730 H   0  0  0  0  0  0  0  0  0  0  0  0
   37.8090   25.9950   39.2290 H   0  0  0  0  0  0  0  0  0  0  0  0
   37.3670   28.3030   43.6790 C   0  0  0  0  0  0  0  0  0  0  0  0
   36.8030   27.2050   42.9850 C   0  0  0  0  0  0  0  0  0  0  0  0
   37.5490   26.6980   41.9080 C   0  0  0  0  0  0  0  0  0  0  0  0
   38.7500   27.2960   41.6160 N   0  0  0  0  0  0  0  0  0  0  0  0
   39.2460   28.3400   42.3060 C   0  0  0  0  0  0  0  0  0  0  0  0
   38.5370   28.8460   43.3530 N   0  0  0  0  0  0  0  0  0  0  0  0
   36.8150   28.7150   44.5140 H   0  0  0  0  0  0  0  0  0  0  0  0
   35.8630   26.7610   43.2390 H   0  0  0  0  0  0  0  0  0  0  0  0
   40.2040   28.6460   41.8990 H   0  0  0  0  0  0  0  0  0  0  0  0
   36.0000   26.9450   39.6300 O   0  0  0  0  0  0  0  0  0  0  0  0
   35.8870   29.1950   40.0800 C   0  0  0  0  0  3  0  0  0  0  0  0
   36.3530   28.1970   39.2180 C   0  0  0  0  0  0  0  0  0  0  0  0
   37.0770   28.6100   38.1170 C   0  0  0  0  0  0  0  0  0  0  0  0
   37.4040   27.7850   37.4980 H   0  0  0  0  0  0  0  0  0  0  0  0
   37.3280   29.9450   37.8800 C   0  0  0  0  0  0  0  0  0  0  0  0
   38.0050   30.4740   36.8650 N   0  0  0  0  0  0  0  0  0  0  0  0
   37.9710   31.8070   37.0810 C   0  0  0  0  0  0  0  0  0  0  0  0
   38.3870   32.6290   36.5180 H   0  0  0  0  0  0  0  0  0  0  0  0
   37.2900   32.1070   38.2010 N   0  0  0  0  0  0  0  0  0  0  0  0
   36.8720   30.9300   38.7230 C   0  0  0  0  0  0  0  0  0  0  0  0
   36.1460   30.5410   39.8300 C   0  0  0  0  0  3  0  0  0  0  0  0
   38.4780   30.0170   36.0600 H   0  0  0  0  0  0  0  0  0  0  0  0
  1  2  1  0  0  0  0
  1 18  1  0  0  0  0
  2  7  1  0  0  0  0
  2  8  1  0  0  0  0
  3 10  1  0  0  0  0
  3  2  1  0  0  0  0
  4 11  1  0  0  0  0
  4  3  1  0  0  0  0
  5 13  1  0  0  0  0
  5  4  1  0  0  0  0
  5  6  1  0  0  0  0
  6 15  1  6  0  0  0
  6  1  1  0  0  0  0
  9  3  1  0  0  0  0
 12  4  1  0  0  0  0
 14  5  1  0  0  0  0
 16 22  1  0  0  0  0
 17 23  1  0  0  0  0
 17 16  2  0  0  0  0
 18 17  1  0  0  0  0
 19 18  2  0  0  0  0
 19 20  1  0  0  0  0
 20 21  2  0  0  0  0
 21 16  1  0  0  0  0
 24 20  1  0  0  0  0
 25  6  1  0  0  0  0
 27 25  1  0  0  0  0
 27 26  2  0  0  0  0
 28 27  1  0  0  0  0
 29 28  1  0  0  0  0
 30 28  2  0  0  0  0
 30 35  1  0  0  0  0
 31 32  1  0  0  0  0
 31 30  1  0  0  0  0
 32 34  2  0  0  0  0
 33 32  1  0  0  0  0
 34 35  1  0  0  0  0
 35 36  2  0  0  0  0
 36 26  1  0  0  0  0
 37 31  1  0  0  0  0
M  END
>  <minimizedAffinity>
-5.37445927

$$$$

 OpenBabel03252502253D

 37 40  0  0  1  0  0  0  0  0999 V2000
   38.1280   29.7320   41.6300 N   0  0  0  0  0  0  0  0  0  0  0  0
   38.5990   29.5970   43.0110 C   0  0  0  0  0  0  0  0  0  0  0  0
   38.7230   28.0920   43.2200 C   0  0  0  0  0  0  0  0  0  0  0  0
   37.3770   27.4420   43.1590 C   0  0  0  0  0  0  0  0  0  0  0  0
   36.4750   27.9830   42.0900 C   0  0  0  0  0  0  0  0  0  0  0  0
   37.1420   28.8670   41.0770 C   0  0  1  0  0  0  0  0  0  0  0  0
   37.7520   29.9330   43.6510 H   0  0  0  0  0  0  0  0  0  0  0  0
   39.5400   30.1150   43.1750 H   0  0  0  0  0  0  0  0  0  0  0  0
   39.4500   27.6410   42.5210 H   0  0  0  0  0  0  0  0  0  0  0  0
   39.0990   27.9840   44.2780 H   0  0  0  0  0  0  0  0  0  0  0  0
   36.8760   27.5990   44.1410 H   0  0  0  0  0  0  0  0  0  0  0  0
   37.5310   26.3320   43.0740 H   0  0  0  0  0  0  0  0  0  0  0  0
   35.5850   28.4940   42.5180 H   0  0  0  0  0  0  0  0  0  0  0  0
   36.0650   27.1050   41.5340 H   0  0  0  0  0  0  0  0  0  0  0  0
   37.6490   28.2050   40.3240 H   0  0  0  0  0  0  0  0  0  0  0  0
   40.0100   31.5730   38.9870 C   0  0  0  0  0  0  0  0  0  0  0  0
   39.5550   30.4670   39.7460 C   0  0  0  0  0  0  0  0  0  0  0  0
   38.6600   30.7530   40.7900 C   0  0  0  0  0  0  0  0  0  0  0  0
   38.3000   32.0630   40.9920 N   0  0  0  0  0  0  0  0  0  0  0  0
   38.7600   33.0820   40.2420 C   0  0  0  0  0  0  0  0  0  0  0  0
   39.6290   32.8250   39.2250 N   0  0  0  0  0  0  0  0  0  0  0  0
   40.7010   31.3830   38.1750 H   0  0  0  0  0  0  0  0  0  0  0  0
   39.8560   29.4560   39.5630 H   0  0  0  0  0  0  0  0  0  0  0  0
   38.3410   34.0240   40.5820 H   0  0  0  0  0  0  0  0  0  0  0  0
   36.1480   29.6390   40.4780 O   0  0  0  0  0  0  0  0  0  0  0  0
   36.3430   29.5540   38.1900 C   0  0  0  0  0  3  0  0  0  0  0  0
   35.5060   29.3940   39.2990 C   0  0  0  0  0  0  0  0  0  0  0  0
   34.1990   29.0230   39.0470 C   0  0  0  0  0  0  0  0  0  0  0  0
   33.6130   28.9180   39.9500 H   0  0  0  0  0  0  0  0  0  0  0  0
   33.7440   28.8210   37.7620 C   0  0  0  0  0  0  0  0  0  0  0  0
   32.5200   28.4650   37.3830 N   0  0  0  0  0  0  0  0  0  0  0  0
   32.5780   28.3990   36.0350 C   0  0  0  0  0  0  0  0  0  0  0  0
   31.8240   28.1500   35.3030 H   0  0  0  0  0  0  0  0  0  0  0  0
   33.8050   28.7060   35.5800 N   0  0  0  0  0  0  0  0  0  0  0  0
   34.5620   28.9780   36.6690 C   0  0  0  0  0  0  0  0  0  0  0  0
   35.8720   29.3470   36.8960 C   0  0  0  0  0  3  0  0  0  0  0  0
   31.6700   28.2680   37.9490 H   0  0  0  0  0  0  0  0  0  0  0  0
  1  2  1  0  0  0  0
  2  8  1  0  0  0  0
  2  3  1  0  0  0  0
  2  7  1  0  0  0  0
  3 10  1  0  0  0  0
  4  3  1  0  0  0  0
  4 11  1  0  0  0  0
  5 13  1  0  0  0  0
  5  4  1  0  0  0  0
  6 15  1  6  0  0  0
  6  1  1  0  0  0  0
  6  5  1  0  0  0  0
  9  3  1  0  0  0  0
 12  4  1  0  0  0  0
 14  5  1  0  0  0  0
 16 21  2  0  0  0  0
 16 17  1  0  0  0  0
 17 18  2  0  0  0  0
 18 19  1  0  0  0  0
 18  1  1  0  0  0  0
 20 24  1  0  0  0  0
 20 19  2  0  0  0  0
 21 20  1  0  0  0  0
 22 16  1  0  0  0  0
 23 17  1  0  0  0  0
 25  6  1  0  0  0  0
 26 27  1  0  0  0  0
 27 25  1  0  0  0  0
 28 27  2  0  0  0  0
 28 29  1  0  0  0  0
 30 28  1  0  0  0  0
 31 30  1  0  0  0  0
 31 37  1  0  0  0  0
 32 31  1  0  0  0  0
 33 32  1  0  0  0  0
 34 32  2  0  0  0  0
 34 35  1  0  0  0  0
 35 36  1  0  0  0  0
 35 30  2  0  0  0  0
 36 26  2  0  0  0  0
M  END
>  <minimizedAffinity>
-5.29523897

$$$$

 OpenBabel03252502253D

 37 40  0  0  1  0  0  0  0  0999 V2000
   37.3050   30.0010   38.7500 N   0  0  0  0  0  0  0  0  0  0  0  0
   37.7440   29.5030   37.4440 C   0  0  0  0  0  0  0  0  0  0  0  0
   36.5830   29.8230   36.5090 C   0  0  0  0  0  0  0  0  0  0  0  0
   35.3720   29.0300   36.8870 C   0  0  0  0  0  0  0  0  0  0  0  0
   35.1420   28.9160   38.3650 C   0  0  0  0  0  0  0  0  0  0  0  0
   35.9690   29.8360   39.2140 C   0  0  1  0  0  0  0  0  0  0  0  0
   37.7720   28.3930   37.5390 H   0  0  0  0  0  0  0  0  0  0  0  0
   38.6730   29.9640   37.1210 H   0  0  0  0  0  0  0  0  0  0  0  0
   36.3870   30.9090   36.4590 H   0  0  0  0  0  0  0  0  0  0  0  0
   36.9230   29.4540   35.4990 H   0  0  0  0  0  0  0  0  0  0  0  0
   35.4960   28.0010   36.4810 H   0  0  0  0  0  0  0  0  0  0  0  0
   34.4890   29.4640   36.3450 H   0  0  0  0  0  0  0  0  0  0  0  0
   35.2470   27.8670   38.7210 H   0  0  0  0  0  0  0  0  0  0  0  0
   34.0720   29.1790   38.5500 H   0  0  0  0  0  0  0  0  0  0  0  0
   35.4760   30.8460   39.2090 H   0  0  0  0  0  0  0  0  0  0  0  0
   40.2340   30.8540   40.8960 C   0  0  0  0  0  0  0  0  0  0  0  0
   39.4080   30.0720   40.0540 C   0  0  0  0  0  0  0  0  0  0  0  0
   38.2240   30.6790   39.6020 C   0  0  0  0  0  0  0  0  0  0  0  0
   37.9640   31.9660   40.0050 N   0  0  0  0  0  0  0  0  0  0  0  0
   38.7830   32.6710   40.8080 C   0  0  0  0  0  0  0  0  0  0  0  0
   39.9340   32.0990   41.2580 N   0  0  0  0  0  0  0  0  0  0  0  0
   41.1530   30.4120   41.2600 H   0  0  0  0  0  0  0  0  0  0  0  0
   39.6400   29.0690   39.7580 H   0  0  0  0  0  0  0  0  0  0  0  0
   38.3760   33.6600   40.9930 H   0  0  0  0  0  0  0  0  0  0  0  0
   36.0010   29.3010   40.5010 O   0  0  0  0  0  0  0  0  0  0  0  0
   36.5810   27.9270   42.2490 C   0  0  0  0  0  3  0  0  0  0  0  0
   36.3970   28.0470   40.8680 C   0  0  0  0  0  0  0  0  0  0  0  0
   36.6330   26.9200   40.1060 C   0  0  0  0  0  0  0  0  0  0  0  0
   36.4700   27.0880   39.0500 H   0  0  0  0  0  0  0  0  0  0  0  0
   37.0310   25.7320   40.6820 C   0  0  0  0  0  0  0  0  0  0  0  0
   37.2910   24.5820   40.0680 N   0  0  0  0  0  0  0  0  0  0  0  0
   37.6390   23.7300   41.0570 C   0  0  0  0  0  0  0  0  0  0  0  0
   37.9300   22.6910   41.0300 H   0  0  0  0  0  0  0  0  0  0  0  0
   37.6000   24.3300   42.2600 N   0  0  0  0  0  0  0  0  0  0  0  0
   37.2140   25.6090   42.0390 C   0  0  0  0  0  0  0  0  0  0  0  0
   36.9840   26.7220   42.8200 C   0  0  0  0  0  3  0  0  0  0  0  0
   37.2510   24.3320   39.0590 H   0  0  0  0  0  0  0  0  0  0  0  0
  1  6  1  0  0  0  0
  1 18  1  0  0  0  0
  2  7  1  0  0  0  0
  2  1  1  0  0  0  0
  3  4  1  0  0  0  0
  3  2  1  0  0  0  0
  4  5  1  0  0  0  0
  5 14  1  0  0  0  0
  5 13  1  0  0  0  0
  5  6  1  0  0  0  0
  6 15  1  1  0  0  0
  6 25  1  0  0  0  0
  8  2  1  0  0  0  0
  9  3  1  0  0  0  0
 10  3  1  0  0  0  0
 11  4  1  0  0  0  0
 12  4  1  0  0  0  0
 16 21  1  0  0  0  0
 16 22  1  0  0  0  0
 17 16  2  0  0  0  0
 18 19  2  0  0  0  0
 18 17  1  0  0  0  0
 19 20  1  0  0  0  0
 20 24  1  0  0  0  0
 20 21  2  0  0  0  0
 23 17  1  0  0  0  0
 25 27  1  0  0  0  0
 26 36  1  0  0  0  0
 27 26  2  0  0  0  0
 28 30  2  0  0  0  0
 28 27  1  0  0  0  0
 29 28  1  0  0  0  0
 30 35  1  0  0  0  0
 31 30  1  0  0  0  0
 31 32  1  0  0  0  0
 32 34  2  0  0  0  0
 33 32  1  0  0  0  0
 35 34  1  0  0  0  0
 35 36  2  0  0  0  0
 37 31  1  0  0  0  0
M  END
>  <minimizedAffinity>
-5.24648666

$$$$

 OpenBabel03252502253D

 37 40  0  0  1  0  0  0  0  0999 V2000
   37.4680   29.0710   40.6740 N   0  0  0  0  0  0  0  0  0  0  0  0
   38.4210   27.9590   40.6840 C   0  0  0  0  0  0  0  0  0  0  0  0
   38.6570   27.6790   42.1650 C   0  0  0  0  0  0  0  0  0  0  0  0
   39.3440   28.8390   42.8130 C   0  0  0  0  0  0  0  0  0  0  0  0
   38.8450   30.1830   42.3690 C   0  0  0  0  0  0  0  0  0  0  0  0
   37.5680   30.1620   41.5830 C   0  0  1  0  0  0  0  0  0  0  0  0
   39.3750   28.3760   40.2890 H   0  0  0  0  0  0  0  0  0  0  0  0
   38.0410   27.0880   40.1560 H   0  0  0  0  0  0  0  0  0  0  0  0
   37.7240   27.3890   42.6800 H   0  0  0  0  0  0  0  0  0  0  0  0
   39.3800   26.8130   42.1770 H   0  0  0  0  0  0  0  0  0  0  0  0
   40.4280   28.7780   42.5650 H   0  0  0  0  0  0  0  0  0  0  0  0
   39.2810   28.7020   43.9260 H   0  0  0  0  0  0  0  0  0  0  0  0
   39.6260   30.7530   41.8180 H   0  0  0  0  0  0  0  0  0  0  0  0
   38.6490   30.7790   43.2920 H   0  0  0  0  0  0  0  0  0  0  0  0
   36.7170   30.0810   42.3130 H   0  0  0  0  0  0  0  0  0  0  0  0
   34.0830   29.0770   39.1080 C   0  0  0  0  0  0  0  0  0  0  0  0
   35.0510   29.0600   40.1410 C   0  0  0  0  0  0  0  0  0  0  0  0
   36.3960   29.0850   39.7350 C   0  0  0  0  0  0  0  0  0  0  0  0
   36.6650   29.1240   38.3900 N   0  0  0  0  0  0  0  0  0  0  0  0
   35.7070   29.1390   37.4430 C   0  0  0  0  0  0  0  0  0  0  0  0
   34.3980   29.1150   37.8160 N   0  0  0  0  0  0  0  0  0  0  0  0
   33.0380   29.0590   39.3900 H   0  0  0  0  0  0  0  0  0  0  0  0
   34.8080   29.0290   41.1830 H   0  0  0  0  0  0  0  0  0  0  0  0
   36.1510   29.1710   36.4530 H   0  0  0  0  0  0  0  0  0  0  0  0
   37.5000   31.3560   40.8650 O   0  0  0  0  0  0  0  0  0  0  0  0
   38.8570   33.2090   40.8400 C   0  0  0  0  0  3  0  0  0  0  0  0
   38.5210   31.9980   40.2270 C   0  0  0  0  0  0  0  0  0  0  0  0
   39.2460   31.6420   39.1070 C   0  0  0  0  0  0  0  0  0  0  0  0
   38.9310   30.6960   38.6880 H   0  0  0  0  0  0  0  0  0  0  0  0
   40.2540   32.4450   38.6170 C   0  0  0  0  0  0  0  0  0  0  0  0
   41.0230   32.2230   37.5550 N   0  0  0  0  0  0  0  0  0  0  0  0
   41.8470   33.2910   37.4930 C   0  0  0  0  0  0  0  0  0  0  0  0
   42.6360   33.5410   36.7980 H   0  0  0  0  0  0  0  0  0  0  0  0
   41.6030   34.1610   38.4880 N   0  0  0  0  0  0  0  0  0  0  0  0
   40.5880   33.6370   39.2160 C   0  0  0  0  0  0  0  0  0  0  0  0
   39.8770   34.0130   40.3370 C   0  0  0  0  0  3  0  0  0  0  0  0
   41.0350   31.4260   36.8870 H   0  0  0  0  0  0  0  0  0  0  0  0
  1  2  1  0  0  0  0
  1  6  1  0  0  0  0
  2  3  1  0  0  0  0
  3 10  1  0  0  0  0
  3  9  1  0  0  0  0
  3  4  1  0  0  0  0
  4 12  1  0  0  0  0
  5  4  1  0  0  0  0
  5 14  1  0  0  0  0
  6 15  1  1  0  0  0
  6  5  1  0  0  0  0
  7  2  1  0  0  0  0
  8  2  1  0  0  0  0
 11  4  1  0  0  0  0
 13  5  1  0  0  0  0
 16 22  1  0  0  0  0
 16 17  1  0  0  0  0
 17 23  1  0  0  0  0
 18 17  2  0  0  0  0
 18  1  1  0  0  0  0
 19 18  1  0  0  0  0
 20 21  1  0  0  0  0
 20 19  2  0  0  0  0
 21 16  2  0  0  0  0
 24 20  1  0  0  0  0
 25  6  1  0  0  0  0
 27 26  2  0  0  0  0
 27 25  1  0  0  0  0
 28 27  1  0  0  0  0
 29 28  1  0  0  0  0
 30 28  2  0  0  0  0
 30 35  1  0  0  0  0
 31 30  1  0  0  0  0
 32 31  1  0  0  0  0
 32 34  2  0  0  0  0
 33 32  1  0  0  0  0
 34 35  1  0  0  0  0
 35 36  2  0  0  0  0
 36 26  1  0  0  0  0
 37 31  1  0  0  0  0
M  END
>  <minimizedAffinity>
-5.15714121

$$$$
