
 OpenBabel03252503313D

 44 47  0  0  1  0  0  0  0  0999 V2000
   45.4590   34.4260   42.1870 C   0  0  0  0  0  0  0  0  0  0  0  0
   46.5450   35.2160   41.7140 C   0  0  0  0  0  0  0  0  0  0  0  0
   47.8300   34.8020   42.1140 C   0  0  0  0  0  0  0  0  0  0  0  0
   47.9300   33.7150   42.8940 N   0  0  0  0  0  0  0  0  0  0  0  0
   46.8700   32.9980   43.3160 C   0  0  0  0  0  0  0  0  0  0  0  0
   45.6230   33.3650   42.9540 N   0  0  0  0  0  0  0  0  0  0  0  0
   43.8350   34.4320   40.4910 C   0  0  0  0  0  0  0  0  0  0  0  0
   44.7630   33.9140   39.7790 O   0  0  0  0  0  0  0  0  0  0  0  0
   44.1150   34.7790   41.8280 N   0  0  0  0  0  0  0  0  0  0  0  0
   42.5750   34.6210   39.8760 N   0  0  0  0  0  0  0  0  0  0  0  0
   42.4650   34.5370   38.4070 C   0  0  0  0  0  0  0  0  0  0  0  0
   41.3460   35.4900   38.1160 C   0  0  0  0  0  0  0  0  0  0  0  0
   40.8380   35.9570   39.4480 C   0  0  0  0  0  0  0  0  0  0  0  0
   41.2680   34.8750   40.4090 C   0  0  1  0  0  0  0  0  0  0  0  0
   46.2920   36.0690   41.0870 H   0  0  0  0  0  0  0  0  0  0  0  0
   47.0070   32.1270   43.9480 H   0  0  0  0  0  0  0  0  0  0  0  0
   43.3620   35.2340   42.3990 H   0  0  0  0  0  0  0  0  0  0  0  0
   42.1430   33.5240   38.0800 H   0  0  0  0  0  0  0  0  0  0  0  0
   43.3730   34.8990   37.9040 H   0  0  0  0  0  0  0  0  0  0  0  0
   41.6390   36.3280   37.4540 H   0  0  0  0  0  0  0  0  0  0  0  0
   40.4700   34.9870   37.6150 H   0  0  0  0  0  0  0  0  0  0  0  0
   41.6090   36.7680   39.7060 H   0  0  0  0  0  0  0  0  0  0  0  0
   39.9400   36.4740   39.5250 H   0  0  0  0  0  0  0  0  0  0  0  0
   41.1790   35.3430   41.3950 H   0  0  0  0  0  0  0  0  0  0  0  0
   39.7960   33.0630   41.4950 C   0  0  0  0  0  0  0  0  0  0  0  0
   39.8250   33.8460   42.4700 O   0  0  0  0  0  0  0  0  0  0  0  0
   40.4730   33.6550   40.3610 N   0  0  0  0  0  0  0  0  0  0  0  0
   40.3990   33.1790   39.4090 H   0  0  0  0  0  0  0  0  0  0  0  0
   37.8790   31.4860   41.0650 C   0  0  0  0  0  3  0  0  0  0  0  0
   39.1970   31.7630   41.4470 C   0  0  0  0  0  0  0  0  0  0  0  0
   40.0380   30.7260   41.8180 C   0  0  0  0  0  0  0  0  0  0  0  0
   41.0660   30.8730   42.1230 H   0  0  0  0  0  0  0  0  0  0  0  0
   39.6150   29.3980   41.8280 C   0  0  0  0  0  0  0  0  0  0  0  0
   40.1970   28.2130   42.1340 N   0  0  0  0  0  0  0  0  0  0  0  0
   39.2380   27.2700   41.9350 C   0  0  0  0  0  0  0  0  0  0  0  0
   39.3540   26.2000   42.0850 H   0  0  0  0  0  0  0  0  0  0  0  0
   38.0900   27.8410   41.5170 N   0  0  0  0  0  0  0  0  0  0  0  0
   38.3130   29.1490   41.4480 C   0  0  0  0  0  0  0  0  0  0  0  0
   37.4600   30.1620   41.0750 C   0  0  0  0  0  3  0  0  0  0  0  0
   41.1810   28.0900   42.4540 H   0  0  0  0  0  0  0  0  0  0  0  0
   48.9230   35.6340   41.6120 C   0  0  0  0  0  0  0  0  0  0  0  0
   50.1330   35.0700   42.0110 F   0  0  0  0  0  0  0  0  0  0  0  0
   48.8410   36.8580   42.2970 F   0  0  0  0  0  0  0  0  0  0  0  0
   48.9330   35.7860   40.2590 F   0  0  0  0  0  0  0  0  0  0  0  0
  1  6  1  0  0  0  0
  2  3  1  0  0  0  0
  2  1  2  0  0  0  0
  3  4  2  0  0  0  0
  4  5  1  0  0  0  0
  5 16  1  0  0  0  0
  6  5  2  0  0  0  0
  7  9  1  0  0  0  0
  8  7  2  0  0  0  0
  9  1  1  0  0  0  0
  9 17  1  0  0  0  0
 10 14  1  0  0  0  0
 10  7  1  0  0  0  0
 11 10  1  0  0  0  0
 12 11  1  0  0  0  0
 12 13  1  0  0  0  0
 13 23  1  0  0  0  0
 13 22  1  0  0  0  0
 13 14  1  0  0  0  0
 14 24  1  1  0  0  0
 15  2  1  0  0  0  0
 18 11  1  0  0  0  0
 19 11  1  0  0  0  0
 20 12  1  0  0  0  0
 21 12  1  0  0  0  0
 25 26  2  0  0  0  0
 27 14  1  0  0  0  0
 27 25  1  0  0  0  0
 28 27  1  0  0  0  0
 29 39  2  0  0  0  0
 29 30  1  0  0  0  0
 30 25  1  0  0  0  0
 30 31  2  0  0  0  0
 31 33  1  0  0  0  0
 31 32  1  0  0  0  0
 33 34  1  0  0  0  0
 34 40  1  0  0  0  0
 35 36  1  0  0  0  0
 35 34  1  0  0  0  0
 37 35  2  0  0  0  0
 38 37  1  0  0  0  0
 38 33  2  0  0  0  0
 39 38  1  0  0  0  0
 41 42  1  0  0  0  0
 41  3  1  0  0  0  0
 41 43  1  0  0  0  0
 44 41  1  0  0  0  0
M  END
>  <minimizedAffinity>
-7.20883465

>  <minimizedRMSD>
1.32945418

$$$$
