
 OpenBabel03252506373D

 47 51  0  0  1  0  0  0  0  0999 V2000
   46.7230   30.0240   46.6020 S   0  0  0  0  0  0  0  0  0  0  0  0
   44.5230   35.4670   45.1420 C   0  0  0  0  0  0  0  0  0  0  0  0
   45.1930   35.4660   43.9010 C   0  0  0  0  0  0  0  0  0  0  0  0
   46.1300   34.5220   43.6560 C   0  0  0  0  0  0  0  0  0  0  0  0
   46.3700   33.6190   44.6390 N   0  0  0  0  0  0  0  0  0  0  0  0
   45.7390   33.6230   45.8030 C   0  0  0  0  0  0  0  0  0  0  0  0
   44.8100   34.5420   46.0740 N   0  0  0  0  0  0  0  0  0  0  0  0
   46.0770   32.6180   46.7750 N   0  0  0  0  0  0  0  0  0  0  0  0
   45.3310   32.3620   47.9510 C   0  0  0  0  0  0  0  0  0  0  0  0
   46.3970   32.0330   48.9780 C   0  0  0  0  0  0  0  0  0  0  0  0
   47.6900   31.9460   48.2220 C   0  0  0  0  0  0  0  0  0  0  0  0
   47.2080   31.7250   46.7890 C   0  0  1  0  0  0  0  0  0  0  0  0
   43.7790   36.2320   45.3150 H   0  0  0  0  0  0  0  0  0  0  0  0
   46.6470   34.5030   42.7260 H   0  0  0  0  0  0  0  0  0  0  0  0
   44.5400   31.6930   48.0450 H   0  0  0  0  0  0  0  0  0  0  0  0
   44.9370   33.3670   48.3050 H   0  0  0  0  0  0  0  0  0  0  0  0
   46.4900   32.7510   49.7910 H   0  0  0  0  0  0  0  0  0  0  0  0
   46.1640   31.0450   49.4660 H   0  0  0  0  0  0  0  0  0  0  0  0
   48.2770   31.0530   48.5410 H   0  0  0  0  0  0  0  0  0  0  0  0
   48.2650   32.8730   48.3390 H   0  0  0  0  0  0  0  0  0  0  0  0
   48.0460   32.0340   46.1410 H   0  0  0  0  0  0  0  0  0  0  0  0
   44.8250   36.4910   42.9610 N   0  0  0  0  0  0  0  0  0  0  0  0
   45.6160   36.7930   42.3600 H   0  0  0  0  0  0  0  0  0  0  0  0
   43.8810   36.9020   42.8730 H   0  0  0  0  0  0  0  0  0  0  0  0
   45.5750   30.4930   43.5070 O   0  0  0  0  0  0  0  0  0  0  0  0
   44.9910   29.9450   44.4550 C   0  0  0  0  0  0  0  0  0  0  0  0
   45.1490   29.7190   45.9120 C   0  0  1  0  0  0  0  0  0  0  0  0
   44.6350   28.3100   46.0690 C   0  0  0  0  0  0  0  0  0  0  0  0
   43.2890   28.5000   45.3590 C   0  0  0  0  0  0  0  0  0  0  0  0
   43.7410   29.2710   44.2080 N   0  0  0  0  0  0  0  0  0  0  0  0
   44.2720   30.3100   46.2960 H   0  0  0  0  0  0  0  0  0  0  0  0
   45.1970   27.5810   45.4550 H   0  0  0  0  0  0  0  0  0  0  0  0
   44.4750   28.0150   47.1120 H   0  0  0  0  0  0  0  0  0  0  0  0
   42.9400   27.5060   45.0470 H   0  0  0  0  0  0  0  0  0  0  0  0
   42.5710   29.0560   45.9830 H   0  0  0  0  0  0  0  0  0  0  0  0
   43.1540   28.1640   42.2040 C   0  0  0  0  0  3  0  0  0  0  0  0
   42.8990   29.2440   43.0340 C   0  0  0  0  0  0  0  0  0  0  0  0
   41.9340   30.1610   42.7210 C   0  0  0  0  0  0  0  0  0  0  0  0
   41.7980   30.9730   43.4210 H   0  0  0  0  0  0  0  0  0  0  0  0
   41.1960   30.0140   41.5570 C   0  0  0  0  0  0  0  0  0  0  0  0
   40.2100   30.7670   41.0380 N   0  0  0  0  0  0  0  0  0  0  0  0
   39.8400   30.1600   39.8720 C   0  0  0  0  0  0  0  0  0  0  0  0
   39.0600   30.4940   39.1760 H   0  0  0  0  0  0  0  0  0  0  0  0
   40.5650   29.0570   39.6550 N   0  0  0  0  0  0  0  0  0  0  0  0
   41.4160   28.9410   40.6870 C   0  0  0  0  0  0  0  0  0  0  0  0
   42.4120   28.0300   41.0470 C   0  0  0  0  0  3  0  0  0  0  0  0
   39.8040   31.6430   41.4390 H   0  0  0  0  0  0  0  0  0  0  0  0
  1 12  1  0  0  0  0
  2 13  1  0  0  0  0
  2  7  1  0  0  0  0
  3  2  2  0  0  0  0
  4  3  1  0  0  0  0
  4  5  2  0  0  0  0
  5  6  1  0  0  0  0
  6  7  2  0  0  0  0
  6  8  1  0  0  0  0
  8 12  1  0  0  0  0
  8  9  1  0  0  0  0
  9 15  1  0  0  0  0
  9 16  1  0  0  0  0
  9 10  1  0  0  0  0
 10 18  1  0  0  0  0
 10 17  1  0  0  0  0
 11 20  1  0  0  0  0
 11 19  1  0  0  0  0
 11 10  1  0  0  0  0
 12 21  1  6  0  0  0
 12 11  1  0  0  0  0
 14  4  1  0  0  0  0
 22  3  1  0  0  0  0
 23 22  1  0  0  0  0
 24 22  1  0  0  0  0
 25 26  2  0  0  0  0
 26 27  1  0  0  0  0
 27 28  1  0  0  0  0
 27 31  1  1  0  0  0
 27  1  1  0  0  0  0
 28 33  1  0  0  0  0
 29 35  1  0  0  0  0
 29 28  1  0  0  0  0
 30 26  1  0  0  0  0
 30 29  1  0  0  0  0
 32 28  1  0  0  0  0
 34 29  1  0  0  0  0
 36 37  1  0  0  0  0
 37 30  1  0  0  0  0
 38 37  2  0  0  0  0
 38 39  1  0  0  0  0
 40 38  1  0  0  0  0
 41 47  1  0  0  0  0
 41 40  1  0  0  0  0
 42 41  1  0  0  0  0
 43 42  1  0  0  0  0
 44 42  2  0  0  0  0
 44 45  1  0  0  0  0
 45 46  1  0  0  0  0
 45 40  2  0  0  0  0
 46 36  2  0  0  0  0
M  END
>  <minimizedAffinity>
-5.62338209

>  <minimizedRMSD>
0.150628254

$$$$
