
 OpenBabel03252507323D

 52 56  0  0  1  0  0  0  0  0999 V2000
   46.9590   32.7950   45.5010 C   0  0  0  0  0  0  0  0  0  0  0  0
   45.8590   33.4620   46.0180 C   0  0  0  0  0  0  0  0  0  0  0  0
   45.1710   34.4010   45.2140 C   0  0  0  0  0  0  0  0  0  0  0  0
   45.6660   34.5940   43.9260 N   0  0  0  0  0  0  0  0  0  0  0  0
   46.7330   33.9190   43.4920 C   0  0  0  0  0  0  0  0  0  0  0  0
   47.3690   33.0360   44.2620 N   0  0  0  0  0  0  0  0  0  0  0  0
   45.3460   33.4970   46.9550 H   0  0  0  0  0  0  0  0  0  0  0  0
   44.3150   34.9950   45.4480 H   0  0  0  0  0  0  0  0  0  0  0  0
   47.6150   31.8260   46.3570 C   0  0  2  0  0  0  0  0  0  0  0  0
   47.4030   30.3710   45.8360 C   0  0  0  0  0  0  0  0  0  0  0  0
   48.2290   29.4340   46.6510 C   0  0  0  0  0  0  0  0  0  0  0  0
   48.1970   29.6450   48.1270 C   0  0  0  0  0  0  0  0  0  0  0  0
   48.1620   31.0300   48.5300 C   0  0  0  0  0  0  0  0  0  0  0  0
   47.1570   31.8860   47.7300 C   0  0  2  0  0  0  0  0  0  0  0  0
   48.7220   31.9410   46.2470 H   0  0  0  0  0  0  0  0  0  0  0  0
   46.3360   30.1290   45.7780 H   0  0  0  0  0  0  0  0  0  0  0  0
   47.7770   30.4120   44.7930 H   0  0  0  0  0  0  0  0  0  0  0  0
   49.2290   29.4100   46.1740 H   0  0  0  0  0  0  0  0  0  0  0  0
   47.8100   28.3990   46.4770 H   0  0  0  0  0  0  0  0  0  0  0  0
   47.8350   28.8340   48.7580 H   0  0  0  0  0  0  0  0  0  0  0  0
   49.3130   29.4130   48.3650 H   0  0  0  0  0  0  0  0  0  0  0  0
   49.1070   31.6260   48.4920 H   0  0  0  0  0  0  0  0  0  0  0  0
   47.8270   31.1050   49.5980 H   0  0  0  0  0  0  0  0  0  0  0  0
   47.2490   32.8470   48.2380 H   0  0  0  0  0  0  0  0  0  0  0  0
   45.8300   31.2770   47.8420 N   0  0  0  0  0  0  0  0  0  0  0  0
   45.1530   30.7150   48.9380 C   0  0  0  0  0  0  0  0  0  0  0  0
   44.5950   31.4210   49.8520 O   0  0  0  0  0  0  0  0  0  0  0  0
   45.1260   29.2870   48.9530 N   0  0  0  0  0  0  0  0  0  0  0  0
   45.1930   31.1270   46.9720 H   0  0  0  0  0  0  0  0  0  0  0  0
   44.8460   28.6130   48.2370 H   0  0  0  0  0  0  0  0  0  0  0  0
   45.4330   28.7860   49.8160 H   0  0  0  0  0  0  0  0  0  0  0  0
   47.2160   34.1840   42.1320 C   0  0  0  0  0  0  0  0  0  0  0  0
   48.1740   35.1430   41.8920 C   0  0  0  0  0  0  0  0  0  0  0  0
   48.6760   35.4470   40.6460 C   0  0  0  0  0  0  0  0  0  0  0  0
   48.1460   34.7080   39.6120 C   0  0  0  0  0  0  0  0  0  0  0  0
   47.1900   33.7460   39.8330 C   0  0  0  0  0  0  0  0  0  0  0  0
   46.7250   33.4850   41.0950 N   0  0  0  0  0  0  0  0  0  0  0  0
   48.5430   35.6840   42.7590 H   0  0  0  0  0  0  0  0  0  0  0  0
   49.4180   36.1960   40.4950 H   0  0  0  0  0  0  0  0  0  0  0  0
   48.5060   34.9070   38.6140 H   0  0  0  0  0  0  0  0  0  0  0  0
   47.4340   32.2400   37.9150 C   0  0  0  0  0  3  0  0  0  0  0  0
   46.6090   32.9480   38.7620 C   0  0  0  0  0  0  0  0  0  0  0  0
   45.2660   32.8350   38.5190 C   0  0  0  0  0  0  0  0  0  0  0  0
   44.5730   33.3570   39.1400 H   0  0  0  0  0  0  0  0  0  0  0  0
   44.7190   32.0770   37.5040 C   0  0  0  0  0  0  0  0  0  0  0  0
   43.4360   31.8500   37.1180 N   0  0  0  0  0  0  0  0  0  0  0  0
   43.4630   31.0300   36.0660 C   0  0  0  0  0  0  0  0  0  0  0  0
   42.5420   30.7070   35.5820 H   0  0  0  0  0  0  0  0  0  0  0  0
   44.7620   30.7320   35.7780 N   0  0  0  0  0  0  0  0  0  0  0  0
   45.5650   31.3710   36.6580 C   0  0  0  0  0  0  0  0  0  0  0  0
   46.9220   31.4600   36.8740 C   0  0  0  0  0  3  0  0  0  0  0  0
   42.5980   32.2610   37.5850 H   0  0  0  0  0  0  0  0  0  0  0  0
  1  2  1  0  0  0  0
  1  9  1  0  0  0  0
  2  7  1  0  0  0  0
  3  8  1  0  0  0  0
  3  2  2  0  0  0  0
  4  3  1  0  0  0  0
  5  4  2  0  0  0  0
  5  6  1  0  0  0  0
  6  1  2  0  0  0  0
  9 15  1  6  0  0  0
  9 14  1  0  0  0  0
 10  9  1  0  0  0  0
 10 11  1  0  0  0  0
 11 12  1  0  0  0  0
 12 21  1  0  0  0  0
 12 13  1  0  0  0  0
 12 20  1  0  0  0  0
 13 23  1  0  0  0  0
 14 25  1  0  0  0  0
 14 24  1  1  0  0  0
 14 13  1  0  0  0  0
 16 10  1  0  0  0  0
 17 10  1  0  0  0  0
 18 11  1  0  0  0  0
 19 11  1  0  0  0  0
 22 13  1  0  0  0  0
 25 26  1  0  0  0  0
 26 28  1  0  0  0  0
 26 27  2  0  0  0  0
 28 31  1  0  0  0  0
 29 25  1  0  0  0  0
 30 28  1  0  0  0  0
 32  5  1  0  0  0  0
 33 32  1  0  0  0  0
 33 38  1  0  0  0  0
 34 33  2  0  0  0  0
 35 36  2  0  0  0  0
 35 34  1  0  0  0  0
 36 37  1  0  0  0  0
 37 32  2  0  0  0  0
 39 34  1  0  0  0  0
 40 35  1  0  0  0  0
 41 42  1  0  0  0  0
 42 36  1  0  0  0  0
 43 42  2  0  0  0  0
 43 44  1  0  0  0  0
 45 43  1  0  0  0  0
 46 45  1  0  0  0  0
 46 52  1  0  0  0  0
 47 46  1  0  0  0  0
 48 47  1  0  0  0  0
 49 47  2  0  0  0  0
 49 50  1  0  0  0  0
 50 51  1  0  0  0  0
 50 45  2  0  0  0  0
 51 41  2  0  0  0  0
M  END
>  <minimizedAffinity>
-6.80075455

>  <minimizedRMSD>
0.284994811

$$$$
