
 OpenBabel03252504533D

 24 26  0  0  0  0  0  0  0  0999 V2000
   46.9020   34.9030   41.9370 C   0  0  0  0  0  0  0  0  0  0  0  0
   47.2400   35.9030   41.6280 H   0  0  0  0  0  0  0  0  0  0  0  0
   47.8290   34.3160   42.1090 H   0  0  0  0  0  0  0  0  0  0  0  0
   46.9370   33.7100   39.7900 C   0  0  0  0  0  3  0  0  0  0  0  0
   46.1830   34.2360   40.8180 C   0  0  0  0  0  0  0  0  0  0  0  0
   44.8070   34.1370   40.7950 C   0  0  0  0  0  0  0  0  0  0  0  0
   44.1990   34.5500   41.6040 H   0  0  0  0  0  0  0  0  0  0  0  0
   44.1600   33.5120   39.7450 C   0  0  0  0  0  0  0  0  0  0  0  0
   42.8520   33.2690   39.4560 N   0  0  0  0  0  0  0  0  0  0  0  0
   42.8500   32.6050   38.2630 C   0  0  0  0  0  0  0  0  0  0  0  0
   41.9450   32.2740   37.7690 H   0  0  0  0  0  0  0  0  0  0  0  0
   44.1180   32.4380   37.8210 N   0  0  0  0  0  0  0  0  0  0  0  0
   44.9250   32.9990   38.7380 C   0  0  0  0  0  0  0  0  0  0  0  0
   46.3130   33.0740   38.7180 C   0  0  0  0  0  3  0  0  0  0  0  0
   42.0310   33.5440   40.0410 H   0  0  0  0  0  0  0  0  0  0  0  0
   44.5820   36.0610   44.6030 C   0  0  0  0  0  0  0  0  0  0  0  0
   45.3150   36.0160   43.3970 C   0  0  0  0  0  0  0  0  0  0  0  0
   46.1510   34.9330   43.1900 C   0  0  0  0  0  0  0  0  0  0  0  0
   46.2320   33.9660   44.1500 N   0  0  0  0  0  0  0  0  0  0  0  0
   45.5140   34.0470   45.2900 C   0  0  0  0  0  0  0  0  0  0  0  0
   44.6980   35.0800   45.5190 N   0  0  0  0  0  0  0  0  0  0  0  0
   43.9140   36.8870   44.8130 H   0  0  0  0  0  0  0  0  0  0  0  0
   45.1780   36.8280   42.7110 H   0  0  0  0  0  0  0  0  0  0  0  0
   45.6190   33.2380   46.0280 H   0  0  0  0  0  0  0  0  0  0  0  0
  1  3  1  0  0  0  0
  1 18  1  0  0  0  0
  2  1  1  0  0  0  0
  4  5  1  0  0  0  0
  5  1  1  0  0  0  0
  6  5  2  0  0  0  0
  6  7  1  0  0  0  0
  8  6  1  0  0  0  0
  9  8  1  0  0  0  0
  9 15  1  0  0  0  0
 10  9  1  0  0  0  0
 11 10  1  0  0  0  0
 12 10  2  0  0  0  0
 12 13  1  0  0  0  0
 13  8  2  0  0  0  0
 14 13  1  0  0  0  0
 14  4  2  0  0  0  0
 16 22  1  0  0  0  0
 16 21  1  0  0  0  0
 17 16  2  0  0  0  0
 18 17  1  0  0  0  0
 18 19  2  0  0  0  0
 19 20  1  0  0  0  0
 20 21  2  0  0  0  0
 20 24  1  0  0  0  0
 23 17  1  0  0  0  0
M  END
>  <minimizedAffinity>
-4.54040956

>  <minimizedRMSD>
0.452400893

$$$$
