
 OpenBabel03252502313D

 27 29  0  0  0  0  0  0  0  0999 V2000
   47.9980   34.5980   42.5160 C   0  0  0  0  0  0  0  0  0  0  0  0
   47.9530   33.5460   43.4560 C   0  0  0  0  0  0  0  0  0  0  0  0
   46.8020   33.4330   44.2530 C   0  0  0  0  0  0  0  0  0  0  0  0
   45.8110   34.3390   44.0680 N   0  0  0  0  0  0  0  0  0  0  0  0
   45.8830   35.3350   43.1600 C   0  0  0  0  0  0  0  0  0  0  0  0
   46.9700   35.4610   42.3920 N   0  0  0  0  0  0  0  0  0  0  0  0
   48.7470   32.8470   43.5790 H   0  0  0  0  0  0  0  0  0  0  0  0
   47.4250   31.2780   45.1450 C   0  0  0  0  0  0  0  0  0  0  0  0
   46.6270   32.3960   45.2570 C   0  0  0  0  0  0  0  0  0  0  0  0
   45.7170   32.4940   46.2860 C   0  0  0  0  0  0  0  0  0  0  0  0
   45.0910   33.3460   46.3920 H   0  0  0  0  0  0  0  0  0  0  0  0
   45.6330   31.4500   47.1840 C   0  0  0  0  0  0  0  0  0  0  0  0
   44.8180   31.3260   48.2660 N   0  0  0  0  0  0  0  0  0  0  0  0
   45.1330   30.1170   48.8110 C   0  0  0  0  0  0  0  0  0  0  0  0
   44.5950   29.8070   49.7000 H   0  0  0  0  0  0  0  0  0  0  0  0
   46.1000   29.5270   48.0890 N   0  0  0  0  0  0  0  0  0  0  0  0
   46.4270   30.3290   47.0810 C   0  0  0  0  0  0  0  0  0  0  0  0
   47.3420   30.2280   46.0490 C   0  0  0  0  0  0  0  0  0  0  0  0
   44.1070   32.0330   48.5880 H   0  0  0  0  0  0  0  0  0  0  0  0
   49.2210   34.6980   41.6830 C   0  0  0  0  0  0  0  0  0  0  0  0
   49.4510   33.5460   40.9710 F   0  0  0  0  0  0  0  0  0  0  0  0
   49.0980   35.7880   40.8300 F   0  0  0  0  0  0  0  0  0  0  0  0
   50.3190   34.9910   42.5090 F   0  0  0  0  0  0  0  0  0  0  0  0
   44.7630   36.2940   43.0100 C   0  0  0  0  0  0  0  0  0  0  0  0
   44.1380   36.1470   41.8030 F   0  0  0  0  0  0  0  0  0  0  0  0
   45.2290   37.6110   43.1550 F   0  0  0  0  0  0  0  0  0  0  0  0
   43.8160   36.1410   44.0000 F   0  0  0  0  0  0  0  0  0  0  0  0
  1  2  1  0  0  0  0
  2  7  1  0  0  0  0
  2  3  2  0  0  0  0
  3  9  1  0  0  0  0
  4  3  1  0  0  0  0
  5  4  2  0  0  0  0
  6  1  2  0  0  0  0
  6  5  1  0  0  0  0
  8  9  2  0  0  0  0
  8 18  1  0  0  0  0
  9 10  1  0  0  0  0
 10 11  1  0  0  0  0
 10 12  2  0  0  0  0
 12 13  1  0  0  0  0
 13 19  1  0  0  0  0
 13 14  1  0  0  0  0
 14 15  1  0  0  0  0
 16 14  2  0  0  0  0
 17 12  1  0  0  0  0
 17 16  1  0  0  0  0
 18 17  2  0  0  0  0
 20 23  1  0  0  0  0
 20  1  1  0  0  0  0
 21 20  1  0  0  0  0
 22 20  1  0  0  0  0
 24 26  1  0  0  0  0
 24  5  1  0  0  0  0
 24 27  1  0  0  0  0
 25 24  1  0  0  0  0
M  END
>  <minimizedAffinity>
-6.42506838

>  <minimizedRMSD>
1.55055046

$$$$
