
 OpenBabel03252503543D

 39 42  0  0  1  0  0  0  0  0999 V2000
   36.0670   29.5190   37.3390 N   0  0  0  0  0  0  0  0  0  0  0  0
   35.8100   29.3300   35.9080 C   0  0  0  0  0  0  0  0  0  0  0  0
   34.2990   29.1930   35.7700 C   0  0  0  0  0  0  0  0  0  0  0  0
   33.9240   27.8470   36.3320 C   0  0  0  0  0  0  0  0  0  0  0  0
   34.4170   27.7840   37.7450 C   0  0  0  0  0  0  0  0  0  0  0  0
   35.1170   28.9830   38.2390 C   0  0  1  0  0  0  0  0  0  0  0  0
   36.2590   28.3400   35.6570 H   0  0  0  0  0  0  0  0  0  0  0  0
   36.2160   30.1540   35.3090 H   0  0  0  0  0  0  0  0  0  0  0  0
   33.9570   29.3540   34.7460 H   0  0  0  0  0  0  0  0  0  0  0  0
   33.8600   29.9470   36.4870 H   0  0  0  0  0  0  0  0  0  0  0  0
   32.8540   27.6060   36.2080 H   0  0  0  0  0  0  0  0  0  0  0  0
   34.5030   27.0760   35.7450 H   0  0  0  0  0  0  0  0  0  0  0  0
   33.4910   27.6600   38.3820 H   0  0  0  0  0  0  0  0  0  0  0  0
   34.9830   26.8270   37.9450 H   0  0  0  0  0  0  0  0  0  0  0  0
   34.4150   29.7350   38.6460 H   0  0  0  0  0  0  0  0  0  0  0  0
   36.4720   27.1930   39.4060 C   0  0  0  0  0  3  0  0  0  0  0  0
   35.8690   28.4350   39.4550 C   0  0  0  0  0  0  0  0  0  0  0  0
   35.9360   29.1450   40.6640 C   0  0  0  0  0  0  0  0  0  0  0  0
   35.4580   30.0910   40.6470 H   0  0  0  0  0  0  0  0  0  0  0  0
   36.5860   28.5940   41.7390 C   0  0  0  0  0  0  0  0  0  0  0  0
   36.7520   29.1300   42.9840 N   0  0  0  0  0  0  0  0  0  0  0  0
   37.4560   28.2060   43.6800 C   0  0  0  0  0  0  0  0  0  0  0  0
   37.7260   28.3890   44.7150 H   0  0  0  0  0  0  0  0  0  0  0  0
   37.7130   27.1420   42.8910 N   0  0  0  0  0  0  0  0  0  0  0  0
   37.1810   27.3520   41.6620 C   0  0  0  0  0  0  0  0  0  0  0  0
   37.1260   26.6420   40.4900 C   0  0  0  0  0  3  0  0  0  0  0  0
   36.4060   30.0570   43.3210 H   0  0  0  0  0  0  0  0  0  0  0  0
   38.2990   31.9830   38.9420 C   0  0  0  0  0  0  0  0  0  0  0  0
   37.1270   31.3760   38.4830 C   0  0  0  0  0  0  0  0  0  0  0  0
   37.2060   30.1850   37.7840 C   0  0  0  0  0  0  0  0  0  0  0  0
   38.4410   29.6570   37.5710 N   0  0  0  0  0  0  0  0  0  0  0  0
   39.5760   30.2510   38.0150 C   0  0  0  0  0  0  0  0  0  0  0  0
   39.4970   31.4170   38.7030 N   0  0  0  0  0  0  0  0  0  0  0  0
   36.2130   31.9020   38.6820 H   0  0  0  0  0  0  0  0  0  0  0  0
   40.5490   29.7890   37.8190 H   0  0  0  0  0  0  0  0  0  0  0  0
   38.1580   33.2530   39.7290 C   0  0  0  0  0  0  0  0  0  0  0  0
   36.9820   33.9250   39.4110 F   0  0  0  0  0  0  0  0  0  0  0  0
   38.1910   32.9110   41.0630 F   0  0  0  0  0  0  0  0  0  0  0  0
   39.2400   34.0840   39.4690 F   0  0  0  0  0  0  0  0  0  0  0  0
  1 30  1  0  0  0  0
  1  6  1  0  0  0  0
  2  1  1  0  0  0  0
  3  2  1  0  0  0  0
  3  4  1  0  0  0  0
  3 10  1  0  0  0  0
  4  5  1  0  0  0  0
  5 14  1  0  0  0  0
  5  6  1  0  0  0  0
  5 13  1  0  0  0  0
  6 15  1  1  0  0  0
  6 17  1  0  0  0  0
  7  2  1  0  0  0  0
  8  2  1  0  0  0  0
  9  3  1  0  0  0  0
 11  4  1  0  0  0  0
 12  4  1  0  0  0  0
 16 17  2  0  0  0  0
 16 26  1  0  0  0  0
 17 18  1  0  0  0  0
 18 20  2  0  0  0  0
 19 18  1  0  0  0  0
 20 21  1  0  0  0  0
 21 27  1  0  0  0  0
 21 22  1  0  0  0  0
 22 23  1  0  0  0  0
 24 22  2  0  0  0  0
 25 20  1  0  0  0  0
 25 24  1  0  0  0  0
 26 25  2  0  0  0  0
 28 36  1  0  0  0  0
 29 34  1  0  0  0  0
 29 28  2  0  0  0  0
 30 29  1  0  0  0  0
 31 30  2  0  0  0  0
 31 32  1  0  0  0  0
 32 33  2  0  0  0  0
 33 28  1  0  0  0  0
 35 32  1  0  0  0  0
 36 38  1  0  0  0  0
 37 36  1  0  0  0  0
 39 36  1  0  0  0  0
M  END
>  <minimizedAffinity>
-6.44347572

$$$$

 OpenBabel03252503543D

 39 42  0  0  1  0  0  0  0  0999 V2000
   37.4510   28.2300   40.8310 N   0  0  0  0  0  0  0  0  0  0  0  0
   37.8060   26.9230   41.3900 C   0  0  0  0  0  0  0  0  0  0  0  0
   37.0310   26.8030   42.6950 C   0  0  0  0  0  0  0  0  0  0  0  0
   37.6730   27.7430   43.6800 C   0  0  0  0  0  0  0  0  0  0  0  0
   37.6570   29.1170   43.0830 C   0  0  0  0  0  0  0  0  0  0  0  0
   37.0500   29.2330   41.7440 C   0  0  1  0  0  0  0  0  0  0  0  0
   38.8880   26.9980   41.6500 H   0  0  0  0  0  0  0  0  0  0  0  0
   37.5840   26.1070   40.6900 H   0  0  0  0  0  0  0  0  0  0  0  0
   36.9660   25.7720   43.0490 H   0  0  0  0  0  0  0  0  0  0  0  0
   36.0130   27.2440   42.4850 H   0  0  0  0  0  0  0  0  0  0  0  0
   37.2400   27.6780   44.6920 H   0  0  0  0  0  0  0  0  0  0  0  0
   38.7550   27.4340   43.7670 H   0  0  0  0  0  0  0  0  0  0  0  0
   37.0260   29.7430   43.7830 H   0  0  0  0  0  0  0  0  0  0  0  0
   38.6690   29.6140   43.1530 H   0  0  0  0  0  0  0  0  0  0  0  0
   35.9530   29.3740   41.7960 H   0  0  0  0  0  0  0  0  0  0  0  0
   36.8220   31.4250   40.5030 C   0  0  0  0  0  3  0  0  0  0  0  0
   37.6060   30.5730   41.2560 C   0  0  0  0  0  0  0  0  0  0  0  0
   38.9300   30.9620   41.5140 C   0  0  0  0  0  0  0  0  0  0  0  0
   39.4860   30.2710   42.0960 H   0  0  0  0  0  0  0  0  0  0  0  0
   39.3960   32.1530   41.0210 C   0  0  0  0  0  0  0  0  0  0  0  0
   40.6420   32.6920   41.1670 N   0  0  0  0  0  0  0  0  0  0  0  0
   40.6020   33.8700   40.5000 C   0  0  0  0  0  0  0  0  0  0  0  0
   41.4800   34.5070   40.4620 H   0  0  0  0  0  0  0  0  0  0  0  0
   39.3770   34.0480   39.9640 N   0  0  0  0  0  0  0  0  0  0  0  0
   38.5910   32.9870   40.2720 C   0  0  0  0  0  0  0  0  0  0  0  0
   37.2950   32.6250   40.0090 C   0  0  0  0  0  3  0  0  0  0  0  0
   41.4500   32.2780   41.6850 H   0  0  0  0  0  0  0  0  0  0  0  0
   36.5160   28.8070   37.3060 C   0  0  0  0  0  0  0  0  0  0  0  0
   36.3910   28.5210   38.6690 C   0  0  0  0  0  0  0  0  0  0  0  0
   37.5240   28.4720   39.4610 C   0  0  0  0  0  0  0  0  0  0  0  0
   38.7230   28.7040   38.8650 N   0  0  0  0  0  0  0  0  0  0  0  0
   38.8410   28.9780   37.5420 C   0  0  0  0  0  0  0  0  0  0  0  0
   37.7300   29.0290   36.7660 N   0  0  0  0  0  0  0  0  0  0  0  0
   35.3970   28.3230   39.0210 H   0  0  0  0  0  0  0  0  0  0  0  0
   39.8290   29.1580   37.1050 H   0  0  0  0  0  0  0  0  0  0  0  0
   35.2550   28.8880   36.4980 C   0  0  0  0  0  0  0  0  0  0  0  0
   34.8700   27.6380   36.0230 F   0  0  0  0  0  0  0  0  0  0  0  0
   34.2850   29.4320   37.3120 F   0  0  0  0  0  0  0  0  0  0  0  0
   35.4460   29.7440   35.4220 F   0  0  0  0  0  0  0  0  0  0  0  0
  1  2  1  0  0  0  0
  1  6  1  0  0  0  0
  2  7  1  0  0  0  0
  2  3  1  0  0  0  0
  3  9  1  0  0  0  0
  3  4  1  0  0  0  0
  4 12  1  0  0  0  0
  4 11  1  0  0  0  0
  5 14  1  0  0  0  0
  5  4  1  0  0  0  0
  5 13  1  0  0  0  0
  6 15  1  1  0  0  0
  6  5  1  0  0  0  0
  8  2  1  0  0  0  0
 10  3  1  0  0  0  0
 16 17  1  0  0  0  0
 17 18  2  0  0  0  0
 17  6  1  0  0  0  0
 18 19  1  0  0  0  0
 20 21  1  0  0  0  0
 20 18  1  0  0  0  0
 21 27  1  0  0  0  0
 22 21  1  0  0  0  0
 23 22  1  0  0  0  0
 24 25  1  0  0  0  0
 24 22  2  0  0  0  0
 25 20  2  0  0  0  0
 26 25  1  0  0  0  0
 26 16  2  0  0  0  0
 28 29  1  0  0  0  0
 29 34  1  0  0  0  0
 29 30  2  0  0  0  0
 30  1  1  0  0  0  0
 31 30  1  0  0  0  0
 32 31  2  0  0  0  0
 33 28  2  0  0  0  0
 33 32  1  0  0  0  0
 35 32  1  0  0  0  0
 36 28  1  0  0  0  0
 36 38  1  0  0  0  0
 37 36  1  0  0  0  0
 39 36  1  0  0  0  0
M  END
>  <minimizedAffinity>
-6.22722101

$$$$

 OpenBabel03252503543D

 39 42  0  0  1  0  0  0  0  0999 V2000
   38.4010   31.0810   40.3550 N   0  0  0  0  0  0  0  0  0  0  0  0
   39.4420   32.0680   40.6600 C   0  0  0  0  0  0  0  0  0  0  0  0
   38.7060   33.3480   41.0350 C   0  0  0  0  0  0  0  0  0  0  0  0
   38.1140   33.9060   39.7690 C   0  0  0  0  0  0  0  0  0  0  0  0
   37.2370   32.8510   39.1670 C   0  0  0  0  0  0  0  0  0  0  0  0
   37.1550   31.5790   39.9070 C   0  0  1  0  0  0  0  0  0  0  0  0
   39.9630   32.2540   39.6900 H   0  0  0  0  0  0  0  0  0  0  0  0
   40.1140   31.7180   41.4530 H   0  0  0  0  0  0  0  0  0  0  0  0
   39.3440   34.0530   41.5710 H   0  0  0  0  0  0  0  0  0  0  0  0
   37.8230   33.0190   41.6560 H   0  0  0  0  0  0  0  0  0  0  0  0
   37.6230   34.8840   39.9100 H   0  0  0  0  0  0  0  0  0  0  0  0
   38.9710   34.0700   39.0530 H   0  0  0  0  0  0  0  0  0  0  0  0
   36.1950   33.2930   39.1600 H   0  0  0  0  0  0  0  0  0  0  0  0
   37.4510   32.7090   38.0670 H   0  0  0  0  0  0  0  0  0  0  0  0
   36.3770   31.6050   40.6940 H   0  0  0  0  0  0  0  0  0  0  0  0
   35.6040   29.7330   39.1410 C   0  0  0  0  0  3  0  0  0  0  0  0
   36.6160   30.6220   38.8400 C   0  0  0  0  0  0  0  0  0  0  0  0
   37.1540   30.5830   37.5430 C   0  0  0  0  0  0  0  0  0  0  0  0
   37.9280   31.2870   37.3660 H   0  0  0  0  0  0  0  0  0  0  0  0
   36.6670   29.6810   36.6340 C   0  0  0  0  0  0  0  0  0  0  0  0
   37.0620   29.4970   35.3390 N   0  0  0  0  0  0  0  0  0  0  0  0
   36.2820   28.4960   34.8660 C   0  0  0  0  0  0  0  0  0  0  0  0
   36.3960   28.1510   33.8440 H   0  0  0  0  0  0  0  0  0  0  0  0
   35.4400   28.0790   35.8350 N   0  0  0  0  0  0  0  0  0  0  0  0
   35.6540   28.8030   36.9610 C   0  0  0  0  0  0  0  0  0  0  0  0
   35.1150   28.8260   38.2220 C   0  0  0  0  0  3  0  0  0  0  0  0
   37.8080   30.0220   34.8290 H   0  0  0  0  0  0  0  0  0  0  0  0
   38.2630   27.5850   41.5310 C   0  0  0  0  0  0  0  0  0  0  0  0
   38.0170   28.9600   41.4650 C   0  0  0  0  0  0  0  0  0  0  0  0
   38.6410   29.7160   40.4900 C   0  0  0  0  0  0  0  0  0  0  0  0
   39.4790   29.0760   39.6310 N   0  0  0  0  0  0  0  0  0  0  0  0
   39.7170   27.7430   39.7010 C   0  0  0  0  0  0  0  0  0  0  0  0
   39.1030   27.0010   40.6560 N   0  0  0  0  0  0  0  0  0  0  0  0
   37.3630   29.3600   42.2160 H   0  0  0  0  0  0  0  0  0  0  0  0
   40.4010   27.2700   38.9880 H   0  0  0  0  0  0  0  0  0  0  0  0
   37.5330   26.8020   42.5820 C   0  0  0  0  0  0  0  0  0  0  0  0
   37.1760   25.5380   42.1250 F   0  0  0  0  0  0  0  0  0  0  0  0
   38.3640   26.7180   43.6780 F   0  0  0  0  0  0  0  0  0  0  0  0
   36.3870   27.4880   42.9610 F   0  0  0  0  0  0  0  0  0  0  0  0
  1 30  1  0  0  0  0
  1  2  1  0  0  0  0
  2  3  1  0  0  0  0
  2  8  1  0  0  0  0
  3  9  1  0  0  0  0
  3 10  1  0  0  0  0
  4 11  1  0  0  0  0
  4  3  1  0  0  0  0
  5  4  1  0  0  0  0
  5  6  1  0  0  0  0
  6  1  1  0  0  0  0
  6 15  1  1  0  0  0
  7  2  1  0  0  0  0
 12  4  1  0  0  0  0
 13  5  1  0  0  0  0
 14  5  1  0  0  0  0
 17 16  1  0  0  0  0
 17  6  1  0  0  0  0
 18 17  2  0  0  0  0
 19 18  1  0  0  0  0
 20 25  2  0  0  0  0
 20 18  1  0  0  0  0
 21 20  1  0  0  0  0
 22 21  1  0  0  0  0
 22 24  2  0  0  0  0
 23 22  1  0  0  0  0
 24 25  1  0  0  0  0
 25 26  1  0  0  0  0
 26 16  2  0  0  0  0
 27 21  1  0  0  0  0
 28 36  1  0  0  0  0
 29 28  1  0  0  0  0
 29 34  1  0  0  0  0
 30 29  2  0  0  0  0
 31 32  2  0  0  0  0
 31 30  1  0  0  0  0
 32 33  1  0  0  0  0
 33 28  2  0  0  0  0
 35 32  1  0  0  0  0
 36 39  1  0  0  0  0
 36 38  1  0  0  0  0
 37 36  1  0  0  0  0
M  END
>  <minimizedAffinity>
-6.10917807

$$$$

 OpenBabel03252503543D

 39 42  0  0  1  0  0  0  0  0999 V2000
   37.9150   29.3830   41.4770 N   0  0  0  0  0  0  0  0  0  0  0  0
   37.7400   29.2860   42.9300 C   0  0  0  0  0  0  0  0  0  0  0  0
   38.1440   27.8670   43.3050 C   0  0  0  0  0  0  0  0  0  0  0  0
   37.0600   26.9500   42.8030 C   0  0  0  0  0  0  0  0  0  0  0  0
   36.9140   27.1740   41.3300 C   0  0  0  0  0  0  0  0  0  0  0  0
   37.8120   28.1820   40.7360 C   0  0  1  0  0  0  0  0  0  0  0  0
   36.6410   29.3770   43.1000 H   0  0  0  0  0  0  0  0  0  0  0  0
   38.3260   30.0470   43.4610 H   0  0  0  0  0  0  0  0  0  0  0  0
   38.3520   27.7610   44.3720 H   0  0  0  0  0  0  0  0  0  0  0  0
   39.0490   27.6310   42.6720 H   0  0  0  0  0  0  0  0  0  0  0  0
   37.2100   25.8970   43.0940 H   0  0  0  0  0  0  0  0  0  0  0  0
   36.0980   27.2890   43.2860 H   0  0  0  0  0  0  0  0  0  0  0  0
   37.1690   26.1840   40.8470 H   0  0  0  0  0  0  0  0  0  0  0  0
   35.8320   27.3190   41.0360 H   0  0  0  0  0  0  0  0  0  0  0  0
   38.7890   27.7500   40.4510 H   0  0  0  0  0  0  0  0  0  0  0  0
   35.7400   28.6810   39.3730 C   0  0  0  0  0  3  0  0  0  0  0  0
   37.1080   28.4970   39.4140 C   0  0  0  0  0  0  0  0  0  0  0  0
   37.8120   28.5660   38.2010 C   0  0  0  0  0  0  0  0  0  0  0  0
   38.8580   28.4180   38.2890 H   0  0  0  0  0  0  0  0  0  0  0  0
   37.1320   28.8100   37.0350 C   0  0  0  0  0  0  0  0  0  0  0  0
   37.6420   28.9110   35.7720 N   0  0  0  0  0  0  0  0  0  0  0  0
   36.5750   29.1570   34.9750 C   0  0  0  0  0  0  0  0  0  0  0  0
   36.7080   29.2820   33.9050 H   0  0  0  0  0  0  0  0  0  0  0  0
   35.4510   29.2050   35.7210 N   0  0  0  0  0  0  0  0  0  0  0  0
   35.7650   28.9920   37.0230 C   0  0  0  0  0  0  0  0  0  0  0  0
   35.0600   28.9270   38.1970 C   0  0  0  0  0  3  0  0  0  0  0  0
   38.6430   28.8180   35.4880 H   0  0  0  0  0  0  0  0  0  0  0  0
   39.5870   32.1730   39.7330 C   0  0  0  0  0  0  0  0  0  0  0  0
   39.4080   30.9470   40.3800 C   0  0  0  0  0  0  0  0  0  0  0  0
   38.1560   30.6070   40.8610 C   0  0  0  0  0  0  0  0  0  0  0  0
   37.1460   31.4990   40.6800 N   0  0  0  0  0  0  0  0  0  0  0  0
   37.3240   32.6890   40.0550 C   0  0  0  0  0  0  0  0  0  0  0  0
   38.5510   33.0200   39.5810 N   0  0  0  0  0  0  0  0  0  0  0  0
   40.2850   30.3390   40.4930 H   0  0  0  0  0  0  0  0  0  0  0  0
   36.4810   33.3760   39.9330 H   0  0  0  0  0  0  0  0  0  0  0  0
   40.9540   32.4780   39.1950 C   0  0  0  0  0  0  0  0  0  0  0  0
   41.3590   31.5330   38.2580 F   0  0  0  0  0  0  0  0  0  0  0  0
   40.9020   33.7380   38.6410 F   0  0  0  0  0  0  0  0  0  0  0  0
   41.8690   32.5040   40.2390 F   0  0  0  0  0  0  0  0  0  0  0  0
  1  2  1  0  0  0  0
  2  7  1  0  0  0  0
  2  3  1  0  0  0  0
  2  8  1  0  0  0  0
  3  9  1  0  0  0  0
  4 11  1  0  0  0  0
  4 12  1  0  0  0  0
  4  3  1  0  0  0  0
  5  4  1  0  0  0  0
  6 15  1  6  0  0  0
  6  5  1  0  0  0  0
  6  1  1  0  0  0  0
 10  3  1  0  0  0  0
 13  5  1  0  0  0  0
 14  5  1  0  0  0  0
 16 17  1  0  0  0  0
 17  6  1  0  0  0  0
 18 19  1  0  0  0  0
 18 17  2  0  0  0  0
 20 18  1  0  0  0  0
 21 20  1  0  0  0  0
 22 24  2  0  0  0  0
 22 21  1  0  0  0  0
 23 22  1  0  0  0  0
 24 25  1  0  0  0  0
 25 20  2  0  0  0  0
 25 26  1  0  0  0  0
 26 16  2  0  0  0  0
 27 21  1  0  0  0  0
 28 29  1  0  0  0  0
 29 34  1  0  0  0  0
 29 30  2  0  0  0  0
 30  1  1  0  0  0  0
 31 30  1  0  0  0  0
 32 31  2  0  0  0  0
 33 28  2  0  0  0  0
 33 32  1  0  0  0  0
 35 32  1  0  0  0  0
 36 28  1  0  0  0  0
 36 39  1  0  0  0  0
 37 36  1  0  0  0  0
 38 36  1  0  0  0  0
M  END
>  <minimizedAffinity>
-5.82452583

$$$$

 OpenBabel03252503543D

 39 42  0  0  1  0  0  0  0  0999 V2000
   36.3190   29.5310   37.3680 N   0  0  0  0  0  0  0  0  0  0  0  0
   36.2320   29.3760   35.9120 C   0  0  0  0  0  0  0  0  0  0  0  0
   34.7460   29.2860   35.5900 C   0  0  0  0  0  0  0  0  0  0  0  0
   34.2700   27.9420   36.0720 C   0  0  0  0  0  0  0  0  0  0  0  0
   34.5850   27.8370   37.5320 C   0  0  0  0  0  0  0  0  0  0  0  0
   35.2530   29.0060   38.1350 C   0  0  1  0  0  0  0  0  0  0  0  0
   36.6820   28.3780   35.6960 H   0  0  0  0  0  0  0  0  0  0  0  0
   36.7300   30.2000   35.3860 H   0  0  0  0  0  0  0  0  0  0  0  0
   34.5360   29.4760   34.5360 H   0  0  0  0  0  0  0  0  0  0  0  0
   34.2440   30.0390   36.2650 H   0  0  0  0  0  0  0  0  0  0  0  0
   33.2170   27.7340   35.8140 H   0  0  0  0  0  0  0  0  0  0  0  0
   34.8950   27.1660   35.5420 H   0  0  0  0  0  0  0  0  0  0  0  0
   33.5860   27.7290   38.0500 H   0  0  0  0  0  0  0  0  0  0  0  0
   35.0980   26.8610   37.7780 H   0  0  0  0  0  0  0  0  0  0  0  0
   34.5270   29.7710   38.4700 H   0  0  0  0  0  0  0  0  0  0  0  0
   35.6970   29.0750   40.6240 C   0  0  0  0  0  3  0  0  0  0  0  0
   35.8360   28.4130   39.4190 C   0  0  0  0  0  0  0  0  0  0  0  0
   36.5640   27.2120   39.4150 C   0  0  0  0  0  0  0  0  0  0  0  0
   36.6400   26.7470   38.4660 H   0  0  0  0  0  0  0  0  0  0  0  0
   37.1040   26.7420   40.5840 C   0  0  0  0  0  0  0  0  0  0  0  0
   37.8360   25.6040   40.7730 N   0  0  0  0  0  0  0  0  0  0  0  0
   38.1340   25.5870   42.0940 C   0  0  0  0  0  0  0  0  0  0  0  0
   38.7180   24.7730   42.5120 H   0  0  0  0  0  0  0  0  0  0  0  0
   37.6050   26.6730   42.6940 N   0  0  0  0  0  0  0  0  0  0  0  0
   36.9490   27.4230   41.7750 C   0  0  0  0  0  0  0  0  0  0  0  0
   36.2420   28.5970   41.7990 C   0  0  0  0  0  3  0  0  0  0  0  0
   38.1050   24.9020   40.0480 H   0  0  0  0  0  0  0  0  0  0  0  0
   38.4210   31.9490   39.2010 C   0  0  0  0  0  0  0  0  0  0  0  0
   37.3000   31.3850   38.5850 C   0  0  0  0  0  0  0  0  0  0  0  0
   37.4130   30.1550   37.9620 C   0  0  0  0  0  0  0  0  0  0  0  0
   38.6290   29.5470   37.9770 N   0  0  0  0  0  0  0  0  0  0  0  0
   39.7150   30.0990   38.5720 C   0  0  0  0  0  0  0  0  0  0  0  0
   39.6030   31.3040   39.1860 N   0  0  0  0  0  0  0  0  0  0  0  0
   36.4020   31.9720   38.6090 H   0  0  0  0  0  0  0  0  0  0  0  0
   40.6750   29.5730   38.5590 H   0  0  0  0  0  0  0  0  0  0  0  0
   38.2380   33.2660   39.8960 C   0  0  0  0  0  0  0  0  0  0  0  0
   37.0280   33.8610   39.5560 F   0  0  0  0  0  0  0  0  0  0  0  0
   38.3110   33.0240   41.2510 F   0  0  0  0  0  0  0  0  0  0  0  0
   39.2780   34.1200   39.5550 F   0  0  0  0  0  0  0  0  0  0  0  0
  1 30  1  0  0  0  0
  1  6  1  0  0  0  0
  2  1  1  0  0  0  0
  3  2  1  0  0  0  0
  3  4  1  0  0  0  0
  3 10  1  0  0  0  0
  4  5  1  0  0  0  0
  5 14  1  0  0  0  0
  5 13  1  0  0  0  0
  5  6  1  0  0  0  0
  6 15  1  1  0  0  0
  6 17  1  0  0  0  0
  7  2  1  0  0  0  0
  8  2  1  0  0  0  0
  9  3  1  0  0  0  0
 11  4  1  0  0  0  0
 12  4  1  0  0  0  0
 16 26  1  0  0  0  0
 17 16  2  0  0  0  0
 18 17  1  0  0  0  0
 18 20  2  0  0  0  0
 19 18  1  0  0  0  0
 20 21  1  0  0  0  0
 20 25  1  0  0  0  0
 21 22  1  0  0  0  0
 22 23  1  0  0  0  0
 22 24  2  0  0  0  0
 25 26  2  0  0  0  0
 25 24  1  0  0  0  0
 27 21  1  0  0  0  0
 28 36  1  0  0  0  0
 29 34  1  0  0  0  0
 29 28  2  0  0  0  0
 30 31  2  0  0  0  0
 30 29  1  0  0  0  0
 31 32  1  0  0  0  0
 32 33  2  0  0  0  0
 33 28  1  0  0  0  0
 35 32  1  0  0  0  0
 36 38  1  0  0  0  0
 37 36  1  0  0  0  0
 39 36  1  0  0  0  0
M  END
>  <minimizedAffinity>
-5.80327988

$$$$

 OpenBabel03252503543D

 39 42  0  0  1  0  0  0  0  0999 V2000
   37.5530   29.2000   41.7210 N   0  0  0  0  0  0  0  0  0  0  0  0
   36.6630   28.0380   41.8040 C   0  0  0  0  0  0  0  0  0  0  0  0
   36.6370   27.6360   43.2730 C   0  0  0  0  0  0  0  0  0  0  0  0
   37.9750   27.0230   43.5880 C   0  0  0  0  0  0  0  0  0  0  0  0
   39.0340   28.0270   43.2480 C   0  0  0  0  0  0  0  0  0  0  0  0
   38.5550   29.3150   42.7130 C   0  0  1  0  0  0  0  0  0  0  0  0
   37.1870   27.2270   41.2440 H   0  0  0  0  0  0  0  0  0  0  0  0
   35.6650   28.2620   41.4090 H   0  0  0  0  0  0  0  0  0  0  0  0
   35.7890   26.9920   43.5130 H   0  0  0  0  0  0  0  0  0  0  0  0
   36.6110   28.6050   43.8510 H   0  0  0  0  0  0  0  0  0  0  0  0
   38.0390   26.6180   44.6120 H   0  0  0  0  0  0  0  0  0  0  0  0
   38.1080   26.1510   42.8830 H   0  0  0  0  0  0  0  0  0  0  0  0
   39.5590   28.2530   44.2230 H   0  0  0  0  0  0  0  0  0  0  0  0
   39.8570   27.5680   42.6250 H   0  0  0  0  0  0  0  0  0  0  0  0
   38.3050   30.0310   43.5180 H   0  0  0  0  0  0  0  0  0  0  0  0
   40.5150   29.1260   41.1250 C   0  0  0  0  0  3  0  0  0  0  0  0
   39.8180   29.8750   42.0520 C   0  0  0  0  0  0  0  0  0  0  0  0
   40.3320   31.1360   42.3930 C   0  0  0  0  0  0  0  0  0  0  0  0
   39.7580   31.6680   43.1080 H   0  0  0  0  0  0  0  0  0  0  0  0
   41.4890   31.5770   41.8050 C   0  0  0  0  0  0  0  0  0  0  0  0
   42.1350   32.7640   42.0090 N   0  0  0  0  0  0  0  0  0  0  0  0
   43.2200   32.7240   41.2000 C   0  0  0  0  0  0  0  0  0  0  0  0
   43.9120   33.5590   41.1710 H   0  0  0  0  0  0  0  0  0  0  0  0
   43.2410   31.5560   40.5240 N   0  0  0  0  0  0  0  0  0  0  0  0
   42.1660   30.8100   40.8800 C   0  0  0  0  0  0  0  0  0  0  0  0
   41.6800   29.5750   40.5350 C   0  0  0  0  0  3  0  0  0  0  0  0
   41.8460   33.5340   42.6530 H   0  0  0  0  0  0  0  0  0  0  0  0
   37.2120   30.7430   38.3850 C   0  0  0  0  0  0  0  0  0  0  0  0
   37.3880   29.7650   39.3680 C   0  0  0  0  0  0  0  0  0  0  0  0
   37.4200   30.1380   40.7000 C   0  0  0  0  0  0  0  0  0  0  0  0
   37.2810   31.4590   40.9910 N   0  0  0  0  0  0  0  0  0  0  0  0
   37.1140   32.4040   40.0340 C   0  0  0  0  0  0  0  0  0  0  0  0
   37.0790   32.0380   38.7290 N   0  0  0  0  0  0  0  0  0  0  0  0
   37.5200   28.7600   39.0170 H   0  0  0  0  0  0  0  0  0  0  0  0
   37.0060   33.4570   40.3160 H   0  0  0  0  0  0  0  0  0  0  0  0
   37.1450   30.2840   36.9580 C   0  0  0  0  0  0  0  0  0  0  0  0
   38.1330   29.3480   36.6730 F   0  0  0  0  0  0  0  0  0  0  0  0
   35.8880   29.7560   36.7590 F   0  0  0  0  0  0  0  0  0  0  0  0
   37.2930   31.3740   36.1110 F   0  0  0  0  0  0  0  0  0  0  0  0
  1  2  1  0  0  0  0
  1  6  1  0  0  0  0
  2  3  1  0  0  0  0
  3  9  1  0  0  0  0
  3  4  1  0  0  0  0
  3 10  1  0  0  0  0
  4 11  1  0  0  0  0
  5  4  1  0  0  0  0
  5 13  1  0  0  0  0
  6  5  1  0  0  0  0
  6 15  1  1  0  0  0
  7  2  1  0  0  0  0
  8  2  1  0  0  0  0
 12  4  1  0  0  0  0
 14  5  1  0  0  0  0
 16 17  1  0  0  0  0
 17 18  2  0  0  0  0
 17  6  1  0  0  0  0
 18 19  1  0  0  0  0
 20 21  1  0  0  0  0
 20 18  1  0  0  0  0
 21 27  1  0  0  0  0
 22 21  1  0  0  0  0
 23 22  1  0  0  0  0
 24 25  1  0  0  0  0
 24 22  2  0  0  0  0
 25 20  2  0  0  0  0
 26 25  1  0  0  0  0
 26 16  2  0  0  0  0
 28 33  2  0  0  0  0
 28 29  1  0  0  0  0
 29 30  2  0  0  0  0
 30 31  1  0  0  0  0
 30  1  1  0  0  0  0
 32 35  1  0  0  0  0
 32 31  2  0  0  0  0
 33 32  1  0  0  0  0
 34 29  1  0  0  0  0
 36 28  1  0  0  0  0
 37 36  1  0  0  0  0
 38 36  1  0  0  0  0
 39 36  1  0  0  0  0
M  END
>  <minimizedAffinity>
-5.76679468

$$$$

 OpenBabel03252503543D

 39 42  0  0  1  0  0  0  0  0999 V2000
   36.3420   27.8060   37.9860 N   0  0  0  0  0  0  0  0  0  0  0  0
   35.0540   27.1200   37.8460 C   0  0  0  0  0  0  0  0  0  0  0  0
   34.7200   27.1590   36.3600 C   0  0  0  0  0  0  0  0  0  0  0  0
   34.3520   28.5790   36.0260 C   0  0  0  0  0  0  0  0  0  0  0  0
   35.5000   29.4580   36.4170 C   0  0  0  0  0  0  0  0  0  0  0  0
   36.6650   28.7730   37.0070 C   0  0  1  0  0  0  0  0  0  0  0  0
   34.3160   27.7720   38.3710 H   0  0  0  0  0  0  0  0  0  0  0  0
   35.0910   26.0990   38.2450 H   0  0  0  0  0  0  0  0  0  0  0  0
   33.9560   26.4290   36.0850 H   0  0  0  0  0  0  0  0  0  0  0  0
   35.6970   26.9710   35.8260 H   0  0  0  0  0  0  0  0  0  0  0  0
   34.0100   28.7080   34.9850 H   0  0  0  0  0  0  0  0  0  0  0  0
   33.4830   28.8560   36.6910 H   0  0  0  0  0  0  0  0  0  0  0  0
   35.8540   29.9370   35.4560 H   0  0  0  0  0  0  0  0  0  0  0  0
   35.1570   30.3470   37.0230 H   0  0  0  0  0  0  0  0  0  0  0  0
   37.3670   28.4070   36.2330 H   0  0  0  0  0  0  0  0  0  0  0  0
   38.7700   30.0400   37.6120 C   0  0  0  0  0  3  0  0  0  0  0  0
   37.3960   29.9270   37.6990 C   0  0  0  0  0  0  0  0  0  0  0  0
   36.7110   30.8750   38.4760 C   0  0  0  0  0  0  0  0  0  0  0  0
   35.6600   30.7410   38.5090 H   0  0  0  0  0  0  0  0  0  0  0  0
   37.4140   31.8650   39.1120 C   0  0  0  0  0  0  0  0  0  0  0  0
   36.9250   32.8660   39.9030 N   0  0  0  0  0  0  0  0  0  0  0  0
   38.0100   33.5790   40.2880 C   0  0  0  0  0  0  0  0  0  0  0  0
   37.8950   34.4440   40.9330 H   0  0  0  0  0  0  0  0  0  0  0  0
   39.1240   33.0370   39.7530 N   0  0  0  0  0  0  0  0  0  0  0  0
   38.7870   31.9570   39.0070 C   0  0  0  0  0  0  0  0  0  0  0  0
   39.4730   31.0400   38.2530 C   0  0  0  0  0  3  0  0  0  0  0  0
   35.9250   33.0380   40.1530 H   0  0  0  0  0  0  0  0  0  0  0  0
   37.7790   27.5650   41.3780 C   0  0  0  0  0  0  0  0  0  0  0  0
   36.9060   27.9110   40.3430 C   0  0  0  0  0  0  0  0  0  0  0  0
   37.1970   27.5210   39.0480 C   0  0  0  0  0  0  0  0  0  0  0  0
   38.3380   26.8110   38.8420 N   0  0  0  0  0  0  0  0  0  0  0  0
   39.1840   26.4790   39.8480 C   0  0  0  0  0  0  0  0  0  0  0  0
   38.8970   26.8600   41.1180 N   0  0  0  0  0  0  0  0  0  0  0  0
   36.0540   28.5010   40.6200 H   0  0  0  0  0  0  0  0  0  0  0  0
   40.0920   25.9060   39.6350 H   0  0  0  0  0  0  0  0  0  0  0  0
   37.4000   27.9780   42.7700 C   0  0  0  0  0  0  0  0  0  0  0  0
   38.4170   27.7090   43.6790 F   0  0  0  0  0  0  0  0  0  0  0  0
   37.1110   29.3250   42.7290 F   0  0  0  0  0  0  0  0  0  0  0  0
   36.2510   27.3020   43.1580 F   0  0  0  0  0  0  0  0  0  0  0  0
  1 30  1  0  0  0  0
  2  1  1  0  0  0  0
  2  8  1  0  0  0  0
  2  7  1  0  0  0  0
  3  2  1  0  0  0  0
  4  3  1  0  0  0  0
  4  5  1  0  0  0  0
  4 12  1  0  0  0  0
  5  6  1  0  0  0  0
  5 14  1  0  0  0  0
  6 15  1  6  0  0  0
  6 17  1  0  0  0  0
  6  1  1  0  0  0  0
  9  3  1  0  0  0  0
 10  3  1  0  0  0  0
 11  4  1  0  0  0  0
 13  5  1  0  0  0  0
 16 17  2  0  0  0  0
 16 26  1  0  0  0  0
 17 18  1  0  0  0  0
 18 19  1  0  0  0  0
 18 20  2  0  0  0  0
 20 21  1  0  0  0  0
 21 27  1  0  0  0  0
 21 22  1  0  0  0  0
 22 23  1  0  0  0  0
 24 22  2  0  0  0  0
 25 20  1  0  0  0  0
 25 24  1  0  0  0  0
 26 25  2  0  0  0  0
 28 36  1  0  0  0  0
 29 34  1  0  0  0  0
 29 28  2  0  0  0  0
 30 29  1  0  0  0  0
 31 30  2  0  0  0  0
 31 32  1  0  0  0  0
 32 33  2  0  0  0  0
 33 28  1  0  0  0  0
 35 32  1  0  0  0  0
 36 39  1  0  0  0  0
 36 37  1  0  0  0  0
 38 36  1  0  0  0  0
M  END
>  <minimizedAffinity>
-5.73241186

$$$$

 OpenBabel03252503543D

 39 42  0  0  1  0  0  0  0  0999 V2000
   35.9910   29.5080   37.3530 N   0  0  0  0  0  0  0  0  0  0  0  0
   35.7360   29.3040   35.9240 C   0  0  0  0  0  0  0  0  0  0  0  0
   34.2310   29.1060   35.7920 C   0  0  0  0  0  0  0  0  0  0  0  0
   33.9110   27.7490   36.3600 C   0  0  0  0  0  0  0  0  0  0  0  0
   34.4120   27.7110   37.7710 C   0  0  0  0  0  0  0  0  0  0  0  0
   35.0660   28.9380   38.2590 C   0  0  1  0  0  0  0  0  0  0  0  0
   36.2240   28.3310   35.6750 H   0  0  0  0  0  0  0  0  0  0  0  0
   36.1070   30.1410   35.3210 H   0  0  0  0  0  0  0  0  0  0  0  0
   33.8800   29.2500   34.7690 H   0  0  0  0  0  0  0  0  0  0  0  0
   33.7650   29.8450   36.5080 H   0  0  0  0  0  0  0  0  0  0  0  0
   32.8520   27.4650   36.2410 H   0  0  0  0  0  0  0  0  0  0  0  0
   34.5180   27.0000   35.7740 H   0  0  0  0  0  0  0  0  0  0  0  0
   33.4930   27.5520   38.4120 H   0  0  0  0  0  0  0  0  0  0  0  0
   35.0160   26.7780   37.9730 H   0  0  0  0  0  0  0  0  0  0  0  0
   34.3360   29.6640   38.6660 H   0  0  0  0  0  0  0  0  0  0  0  0
   36.4600   27.1900   39.4410 C   0  0  0  0  0  3  0  0  0  0  0  0
   35.8430   28.4250   39.4740 C   0  0  0  0  0  0  0  0  0  0  0  0
   35.9200   29.1610   40.6670 C   0  0  0  0  0  0  0  0  0  0  0  0
   35.4300   30.1000   40.6380 H   0  0  0  0  0  0  0  0  0  0  0  0
   36.5920   28.6410   41.7420 C   0  0  0  0  0  0  0  0  0  0  0  0
   36.7710   29.2050   42.9740 N   0  0  0  0  0  0  0  0  0  0  0  0
   37.4970   28.3040   43.6770 C   0  0  0  0  0  0  0  0  0  0  0  0
   37.7810   28.5120   44.7040 H   0  0  0  0  0  0  0  0  0  0  0  0
   37.7560   27.2270   42.9070 N   0  0  0  0  0  0  0  0  0  0  0  0
   37.2020   27.4040   41.6830 C   0  0  0  0  0  0  0  0  0  0  0  0
   37.1380   26.6700   40.5260 C   0  0  0  0  0  3  0  0  0  0  0  0
   36.4190   30.1340   43.2970 H   0  0  0  0  0  0  0  0  0  0  0  0
   39.4760   30.5440   37.9940 C   0  0  0  0  0  0  0  0  0  0  0  0
   38.3920   29.7690   37.5680 C   0  0  0  0  0  0  0  0  0  0  0  0
   37.1040   30.2210   37.7910 C   0  0  0  0  0  0  0  0  0  0  0  0
   36.9520   31.4140   38.4270 N   0  0  0  0  0  0  0  0  0  0  0  0
   38.0050   32.1600   38.8410 C   0  0  0  0  0  0  0  0  0  0  0  0
   39.2690   31.7180   38.6190 N   0  0  0  0  0  0  0  0  0  0  0  0
   38.6340   28.8310   37.1070 H   0  0  0  0  0  0  0  0  0  0  0  0
   37.8350   33.1140   39.3490 H   0  0  0  0  0  0  0  0  0  0  0  0
   40.8530   30.0290   37.6940 C   0  0  0  0  0  0  0  0  0  0  0  0
   40.8120   28.8830   36.9080 F   0  0  0  0  0  0  0  0  0  0  0  0
   41.5370   31.0440   37.0590 F   0  0  0  0  0  0  0  0  0  0  0  0
   41.5110   29.7430   38.8820 F   0  0  0  0  0  0  0  0  0  0  0  0
  1 30  1  0  0  0  0
  1  6  1  0  0  0  0
  2  1  1  0  0  0  0
  3  2  1  0  0  0  0
  3  4  1  0  0  0  0
  3 10  1  0  0  0  0
  4  5  1  0  0  0  0
  5 14  1  0  0  0  0
  5  6  1  0  0  0  0
  5 13  1  0  0  0  0
  6 15  1  1  0  0  0
  6 17  1  0  0  0  0
  7  2  1  0  0  0  0
  8  2  1  0  0  0  0
  9  3  1  0  0  0  0
 11  4  1  0  0  0  0
 12  4  1  0  0  0  0
 16 17  2  0  0  0  0
 16 26  1  0  0  0  0
 17 18  1  0  0  0  0
 18 20  2  0  0  0  0
 19 18  1  0  0  0  0
 20 21  1  0  0  0  0
 21 27  1  0  0  0  0
 21 22  1  0  0  0  0
 22 23  1  0  0  0  0
 24 22  2  0  0  0  0
 25 20  1  0  0  0  0
 25 24  1  0  0  0  0
 26 25  2  0  0  0  0
 28 33  1  0  0  0  0
 29 30  1  0  0  0  0
 29 28  2  0  0  0  0
 30 31  2  0  0  0  0
 31 32  1  0  0  0  0
 32 35  1  0  0  0  0
 33 32  2  0  0  0  0
 34 29  1  0  0  0  0
 36 28  1  0  0  0  0
 36 39  1  0  0  0  0
 37 36  1  0  0  0  0
 38 36  1  0  0  0  0
M  END
>  <minimizedAffinity>
-5.72895908

$$$$

 OpenBabel03252503543D

 39 42  0  0  1  0  0  0  0  0999 V2000
   36.9810   28.0250   41.0340 N   0  0  0  0  0  0  0  0  0  0  0  0
   37.2680   26.6680   41.5080 C   0  0  0  0  0  0  0  0  0  0  0  0
   36.9500   26.6710   42.9970 C   0  0  0  0  0  0  0  0  0  0  0  0
   38.0270   27.4700   43.6800 C   0  0  0  0  0  0  0  0  0  0  0  0
   38.0530   28.8330   43.0580 C   0  0  0  0  0  0  0  0  0  0  0  0
   37.0750   29.0710   41.9810 C   0  0  1  0  0  0  0  0  0  0  0  0
   38.3730   26.5480   41.4030 H   0  0  0  0  0  0  0  0  0  0  0  0
   36.6960   25.9140   40.9540 H   0  0  0  0  0  0  0  0  0  0  0  0
   36.8270   25.6630   43.3990 H   0  0  0  0  0  0  0  0  0  0  0  0
   36.0100   27.2860   43.1050 H   0  0  0  0  0  0  0  0  0  0  0  0
   37.9410   27.4700   44.7790 H   0  0  0  0  0  0  0  0  0  0  0  0
   39.0090   26.9740   43.4290 H   0  0  0  0  0  0  0  0  0  0  0  0
   37.8010   29.5510   43.8950 H   0  0  0  0  0  0  0  0  0  0  0  0
   39.1030   29.1420   42.7770 H   0  0  0  0  0  0  0  0  0  0  0  0
   36.0960   29.4020   42.3760 H   0  0  0  0  0  0  0  0  0  0  0  0
   36.8370   31.2960   40.8030 C   0  0  0  0  0  3  0  0  0  0  0  0
   37.6630   30.2980   41.2810 C   0  0  0  0  0  0  0  0  0  0  0  0
   39.0430   30.4320   41.0610 C   0  0  0  0  0  0  0  0  0  0  0  0
   39.6310   29.6390   41.4480 H   0  0  0  0  0  0  0  0  0  0  0  0
   39.5200   31.5300   40.3910 C   0  0  0  0  0  0  0  0  0  0  0  0
   40.8180   31.8290   40.0860 N   0  0  0  0  0  0  0  0  0  0  0  0
   40.7660   33.0100   39.4250 C   0  0  0  0  0  0  0  0  0  0  0  0
   41.6770   33.4760   39.0670 H   0  0  0  0  0  0  0  0  0  0  0  0
   39.4840   33.4200   39.3270 N   0  0  0  0  0  0  0  0  0  0  0  0
   38.6730   32.5140   39.9250 C   0  0  0  0  0  0  0  0  0  0  0  0
   37.3210   32.4000   40.1300 C   0  0  0  0  0  3  0  0  0  0  0  0
   41.6650   31.2620   40.3180 H   0  0  0  0  0  0  0  0  0  0  0  0
   37.1470   28.2780   37.3540 C   0  0  0  0  0  0  0  0  0  0  0  0
   37.5480   28.0570   38.6760 C   0  0  0  0  0  0  0  0  0  0  0  0
   36.6460   28.2670   39.7040 C   0  0  0  0  0  0  0  0  0  0  0  0
   35.3960   28.6870   39.3730 N   0  0  0  0  0  0  0  0  0  0  0  0
   35.0120   28.9030   38.0910 C   0  0  0  0  0  0  0  0  0  0  0  0
   35.8960   28.6940   37.0830 N   0  0  0  0  0  0  0  0  0  0  0  0
   38.5680   27.7590   38.8170 H   0  0  0  0  0  0  0  0  0  0  0  0
   33.9940   29.2420   37.8730 H   0  0  0  0  0  0  0  0  0  0  0  0
   38.1490   27.9990   36.2730 C   0  0  0  0  0  0  0  0  0  0  0  0
   39.3940   28.5400   36.5750 F   0  0  0  0  0  0  0  0  0  0  0  0
   38.2220   26.6300   36.1300 F   0  0  0  0  0  0  0  0  0  0  0  0
   37.6990   28.5350   35.0730 F   0  0  0  0  0  0  0  0  0  0  0  0
  1  2  1  0  0  0  0
  1  6  1  0  0  0  0
  2  3  1  0  0  0  0
  3 10  1  0  0  0  0
  3  9  1  0  0  0  0
  3  4  1  0  0  0  0
  4 11  1  0  0  0  0
  5  4  1  0  0  0  0
  5 13  1  0  0  0  0
  6 15  1  1  0  0  0
  6  5  1  0  0  0  0
  7  2  1  0  0  0  0
  8  2  1  0  0  0  0
 12  4  1  0  0  0  0
 14  5  1  0  0  0  0
 16 17  1  0  0  0  0
 17  6  1  0  0  0  0
 18 17  2  0  0  0  0
 18 19  1  0  0  0  0
 20 18  1  0  0  0  0
 21 27  1  0  0  0  0
 21 20  1  0  0  0  0
 22 21  1  0  0  0  0
 23 22  1  0  0  0  0
 24 22  2  0  0  0  0
 24 25  1  0  0  0  0
 25 26  1  0  0  0  0
 25 20  2  0  0  0  0
 26 16  2  0  0  0  0
 28 29  1  0  0  0  0
 29 34  1  0  0  0  0
 29 30  2  0  0  0  0
 30  1  1  0  0  0  0
 31 30  1  0  0  0  0
 32 31  2  0  0  0  0
 33 28  2  0  0  0  0
 33 32  1  0  0  0  0
 35 32  1  0  0  0  0
 36 37  1  0  0  0  0
 36 28  1  0  0  0  0
 38 36  1  0  0  0  0
 39 36  1  0  0  0  0
M  END
>  <minimizedAffinity>
-5.72293139

$$$$
