
 OpenBabel03242515053D

 42 45  0  0  0  0  0  0  0  0999 V2000
   44.8110   34.7130   42.1020 C   0  0  0  0  0  0  0  0  0  0  0  0
   46.0700   34.2780   41.6420 C   0  0  0  0  0  0  0  0  0  0  0  0
   47.0230   33.8930   42.5640 C   0  0  0  0  0  0  0  0  0  0  0  0
   46.6950   33.9560   43.8790 N   0  0  0  0  0  0  0  0  0  0  0  0
   45.4950   34.3720   44.3160 C   0  0  0  0  0  0  0  0  0  0  0  0
   44.5700   34.7440   43.4270 N   0  0  0  0  0  0  0  0  0  0  0  0
   46.2600   34.2550   40.5970 H   0  0  0  0  0  0  0  0  0  0  0  0
   49.5150   33.8860   42.7430 C   0  0  0  0  0  0  0  0  0  0  0  0
   48.3500   33.4290   42.1690 C   0  0  0  0  0  0  0  0  0  0  0  0
   48.4680   32.4880   41.1740 C   0  0  0  0  0  0  0  0  0  0  0  0
   47.5540   32.1210   40.7150 H   0  0  0  0  0  0  0  0  0  0  0  0
   49.6930   32.0240   40.7700 C   0  0  0  0  0  0  0  0  0  0  0  0
   50.0040   31.1170   39.8240 N   0  0  0  0  0  0  0  0  0  0  0  0
   51.3460   30.9920   39.7910 C   0  0  0  0  0  0  0  0  0  0  0  0
   51.9570   30.3460   39.1460 H   0  0  0  0  0  0  0  0  0  0  0  0
   51.8880   31.8210   40.7150 N   0  0  0  0  0  0  0  0  0  0  0  0
   50.8710   32.4660   41.3290 C   0  0  0  0  0  0  0  0  0  0  0  0
   50.7700   33.4190   42.3370 C   0  0  0  0  0  0  0  0  0  0  0  0
   49.4170   30.5440   39.1700 H   0  0  0  0  0  0  0  0  0  0  0  0
   45.2710   34.3940   45.7340 C   0  0  0  0  0  0  0  0  0  0  0  0
   44.4320   35.1770   46.2000 O   0  0  0  0  0  0  0  0  0  0  0  0
   46.0250   33.5090   46.5540 N   0  0  0  0  0  0  0  0  0  0  0  0
   46.4920   34.0210   47.3600 H   0  0  0  0  0  0  0  0  0  0  0  0
   46.5350   32.7820   47.0710 H   0  0  0  0  0  0  0  0  0  0  0  0
   43.6140   35.1820   40.8570 S   0  0  0  0  0  0  0  0  0  0  0  0
   41.9250   35.1300   41.4710 C   0  0  0  0  0  0  0  0  0  0  0  0
   41.5800   34.0730   41.4980 H   0  0  0  0  0  0  0  0  0  0  0  0
   41.9380   35.4550   42.5380 H   0  0  0  0  0  0  0  0  0  0  0  0
   41.0010   36.0190   40.7290 C   0  0  0  0  0  0  0  0  0  0  0  0
   40.2390   36.3930   41.4690 H   0  0  0  0  0  0  0  0  0  0  0  0
   41.5340   36.8450   40.2490 H   0  0  0  0  0  0  0  0  0  0  0  0
   41.8850   36.2310   37.8220 Cl  0  0  0  0  0  0  0  0  0  0  0  0
   40.5210   35.2960   38.3620 C   0  0  0  0  0  0  0  0  0  0  0  0
   40.1970   35.2640   39.7300 C   0  0  0  0  0  0  0  0  0  0  0  0
   39.1170   34.5110   40.0800 C   0  0  0  0  0  0  0  0  0  0  0  0
   38.3120   33.7800   39.2320 C   0  0  0  0  0  0  0  0  0  0  0  0
   38.6390   33.8190   37.8930 C   0  0  0  0  0  0  0  0  0  0  0  0
   37.6700   32.9170   36.7410 Cl  0  0  0  0  0  0  0  0  0  0  0  0
   39.7210   34.5640   37.4830 C   0  0  0  0  0  0  0  0  0  0  0  0
   38.8860   34.5020   41.1470 H   0  0  0  0  0  0  0  0  0  0  0  0
   37.4640   33.2010   39.5830 H   0  0  0  0  0  0  0  0  0  0  0  0
   39.9500   34.5690   36.4130 H   0  0  0  0  0  0  0  0  0  0  0  0
  1  6  1  0  0  0  0
  2  1  2  0  0  0  0
  2  3  1  0  0  0  0
  3  4  2  0  0  0  0
  4  5  1  0  0  0  0
  5 20  1  0  0  0  0
  6  5  2  0  0  0  0
  7  2  1  0  0  0  0
  9  3  1  0  0  0  0
  9  8  2  0  0  0  0
 10  9  1  0  0  0  0
 11 10  1  0  0  0  0
 12 10  2  0  0  0  0
 12 17  1  0  0  0  0
 13 12  1  0  0  0  0
 14 13  1  0  0  0  0
 14 16  2  0  0  0  0
 15 14  1  0  0  0  0
 16 17  1  0  0  0  0
 17 18  2  0  0  0  0
 18  8  1  0  0  0  0
 19 13  1  0  0  0  0
 20 21  2  0  0  0  0
 20 22  1  0  0  0  0
 22 24  1  0  0  0  0
 22 23  1  0  0  0  0
 25 26  1  0  0  0  0
 25  1  1  0  0  0  0
 26 27  1  0  0  0  0
 26 28  1  0  0  0  0
 29 30  1  0  0  0  0
 29 26  1  0  0  0  0
 31 29  1  0  0  0  0
 32 33  1  0  0  0  0
 33 34  1  0  0  0  0
 34 35  2  0  0  0  0
 34 29  1  0  0  0  0
 35 40  1  0  0  0  0
 36 41  1  0  0  0  0
 36 35  1  0  0  0  0
 37 36  2  0  0  0  0
 38 37  1  0  0  0  0
 39 37  1  0  0  0  0
 39 33  2  0  0  0  0
 42 39  1  0  0  0  0
M  END
>  <minimizedAffinity>
-7.62987328

>  <minimizedRMSD>
0.632474124

$$$$
