
 OpenBabel03242516003D

 31 34  0  0  0  0  0  0  0  0999 V2000
   44.7280   33.1980   41.2330 Cl  0  0  0  0  0  0  0  0  0  0  0  0
   46.2650   34.0200   41.0510 C   0  0  0  0  0  0  0  0  0  0  0  0
   46.8010   34.7450   42.0710 C   0  0  0  0  0  0  0  0  0  0  0  0
   48.0070   35.3460   41.8230 C   0  0  0  0  0  0  0  0  0  0  0  0
   48.6630   35.2490   40.6340 C   0  0  0  0  0  0  0  0  0  0  0  0
   48.1140   34.5140   39.6070 C   0  0  0  0  0  0  0  0  0  0  0  0
   46.9000   33.8990   39.8350 C   0  0  0  0  0  0  0  0  0  0  0  0
   48.4570   35.9330   42.6260 H   0  0  0  0  0  0  0  0  0  0  0  0
   49.6110   35.7570   40.5220 H   0  0  0  0  0  0  0  0  0  0  0  0
   48.6570   34.4630   38.6950 H   0  0  0  0  0  0  0  0  0  0  0  0
   45.1820   32.4360   38.6950 C   0  0  0  0  0  3  0  0  0  0  0  0
   46.3710   33.1370   38.7100 C   0  0  0  0  0  0  0  0  0  0  0  0
   47.1240   33.1010   37.5300 C   0  0  0  0  0  0  0  0  0  0  0  0
   48.0820   33.6160   37.4170 H   0  0  0  0  0  0  0  0  0  0  0  0
   46.7210   32.4170   36.4140 C   0  0  0  0  0  0  0  0  0  0  0  0
   47.1920   32.1920   35.1730 N   0  0  0  0  0  0  0  0  0  0  0  0
   46.3740   31.4240   34.4520 C   0  0  0  0  0  0  0  0  0  0  0  0
   46.4070   31.0390   33.4510 H   0  0  0  0  0  0  0  0  0  0  0  0
   45.3140   31.1280   35.2560 N   0  0  0  0  0  0  0  0  0  0  0  0
   45.5280   31.7290   36.4390 C   0  0  0  0  0  0  0  0  0  0  0  0
   44.7600   31.7400   37.5820 C   0  0  0  0  0  3  0  0  0  0  0  0
   48.0910   32.5670   34.8000 H   0  0  0  0  0  0  0  0  0  0  0  0
   44.4830   35.9080   44.8360 C   0  0  0  0  0  0  0  0  0  0  0  0
   45.1680   35.8500   43.6170 C   0  0  0  0  0  0  0  0  0  0  0  0
   46.0800   34.8290   43.3220 C   0  0  0  0  0  0  0  0  0  0  0  0
   46.2490   33.9050   44.3030 N   0  0  0  0  0  0  0  0  0  0  0  0
   45.5820   33.9730   45.4720 C   0  0  0  0  0  0  0  0  0  0  0  0
   44.7130   34.9500   45.7460 N   0  0  0  0  0  0  0  0  0  0  0  0
   43.8040   36.7510   44.9370 H   0  0  0  0  0  0  0  0  0  0  0  0
   45.0310   36.5840   42.8410 H   0  0  0  0  0  0  0  0  0  0  0  0
   45.7580   33.1950   46.2320 H   0  0  0  0  0  0  0  0  0  0  0  0
  2  1  1  0  0  0  0
  2  3  1  0  0  0  0
  3 25  1  0  0  0  0
  4  3  2  0  0  0  0
  4  8  1  0  0  0  0
  5  4  1  0  0  0  0
  6  7  1  0  0  0  0
  6  5  2  0  0  0  0
  7  2  2  0  0  0  0
  9  5  1  0  0  0  0
 10  6  1  0  0  0  0
 11 12  1  0  0  0  0
 12  7  1  0  0  0  0
 13 12  2  0  0  0  0
 14 13  1  0  0  0  0
 15 20  2  0  0  0  0
 15 13  1  0  0  0  0
 16 15  1  0  0  0  0
 17 16  1  0  0  0  0
 17 19  2  0  0  0  0
 18 17  1  0  0  0  0
 19 20  1  0  0  0  0
 20 21  1  0  0  0  0
 21 11  2  0  0  0  0
 22 16  1  0  0  0  0
 23 29  1  0  0  0  0
 23 28  1  0  0  0  0
 24 23  2  0  0  0  0
 25 24  1  0  0  0  0
 25 26  2  0  0  0  0
 26 27  1  0  0  0  0
 27 28  2  0  0  0  0
 27 31  1  0  0  0  0
 30 24  1  0  0  0  0
M  END
>  <minimizedAffinity>
-6.2124052

>  <minimizedRMSD>
0.075219512

$$$$
