
 OpenBabel03242515273D

 34 37  0  0  0  0  0  0  0  0999 V2000
   37.3790   27.8120   43.0070 C   0  0  0  0  0  0  0  0  0  0  0  0
   36.8550   26.8730   42.1140 C   0  0  0  0  0  0  0  0  0  0  0  0
   36.6760   27.2700   40.8100 C   0  0  0  0  0  0  0  0  0  0  0  0
   37.0070   28.5220   40.4550 N   0  0  0  0  0  0  0  0  0  0  0  0
   37.5150   29.4110   41.3450 C   0  0  0  0  0  0  0  0  0  0  0  0
   37.7120   29.0700   42.6480 N   0  0  0  0  0  0  0  0  0  0  0  0
   37.5490   27.5690   44.0620 H   0  0  0  0  0  0  0  0  0  0  0  0
   36.2680   26.5320   40.1240 H   0  0  0  0  0  0  0  0  0  0  0  0
   36.9750   31.4690   40.1260 C   0  0  0  0  0  3  0  0  0  0  0  0
   37.8680   30.7790   40.9200 C   0  0  0  0  0  0  0  0  0  0  0  0
   39.0630   31.3480   41.3080 C   0  0  0  0  0  0  0  0  0  0  0  0
   39.7160   30.7600   41.9260 H   0  0  0  0  0  0  0  0  0  0  0  0
   39.3470   32.6430   40.8780 C   0  0  0  0  0  0  0  0  0  0  0  0
   40.4590   33.3370   41.1670 N   0  0  0  0  0  0  0  0  0  0  0  0
   40.3120   34.5340   40.5480 C   0  0  0  0  0  0  0  0  0  0  0  0
   40.9930   35.3810   40.5340 H   0  0  0  0  0  0  0  0  0  0  0  0
   39.1180   34.5360   39.9030 N   0  0  0  0  0  0  0  0  0  0  0  0
   38.4770   33.3670   40.0830 C   0  0  0  0  0  0  0  0  0  0  0  0
   37.3170   32.7410   39.7380 C   0  0  0  0  0  3  0  0  0  0  0  0
   41.2820   33.0440   41.7420 H   0  0  0  0  0  0  0  0  0  0  0  0
   36.5510   25.5550   42.6750 C   0  0  0  0  0  0  0  0  0  0  0  0
   35.4410   25.4770   42.7350 H   0  0  0  0  0  0  0  0  0  0  0  0
   36.9140   25.4480   43.6950 H   0  0  0  0  0  0  0  0  0  0  0  0
   37.0640   24.5300   41.7700 N   0  0  0  0  0  0  0  0  0  0  0  0
   36.3060   24.0710   40.7700 C   0  0  0  0  0  0  0  0  0  0  0  0
   36.8360   23.1000   39.9400 C   0  0  0  0  0  0  0  0  0  0  0  0
   38.1150   22.6210   40.1410 C   0  0  0  0  0  0  0  0  0  0  0  0
   38.5770   21.7390   39.3760 O   0  0  0  0  0  0  0  0  0  0  0  0
   38.8370   23.1150   41.1600 N   0  0  0  0  0  0  0  0  0  0  0  0
   38.3280   24.0640   41.9780 C   0  0  0  0  0  0  0  0  0  0  0  0
   39.0700   24.4780   42.9150 O   0  0  0  0  0  0  0  0  0  0  0  0
   35.2920   24.4320   40.5880 H   0  0  0  0  0  0  0  0  0  0  0  0
   36.2850   22.6870   39.1190 H   0  0  0  0  0  0  0  0  0  0  0  0
   39.8070   22.7430   41.3030 H   0  0  0  0  0  0  0  0  0  0  0  0
  1  7  1  0  0  0  0
  2 21  1  0  0  0  0
  2  1  2  0  0  0  0
  3  2  1  0  0  0  0
  4  3  2  0  0  0  0
  4  5  1  0  0  0  0
  5  6  2  0  0  0  0
  6  1  1  0  0  0  0
  8  3  1  0  0  0  0
  9 10  1  0  0  0  0
 10 11  2  0  0  0  0
 10  5  1  0  0  0  0
 11 12  1  0  0  0  0
 13 14  1  0  0  0  0
 13 11  1  0  0  0  0
 14 20  1  0  0  0  0
 15 14  1  0  0  0  0
 16 15  1  0  0  0  0
 17 18  1  0  0  0  0
 17 15  2  0  0  0  0
 18 13  2  0  0  0  0
 19 18  1  0  0  0  0
 19  9  2  0  0  0  0
 21 22  1  0  0  0  0
 21 23  1  0  0  0  0
 24 30  1  0  0  0  0
 24 21  1  0  0  0  0
 25 24  1  0  0  0  0
 26 27  1  0  0  0  0
 26 25  2  0  0  0  0
 27 29  1  0  0  0  0
 28 27  2  0  0  0  0
 29 34  1  0  0  0  0
 29 30  1  0  0  0  0
 30 31  2  0  0  0  0
 32 25  1  0  0  0  0
 33 26  1  0  0  0  0
M  END
>  <minimizedAffinity>
-5.93138456

$$$$

 OpenBabel03242515273D

 34 37  0  0  0  0  0  0  0  0999 V2000
   38.4160   32.1810   40.4920 C   0  0  0  0  0  0  0  0  0  0  0  0
   39.7070   32.5690   40.8610 C   0  0  0  0  0  0  0  0  0  0  0  0
   40.4780   31.6480   41.5290 C   0  0  0  0  0  0  0  0  0  0  0  0
   39.9680   30.4350   41.7950 N   0  0  0  0  0  0  0  0  0  0  0  0
   38.7100   30.0870   41.4220 C   0  0  0  0  0  0  0  0  0  0  0  0
   37.9040   30.9610   40.7590 N   0  0  0  0  0  0  0  0  0  0  0  0
   37.7430   32.8600   39.9570 H   0  0  0  0  0  0  0  0  0  0  0  0
   41.4810   31.9600   41.8120 H   0  0  0  0  0  0  0  0  0  0  0  0
   37.2560   28.6220   42.7460 C   0  0  0  0  0  3  0  0  0  0  0  0
   38.1820   28.7450   41.7300 C   0  0  0  0  0  0  0  0  0  0  0  0
   38.6070   27.6430   41.0170 C   0  0  0  0  0  0  0  0  0  0  0  0
   39.3290   27.8040   40.2380 H   0  0  0  0  0  0  0  0  0  0  0  0
   38.0750   26.3980   41.3490 C   0  0  0  0  0  0  0  0  0  0  0  0
   38.3820   25.2340   40.7550 N   0  0  0  0  0  0  0  0  0  0  0  0
   37.6390   24.2940   41.3910 C   0  0  0  0  0  0  0  0  0  0  0  0
   37.5960   23.2240   41.2110 H   0  0  0  0  0  0  0  0  0  0  0  0
   36.9030   24.9110   42.3500 N   0  0  0  0  0  0  0  0  0  0  0  0
   37.1460   26.2350   42.3600 C   0  0  0  0  0  0  0  0  0  0  0  0
   36.7740   27.3670   43.0210 C   0  0  0  0  0  3  0  0  0  0  0  0
   39.0480   25.0550   39.9680 H   0  0  0  0  0  0  0  0  0  0  0  0
   40.0980   33.9300   40.4900 C   0  0  0  0  0  0  0  0  0  0  0  0
   40.3310   34.4700   41.4370 H   0  0  0  0  0  0  0  0  0  0  0  0
   39.2820   34.4810   40.0250 H   0  0  0  0  0  0  0  0  0  0  0  0
   41.2970   33.8650   39.6580 N   0  0  0  0  0  0  0  0  0  0  0  0
   41.2100   33.4990   38.3760 C   0  0  0  0  0  0  0  0  0  0  0  0
   42.3730   33.4520   37.6300 C   0  0  0  0  0  0  0  0  0  0  0  0
   43.5900   33.7760   38.1960 C   0  0  0  0  0  0  0  0  0  0  0  0
   44.6340   33.7260   37.5010 O   0  0  0  0  0  0  0  0  0  0  0  0
   43.6230   34.1370   39.4890 N   0  0  0  0  0  0  0  0  0  0  0  0
   42.4920   34.1860   40.2280 C   0  0  0  0  0  0  0  0  0  0  0  0
   42.6080   34.5360   41.4380 O   0  0  0  0  0  0  0  0  0  0  0  0
   40.2620   33.2380   37.9030 H   0  0  0  0  0  0  0  0  0  0  0  0
   42.3780   33.1670   36.5960 H   0  0  0  0  0  0  0  0  0  0  0  0
   44.5540   34.3800   39.9090 H   0  0  0  0  0  0  0  0  0  0  0  0
  1  6  2  0  0  0  0
  1  2  1  0  0  0  0
  2  3  2  0  0  0  0
  3  4  1  0  0  0  0
  3  8  1  0  0  0  0
  5 10  1  0  0  0  0
  5  4  2  0  0  0  0
  6  5  1  0  0  0  0
  7  1  1  0  0  0  0
  9 19  1  0  0  0  0
 10  9  2  0  0  0  0
 11 13  2  0  0  0  0
 11 10  1  0  0  0  0
 12 11  1  0  0  0  0
 13 18  1  0  0  0  0
 14 13  1  0  0  0  0
 14 15  1  0  0  0  0
 15 17  2  0  0  0  0
 16 15  1  0  0  0  0
 17 18  1  0  0  0  0
 18 19  2  0  0  0  0
 20 14  1  0  0  0  0
 21  2  1  0  0  0  0
 21 22  1  0  0  0  0
 23 21  1  0  0  0  0
 24 30  1  0  0  0  0
 24 21  1  0  0  0  0
 25 24  1  0  0  0  0
 26 27  1  0  0  0  0
 26 25  2  0  0  0  0
 27 29  1  0  0  0  0
 28 27  2  0  0  0  0
 29 34  1  0  0  0  0
 29 30  1  0  0  0  0
 30 31  2  0  0  0  0
 32 25  1  0  0  0  0
 33 26  1  0  0  0  0
M  END
>  <minimizedAffinity>
-5.68093252

$$$$

 OpenBabel03242515273D

 34 37  0  0  0  0  0  0  0  0999 V2000
   36.7360   27.0060   40.6740 C   0  0  0  0  0  0  0  0  0  0  0  0
   37.2630   26.4580   41.8450 C   0  0  0  0  0  0  0  0  0  0  0  0
   37.9630   27.2980   42.6790 C   0  0  0  0  0  0  0  0  0  0  0  0
   38.1060   28.5880   42.3390 N   0  0  0  0  0  0  0  0  0  0  0  0
   37.5800   29.0920   41.1930 C   0  0  0  0  0  0  0  0  0  0  0  0
   36.8800   28.3040   40.3330 N   0  0  0  0  0  0  0  0  0  0  0  0
   36.1670   26.3990   39.9600 H   0  0  0  0  0  0  0  0  0  0  0  0
   38.3690   26.8610   43.5880 H   0  0  0  0  0  0  0  0  0  0  0  0
   36.7460   31.1550   40.1640 C   0  0  0  0  0  3  0  0  0  0  0  0
   37.7570   30.5170   40.8510 C   0  0  0  0  0  0  0  0  0  0  0  0
   38.9080   31.1860   41.2120 C   0  0  0  0  0  0  0  0  0  0  0  0
   39.6580   30.6340   41.7460 H   0  0  0  0  0  0  0  0  0  0  0  0
   39.0230   32.5320   40.8640 C   0  0  0  0  0  0  0  0  0  0  0  0
   40.0720   33.3230   41.1400 N   0  0  0  0  0  0  0  0  0  0  0  0
   39.7590   34.5360   40.6210 C   0  0  0  0  0  0  0  0  0  0  0  0
   40.3430   35.4520   40.6320 H   0  0  0  0  0  0  0  0  0  0  0  0
   38.5320   34.4490   40.0480 N   0  0  0  0  0  0  0  0  0  0  0  0
   38.0320   33.2070   40.1770 C   0  0  0  0  0  0  0  0  0  0  0  0
   36.9250   32.4810   39.8530 C   0  0  0  0  0  3  0  0  0  0  0  0
   40.9570   33.0850   41.6440 H   0  0  0  0  0  0  0  0  0  0  0  0
   37.0100   25.0310   42.0560 C   0  0  0  0  0  0  0  0  0  0  0  0
   35.9040   24.8970   42.0750 H   0  0  0  0  0  0  0  0  0  0  0  0
   37.3690   24.6880   43.0240 H   0  0  0  0  0  0  0  0  0  0  0  0
   37.5730   24.2830   40.9340 N   0  0  0  0  0  0  0  0  0  0  0  0
   38.8910   24.2760   40.7210 C   0  0  0  0  0  0  0  0  0  0  0  0
   39.3750   23.5530   39.6460 C   0  0  0  0  0  0  0  0  0  0  0  0
   38.5170   22.8580   38.8170 C   0  0  0  0  0  0  0  0  0  0  0  0
   38.9780   22.2090   37.8460 O   0  0  0  0  0  0  0  0  0  0  0  0
   37.2000   22.8970   39.0750 N   0  0  0  0  0  0  0  0  0  0  0  0
   36.7160   23.6010   40.1220 C   0  0  0  0  0  0  0  0  0  0  0  0
   35.4630   23.5880   40.2980 O   0  0  0  0  0  0  0  0  0  0  0  0
   39.5930   24.8150   41.3600 H   0  0  0  0  0  0  0  0  0  0  0  0
   40.4210   23.5040   39.4150 H   0  0  0  0  0  0  0  0  0  0  0  0
   36.5570   22.3660   38.4380 H   0  0  0  0  0  0  0  0  0  0  0  0
  1  2  1  0  0  0  0
  2 21  1  0  0  0  0
  2  3  2  0  0  0  0
  3  8  1  0  0  0  0
  4  3  1  0  0  0  0
  5  4  2  0  0  0  0
  6  1  2  0  0  0  0
  6  5  1  0  0  0  0
  7  1  1  0  0  0  0
  9 10  1  0  0  0  0
 10  5  1  0  0  0  0
 10 11  2  0  0  0  0
 11 12  1  0  0  0  0
 13 14  1  0  0  0  0
 13 11  1  0  0  0  0
 14 20  1  0  0  0  0
 15 16  1  0  0  0  0
 15 14  1  0  0  0  0
 17 18  1  0  0  0  0
 17 15  2  0  0  0  0
 18 13  2  0  0  0  0
 19  9  2  0  0  0  0
 19 18  1  0  0  0  0
 21 22  1  0  0  0  0
 21 23  1  0  0  0  0
 24 21  1  0  0  0  0
 25 24  1  0  0  0  0
 25 32  1  0  0  0  0
 26 25  2  0  0  0  0
 27 29  1  0  0  0  0
 27 26  1  0  0  0  0
 28 27  2  0  0  0  0
 29 30  1  0  0  0  0
 30 31  2  0  0  0  0
 30 24  1  0  0  0  0
 33 26  1  0  0  0  0
 34 29  1  0  0  0  0
M  END
>  <minimizedAffinity>
-5.52795267

$$$$

 OpenBabel03242515273D

 34 37  0  0  0  0  0  0  0  0999 V2000
   38.0690   29.3920   42.4570 C   0  0  0  0  0  0  0  0  0  0  0  0
   38.8900   28.3010   42.7530 C   0  0  0  0  0  0  0  0  0  0  0  0
   40.1760   28.3260   42.2670 C   0  0  0  0  0  0  0  0  0  0  0  0
   40.5810   29.3800   41.5410 N   0  0  0  0  0  0  0  0  0  0  0  0
   39.7590   30.4260   41.2710 C   0  0  0  0  0  0  0  0  0  0  0  0
   38.4780   30.4510   41.7280 N   0  0  0  0  0  0  0  0  0  0  0  0
   37.0330   29.4430   42.8100 H   0  0  0  0  0  0  0  0  0  0  0  0
   40.8070   27.4730   42.5030 H   0  0  0  0  0  0  0  0  0  0  0  0
   39.6120   32.7870   40.6250 C   0  0  0  0  0  3  0  0  0  0  0  0
   40.2390   31.5680   40.4690 C   0  0  0  0  0  0  0  0  0  0  0  0
   41.2890   31.4140   39.5880 C   0  0  0  0  0  0  0  0  0  0  0  0
   41.7350   30.4410   39.5120 H   0  0  0  0  0  0  0  0  0  0  0  0
   41.7020   32.5260   38.8550 C   0  0  0  0  0  0  0  0  0  0  0  0
   42.7030   32.5450   37.9610 N   0  0  0  0  0  0  0  0  0  0  0  0
   42.7530   33.8180   37.4980 C   0  0  0  0  0  0  0  0  0  0  0  0
   43.4250   34.2480   36.7610 H   0  0  0  0  0  0  0  0  0  0  0  0
   41.7850   34.5360   38.1220 N   0  0  0  0  0  0  0  0  0  0  0  0
   41.1000   33.7640   38.9840 C   0  0  0  0  0  0  0  0  0  0  0  0
   40.0690   33.8400   39.8730 C   0  0  0  0  0  3  0  0  0  0  0  0
   43.3290   31.7620   37.6620 H   0  0  0  0  0  0  0  0  0  0  0  0
   38.2820   27.2400   43.5580 C   0  0  0  0  0  0  0  0  0  0  0  0
   37.2780   27.6070   43.8730 H   0  0  0  0  0  0  0  0  0  0  0  0
   38.8330   27.0530   44.4770 H   0  0  0  0  0  0  0  0  0  0  0  0
   38.1280   26.0490   42.7260 N   0  0  0  0  0  0  0  0  0  0  0  0
   37.1310   25.9690   41.8410 C   0  0  0  0  0  0  0  0  0  0  0  0
   37.0270   24.8210   41.0760 C   0  0  0  0  0  0  0  0  0  0  0  0
   37.9310   23.7890   41.2240 C   0  0  0  0  0  0  0  0  0  0  0  0
   37.8180   22.7550   40.5200 O   0  0  0  0  0  0  0  0  0  0  0  0
   38.9160   23.9190   42.1280 N   0  0  0  0  0  0  0  0  0  0  0  0
   39.0260   25.0360   42.8820 C   0  0  0  0  0  0  0  0  0  0  0  0
   39.9810   25.0820   43.7100 O   0  0  0  0  0  0  0  0  0  0  0  0
   36.4030   26.7700   41.7020 H   0  0  0  0  0  0  0  0  0  0  0  0
   36.2520   24.6890   40.3470 H   0  0  0  0  0  0  0  0  0  0  0  0
   39.5960   23.1270   42.2330 H   0  0  0  0  0  0  0  0  0  0  0  0
  1  2  1  0  0  0  0
  1  7  1  0  0  0  0
  2 21  1  0  0  0  0
  3  8  1  0  0  0  0
  3  2  2  0  0  0  0
  4  3  1  0  0  0  0
  5  4  2  0  0  0  0
  5  6  1  0  0  0  0
  6  1  2  0  0  0  0
 10  9  1  0  0  0  0
 10  5  1  0  0  0  0
 11 10  2  0  0  0  0
 12 11  1  0  0  0  0
 13 18  2  0  0  0  0
 13 11  1  0  0  0  0
 14 13  1  0  0  0  0
 15 14  1  0  0  0  0
 15 17  2  0  0  0  0
 16 15  1  0  0  0  0
 17 18  1  0  0  0  0
 18 19  1  0  0  0  0
 19  9  2  0  0  0  0
 20 14  1  0  0  0  0
 21 22  1  0  0  0  0
 21 23  1  0  0  0  0
 24 30  1  0  0  0  0
 24 21  1  0  0  0  0
 25 24  1  0  0  0  0
 26 27  1  0  0  0  0
 26 25  2  0  0  0  0
 27 29  1  0  0  0  0
 28 27  2  0  0  0  0
 29 34  1  0  0  0  0
 29 30  1  0  0  0  0
 30 31  2  0  0  0  0
 32 25  1  0  0  0  0
 33 26  1  0  0  0  0
M  END
>  <minimizedAffinity>
-5.48797894

$$$$

 OpenBabel03242515273D

 34 37  0  0  0  0  0  0  0  0999 V2000
   38.8230   30.9720   39.2560 C   0  0  0  0  0  0  0  0  0  0  0  0
   38.1190   31.6230   40.2730 C   0  0  0  0  0  0  0  0  0  0  0  0
   38.7520   32.6580   40.9190 C   0  0  0  0  0  0  0  0  0  0  0  0
   39.9990   32.9950   40.5520 N   0  0  0  0  0  0  0  0  0  0  0  0
   40.6560   32.3440   39.5590 C   0  0  0  0  0  0  0  0  0  0  0  0
   40.0760   31.3130   38.8880 N   0  0  0  0  0  0  0  0  0  0  0  0
   38.3840   30.1390   38.6960 H   0  0  0  0  0  0  0  0  0  0  0  0
   38.1960   33.1570   41.7090 H   0  0  0  0  0  0  0  0  0  0  0  0
   42.7000   33.6250   40.0000 C   0  0  0  0  0  3  0  0  0  0  0  0
   42.0260   32.7420   39.1820 C   0  0  0  0  0  0  0  0  0  0  0  0
   42.6120   32.2390   38.0390 C   0  0  0  0  0  0  0  0  0  0  0  0
   42.0360   31.5560   37.4440 H   0  0  0  0  0  0  0  0  0  0  0  0
   43.9090   32.6480   37.7290 C   0  0  0  0  0  0  0  0  0  0  0  0
   44.6180   32.2540   36.6600 N   0  0  0  0  0  0  0  0  0  0  0  0
   45.8100   32.8930   36.7580 C   0  0  0  0  0  0  0  0  0  0  0  0
   46.6650   32.8440   36.0900 H   0  0  0  0  0  0  0  0  0  0  0  0
   45.7930   33.6530   37.8820 N   0  0  0  0  0  0  0  0  0  0  0  0
   44.6170   33.5300   38.5230 C   0  0  0  0  0  0  0  0  0  0  0  0
   43.9740   33.9850   39.6360 C   0  0  0  0  0  3  0  0  0  0  0  0
   44.3390   31.5970   35.8950 H   0  0  0  0  0  0  0  0  0  0  0  0
   36.7690   31.1220   40.5400 C   0  0  0  0  0  0  0  0  0  0  0  0
   36.2420   31.0710   39.5590 H   0  0  0  0  0  0  0  0  0  0  0  0
   36.1900   31.8080   41.1550 H   0  0  0  0  0  0  0  0  0  0  0  0
   36.8700   29.7810   41.1090 N   0  0  0  0  0  0  0  0  0  0  0  0
   37.4060   29.5990   42.3190 C   0  0  0  0  0  0  0  0  0  0  0  0
   37.4790   28.3100   42.8150 C   0  0  0  0  0  0  0  0  0  0  0  0
   37.0080   27.2420   42.0780 C   0  0  0  0  0  0  0  0  0  0  0  0
   37.0850   26.0790   42.5470 O   0  0  0  0  0  0  0  0  0  0  0  0
   36.4770   27.4780   40.8670 N   0  0  0  0  0  0  0  0  0  0  0  0
   36.4020   28.7330   40.3720 C   0  0  0  0  0  0  0  0  0  0  0  0
   35.8880   28.8720   39.2250 O   0  0  0  0  0  0  0  0  0  0  0  0
   37.7850   30.4250   42.9230 H   0  0  0  0  0  0  0  0  0  0  0  0
   37.8970   28.0910   43.7770 H   0  0  0  0  0  0  0  0  0  0  0  0
   36.1240   26.6580   40.3160 H   0  0  0  0  0  0  0  0  0  0  0  0
  1  2  1  0  0  0  0
  2 21  1  0  0  0  0
  2  3  2  0  0  0  0
  3  8  1  0  0  0  0
  4  3  1  0  0  0  0
  5  4  2  0  0  0  0
  6  1  2  0  0  0  0
  6  5  1  0  0  0  0
  7  1  1  0  0  0  0
 10  5  1  0  0  0  0
 10  9  2  0  0  0  0
 11 10  1  0  0  0  0
 12 11  1  0  0  0  0
 13 11  2  0  0  0  0
 13 18  1  0  0  0  0
 14 15  1  0  0  0  0
 14 13  1  0  0  0  0
 15 17  2  0  0  0  0
 16 15  1  0  0  0  0
 17 18  1  0  0  0  0
 18 19  2  0  0  0  0
 19  9  1  0  0  0  0
 20 14  1  0  0  0  0
 21 24  1  0  0  0  0
 21 23  1  0  0  0  0
 22 21  1  0  0  0  0
 24 25  1  0  0  0  0
 25 26  2  0  0  0  0
 25 32  1  0  0  0  0
 26 33  1  0  0  0  0
 27 28  2  0  0  0  0
 27 26  1  0  0  0  0
 29 27  1  0  0  0  0
 30 29  1  0  0  0  0
 30 24  1  0  0  0  0
 31 30  2  0  0  0  0
 34 29  1  0  0  0  0
M  END
>  <minimizedAffinity>
-5.33204079

$$$$

 OpenBabel03242515273D

 34 37  0  0  0  0  0  0  0  0999 V2000
   36.9270   29.1620   39.6870 C   0  0  0  0  0  0  0  0  0  0  0  0
   36.8670   29.8010   40.9280 C   0  0  0  0  0  0  0  0  0  0  0  0
   36.9570   29.0120   42.0520 C   0  0  0  0  0  0  0  0  0  0  0  0
   37.0960   27.6850   41.9110 N   0  0  0  0  0  0  0  0  0  0  0  0
   37.1520   27.0930   40.6910 C   0  0  0  0  0  0  0  0  0  0  0  0
   37.0680   27.8270   39.5480 N   0  0  0  0  0  0  0  0  0  0  0  0
   36.8630   29.7230   38.7480 H   0  0  0  0  0  0  0  0  0  0  0  0
   36.9090   29.5200   43.0120 H   0  0  0  0  0  0  0  0  0  0  0  0
   38.0620   24.9740   41.5220 C   0  0  0  0  0  3  0  0  0  0  0  0
   37.3060   25.6310   40.5740 C   0  0  0  0  0  0  0  0  0  0  0  0
   36.7070   24.9440   39.5390 C   0  0  0  0  0  0  0  0  0  0  0  0
   36.1310   25.5110   38.8320 H   0  0  0  0  0  0  0  0  0  0  0  0
   36.8840   23.5620   39.4760 C   0  0  0  0  0  0  0  0  0  0  0  0
   36.3710   22.7500   38.5380 N   0  0  0  0  0  0  0  0  0  0  0  0
   36.7940   21.5040   38.8640 C   0  0  0  0  0  0  0  0  0  0  0  0
   36.5960   20.5640   38.3580 H   0  0  0  0  0  0  0  0  0  0  0  0
   37.5490   21.5920   39.9880 N   0  0  0  0  0  0  0  0  0  0  0  0
   37.6330   22.8680   40.4070 C   0  0  0  0  0  0  0  0  0  0  0  0
   38.1960   23.6130   41.4010 C   0  0  0  0  0  3  0  0  0  0  0  0
   35.7690   22.9950   37.7170 H   0  0  0  0  0  0  0  0  0  0  0  0
   36.7140   31.2570   40.8940 C   0  0  0  0  0  0  0  0  0  0  0  0
   36.4270   31.5770   41.9220 H   0  0  0  0  0  0  0  0  0  0  0  0
   35.8980   31.5690   40.2450 H   0  0  0  0  0  0  0  0  0  0  0  0
   37.9970   31.8560   40.5360 N   0  0  0  0  0  0  0  0  0  0  0  0
   39.0680   31.6710   41.3120 C   0  0  0  0  0  0  0  0  0  0  0  0
   40.2600   32.2600   40.9310 C   0  0  0  0  0  0  0  0  0  0  0  0
   40.3390   33.0160   39.7780 C   0  0  0  0  0  0  0  0  0  0  0  0
   41.4310   33.5420   39.4510 O   0  0  0  0  0  0  0  0  0  0  0  0
   39.2330   33.1710   39.0320 N   0  0  0  0  0  0  0  0  0  0  0  0
   38.0620   32.6010   39.3960 C   0  0  0  0  0  0  0  0  0  0  0  0
   37.0660   32.7940   38.6400 O   0  0  0  0  0  0  0  0  0  0  0  0
   39.0350   31.0790   42.2270 H   0  0  0  0  0  0  0  0  0  0  0  0
   41.1590   32.1540   41.5050 H   0  0  0  0  0  0  0  0  0  0  0  0
   39.3040   33.7480   38.1590 H   0  0  0  0  0  0  0  0  0  0  0  0
  1  2  1  0  0  0  0
  2  3  2  0  0  0  0
  3  8  1  0  0  0  0
  4  3  1  0  0  0  0
  5  4  2  0  0  0  0
  6  1  2  0  0  0  0
  6  5  1  0  0  0  0
  7  1  1  0  0  0  0
 10  5  1  0  0  0  0
 10  9  2  0  0  0  0
 11 10  1  0  0  0  0
 12 11  1  0  0  0  0
 13 11  2  0  0  0  0
 13 18  1  0  0  0  0
 14 15  1  0  0  0  0
 14 13  1  0  0  0  0
 15 17  2  0  0  0  0
 16 15  1  0  0  0  0
 17 18  1  0  0  0  0
 18 19  2  0  0  0  0
 19  9  1  0  0  0  0
 20 14  1  0  0  0  0
 21  2  1  0  0  0  0
 21 22  1  0  0  0  0
 23 21  1  0  0  0  0
 24 21  1  0  0  0  0
 24 25  1  0  0  0  0
 25 32  1  0  0  0  0
 26 25  2  0  0  0  0
 26 33  1  0  0  0  0
 27 26  1  0  0  0  0
 28 27  2  0  0  0  0
 29 30  1  0  0  0  0
 29 27  1  0  0  0  0
 30 24  1  0  0  0  0
 31 30  2  0  0  0  0
 34 29  1  0  0  0  0
M  END
>  <minimizedAffinity>
-5.30678463

$$$$

 OpenBabel03242515273D

 34 37  0  0  0  0  0  0  0  0999 V2000
   34.6080   29.0680   35.7860 C   0  0  0  0  0  0  0  0  0  0  0  0
   33.2310   28.9040   35.9540 C   0  0  0  0  0  0  0  0  0  0  0  0
   32.7460   28.8920   37.2410 C   0  0  0  0  0  0  0  0  0  0  0  0
   33.6030   29.0370   38.2640 N   0  0  0  0  0  0  0  0  0  0  0  0
   34.9360   29.1960   38.0690 C   0  0  0  0  0  0  0  0  0  0  0  0
   35.4680   29.2150   36.8160 N   0  0  0  0  0  0  0  0  0  0  0  0
   35.0670   29.0880   34.7910 H   0  0  0  0  0  0  0  0  0  0  0  0
   31.6730   28.7630   37.3600 H   0  0  0  0  0  0  0  0  0  0  0  0
   36.9330   30.1950   39.0820 C   0  0  0  0  0  3  0  0  0  0  0  0
   35.8490   29.3530   39.2180 C   0  0  0  0  0  0  0  0  0  0  0  0
   35.6170   28.6720   40.3940 C   0  0  0  0  0  0  0  0  0  0  0  0
   34.7560   28.0320   40.4370 H   0  0  0  0  0  0  0  0  0  0  0  0
   36.5100   28.8570   41.4490 C   0  0  0  0  0  0  0  0  0  0  0  0
   36.4280   28.2720   42.6550 N   0  0  0  0  0  0  0  0  0  0  0  0
   37.4920   28.7340   43.3570 C   0  0  0  0  0  0  0  0  0  0  0  0
   37.7870   28.5030   44.3760 H   0  0  0  0  0  0  0  0  0  0  0  0
   38.1890   29.5850   42.5620 N   0  0  0  0  0  0  0  0  0  0  0  0
   37.6070   29.6920   41.3530 C   0  0  0  0  0  0  0  0  0  0  0  0
   37.7730   30.3310   40.1600 C   0  0  0  0  0  3  0  0  0  0  0  0
   35.7090   27.5990   43.0080 H   0  0  0  0  0  0  0  0  0  0  0  0
   32.4470   28.7600   34.7250 C   0  0  0  0  0  0  0  0  0  0  0  0
   31.8860   27.8000   34.8090 H   0  0  0  0  0  0  0  0  0  0  0  0
   33.0780   28.6610   33.8440 H   0  0  0  0  0  0  0  0  0  0  0  0
   31.5030   29.8710   34.6370 N   0  0  0  0  0  0  0  0  0  0  0  0
   31.9340   31.1010   34.3470 C   0  0  0  0  0  0  0  0  0  0  0  0
   31.0010   32.1200   34.2750 C   0  0  0  0  0  0  0  0  0  0  0  0
   29.6610   31.8690   34.4970 C   0  0  0  0  0  0  0  0  0  0  0  0
   28.8310   32.8090   34.4270 O   0  0  0  0  0  0  0  0  0  0  0  0
   29.2800   30.6140   34.7850 N   0  0  0  0  0  0  0  0  0  0  0  0
   30.1830   29.6110   34.8590 C   0  0  0  0  0  0  0  0  0  0  0  0
   29.7440   28.4570   35.1350 O   0  0  0  0  0  0  0  0  0  0  0  0
   32.9850   31.3280   34.1670 H   0  0  0  0  0  0  0  0  0  0  0  0
   31.2750   33.1310   34.0480 H   0  0  0  0  0  0  0  0  0  0  0  0
   28.2590   30.4350   34.9520 H   0  0  0  0  0  0  0  0  0  0  0  0
  1  2  2  0  0  0  0
  1  6  1  0  0  0  0
  2  3  1  0  0  0  0
  3  8  1  0  0  0  0
  3  4  2  0  0  0  0
  5  4  1  0  0  0  0
  5 10  1  0  0  0  0
  6  5  2  0  0  0  0
  7  1  1  0  0  0  0
  9 10  2  0  0  0  0
  9 19  1  0  0  0  0
 10 11  1  0  0  0  0
 11 12  1  0  0  0  0
 11 13  2  0  0  0  0
 13 14  1  0  0  0  0
 14 20  1  0  0  0  0
 14 15  1  0  0  0  0
 15 16  1  0  0  0  0
 17 15  2  0  0  0  0
 18 13  1  0  0  0  0
 18 17  1  0  0  0  0
 19 18  2  0  0  0  0
 21 22  1  0  0  0  0
 21  2  1  0  0  0  0
 23 21  1  0  0  0  0
 24 21  1  0  0  0  0
 24 30  1  0  0  0  0
 25 24  1  0  0  0  0
 26 25  2  0  0  0  0
 26 27  1  0  0  0  0
 27 29  1  0  0  0  0
 28 27  2  0  0  0  0
 29 30  1  0  0  0  0
 29 34  1  0  0  0  0
 30 31  2  0  0  0  0
 32 25  1  0  0  0  0
 33 26  1  0  0  0  0
M  END
>  <minimizedAffinity>
-5.27940702

$$$$

 OpenBabel03242515273D

 34 37  0  0  0  0  0  0  0  0999 V2000
   36.6430   29.8960   41.6020 C   0  0  0  0  0  0  0  0  0  0  0  0
   37.2470   28.7150   42.0420 C   0  0  0  0  0  0  0  0  0  0  0  0
   37.1280   27.6050   41.2390 C   0  0  0  0  0  0  0  0  0  0  0  0
   36.4490   27.7010   40.0860 N   0  0  0  0  0  0  0  0  0  0  0  0
   35.8740   28.8630   39.6840 C   0  0  0  0  0  0  0  0  0  0  0  0
   35.9610   29.9910   40.4410 N   0  0  0  0  0  0  0  0  0  0  0  0
   36.6950   30.8210   42.1870 H   0  0  0  0  0  0  0  0  0  0  0  0
   37.6020   26.6920   41.5910 H   0  0  0  0  0  0  0  0  0  0  0  0
   35.8540   29.1020   37.2440 C   0  0  0  0  0  3  0  0  0  0  0  0
   35.1350   28.9320   38.4090 C   0  0  0  0  0  0  0  0  0  0  0  0
   33.7600   28.8290   38.3900 C   0  0  0  0  0  0  0  0  0  0  0  0
   33.2580   28.6980   39.3300 H   0  0  0  0  0  0  0  0  0  0  0  0
   33.1110   28.9000   37.1570 C   0  0  0  0  0  0  0  0  0  0  0  0
   31.7850   28.8170   36.9660 N   0  0  0  0  0  0  0  0  0  0  0  0
   31.6020   28.9350   35.6280 C   0  0  0  0  0  0  0  0  0  0  0  0
   30.6740   28.9180   35.0640 H   0  0  0  0  0  0  0  0  0  0  0  0
   32.8180   29.0840   35.0450 N   0  0  0  0  0  0  0  0  0  0  0  0
   33.7960   29.0690   35.9690 C   0  0  0  0  0  0  0  0  0  0  0  0
   35.1520   29.1640   36.0650 C   0  0  0  0  0  3  0  0  0  0  0  0
   31.0280   28.6900   37.6770 H   0  0  0  0  0  0  0  0  0  0  0  0
   37.9470   28.7930   43.3260 C   0  0  0  0  0  0  0  0  0  0  0  0
   37.5820   27.9420   43.9470 H   0  0  0  0  0  0  0  0  0  0  0  0
   37.6950   29.6960   43.8780 H   0  0  0  0  0  0  0  0  0  0  0  0
   39.3810   28.6430   43.0890 N   0  0  0  0  0  0  0  0  0  0  0  0
   40.0920   29.6570   42.5900 C   0  0  0  0  0  0  0  0  0  0  0  0
   41.4460   29.4660   42.3830 C   0  0  0  0  0  0  0  0  0  0  0  0
   42.0450   28.2600   42.6870 C   0  0  0  0  0  0  0  0  0  0  0  0
   43.2760   28.1080   42.4910 O   0  0  0  0  0  0  0  0  0  0  0  0
   41.2850   27.2720   43.1880 N   0  0  0  0  0  0  0  0  0  0  0  0
   39.9600   27.4470   43.3930 C   0  0  0  0  0  0  0  0  0  0  0  0
   39.3150   26.4680   43.8670 O   0  0  0  0  0  0  0  0  0  0  0  0
   39.6460   30.6210   42.3410 H   0  0  0  0  0  0  0  0  0  0  0  0
   42.0780   30.2360   41.9850 H   0  0  0  0  0  0  0  0  0  0  0  0
   41.7500   26.3590   43.4140 H   0  0  0  0  0  0  0  0  0  0  0  0
  1  2  1  0  0  0  0
  1  7  1  0  0  0  0
  2 21  1  0  0  0  0
  3  8  1  0  0  0  0
  3  2  2  0  0  0  0
  4  3  1  0  0  0  0
  5  4  2  0  0  0  0
  5  6  1  0  0  0  0
  6  1  2  0  0  0  0
  9 10  1  0  0  0  0
 10  5  1  0  0  0  0
 11 10  2  0  0  0  0
 11 12  1  0  0  0  0
 13 11  1  0  0  0  0
 14 13  1  0  0  0  0
 14 20  1  0  0  0  0
 15 14  1  0  0  0  0
 16 15  1  0  0  0  0
 17 15  2  0  0  0  0
 17 18  1  0  0  0  0
 18 19  1  0  0  0  0
 18 13  2  0  0  0  0
 19  9  2  0  0  0  0
 21 23  1  0  0  0  0
 21 22  1  0  0  0  0
 24 21  1  0  0  0  0
 24 30  1  0  0  0  0
 25 24  1  0  0  0  0
 26 25  2  0  0  0  0
 26 27  1  0  0  0  0
 27 29  1  0  0  0  0
 28 27  2  0  0  0  0
 29 30  1  0  0  0  0
 29 34  1  0  0  0  0
 30 31  2  0  0  0  0
 32 25  1  0  0  0  0
 33 26  1  0  0  0  0
M  END
>  <minimizedAffinity>
-5.22467852

$$$$

 OpenBabel03242515273D

 34 37  0  0  0  0  0  0  0  0999 V2000
   35.1210   29.2520   36.2690 C   0  0  0  0  0  0  0  0  0  0  0  0
   34.1770   28.8830   37.2310 C   0  0  0  0  0  0  0  0  0  0  0  0
   34.5220   29.0460   38.5520 C   0  0  0  0  0  0  0  0  0  0  0  0
   35.7310   29.5440   38.8570 N   0  0  0  0  0  0  0  0  0  0  0  0
   36.6270   29.8940   37.8990 C   0  0  0  0  0  0  0  0  0  0  0  0
   36.3360   29.7530   36.5770 N   0  0  0  0  0  0  0  0  0  0  0  0
   34.9180   29.1510   35.1970 H   0  0  0  0  0  0  0  0  0  0  0  0
   33.7800   28.7560   39.2920 H   0  0  0  0  0  0  0  0  0  0  0  0
   38.5330   29.9950   39.4380 C   0  0  0  0  0  3  0  0  0  0  0  0
   37.9460   30.4390   38.2710 C   0  0  0  0  0  0  0  0  0  0  0  0
   38.5720   31.3690   37.4670 C   0  0  0  0  0  0  0  0  0  0  0  0
   38.0640   31.6750   36.5720 H   0  0  0  0  0  0  0  0  0  0  0  0
   39.8190   31.8510   37.8660 C   0  0  0  0  0  0  0  0  0  0  0  0
   40.5570   32.7530   37.2000 N   0  0  0  0  0  0  0  0  0  0  0  0
   41.6780   32.9250   37.9420 C   0  0  0  0  0  0  0  0  0  0  0  0
   42.5290   33.5720   37.7500 H   0  0  0  0  0  0  0  0  0  0  0  0
   41.5920   32.1230   39.0340 N   0  0  0  0  0  0  0  0  0  0  0  0
   40.4390   31.4300   39.0270 C   0  0  0  0  0  0  0  0  0  0  0  0
   39.7610   30.5110   39.7700 C   0  0  0  0  0  3  0  0  0  0  0  0
   40.3400   33.2400   36.2990 H   0  0  0  0  0  0  0  0  0  0  0  0
   32.9100   28.3580   36.7180 C   0  0  0  0  0  0  0  0  0  0  0  0
   32.3540   27.9430   37.5910 H   0  0  0  0  0  0  0  0  0  0  0  0
   33.0570   27.5250   36.0340 H   0  0  0  0  0  0  0  0  0  0  0  0
   32.1480   29.4580   36.1320 N   0  0  0  0  0  0  0  0  0  0  0  0
   32.3060   29.7790   34.8460 C   0  0  0  0  0  0  0  0  0  0  0  0
   31.5620   30.8280   34.3370 C   0  0  0  0  0  0  0  0  0  0  0  0
   30.6800   31.5230   35.1400 C   0  0  0  0  0  0  0  0  0  0  0  0
   30.0140   32.4730   34.6590 O   0  0  0  0  0  0  0  0  0  0  0  0
   30.5570   31.1600   36.4280 N   0  0  0  0  0  0  0  0  0  0  0  0
   31.2800   30.1370   36.9350 C   0  0  0  0  0  0  0  0  0  0  0  0
   31.1070   29.8570   38.1560 O   0  0  0  0  0  0  0  0  0  0  0  0
   32.9960   29.2470   34.1880 H   0  0  0  0  0  0  0  0  0  0  0  0
   31.6390   31.1400   33.3150 H   0  0  0  0  0  0  0  0  0  0  0  0
   29.8840   31.6960   37.0290 H   0  0  0  0  0  0  0  0  0  0  0  0
  1  6  2  0  0  0  0
  1  2  1  0  0  0  0
  2  3  2  0  0  0  0
  3  4  1  0  0  0  0
  3  8  1  0  0  0  0
  5 10  1  0  0  0  0
  5  4  2  0  0  0  0
  6  5  1  0  0  0  0
  7  1  1  0  0  0  0
  9 19  1  0  0  0  0
 10  9  2  0  0  0  0
 11 13  2  0  0  0  0
 11 10  1  0  0  0  0
 12 11  1  0  0  0  0
 13 18  1  0  0  0  0
 14 13  1  0  0  0  0
 14 15  1  0  0  0  0
 15 17  2  0  0  0  0
 16 15  1  0  0  0  0
 18 17  1  0  0  0  0
 18 19  2  0  0  0  0
 20 14  1  0  0  0  0
 21  2  1  0  0  0  0
 21 22  1  0  0  0  0
 23 21  1  0  0  0  0
 24 21  1  0  0  0  0
 24 30  1  0  0  0  0
 25 24  1  0  0  0  0
 26 25  2  0  0  0  0
 26 27  1  0  0  0  0
 27 29  1  0  0  0  0
 28 27  2  0  0  0  0
 29 30  1  0  0  0  0
 29 34  1  0  0  0  0
 30 31  2  0  0  0  0
 32 25  1  0  0  0  0
 33 26  1  0  0  0  0
M  END
>  <minimizedAffinity>
-5.11303329

$$$$
