
 OpenBabel03252502393D

 49 53  0  0  1  0  0  0  0  0999 V2000
   44.2340   31.9240   38.4920 C   0  0  1  0  0  0  0  0  0  0  0  0
   45.2040   32.0510   39.0580 H   0  0  0  0  0  0  0  0  0  0  0  0
   43.6030   30.7650   39.0640 N   0  0  0  0  0  0  0  0  0  0  0  0
   44.3720   30.1580   40.0840 C   0  0  0  0  0  0  0  0  0  0  0  0
   43.7520   28.7580   40.2730 C   0  0  0  0  0  0  0  0  0  0  0  0
   42.5060   29.0450   40.9390 N   0  0  0  0  0  0  0  0  0  0  0  0
   41.6410   29.8360   40.1650 C   0  0  0  0  0  0  0  0  0  0  0  0
   42.2800   31.0190   39.4590 C   0  0  0  0  0  0  0  0  0  0  0  0
   45.4500   30.0910   39.8600 H   0  0  0  0  0  0  0  0  0  0  0  0
   44.2110   30.7270   41.0260 H   0  0  0  0  0  0  0  0  0  0  0  0
   44.4080   28.1510   40.9220 H   0  0  0  0  0  0  0  0  0  0  0  0
   43.5480   28.2970   39.2840 H   0  0  0  0  0  0  0  0  0  0  0  0
   42.0440   28.1650   41.1790 H   0  0  0  0  0  0  0  0  0  0  0  0
   41.1590   29.1870   39.3870 H   0  0  0  0  0  0  0  0  0  0  0  0
   40.7790   30.1580   40.8050 H   0  0  0  0  0  0  0  0  0  0  0  0
   42.3910   31.6930   40.3690 H   0  0  0  0  0  0  0  0  0  0  0  0
   41.5210   31.3390   38.7850 H   0  0  0  0  0  0  0  0  0  0  0  0
   45.5240   32.5990   36.4680 C   0  0  0  0  0  0  0  0  0  0  0  0
   44.5300   31.8710   37.0940 C   0  0  0  0  0  0  0  0  0  0  0  0
   43.7740   31.0230   36.2600 C   0  0  0  0  0  0  0  0  0  0  0  0
   44.0520   30.9660   34.9210 N   0  0  0  0  0  0  0  0  0  0  0  0
   45.0480   31.7150   34.3770 C   0  0  0  0  0  0  0  0  0  0  0  0
   45.7790   32.5290   35.1540 N   0  0  0  0  0  0  0  0  0  0  0  0
   46.1370   33.2660   37.0580 H   0  0  0  0  0  0  0  0  0  0  0  0
   42.9800   30.4240   36.6930 H   0  0  0  0  0  0  0  0  0  0  0  0
   45.1340   31.5550   33.3210 H   0  0  0  0  0  0  0  0  0  0  0  0
   43.3460   33.1480   38.7470 C   0  0  0  0  0  0  0  0  0  0  0  0
   43.0710   33.7250   37.8680 H   0  0  0  0  0  0  0  0  0  0  0  0
   42.3690   32.5860   38.9170 H   0  0  0  0  0  0  0  0  0  0  0  0
   43.7090   33.9750   39.8490 C   0  0  0  0  0  0  0  0  0  0  0  0
   43.1280   34.8900   40.6590 C   0  0  0  0  0  0  0  0  0  0  0  0
   43.6930   35.6060   41.6970 C   0  0  0  0  0  0  0  0  0  0  0  0
   44.9730   35.3530   41.9190 N   0  0  0  0  0  0  0  0  0  0  0  0
   45.6280   34.4790   41.1870 C   0  0  0  0  0  0  0  0  0  0  0  0
   45.0080   33.8340   40.2060 N   0  0  0  0  0  0  0  0  0  0  0  0
   42.0640   35.0360   40.3880 H   0  0  0  0  0  0  0  0  0  0  0  0
   43.0260   36.2820   42.2020 H   0  0  0  0  0  0  0  0  0  0  0  0
   47.8100   35.1880   42.1060 C   0  0  0  0  0  0  0  0  0  0  0  0
   47.0700   34.2250   41.4710 C   0  0  0  0  0  0  0  0  0  0  0  0
   47.6260   33.0190   41.0850 C   0  0  0  0  0  0  0  0  0  0  0  0
   47.0250   32.2580   40.5790 H   0  0  0  0  0  0  0  0  0  0  0  0
   48.9560   32.7250   41.3210 C   0  0  0  0  0  0  0  0  0  0  0  0
   49.7960   31.6950   41.0910 N   0  0  0  0  0  0  0  0  0  0  0  0
   51.0170   32.0130   41.5710 C   0  0  0  0  0  0  0  0  0  0  0  0
   51.7820   31.2600   41.4460 H   0  0  0  0  0  0  0  0  0  0  0  0
   50.9330   33.2470   42.1000 N   0  0  0  0  0  0  0  0  0  0  0  0
   49.6770   33.7230   41.9660 C   0  0  0  0  0  0  0  0  0  0  0  0
   49.1610   34.9390   42.3680 C   0  0  0  0  0  0  0  0  0  0  0  0
   49.3880   30.8520   40.6020 H   0  0  0  0  0  0  0  0  0  0  0  0
  1 27  1  0  0  0  0
  1  2  1  1  0  0  0
  1  3  1  0  0  0  0
  3  8  1  0  0  0  0
  3  4  1  0  0  0  0
  4  5  1  0  0  0  0
  4 10  1  0  0  0  0
  5 11  1  0  0  0  0
  5  6  1  0  0  0  0
  6 13  1  0  0  0  0
  7 15  1  0  0  0  0
  7  6  1  0  0  0  0
  8  7  1  0  0  0  0
  8 16  1  0  0  0  0
  9  4  1  0  0  0  0
 12  5  1  0  0  0  0
 14  7  1  0  0  0  0
 17  8  1  0  0  0  0
 18 24  1  0  0  0  0
 18 19  1  0  0  0  0
 19  1  1  0  0  0  0
 20 25  1  0  0  0  0
 20 19  2  0  0  0  0
 21 20  1  0  0  0  0
 22 21  2  0  0  0  0
 22 23  1  0  0  0  0
 23 18  2  0  0  0  0
 26 22  1  0  0  0  0
 27 29  1  0  0  0  0
 27 30  1  0  0  0  0
 28 27  1  0  0  0  0
 30 35  2  0  0  0  0
 30 31  1  0  0  0  0
 31 32  2  0  0  0  0
 32 33  1  0  0  0  0
 32 37  1  0  0  0  0
 34 39  1  0  0  0  0
 34 33  2  0  0  0  0
 35 34  1  0  0  0  0
 36 31  1  0  0  0  0
 38 48  1  0  0  0  0
 39 38  2  0  0  0  0
 40 42  2  0  0  0  0
 40 39  1  0  0  0  0
 41 40  1  0  0  0  0
 42 47  1  0  0  0  0
 43 42  1  0  0  0  0
 43 44  1  0  0  0  0
 44 46  2  0  0  0  0
 45 44  1  0  0  0  0
 47 46  1  0  0  0  0
 47 48  2  0  0  0  0
 49 43  1  0  0  0  0
M  END
>  <minimizedAffinity>
-4.94669008

>  <minimizedRMSD>
4.54845047

$$$$
