
 OpenBabel03252508173D

 50 55  0  0  1  0  0  0  0  0999 V2000
   46.7560   31.5550   48.2220 C   0  0  1  0  0  0  0  0  0  0  0  0
   46.4080   30.4730   49.1870 C   0  0  0  0  0  0  0  0  0  0  0  0
   47.5890   31.2950   49.4130 C   0  0  1  0  0  0  0  0  0  0  0  0
   45.9210   32.3130   48.2020 H   0  0  0  0  0  0  0  0  0  0  0  0
   46.6110   29.4090   48.8990 H   0  0  0  0  0  0  0  0  0  0  0  0
   45.5480   30.5460   49.8790 H   0  0  0  0  0  0  0  0  0  0  0  0
   47.5090   32.0490   50.2250 H   0  0  0  0  0  0  0  0  0  0  0  0
   48.9800   30.7800   49.2020 C   0  0  2  0  0  0  0  0  0  0  0  0
   49.5910   30.1410   50.4740 C   0  0  0  0  0  0  0  0  0  0  0  0
   50.0970   31.4410   50.0020 C   0  0  1  0  0  0  0  0  0  0  0  0
   49.2480   30.1830   48.3210 H   0  0  0  0  0  0  0  0  0  0  0  0
   48.9850   30.1430   51.4010 H   0  0  0  0  0  0  0  0  0  0  0  0
   50.2500   29.2820   50.3950 H   0  0  0  0  0  0  0  0  0  0  0  0
   49.7980   32.3440   50.5780 H   0  0  0  0  0  0  0  0  0  0  0  0
   52.3880   32.4160   49.8760 C   0  0  0  0  0  3  0  0  0  0  0  0
   51.4580   31.4890   49.4590 C   0  0  0  0  0  0  0  0  0  0  0  0
   51.8900   30.5880   48.4800 C   0  0  0  0  0  0  0  0  0  0  0  0
   51.1350   29.8540   48.1590 H   0  0  0  0  0  0  0  0  0  0  0  0
   53.1500   30.5750   47.9270 C   0  0  0  0  0  0  0  0  0  0  0  0
   53.6920   29.7690   46.9850 N   0  0  0  0  0  0  0  0  0  0  0  0
   54.9400   30.2080   46.8330 C   0  0  0  0  0  0  0  0  0  0  0  0
   55.6330   29.7640   46.1440 H   0  0  0  0  0  0  0  0  0  0  0  0
   55.1860   31.2660   47.6580 N   0  0  0  0  0  0  0  0  0  0  0  0
   54.0650   31.5130   48.3580 C   0  0  0  0  0  0  0  0  0  0  0  0
   53.6630   32.4180   49.3290 C   0  0  0  0  0  3  0  0  0  0  0  0
   53.2340   28.9660   46.4740 H   0  0  0  0  0  0  0  0  0  0  0  0
   47.1970   31.0820   46.8840 C   0  0  0  0  0  0  0  0  0  0  0  0
   48.2060   30.7430   46.7540 H   0  0  0  0  0  0  0  0  0  0  0  0
   46.5160   30.2250   46.6070 H   0  0  0  0  0  0  0  0  0  0  0  0
   46.0900   33.0240   46.1420 C   0  0  0  0  0  3  0  0  0  0  0  0
   46.9300   32.1290   45.8290 C   0  0  0  0  0  3  0  0  0  0  0  0
   44.5700   35.9050   44.4140 C   0  0  0  0  0  0  0  0  0  0  0  0
   45.1960   35.8970   43.1810 C   0  0  0  0  0  0  0  0  0  0  0  0
   46.1160   34.9090   42.9710 C   0  0  0  0  0  0  0  0  0  0  0  0
   46.3680   34.0020   43.9580 N   0  0  0  0  0  0  0  0  0  0  0  0
   45.7410   34.0390   45.1440 C   0  0  0  0  0  0  0  0  0  0  0  0
   44.8500   34.9990   45.3430 N   0  0  0  0  0  0  0  0  0  0  0  0
   43.8380   36.6980   44.5690 H   0  0  0  0  0  0  0  0  0  0  0  0
   45.0310   36.5830   42.3870 H   0  0  0  0  0  0  0  0  0  0  0  0
   46.8550   34.7720   41.7240 C   0  0  0  0  0  0  0  0  0  0  0  0
   48.0580   35.3640   41.4690 C   0  0  0  0  0  0  0  0  0  0  0  0
   48.7490   35.2270   40.2810 C   0  0  0  0  0  0  0  0  0  0  0  0
   48.2240   34.4520   39.2740 C   0  0  0  0  0  0  0  0  0  0  0  0
   47.0180   33.8340   39.4750 C   0  0  0  0  0  0  0  0  0  0  0  0
   46.3790   34.0110   40.6820 C   0  0  0  0  0  0  0  0  0  0  0  0
   48.5150   35.9930   42.2500 H   0  0  0  0  0  0  0  0  0  0  0  0
   49.7000   35.7160   40.1230 H   0  0  0  0  0  0  0  0  0  0  0  0
   48.7210   34.3100   38.3240 H   0  0  0  0  0  0  0  0  0  0  0  0
   46.5920   33.2170   38.6830 H   0  0  0  0  0  0  0  0  0  0  0  0
   45.4180   33.4810   40.7620 H   0  0  0  0  0  0  0  0  0  0  0  0
  1  4  1  1  0  0  0
  1  2  1  0  0  0  0
  1  3  1  0  0  0  0
  2  3  1  0  0  0  0
  2  6  1  0  0  0  0
  3  7  1  1  0  0  0
  5  2  1  0  0  0  0
  8 11  1  6  0  0  0
  8  3  1  0  0  0  0
  8 10  1  0  0  0  0
  8  9  1  0  0  0  0
  9 12  1  0  0  0  0
 10  9  1  0  0  0  0
 10 14  1  1  0  0  0
 13  9  1  0  0  0  0
 16 15  1  0  0  0  0
 16 10  1  0  0  0  0
 17 16  2  0  0  0  0
 18 17  1  0  0  0  0
 19 24  2  0  0  0  0
 19 17  1  0  0  0  0
 20 19  1  0  0  0  0
 21 20  1  0  0  0  0
 21 23  2  0  0  0  0
 22 21  1  0  0  0  0
 23 24  1  0  0  0  0
 24 25  1  0  0  0  0
 25 15  2  0  0  0  0
 26 20  1  0  0  0  0
 27  1  1  0  0  0  0
 28 27  1  0  0  0  0
 29 27  1  0  0  0  0
 31 30  2  0  0  0  0
 31 27  1  0  0  0  0
 32 38  1  0  0  0  0
 32 37  1  0  0  0  0
 33 32  2  0  0  0  0
 34 33  1  0  0  0  0
 34 35  2  0  0  0  0
 35 36  1  0  0  0  0
 36 37  2  0  0  0  0
 36 30  1  0  0  0  0
 39 33  1  0  0  0  0
 40 34  1  0  0  0  0
 41 40  1  0  0  0  0
 41 46  1  0  0  0  0
 42 41  2  0  0  0  0
 43 44  2  0  0  0  0
 43 42  1  0  0  0  0
 44 45  1  0  0  0  0
 45 50  1  0  0  0  0
 45 40  2  0  0  0  0
 47 42  1  0  0  0  0
 48 43  1  0  0  0  0
 49 44  1  0  0  0  0
M  END
>  <minimizedAffinity>
-6.74064255

>  <minimizedRMSD>
1.07000697

$$$$
