
 OpenBabel03252506573D

 41 46  0  0  0  0  0  0  0  0999 V2000
   47.0060   31.2910   45.0820 C   0  0  0  0  0  0  0  0  0  0  0  0
   46.7750   32.6610   45.1550 C   0  0  0  0  0  0  0  0  0  0  0  0
   46.2730   33.2700   46.2800 C   0  0  0  0  0  0  0  0  0  0  0  0
   45.9690   32.5250   47.4120 C   0  0  0  0  0  0  0  0  0  0  0  0
   45.4730   32.7810   48.6610 N   0  0  0  0  0  0  0  0  0  0  0  0
   45.4000   31.6040   49.3360 C   0  0  0  0  0  0  0  0  0  0  0  0
   45.8480   30.6450   48.5030 N   0  0  0  0  0  0  0  0  0  0  0  0
   46.2000   31.1740   47.3270 C   0  0  0  0  0  0  0  0  0  0  0  0
   46.6980   30.5380   46.2280 C   0  0  0  0  0  0  0  0  0  0  0  0
   47.4020   30.8040   44.2010 H   0  0  0  0  0  0  0  0  0  0  0  0
   46.0920   34.3360   46.3420 H   0  0  0  0  0  0  0  0  0  0  0  0
   45.2200   33.7560   48.9540 H   0  0  0  0  0  0  0  0  0  0  0  0
   45.0380   31.5290   50.3540 H   0  0  0  0  0  0  0  0  0  0  0  0
   46.4900   35.2030   42.5170 C   0  0  0  0  0  0  0  0  0  0  0  0
   47.6860   35.0300   41.8020 C   0  0  0  0  0  0  0  0  0  0  0  0
   48.5710   34.0480   42.2290 C   0  0  0  0  0  0  0  0  0  0  0  0
   48.2460   33.2890   43.3290 N   0  0  0  0  0  0  0  0  0  0  0  0
   47.0790   33.4920   43.9910 C   0  0  0  0  0  0  0  0  0  0  0  0
   46.2040   34.4340   43.6010 N   0  0  0  0  0  0  0  0  0  0  0  0
   45.7870   35.9610   42.2020 H   0  0  0  0  0  0  0  0  0  0  0  0
   47.9000   35.6460   40.9460 H   0  0  0  0  0  0  0  0  0  0  0  0
   49.4890   33.9030   41.6930 H   0  0  0  0  0  0  0  0  0  0  0  0
   46.9150   29.0760   46.2280 C   0  0  0  0  0  0  0  0  0  0  0  0
   48.0870   28.4640   46.6620 C   0  0  0  0  0  0  0  0  0  0  0  0
   47.8210   27.1010   46.4730 C   0  0  0  0  0  0  0  0  0  0  0  0
   46.5430   26.9680   45.9530 C   0  0  0  0  0  0  0  0  0  0  0  0
   46.0510   28.1900   45.8280 O   0  0  0  0  0  0  0  0  0  0  0  0
   48.9430   29.0070   47.0370 H   0  0  0  0  0  0  0  0  0  0  0  0
   48.5580   26.3440   46.7240 H   0  0  0  0  0  0  0  0  0  0  0  0
   45.3270   25.4380   44.4160 C   0  0  0  0  0  3  0  0  0  0  0  0
   45.9330   25.6830   45.6310 C   0  0  0  0  0  0  0  0  0  0  0  0
   45.9600   24.6570   46.5790 C   0  0  0  0  0  0  0  0  0  0  0  0
   46.4230   24.7830   47.5600 H   0  0  0  0  0  0  0  0  0  0  0  0
   45.3730   23.4550   46.2410 C   0  0  0  0  0  0  0  0  0  0  0  0
   45.2130   22.2670   46.8910 N   0  0  0  0  0  0  0  0  0  0  0  0
   44.5590   21.3770   46.1200 C   0  0  0  0  0  0  0  0  0  0  0  0
   44.3590   20.3910   46.5030 H   0  0  0  0  0  0  0  0  0  0  0  0
   44.2830   21.9890   44.9430 N   0  0  0  0  0  0  0  0  0  0  0  0
   44.7690   23.2330   45.0110 C   0  0  0  0  0  0  0  0  0  0  0  0
   44.7480   24.2500   44.0850 C   0  0  0  0  0  3  0  0  0  0  0  0
   45.5820   22.1450   47.8640 H   0  0  0  0  0  0  0  0  0  0  0  0
  1  2  2  0  0  0  0
  1  9  1  0  0  0  0
  2  3  1  0  0  0  0
  3 11  1  0  0  0  0
  3  4  2  0  0  0  0
  4  5  1  0  0  0  0
  5 12  1  0  0  0  0
  5  6  1  0  0  0  0
  6 13  1  0  0  0  0
  7  6  2  0  0  0  0
  8  4  1  0  0  0  0
  8  7  1  0  0  0  0
  9  8  2  0  0  0  0
 10  1  1  0  0  0  0
 14 19  1  0  0  0  0
 15 16  1  0  0  0  0
 15 14  2  0  0  0  0
 16 17  2  0  0  0  0
 17 18  1  0  0  0  0
 18  2  1  0  0  0  0
 19 18  2  0  0  0  0
 20 14  1  0  0  0  0
 21 15  1  0  0  0  0
 22 16  1  0  0  0  0
 23  9  1  0  0  0  0
 23 24  2  0  0  0  0
 24 28  1  0  0  0  0
 25 24  1  0  0  0  0
 25 29  1  0  0  0  0
 26 25  2  0  0  0  0
 27 26  1  0  0  0  0
 27 23  1  0  0  0  0
 30 31  1  0  0  0  0
 31 26  1  0  0  0  0
 31 32  2  0  0  0  0
 32 33  1  0  0  0  0
 34 32  1  0  0  0  0
 34 35  1  0  0  0  0
 35 41  1  0  0  0  0
 36 37  1  0  0  0  0
 36 35  1  0  0  0  0
 38 39  1  0  0  0  0
 38 36  2  0  0  0  0
 39 34  2  0  0  0  0
 40 30  2  0  0  0  0
 40 39  1  0  0  0  0
M  END
>  <minimizedAffinity>
-5.64497566

>  <minimizedRMSD>
0.916820824

$$$$
