
 OpenBabel03252506563D

 41 46  0  0  0  0  0  0  0  0999 V2000
   47.4310   31.4670   45.2460 C   0  0  0  0  0  0  0  0  0  0  0  0
   46.8800   32.7430   45.1680 C   0  0  0  0  0  0  0  0  0  0  0  0
   46.1360   33.2920   46.1850 C   0  0  0  0  0  0  0  0  0  0  0  0
   45.9000   32.5810   47.3540 C   0  0  0  0  0  0  0  0  0  0  0  0
   45.2320   32.8000   48.5270 N   0  0  0  0  0  0  0  0  0  0  0  0
   45.3670   31.6930   49.3040 C   0  0  0  0  0  0  0  0  0  0  0  0
   46.1100   30.8130   48.6060 N   0  0  0  0  0  0  0  0  0  0  0  0
   46.4480   31.3240   47.4170 C   0  0  0  0  0  0  0  0  0  0  0  0
   47.1910   30.7480   46.4300 C   0  0  0  0  0  0  0  0  0  0  0  0
   48.0190   31.0270   44.4510 H   0  0  0  0  0  0  0  0  0  0  0  0
   45.7060   34.2850   46.1280 H   0  0  0  0  0  0  0  0  0  0  0  0
   44.7290   33.7040   48.7040 H   0  0  0  0  0  0  0  0  0  0  0  0
   44.9290   31.6070   50.2910 H   0  0  0  0  0  0  0  0  0  0  0  0
   46.3990   35.1880   42.4690 C   0  0  0  0  0  0  0  0  0  0  0  0
   47.5480   35.0000   41.6840 C   0  0  0  0  0  0  0  0  0  0  0  0
   48.4690   34.0410   42.0860 C   0  0  0  0  0  0  0  0  0  0  0  0
   48.2240   33.3190   43.2300 N   0  0  0  0  0  0  0  0  0  0  0  0
   47.0990   33.5340   43.9600 C   0  0  0  0  0  0  0  0  0  0  0  0
   46.1910   34.4550   43.5940 N   0  0  0  0  0  0  0  0  0  0  0  0
   45.6690   35.9290   42.1740 H   0  0  0  0  0  0  0  0  0  0  0  0
   47.7000   35.5870   40.7950 H   0  0  0  0  0  0  0  0  0  0  0  0
   49.3530   33.8840   41.4970 H   0  0  0  0  0  0  0  0  0  0  0  0
   47.7430   29.3860   46.5880 C   0  0  0  0  0  0  0  0  0  0  0  0
   49.0950   29.1120   46.7710 C   0  0  0  0  0  0  0  0  0  0  0  0
   49.1240   27.7130   46.8670 C   0  0  0  0  0  0  0  0  0  0  0  0
   47.8280   27.2350   46.7410 C   0  0  0  0  0  0  0  0  0  0  0  0
   47.0450   28.2880   46.5750 O   0  0  0  0  0  0  0  0  0  0  0  0
   49.8600   29.8730   46.8140 H   0  0  0  0  0  0  0  0  0  0  0  0
   50.0570   27.1780   47.0170 H   0  0  0  0  0  0  0  0  0  0  0  0
   46.3330   25.3190   46.2170 C   0  0  0  0  0  3  0  0  0  0  0  0
   47.4830   25.8190   46.7920 C   0  0  0  0  0  0  0  0  0  0  0  0
   48.3410   24.9300   47.4450 C   0  0  0  0  0  0  0  0  0  0  0  0
   49.2670   25.2570   47.9220 H   0  0  0  0  0  0  0  0  0  0  0  0
   47.9830   23.5970   47.4740 C   0  0  0  0  0  0  0  0  0  0  0  0
   48.5550   22.4780   48.0020 N   0  0  0  0  0  0  0  0  0  0  0  0
   47.8020   21.3890   47.7610 C   0  0  0  0  0  0  0  0  0  0  0  0
   48.1290   20.4280   48.1200 H   0  0  0  0  0  0  0  0  0  0  0  0
   46.7150   21.7970   47.0620 N   0  0  0  0  0  0  0  0  0  0  0  0
   46.8200   23.1180   46.8890 C   0  0  0  0  0  0  0  0  0  0  0  0
   45.9820   24.0030   46.2480 C   0  0  0  0  0  3  0  0  0  0  0  0
   49.4660   22.5450   48.5170 H   0  0  0  0  0  0  0  0  0  0  0  0
  1  9  1  0  0  0  0
  2  1  2  0  0  0  0
  2  3  1  0  0  0  0
  3  4  2  0  0  0  0
  4  8  1  0  0  0  0
  4  5  1  0  0  0  0
  5 12  1  0  0  0  0
  5  6  1  0  0  0  0
  6 13  1  0  0  0  0
  7  6  2  0  0  0  0
  8  7  1  0  0  0  0
  9 23  1  0  0  0  0
  9  8  2  0  0  0  0
 10  1  1  0  0  0  0
 11  3  1  0  0  0  0
 14 19  1  0  0  0  0
 15 16  1  0  0  0  0
 15 14  2  0  0  0  0
 16 17  2  0  0  0  0
 17 18  1  0  0  0  0
 18  2  1  0  0  0  0
 19 18  2  0  0  0  0
 20 14  1  0  0  0  0
 21 15  1  0  0  0  0
 22 16  1  0  0  0  0
 23 24  2  0  0  0  0
 24 28  1  0  0  0  0
 24 25  1  0  0  0  0
 25 29  1  0  0  0  0
 26 31  1  0  0  0  0
 26 25  2  0  0  0  0
 27 23  1  0  0  0  0
 27 26  1  0  0  0  0
 30 40  2  0  0  0  0
 30 31  1  0  0  0  0
 31 32  2  0  0  0  0
 32 34  1  0  0  0  0
 32 33  1  0  0  0  0
 34 35  1  0  0  0  0
 35 41  1  0  0  0  0
 36 35  1  0  0  0  0
 36 37  1  0  0  0  0
 38 36  2  0  0  0  0
 39 38  1  0  0  0  0
 39 34  2  0  0  0  0
 40 39  1  0  0  0  0
M  END
>  <minimizedAffinity>
-5.59419632

>  <minimizedRMSD>
0.733457983

$$$$
