
 OpenBabel03242512593D

 31 34  0  0  0  0  0  0  0  0999 V2000
   38.3230   27.8530   39.9890 F   0  0  0  0  0  0  0  0  0  0  0  0
   37.7340   27.5920   41.2000 C   0  0  0  0  0  0  0  0  0  0  0  0
   37.3010   26.3360   41.5370 C   0  0  0  0  0  0  0  0  0  0  0  0
   36.7240   26.1970   42.7810 C   0  0  0  0  0  0  0  0  0  0  0  0
   36.5690   27.2280   43.6770 C   0  0  0  0  0  0  0  0  0  0  0  0
   37.0220   28.4660   43.2850 C   0  0  0  0  0  0  0  0  0  0  0  0
   37.6030   28.6620   42.0570 C   0  0  0  0  0  0  0  0  0  0  0  0
   36.3760   25.2060   43.0630 H   0  0  0  0  0  0  0  0  0  0  0  0
   36.1050   27.0340   44.6380 H   0  0  0  0  0  0  0  0  0  0  0  0
   36.9130   29.3030   43.9700 H   0  0  0  0  0  0  0  0  0  0  0  0
   39.3400   30.4380   41.9730 C   0  0  0  0  0  3  0  0  0  0  0  0
   38.0710   29.9950   41.6810 C   0  0  0  0  0  0  0  0  0  0  0  0
   37.2100   30.8560   41.0030 C   0  0  0  0  0  0  0  0  0  0  0  0
   36.2050   30.5410   40.7560 H   0  0  0  0  0  0  0  0  0  0  0  0
   37.6480   32.1250   40.6430 C   0  0  0  0  0  0  0  0  0  0  0  0
   36.9830   33.1090   39.9870 N   0  0  0  0  0  0  0  0  0  0  0  0
   37.8390   34.1560   39.8760 C   0  0  0  0  0  0  0  0  0  0  0  0
   37.5740   35.1060   39.3840 H   0  0  0  0  0  0  0  0  0  0  0  0
   38.9980   33.8000   40.4570 N   0  0  0  0  0  0  0  0  0  0  0  0
   38.9120   32.5530   40.9390 C   0  0  0  0  0  0  0  0  0  0  0  0
   39.7750   31.7060   41.6130 C   0  0  0  0  0  3  0  0  0  0  0  0
   35.9950   33.0890   39.6260 H   0  0  0  0  0  0  0  0  0  0  0  0
   36.7360   23.8860   38.7200 C   0  0  0  0  0  0  0  0  0  0  0  0
   36.5200   24.9210   39.6350 C   0  0  0  0  0  0  0  0  0  0  0  0
   37.4800   25.2690   40.5690 C   0  0  0  0  0  0  0  0  0  0  0  0
   38.6310   24.5370   40.5270 N   0  0  0  0  0  0  0  0  0  0  0  0
   38.8300   23.5440   39.6460 C   0  0  0  0  0  0  0  0  0  0  0  0
   37.9010   23.2180   38.7540 N   0  0  0  0  0  0  0  0  0  0  0  0
   35.9290   23.6880   38.0330 H   0  0  0  0  0  0  0  0  0  0  0  0
   35.5910   25.4890   39.6450 H   0  0  0  0  0  0  0  0  0  0  0  0
   39.7860   23.0250   39.7010 H   0  0  0  0  0  0  0  0  0  0  0  0
  1  2  1  0  0  0  0
  2  3  2  0  0  0  0
  2  7  1  0  0  0  0
  3  4  1  0  0  0  0
  4  8  1  0  0  0  0
  4  5  2  0  0  0  0
  5  9  1  0  0  0  0
  6  5  1  0  0  0  0
  6 10  1  0  0  0  0
  7  6  2  0  0  0  0
 12 11  1  0  0  0  0
 12  7  1  0  0  0  0
 13 12  2  0  0  0  0
 14 13  1  0  0  0  0
 15 20  2  0  0  0  0
 15 13  1  0  0  0  0
 16 15  1  0  0  0  0
 17 16  1  0  0  0  0
 17 19  2  0  0  0  0
 18 17  1  0  0  0  0
 19 20  1  0  0  0  0
 20 21  1  0  0  0  0
 21 11  2  0  0  0  0
 22 16  1  0  0  0  0
 23 28  2  0  0  0  0
 23 24  1  0  0  0  0
 24 30  1  0  0  0  0
 24 25  2  0  0  0  0
 25  3  1  0  0  0  0
 26 25  1  0  0  0  0
 27 31  1  0  0  0  0
 27 26  2  0  0  0  0
 28 27  1  0  0  0  0
 29 23  1  0  0  0  0
M  END
>  <minimizedAffinity>
-6.02775192

$$$$

 OpenBabel03242512593D

 31 34  0  0  0  0  0  0  0  0999 V2000
   38.0140   28.2430   39.7050 F   0  0  0  0  0  0  0  0  0  0  0  0
   37.6780   28.0120   41.0140 C   0  0  0  0  0  0  0  0  0  0  0  0
   37.4070   26.7520   41.4800 C   0  0  0  0  0  0  0  0  0  0  0  0
   37.0820   26.6450   42.8150 C   0  0  0  0  0  0  0  0  0  0  0  0
   37.0200   27.7130   43.6790 C   0  0  0  0  0  0  0  0  0  0  0  0
   37.3020   28.9540   43.1570 C   0  0  0  0  0  0  0  0  0  0  0  0
   37.6320   29.1180   41.8350 C   0  0  0  0  0  0  0  0  0  0  0  0
   36.8640   25.6520   43.1990 H   0  0  0  0  0  0  0  0  0  0  0  0
   36.7570   27.5440   44.7180 H   0  0  0  0  0  0  0  0  0  0  0  0
   37.2620   29.8180   43.8140 H   0  0  0  0  0  0  0  0  0  0  0  0
   36.9870   31.2070   40.6520 C   0  0  0  0  0  3  0  0  0  0  0  0
   37.9240   30.4550   41.3210 C   0  0  0  0  0  0  0  0  0  0  0  0
   39.1940   30.9970   41.5100 C   0  0  0  0  0  0  0  0  0  0  0  0
   39.9560   30.4350   42.0330 H   0  0  0  0  0  0  0  0  0  0  0  0
   39.4800   32.2680   41.0250 C   0  0  0  0  0  0  0  0  0  0  0  0
   40.6340   32.9760   41.0980 N   0  0  0  0  0  0  0  0  0  0  0  0
   40.4100   34.1610   40.4750 C   0  0  0  0  0  0  0  0  0  0  0  0
   41.1740   34.9480   40.3770 H   0  0  0  0  0  0  0  0  0  0  0  0
   39.1390   34.1570   40.0380 N   0  0  0  0  0  0  0  0  0  0  0  0
   38.5390   33.0040   40.3610 C   0  0  0  0  0  0  0  0  0  0  0  0
   37.2740   32.4740   40.1670 C   0  0  0  0  0  3  0  0  0  0  0  0
   41.5410   32.6840   41.5450 H   0  0  0  0  0  0  0  0  0  0  0  0
   36.5620   24.2300   38.8000 C   0  0  0  0  0  0  0  0  0  0  0  0
   36.4460   25.3030   39.6890 C   0  0  0  0  0  0  0  0  0  0  0  0
   37.4810   25.6470   40.5420 C   0  0  0  0  0  0  0  0  0  0  0  0
   38.6000   24.8710   40.4480 N   0  0  0  0  0  0  0  0  0  0  0  0
   38.7020   23.8410   39.5920 C   0  0  0  0  0  0  0  0  0  0  0  0
   37.7020   23.5200   38.7780 N   0  0  0  0  0  0  0  0  0  0  0  0
   35.7020   24.0390   38.1770 H   0  0  0  0  0  0  0  0  0  0  0  0
   35.5410   25.9050   39.7420 H   0  0  0  0  0  0  0  0  0  0  0  0
   39.6410   23.2890   39.6010 H   0  0  0  0  0  0  0  0  0  0  0  0
  1  2  1  0  0  0  0
  2  3  2  0  0  0  0
  2  7  1  0  0  0  0
  3  4  1  0  0  0  0
  4  8  1  0  0  0  0
  4  5  2  0  0  0  0
  5  9  1  0  0  0  0
  6  5  1  0  0  0  0
  6 10  1  0  0  0  0
  7  6  2  0  0  0  0
 11 12  1  0  0  0  0
 12 13  2  0  0  0  0
 12  7  1  0  0  0  0
 13 14  1  0  0  0  0
 15 16  1  0  0  0  0
 15 13  1  0  0  0  0
 16 22  1  0  0  0  0
 17 16  1  0  0  0  0
 18 17  1  0  0  0  0
 19 20  1  0  0  0  0
 19 17  2  0  0  0  0
 20 15  2  0  0  0  0
 21 20  1  0  0  0  0
 21 11  2  0  0  0  0
 23 24  1  0  0  0  0
 24 30  1  0  0  0  0
 24 25  2  0  0  0  0
 25  3  1  0  0  0  0
 26 25  1  0  0  0  0
 27 31  1  0  0  0  0
 27 26  2  0  0  0  0
 28 23  2  0  0  0  0
 28 27  1  0  0  0  0
 29 23  1  0  0  0  0
M  END
>  <minimizedAffinity>
-5.98040152

$$$$

 OpenBabel03242512593D

 31 34  0  0  0  0  0  0  0  0999 V2000
   39.6480   25.5310   40.9670 F   0  0  0  0  0  0  0  0  0  0  0  0
   38.7600   26.1930   41.7750 C   0  0  0  0  0  0  0  0  0  0  0  0
   37.4090   26.1530   41.5500 C   0  0  0  0  0  0  0  0  0  0  0  0
   36.6160   26.8580   42.4300 C   0  0  0  0  0  0  0  0  0  0  0  0
   37.1020   27.5770   43.4960 C   0  0  0  0  0  0  0  0  0  0  0  0
   38.4670   27.5820   43.6740 C   0  0  0  0  0  0  0  0  0  0  0  0
   39.3030   26.8980   42.8270 C   0  0  0  0  0  0  0  0  0  0  0  0
   35.5420   26.8360   42.2640 H   0  0  0  0  0  0  0  0  0  0  0  0
   36.4100   28.1050   44.1440 H   0  0  0  0  0  0  0  0  0  0  0  0
   38.8830   28.1410   44.5070 H   0  0  0  0  0  0  0  0  0  0  0  0
   41.4460   28.1070   43.1790 C   0  0  0  0  0  3  0  0  0  0  0  0
   40.7470   26.9290   43.0530 C   0  0  0  0  0  0  0  0  0  0  0  0
   41.4510   25.7300   43.1460 C   0  0  0  0  0  0  0  0  0  0  0  0
   40.9340   24.7840   43.0510 H   0  0  0  0  0  0  0  0  0  0  0  0
   42.8240   25.7520   43.3600 C   0  0  0  0  0  0  0  0  0  0  0  0
   43.6910   24.7160   43.4800 N   0  0  0  0  0  0  0  0  0  0  0  0
   44.9210   25.2530   43.6800 C   0  0  0  0  0  0  0  0  0  0  0  0
   45.8320   24.6490   43.8130 H   0  0  0  0  0  0  0  0  0  0  0  0
   44.7870   26.5910   43.6780 N   0  0  0  0  0  0  0  0  0  0  0  0
   43.5060   26.9300   43.4830 C   0  0  0  0  0  0  0  0  0  0  0  0
   42.8160   28.1270   43.3920 C   0  0  0  0  0  3  0  0  0  0  0  0
   43.4760   23.6870   43.4320 H   0  0  0  0  0  0  0  0  0  0  0  0
   36.1940   23.3270   39.3600 C   0  0  0  0  0  0  0  0  0  0  0  0
   36.6570   24.0280   40.4780 C   0  0  0  0  0  0  0  0  0  0  0  0
   36.9280   25.3840   40.4160 C   0  0  0  0  0  0  0  0  0  0  0  0
   36.7120   25.9710   39.2030 N   0  0  0  0  0  0  0  0  0  0  0  0
   36.2680   25.2900   38.1340 C   0  0  0  0  0  0  0  0  0  0  0  0
   36.0110   23.9880   38.2050 N   0  0  0  0  0  0  0  0  0  0  0  0
   36.0120   22.2750   39.5060 H   0  0  0  0  0  0  0  0  0  0  0  0
   36.8200   23.5340   41.4340 H   0  0  0  0  0  0  0  0  0  0  0  0
   36.1300   25.8580   37.2150 H   0  0  0  0  0  0  0  0  0  0  0  0
  1  2  1  0  0  0  0
  2  7  1  0  0  0  0
  3  2  2  0  0  0  0
  3  4  1  0  0  0  0
  4  5  2  0  0  0  0
  5  6  1  0  0  0  0
  5  9  1  0  0  0  0
  6 10  1  0  0  0  0
  7 12  1  0  0  0  0
  7  6  2  0  0  0  0
  8  4  1  0  0  0  0
 11 21  1  0  0  0  0
 12 13  1  0  0  0  0
 12 11  2  0  0  0  0
 13 15  2  0  0  0  0
 14 13  1  0  0  0  0
 15 16  1  0  0  0  0
 15 20  1  0  0  0  0
 16 17  1  0  0  0  0
 17 18  1  0  0  0  0
 19 17  2  0  0  0  0
 20 19  1  0  0  0  0
 21 20  2  0  0  0  0
 22 16  1  0  0  0  0
 23 29  1  0  0  0  0
 23 24  1  0  0  0  0
 24 30  1  0  0  0  0
 25 24  2  0  0  0  0
 25  3  1  0  0  0  0
 26 25  1  0  0  0  0
 27 28  1  0  0  0  0
 27 26  2  0  0  0  0
 28 23  2  0  0  0  0
 31 27  1  0  0  0  0
M  END
>  <minimizedAffinity>
-5.56341076

$$$$

 OpenBabel03242512593D

 31 34  0  0  0  0  0  0  0  0999 V2000
   39.3380   28.5470   40.3510 F   0  0  0  0  0  0  0  0  0  0  0  0
   38.0330   28.9650   40.4000 C   0  0  0  0  0  0  0  0  0  0  0  0
   37.0030   28.0900   40.6290 C   0  0  0  0  0  0  0  0  0  0  0  0
   35.7330   28.6270   40.6560 C   0  0  0  0  0  0  0  0  0  0  0  0
   35.4590   29.9610   40.4720 C   0  0  0  0  0  0  0  0  0  0  0  0
   36.5320   30.7930   40.2470 C   0  0  0  0  0  0  0  0  0  0  0  0
   37.8170   30.3110   40.2090 C   0  0  0  0  0  0  0  0  0  0  0  0
   34.9060   27.9460   40.8360 H   0  0  0  0  0  0  0  0  0  0  0  0
   34.4300   30.3050   40.5090 H   0  0  0  0  0  0  0  0  0  0  0  0
   36.3480   31.8530   40.0970 H   0  0  0  0  0  0  0  0  0  0  0  0
   39.6270   31.8240   40.9920 C   0  0  0  0  0  3  0  0  0  0  0  0
   38.9280   31.2300   39.9670 C   0  0  0  0  0  0  0  0  0  0  0  0
   39.3010   31.5220   38.6570 C   0  0  0  0  0  0  0  0  0  0  0  0
   38.7730   31.0740   37.8250 H   0  0  0  0  0  0  0  0  0  0  0  0
   40.3560   32.3950   38.4180 C   0  0  0  0  0  0  0  0  0  0  0  0
   40.8760   32.8120   37.2380 N   0  0  0  0  0  0  0  0  0  0  0  0
   41.8930   33.6610   37.5320 C   0  0  0  0  0  0  0  0  0  0  0  0
   42.5070   34.1600   36.7670 H   0  0  0  0  0  0  0  0  0  0  0  0
   41.9770   33.7470   38.8720 N   0  0  0  0  0  0  0  0  0  0  0  0
   41.0420   32.9790   39.4460 C   0  0  0  0  0  0  0  0  0  0  0  0
   40.6800   32.6950   40.7520 C   0  0  0  0  0  3  0  0  0  0  0  0
   40.5680   32.5440   36.2680 H   0  0  0  0  0  0  0  0  0  0  0  0
   37.5910   24.7010   42.1860 C   0  0  0  0  0  0  0  0  0  0  0  0
   37.2710   26.0550   42.0490 C   0  0  0  0  0  0  0  0  0  0  0  0
   37.3270   26.6880   40.8190 C   0  0  0  0  0  0  0  0  0  0  0  0
   37.7110   25.9010   39.7720 N   0  0  0  0  0  0  0  0  0  0  0  0
   38.0180   24.6020   39.9130 C   0  0  0  0  0  0  0  0  0  0  0  0
   37.9610   24.0040   41.0980 N   0  0  0  0  0  0  0  0  0  0  0  0
   37.5180   24.2980   43.1830 H   0  0  0  0  0  0  0  0  0  0  0  0
   36.9670   26.6590   42.9030 H   0  0  0  0  0  0  0  0  0  0  0  0
   38.3120   24.0680   39.0100 H   0  0  0  0  0  0  0  0  0  0  0  0
  1  2  1  0  0  0  0
  2  3  1  0  0  0  0
  3  4  2  0  0  0  0
  3 25  1  0  0  0  0
  4  8  1  0  0  0  0
  5  9  1  0  0  0  0
  5  4  1  0  0  0  0
  6  5  2  0  0  0  0
  7  6  1  0  0  0  0
  7  2  2  0  0  0  0
 10  6  1  0  0  0  0
 12  7  1  0  0  0  0
 12 11  2  0  0  0  0
 13 12  1  0  0  0  0
 14 13  1  0  0  0  0
 15 13  2  0  0  0  0
 15 20  1  0  0  0  0
 16 17  1  0  0  0  0
 16 15  1  0  0  0  0
 17 19  2  0  0  0  0
 18 17  1  0  0  0  0
 19 20  1  0  0  0  0
 20 21  2  0  0  0  0
 21 11  1  0  0  0  0
 22 16  1  0  0  0  0
 23 29  1  0  0  0  0
 24 23  1  0  0  0  0
 24 30  1  0  0  0  0
 25 24  2  0  0  0  0
 26 27  2  0  0  0  0
 26 25  1  0  0  0  0
 27 28  1  0  0  0  0
 28 23  2  0  0  0  0
 31 27  1  0  0  0  0
M  END
>  <minimizedAffinity>
-5.54103136

$$$$

 OpenBabel03242512593D

 31 34  0  0  0  0  0  0  0  0999 V2000
   36.2630   26.7210   38.9870 F   0  0  0  0  0  0  0  0  0  0  0  0
   36.3780   27.8100   39.8130 C   0  0  0  0  0  0  0  0  0  0  0  0
   37.0990   27.7600   40.9780 C   0  0  0  0  0  0  0  0  0  0  0  0
   37.1420   28.9180   41.7250 C   0  0  0  0  0  0  0  0  0  0  0  0
   36.5170   30.0880   41.3670 C   0  0  0  0  0  0  0  0  0  0  0  0
   35.8070   30.0800   40.1880 C   0  0  0  0  0  0  0  0  0  0  0  0
   35.7300   28.9550   39.4050 C   0  0  0  0  0  0  0  0  0  0  0  0
   37.7100   28.8940   42.6520 H   0  0  0  0  0  0  0  0  0  0  0  0
   36.6000   30.9570   42.0110 H   0  0  0  0  0  0  0  0  0  0  0  0
   35.3010   30.9890   39.8770 H   0  0  0  0  0  0  0  0  0  0  0  0
   35.5680   29.1510   36.9330 C   0  0  0  0  0  3  0  0  0  0  0  0
   34.9660   28.9900   38.1590 C   0  0  0  0  0  0  0  0  0  0  0  0
   33.5800   28.8570   38.2030 C   0  0  0  0  0  0  0  0  0  0  0  0
   33.0730   28.7280   39.1500 H   0  0  0  0  0  0  0  0  0  0  0  0
   32.8470   28.8890   37.0230 C   0  0  0  0  0  0  0  0  0  0  0  0
   31.5080   28.7800   36.8400 N   0  0  0  0  0  0  0  0  0  0  0  0
   31.2830   28.8740   35.5050 C   0  0  0  0  0  0  0  0  0  0  0  0
   30.2790   28.8190   35.0540 H   0  0  0  0  0  0  0  0  0  0  0  0
   32.4730   29.0360   34.9020 N   0  0  0  0  0  0  0  0  0  0  0  0
   33.4570   29.0500   35.8100 C   0  0  0  0  0  0  0  0  0  0  0  0
   34.8340   29.1830   35.7560 C   0  0  0  0  0  3  0  0  0  0  0  0
   30.7660   28.6490   37.5750 H   0  0  0  0  0  0  0  0  0  0  0  0
   37.7460   24.2540   42.2210 C   0  0  0  0  0  0  0  0  0  0  0  0
   37.0800   25.4420   41.9020 C   0  0  0  0  0  0  0  0  0  0  0  0
   37.7470   26.5100   41.3270 C   0  0  0  0  0  0  0  0  0  0  0  0
   39.0800   26.3160   41.1020 N   0  0  0  0  0  0  0  0  0  0  0  0
   39.7110   25.1720   41.4130 C   0  0  0  0  0  0  0  0  0  0  0  0
   39.0600   24.1530   41.9640 N   0  0  0  0  0  0  0  0  0  0  0  0
   37.1410   23.4800   42.6660 H   0  0  0  0  0  0  0  0  0  0  0  0
   36.0150   25.5690   42.0930 H   0  0  0  0  0  0  0  0  0  0  0  0
   40.7760   25.1260   41.1890 H   0  0  0  0  0  0  0  0  0  0  0  0
  1  2  1  0  0  0  0
  2  3  1  0  0  0  0
  3 25  1  0  0  0  0
  3  4  2  0  0  0  0
  4  8  1  0  0  0  0
  5  4  1  0  0  0  0
  5  9  1  0  0  0  0
  6  5  2  0  0  0  0
  7  2  2  0  0  0  0
  7  6  1  0  0  0  0
 10  6  1  0  0  0  0
 11 12  1  0  0  0  0
 12 13  2  0  0  0  0
 12  7  1  0  0  0  0
 13 14  1  0  0  0  0
 15 13  1  0  0  0  0
 16 15  1  0  0  0  0
 16 22  1  0  0  0  0
 17 16  1  0  0  0  0
 18 17  1  0  0  0  0
 19 17  2  0  0  0  0
 19 20  1  0  0  0  0
 20 15  2  0  0  0  0
 21 20  1  0  0  0  0
 21 11  2  0  0  0  0
 23 29  1  0  0  0  0
 24 30  1  0  0  0  0
 24 23  2  0  0  0  0
 25 24  1  0  0  0  0
 26 25  2  0  0  0  0
 26 27  1  0  0  0  0
 27 28  2  0  0  0  0
 28 23  1  0  0  0  0
 31 27  1  0  0  0  0
M  END
>  <minimizedAffinity>
-5.47446012

$$$$

 OpenBabel03242512593D

 31 34  0  0  0  0  0  0  0  0999 V2000
   40.4000   30.4360   41.0290 F   0  0  0  0  0  0  0  0  0  0  0  0
   39.3080   31.1820   40.6680 C   0  0  0  0  0  0  0  0  0  0  0  0
   38.0290   30.7610   40.9230 C   0  0  0  0  0  0  0  0  0  0  0  0
   37.0110   31.5960   40.5120 C   0  0  0  0  0  0  0  0  0  0  0  0
   37.2130   32.7990   39.8790 C   0  0  0  0  0  0  0  0  0  0  0  0
   38.5170   33.1720   39.6490 C   0  0  0  0  0  0  0  0  0  0  0  0
   39.5690   32.3780   40.0360 C   0  0  0  0  0  0  0  0  0  0  0  0
   35.9920   31.2750   40.7080 H   0  0  0  0  0  0  0  0  0  0  0  0
   36.3570   33.3990   39.5880 H   0  0  0  0  0  0  0  0  0  0  0  0
   38.7100   34.1170   39.1500 H   0  0  0  0  0  0  0  0  0  0  0  0
   41.6870   33.4930   40.7050 C   0  0  0  0  0  3  0  0  0  0  0  0
   40.9390   32.8120   39.7720 C   0  0  0  0  0  0  0  0  0  0  0  0
   41.5190   32.5330   38.5370 C   0  0  0  0  0  0  0  0  0  0  0  0
   40.9610   31.9990   37.7790 H   0  0  0  0  0  0  0  0  0  0  0  0
   42.8220   32.9430   38.2780 C   0  0  0  0  0  0  0  0  0  0  0  0
   43.5690   32.7780   37.1590 N   0  0  0  0  0  0  0  0  0  0  0  0
   44.7730   33.3540   37.3990 C   0  0  0  0  0  0  0  0  0  0  0  0
   45.5930   33.3760   36.6640 H   0  0  0  0  0  0  0  0  0  0  0  0
   44.7430   33.8560   38.6460 N   0  0  0  0  0  0  0  0  0  0  0  0
   43.5540   33.6190   39.2140 C   0  0  0  0  0  0  0  0  0  0  0  0
   42.9870   33.9010   40.4450 C   0  0  0  0  0  3  0  0  0  0  0  0
   43.2900   32.2990   36.2640 H   0  0  0  0  0  0  0  0  0  0  0  0
   37.8120   28.0710   43.5640 C   0  0  0  0  0  0  0  0  0  0  0  0
   37.9940   29.3190   42.9600 C   0  0  0  0  0  0  0  0  0  0  0  0
   37.8500   29.4860   41.5930 C   0  0  0  0  0  0  0  0  0  0  0  0
   37.5240   28.3590   40.8960 N   0  0  0  0  0  0  0  0  0  0  0  0
   37.3520   27.1640   41.4840 C   0  0  0  0  0  0  0  0  0  0  0  0
   37.4920   27.0150   42.7970 N   0  0  0  0  0  0  0  0  0  0  0  0
   37.9450   28.0410   44.6330 H   0  0  0  0  0  0  0  0  0  0  0  0
   38.2540   30.2020   43.5410 H   0  0  0  0  0  0  0  0  0  0  0  0
   37.0930   26.3310   40.8320 H   0  0  0  0  0  0  0  0  0  0  0  0
  2  3  1  0  0  0  0
  2  1  1  0  0  0  0
  3 25  1  0  0  0  0
  4  8  1  0  0  0  0
  4  3  2  0  0  0  0
  5  4  1  0  0  0  0
  6  5  2  0  0  0  0
  6  7  1  0  0  0  0
  7  2  2  0  0  0  0
  9  5  1  0  0  0  0
 10  6  1  0  0  0  0
 12  7  1  0  0  0  0
 12 11  2  0  0  0  0
 13 12  1  0  0  0  0
 14 13  1  0  0  0  0
 15 13  2  0  0  0  0
 15 20  1  0  0  0  0
 16 17  1  0  0  0  0
 16 15  1  0  0  0  0
 17 19  2  0  0  0  0
 18 17  1  0  0  0  0
 19 20  1  0  0  0  0
 20 21  2  0  0  0  0
 21 11  1  0  0  0  0
 22 16  1  0  0  0  0
 23 29  1  0  0  0  0
 24 30  1  0  0  0  0
 24 23  1  0  0  0  0
 25 24  2  0  0  0  0
 26 27  2  0  0  0  0
 26 25  1  0  0  0  0
 27 28  1  0  0  0  0
 28 23  2  0  0  0  0
 31 27  1  0  0  0  0
M  END
>  <minimizedAffinity>
-5.45981216

$$$$

 OpenBabel03242512593D

 31 34  0  0  0  0  0  0  0  0999 V2000
   37.1980   30.5890   38.9180 F   0  0  0  0  0  0  0  0  0  0  0  0
   37.2390   29.9800   40.1460 C   0  0  0  0  0  0  0  0  0  0  0  0
   38.0250   30.4560   41.1630 C   0  0  0  0  0  0  0  0  0  0  0  0
   37.9830   29.7600   42.3520 C   0  0  0  0  0  0  0  0  0  0  0  0
   37.2110   28.6430   42.5610 C   0  0  0  0  0  0  0  0  0  0  0  0
   36.4420   28.2090   41.5060 C   0  0  0  0  0  0  0  0  0  0  0  0
   36.4460   28.8650   40.3000 C   0  0  0  0  0  0  0  0  0  0  0  0
   38.6020   30.1260   43.1670 H   0  0  0  0  0  0  0  0  0  0  0  0
   37.2340   28.1510   43.5290 H   0  0  0  0  0  0  0  0  0  0  0  0
   35.8210   27.3290   41.6390 H   0  0  0  0  0  0  0  0  0  0  0  0
   35.9490   27.2570   38.4700 C   0  0  0  0  0  3  0  0  0  0  0  0
   35.6130   28.3710   39.2040 C   0  0  0  0  0  0  0  0  0  0  0  0
   34.4360   29.0420   38.8830 C   0  0  0  0  0  0  0  0  0  0  0  0
   34.1390   29.9220   39.4400 H   0  0  0  0  0  0  0  0  0  0  0  0
   33.6390   28.5790   37.8430 C   0  0  0  0  0  0  0  0  0  0  0  0
   32.4690   29.0750   37.3700 N   0  0  0  0  0  0  0  0  0  0  0  0
   32.0840   28.2710   36.3470 C   0  0  0  0  0  0  0  0  0  0  0  0
   31.1620   28.4280   35.7660 H   0  0  0  0  0  0  0  0  0  0  0  0
   33.0140   27.3090   36.2140 N   0  0  0  0  0  0  0  0  0  0  0  0
   33.9850   27.4710   37.1210 C   0  0  0  0  0  0  0  0  0  0  0  0
   35.1530   26.7960   37.4320 C   0  0  0  0  0  3  0  0  0  0  0  0
   31.9420   29.9190   37.7130 H   0  0  0  0  0  0  0  0  0  0  0  0
   40.9390   32.7700   40.5200 C   0  0  0  0  0  0  0  0  0  0  0  0
   40.2050   31.6050   40.7660 C   0  0  0  0  0  0  0  0  0  0  0  0
   38.8280   31.6380   40.9090 C   0  0  0  0  0  0  0  0  0  0  0  0
   38.2570   32.8720   40.7940 N   0  0  0  0  0  0  0  0  0  0  0  0
   38.9700   33.9860   40.5590 C   0  0  0  0  0  0  0  0  0  0  0  0
   40.2910   33.9420   40.4240 N   0  0  0  0  0  0  0  0  0  0  0  0
   42.0060   32.6430   40.4250 H   0  0  0  0  0  0  0  0  0  0  0  0
   40.6880   30.6330   40.8520 H   0  0  0  0  0  0  0  0  0  0  0  0
   38.4110   34.9180   40.4860 H   0  0  0  0  0  0  0  0  0  0  0  0
  1  2  1  0  0  0  0
  2  7  2  0  0  0  0
  2  3  1  0  0  0  0
  3  4  2  0  0  0  0
  4  5  1  0  0  0  0
  4  8  1  0  0  0  0
  5  9  1  0  0  0  0
  6 10  1  0  0  0  0
  6  5  2  0  0  0  0
  7  6  1  0  0  0  0
 11 12  1  0  0  0  0
 12  7  1  0  0  0  0
 13 12  2  0  0  0  0
 13 14  1  0  0  0  0
 15 13  1  0  0  0  0
 16 22  1  0  0  0  0
 16 15  1  0  0  0  0
 17 16  1  0  0  0  0
 18 17  1  0  0  0  0
 19 17  2  0  0  0  0
 19 20  1  0  0  0  0
 20 21  1  0  0  0  0
 20 15  2  0  0  0  0
 21 11  2  0  0  0  0
 23 24  1  0  0  0  0
 24 30  1  0  0  0  0
 24 25  2  0  0  0  0
 25  3  1  0  0  0  0
 26 25  1  0  0  0  0
 27 26  2  0  0  0  0
 28 23  2  0  0  0  0
 28 27  1  0  0  0  0
 29 23  1  0  0  0  0
 31 27  1  0  0  0  0
M  END
>  <minimizedAffinity>
-5.39697742

$$$$

 OpenBabel03242512593D

 31 34  0  0  0  0  0  0  0  0999 V2000
   39.8730   30.8970   38.0190 F   0  0  0  0  0  0  0  0  0  0  0  0
   39.2170   31.9210   38.6530 C   0  0  0  0  0  0  0  0  0  0  0  0
   37.8490   31.9750   38.7120 C   0  0  0  0  0  0  0  0  0  0  0  0
   37.3030   33.0520   39.3770 C   0  0  0  0  0  0  0  0  0  0  0  0
   38.0440   34.0460   39.9700 C   0  0  0  0  0  0  0  0  0  0  0  0
   39.4130   33.9400   39.8790 C   0  0  0  0  0  0  0  0  0  0  0  0
   40.0100   32.8890   39.2280 C   0  0  0  0  0  0  0  0  0  0  0  0
   36.2190   33.1090   39.4330 H   0  0  0  0  0  0  0  0  0  0  0  0
   37.5370   34.8610   40.4750 H   0  0  0  0  0  0  0  0  0  0  0  0
   40.0280   34.7100   40.3360 H   0  0  0  0  0  0  0  0  0  0  0  0
   42.2210   32.1930   40.1240 C   0  0  0  0  0  3  0  0  0  0  0  0
   41.4680   32.8150   39.1550 C   0  0  0  0  0  0  0  0  0  0  0  0
   42.1290   33.3920   38.0730 C   0  0  0  0  0  0  0  0  0  0  0  0
   41.5690   33.8890   37.2920 H   0  0  0  0  0  0  0  0  0  0  0  0
   43.5150   33.3260   37.9970 C   0  0  0  0  0  0  0  0  0  0  0  0
   44.3480   33.8140   37.0450 N   0  0  0  0  0  0  0  0  0  0  0  0
   45.6110   33.4940   37.4230 C   0  0  0  0  0  0  0  0  0  0  0  0
   46.5060   33.7620   36.8390 H   0  0  0  0  0  0  0  0  0  0  0  0
   45.5310   32.8240   38.5860 N   0  0  0  0  0  0  0  0  0  0  0  0
   44.2520   32.7050   38.9670 C   0  0  0  0  0  0  0  0  0  0  0  0
   43.6050   32.1290   40.0470 C   0  0  0  0  0  3  0  0  0  0  0  0
   44.0890   34.3410   36.1720 H   0  0  0  0  0  0  0  0  0  0  0  0
   35.5290   29.0560   38.1120 C   0  0  0  0  0  0  0  0  0  0  0  0
   36.2370   30.0700   38.7660 C   0  0  0  0  0  0  0  0  0  0  0  0
   37.0950   30.9090   38.0770 C   0  0  0  0  0  0  0  0  0  0  0  0
   37.1940   30.6740   36.7360 N   0  0  0  0  0  0  0  0  0  0  0  0
   36.5110   29.6970   36.1170 C   0  0  0  0  0  0  0  0  0  0  0  0
   35.6900   28.8970   36.7890 N   0  0  0  0  0  0  0  0  0  0  0  0
   34.8860   28.4540   38.7340 H   0  0  0  0  0  0  0  0  0  0  0  0
   36.1380   30.2350   39.8380 H   0  0  0  0  0  0  0  0  0  0  0  0
   36.6660   29.5980   35.0430 H   0  0  0  0  0  0  0  0  0  0  0  0
  1  2  1  0  0  0  0
  2  3  2  0  0  0  0
  2  7  1  0  0  0  0
  3  4  1  0  0  0  0
  4  8  1  0  0  0  0
  4  5  2  0  0  0  0
  5  9  1  0  0  0  0
  6  5  1  0  0  0  0
  6 10  1  0  0  0  0
  7  6  2  0  0  0  0
 12  7  1  0  0  0  0
 12 11  2  0  0  0  0
 13 12  1  0  0  0  0
 14 13  1  0  0  0  0
 15 13  2  0  0  0  0
 15 20  1  0  0  0  0
 16 17  1  0  0  0  0
 16 15  1  0  0  0  0
 17 19  2  0  0  0  0
 18 17  1  0  0  0  0
 19 20  1  0  0  0  0
 20 21  2  0  0  0  0
 21 11  1  0  0  0  0
 22 16  1  0  0  0  0
 23 29  1  0  0  0  0
 23 24  1  0  0  0  0
 24 30  1  0  0  0  0
 25  3  1  0  0  0  0
 25 24  2  0  0  0  0
 26 25  1  0  0  0  0
 27 26  2  0  0  0  0
 27 28  1  0  0  0  0
 28 23  2  0  0  0  0
 31 27  1  0  0  0  0
M  END
>  <minimizedAffinity>
-5.37611914

$$$$

 OpenBabel03242512593D

 31 34  0  0  0  0  0  0  0  0999 V2000
   37.2350   26.8320   39.4360 F   0  0  0  0  0  0  0  0  0  0  0  0
   37.0880   27.9090   40.2740 C   0  0  0  0  0  0  0  0  0  0  0  0
   37.5330   27.8820   41.5700 C   0  0  0  0  0  0  0  0  0  0  0  0
   37.3290   29.0240   42.3150 C   0  0  0  0  0  0  0  0  0  0  0  0
   36.7210   30.1580   41.8320 C   0  0  0  0  0  0  0  0  0  0  0  0
   36.2950   30.1280   40.5250 C   0  0  0  0  0  0  0  0  0  0  0  0
   36.4710   29.0170   39.7380 C   0  0  0  0  0  0  0  0  0  0  0  0
   37.6760   29.0170   43.3440 H   0  0  0  0  0  0  0  0  0  0  0  0
   36.5990   31.0170   42.4840 H   0  0  0  0  0  0  0  0  0  0  0  0
   35.8090   31.0090   40.1130 H   0  0  0  0  0  0  0  0  0  0  0  0
   34.6820   28.8390   38.0220 C   0  0  0  0  0  3  0  0  0  0  0  0
   36.0040   29.0290   38.3530 C   0  0  0  0  0  0  0  0  0  0  0  0
   36.9190   29.2380   37.3230 C   0  0  0  0  0  0  0  0  0  0  0  0
   37.9670   29.3910   37.5460 H   0  0  0  0  0  0  0  0  0  0  0  0
   36.4820   29.2500   36.0040 C   0  0  0  0  0  0  0  0  0  0  0  0
   37.1940   29.4330   34.8650 N   0  0  0  0  0  0  0  0  0  0  0  0
   36.3150   29.3570   33.8340 C   0  0  0  0  0  0  0  0  0  0  0  0
   36.6080   29.4690   32.7780 H   0  0  0  0  0  0  0  0  0  0  0  0
   35.0960   29.1310   34.3530 N   0  0  0  0  0  0  0  0  0  0  0  0
   35.1650   29.0600   35.6890 C   0  0  0  0  0  0  0  0  0  0  0  0
   34.2480   28.8510   36.7040 C   0  0  0  0  0  3  0  0  0  0  0  0
   38.2280   29.6030   34.7720 H   0  0  0  0  0  0  0  0  0  0  0  0
   39.9970   25.4590   43.0920 C   0  0  0  0  0  0  0  0  0  0  0  0
   39.4200   26.6520   42.6450 C   0  0  0  0  0  0  0  0  0  0  0  0
   38.1710   26.6690   42.0480 C   0  0  0  0  0  0  0  0  0  0  0  0
   37.5600   25.4540   41.9320 N   0  0  0  0  0  0  0  0  0  0  0  0
   38.1220   24.3130   42.3630 C   0  0  0  0  0  0  0  0  0  0  0  0
   39.3220   24.3090   42.9350 N   0  0  0  0  0  0  0  0  0  0  0  0
   40.9720   25.5480   43.5430 H   0  0  0  0  0  0  0  0  0  0  0  0
   39.9310   27.6080   42.7500 H   0  0  0  0  0  0  0  0  0  0  0  0
   37.5460   23.4000   42.2210 H   0  0  0  0  0  0  0  0  0  0  0  0
  1  2  1  0  0  0  0
  2  3  1  0  0  0  0
  3 25  1  0  0  0  0
  3  4  2  0  0  0  0
  4  8  1  0  0  0  0
  5  4  1  0  0  0  0
  5  9  1  0  0  0  0
  6  5  2  0  0  0  0
  7  2  2  0  0  0  0
  7  6  1  0  0  0  0
 10  6  1  0  0  0  0
 11 12  1  0  0  0  0
 12  7  1  0  0  0  0
 13 14  1  0  0  0  0
 13 12  2  0  0  0  0
 15 13  1  0  0  0  0
 16 15  1  0  0  0  0
 17 19  2  0  0  0  0
 17 16  1  0  0  0  0
 18 17  1  0  0  0  0
 19 20  1  0  0  0  0
 20 15  2  0  0  0  0
 20 21  1  0  0  0  0
 21 11  2  0  0  0  0
 22 16  1  0  0  0  0
 23 29  1  0  0  0  0
 24 30  1  0  0  0  0
 24 23  2  0  0  0  0
 25 24  1  0  0  0  0
 26 25  2  0  0  0  0
 26 27  1  0  0  0  0
 27 28  2  0  0  0  0
 28 23  1  0  0  0  0
 31 27  1  0  0  0  0
M  END
>  <minimizedAffinity>
-5.37357044

$$$$
