
 OpenBabel03252504493D

 27 29  0  0  0  0  0  0  0  0999 V2000
   46.6810   34.8140   42.8830 C   0  0  0  0  0  0  0  0  0  0  0  0
   47.7820   34.3240   42.1530 C   0  0  0  0  0  0  0  0  0  0  0  0
   48.3950   33.1550   42.6110 C   0  0  0  0  0  0  0  0  0  0  0  0
   47.8930   32.5670   43.7300 N   0  0  0  0  0  0  0  0  0  0  0  0
   46.8440   33.0690   44.3940 C   0  0  0  0  0  0  0  0  0  0  0  0
   46.2260   34.2030   43.9720 N   0  0  0  0  0  0  0  0  0  0  0  0
   46.1970   35.7200   42.5360 H   0  0  0  0  0  0  0  0  0  0  0  0
   49.2340   32.7570   42.0800 H   0  0  0  0  0  0  0  0  0  0  0  0
   45.8410   33.2150   46.6340 C   0  0  0  0  0  3  0  0  0  0  0  0
   46.3140   32.4150   45.6060 C   0  0  0  0  0  0  0  0  0  0  0  0
   46.2900   31.0220   45.7180 C   0  0  0  0  0  0  0  0  0  0  0  0
   46.6790   30.4550   44.8690 H   0  0  0  0  0  0  0  0  0  0  0  0
   45.7820   30.4600   46.8770 C   0  0  0  0  0  0  0  0  0  0  0  0
   45.6620   29.1570   47.1990 N   0  0  0  0  0  0  0  0  0  0  0  0
   45.1170   29.1460   48.4180 C   0  0  0  0  0  0  0  0  0  0  0  0
   44.8600   28.2780   49.0280 H   0  0  0  0  0  0  0  0  0  0  0  0
   44.9130   30.3990   48.8240 N   0  0  0  0  0  0  0  0  0  0  0  0
   45.3170   31.2800   47.8850 C   0  0  0  0  0  0  0  0  0  0  0  0
   45.3280   32.6550   47.8040 C   0  0  0  0  0  3  0  0  0  0  0  0
   45.9300   28.3180   46.6330 H   0  0  0  0  0  0  0  0  0  0  0  0
   48.2290   35.0470   40.9630 C   0  0  0  0  0  0  0  0  0  0  0  0
   48.6920   34.4290   40.1920 H   0  0  0  0  0  0  0  0  0  0  0  0
   47.3720   35.5830   40.5140 H   0  0  0  0  0  0  0  0  0  0  0  0
   49.1980   36.1450   41.4260 C   0  0  0  0  0  0  0  0  0  0  0  0
   50.2190   35.6980   41.3530 H   0  0  0  0  0  0  0  0  0  0  0  0
   49.0980   37.0150   40.7610 H   0  0  0  0  0  0  0  0  0  0  0  0
   48.8970   36.4380   42.4310 H   0  0  0  0  0  0  0  0  0  0  0  0
  1  6  1  0  0  0  0
  2  3  1  0  0  0  0
  2  1  2  0  0  0  0
  3  4  2  0  0  0  0
  4  5  1  0  0  0  0
  5 10  1  0  0  0  0
  6  5  2  0  0  0  0
  7  1  1  0  0  0  0
  8  3  1  0  0  0  0
  9 19  1  0  0  0  0
 10 11  1  0  0  0  0
 10  9  2  0  0  0  0
 11 13  2  0  0  0  0
 12 11  1  0  0  0  0
 13 14  1  0  0  0  0
 13 18  1  0  0  0  0
 14 15  1  0  0  0  0
 15 17  2  0  0  0  0
 15 16  1  0  0  0  0
 18 17  1  0  0  0  0
 19 18  2  0  0  0  0
 20 14  1  0  0  0  0
 21 24  1  0  0  0  0
 21  2  1  0  0  0  0
 22 21  1  0  0  0  0
 23 21  1  0  0  0  0
 24 27  1  0  0  0  0
 25 24  1  0  0  0  0
 26 24  1  0  0  0  0
M  END
>  <minimizedAffinity>
-4.99783087

>  <minimizedRMSD>
2.47907114

$$$$
