
 OpenBabel03242516003D

 31 34  0  0  0  0  0  0  0  0999 V2000
   44.9110   33.2500   41.2240 Cl  0  0  0  0  0  0  0  0  0  0  0  0
   46.4330   34.1100   41.1130 C   0  0  0  0  0  0  0  0  0  0  0  0
   46.9070   34.8410   42.1600 C   0  0  0  0  0  0  0  0  0  0  0  0
   48.1070   35.4740   41.9660 C   0  0  0  0  0  0  0  0  0  0  0  0
   48.8160   35.4000   40.8060 C   0  0  0  0  0  0  0  0  0  0  0  0
   48.3290   34.6590   39.7520 C   0  0  0  0  0  0  0  0  0  0  0  0
   47.1220   34.0130   39.9250 C   0  0  0  0  0  0  0  0  0  0  0  0
   48.5080   36.0650   42.7920 H   0  0  0  0  0  0  0  0  0  0  0  0
   49.7550   35.9310   40.7370 H   0  0  0  0  0  0  0  0  0  0  0  0
   48.9120   34.6270   38.8640 H   0  0  0  0  0  0  0  0  0  0  0  0
   45.6340   32.3230   38.7760 C   0  0  0  0  0  3  0  0  0  0  0  0
   46.6600   33.2450   38.7740 C   0  0  0  0  0  0  0  0  0  0  0  0
   47.3060   33.4490   37.5490 C   0  0  0  0  0  0  0  0  0  0  0  0
   48.1320   34.1530   37.4180 H   0  0  0  0  0  0  0  0  0  0  0  0
   46.9540   32.7820   36.4040 C   0  0  0  0  0  0  0  0  0  0  0  0
   47.3550   32.7490   35.1200 N   0  0  0  0  0  0  0  0  0  0  0  0
   46.6460   31.8880   34.3890 C   0  0  0  0  0  0  0  0  0  0  0  0
   46.6690   31.5930   33.3580 H   0  0  0  0  0  0  0  0  0  0  0  0
   45.7330   31.3260   35.2330 N   0  0  0  0  0  0  0  0  0  0  0  0
   45.9230   31.8700   36.4480 C   0  0  0  0  0  0  0  0  0  0  0  0
   45.2650   31.6410   37.6350 C   0  0  0  0  0  3  0  0  0  0  0  0
   48.1290   33.3250   34.7240 H   0  0  0  0  0  0  0  0  0  0  0  0
   44.4500   35.9340   44.8320 C   0  0  0  0  0  0  0  0  0  0  0  0
   45.1880   35.9010   43.6420 C   0  0  0  0  0  0  0  0  0  0  0  0
   46.1310   34.8990   43.3780 C   0  0  0  0  0  0  0  0  0  0  0  0
   46.2760   33.9700   44.3580 N   0  0  0  0  0  0  0  0  0  0  0  0
   45.5580   34.0140   45.4980 C   0  0  0  0  0  0  0  0  0  0  0  0
   44.6600   34.9720   45.7420 N   0  0  0  0  0  0  0  0  0  0  0  0
   43.7510   36.7620   44.9100 H   0  0  0  0  0  0  0  0  0  0  0  0
   45.0700   36.6390   42.8680 H   0  0  0  0  0  0  0  0  0  0  0  0
   45.7170   33.2330   46.2580 H   0  0  0  0  0  0  0  0  0  0  0  0
  2  1  1  0  0  0  0
  2  3  1  0  0  0  0
  3 25  1  0  0  0  0
  4  3  2  0  0  0  0
  4  8  1  0  0  0  0
  5  4  1  0  0  0  0
  6  7  1  0  0  0  0
  6  5  2  0  0  0  0
  7  2  2  0  0  0  0
  9  5  1  0  0  0  0
 10  6  1  0  0  0  0
 12 11  1  0  0  0  0
 12  7  1  0  0  0  0
 13 12  2  0  0  0  0
 14 13  1  0  0  0  0
 15 20  2  0  0  0  0
 15 13  1  0  0  0  0
 16 15  1  0  0  0  0
 17 16  1  0  0  0  0
 17 19  2  0  0  0  0
 18 17  1  0  0  0  0
 19 20  1  0  0  0  0
 20 21  1  0  0  0  0
 21 11  2  0  0  0  0
 22 16  1  0  0  0  0
 23 29  1  0  0  0  0
 23 28  1  0  0  0  0
 24 23  2  0  0  0  0
 25 24  1  0  0  0  0
 25 26  2  0  0  0  0
 26 27  1  0  0  0  0
 27 28  2  0  0  0  0
 27 31  1  0  0  0  0
 30 24  1  0  0  0  0
M  END
>  <minimizedAffinity>
-6.43904114

>  <minimizedRMSD>
0.506918132

$$$$
