
 OpenBabel03242511223D

 42 46  0  0  1  0  0  0  0  0999 V2000
   36.3420   29.3170   38.4020 C   0  0  0  0  0  0  0  0  0  0  0  0
   35.7030   30.1180   38.7770 H   0  0  0  0  0  0  0  0  0  0  0  0
   35.7910   28.8110   37.5730 H   0  0  0  0  0  0  0  0  0  0  0  0
   36.7530   28.3040   39.3730 C   0  0  0  0  0  0  0  0  0  0  0  0
   36.7120   28.5650   40.6420 C   0  0  0  0  0  0  0  0  0  0  0  0
   37.0940   27.6160   41.6040 N   0  0  0  0  0  0  0  0  0  0  0  0
   36.7810   26.9490   42.8470 C   0  0  0  0  0  0  0  0  0  0  0  0
   36.1250   27.2450   43.8890 O   0  0  0  0  0  0  0  0  0  0  0  0
   37.5910   25.7990   42.2850 C   0  0  0  0  0  0  0  0  0  0  0  0
   38.3340   26.8350   41.4870 C   0  0  1  0  0  0  0  0  0  0  0  0
   38.6430   26.4650   39.7560 S   0  0  0  0  0  0  0  0  0  0  0  0
   37.2030   27.0040   38.8120 C   0  0  0  0  0  0  0  0  0  0  0  0
   38.2310   25.3110   43.0720 H   0  0  0  0  0  0  0  0  0  0  0  0
   36.9530   25.1310   41.7100 H   0  0  0  0  0  0  0  0  0  0  0  0
   39.1790   27.2870   42.0340 H   0  0  0  0  0  0  0  0  0  0  0  0
   36.3630   26.2750   38.8780 H   0  0  0  0  0  0  0  0  0  0  0  0
   37.5100   27.0720   37.7660 H   0  0  0  0  0  0  0  0  0  0  0  0
   36.2520   29.8920   41.0900 C   0  0  0  0  0  0  0  0  0  0  0  0
   36.9550   30.7110   41.7560 O   0  0  0  0  0  0  0  0  0  0  0  0
   35.5520   31.0330   41.3560 O   0  0  0  0  0  0  0  0  0  0  0  0
   34.8120   31.4340   40.7580 H   0  0  0  0  0  0  0  0  0  0  0  0
   37.8290   30.1150   37.6570 S   0  0  0  0  0  0  0  0  0  0  0  0
   37.4770   33.6870   39.5570 C   0  0  0  0  0  0  0  0  0  0  0  0
   37.1550   32.5520   38.7470 C   0  0  0  0  0  0  0  0  0  0  0  0
   38.1720   31.5560   38.6520 C   0  0  0  0  0  0  0  0  0  0  0  0
   39.3480   31.7370   39.3130 N   0  0  0  0  0  0  0  0  0  0  0  0
   39.5780   32.8210   40.0490 C   0  0  0  0  0  0  0  0  0  0  0  0
   38.6710   33.7950   40.1840 N   0  0  0  0  0  0  0  0  0  0  0  0
   36.6700   34.4010   39.5890 H   0  0  0  0  0  0  0  0  0  0  0  0
   36.2170   32.4600   38.2500 H   0  0  0  0  0  0  0  0  0  0  0  0
   41.3490   31.9440   41.5440 C   0  0  0  0  0  3  0  0  0  0  0  0
   40.8630   32.9470   40.7290 C   0  0  0  0  0  0  0  0  0  0  0  0
   41.6390   34.0830   40.5790 C   0  0  0  0  0  0  0  0  0  0  0  0
   41.3270   34.9120   39.9570 H   0  0  0  0  0  0  0  0  0  0  0  0
   42.8570   34.1410   41.2560 C   0  0  0  0  0  0  0  0  0  0  0  0
   43.8290   35.0980   41.3140 N   0  0  0  0  0  0  0  0  0  0  0  0
   44.8340   34.6940   42.1130 C   0  0  0  0  0  0  0  0  0  0  0  0
   45.7440   35.1960   42.3750 H   0  0  0  0  0  0  0  0  0  0  0  0
   44.5250   33.4790   42.5780 N   0  0  0  0  0  0  0  0  0  0  0  0
   43.3300   33.1270   42.0690 C   0  0  0  0  0  0  0  0  0  0  0  0
   42.5570   31.9960   42.2190 C   0  0  0  0  0  3  0  0  0  0  0  0
   43.8110   36.0190   40.8160 H   0  0  0  0  0  0  0  0  0  0  0  0
  1  2  1  0  0  0  0
  1  4  1  0  0  0  0
  3  1  1  0  0  0  0
  4  5  2  0  0  0  0
  5 18  1  0  0  0  0
  5  6  1  0  0  0  0
  6  7  1  0  0  0  0
  7  8  2  0  0  0  0
  9  7  1  0  0  0  0
  9 13  1  0  0  0  0
 10  6  1  0  0  0  0
 10 15  1  1  0  0  0
 10  9  1  0  0  0  0
 11 10  1  0  0  0  0
 12 16  1  0  0  0  0
 12  4  1  0  0  0  0
 12 11  1  0  0  0  0
 14  9  1  0  0  0  0
 17 12  1  0  0  0  0
 18 20  1  0  0  0  0
 18 19  2  0  0  0  0
 21 20  1  0  0  0  0
 22  1  1  0  0  0  0
 22 25  1  0  0  0  0
 23 29  1  0  0  0  0
 23 28  1  0  0  0  0
 24 23  2  0  0  0  0
 25 24  1  0  0  0  0
 25 26  2  0  0  0  0
 26 27  1  0  0  0  0
 27 28  2  0  0  0  0
 27 32  1  0  0  0  0
 30 24  1  0  0  0  0
 31 41  1  0  0  0  0
 32 31  2  0  0  0  0
 33 32  1  0  0  0  0
 33 35  2  0  0  0  0
 34 33  1  0  0  0  0
 35 36  1  0  0  0  0
 35 40  1  0  0  0  0
 36 37  1  0  0  0  0
 37 38  1  0  0  0  0
 37 39  2  0  0  0  0
 40 41  2  0  0  0  0
 40 39  1  0  0  0  0
 42 36  1  0  0  0  0
M  END
>  <minimizedAffinity>
-6.75031042

$$$$

 OpenBabel03242511223D

 42 46  0  0  1  0  0  0  0  0999 V2000
   39.5000   29.7060   42.9260 C   0  0  0  0  0  0  0  0  0  0  0  0
   39.8640   30.0490   43.8950 H   0  0  0  0  0  0  0  0  0  0  0  0
   38.4220   29.9870   42.8560 H   0  0  0  0  0  0  0  0  0  0  0  0
   39.6250   28.2740   42.6550 C   0  0  0  0  0  0  0  0  0  0  0  0
   38.6760   27.4610   42.9980 C   0  0  0  0  0  0  0  0  0  0  0  0
   38.7580   26.0820   42.7500 N   0  0  0  0  0  0  0  0  0  0  0  0
   38.1040   24.8930   42.2530 C   0  0  0  0  0  0  0  0  0  0  0  0
   36.9050   24.4980   42.1560 O   0  0  0  0  0  0  0  0  0  0  0  0
   39.5040   24.4100   41.9360 C   0  0  0  0  0  0  0  0  0  0  0  0
   39.9640   25.3000   43.0590 C   0  0  1  0  0  0  0  0  0  0  0  0
   41.4210   26.3070   42.7580 S   0  0  0  0  0  0  0  0  0  0  0  0
   40.8770   27.8430   41.9810 C   0  0  0  0  0  0  0  0  0  0  0  0
   39.6340   23.3160   42.1640 H   0  0  0  0  0  0  0  0  0  0  0  0
   39.7970   24.7260   40.9370 H   0  0  0  0  0  0  0  0  0  0  0  0
   39.9190   24.8140   44.0490 H   0  0  0  0  0  0  0  0  0  0  0  0
   40.6720   27.7110   40.8930 H   0  0  0  0  0  0  0  0  0  0  0  0
   41.6910   28.5640   42.0850 H   0  0  0  0  0  0  0  0  0  0  0  0
   37.4760   27.9970   43.6670 C   0  0  0  0  0  0  0  0  0  0  0  0
   36.2950   27.5770   43.4710 O   0  0  0  0  0  0  0  0  0  0  0  0
   36.5800   28.6880   44.4300 O   0  0  0  0  0  0  0  0  0  0  0  0
   36.7780   29.1080   45.3520 H   0  0  0  0  0  0  0  0  0  0  0  0
   40.3980   30.6710   41.6360 S   0  0  0  0  0  0  0  0  0  0  0  0
   37.8410   33.2890   39.8740 C   0  0  0  0  0  0  0  0  0  0  0  0
   38.8520   32.7670   40.7430 C   0  0  0  0  0  0  0  0  0  0  0  0
   39.1450   31.3800   40.5820 C   0  0  0  0  0  0  0  0  0  0  0  0
   38.4700   30.6590   39.6460 N   0  0  0  0  0  0  0  0  0  0  0  0
   37.5410   31.2120   38.8710 C   0  0  0  0  0  0  0  0  0  0  0  0
   37.2140   32.5060   38.9660 N   0  0  0  0  0  0  0  0  0  0  0  0
   37.6670   34.3390   40.0440 H   0  0  0  0  0  0  0  0  0  0  0  0
   39.3500   33.3770   41.4610 H   0  0  0  0  0  0  0  0  0  0  0  0
   35.7130   29.6760   38.2080 C   0  0  0  0  0  3  0  0  0  0  0  0
   36.8590   30.3770   37.8880 C   0  0  0  0  0  0  0  0  0  0  0  0
   37.3420   30.2600   36.5970 C   0  0  0  0  0  0  0  0  0  0  0  0
   38.2340   30.7770   36.2690 H   0  0  0  0  0  0  0  0  0  0  0  0
   36.6440   29.4450   35.7060 C   0  0  0  0  0  0  0  0  0  0  0  0
   36.8550   29.1280   34.3950 N   0  0  0  0  0  0  0  0  0  0  0  0
   35.8970   28.2910   33.9570 C   0  0  0  0  0  0  0  0  0  0  0  0
   35.7630   27.8500   32.9890 H   0  0  0  0  0  0  0  0  0  0  0  0
   35.0600   28.0570   34.9740 N   0  0  0  0  0  0  0  0  0  0  0  0
   35.4970   28.7490   36.0420 C   0  0  0  0  0  0  0  0  0  0  0  0
   35.0160   28.8660   37.3290 C   0  0  0  0  0  3  0  0  0  0  0  0
   37.6440   29.4770   33.8010 H   0  0  0  0  0  0  0  0  0  0  0  0
  1  2  1  0  0  0  0
  3  1  1  0  0  0  0
  4  1  1  0  0  0  0
  4  5  2  0  0  0  0
  5 18  1  0  0  0  0
  6  5  1  0  0  0  0
  6 10  1  0  0  0  0
  7  6  1  0  0  0  0
  8  7  2  0  0  0  0
  9 13  1  0  0  0  0
  9  7  1  0  0  0  0
  9 10  1  0  0  0  0
 10 15  1  1  0  0  0
 11 10  1  0  0  0  0
 12 17  1  0  0  0  0
 12  4  1  0  0  0  0
 12 11  1  0  0  0  0
 14  9  1  0  0  0  0
 16 12  1  0  0  0  0
 18 20  1  0  0  0  0
 19 18  2  0  0  0  0
 20 21  1  0  0  0  0
 22  1  1  0  0  0  0
 23 29  1  0  0  0  0
 23 24  1  0  0  0  0
 24 30  1  0  0  0  0
 25 24  2  0  0  0  0
 25 22  1  0  0  0  0
 26 25  1  0  0  0  0
 27 28  1  0  0  0  0
 27 26  2  0  0  0  0
 28 23  2  0  0  0  0
 32 31  1  0  0  0  0
 32 27  1  0  0  0  0
 33 32  2  0  0  0  0
 34 33  1  0  0  0  0
 35 40  2  0  0  0  0
 35 33  1  0  0  0  0
 36 35  1  0  0  0  0
 37 36  1  0  0  0  0
 37 39  2  0  0  0  0
 38 37  1  0  0  0  0
 39 40  1  0  0  0  0
 40 41  1  0  0  0  0
 41 31  2  0  0  0  0
 42 36  1  0  0  0  0
M  END
>  <minimizedAffinity>
-6.60048246

$$$$

 OpenBabel03242511223D

 42 46  0  0  1  0  0  0  0  0999 V2000
   38.1600   29.3330   42.9040 C   0  0  0  0  0  0  0  0  0  0  0  0
   37.1000   29.2390   42.6620 H   0  0  0  0  0  0  0  0  0  0  0  0
   38.2340   29.5440   43.9980 H   0  0  0  0  0  0  0  0  0  0  0  0
   38.9040   30.3630   42.1800 C   0  0  0  0  0  0  0  0  0  0  0  0
   38.2890   31.1470   41.3510 C   0  0  0  0  0  0  0  0  0  0  0  0
   38.9690   32.1510   40.6430 N   0  0  0  0  0  0  0  0  0  0  0  0
   39.0010   33.5310   40.2160 C   0  0  0  0  0  0  0  0  0  0  0  0
   38.1320   34.4220   39.9820 O   0  0  0  0  0  0  0  0  0  0  0  0
   40.5050   33.3580   40.1980 C   0  0  0  0  0  0  0  0  0  0  0  0
   40.2390   31.8980   39.9480 C   0  0  1  0  0  0  0  0  0  0  0  0
   41.2100   30.7180   40.8940 S   0  0  0  0  0  0  0  0  0  0  0  0
   40.3600   30.4370   42.4610 C   0  0  0  0  0  0  0  0  0  0  0  0
   40.9780   33.8740   39.3170 H   0  0  0  0  0  0  0  0  0  0  0  0
   40.9260   33.5980   41.1720 H   0  0  0  0  0  0  0  0  0  0  0  0
   40.1050   31.6540   38.8800 H   0  0  0  0  0  0  0  0  0  0  0  0
   40.5450   31.2600   43.1900 H   0  0  0  0  0  0  0  0  0  0  0  0
   40.7630   29.5150   42.8860 H   0  0  0  0  0  0  0  0  0  0  0  0
   36.8390   30.9840   41.1450 C   0  0  0  0  0  0  0  0  0  0  0  0
   36.2690   30.9770   40.0120 O   0  0  0  0  0  0  0  0  0  0  0  0
   35.4910   30.8140   41.2770 O   0  0  0  0  0  0  0  0  0  0  0  0
   35.0260   30.2880   42.0350 H   0  0  0  0  0  0  0  0  0  0  0  0
   38.9300   27.6820   42.6160 S   0  0  0  0  0  0  0  0  0  0  0  0
   36.7720   24.9170   40.5680 C   0  0  0  0  0  0  0  0  0  0  0  0
   37.5700   25.5160   41.5940 C   0  0  0  0  0  0  0  0  0  0  0  0
   37.9350   26.8780   41.3720 C   0  0  0  0  0  0  0  0  0  0  0  0
   37.5180   27.5050   40.2390 N   0  0  0  0  0  0  0  0  0  0  0  0
   36.7760   26.8830   39.3270 C   0  0  0  0  0  0  0  0  0  0  0  0
   36.3960   25.6080   39.4680 N   0  0  0  0  0  0  0  0  0  0  0  0
   36.5300   23.8910   40.7940 H   0  0  0  0  0  0  0  0  0  0  0  0
   37.8710   24.9790   42.4630 H   0  0  0  0  0  0  0  0  0  0  0  0
   35.1340   28.2400   38.0600 C   0  0  0  0  0  3  0  0  0  0  0  0
   36.3650   27.6200   38.1350 C   0  0  0  0  0  0  0  0  0  0  0  0
   37.2010   27.7180   37.0370 C   0  0  0  0  0  0  0  0  0  0  0  0
   38.1810   27.2600   37.0190 H   0  0  0  0  0  0  0  0  0  0  0  0
   36.7490   28.4360   35.9300 C   0  0  0  0  0  0  0  0  0  0  0  0
   37.3200   28.7130   34.7210 N   0  0  0  0  0  0  0  0  0  0  0  0
   36.4840   29.4520   33.9690 C   0  0  0  0  0  0  0  0  0  0  0  0
   36.6160   29.8390   32.9780 H   0  0  0  0  0  0  0  0  0  0  0  0
   35.3700   29.6610   34.6790 N   0  0  0  0  0  0  0  0  0  0  0  0
   35.5120   29.0530   35.8700 C   0  0  0  0  0  0  0  0  0  0  0  0
   34.6790   28.9540   36.9640 C   0  0  0  0  0  3  0  0  0  0  0  0
   38.2700   28.4020   34.4080 H   0  0  0  0  0  0  0  0  0  0  0  0
  1  3  1  0  0  0  0
  2  1  1  0  0  0  0
  4 12  1  0  0  0  0
  4  1  1  0  0  0  0
  5  4  2  0  0  0  0
  6  5  1  0  0  0  0
  7  6  1  0  0  0  0
  8  7  2  0  0  0  0
  9  7  1  0  0  0  0
  9 14  1  0  0  0  0
 10 15  1  6  0  0  0
 10  9  1  0  0  0  0
 10  6  1  0  0  0  0
 10 11  1  0  0  0  0
 11 12  1  0  0  0  0
 12 17  1  0  0  0  0
 12 16  1  0  0  0  0
 13  9  1  0  0  0  0
 18 20  1  0  0  0  0
 18  5  1  0  0  0  0
 19 18  2  0  0  0  0
 20 21  1  0  0  0  0
 22  1  1  0  0  0  0
 23 29  1  0  0  0  0
 23 24  1  0  0  0  0
 24 30  1  0  0  0  0
 25 24  2  0  0  0  0
 25 22  1  0  0  0  0
 26 25  1  0  0  0  0
 27 28  1  0  0  0  0
 27 26  2  0  0  0  0
 28 23  2  0  0  0  0
 31 32  1  0  0  0  0
 32 27  1  0  0  0  0
 33 32  2  0  0  0  0
 34 33  1  0  0  0  0
 35 33  1  0  0  0  0
 36 35  1  0  0  0  0
 37 39  2  0  0  0  0
 37 36  1  0  0  0  0
 38 37  1  0  0  0  0
 39 40  1  0  0  0  0
 40 35  2  0  0  0  0
 40 41  1  0  0  0  0
 41 31  2  0  0  0  0
 42 36  1  0  0  0  0
M  END
>  <minimizedAffinity>
-6.58710766

$$$$

 OpenBabel03242511223D

 42 46  0  0  1  0  0  0  0  0999 V2000
   40.7550   34.8380   39.3970 C   0  0  0  0  0  0  0  0  0  0  0  0
   40.2820   34.7260   38.4210 H   0  0  0  0  0  0  0  0  0  0  0  0
   41.2160   35.8540   39.4300 H   0  0  0  0  0  0  0  0  0  0  0  0
   41.7790   33.8510   39.7410 C   0  0  0  0  0  0  0  0  0  0  0  0
   41.8910   32.7620   39.0480 C   0  0  0  0  0  0  0  0  0  0  0  0
   42.8640   31.7950   39.3450 N   0  0  0  0  0  0  0  0  0  0  0  0
   43.8990   30.9170   38.8490 C   0  0  0  0  0  0  0  0  0  0  0  0
   44.1330   30.3290   37.7510 O   0  0  0  0  0  0  0  0  0  0  0  0
   44.5060   31.0620   40.2280 C   0  0  0  0  0  0  0  0  0  0  0  0
   43.1060   31.3190   40.7140 C   0  0  1  0  0  0  0  0  0  0  0  0
   42.8790   32.6790   41.8660 S   0  0  0  0  0  0  0  0  0  0  0  0
   42.6460   34.1860   40.9000 C   0  0  0  0  0  0  0  0  0  0  0  0
   44.9290   30.0900   40.6060 H   0  0  0  0  0  0  0  0  0  0  0  0
   45.1790   31.9170   40.2590 H   0  0  0  0  0  0  0  0  0  0  0  0
   42.5490   30.3960   40.9540 H   0  0  0  0  0  0  0  0  0  0  0  0
   43.6120   34.5920   40.5200 H   0  0  0  0  0  0  0  0  0  0  0  0
   42.2050   34.9310   41.5660 H   0  0  0  0  0  0  0  0  0  0  0  0
   40.9730   32.5290   37.9180 C   0  0  0  0  0  0  0  0  0  0  0  0
   40.2720   31.4840   37.7640 O   0  0  0  0  0  0  0  0  0  0  0  0
   40.2260   32.6070   36.7780 O   0  0  0  0  0  0  0  0  0  0  0  0
   39.8620   33.4770   36.3600 H   0  0  0  0  0  0  0  0  0  0  0  0
   39.4090   34.8120   40.6580 S   0  0  0  0  0  0  0  0  0  0  0  0
   36.8800   31.9310   39.3200 C   0  0  0  0  0  0  0  0  0  0  0  0
   37.5330   33.1970   39.4530 C   0  0  0  0  0  0  0  0  0  0  0  0
   38.5560   33.2600   40.4450 C   0  0  0  0  0  0  0  0  0  0  0  0
   38.8410   32.1510   41.1810 N   0  0  0  0  0  0  0  0  0  0  0  0
   38.1910   31.0050   41.0020 C   0  0  0  0  0  0  0  0  0  0  0  0
   37.2210   30.8730   40.0910 N   0  0  0  0  0  0  0  0  0  0  0  0
   36.1190   31.9480   38.5560 H   0  0  0  0  0  0  0  0  0  0  0  0
   37.2700   34.0350   38.8500 H   0  0  0  0  0  0  0  0  0  0  0  0
   37.5880   29.0430   42.3920 C   0  0  0  0  0  3  0  0  0  0  0  0
   38.5510   29.8570   41.8290 C   0  0  0  0  0  0  0  0  0  0  0  0
   39.8770   29.5480   42.0760 C   0  0  0  0  0  0  0  0  0  0  0  0
   40.6890   30.1360   41.6700 H   0  0  0  0  0  0  0  0  0  0  0  0
   40.1540   28.4380   42.8740 C   0  0  0  0  0  0  0  0  0  0  0  0
   41.3280   27.8810   43.2950 N   0  0  0  0  0  0  0  0  0  0  0  0
   41.0840   26.8020   44.0600 C   0  0  0  0  0  0  0  0  0  0  0  0
   41.7710   26.1380   44.5480 H   0  0  0  0  0  0  0  0  0  0  0  0
   39.7580   26.6490   44.1450 N   0  0  0  0  0  0  0  0  0  0  0  0
   39.1780   27.6320   43.4310 C   0  0  0  0  0  0  0  0  0  0  0  0
   37.8570   27.9410   43.1850 C   0  0  0  0  0  3  0  0  0  0  0  0
   42.2880   28.2300   43.0630 H   0  0  0  0  0  0  0  0  0  0  0  0
  1  3  1  0  0  0  0
  1  4  1  0  0  0  0
  1 22  1  0  0  0  0
  2  1  1  0  0  0  0
  4 12  1  0  0  0  0
  5  6  1  0  0  0  0
  5  4  2  0  0  0  0
  6 10  1  0  0  0  0
  7  6  1  0  0  0  0
  7  9  1  0  0  0  0
  8  7  2  0  0  0  0
  9 14  1  0  0  0  0
  9 13  1  0  0  0  0
  9 10  1  0  0  0  0
 10 15  1  1  0  0  0
 10 11  1  0  0  0  0
 12 17  1  0  0  0  0
 12 11  1  0  0  0  0
 16 12  1  0  0  0  0
 18  5  1  0  0  0  0
 19 18  2  0  0  0  0
 20 18  1  0  0  0  0
 21 20  1  0  0  0  0
 23 24  2  0  0  0  0
 23 28  1  0  0  0  0
 24 25  1  0  0  0  0
 25 22  1  0  0  0  0
 25 26  2  0  0  0  0
 27 26  1  0  0  0  0
 27 32  1  0  0  0  0
 28 27  2  0  0  0  0
 29 23  1  0  0  0  0
 30 24  1  0  0  0  0
 31 41  1  0  0  0  0
 32 33  1  0  0  0  0
 32 31  2  0  0  0  0
 33 35  2  0  0  0  0
 34 33  1  0  0  0  0
 35 36  1  0  0  0  0
 35 40  1  0  0  0  0
 36 37  1  0  0  0  0
 37 39  2  0  0  0  0
 37 38  1  0  0  0  0
 40 39  1  0  0  0  0
 41 40  2  0  0  0  0
 42 36  1  0  0  0  0
M  END
>  <minimizedAffinity>
-6.44209051

$$$$

 OpenBabel03242511223D

 42 46  0  0  1  0  0  0  0  0999 V2000
   39.7040   34.3290   39.6870 C   0  0  0  0  0  0  0  0  0  0  0  0
   39.2670   34.0180   38.7370 H   0  0  0  0  0  0  0  0  0  0  0  0
   39.3690   35.3760   39.8810 H   0  0  0  0  0  0  0  0  0  0  0  0
   41.1640   34.2840   39.7760 C   0  0  0  0  0  0  0  0  0  0  0  0
   41.8470   33.5920   38.9200 C   0  0  0  0  0  0  0  0  0  0  0  0
   43.2480   33.5300   38.9710 N   0  0  0  0  0  0  0  0  0  0  0  0
   44.4980   33.6100   38.2500 C   0  0  0  0  0  0  0  0  0  0  0  0
   44.8670   33.3870   37.0590 O   0  0  0  0  0  0  0  0  0  0  0  0
   45.0840   34.0650   39.5700 C   0  0  0  0  0  0  0  0  0  0  0  0
   43.9770   33.2820   40.2230 C   0  0  1  0  0  0  0  0  0  0  0  0
   43.1100   34.0740   41.5840 S   0  0  0  0  0  0  0  0  0  0  0  0
   41.7750   35.0650   40.8830 C   0  0  0  0  0  0  0  0  0  0  0  0
   46.1010   33.6220   39.7550 H   0  0  0  0  0  0  0  0  0  0  0  0
   45.0120   35.1470   39.6640 H   0  0  0  0  0  0  0  0  0  0  0  0
   44.2250   32.2170   40.3740 H   0  0  0  0  0  0  0  0  0  0  0  0
   42.1430   36.0350   40.4760 H   0  0  0  0  0  0  0  0  0  0  0  0
   41.0750   35.2820   41.6930 H   0  0  0  0  0  0  0  0  0  0  0  0
   41.1370   32.8500   37.8620 C   0  0  0  0  0  0  0  0  0  0  0  0
   41.0780   31.5860   37.7850 O   0  0  0  0  0  0  0  0  0  0  0  0
   40.4090   32.4610   36.7750 O   0  0  0  0  0  0  0  0  0  0  0  0
   39.6250   32.9890   36.3590 H   0  0  0  0  0  0  0  0  0  0  0  0
   38.9610   33.2680   41.0000 S   0  0  0  0  0  0  0  0  0  0  0  0
   36.9400   31.0990   38.2240 C   0  0  0  0  0  0  0  0  0  0  0  0
   37.5910   32.2020   38.8620 C   0  0  0  0  0  0  0  0  0  0  0  0
   38.1350   31.9320   40.1530 C   0  0  0  0  0  0  0  0  0  0  0  0
   38.0080   30.6860   40.6830 N   0  0  0  0  0  0  0  0  0  0  0  0
   37.3880   29.7060   40.0310 C   0  0  0  0  0  0  0  0  0  0  0  0
   36.8540   29.8860   38.8180 N   0  0  0  0  0  0  0  0  0  0  0  0
   36.5520   31.3660   37.2540 H   0  0  0  0  0  0  0  0  0  0  0  0
   37.6630   33.1600   38.4010 H   0  0  0  0  0  0  0  0  0  0  0  0
   37.0720   28.2610   42.0200 C   0  0  0  0  0  3  0  0  0  0  0  0
   37.2900   28.3940   40.6630 C   0  0  0  0  0  0  0  0  0  0  0  0
   37.4150   27.2350   39.9170 C   0  0  0  0  0  0  0  0  0  0  0  0
   37.5870   27.2550   38.8490 H   0  0  0  0  0  0  0  0  0  0  0  0
   37.3110   26.0130   40.5810 C   0  0  0  0  0  0  0  0  0  0  0  0
   37.3860   24.7220   40.1430 N   0  0  0  0  0  0  0  0  0  0  0  0
   37.2230   23.8700   41.1720 C   0  0  0  0  0  0  0  0  0  0  0  0
   37.2250   22.7980   41.1800 H   0  0  0  0  0  0  0  0  0  0  0  0
   37.0420   24.5950   42.2810 N   0  0  0  0  0  0  0  0  0  0  0  0
   37.0920   25.8960   41.9420 C   0  0  0  0  0  0  0  0  0  0  0  0
   36.9680   27.0510   42.6850 C   0  0  0  0  0  3  0  0  0  0  0  0
   37.5470   24.4200   39.1530 H   0  0  0  0  0  0  0  0  0  0  0  0
  1  4  1  0  0  0  0
  1  3  1  0  0  0  0
  1 22  1  0  0  0  0
  2  1  1  0  0  0  0
  4 12  1  0  0  0  0
  5  6  1  0  0  0  0
  5  4  2  0  0  0  0
  6 10  1  0  0  0  0
  7  6  1  0  0  0  0
  7  9  1  0  0  0  0
  8  7  2  0  0  0  0
  9 14  1  0  0  0  0
  9 13  1  0  0  0  0
  9 10  1  0  0  0  0
 10 15  1  1  0  0  0
 10 11  1  0  0  0  0
 12 11  1  0  0  0  0
 12 17  1  0  0  0  0
 16 12  1  0  0  0  0
 18  5  1  0  0  0  0
 19 18  2  0  0  0  0
 20 18  1  0  0  0  0
 21 20  1  0  0  0  0
 23 28  2  0  0  0  0
 23 24  1  0  0  0  0
 24 25  2  0  0  0  0
 25 26  1  0  0  0  0
 25 22  1  0  0  0  0
 27 32  1  0  0  0  0
 27 26  2  0  0  0  0
 28 27  1  0  0  0  0
 29 23  1  0  0  0  0
 30 24  1  0  0  0  0
 31 41  1  0  0  0  0
 32 31  2  0  0  0  0
 33 35  2  0  0  0  0
 33 32  1  0  0  0  0
 34 33  1  0  0  0  0
 35 40  1  0  0  0  0
 36 35  1  0  0  0  0
 36 37  1  0  0  0  0
 37 38  1  0  0  0  0
 37 39  2  0  0  0  0
 40 39  1  0  0  0  0
 40 41  2  0  0  0  0
 42 36  1  0  0  0  0
M  END
>  <minimizedAffinity>
-6.38323832

$$$$

 OpenBabel03242511223D

 42 46  0  0  1  0  0  0  0  0999 V2000
   39.0170   30.9660   40.9410 C   0  0  0  0  0  0  0  0  0  0  0  0
   38.1940   31.4490   41.4700 H   0  0  0  0  0  0  0  0  0  0  0  0
   39.7690   31.7560   40.7010 H   0  0  0  0  0  0  0  0  0  0  0  0
   38.6730   30.2620   39.7060 C   0  0  0  0  0  0  0  0  0  0  0  0
   37.4400   29.9510   39.4570 C   0  0  0  0  0  0  0  0  0  0  0  0
   37.0710   29.2790   38.2800 N   0  0  0  0  0  0  0  0  0  0  0  0
   36.1690   29.2040   37.1540 C   0  0  0  0  0  0  0  0  0  0  0  0
   34.9700   29.5470   36.9350 O   0  0  0  0  0  0  0  0  0  0  0  0
   37.3290   28.5480   36.4330 C   0  0  0  0  0  0  0  0  0  0  0  0
   37.7950   28.0980   37.7910 C   0  0  1  0  0  0  0  0  0  0  0  0
   39.5460   28.2790   38.1540 S   0  0  0  0  0  0  0  0  0  0  0  0
   39.8040   29.9460   38.7970 C   0  0  0  0  0  0  0  0  0  0  0  0
   36.9910   27.6940   35.7820 H   0  0  0  0  0  0  0  0  0  0  0  0
   37.9480   29.2990   35.9490 H   0  0  0  0  0  0  0  0  0  0  0  0
   37.3390   27.1470   38.1180 H   0  0  0  0  0  0  0  0  0  0  0  0
   39.8340   30.7080   37.9830 H   0  0  0  0  0  0  0  0  0  0  0  0
   40.7740   29.9510   39.2990 H   0  0  0  0  0  0  0  0  0  0  0  0
   36.3950   30.3090   40.4330 C   0  0  0  0  0  0  0  0  0  0  0  0
   35.5350   29.5000   40.8970 O   0  0  0  0  0  0  0  0  0  0  0  0
   35.5620   30.9350   41.3150 O   0  0  0  0  0  0  0  0  0  0  0  0
   35.8180   31.7360   41.9140 H   0  0  0  0  0  0  0  0  0  0  0  0
   39.8150   29.8010   42.1280 S   0  0  0  0  0  0  0  0  0  0  0  0
   36.7920   27.7710   43.9280 C   0  0  0  0  0  0  0  0  0  0  0  0
   37.7620   28.7890   43.6590 C   0  0  0  0  0  0  0  0  0  0  0  0
   38.5860   28.5660   42.5160 C   0  0  0  0  0  0  0  0  0  0  0  0
   38.4090   27.4390   41.7740 N   0  0  0  0  0  0  0  0  0  0  0  0
   37.4840   26.5350   42.0840 C   0  0  0  0  0  0  0  0  0  0  0  0
   36.6770   26.6770   43.1410 N   0  0  0  0  0  0  0  0  0  0  0  0
   36.2020   27.9980   44.8010 H   0  0  0  0  0  0  0  0  0  0  0  0
   37.8600   29.6540   44.2740 H   0  0  0  0  0  0  0  0  0  0  0  0
   36.6390   25.3820   40.0590 C   0  0  0  0  0  3  0  0  0  0  0  0
   37.3510   25.3500   41.2420 C   0  0  0  0  0  0  0  0  0  0  0  0
   37.9370   24.1500   41.6050 C   0  0  0  0  0  0  0  0  0  0  0  0
   38.5100   24.0440   42.5160 H   0  0  0  0  0  0  0  0  0  0  0  0
   37.7720   23.0560   40.7560 C   0  0  0  0  0  0  0  0  0  0  0  0
   38.2130   21.7660   40.8270 N   0  0  0  0  0  0  0  0  0  0  0  0
   37.7930   21.0690   39.7550 C   0  0  0  0  0  0  0  0  0  0  0  0
   37.9590   20.0410   39.4990 H   0  0  0  0  0  0  0  0  0  0  0  0
   37.0790   21.8960   38.9830 N   0  0  0  0  0  0  0  0  0  0  0  0
   37.0560   23.1040   39.5740 C   0  0  0  0  0  0  0  0  0  0  0  0
   36.4720   24.3000   39.2130 C   0  0  0  0  0  3  0  0  0  0  0  0
   38.7960   21.3600   41.5980 H   0  0  0  0  0  0  0  0  0  0  0  0
  1  2  1  0  0  0  0
  1 22  1  0  0  0  0
  3  1  1  0  0  0  0
  4  1  1  0  0  0  0
  5  4  2  0  0  0  0
  5 18  1  0  0  0  0
  6  5  1  0  0  0  0
  7  6  1  0  0  0  0
  8  7  2  0  0  0  0
  9  7  1  0  0  0  0
  9 10  1  0  0  0  0
 10 15  1  1  0  0  0
 10 11  1  0  0  0  0
 10  6  1  0  0  0  0
 11 12  1  0  0  0  0
 12 17  1  0  0  0  0
 12  4  1  0  0  0  0
 13  9  1  0  0  0  0
 14  9  1  0  0  0  0
 16 12  1  0  0  0  0
 18 19  2  0  0  0  0
 18 20  1  0  0  0  0
 20 21  1  0  0  0  0
 22 25  1  0  0  0  0
 23 29  1  0  0  0  0
 24 23  1  0  0  0  0
 24 30  1  0  0  0  0
 25 24  2  0  0  0  0
 26 27  2  0  0  0  0
 26 25  1  0  0  0  0
 27 28  1  0  0  0  0
 28 23  2  0  0  0  0
 31 32  1  0  0  0  0
 32 33  2  0  0  0  0
 32 27  1  0  0  0  0
 33 34  1  0  0  0  0
 35 36  1  0  0  0  0
 35 33  1  0  0  0  0
 36 42  1  0  0  0  0
 37 36  1  0  0  0  0
 38 37  1  0  0  0  0
 39 40  1  0  0  0  0
 39 37  2  0  0  0  0
 40 35  2  0  0  0  0
 41 40  1  0  0  0  0
 41 31  2  0  0  0  0
M  END
>  <minimizedAffinity>
-6.35684347

$$$$

 OpenBabel03242511223D

 42 46  0  0  1  0  0  0  0  0999 V2000
   40.4860   29.7640   42.6470 C   0  0  0  0  0  0  0  0  0  0  0  0
   41.2590   30.1870   43.2900 H   0  0  0  0  0  0  0  0  0  0  0  0
   39.5110   30.2110   42.9570 H   0  0  0  0  0  0  0  0  0  0  0  0
   40.3540   28.3070   42.6610 C   0  0  0  0  0  0  0  0  0  0  0  0
   39.1920   27.7610   42.8380 C   0  0  0  0  0  0  0  0  0  0  0  0
   39.0260   26.3670   42.8540 N   0  0  0  0  0  0  0  0  0  0  0  0
   38.2720   25.2260   42.3870 C   0  0  0  0  0  0  0  0  0  0  0  0
   37.0800   25.0270   42.0080 O   0  0  0  0  0  0  0  0  0  0  0  0
   39.5620   24.4570   42.5780 C   0  0  0  0  0  0  0  0  0  0  0  0
   39.9070   25.4800   43.6260 C   0  0  1  0  0  0  0  0  0  0  0  0
   41.5800   26.1370   43.6060 S   0  0  0  0  0  0  0  0  0  0  0  0
   41.6080   27.5350   42.4640 C   0  0  0  0  0  0  0  0  0  0  0  0
   39.3820   23.4330   43.0090 H   0  0  0  0  0  0  0  0  0  0  0  0
   40.1630   24.4920   41.6710 H   0  0  0  0  0  0  0  0  0  0  0  0
   39.5050   25.2370   44.6240 H   0  0  0  0  0  0  0  0  0  0  0  0
   41.6620   27.2050   41.4000 H   0  0  0  0  0  0  0  0  0  0  0  0
   42.5080   28.1130   42.6840 H   0  0  0  0  0  0  0  0  0  0  0  0
   38.0120   28.6240   43.0290 C   0  0  0  0  0  0  0  0  0  0  0  0
   37.2680   28.6100   44.0570 O   0  0  0  0  0  0  0  0  0  0  0  0
   37.0020   29.5350   42.9130 O   0  0  0  0  0  0  0  0  0  0  0  0
   37.0540   30.4230   42.3890 H   0  0  0  0  0  0  0  0  0  0  0  0
   40.8290   30.3470   40.9310 S   0  0  0  0  0  0  0  0  0  0  0  0
   37.6780   32.8190   40.2630 C   0  0  0  0  0  0  0  0  0  0  0  0
   38.9130   32.3190   40.7830 C   0  0  0  0  0  0  0  0  0  0  0  0
   39.2970   31.0260   40.3190 C   0  0  0  0  0  0  0  0  0  0  0  0
   38.4940   30.3660   39.4410 N   0  0  0  0  0  0  0  0  0  0  0  0
   37.3560   30.8950   38.9990 C   0  0  0  0  0  0  0  0  0  0  0  0
   36.9340   32.1020   39.3900 N   0  0  0  0  0  0  0  0  0  0  0  0
   37.4450   33.7990   40.6500 H   0  0  0  0  0  0  0  0  0  0  0  0
   39.5050   32.8780   41.4710 H   0  0  0  0  0  0  0  0  0  0  0  0
   36.8630   30.0690   36.7150 C   0  0  0  0  0  3  0  0  0  0  0  0
   36.5460   30.1290   38.0570 C   0  0  0  0  0  0  0  0  0  0  0  0
   35.4260   29.4360   38.4830 C   0  0  0  0  0  0  0  0  0  0  0  0
   35.1120   29.4330   39.5180 H   0  0  0  0  0  0  0  0  0  0  0  0
   34.6950   28.7230   37.5330 C   0  0  0  0  0  0  0  0  0  0  0  0
   33.5690   27.9550   37.6280 N   0  0  0  0  0  0  0  0  0  0  0  0
   33.2350   27.4660   36.4200 C   0  0  0  0  0  0  0  0  0  0  0  0
   32.4150   26.8340   36.1410 H   0  0  0  0  0  0  0  0  0  0  0  0
   34.1330   27.9090   35.5340 N   0  0  0  0  0  0  0  0  0  0  0  0
   35.0260   28.6720   36.1900 C   0  0  0  0  0  0  0  0  0  0  0  0
   36.1410   29.3640   35.7670 C   0  0  0  0  0  3  0  0  0  0  0  0
   33.0320   27.7650   38.5070 H   0  0  0  0  0  0  0  0  0  0  0  0
  1  4  1  0  0  0  0
  1  3  1  0  0  0  0
  1  2  1  0  0  0  0
  4  5  2  0  0  0  0
  5  6  1  0  0  0  0
  5 18  1  0  0  0  0
  6 10  1  0  0  0  0
  7  9  1  0  0  0  0
  7  6  1  0  0  0  0
  8  7  2  0  0  0  0
  9 13  1  0  0  0  0
  9 10  1  0  0  0  0
 10 15  1  1  0  0  0
 11 10  1  0  0  0  0
 12  4  1  0  0  0  0
 12 17  1  0  0  0  0
 12 11  1  0  0  0  0
 14  9  1  0  0  0  0
 16 12  1  0  0  0  0
 18 19  2  0  0  0  0
 20 18  1  0  0  0  0
 21 20  1  0  0  0  0
 22  1  1  0  0  0  0
 23 29  1  0  0  0  0
 23 24  1  0  0  0  0
 24 30  1  0  0  0  0
 25 24  2  0  0  0  0
 25 22  1  0  0  0  0
 26 25  1  0  0  0  0
 27 28  1  0  0  0  0
 27 26  2  0  0  0  0
 28 23  2  0  0  0  0
 31 32  1  0  0  0  0
 32 33  2  0  0  0  0
 32 27  1  0  0  0  0
 33 34  1  0  0  0  0
 35 36  1  0  0  0  0
 35 33  1  0  0  0  0
 36 42  1  0  0  0  0
 37 36  1  0  0  0  0
 38 37  1  0  0  0  0
 39 40  1  0  0  0  0
 39 37  2  0  0  0  0
 40 35  2  0  0  0  0
 41 40  1  0  0  0  0
 41 31  2  0  0  0  0
M  END
>  <minimizedAffinity>
-6.3407197

$$$$

 OpenBabel03242511223D

 42 46  0  0  1  0  0  0  0  0999 V2000
   38.4290   32.6880   40.3300 C   0  0  0  0  0  0  0  0  0  0  0  0
   37.9160   32.4480   41.2620 H   0  0  0  0  0  0  0  0  0  0  0  0
   38.0870   33.7020   40.0130 H   0  0  0  0  0  0  0  0  0  0  0  0
   38.2240   31.7600   39.2180 C   0  0  0  0  0  0  0  0  0  0  0  0
   37.2540   30.9030   39.2560 C   0  0  0  0  0  0  0  0  0  0  0  0
   37.0240   30.0000   38.2060 N   0  0  0  0  0  0  0  0  0  0  0  0
   36.0660   29.3930   37.3100 C   0  0  0  0  0  0  0  0  0  0  0  0
   34.8270   29.1340   37.3560 O   0  0  0  0  0  0  0  0  0  0  0  0
   37.2380   29.2430   36.3630 C   0  0  0  0  0  0  0  0  0  0  0  0
   38.1060   29.2180   37.5920 C   0  0  1  0  0  0  0  0  0  0  0  0
   39.6070   30.2060   37.5520 S   0  0  0  0  0  0  0  0  0  0  0  0
   39.1800   31.8760   38.0860 C   0  0  0  0  0  0  0  0  0  0  0  0
   37.2180   28.2570   35.8210 H   0  0  0  0  0  0  0  0  0  0  0  0
   37.3360   30.1270   35.7370 H   0  0  0  0  0  0  0  0  0  0  0  0
   38.2120   28.2110   38.0320 H   0  0  0  0  0  0  0  0  0  0  0  0
   38.7000   32.4660   37.2700 H   0  0  0  0  0  0  0  0  0  0  0  0
   40.1120   32.3760   38.3600 H   0  0  0  0  0  0  0  0  0  0  0  0
   36.3660   30.8710   40.4330 C   0  0  0  0  0  0  0  0  0  0  0  0
   35.8860   29.8150   40.9440 O   0  0  0  0  0  0  0  0  0  0  0  0
   35.5810   31.1640   41.5110 O   0  0  0  0  0  0  0  0  0  0  0  0
   35.7100   31.9700   42.1430 H   0  0  0  0  0  0  0  0  0  0  0  0
   40.2270   32.8180   40.7180 S   0  0  0  0  0  0  0  0  0  0  0  0
   42.1980   30.0920   42.9930 C   0  0  0  0  0  0  0  0  0  0  0  0
   41.9020   31.3080   42.2980 C   0  0  0  0  0  0  0  0  0  0  0  0
   40.6550   31.3290   41.6030 C   0  0  0  0  0  0  0  0  0  0  0  0
   39.8500   30.2330   41.6410 N   0  0  0  0  0  0  0  0  0  0  0  0
   40.1920   29.1350   42.3100 C   0  0  0  0  0  0  0  0  0  0  0  0
   41.3440   29.0430   42.9830 N   0  0  0  0  0  0  0  0  0  0  0  0
   43.1510   30.1390   43.4970 H   0  0  0  0  0  0  0  0  0  0  0  0
   42.5690   32.1380   42.3010 H   0  0  0  0  0  0  0  0  0  0  0  0
   38.0790   28.0330   42.9900 C   0  0  0  0  0  3  0  0  0  0  0  0
   39.2780   27.9980   42.3060 C   0  0  0  0  0  0  0  0  0  0  0  0
   39.5870   26.8400   41.6130 C   0  0  0  0  0  0  0  0  0  0  0  0
   40.5070   26.7350   41.0530 H   0  0  0  0  0  0  0  0  0  0  0  0
   38.6710   25.7890   41.6490 C   0  0  0  0  0  0  0  0  0  0  0  0
   38.6780   24.5460   41.0840 N   0  0  0  0  0  0  0  0  0  0  0  0
   37.5560   23.8800   41.4080 C   0  0  0  0  0  0  0  0  0  0  0  0
   37.2440   22.8900   41.1360 H   0  0  0  0  0  0  0  0  0  0  0  0
   36.8130   24.6780   42.1820 N   0  0  0  0  0  0  0  0  0  0  0  0
   37.4730   25.8400   42.3390 C   0  0  0  0  0  0  0  0  0  0  0  0
   37.1660   26.9930   43.0300 C   0  0  0  0  0  3  0  0  0  0  0  0
   39.4400   24.1530   40.4820 H   0  0  0  0  0  0  0  0  0  0  0  0
  1 22  1  0  0  0  0
  1  2  1  0  0  0  0
  3  1  1  0  0  0  0
  4  5  2  0  0  0  0
  4  1  1  0  0  0  0
  5 18  1  0  0  0  0
  6  5  1  0  0  0  0
  7  8  2  0  0  0  0
  7  6  1  0  0  0  0
  9  7  1  0  0  0  0
  9 10  1  0  0  0  0
 10 15  1  1  0  0  0
 10  6  1  0  0  0  0
 11 10  1  0  0  0  0
 11 12  1  0  0  0  0
 12 17  1  0  0  0  0
 12  4  1  0  0  0  0
 13  9  1  0  0  0  0
 14  9  1  0  0  0  0
 16 12  1  0  0  0  0
 18 19  2  0  0  0  0
 18 20  1  0  0  0  0
 20 21  1  0  0  0  0
 22 25  1  0  0  0  0
 23 29  1  0  0  0  0
 24 30  1  0  0  0  0
 24 23  2  0  0  0  0
 25 26  2  0  0  0  0
 25 24  1  0  0  0  0
 26 27  1  0  0  0  0
 27 28  2  0  0  0  0
 28 23  1  0  0  0  0
 31 41  1  0  0  0  0
 32 27  1  0  0  0  0
 32 31  2  0  0  0  0
 33 35  2  0  0  0  0
 33 32  1  0  0  0  0
 34 33  1  0  0  0  0
 35 40  1  0  0  0  0
 36 37  1  0  0  0  0
 36 35  1  0  0  0  0
 37 39  2  0  0  0  0
 38 37  1  0  0  0  0
 39 40  1  0  0  0  0
 40 41  2  0  0  0  0
 42 36  1  0  0  0  0
M  END
>  <minimizedAffinity>
-6.17812443

$$$$

 OpenBabel03242511223D

 42 46  0  0  1  0  0  0  0  0999 V2000
   37.6970   25.4050   42.1730 C   0  0  0  0  0  0  0  0  0  0  0  0
   37.1420   24.4680   42.1130 H   0  0  0  0  0  0  0  0  0  0  0  0
   37.5830   25.7940   43.2130 H   0  0  0  0  0  0  0  0  0  0  0  0
   37.3010   26.4560   41.2360 C   0  0  0  0  0  0  0  0  0  0  0  0
   36.7250   27.5320   41.6730 C   0  0  0  0  0  0  0  0  0  0  0  0
   36.3350   28.5640   40.8050 N   0  0  0  0  0  0  0  0  0  0  0  0
   36.3180   29.9830   40.5310 C   0  0  0  0  0  0  0  0  0  0  0  0
   36.3420   31.0370   41.2320 O   0  0  0  0  0  0  0  0  0  0  0  0
   36.2620   29.5710   39.0740 C   0  0  0  0  0  0  0  0  0  0  0  0
   35.6050   28.3060   39.5550 C   0  0  1  0  0  0  0  0  0  0  0  0
   36.1830   26.7630   38.8370 S   0  0  0  0  0  0  0  0  0  0  0  0
   37.6000   26.2030   39.8040 C   0  0  0  0  0  0  0  0  0  0  0  0
   35.5660   30.2260   38.4790 H   0  0  0  0  0  0  0  0  0  0  0  0
   37.2660   29.4560   38.6730 H   0  0  0  0  0  0  0  0  0  0  0  0
   34.5110   28.3960   39.6700 H   0  0  0  0  0  0  0  0  0  0  0  0
   38.5340   26.7470   39.5300 H   0  0  0  0  0  0  0  0  0  0  0  0
   37.7480   25.1450   39.5760 H   0  0  0  0  0  0  0  0  0  0  0  0
   36.4720   27.6790   43.1180 C   0  0  0  0  0  0  0  0  0  0  0  0
   37.1970   28.3510   43.9110 O   0  0  0  0  0  0  0  0  0  0  0  0
   35.9820   27.6250   44.3910 O   0  0  0  0  0  0  0  0  0  0  0  0
   34.9870   27.5220   44.6450 H   0  0  0  0  0  0  0  0  0  0  0  0
   39.4800   24.9940   41.9400 S   0  0  0  0  0  0  0  0  0  0  0  0
   41.9500   27.2920   44.2020 C   0  0  0  0  0  0  0  0  0  0  0  0
   41.2330   26.1500   43.7220 C   0  0  0  0  0  0  0  0  0  0  0  0
   40.3990   26.3800   42.5870 C   0  0  0  0  0  0  0  0  0  0  0  0
   40.3370   27.6270   42.0460 N   0  0  0  0  0  0  0  0  0  0  0  0
   41.0330   28.6440   42.5470 C   0  0  0  0  0  0  0  0  0  0  0  0
   41.8340   28.5020   43.6090 N   0  0  0  0  0  0  0  0  0  0  0  0
   42.5600   27.0540   45.0580 H   0  0  0  0  0  0  0  0  0  0  0  0
   41.3180   25.1940   44.1830 H   0  0  0  0  0  0  0  0  0  0  0  0
   41.9320   30.4740   41.1370 C   0  0  0  0  0  3  0  0  0  0  0  0
   40.9160   29.9540   41.9140 C   0  0  0  0  0  0  0  0  0  0  0  0
   39.7760   30.7220   42.0760 C   0  0  0  0  0  0  0  0  0  0  0  0
   38.9370   30.3850   42.6690 H   0  0  0  0  0  0  0  0  0  0  0  0
   39.7270   31.9650   41.4450 C   0  0  0  0  0  0  0  0  0  0  0  0
   38.7690   32.9370   41.4070 N   0  0  0  0  0  0  0  0  0  0  0  0
   39.1850   33.9720   40.6550 C   0  0  0  0  0  0  0  0  0  0  0  0
   38.6850   34.8910   40.4190 H   0  0  0  0  0  0  0  0  0  0  0  0
   40.4090   33.6840   40.2010 N   0  0  0  0  0  0  0  0  0  0  0  0
   40.7540   32.4710   40.6690 C   0  0  0  0  0  0  0  0  0  0  0  0
   41.8900   31.7060   40.5090 C   0  0  0  0  0  3  0  0  0  0  0  0
   37.8400   32.8980   41.8890 H   0  0  0  0  0  0  0  0  0  0  0  0
  1  3  1  0  0  0  0
  2  1  1  0  0  0  0
  4  5  2  0  0  0  0
  4  1  1  0  0  0  0
  5 18  1  0  0  0  0
  6  5  1  0  0  0  0
  7  6  1  0  0  0  0
  7  8  2  0  0  0  0
  9 10  1  0  0  0  0
  9  7  1  0  0  0  0
 10 15  1  1  0  0  0
 10  6  1  0  0  0  0
 11 10  1  0  0  0  0
 11 12  1  0  0  0  0
 12  4  1  0  0  0  0
 13  9  1  0  0  0  0
 14  9  1  0  0  0  0
 16 12  1  0  0  0  0
 17 12  1  0  0  0  0
 18 19  2  0  0  0  0
 18 20  1  0  0  0  0
 20 21  1  0  0  0  0
 22  1  1  0  0  0  0
 22 25  1  0  0  0  0
 23 29  1  0  0  0  0
 24 30  1  0  0  0  0
 24 23  1  0  0  0  0
 25 24  2  0  0  0  0
 26 27  2  0  0  0  0
 26 25  1  0  0  0  0
 27 28  1  0  0  0  0
 28 23  2  0  0  0  0
 31 32  1  0  0  0  0
 32 33  2  0  0  0  0
 32 27  1  0  0  0  0
 33 34  1  0  0  0  0
 35 33  1  0  0  0  0
 36 35  1  0  0  0  0
 36 42  1  0  0  0  0
 37 36  1  0  0  0  0
 38 37  1  0  0  0  0
 39 37  2  0  0  0  0
 39 40  1  0  0  0  0
 40 35  2  0  0  0  0
 41 40  1  0  0  0  0
 41 31  2  0  0  0  0
M  END
>  <minimizedAffinity>
-6.15068769

$$$$
