
 OpenBabel03252508383D

 44 48  0  0  0  0  0  0  0  0999 V2000
   45.0010   33.9910   40.8230 C   0  0  0  0  0  0  0  0  0  0  0  0
   43.9530   33.5830   40.0510 C   0  0  0  0  0  0  0  0  0  0  0  0
   44.2500   32.9360   38.8810 C   0  0  0  0  0  0  0  0  0  0  0  0
   45.5330   32.6840   38.4530 C   0  0  0  0  0  0  0  0  0  0  0  0
   46.5640   33.1140   39.2620 C   0  0  0  0  0  0  0  0  0  0  0  0
   46.3160   33.7710   40.4540 C   0  0  0  0  0  0  0  0  0  0  0  0
   43.4260   32.6080   38.2620 H   0  0  0  0  0  0  0  0  0  0  0  0
   45.6990   32.1740   37.5290 H   0  0  0  0  0  0  0  0  0  0  0  0
   47.5870   32.9180   38.9300 H   0  0  0  0  0  0  0  0  0  0  0  0
   40.7170   35.3700   40.8390 C   0  0  0  0  0  0  0  0  0  0  0  0
   42.0200   35.1380   40.3520 C   0  0  0  0  0  0  0  0  0  0  0  0
   42.6110   33.8660   40.5370 C   0  0  0  0  0  0  0  0  0  0  0  0
   41.8490   32.9650   41.1840 N   0  0  0  0  0  0  0  0  0  0  0  0
   40.6220   33.2070   41.6350 C   0  0  0  0  0  0  0  0  0  0  0  0
   40.0590   34.4120   41.4610 N   0  0  0  0  0  0  0  0  0  0  0  0
   40.1750   36.6670   40.6250 N   0  0  0  0  0  0  0  0  0  0  0  0
   42.5960   35.8980   39.8360 H   0  0  0  0  0  0  0  0  0  0  0  0
   40.0610   32.4320   42.1500 H   0  0  0  0  0  0  0  0  0  0  0  0
   39.9190   37.1420   39.7180 H   0  0  0  0  0  0  0  0  0  0  0  0
   39.9660   37.3160   41.4150 H   0  0  0  0  0  0  0  0  0  0  0  0
   47.4710   34.1810   41.2250 C   0  0  0  0  0  0  0  0  0  0  0  0
   48.0870   35.3440   40.8020 C   0  0  0  0  0  0  0  0  0  0  0  0
   49.2090   35.9020   41.4110 C   0  0  0  0  0  0  0  0  0  0  0  0
   49.7240   35.2300   42.5100 C   0  0  0  0  0  0  0  0  0  0  0  0
   49.1250   34.0650   42.9520 C   0  0  0  0  0  0  0  0  0  0  0  0
   48.0130   33.5540   42.3120 C   0  0  0  0  0  0  0  0  0  0  0  0
   47.7530   35.9410   39.9470 H   0  0  0  0  0  0  0  0  0  0  0  0
   49.6850   36.7960   41.0880 H   0  0  0  0  0  0  0  0  0  0  0  0
   50.5940   35.6100   43.0280 H   0  0  0  0  0  0  0  0  0  0  0  0
   49.4830   33.4920   43.8100 H   0  0  0  0  0  0  0  0  0  0  0  0
   47.8160   31.2090   42.0500 C   0  0  0  0  0  3  0  0  0  0  0  0
   47.3680   32.3280   42.7590 C   0  0  0  0  0  0  0  0  0  0  0  0
   46.4210   32.1140   43.7390 C   0  0  0  0  0  0  0  0  0  0  0  0
   46.1350   33.0320   44.2340 H   0  0  0  0  0  0  0  0  0  0  0  0
   45.9580   30.8420   43.9840 C   0  0  0  0  0  0  0  0  0  0  0  0
   45.0540   30.4390   44.8800 N   0  0  0  0  0  0  0  0  0  0  0  0
   44.9120   29.0940   44.7650 C   0  0  0  0  0  0  0  0  0  0  0  0
   44.2480   28.4710   45.3580 H   0  0  0  0  0  0  0  0  0  0  0  0
   45.7460   28.6840   43.7810 N   0  0  0  0  0  0  0  0  0  0  0  0
   46.4010   29.7620   43.2880 C   0  0  0  0  0  0  0  0  0  0  0  0
   47.3470   29.9250   42.2980 C   0  0  0  0  0  3  0  0  0  0  0  0
   44.5250   31.0250   45.5700 H   0  0  0  0  0  0  0  0  0  0  0  0
   44.5960   35.2540   43.0870 N   0  0  0  0  0  0  0  0  0  0  0  0
   44.7720   34.6840   42.0750 C   0  0  0  0  0  0  0  0  0  0  0  0
  1 44  1  0  0  0  0
  2 12  1  0  0  0  0
  2  1  2  0  0  0  0
  3  2  1  0  0  0  0
  4  3  2  0  0  0  0
  4  5  1  0  0  0  0
  5  6  2  0  0  0  0
  6  1  1  0  0  0  0
  6 21  1  0  0  0  0
  7  3  1  0  0  0  0
  8  4  1  0  0  0  0
  9  5  1  0  0  0  0
 10 15  1  0  0  0  0
 11 12  1  0  0  0  0
 11 10  2  0  0  0  0
 12 13  2  0  0  0  0
 13 14  1  0  0  0  0
 14 18  1  0  0  0  0
 15 14  2  0  0  0  0
 16 10  1  0  0  0  0
 16 20  1  0  0  0  0
 17 11  1  0  0  0  0
 19 16  1  0  0  0  0
 21 26  1  0  0  0  0
 22 21  2  0  0  0  0
 22 23  1  0  0  0  0
 23 24  2  0  0  0  0
 24 25  1  0  0  0  0
 24 29  1  0  0  0  0
 25 30  1  0  0  0  0
 26 32  1  0  0  0  0
 26 25  2  0  0  0  0
 27 22  1  0  0  0  0
 28 23  1  0  0  0  0
 31 41  2  0  0  0  0
 31 32  1  0  0  0  0
 32 33  2  0  0  0  0
 33 35  1  0  0  0  0
 33 34  1  0  0  0  0
 35 36  1  0  0  0  0
 36 42  1  0  0  0  0
 37 36  1  0  0  0  0
 37 38  1  0  0  0  0
 39 37  2  0  0  0  0
 40 39  1  0  0  0  0
 40 35  2  0  0  0  0
 41 40  1  0  0  0  0
 44 43  3  0  0  0  0
M  END
>  <minimizedAffinity>
-6.39156628

>  <minimizedRMSD>
0.772865653

$$$$
