
 OpenBabel03252509163D

 28 31  0  0  0  0  0  0  0  0999 V2000
   46.1480   32.8470   45.6820 C   0  0  0  0  0  0  0  0  0  0  0  0
   46.5810   33.1020   47.0090 C   0  0  0  0  0  0  0  0  0  0  0  0
   47.1930   32.0970   47.6820 C   0  0  0  0  0  0  0  0  0  0  0  0
   47.3760   30.8410   47.0430 C   0  0  0  0  0  0  0  0  0  0  0  0
   46.6280   31.1190   45.3820 S   0  0  0  0  0  0  0  0  0  0  0  0
   46.4210   34.0720   47.4570 H   0  0  0  0  0  0  0  0  0  0  0  0
   47.5580   32.1600   48.6700 H   0  0  0  0  0  0  0  0  0  0  0  0
   49.1780   29.6790   48.1740 C   0  0  0  0  0  3  0  0  0  0  0  0
   47.9710   29.6450   47.5050 C   0  0  0  0  0  0  0  0  0  0  0  0
   47.2920   28.4700   47.2560 C   0  0  0  0  0  0  0  0  0  0  0  0
   46.3400   28.4030   46.7320 H   0  0  0  0  0  0  0  0  0  0  0  0
   47.8570   27.2690   47.7010 C   0  0  0  0  0  0  0  0  0  0  0  0
   47.4070   25.9860   47.5900 N   0  0  0  0  0  0  0  0  0  0  0  0
   48.3520   25.2180   48.2010 C   0  0  0  0  0  0  0  0  0  0  0  0
   48.3580   24.1300   48.3220 H   0  0  0  0  0  0  0  0  0  0  0  0
   49.3420   26.0120   48.6660 N   0  0  0  0  0  0  0  0  0  0  0  0
   49.0620   27.2900   48.3700 C   0  0  0  0  0  0  0  0  0  0  0  0
   49.7280   28.4940   48.6100 C   0  0  0  0  0  3  0  0  0  0  0  0
   46.5350   25.6380   47.1420 H   0  0  0  0  0  0  0  0  0  0  0  0
   44.4120   35.8360   44.2980 C   0  0  0  0  0  0  0  0  0  0  0  0
   44.2510   35.4210   42.9490 C   0  0  0  0  0  0  0  0  0  0  0  0
   44.7390   34.1600   42.5970 C   0  0  0  0  0  0  0  0  0  0  0  0
   45.3430   33.3970   43.5660 N   0  0  0  0  0  0  0  0  0  0  0  0
   45.4720   33.8380   44.8380 C   0  0  0  0  0  0  0  0  0  0  0  0
   45.0100   35.0580   45.2120 N   0  0  0  0  0  0  0  0  0  0  0  0
   44.0460   36.8070   44.6030 H   0  0  0  0  0  0  0  0  0  0  0  0
   43.7750   36.0420   42.2190 H   0  0  0  0  0  0  0  0  0  0  0  0
   44.6550   33.7720   41.5920 H   0  0  0  0  0  0  0  0  0  0  0  0
  1  2  2  0  0  0  0
  2  6  1  0  0  0  0
  2  3  1  0  0  0  0
  3  7  1  0  0  0  0
  4  9  1  0  0  0  0
  4  3  2  0  0  0  0
  5  1  1  0  0  0  0
  5  4  1  0  0  0  0
  8 18  1  0  0  0  0
  9  8  2  0  0  0  0
 10  9  1  0  0  0  0
 10 12  2  0  0  0  0
 11 10  1  0  0  0  0
 12 17  1  0  0  0  0
 13 12  1  0  0  0  0
 13 14  1  0  0  0  0
 14 15  1  0  0  0  0
 14 16  2  0  0  0  0
 17 18  2  0  0  0  0
 17 16  1  0  0  0  0
 19 13  1  0  0  0  0
 20 26  1  0  0  0  0
 20 25  1  0  0  0  0
 21 20  2  0  0  0  0
 22 21  1  0  0  0  0
 22 23  2  0  0  0  0
 23 24  1  0  0  0  0
 24 25  2  0  0  0  0
 24  1  1  0  0  0  0
 27 21  1  0  0  0  0
 28 22  1  0  0  0  0
M  END
>  <minimizedAffinity>
-4.51287317

>  <minimizedRMSD>
2.69619942

$$$$
