
 OpenBabel03252508333D

 35 38  0  0  1  0  0  0  0  0999 V2000
   39.6490   32.1040   39.3670 N   0  0  0  0  0  0  0  0  0  0  0  0
   38.3550   31.5960   39.0440 C   0  0  2  0  0  0  0  0  0  0  0  0
   37.3010   32.6780   39.0620 C   0  0  0  0  0  0  0  0  0  0  0  0
   37.3250   33.4260   40.2800 N   0  0  0  0  0  0  0  0  0  0  0  0
   38.6050   33.8680   40.6800 C   0  0  0  0  0  0  0  0  0  0  0  0
   39.7000   33.5140   39.6970 C   0  0  0  0  0  0  0  0  0  0  0  0
   38.4020   31.2130   37.9950 H   0  0  0  0  0  0  0  0  0  0  0  0
   37.5300   33.3700   38.2260 H   0  0  0  0  0  0  0  0  0  0  0  0
   36.3050   32.2650   38.9040 H   0  0  0  0  0  0  0  0  0  0  0  0
   36.9120   32.8300   41.0400 H   0  0  0  0  0  0  0  0  0  0  0  0
   38.9490   33.5420   41.6820 H   0  0  0  0  0  0  0  0  0  0  0  0
   38.5760   34.9900   40.7030 H   0  0  0  0  0  0  0  0  0  0  0  0
   39.4130   34.0440   38.7440 H   0  0  0  0  0  0  0  0  0  0  0  0
   40.6260   33.8750   40.1170 H   0  0  0  0  0  0  0  0  0  0  0  0
   37.2380   29.3680   39.3840 C   0  0  0  0  0  3  0  0  0  0  0  0
   37.8510   30.5030   39.8800 C   0  0  0  0  0  0  0  0  0  0  0  0
   37.9430   30.4600   41.2790 C   0  0  0  0  0  0  0  0  0  0  0  0
   38.4160   31.3200   41.7760 H   0  0  0  0  0  0  0  0  0  0  0  0
   37.4970   29.4450   42.0810 C   0  0  0  0  0  0  0  0  0  0  0  0
   37.5260   29.2860   43.4160 N   0  0  0  0  0  0  0  0  0  0  0  0
   36.9500   28.1000   43.6800 C   0  0  0  0  0  0  0  0  0  0  0  0
   36.8600   27.7540   44.7210 H   0  0  0  0  0  0  0  0  0  0  0  0
   36.5760   27.5440   42.5180 N   0  0  0  0  0  0  0  0  0  0  0  0
   36.9000   28.3520   41.5020 C   0  0  0  0  0  0  0  0  0  0  0  0
   36.7650   28.3090   40.1300 C   0  0  0  0  0  3  0  0  0  0  0  0
   37.9270   29.9710   44.1110 H   0  0  0  0  0  0  0  0  0  0  0  0
   41.5620   31.1390   40.4790 C   0  0  0  0  0  0  0  0  0  0  0  0
   40.7690   31.2280   39.3440 C   0  0  0  0  0  0  0  0  0  0  0  0
   41.1190   30.4480   38.2640 C   0  0  0  0  0  0  0  0  0  0  0  0
   42.1990   29.6410   38.3480 N   0  0  0  0  0  0  0  0  0  0  0  0
   42.9520   29.5700   39.4610 C   0  0  0  0  0  0  0  0  0  0  0  0
   42.6280   30.3160   40.5090 N   0  0  0  0  0  0  0  0  0  0  0  0
   41.4350   31.6720   41.4050 H   0  0  0  0  0  0  0  0  0  0  0  0
   40.5460   30.4860   37.3620 H   0  0  0  0  0  0  0  0  0  0  0  0
   43.7850   28.8780   39.3760 H   0  0  0  0  0  0  0  0  0  0  0  0
  1  6  1  0  0  0  0
  2  7  1  6  0  0  0
  2  3  1  0  0  0  0
  2  1  1  0  0  0  0
  2 16  1  0  0  0  0
  3  4  1  0  0  0  0
  4  5  1  0  0  0  0
  4 10  1  0  0  0  0
  5 12  1  0  0  0  0
  5 11  1  0  0  0  0
  6 14  1  0  0  0  0
  6  5  1  0  0  0  0
  8  3  1  0  0  0  0
  9  3  1  0  0  0  0
 13  6  1  0  0  0  0
 15 16  2  0  0  0  0
 15 25  1  0  0  0  0
 16 17  1  0  0  0  0
 17 18  1  0  0  0  0
 17 19  2  0  0  0  0
 19 20  1  0  0  0  0
 20 21  1  0  0  0  0
 20 26  1  0  0  0  0
 21 22  1  0  0  0  0
 23 21  2  0  0  0  0
 24 19  1  0  0  0  0
 24 23  1  0  0  0  0
 25 24  2  0  0  0  0
 27 32  1  0  0  0  0
 27 33  1  0  0  0  0
 28  1  1  0  0  0  0
 28 27  2  0  0  0  0
 29 30  2  0  0  0  0
 29 28  1  0  0  0  0
 30 31  1  0  0  0  0
 31 32  2  0  0  0  0
 34 29  1  0  0  0  0
 35 31  1  0  0  0  0
M  END
>  <minimizedAffinity>
-5.42803717

$$$$

 OpenBabel03252508333D

 35 38  0  0  1  0  0  0  0  0999 V2000
   37.3590   29.5570   39.1800 N   0  0  0  0  0  0  0  0  0  0  0  0
   36.7320   28.5560   39.9800 C   0  0  2  0  0  0  0  0  0  0  0  0
   35.5330   29.0950   40.7240 C   0  0  0  0  0  0  0  0  0  0  0  0
   35.8480   30.2850   41.4520 N   0  0  0  0  0  0  0  0  0  0  0  0
   36.5510   31.2630   40.7160 C   0  0  0  0  0  0  0  0  0  0  0  0
   36.7780   30.8810   39.2700 C   0  0  0  0  0  0  0  0  0  0  0  0
   36.3490   27.7680   39.2860 H   0  0  0  0  0  0  0  0  0  0  0  0
   34.7640   29.3480   39.9650 H   0  0  0  0  0  0  0  0  0  0  0  0
   35.1160   28.3500   41.4000 H   0  0  0  0  0  0  0  0  0  0  0  0
   36.4120   30.0140   42.2950 H   0  0  0  0  0  0  0  0  0  0  0  0
   37.5300   31.5810   41.1270 H   0  0  0  0  0  0  0  0  0  0  0  0
   35.9060   32.1810   40.6840 H   0  0  0  0  0  0  0  0  0  0  0  0
   35.7430   30.7730   38.8350 H   0  0  0  0  0  0  0  0  0  0  0  0
   37.3420   31.6830   38.8180 H   0  0  0  0  0  0  0  0  0  0  0  0
   38.2730   28.5400   41.9680 C   0  0  0  0  0  3  0  0  0  0  0  0
   37.5750   27.8840   40.9720 C   0  0  0  0  0  0  0  0  0  0  0  0
   37.7650   26.4970   41.0490 C   0  0  0  0  0  0  0  0  0  0  0  0
   37.2510   25.8780   40.2980 H   0  0  0  0  0  0  0  0  0  0  0  0
   38.5320   25.8430   41.9750 C   0  0  0  0  0  0  0  0  0  0  0  0
   38.7910   24.5350   42.1540 N   0  0  0  0  0  0  0  0  0  0  0  0
   39.6100   24.4420   43.2160 C   0  0  0  0  0  0  0  0  0  0  0  0
   39.9600   23.4540   43.5530 H   0  0  0  0  0  0  0  0  0  0  0  0
   39.8450   25.6780   43.6790 N   0  0  0  0  0  0  0  0  0  0  0  0
   39.1910   26.5750   42.9310 C   0  0  0  0  0  0  0  0  0  0  0  0
   39.0630   27.9490   42.9310 C   0  0  0  0  0  3  0  0  0  0  0  0
   38.4160   23.7450   41.5640 H   0  0  0  0  0  0  0  0  0  0  0  0
   39.6880   29.8330   38.6070 C   0  0  0  0  0  0  0  0  0  0  0  0
   38.4740   29.2060   38.3690 C   0  0  0  0  0  0  0  0  0  0  0  0
   38.4320   28.2690   37.3590 C   0  0  0  0  0  0  0  0  0  0  0  0
   39.5520   28.0020   36.6530 N   0  0  0  0  0  0  0  0  0  0  0  0
   40.7200   28.6230   36.9040 C   0  0  0  0  0  0  0  0  0  0  0  0
   40.7750   29.5280   37.8740 N   0  0  0  0  0  0  0  0  0  0  0  0
   39.8990   30.5830   39.3510 H   0  0  0  0  0  0  0  0  0  0  0  0
   37.5190   27.7640   37.1300 H   0  0  0  0  0  0  0  0  0  0  0  0
   41.5280   28.3020   36.2550 H   0  0  0  0  0  0  0  0  0  0  0  0
  1  6  1  0  0  0  0
  1  2  1  0  0  0  0
  2  7  1  6  0  0  0
  2  3  1  0  0  0  0
  2 16  1  0  0  0  0
  3  9  1  0  0  0  0
  3  4  1  0  0  0  0
  4 10  1  0  0  0  0
  5 11  1  0  0  0  0
  5  4  1  0  0  0  0
  6  5  1  0  0  0  0
  8  3  1  0  0  0  0
 12  5  1  0  0  0  0
 13  6  1  0  0  0  0
 14  6  1  0  0  0  0
 15 25  1  0  0  0  0
 16 17  1  0  0  0  0
 16 15  2  0  0  0  0
 17 19  2  0  0  0  0
 18 17  1  0  0  0  0
 19 20  1  0  0  0  0
 19 24  1  0  0  0  0
 20 21  1  0  0  0  0
 21 22  1  0  0  0  0
 21 23  2  0  0  0  0
 24 25  2  0  0  0  0
 24 23  1  0  0  0  0
 26 20  1  0  0  0  0
 27 33  1  0  0  0  0
 28 27  1  0  0  0  0
 28  1  1  0  0  0  0
 29 28  2  0  0  0  0
 30 31  2  0  0  0  0
 30 29  1  0  0  0  0
 31 32  1  0  0  0  0
 32 27  2  0  0  0  0
 34 29  1  0  0  0  0
 35 31  1  0  0  0  0
M  END
>  <minimizedAffinity>
-5.32707024

$$$$

 OpenBabel03252508333D

 35 38  0  0  1  0  0  0  0  0999 V2000
   39.8840   32.1980   39.1750 N   0  0  0  0  0  0  0  0  0  0  0  0
   38.5520   31.8710   39.5700 C   0  0  2  0  0  0  0  0  0  0  0  0
   37.7600   33.0970   39.9620 C   0  0  0  0  0  0  0  0  0  0  0  0
   38.4550   33.8940   40.9240 N   0  0  0  0  0  0  0  0  0  0  0  0
   39.8050   34.1610   40.6120 C   0  0  0  0  0  0  0  0  0  0  0  0
   40.2370   33.5990   39.2750 C   0  0  0  0  0  0  0  0  0  0  0  0
   38.0410   31.4330   38.6770 H   0  0  0  0  0  0  0  0  0  0  0  0
   37.6240   33.7050   39.0430 H   0  0  0  0  0  0  0  0  0  0  0  0
   36.7770   32.8290   40.3460 H   0  0  0  0  0  0  0  0  0  0  0  0
   38.4040   33.4050   41.8530 H   0  0  0  0  0  0  0  0  0  0  0  0
   40.5580   33.8390   41.3590 H   0  0  0  0  0  0  0  0  0  0  0  0
   39.9080   35.2750   40.5160 H   0  0  0  0  0  0  0  0  0  0  0  0
   39.5790   34.1180   38.5190 H   0  0  0  0  0  0  0  0  0  0  0  0
   41.2820   33.8400   39.1570 H   0  0  0  0  0  0  0  0  0  0  0  0
   39.3200   30.7630   41.6930 C   0  0  0  0  0  3  0  0  0  0  0  0
   38.4080   30.9090   40.6650 C   0  0  0  0  0  0  0  0  0  0  0  0
   37.3240   30.0330   40.8200 C   0  0  0  0  0  0  0  0  0  0  0  0
   36.5370   30.0690   40.0510 H   0  0  0  0  0  0  0  0  0  0  0  0
   37.1560   29.1380   41.8420 C   0  0  0  0  0  0  0  0  0  0  0  0
   36.1740   28.2560   42.1010 N   0  0  0  0  0  0  0  0  0  0  0  0
   36.5100   27.6230   43.2390 C   0  0  0  0  0  0  0  0  0  0  0  0
   35.8470   26.8470   43.6500 H   0  0  0  0  0  0  0  0  0  0  0  0
   37.6810   28.1160   43.6680 N   0  0  0  0  0  0  0  0  0  0  0  0
   38.1130   29.0600   42.8230 C   0  0  0  0  0  0  0  0  0  0  0  0
   39.2170   29.8850   42.7510 C   0  0  0  0  0  3  0  0  0  0  0  0
   35.3120   28.1010   41.5130 H   0  0  0  0  0  0  0  0  0  0  0  0
   40.2910   30.2970   37.7430 C   0  0  0  0  0  0  0  0  0  0  0  0
   40.7520   31.1660   38.7220 C   0  0  0  0  0  0  0  0  0  0  0  0
   42.0340   30.9730   39.1870 C   0  0  0  0  0  0  0  0  0  0  0  0
   42.7810   29.9670   38.6830 N   0  0  0  0  0  0  0  0  0  0  0  0
   42.3120   29.1380   37.7320 C   0  0  0  0  0  0  0  0  0  0  0  0
   41.0780   29.3110   37.2750 N   0  0  0  0  0  0  0  0  0  0  0  0
   39.3240   30.3030   37.2710 H   0  0  0  0  0  0  0  0  0  0  0  0
   42.4340   31.6100   39.9470 H   0  0  0  0  0  0  0  0  0  0  0  0
   43.0280   28.3810   37.4270 H   0  0  0  0  0  0  0  0  0  0  0  0
  1  6  1  0  0  0  0
  1  2  1  0  0  0  0
  2  7  1  6  0  0  0
  2  3  1  0  0  0  0
  2 16  1  0  0  0  0
  3  9  1  0  0  0  0
  3  4  1  0  0  0  0
  4 10  1  0  0  0  0
  5  4  1  0  0  0  0
  5 11  1  0  0  0  0
  6  5  1  0  0  0  0
  8  3  1  0  0  0  0
 12  5  1  0  0  0  0
 13  6  1  0  0  0  0
 14  6  1  0  0  0  0
 15 25  1  0  0  0  0
 16 17  1  0  0  0  0
 16 15  2  0  0  0  0
 17 19  2  0  0  0  0
 18 17  1  0  0  0  0
 19 20  1  0  0  0  0
 19 24  1  0  0  0  0
 20 21  1  0  0  0  0
 21 22  1  0  0  0  0
 21 23  2  0  0  0  0
 24 23  1  0  0  0  0
 25 24  2  0  0  0  0
 26 20  1  0  0  0  0
 27 28  1  0  0  0  0
 28  1  1  0  0  0  0
 28 29  2  0  0  0  0
 29 34  1  0  0  0  0
 30 29  1  0  0  0  0
 31 30  2  0  0  0  0
 32 31  1  0  0  0  0
 32 27  2  0  0  0  0
 33 27  1  0  0  0  0
 35 31  1  0  0  0  0
M  END
>  <minimizedAffinity>
-5.31414795

$$$$

 OpenBabel03252508333D

 35 38  0  0  1  0  0  0  0  0999 V2000
   36.6850   27.3700   40.1240 N   0  0  0  0  0  0  0  0  0  0  0  0
   36.0610   28.6040   39.7750 C   0  0  2  0  0  0  0  0  0  0  0  0
   35.3070   28.5090   38.4690 C   0  0  0  0  0  0  0  0  0  0  0  0
   36.1190   27.9710   37.4230 N   0  0  0  0  0  0  0  0  0  0  0  0
   36.8260   26.7980   37.7630 C   0  0  0  0  0  0  0  0  0  0  0  0
   36.5310   26.2990   39.1610 C   0  0  0  0  0  0  0  0  0  0  0  0
   35.3020   28.8270   40.5650 H   0  0  0  0  0  0  0  0  0  0  0  0
   34.4540   27.8170   38.6350 H   0  0  0  0  0  0  0  0  0  0  0  0
   34.9100   29.4770   38.1670 H   0  0  0  0  0  0  0  0  0  0  0  0
   36.8020   28.7120   37.1240 H   0  0  0  0  0  0  0  0  0  0  0  0
   37.9290   26.8370   37.6570 H   0  0  0  0  0  0  0  0  0  0  0  0
   36.4690   25.9850   37.0750 H   0  0  0  0  0  0  0  0  0  0  0  0
   35.4260   26.0710   39.1570 H   0  0  0  0  0  0  0  0  0  0  0  0
   37.1410   25.4230   39.3160 H   0  0  0  0  0  0  0  0  0  0  0  0
   38.2210   29.7430   39.1690 C   0  0  0  0  0  3  0  0  0  0  0  0
   36.9340   29.7770   39.6720 C   0  0  0  0  0  0  0  0  0  0  0  0
   36.5700   31.0780   40.0480 C   0  0  0  0  0  0  0  0  0  0  0  0
   35.5600   31.2160   40.4620 H   0  0  0  0  0  0  0  0  0  0  0  0
   37.3590   32.1920   39.9450 C   0  0  0  0  0  0  0  0  0  0  0  0
   37.1300   33.4780   40.2660 N   0  0  0  0  0  0  0  0  0  0  0  0
   38.2470   34.1600   39.9590 C   0  0  0  0  0  0  0  0  0  0  0  0
   38.2920   35.2460   40.1390 H   0  0  0  0  0  0  0  0  0  0  0  0
   39.1440   33.3000   39.4570 N   0  0  0  0  0  0  0  0  0  0  0  0
   38.6260   32.0660   39.4330 C   0  0  0  0  0  0  0  0  0  0  0  0
   39.0700   30.8210   39.0370 C   0  0  0  0  0  3  0  0  0  0  0  0
   36.2390   33.8620   40.6800 H   0  0  0  0  0  0  0  0  0  0  0  0
   38.6710   26.7270   41.3380 C   0  0  0  0  0  0  0  0  0  0  0  0
   37.3930   27.2690   41.3540 C   0  0  0  0  0  0  0  0  0  0  0  0
   36.8970   27.6840   42.5700 C   0  0  0  0  0  0  0  0  0  0  0  0
   37.6560   27.5520   43.6790 N   0  0  0  0  0  0  0  0  0  0  0  0
   38.8930   27.0240   43.6380 C   0  0  0  0  0  0  0  0  0  0  0  0
   39.3850   26.6190   42.4740 N   0  0  0  0  0  0  0  0  0  0  0  0
   39.2100   26.3560   40.4830 H   0  0  0  0  0  0  0  0  0  0  0  0
   35.9150   28.1000   42.6380 H   0  0  0  0  0  0  0  0  0  0  0  0
   39.3790   26.9840   44.6090 H   0  0  0  0  0  0  0  0  0  0  0  0
  1 28  1  0  0  0  0
  2  1  1  0  0  0  0
  2  7  1  1  0  0  0
  3  8  1  0  0  0  0
  3  2  1  0  0  0  0
  4  5  1  0  0  0  0
  4  3  1  0  0  0  0
  5  6  1  0  0  0  0
  6 14  1  0  0  0  0
  6  1  1  0  0  0  0
  9  3  1  0  0  0  0
 10  4  1  0  0  0  0
 11  5  1  0  0  0  0
 12  5  1  0  0  0  0
 13  6  1  0  0  0  0
 15 16  1  0  0  0  0
 16  2  1  0  0  0  0
 16 17  2  0  0  0  0
 17 18  1  0  0  0  0
 19 17  1  0  0  0  0
 19 20  1  0  0  0  0
 20 26  1  0  0  0  0
 21 22  1  0  0  0  0
 21 20  1  0  0  0  0
 23 21  2  0  0  0  0
 24 23  1  0  0  0  0
 24 19  2  0  0  0  0
 25 15  2  0  0  0  0
 25 24  1  0  0  0  0
 27 28  2  0  0  0  0
 27 32  1  0  0  0  0
 28 29  1  0  0  0  0
 29 34  1  0  0  0  0
 29 30  2  0  0  0  0
 31 30  1  0  0  0  0
 31 35  1  0  0  0  0
 32 31  2  0  0  0  0
 33 27  1  0  0  0  0
M  END
>  <minimizedAffinity>
-5.2917161

$$$$

 OpenBabel03252508333D

 35 38  0  0  1  0  0  0  0  0999 V2000
   37.0350   27.9920   41.1130 N   0  0  0  0  0  0  0  0  0  0  0  0
   38.4220   28.2420   40.8910 C   0  0  2  0  0  0  0  0  0  0  0  0
   39.2620   27.8850   42.0950 C   0  0  0  0  0  0  0  0  0  0  0  0
   38.7630   28.4920   43.2900 N   0  0  0  0  0  0  0  0  0  0  0  0
   37.3750   28.3440   43.4970 C   0  0  0  0  0  0  0  0  0  0  0  0
   36.6930   27.5100   42.4350 C   0  0  0  0  0  0  0  0  0  0  0  0
   38.7510   27.5680   40.0620 H   0  0  0  0  0  0  0  0  0  0  0  0
   39.2060   26.7840   42.2170 H   0  0  0  0  0  0  0  0  0  0  0  0
   40.3040   28.1630   41.9480 H   0  0  0  0  0  0  0  0  0  0  0  0
   39.0030   29.5150   43.2630 H   0  0  0  0  0  0  0  0  0  0  0  0
   36.7890   29.2790   43.6030 H   0  0  0  0  0  0  0  0  0  0  0  0
   37.2420   27.7750   44.4550 H   0  0  0  0  0  0  0  0  0  0  0  0
   37.1810   26.4950   42.5080 H   0  0  0  0  0  0  0  0  0  0  0  0
   35.6420   27.4880   42.6810 H   0  0  0  0  0  0  0  0  0  0  0  0
   39.9270   29.9310   39.7910 C   0  0  0  0  0  3  0  0  0  0  0  0
   38.7910   29.6070   40.5090 C   0  0  0  0  0  0  0  0  0  0  0  0
   38.0350   30.7510   40.8030 C   0  0  0  0  0  0  0  0  0  0  0  0
   37.1060   30.6030   41.3750 H   0  0  0  0  0  0  0  0  0  0  0  0
   38.3470   32.0340   40.4430 C   0  0  0  0  0  0  0  0  0  0  0  0
   37.7130   33.1990   40.6610 N   0  0  0  0  0  0  0  0  0  0  0  0
   38.4580   34.1610   40.0880 C   0  0  0  0  0  0  0  0  0  0  0  0
   38.1310   35.2110   40.1400 H   0  0  0  0  0  0  0  0  0  0  0  0
   39.5320   33.5860   39.5280 N   0  0  0  0  0  0  0  0  0  0  0  0
   39.4970   32.2640   39.7290 C   0  0  0  0  0  0  0  0  0  0  0  0
   40.3040   31.1960   39.3950 C   0  0  0  0  0  3  0  0  0  0  0  0
   36.8050   33.3200   41.1840 H   0  0  0  0  0  0  0  0  0  0  0  0
   34.9860   28.9970   40.3240 C   0  0  0  0  0  0  0  0  0  0  0  0
   36.1060   28.2220   40.0600 C   0  0  0  0  0  0  0  0  0  0  0  0
   36.2490   27.7300   38.7810 C   0  0  0  0  0  0  0  0  0  0  0  0
   35.3130   28.0160   37.8500 N   0  0  0  0  0  0  0  0  0  0  0  0
   34.2340   28.7710   38.1300 C   0  0  0  0  0  0  0  0  0  0  0  0
   34.0830   29.2510   39.3580 N   0  0  0  0  0  0  0  0  0  0  0  0
   34.7180   29.4570   41.2600 H   0  0  0  0  0  0  0  0  0  0  0  0
   37.0900   27.1210   38.5280 H   0  0  0  0  0  0  0  0  0  0  0  0
   33.5730   28.9120   37.2810 H   0  0  0  0  0  0  0  0  0  0  0  0
  1  6  1  0  0  0  0
  2  7  1  6  0  0  0
  2  1  1  0  0  0  0
  2  3  1  0  0  0  0
  3  8  1  0  0  0  0
  3  4  1  0  0  0  0
  4  5  1  0  0  0  0
  5 11  1  0  0  0  0
  5 12  1  0  0  0  0
  6 13  1  0  0  0  0
  6 14  1  0  0  0  0
  6  5  1  0  0  0  0
  9  3  1  0  0  0  0
 10  4  1  0  0  0  0
 15 16  1  0  0  0  0
 16 17  2  0  0  0  0
 16  2  1  0  0  0  0
 17 18  1  0  0  0  0
 19 20  1  0  0  0  0
 19 17  1  0  0  0  0
 20 26  1  0  0  0  0
 21 22  1  0  0  0  0
 21 20  1  0  0  0  0
 23 24  1  0  0  0  0
 23 21  2  0  0  0  0
 24 19  2  0  0  0  0
 25 24  1  0  0  0  0
 25 15  2  0  0  0  0
 27 33  1  0  0  0  0
 28 27  1  0  0  0  0
 28  1  1  0  0  0  0
 29 28  2  0  0  0  0
 30 31  2  0  0  0  0
 30 29  1  0  0  0  0
 31 32  1  0  0  0  0
 32 27  2  0  0  0  0
 34 29  1  0  0  0  0
 35 31  1  0  0  0  0
M  END
>  <minimizedAffinity>
-5.14893723

$$$$

 OpenBabel03252508333D

 35 38  0  0  1  0  0  0  0  0999 V2000
   38.8940   30.7630   40.6200 N   0  0  0  0  0  0  0  0  0  0  0  0
   39.1640   30.6860   39.2210 C   0  0  2  0  0  0  0  0  0  0  0  0
   39.5260   32.0320   38.6390 C   0  0  0  0  0  0  0  0  0  0  0  0
   38.5610   33.0340   38.9730 N   0  0  0  0  0  0  0  0  0  0  0  0
   38.2000   33.0790   40.3360 C   0  0  0  0  0  0  0  0  0  0  0  0
   38.9600   32.0910   41.1950 C   0  0  0  0  0  0  0  0  0  0  0  0
   40.0610   30.0320   39.0930 H   0  0  0  0  0  0  0  0  0  0  0  0
   40.4990   32.3280   39.0820 H   0  0  0  0  0  0  0  0  0  0  0  0
   39.6420   31.9790   37.5570 H   0  0  0  0  0  0  0  0  0  0  0  0
   37.7020   32.8680   38.3920 H   0  0  0  0  0  0  0  0  0  0  0  0
   37.1230   32.9500   40.5660 H   0  0  0  0  0  0  0  0  0  0  0  0
   38.4880   34.0930   40.7220 H   0  0  0  0  0  0  0  0  0  0  0  0
   40.0410   32.3960   41.0950 H   0  0  0  0  0  0  0  0  0  0  0  0
   38.5850   32.1980   42.2010 H   0  0  0  0  0  0  0  0  0  0  0  0
   36.7630   30.1340   38.7150 C   0  0  0  0  0  3  0  0  0  0  0  0
   38.1030   30.1330   38.3760 C   0  0  0  0  0  0  0  0  0  0  0  0
   38.3070   29.5540   37.1150 C   0  0  0  0  0  0  0  0  0  0  0  0
   39.3440   29.5030   36.7490 H   0  0  0  0  0  0  0  0  0  0  0  0
   37.3320   29.0470   36.2990 C   0  0  0  0  0  0  0  0  0  0  0  0
   37.3980   28.4740   35.0840 N   0  0  0  0  0  0  0  0  0  0  0  0
   36.1390   28.1560   34.7350 C   0  0  0  0  0  0  0  0  0  0  0  0
   35.9450   27.6690   33.7670 H   0  0  0  0  0  0  0  0  0  0  0  0
   35.3180   28.5320   35.7260 N   0  0  0  0  0  0  0  0  0  0  0  0
   36.0250   29.0900   36.7150 C   0  0  0  0  0  0  0  0  0  0  0  0
   35.7310   29.6420   37.9450 C   0  0  0  0  0  3  0  0  0  0  0  0
   38.2770   28.3110   34.5240 H   0  0  0  0  0  0  0  0  0  0  0  0
   37.5050   29.5850   42.2050 C   0  0  0  0  0  0  0  0  0  0  0  0
   38.5890   29.5750   41.3400 C   0  0  0  0  0  0  0  0  0  0  0  0
   39.2990   28.3990   41.2290 C   0  0  0  0  0  0  0  0  0  0  0  0
   38.9200   27.3220   41.9500 N   0  0  0  0  0  0  0  0  0  0  0  0
   37.8630   27.3570   42.7830 C   0  0  0  0  0  0  0  0  0  0  0  0
   37.1700   28.4820   42.9010 N   0  0  0  0  0  0  0  0  0  0  0  0
   36.8450   30.4100   42.4120 H   0  0  0  0  0  0  0  0  0  0  0  0
   40.1480   28.3410   40.5820 H   0  0  0  0  0  0  0  0  0  0  0  0
   37.6830   26.4150   43.2930 H   0  0  0  0  0  0  0  0  0  0  0  0
  1  6  1  0  0  0  0
  1 28  1  0  0  0  0
  2  7  1  6  0  0  0
  2  1  1  0  0  0  0
  3  4  1  0  0  0  0
  3  8  1  0  0  0  0
  3  2  1  0  0  0  0
  4  5  1  0  0  0  0
  5 11  1  0  0  0  0
  5 12  1  0  0  0  0
  5  6  1  0  0  0  0
  6 14  1  0  0  0  0
  9  3  1  0  0  0  0
 10  4  1  0  0  0  0
 13  6  1  0  0  0  0
 16 15  1  0  0  0  0
 16  2  1  0  0  0  0
 17 16  2  0  0  0  0
 18 17  1  0  0  0  0
 19 24  2  0  0  0  0
 19 17  1  0  0  0  0
 20 19  1  0  0  0  0
 21 20  1  0  0  0  0
 21 23  2  0  0  0  0
 22 21  1  0  0  0  0
 23 24  1  0  0  0  0
 24 25  1  0  0  0  0
 25 15  2  0  0  0  0
 26 20  1  0  0  0  0
 27 33  1  0  0  0  0
 27 32  1  0  0  0  0
 28 27  2  0  0  0  0
 29 28  1  0  0  0  0
 29 30  2  0  0  0  0
 30 31  1  0  0  0  0
 31 32  2  0  0  0  0
 31 35  1  0  0  0  0
 34 29  1  0  0  0  0
M  END
>  <minimizedAffinity>
-5.14334202

$$$$

 OpenBabel03252508333D

 35 38  0  0  1  0  0  0  0  0999 V2000
   38.2770   31.3030   38.3150 N   0  0  0  0  0  0  0  0  0  0  0  0
   37.2880   31.5560   39.3120 C   0  0  2  0  0  0  0  0  0  0  0  0
   37.6050   32.7890   40.1250 C   0  0  0  0  0  0  0  0  0  0  0  0
   38.9360   32.7560   40.6450 N   0  0  0  0  0  0  0  0  0  0  0  0
   39.9340   32.4180   39.7060 C   0  0  0  0  0  0  0  0  0  0  0  0
   39.3990   32.2190   38.3040 C   0  0  0  0  0  0  0  0  0  0  0  0
   36.3270   31.7630   38.7790 H   0  0  0  0  0  0  0  0  0  0  0  0
   37.5230   33.6600   39.4420 H   0  0  0  0  0  0  0  0  0  0  0  0
   36.8950   32.9220   40.9390 H   0  0  0  0  0  0  0  0  0  0  0  0
   38.9610   32.0680   41.4390 H   0  0  0  0  0  0  0  0  0  0  0  0
   40.5590   31.5350   39.9450 H   0  0  0  0  0  0  0  0  0  0  0  0
   40.6340   33.2940   39.6370 H   0  0  0  0  0  0  0  0  0  0  0  0
   38.9560   33.2170   38.0210 H   0  0  0  0  0  0  0  0  0  0  0  0
   40.2390   31.9420   37.6850 H   0  0  0  0  0  0  0  0  0  0  0  0
   35.8530   29.7520   40.3170 C   0  0  0  0  0  3  0  0  0  0  0  0
   37.0280   30.4770   40.2680 C   0  0  0  0  0  0  0  0  0  0  0  0
   37.9400   30.0300   41.2350 C   0  0  0  0  0  0  0  0  0  0  0  0
   38.9130   30.5430   41.2800 H   0  0  0  0  0  0  0  0  0  0  0  0
   37.7290   29.0140   42.1270 C   0  0  0  0  0  0  0  0  0  0  0  0
   38.5130   28.4970   43.0900 N   0  0  0  0  0  0  0  0  0  0  0  0
   37.8130   27.5090   43.6730 C   0  0  0  0  0  0  0  0  0  0  0  0
   38.2600   26.9360   44.5000 H   0  0  0  0  0  0  0  0  0  0  0  0
   36.6180   27.4250   43.0720 N   0  0  0  0  0  0  0  0  0  0  0  0
   36.5300   28.3460   42.1050 C   0  0  0  0  0  0  0  0  0  0  0  0
   35.5710   28.7190   41.1850 C   0  0  0  0  0  3  0  0  0  0  0  0
   39.4900   28.8170   43.3300 H   0  0  0  0  0  0  0  0  0  0  0  0
   39.0770   29.2180   37.3980 C   0  0  0  0  0  0  0  0  0  0  0  0
   38.1060   30.2090   37.4220 C   0  0  0  0  0  0  0  0  0  0  0  0
   37.0280   30.0600   36.5780 C   0  0  0  0  0  0  0  0  0  0  0  0
   36.9560   28.9760   35.7750 N   0  0  0  0  0  0  0  0  0  0  0  0
   37.9100   28.0270   35.7710 C   0  0  0  0  0  0  0  0  0  0  0  0
   38.9550   28.1570   36.5780 N   0  0  0  0  0  0  0  0  0  0  0  0
   39.9770   29.1740   37.9870 H   0  0  0  0  0  0  0  0  0  0  0  0
   36.2570   30.8000   36.5520 H   0  0  0  0  0  0  0  0  0  0  0  0
   37.7120   27.2180   35.0730 H   0  0  0  0  0  0  0  0  0  0  0  0
  1  2  1  0  0  0  0
  2  7  1  6  0  0  0
  2  3  1  0  0  0  0
  2 16  1  0  0  0  0
  3  4  1  0  0  0  0
  3  9  1  0  0  0  0
  4 10  1  0  0  0  0
  5 11  1  0  0  0  0
  5  4  1  0  0  0  0
  6  1  1  0  0  0  0
  6  5  1  0  0  0  0
  8  3  1  0  0  0  0
 12  5  1  0  0  0  0
 13  6  1  0  0  0  0
 14  6  1  0  0  0  0
 15 25  1  0  0  0  0
 16 15  2  0  0  0  0
 16 17  1  0  0  0  0
 17 18  1  0  0  0  0
 17 19  2  0  0  0  0
 19 20  1  0  0  0  0
 20 26  1  0  0  0  0
 20 21  1  0  0  0  0
 21 22  1  0  0  0  0
 23 21  2  0  0  0  0
 24 19  1  0  0  0  0
 24 23  1  0  0  0  0
 25 24  2  0  0  0  0
 27 28  1  0  0  0  0
 27 33  1  0  0  0  0
 28  1  1  0  0  0  0
 29 28  2  0  0  0  0
 30 29  1  0  0  0  0
 31 30  2  0  0  0  0
 31 32  1  0  0  0  0
 32 27  2  0  0  0  0
 34 29  1  0  0  0  0
 35 31  1  0  0  0  0
M  END
>  <minimizedAffinity>
-5.14118576

$$$$

 OpenBabel03252508333D

 35 38  0  0  1  0  0  0  0  0999 V2000
   37.3330   28.5610   39.1340 N   0  0  0  0  0  0  0  0  0  0  0  0
   36.8080   29.8290   38.7460 C   0  0  2  0  0  0  0  0  0  0  0  0
   36.6110   29.9270   37.2510 C   0  0  0  0  0  0  0  0  0  0  0  0
   37.7910   29.5600   36.5330 N   0  0  0  0  0  0  0  0  0  0  0  0
   38.3910   28.3540   36.9520 C   0  0  0  0  0  0  0  0  0  0  0  0
   37.6230   27.6470   38.0480 C   0  0  0  0  0  0  0  0  0  0  0  0
   35.7950   29.9240   39.2090 H   0  0  0  0  0  0  0  0  0  0  0  0
   35.8060   29.2130   36.9820 H   0  0  0  0  0  0  0  0  0  0  0  0
   36.2970   30.9280   36.9570 H   0  0  0  0  0  0  0  0  0  0  0  0
   38.4870   30.3430   36.6230 H   0  0  0  0  0  0  0  0  0  0  0  0
   39.4470   28.4170   37.2830 H   0  0  0  0  0  0  0  0  0  0  0  0
   38.3740   27.6530   36.0760 H   0  0  0  0  0  0  0  0  0  0  0  0
   36.6180   27.4140   37.5900 H   0  0  0  0  0  0  0  0  0  0  0  0
   38.1840   26.7610   38.3030 H   0  0  0  0  0  0  0  0  0  0  0  0
   37.0160   32.2340   39.4530 C   0  0  0  0  0  3  0  0  0  0  0  0
   37.5780   31.0100   39.1470 C   0  0  0  0  0  0  0  0  0  0  0  0
   38.9730   31.0410   39.2910 C   0  0  0  0  0  0  0  0  0  0  0  0
   39.5210   30.1120   39.0710 H   0  0  0  0  0  0  0  0  0  0  0  0
   39.7140   32.1240   39.6820 C   0  0  0  0  0  0  0  0  0  0  0  0
   41.0380   32.2800   39.8560 N   0  0  0  0  0  0  0  0  0  0  0  0
   41.2320   33.5520   40.2490 C   0  0  0  0  0  0  0  0  0  0  0  0
   42.2520   33.9120   40.4540 H   0  0  0  0  0  0  0  0  0  0  0  0
   40.0390   34.1610   40.3130 N   0  0  0  0  0  0  0  0  0  0  0  0
   39.0720   33.3030   39.9670 C   0  0  0  0  0  0  0  0  0  0  0  0
   37.6980   33.3640   39.8510 C   0  0  0  0  0  3  0  0  0  0  0  0
   41.7730   31.5370   39.7090 H   0  0  0  0  0  0  0  0  0  0  0  0
   36.4350   28.3410   41.3650 C   0  0  0  0  0  0  0  0  0  0  0  0
   37.5290   28.2780   40.5150 C   0  0  0  0  0  0  0  0  0  0  0  0
   38.7430   27.9350   41.0690 C   0  0  0  0  0  0  0  0  0  0  0  0
   38.8200   27.6760   42.3930 N   0  0  0  0  0  0  0  0  0  0  0  0
   37.7430   27.7420   43.1970 C   0  0  0  0  0  0  0  0  0  0  0  0
   36.5670   28.0720   42.6770 N   0  0  0  0  0  0  0  0  0  0  0  0
   35.4200   28.5900   41.1030 H   0  0  0  0  0  0  0  0  0  0  0  0
   39.6190   27.8810   40.4590 H   0  0  0  0  0  0  0  0  0  0  0  0
   37.9630   27.5070   44.2340 H   0  0  0  0  0  0  0  0  0  0  0  0
  1 28  1  0  0  0  0
  2  1  1  0  0  0  0
  2 16  1  0  0  0  0
  2  7  1  1  0  0  0
  3  2  1  0  0  0  0
  4 10  1  0  0  0  0
  4  5  1  0  0  0  0
  4  3  1  0  0  0  0
  5 11  1  0  0  0  0
  5  6  1  0  0  0  0
  6 14  1  0  0  0  0
  6  1  1  0  0  0  0
  8  3  1  0  0  0  0
  9  3  1  0  0  0  0
 12  5  1  0  0  0  0
 13  6  1  0  0  0  0
 15 25  1  0  0  0  0
 16 17  1  0  0  0  0
 16 15  2  0  0  0  0
 17 19  2  0  0  0  0
 18 17  1  0  0  0  0
 19 20  1  0  0  0  0
 19 24  1  0  0  0  0
 20 21  1  0  0  0  0
 21 23  2  0  0  0  0
 21 22  1  0  0  0  0
 24 23  1  0  0  0  0
 25 24  2  0  0  0  0
 26 20  1  0  0  0  0
 27 32  1  0  0  0  0
 28 29  1  0  0  0  0
 28 27  2  0  0  0  0
 29 30  2  0  0  0  0
 30 31  1  0  0  0  0
 31 35  1  0  0  0  0
 32 31  2  0  0  0  0
 33 27  1  0  0  0  0
 34 29  1  0  0  0  0
M  END
>  <minimizedAffinity>
-5.12221622

$$$$

 OpenBabel03252508333D

 35 38  0  0  1  0  0  0  0  0999 V2000
   37.7350   29.1310   40.4760 N   0  0  0  0  0  0  0  0  0  0  0  0
   37.9600   29.8880   39.2880 C   0  0  2  0  0  0  0  0  0  0  0  0
   37.8190   31.3730   39.5270 C   0  0  0  0  0  0  0  0  0  0  0  0
   36.5860   31.6940   40.1750 N   0  0  0  0  0  0  0  0  0  0  0  0
   36.2840   30.9020   41.3040 C   0  0  0  0  0  0  0  0  0  0  0  0
   37.3680   29.9030   41.6460 C   0  0  0  0  0  0  0  0  0  0  0  0
   39.0200   29.7140   38.9800 H   0  0  0  0  0  0  0  0  0  0  0  0
   38.6500   31.6760   40.1960 H   0  0  0  0  0  0  0  0  0  0  0  0
   37.9030   31.9350   38.5980 H   0  0  0  0  0  0  0  0  0  0  0  0
   35.8110   31.6020   39.4710 H   0  0  0  0  0  0  0  0  0  0  0  0
   35.3260   30.3460   41.2750 H   0  0  0  0  0  0  0  0  0  0  0  0
   36.2250   31.5930   42.1870 H   0  0  0  0  0  0  0  0  0  0  0  0
   38.2770   30.5320   41.8740 H   0  0  0  0  0  0  0  0  0  0  0  0
   37.0190   29.3430   42.5000 H   0  0  0  0  0  0  0  0  0  0  0  0
   35.7510   29.3730   38.2010 C   0  0  0  0  0  3  0  0  0  0  0  0
   37.1170   29.5660   38.1340 C   0  0  0  0  0  0  0  0  0  0  0  0
   37.5840   29.4320   36.8170 C   0  0  0  0  0  0  0  0  0  0  0  0
   38.6630   29.5670   36.6530 H   0  0  0  0  0  0  0  0  0  0  0  0
   36.8160   29.1490   35.7200 C   0  0  0  0  0  0  0  0  0  0  0  0
   37.1390   28.9980   34.4230 N   0  0  0  0  0  0  0  0  0  0  0  0
   35.9970   28.7270   33.7670 C   0  0  0  0  0  0  0  0  0  0  0  0
   36.0160   28.5620   32.6790 H   0  0  0  0  0  0  0  0  0  0  0  0
   34.9920   28.7150   34.6540 N   0  0  0  0  0  0  0  0  0  0  0  0
   35.4640   28.9730   35.8800 C   0  0  0  0  0  0  0  0  0  0  0  0
   34.9170   29.0860   37.1410 C   0  0  0  0  0  3  0  0  0  0  0  0
   38.1080   29.0790   34.0140 H   0  0  0  0  0  0  0  0  0  0  0  0
   39.1230   27.1880   40.1190 C   0  0  0  0  0  0  0  0  0  0  0  0
   37.8810   27.7170   40.4420 C   0  0  0  0  0  0  0  0  0  0  0  0
   36.8670   26.8260   40.7200 C   0  0  0  0  0  0  0  0  0  0  0  0
   37.1140   25.5000   40.6690 N   0  0  0  0  0  0  0  0  0  0  0  0
   38.3280   25.0110   40.3540 C   0  0  0  0  0  0  0  0  0  0  0  0
   39.3140   25.8560   40.0840 N   0  0  0  0  0  0  0  0  0  0  0  0
   40.0190   27.7330   39.8760 H   0  0  0  0  0  0  0  0  0  0  0  0
   35.8890   27.1820   40.9670 H   0  0  0  0  0  0  0  0  0  0  0  0
   38.3700   23.9260   40.3550 H   0  0  0  0  0  0  0  0  0  0  0  0
  1  6  1  0  0  0  0
  2  7  1  6  0  0  0
  2  3  1  0  0  0  0
  2  1  1  0  0  0  0
  3  4  1  0  0  0  0
  3  8  1  0  0  0  0
  4  5  1  0  0  0  0
  5  6  1  0  0  0  0
  5 12  1  0  0  0  0
  6 13  1  0  0  0  0
  6 14  1  0  0  0  0
  9  3  1  0  0  0  0
 10  4  1  0  0  0  0
 11  5  1  0  0  0  0
 16 15  1  0  0  0  0
 16  2  1  0  0  0  0
 17 16  2  0  0  0  0
 18 17  1  0  0  0  0
 19 24  2  0  0  0  0
 19 17  1  0  0  0  0
 20 19  1  0  0  0  0
 21 20  1  0  0  0  0
 21 23  2  0  0  0  0
 22 21  1  0  0  0  0
 23 24  1  0  0  0  0
 24 25  1  0  0  0  0
 25 15  2  0  0  0  0
 26 20  1  0  0  0  0
 27 28  1  0  0  0  0
 28  1  1  0  0  0  0
 28 29  2  0  0  0  0
 29 34  1  0  0  0  0
 30 29  1  0  0  0  0
 31 35  1  0  0  0  0
 31 30  2  0  0  0  0
 32 27  2  0  0  0  0
 32 31  1  0  0  0  0
 33 27  1  0  0  0  0
M  END
>  <minimizedAffinity>
-5.01777792

$$$$
