
 OpenBabel03252506563D

 41 46  0  0  0  0  0  0  0  0999 V2000
   47.1680   31.3450   45.1570 C   0  0  0  0  0  0  0  0  0  0  0  0
   46.8340   32.6960   45.1680 C   0  0  0  0  0  0  0  0  0  0  0  0
   46.2530   33.3080   46.2530 C   0  0  0  0  0  0  0  0  0  0  0  0
   45.9700   32.5860   47.4050 C   0  0  0  0  0  0  0  0  0  0  0  0
   45.4170   32.8510   48.6270 N   0  0  0  0  0  0  0  0  0  0  0  0
   45.4100   31.6990   49.3480 C   0  0  0  0  0  0  0  0  0  0  0  0
   45.9540   30.7450   48.5670 N   0  0  0  0  0  0  0  0  0  0  0  0
   46.3030   31.2540   47.3810 C   0  0  0  0  0  0  0  0  0  0  0  0
   46.8800   30.6150   46.3230 C   0  0  0  0  0  0  0  0  0  0  0  0
   47.6260   30.8560   44.3080 H   0  0  0  0  0  0  0  0  0  0  0  0
   45.9920   34.3590   46.2660 H   0  0  0  0  0  0  0  0  0  0  0  0
   45.0830   33.8150   48.8740 H   0  0  0  0  0  0  0  0  0  0  0  0
   45.0230   31.6360   50.3570 H   0  0  0  0  0  0  0  0  0  0  0  0
   46.4900   35.1810   42.4840 C   0  0  0  0  0  0  0  0  0  0  0  0
   47.6700   34.9930   41.7470 C   0  0  0  0  0  0  0  0  0  0  0  0
   48.5650   34.0210   42.1750 C   0  0  0  0  0  0  0  0  0  0  0  0
   48.2650   33.2860   43.2970 N   0  0  0  0  0  0  0  0  0  0  0  0
   47.1120   33.5020   43.9810 C   0  0  0  0  0  0  0  0  0  0  0  0
   46.2280   34.4350   43.5890 N   0  0  0  0  0  0  0  0  0  0  0  0
   45.7800   35.9320   42.1680 H   0  0  0  0  0  0  0  0  0  0  0  0
   47.8650   35.5910   40.8740 H   0  0  0  0  0  0  0  0  0  0  0  0
   49.4720   33.8640   41.6230 H   0  0  0  0  0  0  0  0  0  0  0  0
   47.2050   29.1750   46.3890 C   0  0  0  0  0  0  0  0  0  0  0  0
   48.4990   28.6740   46.4880 C   0  0  0  0  0  0  0  0  0  0  0  0
   48.3000   27.2860   46.5180 C   0  0  0  0  0  0  0  0  0  0  0  0
   46.9390   27.0340   46.4370 C   0  0  0  0  0  0  0  0  0  0  0  0
   46.3350   28.2080   46.3610 O   0  0  0  0  0  0  0  0  0  0  0  0
   49.3810   29.2970   46.5270 H   0  0  0  0  0  0  0  0  0  0  0  0
   49.1370   26.5990   46.5940 H   0  0  0  0  0  0  0  0  0  0  0  0
   46.9820   24.6310   47.0740 C   0  0  0  0  0  3  0  0  0  0  0  0
   46.3660   25.6920   46.4410 C   0  0  0  0  0  0  0  0  0  0  0  0
   45.1550   25.4640   45.7840 C   0  0  0  0  0  0  0  0  0  0  0  0
   44.6150   26.2570   45.2630 H   0  0  0  0  0  0  0  0  0  0  0  0
   44.6440   24.1820   45.8090 C   0  0  0  0  0  0  0  0  0  0  0  0
   43.5220   23.6040   45.2930 N   0  0  0  0  0  0  0  0  0  0  0  0
   43.4700   22.2930   45.5960 C   0  0  0  0  0  0  0  0  0  0  0  0
   42.6360   21.7020   45.2540 H   0  0  0  0  0  0  0  0  0  0  0  0
   44.5760   22.0030   46.3220 N   0  0  0  0  0  0  0  0  0  0  0  0
   45.2810   23.1300   46.4520 C   0  0  0  0  0  0  0  0  0  0  0  0
   46.4740   23.3680   47.0960 C   0  0  0  0  0  3  0  0  0  0  0  0
   42.8390   24.1770   44.7440 H   0  0  0  0  0  0  0  0  0  0  0  0
  1  2  2  0  0  0  0
  1  9  1  0  0  0  0
  2  3  1  0  0  0  0
  3 11  1  0  0  0  0
  3  4  2  0  0  0  0
  4  5  1  0  0  0  0
  5 12  1  0  0  0  0
  5  6  1  0  0  0  0
  6 13  1  0  0  0  0
  7  6  2  0  0  0  0
  8  4  1  0  0  0  0
  8  7  1  0  0  0  0
  9 23  1  0  0  0  0
  9  8  2  0  0  0  0
 10  1  1  0  0  0  0
 14 19  1  0  0  0  0
 15 16  1  0  0  0  0
 15 14  2  0  0  0  0
 16 17  2  0  0  0  0
 17 18  1  0  0  0  0
 18  2  1  0  0  0  0
 19 18  2  0  0  0  0
 20 14  1  0  0  0  0
 21 15  1  0  0  0  0
 22 16  1  0  0  0  0
 23 24  2  0  0  0  0
 24 25  1  0  0  0  0
 24 28  1  0  0  0  0
 25 29  1  0  0  0  0
 26 31  1  0  0  0  0
 26 25  2  0  0  0  0
 27 23  1  0  0  0  0
 27 26  1  0  0  0  0
 30 40  1  0  0  0  0
 31 30  2  0  0  0  0
 32 34  2  0  0  0  0
 32 31  1  0  0  0  0
 33 32  1  0  0  0  0
 34 39  1  0  0  0  0
 35 36  1  0  0  0  0
 35 34  1  0  0  0  0
 36 38  2  0  0  0  0
 37 36  1  0  0  0  0
 38 39  1  0  0  0  0
 39 40  2  0  0  0  0
 41 35  1  0  0  0  0
M  END
>  <minimizedAffinity>
-5.70089197

>  <minimizedRMSD>
0.325490147

$$$$
