
 OpenBabel03252501393D

 38 41  0  0  0  0  0  0  0  0999 V2000
   39.2310   30.1450   42.4100 Cl  0  0  0  0  0  0  0  0  0  0  0  0
   38.2860   30.6530   41.0180 C   0  0  0  0  0  0  0  0  0  0  0  0
   38.2810   31.9640   40.5650 C   0  0  0  0  0  0  0  0  0  0  0  0
   37.5260   32.3010   39.4780 C   0  0  0  0  0  0  0  0  0  0  0  0
   36.7510   31.4070   38.7860 C   0  0  0  0  0  0  0  0  0  0  0  0
   36.7380   30.0890   39.2180 C   0  0  0  0  0  0  0  0  0  0  0  0
   35.7770   28.8620   38.3980 Cl  0  0  0  0  0  0  0  0  0  0  0  0
   37.4980   29.7590   40.3090 C   0  0  0  0  0  0  0  0  0  0  0  0
   37.5350   33.3340   39.1380 H   0  0  0  0  0  0  0  0  0  0  0  0
   36.1500   31.6970   37.9130 H   0  0  0  0  0  0  0  0  0  0  0  0
   36.6540   28.2580   41.8860 C   0  0  0  0  0  3  0  0  0  0  0  0
   37.5210   28.3720   40.8110 C   0  0  0  0  0  0  0  0  0  0  0  0
   38.2390   27.2920   40.3720 C   0  0  0  0  0  0  0  0  0  0  0  0
   38.8660   27.5280   39.5350 H   0  0  0  0  0  0  0  0  0  0  0  0
   38.0760   26.0900   41.0230 C   0  0  0  0  0  0  0  0  0  0  0  0
   38.6860   24.9300   40.7410 N   0  0  0  0  0  0  0  0  0  0  0  0
   38.2000   24.0510   41.6550 C   0  0  0  0  0  0  0  0  0  0  0  0
   38.4130   23.0170   41.7960 H   0  0  0  0  0  0  0  0  0  0  0  0
   37.3050   24.6520   42.4880 N   0  0  0  0  0  0  0  0  0  0  0  0
   37.2190   25.9490   42.0950 C   0  0  0  0  0  0  0  0  0  0  0  0
   36.4960   27.0320   42.5410 C   0  0  0  0  0  3  0  0  0  0  0  0
   39.3820   24.7120   39.9970 H   0  0  0  0  0  0  0  0  0  0  0  0
   39.0750   32.8620   41.2820 O   0  0  0  0  0  0  0  0  0  0  0  0
   40.3950   33.0850   40.8530 C   0  0  0  0  0  0  0  0  0  0  0  0
   41.2090   32.1760   40.4460 O   0  0  0  0  0  0  0  0  0  0  0  0
   40.9670   34.3830   40.8320 N   0  0  0  0  0  0  0  0  0  0  0  0
   40.4170   35.2090   41.1330 H   0  0  0  0  0  0  0  0  0  0  0  0
   42.3320   34.2900   40.3470 C   0  0  0  0  0  0  0  0  0  0  0  0
   43.4380   34.2660   41.1700 C   0  0  0  0  0  0  0  0  0  0  0  0
   44.6600   34.1740   40.5230 C   0  0  0  0  0  0  0  0  0  0  0  0
   44.6850   34.1160   39.1880 N   0  0  0  0  0  0  0  0  0  0  0  0
   43.5710   34.1430   38.4250 C   0  0  0  0  0  0  0  0  0  0  0  0
   42.3560   34.2320   39.0150 N   0  0  0  0  0  0  0  0  0  0  0  0
   45.5400   34.1540   41.1600 H   0  0  0  0  0  0  0  0  0  0  0  0
   43.6810   34.0920   37.3460 H   0  0  0  0  0  0  0  0  0  0  0  0
   43.2240   34.3350   42.5510 N   0  0  0  0  0  0  0  0  0  0  0  0
   42.5260   35.0570   42.8960 H   0  0  0  0  0  0  0  0  0  0  0  0
   43.6240   33.8070   43.3380 H   0  0  0  0  0  0  0  0  0  0  0  0
  2  1  1  0  0  0  0
  3  2  1  0  0  0  0
  3 23  1  0  0  0  0
  4  3  2  0  0  0  0
  5  6  2  0  0  0  0
  5  4  1  0  0  0  0
  6  8  1  0  0  0  0
  7  6  1  0  0  0  0
  8 12  1  0  0  0  0
  8  2  2  0  0  0  0
  9  4  1  0  0  0  0
 10  5  1  0  0  0  0
 11 21  1  0  0  0  0
 12 11  2  0  0  0  0
 13 12  1  0  0  0  0
 13 15  2  0  0  0  0
 14 13  1  0  0  0  0
 15 20  1  0  0  0  0
 16 15  1  0  0  0  0
 16 17  1  0  0  0  0
 17 18  1  0  0  0  0
 17 19  2  0  0  0  0
 20 19  1  0  0  0  0
 20 21  2  0  0  0  0
 22 16  1  0  0  0  0
 24 23  1  0  0  0  0
 25 24  2  0  0  0  0
 26 24  1  0  0  0  0
 26 27  1  0  0  0  0
 28 26  1  0  0  0  0
 28 29  1  0  0  0  0
 29 36  1  0  0  0  0
 30 34  1  0  0  0  0
 30 29  2  0  0  0  0
 31 30  1  0  0  0  0
 32 33  1  0  0  0  0
 32 31  2  0  0  0  0
 33 28  2  0  0  0  0
 35 32  1  0  0  0  0
 36 37  1  0  0  0  0
 36 38  1  0  0  0  0
M  END
>  <minimizedAffinity>
-6.48867464

$$$$

 OpenBabel03252501393D

 38 41  0  0  0  0  0  0  0  0999 V2000
   39.6110   29.6760   42.2260 Cl  0  0  0  0  0  0  0  0  0  0  0  0
   38.3550   30.2820   41.1570 C   0  0  0  0  0  0  0  0  0  0  0  0
   38.2430   31.6270   40.8330 C   0  0  0  0  0  0  0  0  0  0  0  0
   37.2470   32.0410   39.9970 C   0  0  0  0  0  0  0  0  0  0  0  0
   36.3230   31.1940   39.4400 C   0  0  0  0  0  0  0  0  0  0  0  0
   36.4130   29.8450   39.7460 C   0  0  0  0  0  0  0  0  0  0  0  0
   35.2760   28.6740   39.0830 Cl  0  0  0  0  0  0  0  0  0  0  0  0
   37.4150   29.4380   40.5860 C   0  0  0  0  0  0  0  0  0  0  0  0
   37.1750   33.0990   39.7560 H   0  0  0  0  0  0  0  0  0  0  0  0
   35.5280   31.5460   38.7690 H   0  0  0  0  0  0  0  0  0  0  0  0
   36.8560   27.7630   42.1150 C   0  0  0  0  0  3  0  0  0  0  0  0
   37.5570   28.0140   40.9450 C   0  0  0  0  0  0  0  0  0  0  0  0
   38.2390   27.0120   40.3100 C   0  0  0  0  0  0  0  0  0  0  0  0
   38.7330   27.3520   39.4200 H   0  0  0  0  0  0  0  0  0  0  0  0
   38.2120   25.7500   40.8590 C   0  0  0  0  0  0  0  0  0  0  0  0
   38.8140   24.6510   40.3860 N   0  0  0  0  0  0  0  0  0  0  0  0
   38.4940   23.6710   41.2700 C   0  0  0  0  0  0  0  0  0  0  0  0
   38.7590   22.6400   41.2810 H   0  0  0  0  0  0  0  0  0  0  0  0
   37.7070   24.1530   42.2730 N   0  0  0  0  0  0  0  0  0  0  0  0
   37.5220   25.4740   42.0220 C   0  0  0  0  0  0  0  0  0  0  0  0
   36.8340   26.4780   42.6650 C   0  0  0  0  0  3  0  0  0  0  0  0
   39.4040   24.5330   39.5350 H   0  0  0  0  0  0  0  0  0  0  0  0
   39.1920   32.4760   41.4090 O   0  0  0  0  0  0  0  0  0  0  0  0
   40.2460   32.9480   40.6110 C   0  0  0  0  0  0  0  0  0  0  0  0
   40.4910   34.1850   40.3580 O   0  0  0  0  0  0  0  0  0  0  0  0
   41.1690   32.0680   39.9880 N   0  0  0  0  0  0  0  0  0  0  0  0
   41.0870   31.0420   40.1120 H   0  0  0  0  0  0  0  0  0  0  0  0
   42.1320   32.8490   39.2340 C   0  0  0  0  0  0  0  0  0  0  0  0
   41.9280   33.2770   37.9390 C   0  0  0  0  0  0  0  0  0  0  0  0
   42.9640   34.0110   37.3850 C   0  0  0  0  0  0  0  0  0  0  0  0
   44.0560   34.2490   38.1170 N   0  0  0  0  0  0  0  0  0  0  0  0
   44.2090   33.8080   39.3840 C   0  0  0  0  0  0  0  0  0  0  0  0
   43.2220   33.0860   39.9660 N   0  0  0  0  0  0  0  0  0  0  0  0
   42.8160   34.3550   36.3650 H   0  0  0  0  0  0  0  0  0  0  0  0
   45.1290   34.0460   39.9090 H   0  0  0  0  0  0  0  0  0  0  0  0
   40.7200   32.9340   37.3240 N   0  0  0  0  0  0  0  0  0  0  0  0
   40.3870   31.9320   37.4360 H   0  0  0  0  0  0  0  0  0  0  0  0
   40.0560   33.4790   36.7570 H   0  0  0  0  0  0  0  0  0  0  0  0
  2  1  1  0  0  0  0
  3  2  1  0  0  0  0
  3 23  1  0  0  0  0
  4  3  2  0  0  0  0
  5  6  2  0  0  0  0
  5  4  1  0  0  0  0
  6  8  1  0  0  0  0
  7  6  1  0  0  0  0
  8 12  1  0  0  0  0
  8  2  2  0  0  0  0
  9  4  1  0  0  0  0
 10  5  1  0  0  0  0
 11 21  1  0  0  0  0
 12 11  2  0  0  0  0
 13 15  2  0  0  0  0
 13 12  1  0  0  0  0
 14 13  1  0  0  0  0
 15 20  1  0  0  0  0
 16 15  1  0  0  0  0
 16 17  1  0  0  0  0
 17 18  1  0  0  0  0
 17 19  2  0  0  0  0
 20 19  1  0  0  0  0
 20 21  2  0  0  0  0
 22 16  1  0  0  0  0
 24 23  1  0  0  0  0
 25 24  2  0  0  0  0
 26 27  1  0  0  0  0
 26 24  1  0  0  0  0
 28 33  1  0  0  0  0
 28 26  1  0  0  0  0
 29 28  2  0  0  0  0
 30 29  1  0  0  0  0
 30 31  2  0  0  0  0
 31 32  1  0  0  0  0
 32 35  1  0  0  0  0
 32 33  2  0  0  0  0
 34 30  1  0  0  0  0
 36 37  1  0  0  0  0
 36 29  1  0  0  0  0
 38 36  1  0  0  0  0
M  END
>  <minimizedAffinity>
-6.39978123

$$$$

 OpenBabel03252501393D

 38 41  0  0  0  0  0  0  0  0999 V2000
   36.8930   27.7350   39.7790 Cl  0  0  0  0  0  0  0  0  0  0  0  0
   37.7780   27.5030   41.2790 C   0  0  0  0  0  0  0  0  0  0  0  0
   38.0300   28.5460   42.1590 C   0  0  0  0  0  0  0  0  0  0  0  0
   38.7230   28.3080   43.3100 C   0  0  0  0  0  0  0  0  0  0  0  0
   39.2010   27.0730   43.6660 C   0  0  0  0  0  0  0  0  0  0  0  0
   38.9630   26.0130   42.8040 C   0  0  0  0  0  0  0  0  0  0  0  0
   39.5340   24.3860   43.1680 Cl  0  0  0  0  0  0  0  0  0  0  0  0
   38.2660   26.2600   41.6510 C   0  0  0  0  0  0  0  0  0  0  0  0
   38.9110   29.1380   43.9870 H   0  0  0  0  0  0  0  0  0  0  0  0
   39.7570   26.9000   44.5970 H   0  0  0  0  0  0  0  0  0  0  0  0
   36.7540   24.6060   40.9970 C   0  0  0  0  0  3  0  0  0  0  0  0
   37.9850   25.1690   40.7000 C   0  0  0  0  0  0  0  0  0  0  0  0
   38.7360   24.6990   39.6570 C   0  0  0  0  0  0  0  0  0  0  0  0
   39.6620   25.2280   39.5450 H   0  0  0  0  0  0  0  0  0  0  0  0
   38.2390   23.6540   38.9100 C   0  0  0  0  0  0  0  0  0  0  0  0
   38.8240   23.0630   37.8600 N   0  0  0  0  0  0  0  0  0  0  0  0
   37.9500   22.0980   37.4730 C   0  0  0  0  0  0  0  0  0  0  0  0
   38.0120   21.3910   36.6790 H   0  0  0  0  0  0  0  0  0  0  0  0
   36.8430   22.0910   38.2670 N   0  0  0  0  0  0  0  0  0  0  0  0
   37.0160   23.0760   39.1850 C   0  0  0  0  0  0  0  0  0  0  0  0
   36.2570   23.5450   40.2330 C   0  0  0  0  0  3  0  0  0  0  0  0
   39.7420   23.2680   37.4110 H   0  0  0  0  0  0  0  0  0  0  0  0
   37.5360   29.7980   41.7820 O   0  0  0  0  0  0  0  0  0  0  0  0
   38.3950   30.6880   41.1150 C   0  0  0  0  0  0  0  0  0  0  0  0
   39.6620   30.7890   41.3130 O   0  0  0  0  0  0  0  0  0  0  0  0
   37.9210   31.5910   40.1280 N   0  0  0  0  0  0  0  0  0  0  0  0
   36.9170   31.6120   39.8700 H   0  0  0  0  0  0  0  0  0  0  0  0
   39.0350   32.3740   39.6290 C   0  0  0  0  0  0  0  0  0  0  0  0
   39.4580   33.5560   40.1990 C   0  0  0  0  0  0  0  0  0  0  0  0
   40.5400   34.1620   39.5820 C   0  0  0  0  0  0  0  0  0  0  0  0
   41.0860   33.5790   38.5090 N   0  0  0  0  0  0  0  0  0  0  0  0
   40.6340   32.4190   37.9880 C   0  0  0  0  0  0  0  0  0  0  0  0
   39.5790   31.7920   38.5590 N   0  0  0  0  0  0  0  0  0  0  0  0
   40.8840   35.0940   40.0210 H   0  0  0  0  0  0  0  0  0  0  0  0
   41.1350   32.0140   37.1140 H   0  0  0  0  0  0  0  0  0  0  0  0
   38.7670   34.0200   41.3240 N   0  0  0  0  0  0  0  0  0  0  0  0
   37.7070   33.9900   41.2860 H   0  0  0  0  0  0  0  0  0  0  0  0
   39.0910   34.4040   42.2220 H   0  0  0  0  0  0  0  0  0  0  0  0
  1  2  1  0  0  0  0
  2  8  2  0  0  0  0
  2  3  1  0  0  0  0
  3  4  2  0  0  0  0
  4  5  1  0  0  0  0
  4  9  1  0  0  0  0
  5 10  1  0  0  0  0
  6  7  1  0  0  0  0
  6  5  2  0  0  0  0
  8  6  1  0  0  0  0
 12 11  1  0  0  0  0
 12  8  1  0  0  0  0
 13 12  2  0  0  0  0
 14 13  1  0  0  0  0
 15 20  2  0  0  0  0
 15 13  1  0  0  0  0
 16 15  1  0  0  0  0
 17 16  1  0  0  0  0
 17 19  2  0  0  0  0
 18 17  1  0  0  0  0
 19 20  1  0  0  0  0
 20 21  1  0  0  0  0
 21 11  2  0  0  0  0
 22 16  1  0  0  0  0
 23  3  1  0  0  0  0
 24 25  2  0  0  0  0
 24 23  1  0  0  0  0
 26 24  1  0  0  0  0
 27 26  1  0  0  0  0
 28 26  1  0  0  0  0
 28 29  1  0  0  0  0
 29 36  1  0  0  0  0
 30 34  1  0  0  0  0
 30 29  2  0  0  0  0
 31 30  1  0  0  0  0
 32 31  2  0  0  0  0
 32 33  1  0  0  0  0
 33 28  2  0  0  0  0
 35 32  1  0  0  0  0
 36 38  1  0  0  0  0
 37 36  1  0  0  0  0
M  END
>  <minimizedAffinity>
-6.32399082

$$$$

 OpenBabel03252501393D

 38 41  0  0  0  0  0  0  0  0999 V2000
   40.7540   29.7190   41.1160 Cl  0  0  0  0  0  0  0  0  0  0  0  0
   39.0580   30.1750   41.0510 C   0  0  0  0  0  0  0  0  0  0  0  0
   38.0610   29.4020   41.6280 C   0  0  0  0  0  0  0  0  0  0  0  0
   36.7590   29.8060   41.5460 C   0  0  0  0  0  0  0  0  0  0  0  0
   36.3600   30.9560   40.9140 C   0  0  0  0  0  0  0  0  0  0  0  0
   37.3370   31.7470   40.3300 C   0  0  0  0  0  0  0  0  0  0  0  0
   36.9300   33.2430   39.4940 Cl  0  0  0  0  0  0  0  0  0  0  0  0
   38.6410   31.3350   40.4160 C   0  0  0  0  0  0  0  0  0  0  0  0
   35.9920   29.1860   42.0040 H   0  0  0  0  0  0  0  0  0  0  0  0
   35.3070   31.2650   40.8580 H   0  0  0  0  0  0  0  0  0  0  0  0
   40.2470   32.9930   40.7680 C   0  0  0  0  0  3  0  0  0  0  0  0
   39.7200   32.1380   39.8120 C   0  0  0  0  0  0  0  0  0  0  0  0
   40.2080   32.1320   38.5340 C   0  0  0  0  0  0  0  0  0  0  0  0
   39.7060   31.4230   37.9060 H   0  0  0  0  0  0  0  0  0  0  0  0
   41.2360   32.9940   38.2210 C   0  0  0  0  0  0  0  0  0  0  0  0
   41.8400   33.1310   37.0330 N   0  0  0  0  0  0  0  0  0  0  0  0
   42.7770   34.0950   37.2290 C   0  0  0  0  0  0  0  0  0  0  0  0
   43.4830   34.5160   36.5520 H   0  0  0  0  0  0  0  0  0  0  0  0
   42.7550   34.5470   38.5140 N   0  0  0  0  0  0  0  0  0  0  0  0
   41.7780   33.8540   39.1540 C   0  0  0  0  0  0  0  0  0  0  0  0
   41.2910   33.8640   40.4410 C   0  0  0  0  0  3  0  0  0  0  0  0
   41.6610   32.6300   36.1370 H   0  0  0  0  0  0  0  0  0  0  0  0
   38.4840   28.2340   42.2670 O   0  0  0  0  0  0  0  0  0  0  0  0
   38.2660   27.0000   41.6310 C   0  0  0  0  0  0  0  0  0  0  0  0
   38.9650   26.5290   40.6600 O   0  0  0  0  0  0  0  0  0  0  0  0
   37.2120   26.1330   42.0200 N   0  0  0  0  0  0  0  0  0  0  0  0
   36.5720   26.3910   42.7940 H   0  0  0  0  0  0  0  0  0  0  0  0
   37.2420   24.9480   41.1820 C   0  0  0  0  0  0  0  0  0  0  0  0
   37.9910   23.8260   41.4660 C   0  0  0  0  0  0  0  0  0  0  0  0
   37.8900   22.7940   40.5470 C   0  0  0  0  0  0  0  0  0  0  0  0
   37.1000   22.9500   39.4800 N   0  0  0  0  0  0  0  0  0  0  0  0
   36.3850   24.0710   39.2450 C   0  0  0  0  0  0  0  0  0  0  0  0
   36.4530   25.1050   40.1180 N   0  0  0  0  0  0  0  0  0  0  0  0
   38.4750   21.9040   40.7590 H   0  0  0  0  0  0  0  0  0  0  0  0
   35.7680   24.1150   38.3540 H   0  0  0  0  0  0  0  0  0  0  0  0
   38.7630   23.8370   42.6320 N   0  0  0  0  0  0  0  0  0  0  0  0
   39.3280   24.7150   42.8290 H   0  0  0  0  0  0  0  0  0  0  0  0
   38.9050   23.1370   43.3730 H   0  0  0  0  0  0  0  0  0  0  0  0
  2  1  1  0  0  0  0
  2  3  1  0  0  0  0
  3 23  1  0  0  0  0
  4  3  2  0  0  0  0
  4  9  1  0  0  0  0
  5  4  1  0  0  0  0
  6  8  1  0  0  0  0
  6  5  2  0  0  0  0
  7  6  1  0  0  0  0
  8  2  2  0  0  0  0
 10  5  1  0  0  0  0
 12  8  1  0  0  0  0
 12 11  2  0  0  0  0
 13 12  1  0  0  0  0
 14 13  1  0  0  0  0
 15 13  2  0  0  0  0
 15 20  1  0  0  0  0
 16 17  1  0  0  0  0
 16 15  1  0  0  0  0
 17 19  2  0  0  0  0
 18 17  1  0  0  0  0
 19 20  1  0  0  0  0
 20 21  2  0  0  0  0
 21 11  1  0  0  0  0
 22 16  1  0  0  0  0
 24 26  1  0  0  0  0
 24 23  1  0  0  0  0
 25 24  2  0  0  0  0
 26 27  1  0  0  0  0
 28 29  1  0  0  0  0
 28 26  1  0  0  0  0
 29 36  1  0  0  0  0
 30 34  1  0  0  0  0
 30 29  2  0  0  0  0
 31 30  1  0  0  0  0
 32 31  2  0  0  0  0
 32 33  1  0  0  0  0
 33 28  2  0  0  0  0
 35 32  1  0  0  0  0
 36 37  1  0  0  0  0
 36 38  1  0  0  0  0
M  END
>  <minimizedAffinity>
-6.29445744

$$$$

 OpenBabel03252501393D

 38 41  0  0  0  0  0  0  0  0999 V2000
   36.9480   31.9250   39.1740 Cl  0  0  0  0  0  0  0  0  0  0  0  0
   37.5010   30.7050   40.3120 C   0  0  0  0  0  0  0  0  0  0  0  0
   38.3870   30.9970   41.3390 C   0  0  0  0  0  0  0  0  0  0  0  0
   38.7830   30.0090   42.1930 C   0  0  0  0  0  0  0  0  0  0  0  0
   38.3530   28.7100   42.1010 C   0  0  0  0  0  0  0  0  0  0  0  0
   37.4670   28.3900   41.0830 C   0  0  0  0  0  0  0  0  0  0  0  0
   36.8550   26.7510   40.8780 Cl  0  0  0  0  0  0  0  0  0  0  0  0
   37.0750   29.3880   40.2310 C   0  0  0  0  0  0  0  0  0  0  0  0
   39.4770   30.2580   42.9920 H   0  0  0  0  0  0  0  0  0  0  0  0
   38.6830   27.9270   42.7980 H   0  0  0  0  0  0  0  0  0  0  0  0
   36.8480   28.8140   37.9780 C   0  0  0  0  0  3  0  0  0  0  0  0
   36.1340   29.1030   39.1310 C   0  0  0  0  0  0  0  0  0  0  0  0
   34.7650   29.0960   39.1260 C   0  0  0  0  0  0  0  0  0  0  0  0
   34.3500   29.3380   40.0850 H   0  0  0  0  0  0  0  0  0  0  0  0
   34.1160   28.7930   37.9510 C   0  0  0  0  0  0  0  0  0  0  0  0
   32.7920   28.7360   37.7520 N   0  0  0  0  0  0  0  0  0  0  0  0
   32.6510   28.4030   36.4430 C   0  0  0  0  0  0  0  0  0  0  0  0
   31.7720   28.2510   35.8620 H   0  0  0  0  0  0  0  0  0  0  0  0
   33.8650   28.2550   35.8400 N   0  0  0  0  0  0  0  0  0  0  0  0
   34.8030   28.5010   36.7900 C   0  0  0  0  0  0  0  0  0  0  0  0
   36.1800   28.5070   36.7890 C   0  0  0  0  0  3  0  0  0  0  0  0
   32.0130   28.9040   38.4240 H   0  0  0  0  0  0  0  0  0  0  0  0
   38.8150   32.3250   41.4180 O   0  0  0  0  0  0  0  0  0  0  0  0
   40.0630   32.6640   40.8710 C   0  0  0  0  0  0  0  0  0  0  0  0
   40.9090   31.8330   40.3750 O   0  0  0  0  0  0  0  0  0  0  0  0
   40.5180   34.0080   40.8160 N   0  0  0  0  0  0  0  0  0  0  0  0
   39.9310   34.7800   41.1800 H   0  0  0  0  0  0  0  0  0  0  0  0
   41.8330   34.0360   40.2030 C   0  0  0  0  0  0  0  0  0  0  0  0
   43.0100   33.8880   40.9060 C   0  0  0  0  0  0  0  0  0  0  0  0
   44.1680   33.9440   40.1480 C   0  0  0  0  0  0  0  0  0  0  0  0
   44.0710   34.1330   38.8280 N   0  0  0  0  0  0  0  0  0  0  0  0
   42.8930   34.2730   38.1850 C   0  0  0  0  0  0  0  0  0  0  0  0
   41.7360   34.2250   38.8860 N   0  0  0  0  0  0  0  0  0  0  0  0
   45.1030   33.8280   40.6890 H   0  0  0  0  0  0  0  0  0  0  0  0
   42.9040   34.4230   37.1090 H   0  0  0  0  0  0  0  0  0  0  0  0
   42.9230   33.6980   42.2890 N   0  0  0  0  0  0  0  0  0  0  0  0
   42.2550   34.3280   42.8220 H   0  0  0  0  0  0  0  0  0  0  0  0
   43.3960   33.0430   42.9270 H   0  0  0  0  0  0  0  0  0  0  0  0
  1  2  1  0  0  0  0
  2  3  1  0  0  0  0
  3 23  1  0  0  0  0
  3  4  2  0  0  0  0
  4  9  1  0  0  0  0
  5  4  1  0  0  0  0
  5 10  1  0  0  0  0
  6  5  2  0  0  0  0
  7  6  1  0  0  0  0
  8  2  2  0  0  0  0
  8  6  1  0  0  0  0
 11 12  1  0  0  0  0
 12  8  1  0  0  0  0
 13 12  2  0  0  0  0
 13 14  1  0  0  0  0
 15 13  1  0  0  0  0
 16 15  1  0  0  0  0
 16 22  1  0  0  0  0
 17 16  1  0  0  0  0
 18 17  1  0  0  0  0
 19 17  2  0  0  0  0
 19 20  1  0  0  0  0
 20 15  2  0  0  0  0
 21 20  1  0  0  0  0
 21 11  2  0  0  0  0
 24 23  1  0  0  0  0
 25 24  2  0  0  0  0
 26 24  1  0  0  0  0
 26 27  1  0  0  0  0
 28 26  1  0  0  0  0
 28 29  1  0  0  0  0
 29 36  1  0  0  0  0
 30 34  1  0  0  0  0
 30 29  2  0  0  0  0
 31 30  1  0  0  0  0
 32 31  2  0  0  0  0
 32 33  1  0  0  0  0
 33 28  2  0  0  0  0
 35 32  1  0  0  0  0
 36 37  1  0  0  0  0
 36 38  1  0  0  0  0
M  END
>  <minimizedAffinity>
-6.258636

$$$$

 OpenBabel03252501393D

 38 41  0  0  0  0  0  0  0  0999 V2000
   36.4350   27.8500   39.7850 Cl  0  0  0  0  0  0  0  0  0  0  0  0
   37.3430   27.6340   41.2740 C   0  0  0  0  0  0  0  0  0  0  0  0
   37.5650   28.6750   42.1630 C   0  0  0  0  0  0  0  0  0  0  0  0
   38.2780   28.4490   43.3050 C   0  0  0  0  0  0  0  0  0  0  0  0
   38.8050   27.2280   43.6420 C   0  0  0  0  0  0  0  0  0  0  0  0
   38.5970   26.1700   42.7700 C   0  0  0  0  0  0  0  0  0  0  0  0
   39.2300   24.5620   43.1090 Cl  0  0  0  0  0  0  0  0  0  0  0  0
   37.8800   26.4060   41.6260 C   0  0  0  0  0  0  0  0  0  0  0  0
   38.4420   29.2780   43.9900 H   0  0  0  0  0  0  0  0  0  0  0  0
   39.3760   27.0650   44.5650 H   0  0  0  0  0  0  0  0  0  0  0  0
   38.6750   25.2530   39.7570 C   0  0  0  0  0  3  0  0  0  0  0  0
   37.6290   25.3160   40.6650 C   0  0  0  0  0  0  0  0  0  0  0  0
   36.5760   24.4450   40.5800 C   0  0  0  0  0  0  0  0  0  0  0  0
   35.8440   24.6110   41.3450 H   0  0  0  0  0  0  0  0  0  0  0  0
   36.5830   23.5060   39.5730 C   0  0  0  0  0  0  0  0  0  0  0  0
   35.6480   22.5760   39.3310 N   0  0  0  0  0  0  0  0  0  0  0  0
   36.1040   21.9010   38.2440 C   0  0  0  0  0  0  0  0  0  0  0  0
   35.6760   21.0830   37.7140 H   0  0  0  0  0  0  0  0  0  0  0  0
   37.2980   22.4010   37.8200 N   0  0  0  0  0  0  0  0  0  0  0  0
   37.6120   23.4230   38.6580 C   0  0  0  0  0  0  0  0  0  0  0  0
   38.6730   24.2960   38.7380 C   0  0  0  0  0  3  0  0  0  0  0  0
   34.7590   22.3830   39.8390 H   0  0  0  0  0  0  0  0  0  0  0  0
   37.0220   29.9120   41.8050 O   0  0  0  0  0  0  0  0  0  0  0  0
   37.8790   30.9020   41.2960 C   0  0  0  0  0  0  0  0  0  0  0  0
   39.0440   31.1880   41.7600 O   0  0  0  0  0  0  0  0  0  0  0  0
   37.5200   31.7060   40.1830 N   0  0  0  0  0  0  0  0  0  0  0  0
   36.6050   31.5770   39.7120 H   0  0  0  0  0  0  0  0  0  0  0  0
   38.6010   32.6310   39.8990 C   0  0  0  0  0  0  0  0  0  0  0  0
   39.6980   32.3160   39.1250 C   0  0  0  0  0  0  0  0  0  0  0  0
   40.6270   33.3310   38.9670 C   0  0  0  0  0  0  0  0  0  0  0  0
   40.4060   34.5110   39.5550 N   0  0  0  0  0  0  0  0  0  0  0  0
   39.3140   34.7710   40.3050 C   0  0  0  0  0  0  0  0  0  0  0  0
   38.3800   33.8080   40.4870 N   0  0  0  0  0  0  0  0  0  0  0  0
   41.4960   33.0960   38.3590 H   0  0  0  0  0  0  0  0  0  0  0  0
   39.2120   35.7570   40.7480 H   0  0  0  0  0  0  0  0  0  0  0  0
   39.7640   31.0270   38.5850 N   0  0  0  0  0  0  0  0  0  0  0  0
   39.5270   30.2190   39.2330 H   0  0  0  0  0  0  0  0  0  0  0  0
   40.0080   30.6840   37.6460 H   0  0  0  0  0  0  0  0  0  0  0  0
  1  2  1  0  0  0  0
  2  8  2  0  0  0  0
  2  3  1  0  0  0  0
  3  4  2  0  0  0  0
  4  5  1  0  0  0  0
  4  9  1  0  0  0  0
  5 10  1  0  0  0  0
  6  7  1  0  0  0  0
  6  5  2  0  0  0  0
  8  6  1  0  0  0  0
 11 12  1  0  0  0  0
 12  8  1  0  0  0  0
 13 12  2  0  0  0  0
 13 14  1  0  0  0  0
 15 13  1  0  0  0  0
 16 15  1  0  0  0  0
 16 22  1  0  0  0  0
 17 16  1  0  0  0  0
 18 17  1  0  0  0  0
 19 17  2  0  0  0  0
 19 20  1  0  0  0  0
 20 21  1  0  0  0  0
 20 15  2  0  0  0  0
 21 11  2  0  0  0  0
 23  3  1  0  0  0  0
 24 25  2  0  0  0  0
 24 23  1  0  0  0  0
 26 24  1  0  0  0  0
 27 26  1  0  0  0  0
 28 26  1  0  0  0  0
 28 33  1  0  0  0  0
 29 28  2  0  0  0  0
 30 29  1  0  0  0  0
 30 31  2  0  0  0  0
 31 32  1  0  0  0  0
 32 33  2  0  0  0  0
 32 35  1  0  0  0  0
 34 30  1  0  0  0  0
 36 29  1  0  0  0  0
 36 37  1  0  0  0  0
 38 36  1  0  0  0  0
M  END
>  <minimizedAffinity>
-6.01762676

$$$$

 OpenBabel03252501393D

 38 41  0  0  0  0  0  0  0  0999 V2000
   40.7250   30.4130   38.1140 Cl  0  0  0  0  0  0  0  0  0  0  0  0
   39.4750   31.4380   38.8030 C   0  0  0  0  0  0  0  0  0  0  0  0
   38.1440   31.0510   38.8520 C   0  0  0  0  0  0  0  0  0  0  0  0
   37.2150   31.8890   39.3990 C   0  0  0  0  0  0  0  0  0  0  0  0
   37.5180   33.1220   39.9190 C   0  0  0  0  0  0  0  0  0  0  0  0
   38.8420   33.5330   39.8830 C   0  0  0  0  0  0  0  0  0  0  0  0
   39.3370   35.0970   40.5230 Cl  0  0  0  0  0  0  0  0  0  0  0  0
   39.7680   32.6860   39.3320 C   0  0  0  0  0  0  0  0  0  0  0  0
   36.1770   31.5680   39.4280 H   0  0  0  0  0  0  0  0  0  0  0  0
   36.7570   33.7830   40.3550 H   0  0  0  0  0  0  0  0  0  0  0  0
   41.4630   33.6160   38.0230 C   0  0  0  0  0  3  0  0  0  0  0  0
   41.1890   33.0730   39.2680 C   0  0  0  0  0  0  0  0  0  0  0  0
   42.1720   32.9620   40.2150 C   0  0  0  0  0  0  0  0  0  0  0  0
   41.8160   32.5250   41.1270 H   0  0  0  0  0  0  0  0  0  0  0  0
   43.4370   33.4060   39.9000 C   0  0  0  0  0  0  0  0  0  0  0  0
   44.5200   33.3810   40.6890 N   0  0  0  0  0  0  0  0  0  0  0  0
   45.5120   33.9210   39.9350 C   0  0  0  0  0  0  0  0  0  0  0  0
   46.5360   34.0940   40.1670 H   0  0  0  0  0  0  0  0  0  0  0  0
   45.0540   34.2740   38.7010 N   0  0  0  0  0  0  0  0  0  0  0  0
   43.7350   33.9500   38.6680 C   0  0  0  0  0  0  0  0  0  0  0  0
   42.7510   34.0630   37.7130 C   0  0  0  0  0  3  0  0  0  0  0  0
   44.6190   33.0350   41.6670 H   0  0  0  0  0  0  0  0  0  0  0  0
   37.8520   29.7930   38.3190 O   0  0  0  0  0  0  0  0  0  0  0  0
   37.7510   28.6980   39.1930 C   0  0  0  0  0  0  0  0  0  0  0  0
   38.7340   27.9710   39.5920 O   0  0  0  0  0  0  0  0  0  0  0  0
   36.5060   28.2810   39.7330 N   0  0  0  0  0  0  0  0  0  0  0  0
   35.6320   28.7840   39.4940 H   0  0  0  0  0  0  0  0  0  0  0  0
   36.7250   27.1310   40.5910 C   0  0  0  0  0  0  0  0  0  0  0  0
   36.8360   27.2070   41.9630 C   0  0  0  0  0  0  0  0  0  0  0  0
   37.0430   26.0010   42.6120 C   0  0  0  0  0  0  0  0  0  0  0  0
   37.1180   24.8800   41.8890 N   0  0  0  0  0  0  0  0  0  0  0  0
   37.0030   24.8570   40.5440 C   0  0  0  0  0  0  0  0  0  0  0  0
   36.8000   26.0120   39.8680 N   0  0  0  0  0  0  0  0  0  0  0  0
   37.1320   26.0470   43.6940 H   0  0  0  0  0  0  0  0  0  0  0  0
   37.0770   23.9010   40.0330 H   0  0  0  0  0  0  0  0  0  0  0  0
   36.7300   28.4710   42.5550 N   0  0  0  0  0  0  0  0  0  0  0  0
   37.2680   29.2640   42.0990 H   0  0  0  0  0  0  0  0  0  0  0  0
   36.2160   28.8040   43.3820 H   0  0  0  0  0  0  0  0  0  0  0  0
  1  2  1  0  0  0  0
  2  3  2  0  0  0  0
  2  8  1  0  0  0  0
  3  4  1  0  0  0  0
  4  9  1  0  0  0  0
  4  5  2  0  0  0  0
  5 10  1  0  0  0  0
  6  5  1  0  0  0  0
  6  7  1  0  0  0  0
  8  6  2  0  0  0  0
 11 12  1  0  0  0  0
 12  8  1  0  0  0  0
 12 13  2  0  0  0  0
 13 14  1  0  0  0  0
 15 13  1  0  0  0  0
 15 16  1  0  0  0  0
 16 22  1  0  0  0  0
 17 18  1  0  0  0  0
 17 16  1  0  0  0  0
 19 17  2  0  0  0  0
 20 19  1  0  0  0  0
 20 15  2  0  0  0  0
 21 11  2  0  0  0  0
 21 20  1  0  0  0  0
 23  3  1  0  0  0  0
 23 24  1  0  0  0  0
 24 25  2  0  0  0  0
 24 26  1  0  0  0  0
 26 28  1  0  0  0  0
 27 26  1  0  0  0  0
 28 29  1  0  0  0  0
 29 36  1  0  0  0  0
 29 30  2  0  0  0  0
 30 34  1  0  0  0  0
 31 30  1  0  0  0  0
 32 31  2  0  0  0  0
 33 32  1  0  0  0  0
 33 28  2  0  0  0  0
 35 32  1  0  0  0  0
 36 38  1  0  0  0  0
 37 36  1  0  0  0  0
M  END
>  <minimizedAffinity>
-5.99811935

$$$$

 OpenBabel03252501393D

 38 41  0  0  0  0  0  0  0  0999 V2000
   38.5850   27.9010   41.5090 Cl  0  0  0  0  0  0  0  0  0  0  0  0
   37.2140   28.3750   40.5170 C   0  0  0  0  0  0  0  0  0  0  0  0
   36.6670   29.6480   40.5690 C   0  0  0  0  0  0  0  0  0  0  0  0
   35.6010   29.9600   39.7740 C   0  0  0  0  0  0  0  0  0  0  0  0
   35.0190   29.0750   38.9040 C   0  0  0  0  0  0  0  0  0  0  0  0
   35.5460   27.7940   38.8330 C   0  0  0  0  0  0  0  0  0  0  0  0
   34.8720   26.5810   37.7480 Cl  0  0  0  0  0  0  0  0  0  0  0  0
   36.6160   27.4890   39.6330 C   0  0  0  0  0  0  0  0  0  0  0  0
   35.1870   30.9640   39.8290 H   0  0  0  0  0  0  0  0  0  0  0  0
   34.1610   29.3440   38.2730 H   0  0  0  0  0  0  0  0  0  0  0  0
   38.1610   26.0880   38.5840 C   0  0  0  0  0  3  0  0  0  0  0  0
   37.2160   26.1430   39.5960 C   0  0  0  0  0  0  0  0  0  0  0  0
   36.9630   25.0480   40.3780 C   0  0  0  0  0  0  0  0  0  0  0  0
   36.2100   25.2360   41.1180 H   0  0  0  0  0  0  0  0  0  0  0  0
   37.6720   23.8930   40.1350 C   0  0  0  0  0  0  0  0  0  0  0  0
   37.5650   22.7280   40.7900 N   0  0  0  0  0  0  0  0  0  0  0  0
   38.4620   21.9060   40.1850 C   0  0  0  0  0  0  0  0  0  0  0  0
   38.7070   20.8900   40.3850 H   0  0  0  0  0  0  0  0  0  0  0  0
   39.1130   22.5480   39.1750 N   0  0  0  0  0  0  0  0  0  0  0  0
   38.6180   23.8120   39.1340 C   0  0  0  0  0  0  0  0  0  0  0  0
   38.8760   24.9100   38.3450 C   0  0  0  0  0  3  0  0  0  0  0  0
   36.9460   22.4710   41.5880 H   0  0  0  0  0  0  0  0  0  0  0  0
   37.2720   30.5380   41.4600 O   0  0  0  0  0  0  0  0  0  0  0  0
   38.2730   31.3990   40.9770 C   0  0  0  0  0  0  0  0  0  0  0  0
   39.4940   31.4180   41.3790 O   0  0  0  0  0  0  0  0  0  0  0  0
   38.0120   32.3600   39.9660 N   0  0  0  0  0  0  0  0  0  0  0  0
   37.0660   32.4490   39.5520 H   0  0  0  0  0  0  0  0  0  0  0  0
   39.2320   33.0940   39.6860 C   0  0  0  0  0  0  0  0  0  0  0  0
   39.6290   34.2170   40.3800 C   0  0  0  0  0  0  0  0  0  0  0  0
   40.8250   34.7810   39.9670 C   0  0  0  0  0  0  0  0  0  0  0  0
   41.4940   34.2170   38.9570 N   0  0  0  0  0  0  0  0  0  0  0  0
   41.0630   33.1150   38.3070 C   0  0  0  0  0  0  0  0  0  0  0  0
   39.8990   32.5300   38.6770 N   0  0  0  0  0  0  0  0  0  0  0  0
   41.1490   35.6670   40.5060 H   0  0  0  0  0  0  0  0  0  0  0  0
   41.6680   32.7210   37.4960 H   0  0  0  0  0  0  0  0  0  0  0  0
   38.8020   34.6700   41.4140 N   0  0  0  0  0  0  0  0  0  0  0  0
   37.7590   34.7090   41.2160 H   0  0  0  0  0  0  0  0  0  0  0  0
   39.0050   34.9880   42.3710 H   0  0  0  0  0  0  0  0  0  0  0  0
  2  3  1  0  0  0  0
  2  1  1  0  0  0  0
  3 23  1  0  0  0  0
  4  9  1  0  0  0  0
  4  3  2  0  0  0  0
  5  4  1  0  0  0  0
  6  5  2  0  0  0  0
  6  8  1  0  0  0  0
  7  6  1  0  0  0  0
  8  2  2  0  0  0  0
 10  5  1  0  0  0  0
 11 12  1  0  0  0  0
 12  8  1  0  0  0  0
 12 13  2  0  0  0  0
 13 14  1  0  0  0  0
 15 13  1  0  0  0  0
 15 16  1  0  0  0  0
 16 22  1  0  0  0  0
 17 18  1  0  0  0  0
 17 16  1  0  0  0  0
 19 17  2  0  0  0  0
 20 19  1  0  0  0  0
 20 15  2  0  0  0  0
 21 11  2  0  0  0  0
 21 20  1  0  0  0  0
 24 25  2  0  0  0  0
 24 23  1  0  0  0  0
 26 24  1  0  0  0  0
 27 26  1  0  0  0  0
 28 26  1  0  0  0  0
 28 29  1  0  0  0  0
 29 36  1  0  0  0  0
 30 29  2  0  0  0  0
 30 34  1  0  0  0  0
 31 30  1  0  0  0  0
 32 33  1  0  0  0  0
 32 31  2  0  0  0  0
 33 28  2  0  0  0  0
 35 32  1  0  0  0  0
 36 38  1  0  0  0  0
 37 36  1  0  0  0  0
M  END
>  <minimizedAffinity>
-5.97249651

$$$$

 OpenBabel03252501393D

 38 41  0  0  0  0  0  0  0  0999 V2000
   38.5920   27.8080   38.3540 Cl  0  0  0  0  0  0  0  0  0  0  0  0
   37.9280   28.5210   39.8160 C   0  0  0  0  0  0  0  0  0  0  0  0
   37.8080   29.8930   39.9820 C   0  0  0  0  0  0  0  0  0  0  0  0
   37.2840   30.3910   41.1400 C   0  0  0  0  0  0  0  0  0  0  0  0
   36.8570   29.6040   42.1800 C   0  0  0  0  0  0  0  0  0  0  0  0
   36.9660   28.2290   42.0390 C   0  0  0  0  0  0  0  0  0  0  0  0
   36.4480   27.1310   43.3150 Cl  0  0  0  0  0  0  0  0  0  0  0  0
   37.4930   27.7370   40.8740 C   0  0  0  0  0  0  0  0  0  0  0  0
   37.1980   31.4690   41.2520 H   0  0  0  0  0  0  0  0  0  0  0  0
   36.4380   30.0230   43.1050 H   0  0  0  0  0  0  0  0  0  0  0  0
   38.8410   25.8590   41.2000 C   0  0  0  0  0  3  0  0  0  0  0  0
   37.6310   26.2830   40.6720 C   0  0  0  0  0  0  0  0  0  0  0  0
   36.7770   25.3940   40.0760 C   0  0  0  0  0  0  0  0  0  0  0  0
   35.8830   25.8630   39.7150 H   0  0  0  0  0  0  0  0  0  0  0  0
   37.1480   24.0700   40.0160 C   0  0  0  0  0  0  0  0  0  0  0  0
   36.4510   23.0600   39.4770 N   0  0  0  0  0  0  0  0  0  0  0  0
   37.2290   21.9630   39.6620 C   0  0  0  0  0  0  0  0  0  0  0  0
   37.0620   20.9470   39.3890 H   0  0  0  0  0  0  0  0  0  0  0  0
   38.3870   22.2840   40.3050 N   0  0  0  0  0  0  0  0  0  0  0  0
   38.3460   23.6220   40.5340 C   0  0  0  0  0  0  0  0  0  0  0  0
   39.2090   24.5110   41.1330 C   0  0  0  0  0  3  0  0  0  0  0  0
   35.5190   23.0740   39.0110 H   0  0  0  0  0  0  0  0  0  0  0  0
   38.2470   30.6790   38.9140 O   0  0  0  0  0  0  0  0  0  0  0  0
   39.3900   31.4770   39.0900 C   0  0  0  0  0  0  0  0  0  0  0  0
   40.5330   31.0580   39.5050 O   0  0  0  0  0  0  0  0  0  0  0  0
   39.3830   32.8690   38.8150 N   0  0  0  0  0  0  0  0  0  0  0  0
   38.5230   33.3350   38.4700 H   0  0  0  0  0  0  0  0  0  0  0  0
   40.6990   33.4130   39.0940 C   0  0  0  0  0  0  0  0  0  0  0  0
   41.7390   33.4080   38.1890 C   0  0  0  0  0  0  0  0  0  0  0  0
   42.9220   33.9730   38.6370 C   0  0  0  0  0  0  0  0  0  0  0  0
   42.9750   34.4690   39.8770 N   0  0  0  0  0  0  0  0  0  0  0  0
   41.9260   34.4500   40.7280 C   0  0  0  0  0  0  0  0  0  0  0  0
   40.7510   33.9080   40.3310 N   0  0  0  0  0  0  0  0  0  0  0  0
   43.7500   33.9750   37.9340 H   0  0  0  0  0  0  0  0  0  0  0  0
   42.0550   34.8750   41.7180 H   0  0  0  0  0  0  0  0  0  0  0  0
   41.5040   32.8440   36.9300 N   0  0  0  0  0  0  0  0  0  0  0  0
   40.9910   31.9150   36.9050 H   0  0  0  0  0  0  0  0  0  0  0  0
   41.7380   33.1600   35.9790 H   0  0  0  0  0  0  0  0  0  0  0  0
  1  2  1  0  0  0  0
  2  3  2  0  0  0  0
  2  8  1  0  0  0  0
  3  4  1  0  0  0  0
  4  9  1  0  0  0  0
  4  5  2  0  0  0  0
  5 10  1  0  0  0  0
  6  5  1  0  0  0  0
  6  7  1  0  0  0  0
  8  6  2  0  0  0  0
 12  8  1  0  0  0  0
 12 11  2  0  0  0  0
 13 12  1  0  0  0  0
 14 13  1  0  0  0  0
 15 13  2  0  0  0  0
 15 20  1  0  0  0  0
 16 17  1  0  0  0  0
 16 15  1  0  0  0  0
 17 19  2  0  0  0  0
 18 17  1  0  0  0  0
 19 20  1  0  0  0  0
 20 21  2  0  0  0  0
 21 11  1  0  0  0  0
 22 16  1  0  0  0  0
 23 24  1  0  0  0  0
 23  3  1  0  0  0  0
 24 25  2  0  0  0  0
 26 24  1  0  0  0  0
 26 28  1  0  0  0  0
 27 26  1  0  0  0  0
 28 33  1  0  0  0  0
 29 30  1  0  0  0  0
 29 28  2  0  0  0  0
 30 31  2  0  0  0  0
 31 32  1  0  0  0  0
 32 35  1  0  0  0  0
 33 32  2  0  0  0  0
 34 30  1  0  0  0  0
 36 29  1  0  0  0  0
 37 36  1  0  0  0  0
 38 36  1  0  0  0  0
M  END
>  <minimizedAffinity>
-5.92428303

$$$$
