
 OpenBabel03252505213D

 31 34  0  0  0  0  0  0  0  0999 V2000
   45.1350   32.1610   45.0690 F   0  0  0  0  0  0  0  0  0  0  0  0
   45.9760   31.7650   44.0870 C   0  0  0  0  0  0  0  0  0  0  0  0
   46.2340   32.6330   43.0550 C   0  0  0  0  0  0  0  0  0  0  0  0
   47.0820   32.2220   42.0710 C   0  0  0  0  0  0  0  0  0  0  0  0
   47.6640   30.9750   42.1050 C   0  0  0  0  0  0  0  0  0  0  0  0
   47.4140   30.0910   43.1360 C   0  0  0  0  0  0  0  0  0  0  0  0
   46.5390   30.5200   44.1470 C   0  0  0  0  0  0  0  0  0  0  0  0
   47.3260   32.8670   41.2250 H   0  0  0  0  0  0  0  0  0  0  0  0
   48.3460   30.6460   41.3130 H   0  0  0  0  0  0  0  0  0  0  0  0
   47.8830   29.1290   43.1340 H   0  0  0  0  0  0  0  0  0  0  0  0
   47.1920   29.2790   46.2280 C   0  0  0  0  0  3  0  0  0  0  0  0
   46.3050   29.5700   45.2030 C   0  0  0  0  0  0  0  0  0  0  0  0
   45.0980   28.8670   45.2270 C   0  0  0  0  0  0  0  0  0  0  0  0
   44.3330   29.0320   44.4550 H   0  0  0  0  0  0  0  0  0  0  0  0
   44.7520   27.9340   46.1800 C   0  0  0  0  0  0  0  0  0  0  0  0
   43.6750   27.1680   46.3830 N   0  0  0  0  0  0  0  0  0  0  0  0
   43.8930   26.4270   47.5010 C   0  0  0  0  0  0  0  0  0  0  0  0
   43.1350   25.7330   47.8440 H   0  0  0  0  0  0  0  0  0  0  0  0
   45.1080   26.7420   47.9810 N   0  0  0  0  0  0  0  0  0  0  0  0
   45.6830   27.6860   47.1820 C   0  0  0  0  0  0  0  0  0  0  0  0
   46.9060   28.3480   47.2230 C   0  0  0  0  0  3  0  0  0  0  0  0
   42.8090   27.1520   45.7690 H   0  0  0  0  0  0  0  0  0  0  0  0
   44.8060   35.8090   44.1850 C   0  0  0  0  0  0  0  0  0  0  0  0
   44.4230   36.4340   42.9840 C   0  0  0  0  0  0  0  0  0  0  0  0
   44.6740   35.7280   41.7900 C   0  0  0  0  0  0  0  0  0  0  0  0
   45.2610   34.5040   41.8650 N   0  0  0  0  0  0  0  0  0  0  0  0
   45.6080   33.9460   43.0370 C   0  0  0  0  0  0  0  0  0  0  0  0
   45.3790   34.6000   44.1800 N   0  0  0  0  0  0  0  0  0  0  0  0
   44.5980   36.3770   45.0760 H   0  0  0  0  0  0  0  0  0  0  0  0
   43.9560   37.3990   42.8790 H   0  0  0  0  0  0  0  0  0  0  0  0
   44.4380   36.0740   40.7910 H   0  0  0  0  0  0  0  0  0  0  0  0
  2  7  1  0  0  0  0
  2  1  1  0  0  0  0
  3  2  2  0  0  0  0
  4  5  2  0  0  0  0
  4  3  1  0  0  0  0
  5  6  1  0  0  0  0
  6  7  2  0  0  0  0
  7 12  1  0  0  0  0
  8  4  1  0  0  0  0
  9  5  1  0  0  0  0
 10  6  1  0  0  0  0
 11 21  1  0  0  0  0
 12 13  1  0  0  0  0
 12 11  2  0  0  0  0
 13 15  2  0  0  0  0
 14 13  1  0  0  0  0
 15 16  1  0  0  0  0
 15 20  1  0  0  0  0
 16 17  1  0  0  0  0
 17 18  1  0  0  0  0
 17 19  2  0  0  0  0
 20 21  2  0  0  0  0
 20 19  1  0  0  0  0
 22 16  1  0  0  0  0
 23 29  1  0  0  0  0
 24 23  2  0  0  0  0
 25 26  2  0  0  0  0
 25 24  1  0  0  0  0
 26 27  1  0  0  0  0
 27  3  1  0  0  0  0
 27 28  2  0  0  0  0
 28 23  1  0  0  0  0
 30 24  1  0  0  0  0
 31 25  1  0  0  0  0
M  END
>  <minimizedAffinity>
-3.26546502

>  <minimizedRMSD>
5.37158489

$$$$
