
 OpenBabel03252506093D

 33 36  0  0  0  0  0  0  0  0999 V2000
   45.2510   33.4140   40.9190 F   0  0  0  0  0  0  0  0  0  0  0  0
   46.4250   34.0400   40.8110 C   0  0  0  0  0  0  0  0  0  0  0  0
   46.9020   34.7790   41.8610 C   0  0  0  0  0  0  0  0  0  0  0  0
   48.1140   35.4480   41.8030 C   0  0  0  0  0  0  0  0  0  0  0  0
   48.9010   35.3950   40.6640 C   0  0  0  0  0  0  0  0  0  0  0  0
   48.3730   34.6360   39.6320 C   0  0  0  0  0  0  0  0  0  0  0  0
   47.1810   33.9590   39.6490 C   0  0  0  0  0  0  0  0  0  0  0  0
   48.5030   36.0430   42.6440 H   0  0  0  0  0  0  0  0  0  0  0  0
   49.8520   35.9010   40.5740 H   0  0  0  0  0  0  0  0  0  0  0  0
   48.9240   34.5390   38.6980 H   0  0  0  0  0  0  0  0  0  0  0  0
   46.7820   31.7950   38.6950 C   0  0  0  0  0  0  0  0  0  0  0  0
   46.6840   33.1830   38.5410 C   0  0  0  0  0  0  0  0  0  0  0  0
   46.1290   33.6330   37.3600 C   0  0  0  0  0  0  0  0  0  0  0  0
   46.0670   34.7110   37.2740 H   0  0  0  0  0  0  0  0  0  0  0  0
   45.6930   32.7680   36.3800 C   0  0  0  0  0  0  0  0  0  0  0  0
   45.1290   32.9970   35.1720 N   0  0  0  0  0  0  0  0  0  0  0  0
   44.8940   31.7900   34.6120 C   0  0  0  0  0  0  0  0  0  0  0  0
   44.4450   31.5990   33.6320 H   0  0  0  0  0  0  0  0  0  0  0  0
   45.3080   30.8250   35.4630 N   0  0  0  0  0  0  0  0  0  0  0  0
   45.8080   31.3870   36.5700 C   0  0  0  0  0  0  0  0  0  0  0  0
   46.3580   30.8970   37.7370 C   0  0  0  0  0  0  0  0  0  0  0  0
   44.9090   33.9230   34.7380 H   0  0  0  0  0  0  0  0  0  0  0  0
   45.5000   33.9990   45.1650 C   0  0  0  0  0  0  0  0  0  0  0  0
   44.6750   35.1240   45.3970 C   0  0  0  0  0  0  0  0  0  0  0  0
   44.6100   36.1310   44.4240 C   0  0  0  0  0  0  0  0  0  0  0  0
   45.3600   35.9540   43.2970 N   0  0  0  0  0  0  0  0  0  0  0  0
   46.1290   34.8850   43.1030 C   0  0  0  0  0  0  0  0  0  0  0  0
   46.2020   33.9120   44.0270 N   0  0  0  0  0  0  0  0  0  0  0  0
   44.0860   35.2370   46.3090 H   0  0  0  0  0  0  0  0  0  0  0  0
   43.9970   37.0110   44.5480 H   0  0  0  0  0  0  0  0  0  0  0  0
   45.5670   32.9800   46.1470 N   0  0  0  0  0  0  0  0  0  0  0  0
   46.5130   32.8980   46.6270 H   0  0  0  0  0  0  0  0  0  0  0  0
   44.7190   32.4000   46.3320 H   0  0  0  0  0  0  0  0  0  0  0  0
  2  1  1  0  0  0  0
  2  3  1  0  0  0  0
  3 27  1  0  0  0  0
  4  3  2  0  0  0  0
  4  8  1  0  0  0  0
  5  4  1  0  0  0  0
  6  7  1  0  0  0  0
  6  5  2  0  0  0  0
  7  2  2  0  0  0  0
  9  5  1  0  0  0  0
 10  6  1  0  0  0  0
 12 11  1  0  0  0  0
 12  7  1  0  0  0  0
 13 12  2  0  0  0  0
 14 13  1  0  0  0  0
 15 20  2  0  0  0  0
 15 13  1  0  0  0  0
 16 15  1  0  0  0  0
 17 16  1  0  0  0  0
 17 19  2  0  0  0  0
 18 17  1  0  0  0  0
 19 20  1  0  0  0  0
 20 21  1  0  0  0  0
 21 11  2  0  0  0  0
 22 16  1  0  0  0  0
 23 24  1  0  0  0  0
 23 31  1  0  0  0  0
 24 29  1  0  0  0  0
 25 30  1  0  0  0  0
 25 24  2  0  0  0  0
 26 25  1  0  0  0  0
 27 26  2  0  0  0  0
 27 28  1  0  0  0  0
 28 23  2  0  0  0  0
 31 33  1  0  0  0  0
 31 32  1  0  0  0  0
M  END
>  <minimizedAffinity>
-6.79526043

>  <minimizedRMSD>
0.857386589

$$$$
