
 OpenBabel03242513243D

 48 52  0  0  1  0  0  0  0  0999 V2000
   45.8520   30.3610   46.0010 C   0  0  0  0  0  0  0  0  0  0  0  0
   45.8060   29.3200   45.6420 H   0  0  0  0  0  0  0  0  0  0  0  0
   44.8520   30.8000   45.7170 H   0  0  0  0  0  0  0  0  0  0  0  0
   45.9790   30.4910   47.4810 C   0  0  2  0  0  0  0  0  0  0  0  0
   44.7390   31.0580   48.1380 C   0  0  0  0  0  0  0  0  0  0  0  0
   45.3630   31.4250   49.4800 C   0  0  0  0  0  0  0  0  0  0  0  0
   46.5760   31.9640   49.1560 O   0  0  0  0  0  0  0  0  0  0  0  0
   46.9750   31.4980   47.9220 C   0  0  1  0  0  0  0  0  0  0  0  0
   46.1100   29.4800   47.9070 H   0  0  0  0  0  0  0  0  0  0  0  0
   44.4350   31.9740   47.5880 H   0  0  0  0  0  0  0  0  0  0  0  0
   43.9320   30.3170   48.2480 H   0  0  0  0  0  0  0  0  0  0  0  0
   44.6630   32.1560   49.9300 H   0  0  0  0  0  0  0  0  0  0  0  0
   45.4460   30.5160   50.0880 H   0  0  0  0  0  0  0  0  0  0  0  0
   47.0160   32.3340   47.2220 H   0  0  0  0  0  0  0  0  0  0  0  0
   48.3450   30.9170   48.0460 C   0  0  1  0  0  0  0  0  0  0  0  0
   49.0530   31.3800   49.3050 C   0  0  0  0  0  0  0  0  0  0  0  0
   49.6890   30.1110   49.8050 C   0  0  0  0  0  0  0  0  0  0  0  0
   49.5890   29.1910   48.7590 O   0  0  0  0  0  0  0  0  0  0  0  0
   48.2850   29.4110   48.3160 C   0  0  0  0  0  0  0  0  0  0  0  0
   48.9880   31.0610   47.1820 H   0  0  0  0  0  0  0  0  0  0  0  0
   49.7980   32.1670   49.0820 H   0  0  0  0  0  0  0  0  0  0  0  0
   48.3560   31.7820   50.0670 H   0  0  0  0  0  0  0  0  0  0  0  0
   49.2180   29.7360   50.7330 H   0  0  0  0  0  0  0  0  0  0  0  0
   50.7650   30.3340   49.9850 H   0  0  0  0  0  0  0  0  0  0  0  0
   47.6600   29.1940   49.2300 H   0  0  0  0  0  0  0  0  0  0  0  0
   48.0120   28.8390   47.4360 H   0  0  0  0  0  0  0  0  0  0  0  0
   46.5150   32.0200   44.3360 C   0  0  0  0  0  0  0  0  0  0  0  0
   46.8520   31.1480   45.2510 C   0  0  0  0  0  0  0  0  0  0  0  0
   48.3350   34.7720   42.7610 C   0  0  0  0  0  0  0  0  0  0  0  0
   49.4840   34.0990   42.2300 C   0  0  0  0  0  0  0  0  0  0  0  0
   49.5660   32.7290   42.4460 C   0  0  0  0  0  0  0  0  0  0  0  0
   48.5880   32.1010   43.1290 N   0  0  0  0  0  0  0  0  0  0  0  0
   47.5120   32.7770   43.6180 C   0  0  0  0  0  0  0  0  0  0  0  0
   47.3790   34.0860   43.4420 N   0  0  0  0  0  0  0  0  0  0  0  0
   48.2860   35.8230   42.5870 H   0  0  0  0  0  0  0  0  0  0  0  0
   50.2470   34.6040   41.6950 H   0  0  0  0  0  0  0  0  0  0  0  0
   51.0490   30.8220   42.7140 C   0  0  0  0  0  0  0  0  0  0  0  0
   50.6730   31.9160   41.9660 C   0  0  0  0  0  0  0  0  0  0  0  0
   51.3800   32.1600   40.8090 C   0  0  0  0  0  0  0  0  0  0  0  0
   51.1060   33.0110   40.2030 H   0  0  0  0  0  0  0  0  0  0  0  0
   52.4220   31.3830   40.3710 C   0  0  0  0  0  0  0  0  0  0  0  0
   53.2580   31.3850   39.3230 N   0  0  0  0  0  0  0  0  0  0  0  0
   54.1080   30.3630   39.3960 C   0  0  0  0  0  0  0  0  0  0  0  0
   54.8820   30.1240   38.6940 H   0  0  0  0  0  0  0  0  0  0  0  0
   53.8180   29.6720   40.5300 N   0  0  0  0  0  0  0  0  0  0  0  0
   52.7910   30.2840   41.1330 C   0  0  0  0  0  0  0  0  0  0  0  0
   52.1020   30.0230   42.2880 C   0  0  0  0  0  0  0  0  0  0  0  0
   53.2480   32.0900   38.5480 H   0  0  0  0  0  0  0  0  0  0  0  0
  1  4  1  0  0  0  0
  2  1  1  0  0  0  0
  3  1  1  0  0  0  0
  4  9  1  1  0  0  0
  4  8  1  0  0  0  0
  4  5  1  0  0  0  0
  5 11  1  0  0  0  0
  5  6  1  0  0  0  0
  6 12  1  0  0  0  0
  6 13  1  0  0  0  0
  7  6  1  0  0  0  0
  8 14  1  6  0  0  0
  8 15  1  0  0  0  0
  8  7  1  0  0  0  0
 10  5  1  0  0  0  0
 15 20  1  6  0  0  0
 15 19  1  0  0  0  0
 15 16  1  0  0  0  0
 16 17  1  0  0  0  0
 16 22  1  0  0  0  0
 17 24  1  0  0  0  0
 17 23  1  0  0  0  0
 18 17  1  0  0  0  0
 19 18  1  0  0  0  0
 19 25  1  0  0  0  0
 21 16  1  0  0  0  0
 26 19  1  0  0  0  0
 27 28  2  0  0  0  0
 28  1  1  0  0  0  0
 29 34  1  0  0  0  0
 30 31  1  0  0  0  0
 30 29  2  0  0  0  0
 31 32  2  0  0  0  0
 32 33  1  0  0  0  0
 33 27  1  0  0  0  0
 34 33  2  0  0  0  0
 35 29  1  0  0  0  0
 36 30  1  0  0  0  0
 38 31  1  0  0  0  0
 38 37  2  0  0  0  0
 39 38  1  0  0  0  0
 40 39  1  0  0  0  0
 41 39  2  0  0  0  0
 41 46  1  0  0  0  0
 42 43  1  0  0  0  0
 42 41  1  0  0  0  0
 43 45  2  0  0  0  0
 44 43  1  0  0  0  0
 45 46  1  0  0  0  0
 46 47  2  0  0  0  0
 47 37  1  0  0  0  0
 48 42  1  0  0  0  0
M  END
>  <minimizedAffinity>
-5.41288471

>  <minimizedRMSD>
2.77005243

$$$$
