
 OpenBabel03252507283D

 46 50  0  0  1  0  0  0  0  0999 V2000
   46.2450   32.7460   47.2970 C   0  0  2  0  0  0  0  0  0  0  0  0
   47.6040   32.2480   47.4360 C   0  0  0  0  0  0  0  0  0  0  0  0
   47.8150   31.6050   48.7680 C   0  0  0  0  0  0  0  0  0  0  0  0
   46.6800   30.8170   49.3260 C   0  0  0  0  0  0  0  0  0  0  0  0
   45.3630   31.4660   49.1060 C   0  0  0  0  0  0  0  0  0  0  0  0
   45.1960   31.7620   47.6140 C   0  0  2  0  0  0  0  0  0  0  0  0
   46.1550   33.5270   48.1500 H   0  0  0  0  0  0  0  0  0  0  0  0
   48.2690   33.2020   47.4960 H   0  0  0  0  0  0  0  0  0  0  0  0
   48.0980   31.6850   46.6670 H   0  0  0  0  0  0  0  0  0  0  0  0
   48.2000   32.3420   49.5390 H   0  0  0  0  0  0  0  0  0  0  0  0
   48.6820   30.8800   48.6680 H   0  0  0  0  0  0  0  0  0  0  0  0
   46.8380   30.7940   50.4350 H   0  0  0  0  0  0  0  0  0  0  0  0
   46.7630   29.7630   49.0150 H   0  0  0  0  0  0  0  0  0  0  0  0
   44.5080   31.0010   49.5560 H   0  0  0  0  0  0  0  0  0  0  0  0
   45.4380   32.4910   49.5740 H   0  0  0  0  0  0  0  0  0  0  0  0
   44.1610   32.2820   47.6750 H   0  0  0  0  0  0  0  0  0  0  0  0
   45.7040   30.4820   45.6780 C   0  0  0  0  0  0  0  0  0  0  0  0
   45.0910   30.4930   46.9500 C   0  0  0  0  0  0  0  0  0  0  0  0
   44.5490   29.2800   47.2160 C   0  0  0  0  0  0  0  0  0  0  0  0
   44.0610   29.2260   48.1700 H   0  0  0  0  0  0  0  0  0  0  0  0
   44.5390   28.1420   46.4430 C   0  0  0  0  0  0  0  0  0  0  0  0
   44.0170   26.9240   46.6660 N   0  0  0  0  0  0  0  0  0  0  0  0
   44.3290   26.2290   45.5350 C   0  0  0  0  0  0  0  0  0  0  0  0
   44.0570   25.1880   45.3680 H   0  0  0  0  0  0  0  0  0  0  0  0
   45.0090   26.9980   44.6740 N   0  0  0  0  0  0  0  0  0  0  0  0
   45.1540   28.2150   45.2290 C   0  0  0  0  0  0  0  0  0  0  0  0
   45.7400   29.3690   44.8280 C   0  0  0  0  0  0  0  0  0  0  0  0
   43.5000   26.6270   47.5210 H   0  0  0  0  0  0  0  0  0  0  0  0
   45.9460   33.5520   46.1100 C   0  0  0  0  0  0  0  0  0  0  0  0
   44.9070   34.4670   46.1930 C   0  0  0  0  0  0  0  0  0  0  0  0
   44.6200   35.2220   45.0400 C   0  0  0  0  0  0  0  0  0  0  0  0
   45.3850   35.0050   43.9140 N   0  0  0  0  0  0  0  0  0  0  0  0
   46.3730   34.1100   43.9050 C   0  0  0  0  0  0  0  0  0  0  0  0
   46.6480   33.3970   44.9840 N   0  0  0  0  0  0  0  0  0  0  0  0
   44.2470   34.7350   46.9900 H   0  0  0  0  0  0  0  0  0  0  0  0
   43.8560   35.9520   44.9600 H   0  0  0  0  0  0  0  0  0  0  0  0
   47.1460   33.9310   42.6750 C   0  0  0  0  0  0  0  0  0  0  0  0
   47.6050   35.0280   41.9760 C   0  0  0  0  0  0  0  0  0  0  0  0
   48.3410   34.9690   40.8150 C   0  0  0  0  0  0  0  0  0  0  0  0
   48.5980   33.6630   40.3800 C   0  0  0  0  0  0  0  0  0  0  0  0
   48.1490   32.5460   41.0620 C   0  0  0  0  0  0  0  0  0  0  0  0
   47.4170   32.6730   42.2190 N   0  0  0  0  0  0  0  0  0  0  0  0
   47.3620   36.0030   42.3810 H   0  0  0  0  0  0  0  0  0  0  0  0
   48.6660   35.8490   40.3210 H   0  0  0  0  0  0  0  0  0  0  0  0
   49.1810   33.5660   39.4580 H   0  0  0  0  0  0  0  0  0  0  0  0
   48.4020   31.5930   40.6420 H   0  0  0  0  0  0  0  0  0  0  0  0
  1  2  1  0  0  0  0
  1  6  1  0  0  0  0
  1  7  1  1  0  0  0
  2  8  1  0  0  0  0
  2  3  1  0  0  0  0
  3  4  1  0  0  0  0
  3 10  1  0  0  0  0
  4 12  1  0  0  0  0
  5  4  1  0  0  0  0
  5 14  1  0  0  0  0
  5 15  1  0  0  0  0
  6 16  1  6  0  0  0
  6  5  1  0  0  0  0
  9  2  1  0  0  0  0
 11  3  1  0  0  0  0
 13  4  1  0  0  0  0
 17 18  1  0  0  0  0
 18 19  2  0  0  0  0
 18  6  1  0  0  0  0
 19 20  1  0  0  0  0
 21 22  1  0  0  0  0
 21 19  1  0  0  0  0
 22 28  1  0  0  0  0
 23 22  1  0  0  0  0
 24 23  1  0  0  0  0
 25 26  1  0  0  0  0
 25 23  2  0  0  0  0
 26 21  2  0  0  0  0
 27 26  1  0  0  0  0
 27 17  2  0  0  0  0
 29 30  1  0  0  0  0
 29  1  1  0  0  0  0
 30 35  1  0  0  0  0
 31 30  2  0  0  0  0
 32 31  1  0  0  0  0
 33 32  2  0  0  0  0
 33 34  1  0  0  0  0
 34 29  2  0  0  0  0
 36 31  1  0  0  0  0
 37 33  1  0  0  0  0
 38 43  1  0  0  0  0
 38 37  2  0  0  0  0
 39 38  1  0  0  0  0
 40 39  2  0  0  0  0
 40 41  1  0  0  0  0
 41 42  2  0  0  0  0
 42 37  1  0  0  0  0
 44 39  1  0  0  0  0
 45 40  1  0  0  0  0
 46 41  1  0  0  0  0
M  END
>  <minimizedAffinity>
-6.18559217

>  <minimizedRMSD>
3.23705769

$$$$
