
 OpenBabel03252502543D

 34 37  0  0  0  0  0  0  0  0999 V2000
   39.3150   27.7000   39.9680 Br  0  0  0  0  0  0  0  0  0  0  0  0
   38.3010   27.7670   41.6140 C   0  0  0  0  0  0  0  0  0  0  0  0
   38.5370   28.8540   42.4320 C   0  0  0  0  0  0  0  0  0  0  0  0
   37.7930   28.8680   43.6040 C   0  0  0  0  0  0  0  0  0  0  0  0
   36.8870   27.8870   43.9450 C   0  0  0  0  0  0  0  0  0  0  0  0
   36.7010   26.8350   43.0850 C   0  0  0  0  0  0  0  0  0  0  0  0
   37.4070   26.7580   41.9050 C   0  0  0  0  0  0  0  0  0  0  0  0
   37.9050   29.6790   44.3130 H   0  0  0  0  0  0  0  0  0  0  0  0
   36.3300   27.9370   44.8630 H   0  0  0  0  0  0  0  0  0  0  0  0
   35.9930   26.0490   43.3310 H   0  0  0  0  0  0  0  0  0  0  0  0
   36.4630   25.5590   39.8390 C   0  0  0  0  0  3  0  0  0  0  0  0
   37.1890   25.6270   41.0100 C   0  0  0  0  0  0  0  0  0  0  0  0
   37.8340   24.4690   41.4480 C   0  0  0  0  0  0  0  0  0  0  0  0
   38.4300   24.3970   42.3470 H   0  0  0  0  0  0  0  0  0  0  0  0
   37.7580   23.2840   40.7480 C   0  0  0  0  0  0  0  0  0  0  0  0
   38.2560   22.0330   40.9130 N   0  0  0  0  0  0  0  0  0  0  0  0
   37.8690   21.2250   39.9090 C   0  0  0  0  0  0  0  0  0  0  0  0
   38.1230   20.1690   39.7870 H   0  0  0  0  0  0  0  0  0  0  0  0
   37.1120   21.9720   39.0930 N   0  0  0  0  0  0  0  0  0  0  0  0
   37.0260   23.2250   39.5730 C   0  0  0  0  0  0  0  0  0  0  0  0
   36.3910   24.3760   39.1460 C   0  0  0  0  0  3  0  0  0  0  0  0
   38.8650   21.7250   41.7140 H   0  0  0  0  0  0  0  0  0  0  0  0
   39.4710   29.9470   42.1720 C   0  0  0  0  0  0  0  0  0  0  0  0
   40.3060   29.5590   41.5550 H   0  0  0  0  0  0  0  0  0  0  0  0
   39.8240   30.3360   43.1620 H   0  0  0  0  0  0  0  0  0  0  0  0
   37.1320   32.0870   40.1900 C   0  0  0  0  0  0  0  0  0  0  0  0
   37.8710   33.2590   40.0510 C   0  0  0  0  0  0  0  0  0  0  0  0
   39.1310   33.3070   40.6200 C   0  0  0  0  0  0  0  0  0  0  0  0
   39.5980   32.2210   41.2880 N   0  0  0  0  0  0  0  0  0  0  0  0
   38.8520   31.0780   41.4130 C   0  0  0  0  0  0  0  0  0  0  0  0
   37.6270   31.0460   40.8530 N   0  0  0  0  0  0  0  0  0  0  0  0
   36.1500   32.0770   39.7360 H   0  0  0  0  0  0  0  0  0  0  0  0
   37.5480   34.1470   39.5320 H   0  0  0  0  0  0  0  0  0  0  0  0
   39.8210   34.1410   40.5970 H   0  0  0  0  0  0  0  0  0  0  0  0
  1  2  1  0  0  0  0
  2  7  2  0  0  0  0
  2  3  1  0  0  0  0
  3  4  2  0  0  0  0
  4  5  1  0  0  0  0
  4  8  1  0  0  0  0
  5  9  1  0  0  0  0
  6 10  1  0  0  0  0
  6  5  2  0  0  0  0
  7  6  1  0  0  0  0
 11 12  1  0  0  0  0
 12 13  2  0  0  0  0
 12  7  1  0  0  0  0
 13 14  1  0  0  0  0
 15 16  1  0  0  0  0
 15 13  1  0  0  0  0
 16 22  1  0  0  0  0
 17 16  1  0  0  0  0
 18 17  1  0  0  0  0
 19 20  1  0  0  0  0
 19 17  2  0  0  0  0
 20 15  2  0  0  0  0
 21 20  1  0  0  0  0
 21 11  2  0  0  0  0
 23  3  1  0  0  0  0
 23 25  1  0  0  0  0
 24 23  1  0  0  0  0
 26 31  1  0  0  0  0
 27 26  2  0  0  0  0
 27 28  1  0  0  0  0
 28 29  2  0  0  0  0
 29 30  1  0  0  0  0
 30 23  1  0  0  0  0
 31 30  2  0  0  0  0
 32 26  1  0  0  0  0
 33 27  1  0  0  0  0
 34 28  1  0  0  0  0
M  END
>  <minimizedAffinity>
-6.35129595

$$$$

 OpenBabel03252502543D

 34 37  0  0  0  0  0  0  0  0999 V2000
   39.5890   30.5190   42.6190 Br  0  0  0  0  0  0  0  0  0  0  0  0
   38.0100   30.3150   41.5220 C   0  0  0  0  0  0  0  0  0  0  0  0
   37.1610   29.2790   41.8620 C   0  0  0  0  0  0  0  0  0  0  0  0
   36.0390   29.1630   41.0520 C   0  0  0  0  0  0  0  0  0  0  0  0
   35.7730   30.0010   39.9910 C   0  0  0  0  0  0  0  0  0  0  0  0
   36.6590   31.0100   39.7100 C   0  0  0  0  0  0  0  0  0  0  0  0
   37.7930   31.1820   40.4720 C   0  0  0  0  0  0  0  0  0  0  0  0
   35.3110   28.3820   41.2350 H   0  0  0  0  0  0  0  0  0  0  0  0
   34.8910   29.8770   39.3890 H   0  0  0  0  0  0  0  0  0  0  0  0
   36.4710   31.6840   38.8780 H   0  0  0  0  0  0  0  0  0  0  0  0
   38.8240   33.5230   40.7020 C   0  0  0  0  0  3  0  0  0  0  0  0
   38.7170   32.2640   40.1500 C   0  0  0  0  0  0  0  0  0  0  0  0
   39.6040   31.9190   39.1280 C   0  0  0  0  0  0  0  0  0  0  0  0
   39.6190   30.9660   38.6190 H   0  0  0  0  0  0  0  0  0  0  0  0
   40.5630   32.7980   38.6690 C   0  0  0  0  0  0  0  0  0  0  0  0
   41.5340   32.7570   37.7230 N   0  0  0  0  0  0  0  0  0  0  0  0
   42.2120   33.9190   37.6800 C   0  0  0  0  0  0  0  0  0  0  0  0
   43.0440   34.1640   37.0140 H   0  0  0  0  0  0  0  0  0  0  0  0
   41.6640   34.7110   38.6120 N   0  0  0  0  0  0  0  0  0  0  0  0
   40.6620   34.0610   39.2290 C   0  0  0  0  0  0  0  0  0  0  0  0
   39.7810   34.3930   40.2410 C   0  0  0  0  0  3  0  0  0  0  0  0
   41.7380   31.9330   37.1010 H   0  0  0  0  0  0  0  0  0  0  0  0
   37.3440   28.3340   42.9610 C   0  0  0  0  0  0  0  0  0  0  0  0
   36.3640   28.1680   43.4500 H   0  0  0  0  0  0  0  0  0  0  0  0
   38.0970   28.7730   43.6650 H   0  0  0  0  0  0  0  0  0  0  0  0
   39.4700   25.5420   41.6720 C   0  0  0  0  0  0  0  0  0  0  0  0
   38.5830   24.4700   41.7110 C   0  0  0  0  0  0  0  0  0  0  0  0
   37.2970   24.7040   42.1660 C   0  0  0  0  0  0  0  0  0  0  0  0
   36.9500   25.9590   42.5540 N   0  0  0  0  0  0  0  0  0  0  0  0
   37.8410   26.9980   42.5070 C   0  0  0  0  0  0  0  0  0  0  0  0
   39.0890   26.7550   42.0620 N   0  0  0  0  0  0  0  0  0  0  0  0
   40.4690   25.3310   41.3120 H   0  0  0  0  0  0  0  0  0  0  0  0
   38.8070   23.4580   41.4160 H   0  0  0  0  0  0  0  0  0  0  0  0
   36.4990   23.9780   42.2550 H   0  0  0  0  0  0  0  0  0  0  0  0
  2  3  1  0  0  0  0
  2  1  1  0  0  0  0
  3 23  1  0  0  0  0
  4  8  1  0  0  0  0
  4  3  2  0  0  0  0
  5  4  1  0  0  0  0
  6  5  2  0  0  0  0
  6  7  1  0  0  0  0
  7  2  2  0  0  0  0
  9  5  1  0  0  0  0
 10  6  1  0  0  0  0
 12  7  1  0  0  0  0
 12 11  2  0  0  0  0
 13 12  1  0  0  0  0
 14 13  1  0  0  0  0
 15 13  2  0  0  0  0
 15 20  1  0  0  0  0
 16 15  1  0  0  0  0
 17 16  1  0  0  0  0
 17 19  2  0  0  0  0
 18 17  1  0  0  0  0
 19 20  1  0  0  0  0
 20 21  2  0  0  0  0
 21 11  1  0  0  0  0
 22 16  1  0  0  0  0
 23 24  1  0  0  0  0
 23 25  1  0  0  0  0
 26 27  2  0  0  0  0
 26 31  1  0  0  0  0
 27 28  1  0  0  0  0
 28 34  1  0  0  0  0
 28 29  2  0  0  0  0
 30 29  1  0  0  0  0
 30 23  1  0  0  0  0
 31 30  2  0  0  0  0
 32 26  1  0  0  0  0
 33 27  1  0  0  0  0
M  END
>  <minimizedAffinity>
-6.08863497

$$$$

 OpenBabel03252502543D

 34 37  0  0  0  0  0  0  0  0999 V2000
   39.6470   27.3720   40.3240 Br  0  0  0  0  0  0  0  0  0  0  0  0
   38.4520   27.5630   41.8330 C   0  0  0  0  0  0  0  0  0  0  0  0
   38.5120   28.7670   42.5090 C   0  0  0  0  0  0  0  0  0  0  0  0
   37.6410   28.8680   43.5860 C   0  0  0  0  0  0  0  0  0  0  0  0
   36.7790   27.8630   43.9680 C   0  0  0  0  0  0  0  0  0  0  0  0
   36.7710   26.6940   43.2510 C   0  0  0  0  0  0  0  0  0  0  0  0
   37.6090   26.5260   42.1710 C   0  0  0  0  0  0  0  0  0  0  0  0
   37.6120   29.7720   44.1820 H   0  0  0  0  0  0  0  0  0  0  0  0
   36.1200   27.9830   44.8090 H   0  0  0  0  0  0  0  0  0  0  0  0
   36.1010   25.8870   43.5330 H   0  0  0  0  0  0  0  0  0  0  0  0
   38.3270   24.1260   41.6020 C   0  0  0  0  0  3  0  0  0  0  0  0
   37.5790   25.2720   41.4270 C   0  0  0  0  0  0  0  0  0  0  0  0
   36.6350   25.2860   40.3980 C   0  0  0  0  0  0  0  0  0  0  0  0
   35.9910   26.1210   40.1630 H   0  0  0  0  0  0  0  0  0  0  0  0
   36.4430   24.1990   39.5710 C   0  0  0  0  0  0  0  0  0  0  0  0
   35.6320   23.9190   38.5210 N   0  0  0  0  0  0  0  0  0  0  0  0
   35.8540   22.6740   38.0610 C   0  0  0  0  0  0  0  0  0  0  0  0
   35.3450   22.1870   37.2250 H   0  0  0  0  0  0  0  0  0  0  0  0
   36.8210   22.1540   38.8300 N   0  0  0  0  0  0  0  0  0  0  0  0
   37.2000   23.0530   39.7540 C   0  0  0  0  0  0  0  0  0  0  0  0
   38.1310   23.0480   40.7750 C   0  0  0  0  0  3  0  0  0  0  0  0
   34.9210   24.5790   38.1130 H   0  0  0  0  0  0  0  0  0  0  0  0
   39.3850   29.8950   42.1930 C   0  0  0  0  0  0  0  0  0  0  0  0
   40.2400   29.5240   41.5940 H   0  0  0  0  0  0  0  0  0  0  0  0
   39.7150   30.3510   43.1630 H   0  0  0  0  0  0  0  0  0  0  0  0
   37.0270   31.7410   39.9550 C   0  0  0  0  0  0  0  0  0  0  0  0
   37.5870   33.0160   39.9440 C   0  0  0  0  0  0  0  0  0  0  0  0
   38.7370   33.2280   40.6830 C   0  0  0  0  0  0  0  0  0  0  0  0
   39.2740   32.1970   41.3860 N   0  0  0  0  0  0  0  0  0  0  0  0
   38.7040   30.9510   41.3810 C   0  0  0  0  0  0  0  0  0  0  0  0
   37.5840   30.7590   40.6570 N   0  0  0  0  0  0  0  0  0  0  0  0
   36.1280   31.6030   39.3680 H   0  0  0  0  0  0  0  0  0  0  0  0
   37.2020   33.8660   39.4050 H   0  0  0  0  0  0  0  0  0  0  0  0
   39.2860   34.1570   40.7740 H   0  0  0  0  0  0  0  0  0  0  0  0
  1  2  1  0  0  0  0
  2  7  2  0  0  0  0
  2  3  1  0  0  0  0
  3  4  2  0  0  0  0
  4  5  1  0  0  0  0
  4  8  1  0  0  0  0
  5  9  1  0  0  0  0
  6 10  1  0  0  0  0
  6  5  2  0  0  0  0
  7  6  1  0  0  0  0
 12 11  1  0  0  0  0
 12  7  1  0  0  0  0
 13 12  2  0  0  0  0
 14 13  1  0  0  0  0
 15 20  2  0  0  0  0
 15 13  1  0  0  0  0
 16 15  1  0  0  0  0
 17 16  1  0  0  0  0
 17 19  2  0  0  0  0
 18 17  1  0  0  0  0
 19 20  1  0  0  0  0
 20 21  1  0  0  0  0
 21 11  2  0  0  0  0
 22 16  1  0  0  0  0
 23  3  1  0  0  0  0
 23 25  1  0  0  0  0
 24 23  1  0  0  0  0
 26 31  1  0  0  0  0
 27 26  2  0  0  0  0
 27 28  1  0  0  0  0
 28 34  1  0  0  0  0
 28 29  2  0  0  0  0
 30 29  1  0  0  0  0
 30 23  1  0  0  0  0
 31 30  2  0  0  0  0
 32 26  1  0  0  0  0
 33 27  1  0  0  0  0
M  END
>  <minimizedAffinity>
-5.98334312

$$$$

 OpenBabel03252502543D

 34 37  0  0  0  0  0  0  0  0999 V2000
   39.2550   27.7590   39.7150 Br  0  0  0  0  0  0  0  0  0  0  0  0
   38.1460   27.5700   41.2890 C   0  0  0  0  0  0  0  0  0  0  0  0
   37.6860   26.2960   41.5600 C   0  0  0  0  0  0  0  0  0  0  0  0
   36.8920   26.1990   42.6960 C   0  0  0  0  0  0  0  0  0  0  0  0
   36.5770   27.2710   43.5010 C   0  0  0  0  0  0  0  0  0  0  0  0
   37.0680   28.5090   43.1720 C   0  0  0  0  0  0  0  0  0  0  0  0
   37.8610   28.6780   42.0590 C   0  0  0  0  0  0  0  0  0  0  0  0
   36.4820   25.2420   42.9950 H   0  0  0  0  0  0  0  0  0  0  0  0
   35.9590   27.1520   44.3730 H   0  0  0  0  0  0  0  0  0  0  0  0
   36.8330   29.3700   43.7910 H   0  0  0  0  0  0  0  0  0  0  0  0
   39.6030   30.5640   41.9970 C   0  0  0  0  0  3  0  0  0  0  0  0
   38.3700   30.0050   41.7330 C   0  0  0  0  0  0  0  0  0  0  0  0
   37.4300   30.7840   41.0540 C   0  0  0  0  0  0  0  0  0  0  0  0
   36.4340   30.4590   40.7910 H   0  0  0  0  0  0  0  0  0  0  0  0
   37.7080   32.0730   40.6520 C   0  0  0  0  0  0  0  0  0  0  0  0
   37.0260   33.0470   39.9980 N   0  0  0  0  0  0  0  0  0  0  0  0
   37.7820   34.1510   39.8570 C   0  0  0  0  0  0  0  0  0  0  0  0
   37.4880   35.0850   39.3710 H   0  0  0  0  0  0  0  0  0  0  0  0
   38.9620   33.8770   40.4300 N   0  0  0  0  0  0  0  0  0  0  0  0
   38.9490   32.6260   40.9220 C   0  0  0  0  0  0  0  0  0  0  0  0
   39.8730   31.8480   41.5940 C   0  0  0  0  0  3  0  0  0  0  0  0
   36.0390   32.9600   39.6440 H   0  0  0  0  0  0  0  0  0  0  0  0
   37.9570   25.0920   40.7780 C   0  0  0  0  0  0  0  0  0  0  0  0
   38.1110   24.2450   41.4770 H   0  0  0  0  0  0  0  0  0  0  0  0
   38.8640   25.2910   40.1510 H   0  0  0  0  0  0  0  0  0  0  0  0
   35.4600   25.0040   37.9970 C   0  0  0  0  0  0  0  0  0  0  0  0
   34.7150   23.8750   38.3220 C   0  0  0  0  0  0  0  0  0  0  0  0
   35.0620   23.1700   39.4610 C   0  0  0  0  0  0  0  0  0  0  0  0
   36.1070   23.6000   40.2140 N   0  0  0  0  0  0  0  0  0  0  0  0
   36.8270   24.7160   39.8730 C   0  0  0  0  0  0  0  0  0  0  0  0
   36.4770   25.3920   38.7610 N   0  0  0  0  0  0  0  0  0  0  0  0
   35.1670   25.5370   37.1010 H   0  0  0  0  0  0  0  0  0  0  0  0
   33.8780   23.4920   37.7600 H   0  0  0  0  0  0  0  0  0  0  0  0
   34.5820   22.2780   39.8420 H   0  0  0  0  0  0  0  0  0  0  0  0
  1  2  1  0  0  0  0
  2  3  2  0  0  0  0
  2  7  1  0  0  0  0
  3  4  1  0  0  0  0
  4  8  1  0  0  0  0
  4  5  2  0  0  0  0
  5  9  1  0  0  0  0
  6  5  1  0  0  0  0
  6 10  1  0  0  0  0
  7  6  2  0  0  0  0
 12 11  1  0  0  0  0
 12  7  1  0  0  0  0
 13 12  2  0  0  0  0
 14 13  1  0  0  0  0
 15 20  2  0  0  0  0
 15 13  1  0  0  0  0
 16 15  1  0  0  0  0
 17 16  1  0  0  0  0
 17 19  2  0  0  0  0
 18 17  1  0  0  0  0
 19 20  1  0  0  0  0
 20 21  1  0  0  0  0
 21 11  2  0  0  0  0
 22 16  1  0  0  0  0
 23 24  1  0  0  0  0
 23  3  1  0  0  0  0
 25 23  1  0  0  0  0
 26 27  2  0  0  0  0
 26 31  1  0  0  0  0
 27 28  1  0  0  0  0
 28 34  1  0  0  0  0
 28 29  2  0  0  0  0
 30 29  1  0  0  0  0
 30 23  1  0  0  0  0
 31 30  2  0  0  0  0
 32 26  1  0  0  0  0
 33 27  1  0  0  0  0
M  END
>  <minimizedAffinity>
-5.93544626

$$$$

 OpenBabel03252502543D

 34 37  0  0  0  0  0  0  0  0999 V2000
   39.4120   28.3930   39.3870 Br  0  0  0  0  0  0  0  0  0  0  0  0
   38.8010   28.1270   41.2030 C   0  0  0  0  0  0  0  0  0  0  0  0
   38.9800   26.8610   41.7270 C   0  0  0  0  0  0  0  0  0  0  0  0
   38.5290   26.7070   43.0310 C   0  0  0  0  0  0  0  0  0  0  0  0
   37.9470   27.7190   43.7630 C   0  0  0  0  0  0  0  0  0  0  0  0
   37.8010   28.9520   43.1800 C   0  0  0  0  0  0  0  0  0  0  0  0
   38.2250   29.1750   41.8890 C   0  0  0  0  0  0  0  0  0  0  0  0
   38.6240   25.7510   43.5320 H   0  0  0  0  0  0  0  0  0  0  0  0
   37.6120   27.5570   44.7710 H   0  0  0  0  0  0  0  0  0  0  0  0
   37.3450   29.7660   43.7360 H   0  0  0  0  0  0  0  0  0  0  0  0
   37.0000   31.0090   40.5730 C   0  0  0  0  0  3  0  0  0  0  0  0
   38.0570   30.4960   41.2950 C   0  0  0  0  0  0  0  0  0  0  0  0
   39.1580   31.3260   41.5230 C   0  0  0  0  0  0  0  0  0  0  0  0
   40.0430   31.0400   42.0720 H   0  0  0  0  0  0  0  0  0  0  0  0
   39.2050   32.6190   41.0470 C   0  0  0  0  0  0  0  0  0  0  0  0
   40.1030   33.6350   41.1020 N   0  0  0  0  0  0  0  0  0  0  0  0
   39.6420   34.7200   40.4550 C   0  0  0  0  0  0  0  0  0  0  0  0
   40.1550   35.6780   40.3410 H   0  0  0  0  0  0  0  0  0  0  0  0
   38.4320   34.3920   39.9810 N   0  0  0  0  0  0  0  0  0  0  0  0
   38.1380   33.1250   40.3230 C   0  0  0  0  0  0  0  0  0  0  0  0
   37.0530   32.2980   40.1030 C   0  0  0  0  0  3  0  0  0  0  0  0
   41.0380   33.5900   41.5840 H   0  0  0  0  0  0  0  0  0  0  0  0
   39.5820   25.7180   41.0440 C   0  0  0  0  0  0  0  0  0  0  0  0
   40.1970   25.1550   41.7740 H   0  0  0  0  0  0  0  0  0  0  0  0
   40.1950   26.1140   40.1930 H   0  0  0  0  0  0  0  0  0  0  0  0
   36.7030   24.2070   39.1990 C   0  0  0  0  0  0  0  0  0  0  0  0
   36.7900   22.8720   39.5830 C   0  0  0  0  0  0  0  0  0  0  0  0
   37.8070   22.5080   40.4470 C   0  0  0  0  0  0  0  0  0  0  0  0
   38.6750   23.4560   40.8870 N   0  0  0  0  0  0  0  0  0  0  0  0
   38.5680   24.7650   40.4950 C   0  0  0  0  0  0  0  0  0  0  0  0
   37.5730   25.1040   39.6520 N   0  0  0  0  0  0  0  0  0  0  0  0
   35.8990   24.4640   38.5210 H   0  0  0  0  0  0  0  0  0  0  0  0
   36.1290   22.0820   39.2640 H   0  0  0  0  0  0  0  0  0  0  0  0
   38.0040   21.5160   40.8340 H   0  0  0  0  0  0  0  0  0  0  0  0
  1  2  1  0  0  0  0
  2  3  2  0  0  0  0
  2  7  1  0  0  0  0
  3  4  1  0  0  0  0
  4  8  1  0  0  0  0
  4  5  2  0  0  0  0
  5  9  1  0  0  0  0
  6 10  1  0  0  0  0
  6  5  1  0  0  0  0
  7  6  2  0  0  0  0
 11 12  1  0  0  0  0
 12 13  2  0  0  0  0
 12  7  1  0  0  0  0
 13 14  1  0  0  0  0
 15 16  1  0  0  0  0
 15 13  1  0  0  0  0
 16 22  1  0  0  0  0
 17 16  1  0  0  0  0
 18 17  1  0  0  0  0
 19 20  1  0  0  0  0
 19 17  2  0  0  0  0
 20 15  2  0  0  0  0
 21 20  1  0  0  0  0
 21 11  2  0  0  0  0
 23  3  1  0  0  0  0
 23 24  1  0  0  0  0
 25 23  1  0  0  0  0
 26 27  2  0  0  0  0
 26 31  1  0  0  0  0
 27 28  1  0  0  0  0
 28 34  1  0  0  0  0
 28 29  2  0  0  0  0
 30 29  1  0  0  0  0
 30 23  1  0  0  0  0
 31 30  2  0  0  0  0
 32 26  1  0  0  0  0
 33 27  1  0  0  0  0
M  END
>  <minimizedAffinity>
-5.87763166

$$$$

 OpenBabel03252502543D

 34 37  0  0  0  0  0  0  0  0999 V2000
   40.0330   30.6280   38.5200 Br  0  0  0  0  0  0  0  0  0  0  0  0
   39.4270   32.3280   39.2180 C   0  0  0  0  0  0  0  0  0  0  0  0
   38.0590   32.5030   39.2930 C   0  0  0  0  0  0  0  0  0  0  0  0
   37.6620   33.7350   39.7970 C   0  0  0  0  0  0  0  0  0  0  0  0
   38.5420   34.7160   40.1960 C   0  0  0  0  0  0  0  0  0  0  0  0
   39.8890   34.4740   40.0940 C   0  0  0  0  0  0  0  0  0  0  0  0
   40.3530   33.2750   39.6020 C   0  0  0  0  0  0  0  0  0  0  0  0
   36.6100   33.9700   39.8960 H   0  0  0  0  0  0  0  0  0  0  0  0
   38.1920   35.6570   40.5820 H   0  0  0  0  0  0  0  0  0  0  0  0
   40.6030   35.2330   40.4020 H   0  0  0  0  0  0  0  0  0  0  0  0
   42.6440   32.4290   40.3950 C   0  0  0  0  0  3  0  0  0  0  0  0
   41.7900   33.0450   39.5050 C   0  0  0  0  0  0  0  0  0  0  0  0
   42.3290   33.5410   38.3160 C   0  0  0  0  0  0  0  0  0  0  0  0
   41.7640   34.0420   37.5430 H   0  0  0  0  0  0  0  0  0  0  0  0
   43.6720   33.4280   38.0230 C   0  0  0  0  0  0  0  0  0  0  0  0
   44.4670   33.7970   36.9870 N   0  0  0  0  0  0  0  0  0  0  0  0
   45.7440   33.4360   37.2100 C   0  0  0  0  0  0  0  0  0  0  0  0
   46.5950   33.6060   36.5450 H   0  0  0  0  0  0  0  0  0  0  0  0
   45.7620   32.8280   38.4050 N   0  0  0  0  0  0  0  0  0  0  0  0
   44.5220   32.8080   38.9230 C   0  0  0  0  0  0  0  0  0  0  0  0
   43.9800   32.3200   40.0970 C   0  0  0  0  0  3  0  0  0  0  0  0
   44.1390   34.2980   36.1220 H   0  0  0  0  0  0  0  0  0  0  0  0
   37.0380   31.5340   38.8990 C   0  0  0  0  0  0  0  0  0  0  0  0
   37.3560   31.0510   37.9540 H   0  0  0  0  0  0  0  0  0  0  0  0
   36.0710   32.0880   38.7850 H   0  0  0  0  0  0  0  0  0  0  0  0
   37.0270   29.5130   42.0450 C   0  0  0  0  0  0  0  0  0  0  0  0
   36.4070   28.3400   41.6240 C   0  0  0  0  0  0  0  0  0  0  0  0
   36.0080   28.2510   40.3020 C   0  0  0  0  0  0  0  0  0  0  0  0
   36.2330   29.3000   39.4700 N   0  0  0  0  0  0  0  0  0  0  0  0
   36.8460   30.4460   39.9070 C   0  0  0  0  0  0  0  0  0  0  0  0
   37.2280   30.5180   41.1970 N   0  0  0  0  0  0  0  0  0  0  0  0
   37.3290   29.5560   43.0830 H   0  0  0  0  0  0  0  0  0  0  0  0
   36.2060   27.4800   42.2430 H   0  0  0  0  0  0  0  0  0  0  0  0
   35.5170   27.4100   39.8300 H   0  0  0  0  0  0  0  0  0  0  0  0
  1  2  1  0  0  0  0
  2  3  2  0  0  0  0
  2  7  1  0  0  0  0
  3  4  1  0  0  0  0
  4  8  1  0  0  0  0
  4  5  2  0  0  0  0
  5  9  1  0  0  0  0
  6  5  1  0  0  0  0
  6 10  1  0  0  0  0
  7  6  2  0  0  0  0
 12  7  1  0  0  0  0
 12 11  2  0  0  0  0
 13 12  1  0  0  0  0
 14 13  1  0  0  0  0
 15 13  2  0  0  0  0
 15 20  1  0  0  0  0
 16 17  1  0  0  0  0
 16 15  1  0  0  0  0
 17 19  2  0  0  0  0
 18 17  1  0  0  0  0
 19 20  1  0  0  0  0
 20 21  2  0  0  0  0
 21 11  1  0  0  0  0
 22 16  1  0  0  0  0
 23  3  1  0  0  0  0
 23 30  1  0  0  0  0
 24 23  1  0  0  0  0
 25 23  1  0  0  0  0
 26 32  1  0  0  0  0
 27 26  1  0  0  0  0
 27 33  1  0  0  0  0
 28 27  2  0  0  0  0
 29 30  2  0  0  0  0
 29 28  1  0  0  0  0
 30 31  1  0  0  0  0
 31 26  2  0  0  0  0
 34 28  1  0  0  0  0
M  END
>  <minimizedAffinity>
-5.70628881

$$$$

 OpenBabel03252502543D

 34 37  0  0  0  0  0  0  0  0999 V2000
   36.5330   30.2670   40.3960 Br  0  0  0  0  0  0  0  0  0  0  0  0
   36.7200   28.3490   40.5650 C   0  0  0  0  0  0  0  0  0  0  0  0
   37.2190   27.8900   41.7690 C   0  0  0  0  0  0  0  0  0  0  0  0
   37.3400   26.5090   41.8540 C   0  0  0  0  0  0  0  0  0  0  0  0
   36.9960   25.6480   40.8350 C   0  0  0  0  0  0  0  0  0  0  0  0
   36.5050   26.1730   39.6670 C   0  0  0  0  0  0  0  0  0  0  0  0
   36.3600   27.5340   39.5140 C   0  0  0  0  0  0  0  0  0  0  0  0
   37.7220   26.0490   42.7570 H   0  0  0  0  0  0  0  0  0  0  0  0
   37.1040   24.5840   40.9430 H   0  0  0  0  0  0  0  0  0  0  0  0
   36.2260   25.5150   38.8480 H   0  0  0  0  0  0  0  0  0  0  0  0
   34.5560   28.4710   37.9440 C   0  0  0  0  0  3  0  0  0  0  0  0
   35.8350   28.0640   38.2600 C   0  0  0  0  0  0  0  0  0  0  0  0
   36.8140   28.1530   37.2680 C   0  0  0  0  0  0  0  0  0  0  0  0
   37.8480   27.8660   37.3940 H   0  0  0  0  0  0  0  0  0  0  0  0
   36.5300   28.6290   36.0060 C   0  0  0  0  0  0  0  0  0  0  0  0
   37.2420   28.8290   34.8680 N   0  0  0  0  0  0  0  0  0  0  0  0
   36.4610   29.3310   33.8950 C   0  0  0  0  0  0  0  0  0  0  0  0
   36.7700   29.5870   32.8780 H   0  0  0  0  0  0  0  0  0  0  0  0
   35.2330   29.4530   34.4200 N   0  0  0  0  0  0  0  0  0  0  0  0
   35.2420   29.0360   35.6980 C   0  0  0  0  0  0  0  0  0  0  0  0
   34.2800   28.9450   36.6850 C   0  0  0  0  0  3  0  0  0  0  0  0
   38.2670   28.6230   34.7520 H   0  0  0  0  0  0  0  0  0  0  0  0
   37.6150   28.7090   42.9120 C   0  0  0  0  0  0  0  0  0  0  0  0
   37.4690   28.1170   43.8370 H   0  0  0  0  0  0  0  0  0  0  0  0
   36.9850   29.6360   42.9010 H   0  0  0  0  0  0  0  0  0  0  0  0
   41.3540   28.6890   42.9430 C   0  0  0  0  0  0  0  0  0  0  0  0
   41.6450   30.0390   42.7690 C   0  0  0  0  0  0  0  0  0  0  0  0
   40.5880   30.9230   42.6460 C   0  0  0  0  0  0  0  0  0  0  0  0
   39.3170   30.4480   42.6990 N   0  0  0  0  0  0  0  0  0  0  0  0
   39.0550   29.1140   42.8710 C   0  0  0  0  0  0  0  0  0  0  0  0
   40.0950   28.2650   42.9890 N   0  0  0  0  0  0  0  0  0  0  0  0
   42.1990   28.0200   43.0370 H   0  0  0  0  0  0  0  0  0  0  0  0
   42.6330   30.4670   42.7210 H   0  0  0  0  0  0  0  0  0  0  0  0
   40.6530   31.9950   42.5060 H   0  0  0  0  0  0  0  0  0  0  0  0
  1  2  1  0  0  0  0
  2  3  1  0  0  0  0
  3  4  2  0  0  0  0
  3 23  1  0  0  0  0
  4  8  1  0  0  0  0
  5  9  1  0  0  0  0
  5  4  1  0  0  0  0
  6  5  2  0  0  0  0
  7  6  1  0  0  0  0
  7  2  2  0  0  0  0
 10  6  1  0  0  0  0
 11 12  1  0  0  0  0
 12  7  1  0  0  0  0
 13 14  1  0  0  0  0
 13 12  2  0  0  0  0
 15 13  1  0  0  0  0
 16 15  1  0  0  0  0
 17 19  2  0  0  0  0
 17 16  1  0  0  0  0
 18 17  1  0  0  0  0
 19 20  1  0  0  0  0
 20 15  2  0  0  0  0
 20 21  1  0  0  0  0
 21 11  2  0  0  0  0
 22 16  1  0  0  0  0
 23 24  1  0  0  0  0
 25 23  1  0  0  0  0
 26 31  1  0  0  0  0
 26 32  1  0  0  0  0
 27 26  2  0  0  0  0
 28 29  2  0  0  0  0
 28 27  1  0  0  0  0
 29 30  1  0  0  0  0
 30 23  1  0  0  0  0
 30 31  2  0  0  0  0
 33 27  1  0  0  0  0
 34 28  1  0  0  0  0
M  END
>  <minimizedAffinity>
-5.69615459

$$$$

 OpenBabel03252502543D

 34 37  0  0  0  0  0  0  0  0999 V2000
   38.6610   28.3950   39.4060 Br  0  0  0  0  0  0  0  0  0  0  0  0
   38.2490   30.2620   39.7020 C   0  0  0  0  0  0  0  0  0  0  0  0
   38.9750   30.8960   40.6910 C   0  0  0  0  0  0  0  0  0  0  0  0
   38.6530   32.2340   40.8760 C   0  0  0  0  0  0  0  0  0  0  0  0
   37.6910   32.8960   40.1440 C   0  0  0  0  0  0  0  0  0  0  0  0
   37.0080   32.2040   39.1760 C   0  0  0  0  0  0  0  0  0  0  0  0
   37.2770   30.8740   38.9410 C   0  0  0  0  0  0  0  0  0  0  0  0
   39.1650   32.8210   41.6280 H   0  0  0  0  0  0  0  0  0  0  0  0
   37.4720   33.9340   40.3190 H   0  0  0  0  0  0  0  0  0  0  0  0
   36.2440   32.7030   38.5860 H   0  0  0  0  0  0  0  0  0  0  0  0
   35.3670   29.4370   38.0000 C   0  0  0  0  0  3  0  0  0  0  0  0
   36.5350   30.1640   37.9050 C   0  0  0  0  0  0  0  0  0  0  0  0
   37.1410   30.2680   36.6500 C   0  0  0  0  0  0  0  0  0  0  0  0
   38.0560   30.8070   36.4500 H   0  0  0  0  0  0  0  0  0  0  0  0
   36.6030   29.6690   35.5310 C   0  0  0  0  0  0  0  0  0  0  0  0
   36.9460   29.5920   34.2200 N   0  0  0  0  0  0  0  0  0  0  0  0
   36.0500   28.8620   33.5310 C   0  0  0  0  0  0  0  0  0  0  0  0
   36.0760   28.6370   32.4620 H   0  0  0  0  0  0  0  0  0  0  0  0
   35.1220   28.4690   34.4160 N   0  0  0  0  0  0  0  0  0  0  0  0
   35.4290   28.9420   35.6360 C   0  0  0  0  0  0  0  0  0  0  0  0
   34.8360   28.8440   36.8810 C   0  0  0  0  0  3  0  0  0  0  0  0
   37.7960   30.0390   33.7900 H   0  0  0  0  0  0  0  0  0  0  0  0
   40.0140   30.2950   41.5250 C   0  0  0  0  0  0  0  0  0  0  0  0
   40.4330   31.0790   42.1870 H   0  0  0  0  0  0  0  0  0  0  0  0
   40.7890   29.8610   40.8420 H   0  0  0  0  0  0  0  0  0  0  0  0
   39.6560   27.1480   43.5110 C   0  0  0  0  0  0  0  0  0  0  0  0
   38.3830   27.2990   44.0540 C   0  0  0  0  0  0  0  0  0  0  0  0
   37.6750   28.4470   43.7450 C   0  0  0  0  0  0  0  0  0  0  0  0
   38.2410   29.3760   42.9310 N   0  0  0  0  0  0  0  0  0  0  0  0
   39.4960   29.2040   42.4080 C   0  0  0  0  0  0  0  0  0  0  0  0
   40.1730   28.0810   42.7180 N   0  0  0  0  0  0  0  0  0  0  0  0
   40.1880   26.2410   43.7700 H   0  0  0  0  0  0  0  0  0  0  0  0
   37.8900   26.5950   44.7040 H   0  0  0  0  0  0  0  0  0  0  0  0
   36.6820   28.7070   44.0870 H   0  0  0  0  0  0  0  0  0  0  0  0
  1  2  1  0  0  0  0
  2  3  1  0  0  0  0
  3  4  2  0  0  0  0
  3 23  1  0  0  0  0
  4  8  1  0  0  0  0
  5  9  1  0  0  0  0
  5  4  1  0  0  0  0
  6  5  2  0  0  0  0
  7  6  1  0  0  0  0
  7  2  2  0  0  0  0
 10  6  1  0  0  0  0
 12 11  1  0  0  0  0
 12  7  1  0  0  0  0
 13 12  2  0  0  0  0
 14 13  1  0  0  0  0
 15 20  2  0  0  0  0
 15 13  1  0  0  0  0
 16 15  1  0  0  0  0
 17 16  1  0  0  0  0
 17 19  2  0  0  0  0
 18 17  1  0  0  0  0
 19 20  1  0  0  0  0
 20 21  1  0  0  0  0
 21 11  2  0  0  0  0
 22 16  1  0  0  0  0
 23 24  1  0  0  0  0
 23 30  1  0  0  0  0
 25 23  1  0  0  0  0
 26 32  1  0  0  0  0
 26 27  1  0  0  0  0
 27 33  1  0  0  0  0
 28 27  2  0  0  0  0
 28 34  1  0  0  0  0
 29 28  1  0  0  0  0
 30 31  1  0  0  0  0
 30 29  2  0  0  0  0
 31 26  2  0  0  0  0
M  END
>  <minimizedAffinity>
-5.66998148

$$$$

 OpenBabel03252502543D

 34 37  0  0  0  0  0  0  0  0999 V2000
   39.4030   27.6790   39.7410 Br  0  0  0  0  0  0  0  0  0  0  0  0
   38.4670   27.8310   41.4270 C   0  0  0  0  0  0  0  0  0  0  0  0
   38.7580   28.9480   42.1860 C   0  0  0  0  0  0  0  0  0  0  0  0
   38.0680   29.0230   43.3900 C   0  0  0  0  0  0  0  0  0  0  0  0
   37.1640   28.0740   43.8120 C   0  0  0  0  0  0  0  0  0  0  0  0
   36.9230   26.9890   43.0070 C   0  0  0  0  0  0  0  0  0  0  0  0
   37.5730   26.8510   41.8010 C   0  0  0  0  0  0  0  0  0  0  0  0
   38.2250   29.8610   44.0580 H   0  0  0  0  0  0  0  0  0  0  0  0
   36.6510   28.1700   44.7520 H   0  0  0  0  0  0  0  0  0  0  0  0
   36.2150   26.2270   43.3190 H   0  0  0  0  0  0  0  0  0  0  0  0
   36.5080   25.5800   39.8390 C   0  0  0  0  0  3  0  0  0  0  0  0
   37.2970   25.6880   40.9650 C   0  0  0  0  0  0  0  0  0  0  0  0
   37.9540   24.5410   41.4160 C   0  0  0  0  0  0  0  0  0  0  0  0
   38.5960   24.4980   42.2830 H   0  0  0  0  0  0  0  0  0  0  0  0
   37.8290   23.3290   40.7690 C   0  0  0  0  0  0  0  0  0  0  0  0
   38.3240   22.0800   40.9580 N   0  0  0  0  0  0  0  0  0  0  0  0
   37.8760   21.2370   40.0100 C   0  0  0  0  0  0  0  0  0  0  0  0
   38.1130   20.1740   39.9180 H   0  0  0  0  0  0  0  0  0  0  0  0
   37.0840   21.9600   39.2050 N   0  0  0  0  0  0  0  0  0  0  0  0
   37.0350   23.2310   39.6390 C   0  0  0  0  0  0  0  0  0  0  0  0
   36.3890   24.3720   39.1990 C   0  0  0  0  0  3  0  0  0  0  0  0
   38.9720   21.7980   41.7380 H   0  0  0  0  0  0  0  0  0  0  0  0
   39.6950   30.0140   41.8380 C   0  0  0  0  0  0  0  0  0  0  0  0
   39.2370   30.9870   42.1020 H   0  0  0  0  0  0  0  0  0  0  0  0
   39.9090   29.9320   40.7400 H   0  0  0  0  0  0  0  0  0  0  0  0
   42.7660   28.7520   43.5570 C   0  0  0  0  0  0  0  0  0  0  0  0
   43.3730   29.9390   43.9570 C   0  0  0  0  0  0  0  0  0  0  0  0
   42.7440   31.1300   43.6450 C   0  0  0  0  0  0  0  0  0  0  0  0
   41.5680   31.1010   42.9660 N   0  0  0  0  0  0  0  0  0  0  0  0
   40.9890   29.9200   42.5810 C   0  0  0  0  0  0  0  0  0  0  0  0
   41.6140   28.7670   42.8920 N   0  0  0  0  0  0  0  0  0  0  0  0
   43.2800   27.8340   43.8140 H   0  0  0  0  0  0  0  0  0  0  0  0
   44.3030   30.0170   44.4970 H   0  0  0  0  0  0  0  0  0  0  0  0
   43.0890   32.1280   43.8870 H   0  0  0  0  0  0  0  0  0  0  0  0
  1  2  1  0  0  0  0
  2  7  2  0  0  0  0
  2  3  1  0  0  0  0
  3  4  2  0  0  0  0
  4  5  1  0  0  0  0
  4  8  1  0  0  0  0
  5  9  1  0  0  0  0
  6 10  1  0  0  0  0
  6  5  2  0  0  0  0
  7  6  1  0  0  0  0
 11 12  1  0  0  0  0
 12 13  2  0  0  0  0
 12  7  1  0  0  0  0
 13 14  1  0  0  0  0
 15 16  1  0  0  0  0
 15 13  1  0  0  0  0
 16 22  1  0  0  0  0
 17 16  1  0  0  0  0
 18 17  1  0  0  0  0
 19 20  1  0  0  0  0
 19 17  2  0  0  0  0
 20 15  2  0  0  0  0
 21 20  1  0  0  0  0
 21 11  2  0  0  0  0
 23 24  1  0  0  0  0
 23  3  1  0  0  0  0
 23 30  1  0  0  0  0
 25 23  1  0  0  0  0
 26 32  1  0  0  0  0
 26 27  1  0  0  0  0
 27 33  1  0  0  0  0
 28 34  1  0  0  0  0
 28 27  2  0  0  0  0
 29 28  1  0  0  0  0
 30 31  1  0  0  0  0
 30 29  2  0  0  0  0
 31 26  2  0  0  0  0
M  END
>  <minimizedAffinity>
-5.6321454

$$$$
