
 OpenBabel03252508173D

 50 55  0  0  1  0  0  0  0  0999 V2000
   46.6500   31.5620   48.2410 C   0  0  1  0  0  0  0  0  0  0  0  0
   46.2670   30.4960   49.2100 C   0  0  0  0  0  0  0  0  0  0  0  0
   47.4850   31.2670   49.4220 C   0  0  1  0  0  0  0  0  0  0  0  0
   45.8470   32.3550   48.2310 H   0  0  0  0  0  0  0  0  0  0  0  0
   46.4210   29.4240   48.9190 H   0  0  0  0  0  0  0  0  0  0  0  0
   45.4180   30.6050   49.9120 H   0  0  0  0  0  0  0  0  0  0  0  0
   47.4450   32.0230   50.2350 H   0  0  0  0  0  0  0  0  0  0  0  0
   48.8490   30.6930   49.1960 C   0  0  2  0  0  0  0  0  0  0  0  0
   49.4730   30.0820   50.4760 C   0  0  0  0  0  0  0  0  0  0  0  0
   50.0120   31.3440   49.9390 C   0  0  1  0  0  0  0  0  0  0  0  0
   49.0720   30.0520   48.3330 H   0  0  0  0  0  0  0  0  0  0  0  0
   48.8940   30.1430   51.4180 H   0  0  0  0  0  0  0  0  0  0  0  0
   50.0980   29.1980   50.4150 H   0  0  0  0  0  0  0  0  0  0  0  0
   49.7600   32.2790   50.4850 H   0  0  0  0  0  0  0  0  0  0  0  0
   51.7890   30.3030   48.5340 C   0  0  0  0  0  3  0  0  0  0  0  0
   51.3570   31.3210   49.3580 C   0  0  0  0  0  0  0  0  0  0  0  0
   52.2840   32.3370   49.6110 C   0  0  0  0  0  0  0  0  0  0  0  0
   51.9230   33.1420   50.2710 H   0  0  0  0  0  0  0  0  0  0  0  0
   53.5610   32.3800   49.1010 C   0  0  0  0  0  0  0  0  0  0  0  0
   54.5470   33.2930   49.2630 N   0  0  0  0  0  0  0  0  0  0  0  0
   55.5660   32.8310   48.5430 C   0  0  0  0  0  0  0  0  0  0  0  0
   56.5070   33.3410   48.4700 H   0  0  0  0  0  0  0  0  0  0  0  0
   55.2390   31.6530   47.9370 N   0  0  0  0  0  0  0  0  0  0  0  0
   53.9730   31.3520   48.2790 C   0  0  0  0  0  0  0  0  0  0  0  0
   53.0740   30.3300   48.0120 C   0  0  0  0  0  3  0  0  0  0  0  0
   54.5230   34.1810   49.8340 H   0  0  0  0  0  0  0  0  0  0  0  0
   47.0560   31.0720   46.8980 C   0  0  0  0  0  0  0  0  0  0  0  0
   48.0480   30.6910   46.7560 H   0  0  0  0  0  0  0  0  0  0  0  0
   46.3360   30.2440   46.6290 H   0  0  0  0  0  0  0  0  0  0  0  0
   46.0010   33.0430   46.1580 C   0  0  0  0  0  3  0  0  0  0  0  0
   46.8200   32.1300   45.8470 C   0  0  0  0  0  3  0  0  0  0  0  0
   44.5630   35.9690   44.4350 C   0  0  0  0  0  0  0  0  0  0  0  0
   45.1940   35.9500   43.2050 C   0  0  0  0  0  0  0  0  0  0  0  0
   46.0900   34.9400   42.9950 C   0  0  0  0  0  0  0  0  0  0  0  0
   46.3140   34.0230   43.9790 N   0  0  0  0  0  0  0  0  0  0  0  0
   45.6820   34.0720   45.1630 C   0  0  0  0  0  0  0  0  0  0  0  0
   44.8160   35.0520   45.3620 N   0  0  0  0  0  0  0  0  0  0  0  0
   43.8510   36.7810   44.5900 H   0  0  0  0  0  0  0  0  0  0  0  0
   45.0500   36.6430   42.4130 H   0  0  0  0  0  0  0  0  0  0  0  0
   46.8310   34.7880   41.7510 C   0  0  0  0  0  0  0  0  0  0  0  0
   48.0410   35.3660   41.4970 C   0  0  0  0  0  0  0  0  0  0  0  0
   48.7340   35.2150   40.3110 C   0  0  0  0  0  0  0  0  0  0  0  0
   48.2030   34.4420   39.3060 C   0  0  0  0  0  0  0  0  0  0  0  0
   46.9900   33.8380   39.5070 C   0  0  0  0  0  0  0  0  0  0  0  0
   46.3490   34.0290   40.7110 C   0  0  0  0  0  0  0  0  0  0  0  0
   48.5030   35.9930   42.2760 H   0  0  0  0  0  0  0  0  0  0  0  0
   49.6910   35.6930   40.1540 H   0  0  0  0  0  0  0  0  0  0  0  0
   48.7020   34.2900   38.3590 H   0  0  0  0  0  0  0  0  0  0  0  0
   46.5590   33.2230   38.7170 H   0  0  0  0  0  0  0  0  0  0  0  0
   45.3820   33.5090   40.7910 H   0  0  0  0  0  0  0  0  0  0  0  0
  1  4  1  1  0  0  0
  1  2  1  0  0  0  0
  1  3  1  0  0  0  0
  2  3  1  0  0  0  0
  2  6  1  0  0  0  0
  3  7  1  1  0  0  0
  5  2  1  0  0  0  0
  8 11  1  6  0  0  0
  8  3  1  0  0  0  0
  8 10  1  0  0  0  0
  8  9  1  0  0  0  0
  9 12  1  0  0  0  0
 10  9  1  0  0  0  0
 10 14  1  1  0  0  0
 13  9  1  0  0  0  0
 15 16  1  0  0  0  0
 16 17  2  0  0  0  0
 16 10  1  0  0  0  0
 17 18  1  0  0  0  0
 19 20  1  0  0  0  0
 19 17  1  0  0  0  0
 20 26  1  0  0  0  0
 21 20  1  0  0  0  0
 22 21  1  0  0  0  0
 23 24  1  0  0  0  0
 23 21  2  0  0  0  0
 24 19  2  0  0  0  0
 25 24  1  0  0  0  0
 25 15  2  0  0  0  0
 27  1  1  0  0  0  0
 28 27  1  0  0  0  0
 29 27  1  0  0  0  0
 31 30  2  0  0  0  0
 31 27  1  0  0  0  0
 32 38  1  0  0  0  0
 32 37  1  0  0  0  0
 33 32  2  0  0  0  0
 34 33  1  0  0  0  0
 34 35  2  0  0  0  0
 35 36  1  0  0  0  0
 36 37  2  0  0  0  0
 36 30  1  0  0  0  0
 39 33  1  0  0  0  0
 40 34  1  0  0  0  0
 41 40  1  0  0  0  0
 41 46  1  0  0  0  0
 42 41  2  0  0  0  0
 43 44  2  0  0  0  0
 43 42  1  0  0  0  0
 44 45  1  0  0  0  0
 45 50  1  0  0  0  0
 45 40  2  0  0  0  0
 47 42  1  0  0  0  0
 48 43  1  0  0  0  0
 49 44  1  0  0  0  0
M  END
>  <minimizedAffinity>
-6.96423435

>  <minimizedRMSD>
1.07875407

$$$$
