
 OpenBabel03252504103D

 28 30  0  0  0  0  0  0  0  0999 V2000
   46.9650   34.2100   43.1110 C   0  0  0  0  0  0  0  0  0  0  0  0
   45.8370   34.7130   43.7530 C   0  0  0  0  0  0  0  0  0  0  0  0
   45.3220   33.9780   44.8320 C   0  0  0  0  0  0  0  0  0  0  0  0
   45.9420   32.8320   45.1880 N   0  0  0  0  0  0  0  0  0  0  0  0
   47.0350   32.3790   44.5380 C   0  0  0  0  0  0  0  0  0  0  0  0
   47.5500   33.0550   43.5070 N   0  0  0  0  0  0  0  0  0  0  0  0
   44.4510   34.3630   45.3300 H   0  0  0  0  0  0  0  0  0  0  0  0
   48.3910   30.3260   44.1940 C   0  0  0  0  0  3  0  0  0  0  0  0
   47.6100   31.1270   45.0210 C   0  0  0  0  0  0  0  0  0  0  0  0
   47.3800   30.7310   46.3130 C   0  0  0  0  0  0  0  0  0  0  0  0
   46.7770   31.3330   46.9820 H   0  0  0  0  0  0  0  0  0  0  0  0
   47.9330   29.5450   46.7530 C   0  0  0  0  0  0  0  0  0  0  0  0
   47.8240   28.9810   47.9850 N   0  0  0  0  0  0  0  0  0  0  0  0
   48.5490   27.8320   47.8870 C   0  0  0  0  0  0  0  0  0  0  0  0
   48.6150   27.1910   48.7660 H   0  0  0  0  0  0  0  0  0  0  0  0
   49.0730   27.7040   46.6560 N   0  0  0  0  0  0  0  0  0  0  0  0
   48.7040   28.7660   45.9150 C   0  0  0  0  0  0  0  0  0  0  0  0
   48.9620   29.1250   44.6080 C   0  0  0  0  0  3  0  0  0  0  0  0
   47.3000   29.3570   48.8090 H   0  0  0  0  0  0  0  0  0  0  0  0
   45.2310   35.9780   43.2870 C   0  0  0  0  0  0  0  0  0  0  0  0
   46.2270   36.8820   42.9580 F   0  0  0  0  0  0  0  0  0  0  0  0
   44.5390   35.7260   42.1110 F   0  0  0  0  0  0  0  0  0  0  0  0
   44.4030   36.5730   44.1740 F   0  0  0  0  0  0  0  0  0  0  0  0
   47.4560   34.9280   42.0690 O   0  0  0  0  0  0  0  0  0  0  0  0
   48.8050   35.0620   41.6940 C   0  0  0  0  0  0  0  0  0  0  0  0
   49.5340   35.3570   42.8480 F   0  0  0  0  0  0  0  0  0  0  0  0
   49.2370   33.9290   41.0790 F   0  0  0  0  0  0  0  0  0  0  0  0
   48.9540   36.1800   40.8830 F   0  0  0  0  0  0  0  0  0  0  0  0
  1  6  2  0  0  0  0
  1  2  1  0  0  0  0
  2  3  2  0  0  0  0
  3  4  1  0  0  0  0
  3  7  1  0  0  0  0
  5  9  1  0  0  0  0
  5  4  2  0  0  0  0
  6  5  1  0  0  0  0
  8 18  2  0  0  0  0
  8  9  1  0  0  0  0
  9 10  2  0  0  0  0
 10 12  1  0  0  0  0
 10 11  1  0  0  0  0
 12 13  1  0  0  0  0
 13 19  1  0  0  0  0
 14 13  1  0  0  0  0
 14 15  1  0  0  0  0
 16 14  2  0  0  0  0
 17 16  1  0  0  0  0
 17 12  2  0  0  0  0
 18 17  1  0  0  0  0
 20  2  1  0  0  0  0
 20 23  1  0  0  0  0
 21 20  1  0  0  0  0
 22 20  1  0  0  0  0
 24  1  1  0  0  0  0
 25 24  1  0  0  0  0
 25 26  1  0  0  0  0
 27 25  1  0  0  0  0
 28 25  1  0  0  0  0
M  END
>  <minimizedAffinity>
-5.46813822

>  <minimizedRMSD>
0.742515206

$$$$
