
 OpenBabel03252506563D

 41 46  0  0  0  0  0  0  0  0999 V2000
   47.2130   31.3790   45.1260 C   0  0  0  0  0  0  0  0  0  0  0  0
   46.8620   32.7250   45.1230 C   0  0  0  0  0  0  0  0  0  0  0  0
   46.2630   33.3380   46.1980 C   0  0  0  0  0  0  0  0  0  0  0  0
   45.9790   32.6220   47.3530 C   0  0  0  0  0  0  0  0  0  0  0  0
   45.4120   32.8900   48.5690 N   0  0  0  0  0  0  0  0  0  0  0  0
   45.4140   31.7440   49.2980 C   0  0  0  0  0  0  0  0  0  0  0  0
   45.9760   30.7910   48.5310 N   0  0  0  0  0  0  0  0  0  0  0  0
   46.3300   31.2950   47.3430 C   0  0  0  0  0  0  0  0  0  0  0  0
   46.9250   30.6550   46.2960 C   0  0  0  0  0  0  0  0  0  0  0  0
   47.6850   30.8890   44.2850 H   0  0  0  0  0  0  0  0  0  0  0  0
   45.9890   34.3860   46.2000 H   0  0  0  0  0  0  0  0  0  0  0  0
   45.0640   33.8520   48.8040 H   0  0  0  0  0  0  0  0  0  0  0  0
   45.0190   31.6840   50.3050 H   0  0  0  0  0  0  0  0  0  0  0  0
   46.5110   35.1880   42.4180 C   0  0  0  0  0  0  0  0  0  0  0  0
   47.6980   35.0060   41.6910 C   0  0  0  0  0  0  0  0  0  0  0  0
   48.6000   34.0450   42.1320 C   0  0  0  0  0  0  0  0  0  0  0  0
   48.2990   33.3160   43.2580 N   0  0  0  0  0  0  0  0  0  0  0  0
   47.1400   33.5250   43.9320 C   0  0  0  0  0  0  0  0  0  0  0  0
   46.2490   34.4470   43.5280 N   0  0  0  0  0  0  0  0  0  0  0  0
   45.7960   35.9290   42.0920 H   0  0  0  0  0  0  0  0  0  0  0  0
   47.8930   35.5990   40.8140 H   0  0  0  0  0  0  0  0  0  0  0  0
   49.5120   33.8940   41.5870 H   0  0  0  0  0  0  0  0  0  0  0  0
   47.2680   29.2200   46.3760 C   0  0  0  0  0  0  0  0  0  0  0  0
   48.5690   28.7350   46.4560 C   0  0  0  0  0  0  0  0  0  0  0  0
   48.3860   27.3450   46.5100 C   0  0  0  0  0  0  0  0  0  0  0  0
   47.0270   27.0770   46.4620 C   0  0  0  0  0  0  0  0  0  0  0  0
   46.4080   28.2430   46.3810 O   0  0  0  0  0  0  0  0  0  0  0  0
   49.4440   29.3680   46.4660 H   0  0  0  0  0  0  0  0  0  0  0  0
   49.2330   26.6690   46.5780 H   0  0  0  0  0  0  0  0  0  0  0  0
   45.5100   25.3520   47.4150 C   0  0  0  0  0  3  0  0  0  0  0  0
   46.4700   25.7290   46.4980 C   0  0  0  0  0  0  0  0  0  0  0  0
   46.9190   24.7800   45.5760 C   0  0  0  0  0  0  0  0  0  0  0  0
   47.6750   25.0090   44.8240 H   0  0  0  0  0  0  0  0  0  0  0  0
   46.3690   23.5140   45.6400 C   0  0  0  0  0  0  0  0  0  0  0  0
   46.5570   22.3680   44.9280 N   0  0  0  0  0  0  0  0  0  0  0  0
   45.7670   21.3790   45.3850 C   0  0  0  0  0  0  0  0  0  0  0  0
   45.8050   20.4090   44.9160 H   0  0  0  0  0  0  0  0  0  0  0  0
   45.0470   21.8820   46.4160 N   0  0  0  0  0  0  0  0  0  0  0  0
   45.4040   23.1590   46.5720 C   0  0  0  0  0  0  0  0  0  0  0  0
   44.9710   24.1040   47.4760 C   0  0  0  0  0  3  0  0  0  0  0  0
   47.2470   22.3450   44.1390 H   0  0  0  0  0  0  0  0  0  0  0  0
  1  9  1  0  0  0  0
  2  1  2  0  0  0  0
  2  3  1  0  0  0  0
  3 11  1  0  0  0  0
  3  4  2  0  0  0  0
  4  5  1  0  0  0  0
  5 12  1  0  0  0  0
  5  6  1  0  0  0  0
  6 13  1  0  0  0  0
  7  6  2  0  0  0  0
  8  4  1  0  0  0  0
  8  7  1  0  0  0  0
  9 23  1  0  0  0  0
  9  8  2  0  0  0  0
 10  1  1  0  0  0  0
 14 19  1  0  0  0  0
 15 16  1  0  0  0  0
 15 14  2  0  0  0  0
 16 17  2  0  0  0  0
 17 18  1  0  0  0  0
 18  2  1  0  0  0  0
 19 18  2  0  0  0  0
 20 14  1  0  0  0  0
 21 15  1  0  0  0  0
 22 16  1  0  0  0  0
 23 27  1  0  0  0  0
 23 24  2  0  0  0  0
 24 28  1  0  0  0  0
 24 25  1  0  0  0  0
 25 29  1  0  0  0  0
 26 31  1  0  0  0  0
 26 25  2  0  0  0  0
 27 26  1  0  0  0  0
 30 40  1  0  0  0  0
 31 30  2  0  0  0  0
 32 34  2  0  0  0  0
 32 31  1  0  0  0  0
 33 32  1  0  0  0  0
 34 39  1  0  0  0  0
 35 36  1  0  0  0  0
 35 34  1  0  0  0  0
 36 38  2  0  0  0  0
 37 36  1  0  0  0  0
 38 39  1  0  0  0  0
 39 40  2  0  0  0  0
 41 35  1  0  0  0  0
M  END
>  <minimizedAffinity>
-5.68365192

>  <minimizedRMSD>
0.264831364

$$$$
