
 OpenBabel03252507293D

 46 50  0  0  1  0  0  0  0  0999 V2000
   38.7420   31.5960   38.6390 C   0  0  2  0  0  0  0  0  0  0  0  0
   37.3020   31.5380   38.4370 C   0  0  0  0  0  0  0  0  0  0  0  0
   36.9250   30.4040   37.5390 C   0  0  0  0  0  0  0  0  0  0  0  0
   37.7030   29.1410   37.6800 C   0  0  0  0  0  0  0  0  0  0  0  0
   39.1550   29.3760   37.8740 C   0  0  0  0  0  0  0  0  0  0  0  0
   39.3550   30.3240   39.0580 C   0  0  2  0  0  0  0  0  0  0  0  0
   39.1580   31.7620   37.5700 H   0  0  0  0  0  0  0  0  0  0  0  0
   37.0500   32.4770   37.7960 H   0  0  0  0  0  0  0  0  0  0  0  0
   36.5990   31.6270   39.2420 H   0  0  0  0  0  0  0  0  0  0  0  0
   36.8820   30.7220   36.4510 H   0  0  0  0  0  0  0  0  0  0  0  0
   35.8450   30.1360   37.7580 H   0  0  0  0  0  0  0  0  0  0  0  0
   37.5980   28.6050   36.7030 H   0  0  0  0  0  0  0  0  0  0  0  0
   37.2140   28.4770   38.4120 H   0  0  0  0  0  0  0  0  0  0  0  0
   39.7910   28.5120   37.8960 H   0  0  0  0  0  0  0  0  0  0  0  0
   39.4950   29.9850   36.9850 H   0  0  0  0  0  0  0  0  0  0  0  0
   40.5110   30.3980   39.0040 H   0  0  0  0  0  0  0  0  0  0  0  0
   39.4870   28.3100   40.3110 C   0  0  0  0  0  3  0  0  0  0  0  0
   38.9430   29.6100   40.2330 C   0  0  0  0  0  0  0  0  0  0  0  0
   38.1550   29.8500   41.3100 C   0  0  0  0  0  0  0  0  0  0  0  0
   37.7050   30.8240   41.3060 H   0  0  0  0  0  0  0  0  0  0  0  0
   37.8600   29.0290   42.3740 C   0  0  0  0  0  0  0  0  0  0  0  0
   37.0880   29.2240   43.4560 N   0  0  0  0  0  0  0  0  0  0  0  0
   37.1920   28.0490   44.1410 C   0  0  0  0  0  0  0  0  0  0  0  0
   36.6880   27.8500   45.0850 H   0  0  0  0  0  0  0  0  0  0  0  0
   37.9920   27.1890   43.4950 N   0  0  0  0  0  0  0  0  0  0  0  0
   38.4270   27.7890   42.3720 C   0  0  0  0  0  0  0  0  0  0  0  0
   39.2390   27.4100   41.3560 C   0  0  0  0  0  3  0  0  0  0  0  0
   36.5530   30.0900   43.6780 H   0  0  0  0  0  0  0  0  0  0  0  0
   39.2680   32.7600   39.3580 C   0  0  0  0  0  0  0  0  0  0  0  0
   38.3580   33.6870   39.8440 C   0  0  0  0  0  0  0  0  0  0  0  0
   38.8780   34.8090   40.5180 C   0  0  0  0  0  0  0  0  0  0  0  0
   40.2470   34.9110   40.6480 N   0  0  0  0  0  0  0  0  0  0  0  0
   41.0650   33.9810   40.1570 C   0  0  0  0  0  0  0  0  0  0  0  0
   40.5830   32.9240   39.5240 N   0  0  0  0  0  0  0  0  0  0  0  0
   37.2900   33.7280   39.8180 H   0  0  0  0  0  0  0  0  0  0  0  0
   38.3020   35.5920   40.9380 H   0  0  0  0  0  0  0  0  0  0  0  0
   42.5080   34.1520   40.3320 C   0  0  0  0  0  0  0  0  0  0  0  0
   43.0060   34.7090   41.4920 C   0  0  0  0  0  0  0  0  0  0  0  0
   44.3420   34.9100   41.7560 C   0  0  0  0  0  0  0  0  0  0  0  0
   45.1880   34.4920   40.7210 C   0  0  0  0  0  0  0  0  0  0  0  0
   44.7130   33.9320   39.5480 C   0  0  0  0  0  0  0  0  0  0  0  0
   43.3640   33.7570   39.3450 N   0  0  0  0  0  0  0  0  0  0  0  0
   42.2850   35.0040   42.2430 H   0  0  0  0  0  0  0  0  0  0  0  0
   44.6670   35.3430   42.6680 H   0  0  0  0  0  0  0  0  0  0  0  0
   46.2610   34.6330   40.8860 H   0  0  0  0  0  0  0  0  0  0  0  0
   45.4470   33.6470   38.8210 H   0  0  0  0  0  0  0  0  0  0  0  0
  1  7  1  6  0  0  0
  1  6  1  0  0  0  0
  1 29  1  0  0  0  0
  2  1  1  0  0  0  0
  2  9  1  0  0  0  0
  3  4  1  0  0  0  0
  3 11  1  0  0  0  0
  3  2  1  0  0  0  0
  4  5  1  0  0  0  0
  4 13  1  0  0  0  0
  5 14  1  0  0  0  0
  5  6  1  0  0  0  0
  6 16  1  1  0  0  0
  6 18  1  0  0  0  0
  8  2  1  0  0  0  0
 10  3  1  0  0  0  0
 12  4  1  0  0  0  0
 15  5  1  0  0  0  0
 17 27  1  0  0  0  0
 18 17  2  0  0  0  0
 18 19  1  0  0  0  0
 19 21  2  0  0  0  0
 20 19  1  0  0  0  0
 21 22  1  0  0  0  0
 22 28  1  0  0  0  0
 22 23  1  0  0  0  0
 23 24  1  0  0  0  0
 25 23  2  0  0  0  0
 26 21  1  0  0  0  0
 26 25  1  0  0  0  0
 27 26  2  0  0  0  0
 29 34  2  0  0  0  0
 29 30  1  0  0  0  0
 30 31  2  0  0  0  0
 31 32  1  0  0  0  0
 31 36  1  0  0  0  0
 33 37  1  0  0  0  0
 33 32  2  0  0  0  0
 34 33  1  0  0  0  0
 35 30  1  0  0  0  0
 37 38  1  0  0  0  0
 38 39  2  0  0  0  0
 38 43  1  0  0  0  0
 39 44  1  0  0  0  0
 40 45  1  0  0  0  0
 40 39  1  0  0  0  0
 41 40  2  0  0  0  0
 42 41  1  0  0  0  0
 42 37  2  0  0  0  0
 46 41  1  0  0  0  0
M  END
>  <minimizedAffinity>
-6.82080078

$$$$

 OpenBabel03252507293D

 46 50  0  0  1  0  0  0  0  0999 V2000
   38.9420   28.8560   42.6960 C   0  0  2  0  0  0  0  0  0  0  0  0
   40.3230   28.4550   42.4760 C   0  0  0  0  0  0  0  0  0  0  0  0
   40.7770   27.4780   43.5110 C   0  0  0  0  0  0  0  0  0  0  0  0
   39.7810   26.4710   43.9740 C   0  0  0  0  0  0  0  0  0  0  0  0
   38.4230   27.0420   44.1540 C   0  0  0  0  0  0  0  0  0  0  0  0
   37.9980   27.7370   42.8600 C   0  0  2  0  0  0  0  0  0  0  0  0
   38.9670   29.3490   43.7440 H   0  0  0  0  0  0  0  0  0  0  0  0
   40.9530   29.4050   42.7160 H   0  0  0  0  0  0  0  0  0  0  0  0
   40.7010   28.1800   41.5110 H   0  0  0  0  0  0  0  0  0  0  0  0
   41.2590   27.9940   44.4000 H   0  0  0  0  0  0  0  0  0  0  0  0
   41.6410   26.8890   43.0740 H   0  0  0  0  0  0  0  0  0  0  0  0
   40.1230   26.1450   44.9900 H   0  0  0  0  0  0  0  0  0  0  0  0
   39.8500   25.5610   43.3560 H   0  0  0  0  0  0  0  0  0  0  0  0
   37.6730   26.3970   44.5690 H   0  0  0  0  0  0  0  0  0  0  0  0
   38.5370   27.8930   44.8880 H   0  0  0  0  0  0  0  0  0  0  0  0
   36.9700   28.1290   43.2250 H   0  0  0  0  0  0  0  0  0  0  0  0
   37.0540   25.6210   42.3320 C   0  0  0  0  0  3  0  0  0  0  0  0
   37.8310   26.7070   41.8730 C   0  0  0  0  0  0  0  0  0  0  0  0
   38.2260   26.4890   40.5960 C   0  0  0  0  0  0  0  0  0  0  0  0
   38.8270   27.2800   40.1900 H   0  0  0  0  0  0  0  0  0  0  0  0
   37.9700   25.4150   39.7750 C   0  0  0  0  0  0  0  0  0  0  0  0
   38.3390   25.1580   38.5090 N   0  0  0  0  0  0  0  0  0  0  0  0
   37.7800   23.9410   38.2520 C   0  0  0  0  0  0  0  0  0  0  0  0
   37.8770   23.4180   37.3020 H   0  0  0  0  0  0  0  0  0  0  0  0
   37.1050   23.4900   39.3180 N   0  0  0  0  0  0  0  0  0  0  0  0
   37.2110   24.4080   40.2960 C   0  0  0  0  0  0  0  0  0  0  0  0
   36.7460   24.4900   41.5660 C   0  0  0  0  0  3  0  0  0  0  0  0
   38.9200   25.7760   37.9040 H   0  0  0  0  0  0  0  0  0  0  0  0
   38.4200   29.9400   41.8580 C   0  0  0  0  0  0  0  0  0  0  0  0
   37.0490   29.9960   41.6530 C   0  0  0  0  0  0  0  0  0  0  0  0
   36.5630   31.0320   40.8320 C   0  0  0  0  0  0  0  0  0  0  0  0
   37.4740   31.9150   40.2930 N   0  0  0  0  0  0  0  0  0  0  0  0
   38.7800   31.8030   40.5340 C   0  0  0  0  0  0  0  0  0  0  0  0
   39.2430   30.8330   41.3030 N   0  0  0  0  0  0  0  0  0  0  0  0
   36.2430   29.3900   42.0080 H   0  0  0  0  0  0  0  0  0  0  0  0
   35.5440   31.1940   40.5900 H   0  0  0  0  0  0  0  0  0  0  0  0
   39.6910   32.7750   39.9290 C   0  0  0  0  0  0  0  0  0  0  0  0
   40.4320   32.4350   38.8160 C   0  0  0  0  0  0  0  0  0  0  0  0
   41.3120   33.2740   38.1710 C   0  0  0  0  0  0  0  0  0  0  0  0
   41.4030   34.5460   38.7520 C   0  0  0  0  0  0  0  0  0  0  0  0
   40.6710   34.9110   39.8690 C   0  0  0  0  0  0  0  0  0  0  0  0
   39.8070   34.0250   40.4670 N   0  0  0  0  0  0  0  0  0  0  0  0
   40.3030   31.4330   38.4290 H   0  0  0  0  0  0  0  0  0  0  0  0
   41.8560   32.9570   37.3180 H   0  0  0  0  0  0  0  0  0  0  0  0
   42.0920   35.2490   38.2730 H   0  0  0  0  0  0  0  0  0  0  0  0
   40.8160   35.9090   40.2320 H   0  0  0  0  0  0  0  0  0  0  0  0
  1  6  1  0  0  0  0
  1  7  1  1  0  0  0
  2  1  1  0  0  0  0
  2  8  1  0  0  0  0
  2  3  1  0  0  0  0
  3  4  1  0  0  0  0
  3 10  1  0  0  0  0
  4  5  1  0  0  0  0
  4 12  1  0  0  0  0
  5 14  1  0  0  0  0
  5 15  1  0  0  0  0
  6 16  1  1  0  0  0
  6  5  1  0  0  0  0
  9  2  1  0  0  0  0
 11  3  1  0  0  0  0
 13  4  1  0  0  0  0
 18 17  1  0  0  0  0
 18  6  1  0  0  0  0
 19 18  2  0  0  0  0
 20 19  1  0  0  0  0
 21 26  2  0  0  0  0
 21 19  1  0  0  0  0
 22 21  1  0  0  0  0
 23 22  1  0  0  0  0
 23 25  2  0  0  0  0
 24 23  1  0  0  0  0
 25 26  1  0  0  0  0
 26 27  1  0  0  0  0
 27 17  2  0  0  0  0
 28 22  1  0  0  0  0
 29  1  1  0  0  0  0
 30 29  1  0  0  0  0
 30 35  1  0  0  0  0
 31 30  2  0  0  0  0
 32 33  2  0  0  0  0
 32 31  1  0  0  0  0
 33 34  1  0  0  0  0
 34 29  2  0  0  0  0
 36 31  1  0  0  0  0
 37 42  1  0  0  0  0
 37 33  1  0  0  0  0
 38 37  2  0  0  0  0
 39 40  2  0  0  0  0
 39 38  1  0  0  0  0
 40 41  1  0  0  0  0
 41 46  1  0  0  0  0
 41 42  2  0  0  0  0
 43 38  1  0  0  0  0
 44 39  1  0  0  0  0
 45 40  1  0  0  0  0
M  END
>  <minimizedAffinity>
-6.73570919

$$$$

 OpenBabel03252507293D

 46 50  0  0  1  0  0  0  0  0999 V2000
   35.4140   27.0280   37.6560 C   0  0  2  0  0  0  0  0  0  0  0  0
   36.2550   27.3040   36.5010 C   0  0  0  0  0  0  0  0  0  0  0  0
   35.5410   28.1510   35.4980 C   0  0  0  0  0  0  0  0  0  0  0  0
   34.6430   29.2160   36.0290 C   0  0  0  0  0  0  0  0  0  0  0  0
   33.8510   28.7720   37.2030 C   0  0  0  0  0  0  0  0  0  0  0  0
   34.8020   28.2210   38.2670 C   0  0  2  0  0  0  0  0  0  0  0  0
   34.5110   26.4580   37.2030 H   0  0  0  0  0  0  0  0  0  0  0  0
   36.3590   26.2800   35.9540 H   0  0  0  0  0  0  0  0  0  0  0  0
   37.2790   27.6100   36.5880 H   0  0  0  0  0  0  0  0  0  0  0  0
   34.9960   27.5250   34.7250 H   0  0  0  0  0  0  0  0  0  0  0  0
   36.3250   28.6820   34.8750 H   0  0  0  0  0  0  0  0  0  0  0  0
   33.9060   29.4300   35.2140 H   0  0  0  0  0  0  0  0  0  0  0  0
   35.2040   30.1580   36.1460 H   0  0  0  0  0  0  0  0  0  0  0  0
   33.1190   29.4560   37.5850 H   0  0  0  0  0  0  0  0  0  0  0  0
   33.2740   27.8620   36.8640 H   0  0  0  0  0  0  0  0  0  0  0  0
   34.0000   27.9080   39.0440 H   0  0  0  0  0  0  0  0  0  0  0  0
   35.3900   29.5770   40.1270 C   0  0  0  0  0  3  0  0  0  0  0  0
   35.5730   29.3320   38.7490 C   0  0  0  0  0  0  0  0  0  0  0  0
   36.4440   30.2300   38.2290 C   0  0  0  0  0  0  0  0  0  0  0  0
   36.6210   30.1000   37.1780 H   0  0  0  0  0  0  0  0  0  0  0  0
   37.1080   31.2620   38.8510 C   0  0  0  0  0  0  0  0  0  0  0  0
   37.9760   32.1710   38.3780 N   0  0  0  0  0  0  0  0  0  0  0  0
   38.2820   32.9240   39.4730 C   0  0  0  0  0  0  0  0  0  0  0  0
   38.9710   33.7670   39.4560 H   0  0  0  0  0  0  0  0  0  0  0  0
   37.6270   32.4820   40.5550 N   0  0  0  0  0  0  0  0  0  0  0  0
   36.8760   31.4290   40.1850 C   0  0  0  0  0  0  0  0  0  0  0  0
   36.0250   30.6020   40.8390 C   0  0  0  0  0  3  0  0  0  0  0  0
   38.3080   32.2450   37.3930 H   0  0  0  0  0  0  0  0  0  0  0  0
   35.9230   26.0670   38.6380 C   0  0  0  0  0  0  0  0  0  0  0  0
   35.6170   24.7270   38.4520 C   0  0  0  0  0  0  0  0  0  0  0  0
   36.0970   23.8170   39.4120 C   0  0  0  0  0  0  0  0  0  0  0  0
   36.8350   24.3130   40.4660 N   0  0  0  0  0  0  0  0  0  0  0  0
   37.0940   25.6150   40.5820 C   0  0  0  0  0  0  0  0  0  0  0  0
   36.6460   26.4750   39.6840 N   0  0  0  0  0  0  0  0  0  0  0  0
   35.0680   24.2140   37.6910 H   0  0  0  0  0  0  0  0  0  0  0  0
   35.9380   22.7690   39.3960 H   0  0  0  0  0  0  0  0  0  0  0  0
   37.8840   26.0740   41.7260 C   0  0  0  0  0  0  0  0  0  0  0  0
   37.5840   27.2700   42.3440 C   0  0  0  0  0  0  0  0  0  0  0  0
   38.2610   27.7880   43.4240 C   0  0  0  0  0  0  0  0  0  0  0  0
   39.3170   26.9800   43.8650 C   0  0  0  0  0  0  0  0  0  0  0  0
   39.6390   25.7770   43.2620 C   0  0  0  0  0  0  0  0  0  0  0  0
   38.9210   25.3140   42.1840 N   0  0  0  0  0  0  0  0  0  0  0  0
   36.7520   27.8340   41.9410 H   0  0  0  0  0  0  0  0  0  0  0  0
   37.9840   28.7150   43.8580 H   0  0  0  0  0  0  0  0  0  0  0  0
   39.8860   27.3520   44.7240 H   0  0  0  0  0  0  0  0  0  0  0  0
   40.4650   25.2370   43.6790 H   0  0  0  0  0  0  0  0  0  0  0  0
  1  7  1  6  0  0  0
  1  6  1  0  0  0  0
  1 29  1  0  0  0  0
  2  9  1  0  0  0  0
  2  1  1  0  0  0  0
  3  4  1  0  0  0  0
  3  2  1  0  0  0  0
  4 13  1  0  0  0  0
  4  5  1  0  0  0  0
  5 14  1  0  0  0  0
  5  6  1  0  0  0  0
  6 18  1  0  0  0  0
  6 16  1  1  0  0  0
  8  2  1  0  0  0  0
 10  3  1  0  0  0  0
 11  3  1  0  0  0  0
 12  4  1  0  0  0  0
 15  5  1  0  0  0  0
 17 27  1  0  0  0  0
 18 17  2  0  0  0  0
 19 18  1  0  0  0  0
 19 21  2  0  0  0  0
 20 19  1  0  0  0  0
 21 26  1  0  0  0  0
 22 21  1  0  0  0  0
 22 23  1  0  0  0  0
 23 25  2  0  0  0  0
 24 23  1  0  0  0  0
 26 25  1  0  0  0  0
 26 27  2  0  0  0  0
 28 22  1  0  0  0  0
 29 34  1  0  0  0  0
 30 29  2  0  0  0  0
 30 31  1  0  0  0  0
 31 32  2  0  0  0  0
 32 33  1  0  0  0  0
 33 37  1  0  0  0  0
 34 33  2  0  0  0  0
 35 30  1  0  0  0  0
 36 31  1  0  0  0  0
 37 42  2  0  0  0  0
 37 38  1  0  0  0  0
 38 39  2  0  0  0  0
 39 44  1  0  0  0  0
 39 40  1  0  0  0  0
 40 45  1  0  0  0  0
 41 46  1  0  0  0  0
 41 40  2  0  0  0  0
 42 41  1  0  0  0  0
 43 38  1  0  0  0  0
M  END
>  <minimizedAffinity>
-6.71679735

$$$$

 OpenBabel03252507293D

 46 50  0  0  1  0  0  0  0  0999 V2000
   37.5470   31.9370   40.6280 C   0  0  2  0  0  0  0  0  0  0  0  0
   37.0550   32.5990   39.4300 C   0  0  0  0  0  0  0  0  0  0  0  0
   37.3970   34.0530   39.4330 C   0  0  0  0  0  0  0  0  0  0  0  0
   38.7230   34.4360   39.9960 C   0  0  0  0  0  0  0  0  0  0  0  0
   39.0730   33.6710   41.2190 C   0  0  0  0  0  0  0  0  0  0  0  0
   38.9710   32.1750   40.9200 C   0  0  2  0  0  0  0  0  0  0  0  0
   36.9950   32.4880   41.4870 H   0  0  0  0  0  0  0  0  0  0  0  0
   35.8960   32.6010   39.5420 H   0  0  0  0  0  0  0  0  0  0  0  0
   37.1790   32.1870   38.4470 H   0  0  0  0  0  0  0  0  0  0  0  0
   36.5760   34.6820   39.8980 H   0  0  0  0  0  0  0  0  0  0  0  0
   37.3980   34.4100   38.3560 H   0  0  0  0  0  0  0  0  0  0  0  0
   38.6260   35.5060   40.3100 H   0  0  0  0  0  0  0  0  0  0  0  0
   39.4820   34.4510   39.1960 H   0  0  0  0  0  0  0  0  0  0  0  0
   39.9730   33.9530   41.7310 H   0  0  0  0  0  0  0  0  0  0  0  0
   38.2330   33.8540   41.9520 H   0  0  0  0  0  0  0  0  0  0  0  0
   39.2350   31.7860   41.9800 H   0  0  0  0  0  0  0  0  0  0  0  0
   41.3070   32.1590   40.4870 C   0  0  0  0  0  3  0  0  0  0  0  0
   40.0190   31.8670   39.9880 C   0  0  0  0  0  0  0  0  0  0  0  0
   40.1090   31.3650   38.7320 C   0  0  0  0  0  0  0  0  0  0  0  0
   39.1590   31.1280   38.2940 H   0  0  0  0  0  0  0  0  0  0  0  0
   41.2270   31.1310   37.9660 C   0  0  0  0  0  0  0  0  0  0  0  0
   41.3620   30.6370   36.7240 N   0  0  0  0  0  0  0  0  0  0  0  0
   42.7110   30.6480   36.5190 C   0  0  0  0  0  0  0  0  0  0  0  0
   43.1880   30.3080   35.6000 H   0  0  0  0  0  0  0  0  0  0  0  0
   43.3530   31.1270   37.5920 N   0  0  0  0  0  0  0  0  0  0  0  0
   42.4330   31.4400   38.5220 C   0  0  0  0  0  0  0  0  0  0  0  0
   42.4950   31.9520   39.7750 C   0  0  0  0  0  3  0  0  0  0  0  0
   40.5870   30.3300   36.0990 H   0  0  0  0  0  0  0  0  0  0  0  0
   37.1330   30.5460   40.8410 C   0  0  0  0  0  0  0  0  0  0  0  0
   35.8730   30.1720   40.4010 C   0  0  0  0  0  0  0  0  0  0  0  0
   35.4820   28.8380   40.6260 C   0  0  0  0  0  0  0  0  0  0  0  0
   36.3710   27.9990   41.2640 N   0  0  0  0  0  0  0  0  0  0  0  0
   37.5700   28.4270   41.6600 C   0  0  0  0  0  0  0  0  0  0  0  0
   37.9440   29.6780   41.4510 N   0  0  0  0  0  0  0  0  0  0  0  0
   35.0970   30.7090   39.8960 H   0  0  0  0  0  0  0  0  0  0  0  0
   34.5510   28.4170   40.3460 H   0  0  0  0  0  0  0  0  0  0  0  0
   38.4650   27.4830   42.3310 C   0  0  0  0  0  0  0  0  0  0  0  0
   39.5070   27.9460   43.1090 C   0  0  0  0  0  0  0  0  0  0  0  0
   40.4010   27.1440   43.7820 C   0  0  0  0  0  0  0  0  0  0  0  0
   40.1650   25.7740   43.6120 C   0  0  0  0  0  0  0  0  0  0  0  0
   39.1280   25.2850   42.8360 C   0  0  0  0  0  0  0  0  0  0  0  0
   38.2680   26.1400   42.1880 N   0  0  0  0  0  0  0  0  0  0  0  0
   39.6190   29.0190   43.1890 H   0  0  0  0  0  0  0  0  0  0  0  0
   41.1830   27.5580   44.3660 H   0  0  0  0  0  0  0  0  0  0  0  0
   40.8520   25.0960   44.1290 H   0  0  0  0  0  0  0  0  0  0  0  0
   39.0380   24.2200   42.7740 H   0  0  0  0  0  0  0  0  0  0  0  0
  1 29  1  0  0  0  0
  1  6  1  0  0  0  0
  1  7  1  1  0  0  0
  2  3  1  0  0  0  0
  2  8  1  0  0  0  0
  2  1  1  0  0  0  0
  3 10  1  0  0  0  0
  3  4  1  0  0  0  0
  4 12  1  0  0  0  0
  4  5  1  0  0  0  0
  5 14  1  0  0  0  0
  5 15  1  0  0  0  0
  6  5  1  0  0  0  0
  6 16  1  1  0  0  0
  9  2  1  0  0  0  0
 11  3  1  0  0  0  0
 13  4  1  0  0  0  0
 18 17  1  0  0  0  0
 18  6  1  0  0  0  0
 19 18  2  0  0  0  0
 20 19  1  0  0  0  0
 21 26  2  0  0  0  0
 21 19  1  0  0  0  0
 22 21  1  0  0  0  0
 23 22  1  0  0  0  0
 23 25  2  0  0  0  0
 24 23  1  0  0  0  0
 25 26  1  0  0  0  0
 26 27  1  0  0  0  0
 27 17  2  0  0  0  0
 28 22  1  0  0  0  0
 29 34  1  0  0  0  0
 30 31  1  0  0  0  0
 30 29  2  0  0  0  0
 31 32  2  0  0  0  0
 32 33  1  0  0  0  0
 33 37  1  0  0  0  0
 34 33  2  0  0  0  0
 35 30  1  0  0  0  0
 36 31  1  0  0  0  0
 37 38  1  0  0  0  0
 38 43  1  0  0  0  0
 38 39  2  0  0  0  0
 39 44  1  0  0  0  0
 40 39  1  0  0  0  0
 40 45  1  0  0  0  0
 41 40  2  0  0  0  0
 42 37  2  0  0  0  0
 42 41  1  0  0  0  0
 46 41  1  0  0  0  0
M  END
>  <minimizedAffinity>
-6.70511675

$$$$

 OpenBabel03252507293D

 46 50  0  0  1  0  0  0  0  0999 V2000
   38.7780   28.0740   42.4280 C   0  0  2  0  0  0  0  0  0  0  0  0
   39.2720   26.8310   41.8550 C   0  0  0  0  0  0  0  0  0  0  0  0
   38.4240   25.6700   42.2630 C   0  0  0  0  0  0  0  0  0  0  0  0
   36.9560   25.9060   42.3620 C   0  0  0  0  0  0  0  0  0  0  0  0
   36.6210   27.2170   42.9740 C   0  0  0  0  0  0  0  0  0  0  0  0
   37.3440   28.3250   42.2060 C   0  0  2  0  0  0  0  0  0  0  0  0
   38.8520   27.8920   43.5710 H   0  0  0  0  0  0  0  0  0  0  0  0
   40.2790   26.6270   42.4030 H   0  0  0  0  0  0  0  0  0  0  0  0
   39.5600   26.7410   40.8260 H   0  0  0  0  0  0  0  0  0  0  0  0
   38.8080   25.1750   43.2080 H   0  0  0  0  0  0  0  0  0  0  0  0
   38.5600   24.8540   41.4870 H   0  0  0  0  0  0  0  0  0  0  0  0
   36.5650   25.1230   43.0620 H   0  0  0  0  0  0  0  0  0  0  0  0
   36.4710   25.6800   41.3980 H   0  0  0  0  0  0  0  0  0  0  0  0
   35.5840   27.4190   43.1580 H   0  0  0  0  0  0  0  0  0  0  0  0
   37.1210   27.2250   43.9870 H   0  0  0  0  0  0  0  0  0  0  0  0
   36.9870   29.2190   42.8530 H   0  0  0  0  0  0  0  0  0  0  0  0
   35.4840   28.9890   40.8860 C   0  0  0  0  0  3  0  0  0  0  0  0
   36.7550   28.3740   40.8980 C   0  0  0  0  0  0  0  0  0  0  0  0
   37.0930   27.9800   39.6460 C   0  0  0  0  0  0  0  0  0  0  0  0
   38.0500   27.4990   39.5900 H   0  0  0  0  0  0  0  0  0  0  0  0
   36.3880   28.1080   38.4720 C   0  0  0  0  0  0  0  0  0  0  0  0
   36.6830   27.7350   37.2160 N   0  0  0  0  0  0  0  0  0  0  0  0
   35.5930   28.1320   36.4980 C   0  0  0  0  0  0  0  0  0  0  0  0
   35.4880   27.9870   35.4240 H   0  0  0  0  0  0  0  0  0  0  0  0
   34.6860   28.7180   37.2910 N   0  0  0  0  0  0  0  0  0  0  0  0
   35.1690   28.7150   38.5470 C   0  0  0  0  0  0  0  0  0  0  0  0
   34.7000   29.1600   39.7380 C   0  0  0  0  0  3  0  0  0  0  0  0
   37.5550   27.2550   36.9090 H   0  0  0  0  0  0  0  0  0  0  0  0
   39.6120   29.2670   42.2530 C   0  0  0  0  0  0  0  0  0  0  0  0
   40.9200   29.2160   42.7110 C   0  0  0  0  0  0  0  0  0  0  0  0
   41.7040   30.3750   42.5510 C   0  0  0  0  0  0  0  0  0  0  0  0
   41.1250   31.4750   41.9550 N   0  0  0  0  0  0  0  0  0  0  0  0
   39.8590   31.4540   41.5370 C   0  0  0  0  0  0  0  0  0  0  0  0
   39.1180   30.3690   41.6820 N   0  0  0  0  0  0  0  0  0  0  0  0
   41.4890   28.4400   43.1790 H   0  0  0  0  0  0  0  0  0  0  0  0
   42.7140   30.4770   42.8540 H   0  0  0  0  0  0  0  0  0  0  0  0
   39.3080   32.6570   40.9120 C   0  0  0  0  0  0  0  0  0  0  0  0
   38.0390   32.6390   40.3700 C   0  0  0  0  0  0  0  0  0  0  0  0
   37.4280   33.7130   39.7640 C   0  0  0  0  0  0  0  0  0  0  0  0
   38.2210   34.8680   39.7380 C   0  0  0  0  0  0  0  0  0  0  0  0
   39.4960   34.9110   40.2730 C   0  0  0  0  0  0  0  0  0  0  0  0
   40.0500   33.8010   40.8660 N   0  0  0  0  0  0  0  0  0  0  0  0
   37.4920   31.7070   40.4330 H   0  0  0  0  0  0  0  0  0  0  0  0
   36.4480   33.6400   39.3660 H   0  0  0  0  0  0  0  0  0  0  0  0
   37.7760   35.7500   39.2650 H   0  0  0  0  0  0  0  0  0  0  0  0
   40.0160   35.8450   40.1990 H   0  0  0  0  0  0  0  0  0  0  0  0
  1  7  1  1  0  0  0
  2  3  1  0  0  0  0
  2  8  1  0  0  0  0
  2  1  1  0  0  0  0
  3  4  1  0  0  0  0
  3 10  1  0  0  0  0
  4  5  1  0  0  0  0
  4 12  1  0  0  0  0
  5 14  1  0  0  0  0
  5 15  1  0  0  0  0
  6  1  1  0  0  0  0
  6 16  1  1  0  0  0
  6  5  1  0  0  0  0
  9  2  1  0  0  0  0
 11  3  1  0  0  0  0
 13  4  1  0  0  0  0
 17 18  1  0  0  0  0
 18  6  1  0  0  0  0
 19 18  2  0  0  0  0
 20 19  1  0  0  0  0
 21 26  2  0  0  0  0
 21 19  1  0  0  0  0
 22 21  1  0  0  0  0
 23 22  1  0  0  0  0
 23 25  2  0  0  0  0
 24 23  1  0  0  0  0
 25 26  1  0  0  0  0
 26 27  1  0  0  0  0
 27 17  2  0  0  0  0
 28 22  1  0  0  0  0
 29  1  1  0  0  0  0
 29 30  1  0  0  0  0
 30 35  1  0  0  0  0
 31 30  2  0  0  0  0
 31 36  1  0  0  0  0
 32 31  1  0  0  0  0
 33 34  1  0  0  0  0
 33 32  2  0  0  0  0
 34 29  2  0  0  0  0
 37 33  1  0  0  0  0
 38 43  1  0  0  0  0
 38 37  2  0  0  0  0
 39 38  1  0  0  0  0
 40 39  2  0  0  0  0
 40 41  1  0  0  0  0
 41 42  2  0  0  0  0
 42 37  1  0  0  0  0
 44 39  1  0  0  0  0
 45 40  1  0  0  0  0
 46 41  1  0  0  0  0
M  END
>  <minimizedAffinity>
-6.58899212

$$$$

 OpenBabel03252507293D

 46 50  0  0  1  0  0  0  0  0999 V2000
   37.4980   28.6750   39.6740 C   0  0  2  0  0  0  0  0  0  0  0  0
   38.5330   28.4520   38.6760 C   0  0  0  0  0  0  0  0  0  0  0  0
   38.0710   28.8550   37.3130 C   0  0  0  0  0  0  0  0  0  0  0  0
   37.2060   30.0650   37.2220 C   0  0  0  0  0  0  0  0  0  0  0  0
   36.2000   30.1400   38.3110 C   0  0  0  0  0  0  0  0  0  0  0  0
   36.9140   30.0270   39.6590 C   0  0  2  0  0  0  0  0  0  0  0  0
   36.6280   27.9970   39.3170 H   0  0  0  0  0  0  0  0  0  0  0  0
   38.6240   27.2940   38.5920 H   0  0  0  0  0  0  0  0  0  0  0  0
   39.5550   28.7420   38.8250 H   0  0  0  0  0  0  0  0  0  0  0  0
   37.5980   27.9890   36.7530 H   0  0  0  0  0  0  0  0  0  0  0  0
   38.9910   29.0770   36.6890 H   0  0  0  0  0  0  0  0  0  0  0  0
   36.6300   29.9600   36.2670 H   0  0  0  0  0  0  0  0  0  0  0  0
   37.8280   30.9630   37.0710 H   0  0  0  0  0  0  0  0  0  0  0  0
   35.4850   30.9380   38.2610 H   0  0  0  0  0  0  0  0  0  0  0  0
   35.6000   29.1850   38.2470 H   0  0  0  0  0  0  0  0  0  0  0  0
   35.9730   30.0660   40.3360 H   0  0  0  0  0  0  0  0  0  0  0  0
   36.9510   32.4030   39.6450 C   0  0  0  0  0  3  0  0  0  0  0  0
   37.7010   31.2180   39.8110 C   0  0  0  0  0  0  0  0  0  0  0  0
   38.9960   31.5200   40.0720 C   0  0  0  0  0  0  0  0  0  0  0  0
   39.6210   30.6580   40.2030 H   0  0  0  0  0  0  0  0  0  0  0  0
   39.5980   32.7520   40.1840 C   0  0  0  0  0  0  0  0  0  0  0  0
   40.8710   33.0960   40.4410 N   0  0  0  0  0  0  0  0  0  0  0  0
   40.8450   34.4610   40.4210 C   0  0  0  0  0  0  0  0  0  0  0  0
   41.7190   35.0860   40.5940 H   0  0  0  0  0  0  0  0  0  0  0  0
   39.6100   34.9110   40.1650 N   0  0  0  0  0  0  0  0  0  0  0  0
   38.8020   33.8460   40.0110 C   0  0  0  0  0  0  0  0  0  0  0  0
   37.4830   33.6950   39.7420 C   0  0  0  0  0  3  0  0  0  0  0  0
   41.6610   32.4390   40.6090 H   0  0  0  0  0  0  0  0  0  0  0  0
   37.7520   28.1650   41.0250 C   0  0  0  0  0  0  0  0  0  0  0  0
   36.6560   27.8300   41.8060 C   0  0  0  0  0  0  0  0  0  0  0  0
   36.9130   27.3580   43.1070 C   0  0  0  0  0  0  0  0  0  0  0  0
   38.2260   27.2610   43.5150 N   0  0  0  0  0  0  0  0  0  0  0  0
   39.2330   27.5990   42.7100 C   0  0  0  0  0  0  0  0  0  0  0  0
   38.9990   28.0430   41.4870 N   0  0  0  0  0  0  0  0  0  0  0  0
   35.6030   27.8520   41.6170 H   0  0  0  0  0  0  0  0  0  0  0  0
   36.1750   27.0680   43.8100 H   0  0  0  0  0  0  0  0  0  0  0  0
   40.6030   27.4700   43.2070 C   0  0  0  0  0  0  0  0  0  0  0  0
   41.4840   28.5260   43.0990 C   0  0  0  0  0  0  0  0  0  0  0  0
   42.7890   28.5090   43.5360 C   0  0  0  0  0  0  0  0  0  0  0  0
   43.1690   27.2940   44.1200 C   0  0  0  0  0  0  0  0  0  0  0  0
   42.3050   26.2200   44.2390 C   0  0  0  0  0  0  0  0  0  0  0  0
   41.0110   26.3010   43.7820 N   0  0  0  0  0  0  0  0  0  0  0  0
   41.1110   29.4300   42.6360 H   0  0  0  0  0  0  0  0  0  0  0  0
   43.4210   29.3530   43.4260 H   0  0  0  0  0  0  0  0  0  0  0  0
   44.2010   27.2320   44.4840 H   0  0  0  0  0  0  0  0  0  0  0  0
   42.6980   25.3370   44.7030 H   0  0  0  0  0  0  0  0  0  0  0  0
  1  7  1  6  0  0  0
  1 29  1  0  0  0  0
  2  9  1  0  0  0  0
  2  1  1  0  0  0  0
  3  2  1  0  0  0  0
  4  3  1  0  0  0  0
  4  5  1  0  0  0  0
  5  6  1  0  0  0  0
  6  1  1  0  0  0  0
  6 18  1  0  0  0  0
  6 16  1  1  0  0  0
  8  2  1  0  0  0  0
 10  3  1  0  0  0  0
 11  3  1  0  0  0  0
 12  4  1  0  0  0  0
 13  4  1  0  0  0  0
 14  5  1  0  0  0  0
 15  5  1  0  0  0  0
 17 27  2  0  0  0  0
 17 18  1  0  0  0  0
 18 19  2  0  0  0  0
 19 21  1  0  0  0  0
 19 20  1  0  0  0  0
 21 22  1  0  0  0  0
 22 28  1  0  0  0  0
 23 22  1  0  0  0  0
 23 24  1  0  0  0  0
 25 23  2  0  0  0  0
 26 25  1  0  0  0  0
 26 21  2  0  0  0  0
 27 26  1  0  0  0  0
 29 34  2  0  0  0  0
 29 30  1  0  0  0  0
 30 31  2  0  0  0  0
 31 32  1  0  0  0  0
 31 36  1  0  0  0  0
 33 37  1  0  0  0  0
 33 32  2  0  0  0  0
 34 33  1  0  0  0  0
 35 30  1  0  0  0  0
 37 42  1  0  0  0  0
 38 37  2  0  0  0  0
 38 39  1  0  0  0  0
 39 40  2  0  0  0  0
 40 41  1  0  0  0  0
 40 45  1  0  0  0  0
 41 46  1  0  0  0  0
 42 41  2  0  0  0  0
 43 38  1  0  0  0  0
 44 39  1  0  0  0  0
M  END
>  <minimizedAffinity>
-6.57765007

$$$$

 OpenBabel03252507293D

 46 50  0  0  1  0  0  0  0  0999 V2000
   37.4840   30.0150   40.4110 C   0  0  2  0  0  0  0  0  0  0  0  0
   36.6430   31.1450   40.7750 C   0  0  0  0  0  0  0  0  0  0  0  0
   36.9920   32.3600   39.9780 C   0  0  0  0  0  0  0  0  0  0  0  0
   37.3700   32.1490   38.5520 C   0  0  0  0  0  0  0  0  0  0  0  0
   38.2330   30.9580   38.3530 C   0  0  0  0  0  0  0  0  0  0  0  0
   37.5470   29.7370   38.9660 C   0  0  2  0  0  0  0  0  0  0  0  0
   38.5540   30.3820   40.6670 H   0  0  0  0  0  0  0  0  0  0  0  0
   36.9760   31.4330   41.8530 H   0  0  0  0  0  0  0  0  0  0  0  0
   35.5800   31.0640   40.8880 H   0  0  0  0  0  0  0  0  0  0  0  0
   37.7670   33.0020   40.5000 H   0  0  0  0  0  0  0  0  0  0  0  0
   36.0820   33.0370   39.9660 H   0  0  0  0  0  0  0  0  0  0  0  0
   37.9870   33.0380   38.2630 H   0  0  0  0  0  0  0  0  0  0  0  0
   36.4750   32.2160   37.9110 H   0  0  0  0  0  0  0  0  0  0  0  0
   38.6170   30.7920   37.3650 H   0  0  0  0  0  0  0  0  0  0  0  0
   39.1370   31.1150   39.0120 H   0  0  0  0  0  0  0  0  0  0  0  0
   38.3800   28.9620   38.7420 H   0  0  0  0  0  0  0  0  0  0  0  0
   36.6480   29.4440   36.7860 C   0  0  0  0  0  3  0  0  0  0  0  0
   36.3800   29.4750   38.1720 C   0  0  0  0  0  0  0  0  0  0  0  0
   35.0620   29.2490   38.3960 C   0  0  0  0  0  0  0  0  0  0  0  0
   34.7930   29.2660   39.4340 H   0  0  0  0  0  0  0  0  0  0  0  0
   34.0530   29.0110   37.4910 C   0  0  0  0  0  0  0  0  0  0  0  0
   32.7410   28.7830   37.6680 N   0  0  0  0  0  0  0  0  0  0  0  0
   32.2690   28.6240   36.3970 C   0  0  0  0  0  0  0  0  0  0  0  0
   31.2270   28.4190   36.1590 H   0  0  0  0  0  0  0  0  0  0  0  0
   33.2570   28.7510   35.5020 N   0  0  0  0  0  0  0  0  0  0  0  0
   34.3970   28.9970   36.1720 C   0  0  0  0  0  0  0  0  0  0  0  0
   35.6830   29.2100   35.7990 C   0  0  0  0  0  3  0  0  0  0  0  0
   32.2440   28.7450   38.5820 H   0  0  0  0  0  0  0  0  0  0  0  0
   37.3700   28.8060   41.2330 C   0  0  0  0  0  0  0  0  0  0  0  0
   37.3610   28.9590   42.6110 C   0  0  0  0  0  0  0  0  0  0  0  0
   37.2680   27.7880   43.3880 C   0  0  0  0  0  0  0  0  0  0  0  0
   37.1920   26.5780   42.7330 N   0  0  0  0  0  0  0  0  0  0  0  0
   37.2040   26.5040   41.4020 C   0  0  0  0  0  0  0  0  0  0  0  0
   37.2900   27.5990   40.6670 N   0  0  0  0  0  0  0  0  0  0  0  0
   37.4080   29.8230   43.2400 H   0  0  0  0  0  0  0  0  0  0  0  0
   37.2520   27.7560   44.4470 H   0  0  0  0  0  0  0  0  0  0  0  0
   37.1190   25.1860   40.7720 C   0  0  0  0  0  0  0  0  0  0  0  0
   37.8690   24.1340   41.2560 C   0  0  0  0  0  0  0  0  0  0  0  0
   37.8590   22.8590   40.7390 C   0  0  0  0  0  0  0  0  0  0  0  0
   37.0010   22.7040   39.6430 C   0  0  0  0  0  0  0  0  0  0  0  0
   36.2390   23.7430   39.1380 C   0  0  0  0  0  0  0  0  0  0  0  0
   36.2930   24.9970   39.7010 N   0  0  0  0  0  0  0  0  0  0  0  0
   38.5060   24.3380   42.1060 H   0  0  0  0  0  0  0  0  0  0  0  0
   38.4580   22.0890   41.1540 H   0  0  0  0  0  0  0  0  0  0  0  0
   36.9600   21.7050   39.1970 H   0  0  0  0  0  0  0  0  0  0  0  0
   35.6150   23.5160   38.2970 H   0  0  0  0  0  0  0  0  0  0  0  0
  1  7  1  1  0  0  0
  1  2  1  0  0  0  0
  1 29  1  0  0  0  0
  2  9  1  0  0  0  0
  2  8  1  0  0  0  0
  3 10  1  0  0  0  0
  3  2  1  0  0  0  0
  4  3  1  0  0  0  0
  5  4  1  0  0  0  0
  5  6  1  0  0  0  0
  5 15  1  0  0  0  0
  6 16  1  6  0  0  0
  6  1  1  0  0  0  0
 11  3  1  0  0  0  0
 12  4  1  0  0  0  0
 13  4  1  0  0  0  0
 14  5  1  0  0  0  0
 17 18  1  0  0  0  0
 18 19  2  0  0  0  0
 18  6  1  0  0  0  0
 19 20  1  0  0  0  0
 21 22  1  0  0  0  0
 21 19  1  0  0  0  0
 22 28  1  0  0  0  0
 23 22  1  0  0  0  0
 24 23  1  0  0  0  0
 25 26  1  0  0  0  0
 25 23  2  0  0  0  0
 26 21  2  0  0  0  0
 27 26  1  0  0  0  0
 27 17  2  0  0  0  0
 29 30  1  0  0  0  0
 30 35  1  0  0  0  0
 30 31  2  0  0  0  0
 31 36  1  0  0  0  0
 32 31  1  0  0  0  0
 33 32  2  0  0  0  0
 34 29  2  0  0  0  0
 34 33  1  0  0  0  0
 37 38  1  0  0  0  0
 37 33  1  0  0  0  0
 38 43  1  0  0  0  0
 39 44  1  0  0  0  0
 39 38  2  0  0  0  0
 40 39  1  0  0  0  0
 41 40  2  0  0  0  0
 41 42  1  0  0  0  0
 42 37  2  0  0  0  0
 45 40  1  0  0  0  0
 46 41  1  0  0  0  0
M  END
>  <minimizedAffinity>
-6.57416105

$$$$

 OpenBabel03252507293D

 46 50  0  0  1  0  0  0  0  0999 V2000
   37.7090   30.2570   40.4730 C   0  0  2  0  0  0  0  0  0  0  0  0
   36.7610   31.3010   40.8290 C   0  0  0  0  0  0  0  0  0  0  0  0
   36.9900   32.5400   40.0270 C   0  0  0  0  0  0  0  0  0  0  0  0
   37.3890   32.3610   38.6030 C   0  0  0  0  0  0  0  0  0  0  0  0
   38.3650   31.2590   38.4110 C   0  0  0  0  0  0  0  0  0  0  0  0
   37.8010   29.9790   39.0290 C   0  0  2  0  0  0  0  0  0  0  0  0
   38.7380   30.7280   40.7270 H   0  0  0  0  0  0  0  0  0  0  0  0
   37.0620   31.6250   41.9070 H   0  0  0  0  0  0  0  0  0  0  0  0
   35.7100   31.1170   40.9420 H   0  0  0  0  0  0  0  0  0  0  0  0
   37.6980   33.2580   40.5470 H   0  0  0  0  0  0  0  0  0  0  0  0
   36.0180   33.1250   40.0110 H   0  0  0  0  0  0  0  0  0  0  0  0
   37.9170   33.3040   38.3100 H   0  0  0  0  0  0  0  0  0  0  0  0
   36.4930   32.3360   37.9600 H   0  0  0  0  0  0  0  0  0  0  0  0
   38.7650   31.1270   37.4240 H   0  0  0  0  0  0  0  0  0  0  0  0
   39.2480   31.5070   39.0700 H   0  0  0  0  0  0  0  0  0  0  0  0
   38.7070   29.2890   38.8090 H   0  0  0  0  0  0  0  0  0  0  0  0
   36.9570   29.5220   36.8550 C   0  0  0  0  0  3  0  0  0  0  0  0
   36.6660   29.6000   38.2350 C   0  0  0  0  0  0  0  0  0  0  0  0
   35.3640   29.2950   38.4540 C   0  0  0  0  0  0  0  0  0  0  0  0
   35.0790   29.3420   39.4870 H   0  0  0  0  0  0  0  0  0  0  0  0
   34.3870   28.9460   37.5500 C   0  0  0  0  0  0  0  0  0  0  0  0
   33.0910   28.6360   37.7220 N   0  0  0  0  0  0  0  0  0  0  0  0
   32.6510   28.3850   36.4550 C   0  0  0  0  0  0  0  0  0  0  0  0
   31.6280   28.0990   36.2150 H   0  0  0  0  0  0  0  0  0  0  0  0
   33.6410   28.5380   35.5660 N   0  0  0  0  0  0  0  0  0  0  0  0
   34.7510   28.8930   36.2370 C   0  0  0  0  0  0  0  0  0  0  0  0
   36.0250   29.1760   35.8700 C   0  0  0  0  0  3  0  0  0  0  0  0
   32.5840   28.6080   38.6310 H   0  0  0  0  0  0  0  0  0  0  0  0
   37.7120   29.0460   41.3000 C   0  0  0  0  0  0  0  0  0  0  0  0
   36.4920   28.5680   41.7510 C   0  0  0  0  0  0  0  0  0  0  0  0
   36.5100   27.4150   42.5590 C   0  0  0  0  0  0  0  0  0  0  0  0
   37.7310   26.8420   42.8450 N   0  0  0  0  0  0  0  0  0  0  0  0
   38.8680   27.3550   42.3750 C   0  0  0  0  0  0  0  0  0  0  0  0
   38.8580   28.4370   41.6160 N   0  0  0  0  0  0  0  0  0  0  0  0
   35.4870   28.9050   41.6040 H   0  0  0  0  0  0  0  0  0  0  0  0
   35.6570   26.9430   42.9730 H   0  0  0  0  0  0  0  0  0  0  0  0
   40.1290   26.6950   42.7170 C   0  0  0  0  0  0  0  0  0  0  0  0
   40.8410   27.0910   43.8320 C   0  0  0  0  0  0  0  0  0  0  0  0
   42.0320   26.5360   44.2410 C   0  0  0  0  0  0  0  0  0  0  0  0
   42.4840   25.5020   43.4110 C   0  0  0  0  0  0  0  0  0  0  0  0
   41.7890   25.0870   42.2880 C   0  0  0  0  0  0  0  0  0  0  0  0
   40.6020   25.6840   41.9330 N   0  0  0  0  0  0  0  0  0  0  0  0
   40.4220   27.8970   44.4190 H   0  0  0  0  0  0  0  0  0  0  0  0
   42.5350   26.8820   45.1080 H   0  0  0  0  0  0  0  0  0  0  0  0
   43.4290   25.0290   43.6980 H   0  0  0  0  0  0  0  0  0  0  0  0
   42.2240   24.2870   41.7240 H   0  0  0  0  0  0  0  0  0  0  0  0
  1  7  1  1  0  0  0
  1  2  1  0  0  0  0
  1 29  1  0  0  0  0
  2  9  1  0  0  0  0
  2  8  1  0  0  0  0
  3 10  1  0  0  0  0
  3  2  1  0  0  0  0
  4  3  1  0  0  0  0
  5  4  1  0  0  0  0
  5  6  1  0  0  0  0
  5 15  1  0  0  0  0
  6 16  1  6  0  0  0
  6  1  1  0  0  0  0
 11  3  1  0  0  0  0
 12  4  1  0  0  0  0
 13  4  1  0  0  0  0
 14  5  1  0  0  0  0
 17 18  1  0  0  0  0
 18 19  2  0  0  0  0
 18  6  1  0  0  0  0
 19 20  1  0  0  0  0
 21 22  1  0  0  0  0
 21 19  1  0  0  0  0
 22 28  1  0  0  0  0
 23 22  1  0  0  0  0
 24 23  1  0  0  0  0
 25 26  1  0  0  0  0
 25 23  2  0  0  0  0
 26 21  2  0  0  0  0
 27 26  1  0  0  0  0
 27 17  2  0  0  0  0
 29 34  2  0  0  0  0
 29 30  1  0  0  0  0
 30 31  2  0  0  0  0
 31 32  1  0  0  0  0
 31 36  1  0  0  0  0
 33 37  1  0  0  0  0
 33 32  2  0  0  0  0
 34 33  1  0  0  0  0
 35 30  1  0  0  0  0
 37 38  1  0  0  0  0
 38 39  2  0  0  0  0
 38 43  1  0  0  0  0
 39 44  1  0  0  0  0
 40 45  1  0  0  0  0
 40 39  1  0  0  0  0
 41 40  2  0  0  0  0
 42 41  1  0  0  0  0
 42 37  2  0  0  0  0
 46 41  1  0  0  0  0
M  END
>  <minimizedAffinity>
-6.48014212

$$$$

 OpenBabel03252507293D

 46 50  0  0  1  0  0  0  0  0999 V2000
   38.9790   26.7480   43.2240 C   0  0  2  0  0  0  0  0  0  0  0  0
   38.2200   26.1820   42.1200 C   0  0  0  0  0  0  0  0  0  0  0  0
   36.7530   26.1920   42.4070 C   0  0  0  0  0  0  0  0  0  0  0  0
   36.2160   27.3690   43.1440 C   0  0  0  0  0  0  0  0  0  0  0  0
   37.1080   27.8190   44.2420 C   0  0  0  0  0  0  0  0  0  0  0  0
   38.5080   28.0680   43.6780 C   0  0  2  0  0  0  0  0  0  0  0  0
   38.7290   26.0460   44.1120 H   0  0  0  0  0  0  0  0  0  0  0  0
   38.4820   25.0470   42.1260 H   0  0  0  0  0  0  0  0  0  0  0  0
   38.4020   26.4430   41.0950 H   0  0  0  0  0  0  0  0  0  0  0  0
   36.4100   25.2290   42.8980 H   0  0  0  0  0  0  0  0  0  0  0  0
   36.2070   26.1660   41.4130 H   0  0  0  0  0  0  0  0  0  0  0  0
   35.2690   27.0220   43.6300 H   0  0  0  0  0  0  0  0  0  0  0  0
   35.8910   28.1450   42.4310 H   0  0  0  0  0  0  0  0  0  0  0  0
   36.7460   28.6080   44.8740 H   0  0  0  0  0  0  0  0  0  0  0  0
   37.2470   26.9250   44.9180 H   0  0  0  0  0  0  0  0  0  0  0  0
   39.0260   28.3590   44.6740 H   0  0  0  0  0  0  0  0  0  0  0  0
   39.6060   29.9430   42.7180 C   0  0  0  0  0  3  0  0  0  0  0  0
   38.4070   29.2030   42.8050 C   0  0  0  0  0  0  0  0  0  0  0  0
   37.4530   29.7700   42.0280 C   0  0  0  0  0  0  0  0  0  0  0  0
   36.5120   29.2550   42.0560 H   0  0  0  0  0  0  0  0  0  0  0  0
   37.5290   30.8910   41.2340 C   0  0  0  0  0  0  0  0  0  0  0  0
   36.6130   31.4860   40.4510 N   0  0  0  0  0  0  0  0  0  0  0  0
   37.2840   32.5520   39.9260 C   0  0  0  0  0  0  0  0  0  0  0  0
   36.8410   33.2660   39.2340 H   0  0  0  0  0  0  0  0  0  0  0  0
   38.5450   32.5910   40.3750 N   0  0  0  0  0  0  0  0  0  0  0  0
   38.7230   31.5480   41.2060 C   0  0  0  0  0  0  0  0  0  0  0  0
   39.7700   31.0930   41.9370 C   0  0  0  0  0  3  0  0  0  0  0  0
   35.6310   31.1700   40.3100 H   0  0  0  0  0  0  0  0  0  0  0  0
   40.4400   26.6440   43.1520 C   0  0  0  0  0  0  0  0  0  0  0  0
   41.1740   27.0910   44.2410 C   0  0  0  0  0  0  0  0  0  0  0  0
   42.5760   27.0010   44.1520 C   0  0  0  0  0  0  0  0  0  0  0  0
   43.1220   26.4800   42.9990 N   0  0  0  0  0  0  0  0  0  0  0  0
   42.3550   26.0670   41.9900 C   0  0  0  0  0  0  0  0  0  0  0  0
   41.0380   26.1480   42.0670 N   0  0  0  0  0  0  0  0  0  0  0  0
   40.8840   27.5060   45.1830 H   0  0  0  0  0  0  0  0  0  0  0  0
   43.2580   27.3050   44.9040 H   0  0  0  0  0  0  0  0  0  0  0  0
   43.0010   25.5230   40.7950 C   0  0  0  0  0  0  0  0  0  0  0  0
   42.2390   25.0040   39.7680 C   0  0  0  0  0  0  0  0  0  0  0  0
   42.7470   24.4720   38.6040 C   0  0  0  0  0  0  0  0  0  0  0  0
   44.1460   24.4990   38.5380 C   0  0  0  0  0  0  0  0  0  0  0  0
   44.9320   25.0130   39.5540 C   0  0  0  0  0  0  0  0  0  0  0  0
   44.3620   25.5310   40.6940 N   0  0  0  0  0  0  0  0  0  0  0  0
   41.1650   25.0220   39.8980 H   0  0  0  0  0  0  0  0  0  0  0  0
   42.1100   24.0870   37.8480 H   0  0  0  0  0  0  0  0  0  0  0  0
   44.5950   24.0860   37.6290 H   0  0  0  0  0  0  0  0  0  0  0  0
   45.9920   24.9850   39.4020 H   0  0  0  0  0  0  0  0  0  0  0  0
  1  6  1  0  0  0  0
  1  7  1  1  0  0  0
  2  8  1  0  0  0  0
  2  3  1  0  0  0  0
  2  1  1  0  0  0  0
  3 10  1  0  0  0  0
  3  4  1  0  0  0  0
  4 12  1  0  0  0  0
  4  5  1  0  0  0  0
  5 14  1  0  0  0  0
  5 15  1  0  0  0  0
  6  5  1  0  0  0  0
  6 16  1  1  0  0  0
  9  2  1  0  0  0  0
 11  3  1  0  0  0  0
 13  4  1  0  0  0  0
 17 18  1  0  0  0  0
 18  6  1  0  0  0  0
 19 20  1  0  0  0  0
 19 18  2  0  0  0  0
 21 19  1  0  0  0  0
 22 21  1  0  0  0  0
 23 25  2  0  0  0  0
 23 22  1  0  0  0  0
 24 23  1  0  0  0  0
 25 26  1  0  0  0  0
 26 21  2  0  0  0  0
 26 27  1  0  0  0  0
 27 17  2  0  0  0  0
 28 22  1  0  0  0  0
 29  1  1  0  0  0  0
 29 30  1  0  0  0  0
 30 35  1  0  0  0  0
 31 30  2  0  0  0  0
 31 36  1  0  0  0  0
 32 31  1  0  0  0  0
 33 34  1  0  0  0  0
 33 32  2  0  0  0  0
 34 29  2  0  0  0  0
 37 33  1  0  0  0  0
 38 43  1  0  0  0  0
 38 37  2  0  0  0  0
 39 38  1  0  0  0  0
 40 39  2  0  0  0  0
 40 41  1  0  0  0  0
 41 42  2  0  0  0  0
 42 37  1  0  0  0  0
 44 39  1  0  0  0  0
 45 40  1  0  0  0  0
 46 41  1  0  0  0  0
M  END
>  <minimizedAffinity>
-6.32975721

$$$$
