
 OpenBabel03252507193D

 47 51  0  0  1  0  0  0  0  0999 V2000
   46.9860   33.1480   43.0920 C   0  0  0  0  0  0  0  0  0  0  0  0
   48.1270   32.9550   43.5920 O   0  0  0  0  0  0  0  0  0  0  0  0
   46.4790   32.4650   41.9330 N   0  0  0  0  0  0  0  0  0  0  0  0
   45.1850   31.8600   41.6780 C   0  0  0  0  0  0  0  0  0  0  0  0
   44.6370   32.4030   40.3440 C   0  0  0  0  0  0  0  0  0  0  0  0
   45.5470   31.9790   39.2160 C   0  0  0  0  0  0  0  0  0  0  0  0
   46.8380   31.4430   39.7730 C   0  0  0  0  0  0  0  0  0  0  0  0
   47.4060   32.3640   40.8260 C   0  0  2  0  0  0  0  0  0  0  0  0
   44.4560   32.2740   42.4330 H   0  0  0  0  0  0  0  0  0  0  0  0
   45.1730   30.7720   41.6980 H   0  0  0  0  0  0  0  0  0  0  0  0
   43.6130   31.9890   40.2360 H   0  0  0  0  0  0  0  0  0  0  0  0
   44.6390   33.5140   40.4610 H   0  0  0  0  0  0  0  0  0  0  0  0
   45.8310   32.8880   38.6210 H   0  0  0  0  0  0  0  0  0  0  0  0
   45.1050   31.2050   38.5600 H   0  0  0  0  0  0  0  0  0  0  0  0
   46.6620   30.4280   40.1860 H   0  0  0  0  0  0  0  0  0  0  0  0
   47.6110   31.3710   38.9830 H   0  0  0  0  0  0  0  0  0  0  0  0
   47.4640   33.3720   40.3710 H   0  0  0  0  0  0  0  0  0  0  0  0
   49.9000   32.7410   41.2320 C   0  0  0  0  0  3  0  0  0  0  0  0
   48.7700   31.9500   41.2220 C   0  0  0  0  0  0  0  0  0  0  0  0
   49.0050   30.6360   41.6380 C   0  0  0  0  0  0  0  0  0  0  0  0
   48.1270   29.9760   41.6440 H   0  0  0  0  0  0  0  0  0  0  0  0
   50.2200   30.1210   42.0320 C   0  0  0  0  0  0  0  0  0  0  0  0
   50.5650   28.8910   42.4490 N   0  0  0  0  0  0  0  0  0  0  0  0
   51.8830   28.9470   42.7040 C   0  0  0  0  0  0  0  0  0  0  0  0
   52.4510   28.0940   43.0600 H   0  0  0  0  0  0  0  0  0  0  0  0
   52.3460   30.2030   42.4460 N   0  0  0  0  0  0  0  0  0  0  0  0
   51.3090   30.9620   42.0200 C   0  0  0  0  0  0  0  0  0  0  0  0
   51.1350   32.2700   41.6180 C   0  0  0  0  0  3  0  0  0  0  0  0
   49.8920   28.0810   42.5380 H   0  0  0  0  0  0  0  0  0  0  0  0
   45.7590   35.2670   42.9920 C   0  0  0  0  0  0  0  0  0  0  0  0
   46.1330   34.1230   43.7330 C   0  0  0  0  0  0  0  0  0  0  0  0
   45.6770   33.9750   45.0290 C   0  0  0  0  0  0  0  0  0  0  0  0
   44.8860   34.9380   45.5440 N   0  0  0  0  0  0  0  0  0  0  0  0
   44.5200   36.0420   44.8420 C   0  0  0  0  0  0  0  0  0  0  0  0
   44.9650   36.1860   43.5760 N   0  0  0  0  0  0  0  0  0  0  0  0
   46.0990   35.4140   41.9740 H   0  0  0  0  0  0  0  0  0  0  0  0
   43.8870   36.8040   45.2640 H   0  0  0  0  0  0  0  0  0  0  0  0
   46.0770   32.7970   45.7720 C   0  0  0  0  0  0  0  0  0  0  0  0
   45.5930   31.5720   45.4190 C   0  0  0  0  0  0  0  0  0  0  0  0
   45.9820   30.4610   46.1370 C   0  0  0  0  0  0  0  0  0  0  0  0
   46.8550   30.5300   47.2150 C   0  0  0  0  0  0  0  0  0  0  0  0
   47.3150   31.8060   47.5280 C   0  0  0  0  0  0  0  0  0  0  0  0
   46.9150   32.8680   46.8080 N   0  0  0  0  0  0  0  0  0  0  0  0
   44.9100   31.3560   44.6150 H   0  0  0  0  0  0  0  0  0  0  0  0
   45.6330   29.4630   45.9050 H   0  0  0  0  0  0  0  0  0  0  0  0
   47.1860   29.6920   47.8030 H   0  0  0  0  0  0  0  0  0  0  0  0
   48.0060   32.0050   48.3530 H   0  0  0  0  0  0  0  0  0  0  0  0
  1  2  2  0  0  0  0
  1 31  1  0  0  0  0
  3  1  1  0  0  0  0
  4 10  1  0  0  0  0
  4  3  1  0  0  0  0
  4  9  1  0  0  0  0
  5 12  1  0  0  0  0
  5  4  1  0  0  0  0
  6  7  1  0  0  0  0
  6  5  1  0  0  0  0
  7 15  1  0  0  0  0
  7  8  1  0  0  0  0
  8 17  1  6  0  0  0
  8 19  1  0  0  0  0
  8  3  1  0  0  0  0
 11  5  1  0  0  0  0
 13  6  1  0  0  0  0
 14  6  1  0  0  0  0
 16  7  1  0  0  0  0
 18 28  1  0  0  0  0
 19 18  2  0  0  0  0
 19 20  1  0  0  0  0
 20 21  1  0  0  0  0
 20 22  2  0  0  0  0
 22 23  1  0  0  0  0
 23 29  1  0  0  0  0
 23 24  1  0  0  0  0
 24 25  1  0  0  0  0
 26 24  2  0  0  0  0
 27 22  1  0  0  0  0
 27 26  1  0  0  0  0
 28 27  2  0  0  0  0
 30 35  2  0  0  0  0
 30 31  1  0  0  0  0
 31 32  2  0  0  0  0
 32 33  1  0  0  0  0
 32 38  1  0  0  0  0
 34 37  1  0  0  0  0
 34 33  2  0  0  0  0
 35 34  1  0  0  0  0
 36 30  1  0  0  0  0
 38 43  1  0  0  0  0
 39 38  2  0  0  0  0
 39 40  1  0  0  0  0
 40 41  2  0  0  0  0
 41 42  1  0  0  0  0
 41 46  1  0  0  0  0
 42 47  1  0  0  0  0
 43 42  2  0  0  0  0
 44 39  1  0  0  0  0
 45 40  1  0  0  0  0
M  END
>  <minimizedAffinity>
-5.42053509

>  <minimizedRMSD>
1.41793942

$$$$
