
 OpenBabel03252508393D

 44 48  0  0  0  0  0  0  0  0999 V2000
   45.1100   33.9710   40.7430 C   0  0  0  0  0  0  0  0  0  0  0  0
   44.0640   33.6240   39.9380 C   0  0  0  0  0  0  0  0  0  0  0  0
   44.3640   33.0870   38.7150 C   0  0  0  0  0  0  0  0  0  0  0  0
   45.6480   32.8830   38.2650 C   0  0  0  0  0  0  0  0  0  0  0  0
   46.6770   33.2480   39.1090 C   0  0  0  0  0  0  0  0  0  0  0  0
   46.4260   33.7940   40.3550 C   0  0  0  0  0  0  0  0  0  0  0  0
   43.5410   32.8080   38.0710 H   0  0  0  0  0  0  0  0  0  0  0  0
   45.8160   32.4590   37.3000 H   0  0  0  0  0  0  0  0  0  0  0  0
   47.7010   33.0900   38.7590 H   0  0  0  0  0  0  0  0  0  0  0  0
   40.7850   35.2890   40.8140 C   0  0  0  0  0  0  0  0  0  0  0  0
   42.0880   35.1090   40.3050 C   0  0  0  0  0  0  0  0  0  0  0  0
   42.7210   33.8530   40.4490 C   0  0  0  0  0  0  0  0  0  0  0  0
   41.9950   32.9120   41.0830 N   0  0  0  0  0  0  0  0  0  0  0  0
   40.7680   33.1030   41.5560 C   0  0  0  0  0  0  0  0  0  0  0  0
   40.1650   34.2950   41.4200 N   0  0  0  0  0  0  0  0  0  0  0  0
   40.1990   36.5720   40.6410 N   0  0  0  0  0  0  0  0  0  0  0  0
   42.6330   35.9000   39.8010 H   0  0  0  0  0  0  0  0  0  0  0  0
   40.2390   32.2990   42.0580 H   0  0  0  0  0  0  0  0  0  0  0  0
   39.9160   37.0620   39.7500 H   0  0  0  0  0  0  0  0  0  0  0  0
   39.9810   37.1940   41.4500 H   0  0  0  0  0  0  0  0  0  0  0  0
   47.5790   34.1440   41.1580 C   0  0  0  0  0  0  0  0  0  0  0  0
   48.1420   35.3770   40.8870 C   0  0  0  0  0  0  0  0  0  0  0  0
   49.2530   35.8920   41.5500 C   0  0  0  0  0  0  0  0  0  0  0  0
   49.8140   35.1000   42.5410 C   0  0  0  0  0  0  0  0  0  0  0  0
   49.2680   33.8630   42.8300 C   0  0  0  0  0  0  0  0  0  0  0  0
   48.1650   33.3990   42.1430 C   0  0  0  0  0  0  0  0  0  0  0  0
   47.7690   36.0690   40.1250 H   0  0  0  0  0  0  0  0  0  0  0  0
   49.6890   36.8400   41.3450 H   0  0  0  0  0  0  0  0  0  0  0  0
   50.6790   35.4420   43.0940 H   0  0  0  0  0  0  0  0  0  0  0  0
   49.6650   33.1950   43.5980 H   0  0  0  0  0  0  0  0  0  0  0  0
   46.8820   32.0930   43.6440 C   0  0  0  0  0  3  0  0  0  0  0  0
   47.5750   32.0990   42.4290 C   0  0  0  0  0  0  0  0  0  0  0  0
   47.5950   30.9230   41.7100 C   0  0  0  0  0  0  0  0  0  0  0  0
   48.1500   31.0200   40.7870 H   0  0  0  0  0  0  0  0  0  0  0  0
   46.9500   29.8080   42.1940 C   0  0  0  0  0  0  0  0  0  0  0  0
   46.8560   28.5920   41.6500 N   0  0  0  0  0  0  0  0  0  0  0  0
   46.1230   27.8100   42.4810 C   0  0  0  0  0  0  0  0  0  0  0  0
   45.8700   26.7650   42.3160 H   0  0  0  0  0  0  0  0  0  0  0  0
   45.7710   28.5700   43.5440 N   0  0  0  0  0  0  0  0  0  0  0  0
   46.2800   29.8130   43.3760 C   0  0  0  0  0  0  0  0  0  0  0  0
   46.2320   30.9660   44.1330 C   0  0  0  0  0  3  0  0  0  0  0  0
   47.2620   28.2610   40.7410 H   0  0  0  0  0  0  0  0  0  0  0  0
   44.6980   35.0250   43.1100 N   0  0  0  0  0  0  0  0  0  0  0  0
   44.8780   34.5480   42.0510 C   0  0  0  0  0  0  0  0  0  0  0  0
  1 44  1  0  0  0  0
  2 12  1  0  0  0  0
  2  1  2  0  0  0  0
  3  2  1  0  0  0  0
  4  3  2  0  0  0  0
  4  5  1  0  0  0  0
  5  6  2  0  0  0  0
  6  1  1  0  0  0  0
  6 21  1  0  0  0  0
  7  3  1  0  0  0  0
  8  4  1  0  0  0  0
  9  5  1  0  0  0  0
 10 15  1  0  0  0  0
 11 12  1  0  0  0  0
 11 10  2  0  0  0  0
 12 13  2  0  0  0  0
 13 14  1  0  0  0  0
 14 18  1  0  0  0  0
 15 14  2  0  0  0  0
 16 10  1  0  0  0  0
 16 20  1  0  0  0  0
 17 11  1  0  0  0  0
 19 16  1  0  0  0  0
 21 26  1  0  0  0  0
 22 21  2  0  0  0  0
 22 23  1  0  0  0  0
 23 24  2  0  0  0  0
 24 25  1  0  0  0  0
 24 29  1  0  0  0  0
 25 30  1  0  0  0  0
 26 32  1  0  0  0  0
 26 25  2  0  0  0  0
 27 22  1  0  0  0  0
 28 23  1  0  0  0  0
 31 41  1  0  0  0  0
 32 31  2  0  0  0  0
 33 35  2  0  0  0  0
 33 32  1  0  0  0  0
 34 33  1  0  0  0  0
 35 40  1  0  0  0  0
 36 35  1  0  0  0  0
 36 37  1  0  0  0  0
 37 39  2  0  0  0  0
 38 37  1  0  0  0  0
 40 39  1  0  0  0  0
 40 41  2  0  0  0  0
 42 36  1  0  0  0  0
 44 43  3  0  0  0  0
M  END
>  <minimizedAffinity>
-6.13215065

>  <minimizedRMSD>
0.360853583

$$$$
