
 OpenBabel03242516013D

 31 34  0  0  0  0  0  0  0  0999 V2000
   38.6030   27.7290   39.7050 Cl  0  0  0  0  0  0  0  0  0  0  0  0
   37.8050   27.5110   41.2490 C   0  0  0  0  0  0  0  0  0  0  0  0
   37.3340   26.2930   41.6340 C   0  0  0  0  0  0  0  0  0  0  0  0
   36.7270   26.2340   42.8610 C   0  0  0  0  0  0  0  0  0  0  0  0
   36.5820   27.3130   43.6780 C   0  0  0  0  0  0  0  0  0  0  0  0
   37.0600   28.5420   43.2820 C   0  0  0  0  0  0  0  0  0  0  0  0
   37.6760   28.6250   42.0500 C   0  0  0  0  0  0  0  0  0  0  0  0
   36.3420   25.2670   43.1910 H   0  0  0  0  0  0  0  0  0  0  0  0
   36.0890   27.1790   44.6310 H   0  0  0  0  0  0  0  0  0  0  0  0
   36.9270   29.3590   43.9480 H   0  0  0  0  0  0  0  0  0  0  0  0
   39.4230   30.4470   41.9370 C   0  0  0  0  0  3  0  0  0  0  0  0
   38.1600   29.9510   41.6870 C   0  0  0  0  0  0  0  0  0  0  0  0
   37.2790   30.8130   41.0250 C   0  0  0  0  0  0  0  0  0  0  0  0
   36.2520   30.5370   40.7700 H   0  0  0  0  0  0  0  0  0  0  0  0
   37.6290   32.0800   40.6380 C   0  0  0  0  0  0  0  0  0  0  0  0
   37.0420   33.1150   40.0110 N   0  0  0  0  0  0  0  0  0  0  0  0
   37.8600   34.1600   39.8810 C   0  0  0  0  0  0  0  0  0  0  0  0
   37.7580   35.1370   39.4500 H   0  0  0  0  0  0  0  0  0  0  0  0
   39.0450   33.7940   40.4510 N   0  0  0  0  0  0  0  0  0  0  0  0
   38.8990   32.5380   40.9060 C   0  0  0  0  0  0  0  0  0  0  0  0
   39.7960   31.7190   41.5570 C   0  0  0  0  0  3  0  0  0  0  0  0
   36.0600   33.1200   39.6590 H   0  0  0  0  0  0  0  0  0  0  0  0
   36.7340   23.6880   38.9450 C   0  0  0  0  0  0  0  0  0  0  0  0
   36.5450   24.7840   39.7960 C   0  0  0  0  0  0  0  0  0  0  0  0
   37.5040   25.1670   40.7430 C   0  0  0  0  0  0  0  0  0  0  0  0
   38.6230   24.3980   40.7740 N   0  0  0  0  0  0  0  0  0  0  0  0
   38.7920   23.3460   39.9480 C   0  0  0  0  0  0  0  0  0  0  0  0
   37.8740   22.9870   39.0480 N   0  0  0  0  0  0  0  0  0  0  0  0
   35.9140   23.4990   38.2570 H   0  0  0  0  0  0  0  0  0  0  0  0
   35.6560   25.3900   39.7690 H   0  0  0  0  0  0  0  0  0  0  0  0
   39.7210   22.7590   40.0180 H   0  0  0  0  0  0  0  0  0  0  0  0
  1  2  1  0  0  0  0
  2  3  2  0  0  0  0
  2  7  1  0  0  0  0
  3  4  1  0  0  0  0
  4  8  1  0  0  0  0
  4  5  2  0  0  0  0
  5  9  1  0  0  0  0
  6  5  1  0  0  0  0
  6 10  1  0  0  0  0
  7  6  2  0  0  0  0
 12 11  1  0  0  0  0
 12  7  1  0  0  0  0
 13 12  2  0  0  0  0
 14 13  1  0  0  0  0
 15 20  2  0  0  0  0
 15 13  1  0  0  0  0
 16 15  1  0  0  0  0
 17 16  1  0  0  0  0
 17 19  2  0  0  0  0
 18 17  1  0  0  0  0
 19 20  1  0  0  0  0
 20 21  1  0  0  0  0
 21 11  2  0  0  0  0
 22 16  1  0  0  0  0
 23 28  2  0  0  0  0
 23 24  1  0  0  0  0
 24 25  2  0  0  0  0
 25 26  1  0  0  0  0
 25  3  1  0  0  0  0
 27 31  1  0  0  0  0
 27 26  2  0  0  0  0
 28 27  1  0  0  0  0
 29 23  1  0  0  0  0
 30 24  1  0  0  0  0
M  END
>  <minimizedAffinity>
-6.06425428

$$$$

 OpenBabel03242516013D

 31 34  0  0  0  0  0  0  0  0999 V2000
   38.0780   27.9760   39.3600 Cl  0  0  0  0  0  0  0  0  0  0  0  0
   37.6310   27.7660   41.0410 C   0  0  0  0  0  0  0  0  0  0  0  0
   37.4260   26.5270   41.5660 C   0  0  0  0  0  0  0  0  0  0  0  0
   37.0800   26.4770   42.8910 C   0  0  0  0  0  0  0  0  0  0  0  0
   36.9370   27.5840   43.6720 C   0  0  0  0  0  0  0  0  0  0  0  0
   37.1450   28.8340   43.1320 C   0  0  0  0  0  0  0  0  0  0  0  0
   37.4960   28.9080   41.7990 C   0  0  0  0  0  0  0  0  0  0  0  0
   36.9120   25.4940   43.3350 H   0  0  0  0  0  0  0  0  0  0  0  0
   36.6610   27.4550   44.7090 H   0  0  0  0  0  0  0  0  0  0  0  0
   37.0250   29.6720   43.7740 H   0  0  0  0  0  0  0  0  0  0  0  0
   36.7780   31.0060   40.5870 C   0  0  0  0  0  3  0  0  0  0  0  0
   37.7020   30.2580   41.2870 C   0  0  0  0  0  0  0  0  0  0  0  0
   38.9410   30.8640   41.5170 C   0  0  0  0  0  0  0  0  0  0  0  0
   39.7550   30.3740   42.0600 H   0  0  0  0  0  0  0  0  0  0  0  0
   39.2420   32.1280   41.0820 C   0  0  0  0  0  0  0  0  0  0  0  0
   40.2950   32.9640   41.1370 N   0  0  0  0  0  0  0  0  0  0  0  0
   40.0540   34.1250   40.5280 C   0  0  0  0  0  0  0  0  0  0  0  0
   40.6290   35.0150   40.3670 H   0  0  0  0  0  0  0  0  0  0  0  0
   38.7780   34.0510   40.0490 N   0  0  0  0  0  0  0  0  0  0  0  0
   38.2930   32.8430   40.3870 C   0  0  0  0  0  0  0  0  0  0  0  0
   37.0610   32.2800   40.1390 C   0  0  0  0  0  3  0  0  0  0  0  0
   41.2050   32.7460   41.5980 H   0  0  0  0  0  0  0  0  0  0  0  0
   36.7130   23.6780   39.1700 C   0  0  0  0  0  0  0  0  0  0  0  0
   36.5310   24.7970   39.9910 C   0  0  0  0  0  0  0  0  0  0  0  0
   37.5850   25.3720   40.7120 C   0  0  0  0  0  0  0  0  0  0  0  0
   38.7890   24.7630   40.5570 N   0  0  0  0  0  0  0  0  0  0  0  0
   38.9500   23.6860   39.7620 C   0  0  0  0  0  0  0  0  0  0  0  0
   37.9400   23.1440   39.0770 N   0  0  0  0  0  0  0  0  0  0  0  0
   35.8140   23.3320   38.6660 H   0  0  0  0  0  0  0  0  0  0  0  0
   35.5750   25.2770   40.1110 H   0  0  0  0  0  0  0  0  0  0  0  0
   39.9500   23.2340   39.6740 H   0  0  0  0  0  0  0  0  0  0  0  0
  1  2  1  0  0  0  0
  2  3  2  0  0  0  0
  2  7  1  0  0  0  0
  3  4  1  0  0  0  0
  4  8  1  0  0  0  0
  4  5  2  0  0  0  0
  5  9  1  0  0  0  0
  6  5  1  0  0  0  0
  6 10  1  0  0  0  0
  7  6  2  0  0  0  0
 11 12  1  0  0  0  0
 12 13  2  0  0  0  0
 12  7  1  0  0  0  0
 13 14  1  0  0  0  0
 15 16  1  0  0  0  0
 15 13  1  0  0  0  0
 16 22  1  0  0  0  0
 17 16  1  0  0  0  0
 18 17  1  0  0  0  0
 19 20  1  0  0  0  0
 19 17  2  0  0  0  0
 20 15  2  0  0  0  0
 21 20  1  0  0  0  0
 21 11  2  0  0  0  0
 23 24  1  0  0  0  0
 24 30  1  0  0  0  0
 24 25  2  0  0  0  0
 25  3  1  0  0  0  0
 26 25  1  0  0  0  0
 27 26  2  0  0  0  0
 28 23  2  0  0  0  0
 28 27  1  0  0  0  0
 29 23  1  0  0  0  0
 31 27  1  0  0  0  0
M  END
>  <minimizedAffinity>
-5.97291517

$$$$

 OpenBabel03242516013D

 31 34  0  0  0  0  0  0  0  0999 V2000
   39.5440   28.3140   40.2770 Cl  0  0  0  0  0  0  0  0  0  0  0  0
   37.9720   29.0700   40.4430 C   0  0  0  0  0  0  0  0  0  0  0  0
   36.8560   28.3280   40.6820 C   0  0  0  0  0  0  0  0  0  0  0  0
   35.6780   29.0190   40.7940 C   0  0  0  0  0  0  0  0  0  0  0  0
   35.5890   30.3730   40.6790 C   0  0  0  0  0  0  0  0  0  0  0  0
   36.7230   31.1160   40.4370 C   0  0  0  0  0  0  0  0  0  0  0  0
   37.9200   30.4400   40.3210 C   0  0  0  0  0  0  0  0  0  0  0  0
   34.7690   28.4460   40.9870 H   0  0  0  0  0  0  0  0  0  0  0  0
   34.6180   30.8390   40.7810 H   0  0  0  0  0  0  0  0  0  0  0  0
   36.6110   32.1690   40.3540 H   0  0  0  0  0  0  0  0  0  0  0  0
   39.9530   31.7710   41.0180 C   0  0  0  0  0  3  0  0  0  0  0  0
   39.0830   31.2820   40.0650 C   0  0  0  0  0  0  0  0  0  0  0  0
   39.3580   31.6360   38.7390 C   0  0  0  0  0  0  0  0  0  0  0  0
   38.7440   31.3110   37.8940 H   0  0  0  0  0  0  0  0  0  0  0  0
   40.4240   32.4200   38.3860 C   0  0  0  0  0  0  0  0  0  0  0  0
   40.9450   32.9210   37.2510 N   0  0  0  0  0  0  0  0  0  0  0  0
   42.0360   33.6550   37.4730 C   0  0  0  0  0  0  0  0  0  0  0  0
   42.7080   34.1990   36.8390 H   0  0  0  0  0  0  0  0  0  0  0  0
   42.2450   33.6350   38.8210 N   0  0  0  0  0  0  0  0  0  0  0  0
   41.2690   32.8880   39.3670 C   0  0  0  0  0  0  0  0  0  0  0  0
   41.0310   32.5630   40.6840 C   0  0  0  0  0  3  0  0  0  0  0  0
   40.5530   32.7650   36.2960 H   0  0  0  0  0  0  0  0  0  0  0  0
   37.2690   24.8400   42.1090 C   0  0  0  0  0  0  0  0  0  0  0  0
   37.1470   26.2330   42.0240 C   0  0  0  0  0  0  0  0  0  0  0  0
   36.9830   26.8920   40.7990 C   0  0  0  0  0  0  0  0  0  0  0  0
   36.9540   26.0850   39.7080 N   0  0  0  0  0  0  0  0  0  0  0  0
   37.0720   24.7460   39.8050 C   0  0  0  0  0  0  0  0  0  0  0  0
   37.2270   24.1230   40.9760 N   0  0  0  0  0  0  0  0  0  0  0  0
   37.3900   24.4550   43.1180 H   0  0  0  0  0  0  0  0  0  0  0  0
   37.1710   26.8690   42.8910 H   0  0  0  0  0  0  0  0  0  0  0  0
   37.0400   24.1410   38.8850 H   0  0  0  0  0  0  0  0  0  0  0  0
  1  2  1  0  0  0  0
  2  3  1  0  0  0  0
  3  4  2  0  0  0  0
  3 25  1  0  0  0  0
  4  8  1  0  0  0  0
  5  9  1  0  0  0  0
  5  4  1  0  0  0  0
  6  5  2  0  0  0  0
  7  6  1  0  0  0  0
  7  2  2  0  0  0  0
 10  6  1  0  0  0  0
 12  7  1  0  0  0  0
 12 11  2  0  0  0  0
 13 12  1  0  0  0  0
 14 13  1  0  0  0  0
 15 13  2  0  0  0  0
 15 20  1  0  0  0  0
 16 17  1  0  0  0  0
 16 15  1  0  0  0  0
 17 19  2  0  0  0  0
 18 17  1  0  0  0  0
 19 20  1  0  0  0  0
 20 21  2  0  0  0  0
 21 11  1  0  0  0  0
 22 16  1  0  0  0  0
 23 29  1  0  0  0  0
 24 23  1  0  0  0  0
 24 30  1  0  0  0  0
 25 24  2  0  0  0  0
 26 27  2  0  0  0  0
 26 25  1  0  0  0  0
 27 28  1  0  0  0  0
 28 23  2  0  0  0  0
 31 27  1  0  0  0  0
M  END
>  <minimizedAffinity>
-5.6202836

$$$$

 OpenBabel03242516013D

 31 34  0  0  0  0  0  0  0  0999 V2000
   38.1520   27.4180   39.3550 Cl  0  0  0  0  0  0  0  0  0  0  0  0
   38.5630   27.2020   41.0440 C   0  0  0  0  0  0  0  0  0  0  0  0
   38.4750   25.9810   41.6400 C   0  0  0  0  0  0  0  0  0  0  0  0
   38.8210   25.9240   42.9650 C   0  0  0  0  0  0  0  0  0  0  0  0
   39.2340   27.0060   43.6800 C   0  0  0  0  0  0  0  0  0  0  0  0
   39.3200   28.2380   43.0690 C   0  0  0  0  0  0  0  0  0  0  0  0
   38.9770   28.3190   41.7350 C   0  0  0  0  0  0  0  0  0  0  0  0
   38.7580   24.9550   43.4640 H   0  0  0  0  0  0  0  0  0  0  0  0
   39.4870   26.8730   44.7220 H   0  0  0  0  0  0  0  0  0  0  0  0
   39.6470   29.0570   43.6610 H   0  0  0  0  0  0  0  0  0  0  0  0
   40.2300   30.1940   40.5940 C   0  0  0  0  0  3  0  0  0  0  0  0
   39.0900   29.6480   41.1470 C   0  0  0  0  0  0  0  0  0  0  0  0
   37.9490   30.4580   41.1330 C   0  0  0  0  0  0  0  0  0  0  0  0
   36.9850   30.1390   41.5400 H   0  0  0  0  0  0  0  0  0  0  0  0
   37.9410   31.7220   40.6050 C   0  0  0  0  0  0  0  0  0  0  0  0
   37.0490   32.7160   40.4420 N   0  0  0  0  0  0  0  0  0  0  0  0
   37.5810   33.7830   39.8440 C   0  0  0  0  0  0  0  0  0  0  0  0
   37.1980   34.7410   39.5520 H   0  0  0  0  0  0  0  0  0  0  0  0
   38.8880   33.4760   39.6010 N   0  0  0  0  0  0  0  0  0  0  0  0
   39.1000   32.2310   40.0620 C   0  0  0  0  0  0  0  0  0  0  0  0
   40.2440   31.4650   40.0580 C   0  0  0  0  0  3  0  0  0  0  0  0
   36.0510   32.6760   40.7430 H   0  0  0  0  0  0  0  0  0  0  0  0
   36.2890   23.3630   39.9840 C   0  0  0  0  0  0  0  0  0  0  0  0
   36.6910   24.4620   40.7530 C   0  0  0  0  0  0  0  0  0  0  0  0
   38.0320   24.8510   40.8530 C   0  0  0  0  0  0  0  0  0  0  0  0
   38.9090   24.0860   40.1540 N   0  0  0  0  0  0  0  0  0  0  0  0
   38.5090   23.0300   39.4180 C   0  0  0  0  0  0  0  0  0  0  0  0
   37.2270   22.6650   39.3260 N   0  0  0  0  0  0  0  0  0  0  0  0
   35.2200   23.1690   39.9910 H   0  0  0  0  0  0  0  0  0  0  0  0
   35.9920   25.0670   41.3060 H   0  0  0  0  0  0  0  0  0  0  0  0
   39.2650   22.4450   38.8710 H   0  0  0  0  0  0  0  0  0  0  0  0
  1  2  1  0  0  0  0
  2  3  2  0  0  0  0
  2  7  1  0  0  0  0
  3  4  1  0  0  0  0
  4  8  1  0  0  0  0
  4  5  2  0  0  0  0
  5  9  1  0  0  0  0
  6 10  1  0  0  0  0
  6  5  1  0  0  0  0
  7  6  2  0  0  0  0
 11 12  1  0  0  0  0
 12  7  1  0  0  0  0
 13 12  2  0  0  0  0
 13 14  1  0  0  0  0
 15 13  1  0  0  0  0
 16 15  1  0  0  0  0
 16 22  1  0  0  0  0
 17 16  1  0  0  0  0
 18 17  1  0  0  0  0
 19 17  2  0  0  0  0
 19 20  1  0  0  0  0
 20 15  2  0  0  0  0
 21 20  1  0  0  0  0
 21 11  2  0  0  0  0
 23 29  1  0  0  0  0
 23 24  1  0  0  0  0
 24 25  2  0  0  0  0
 24 30  1  0  0  0  0
 25  3  1  0  0  0  0
 26 25  1  0  0  0  0
 27 26  2  0  0  0  0
 28 27  1  0  0  0  0
 28 23  2  0  0  0  0
 31 27  1  0  0  0  0
M  END
>  <minimizedAffinity>
-5.45657158

$$$$

 OpenBabel03242516013D

 31 34  0  0  0  0  0  0  0  0999 V2000
   36.3590   26.3560   38.7110 Cl  0  0  0  0  0  0  0  0  0  0  0  0
   36.4090   27.7540   39.7650 C   0  0  0  0  0  0  0  0  0  0  0  0
   37.0870   27.7220   40.9460 C   0  0  0  0  0  0  0  0  0  0  0  0
   37.0610   28.8710   41.6930 C   0  0  0  0  0  0  0  0  0  0  0  0
   36.4050   30.0010   41.3100 C   0  0  0  0  0  0  0  0  0  0  0  0
   35.7220   30.0240   40.1150 C   0  0  0  0  0  0  0  0  0  0  0  0
   35.7350   28.8790   39.3450 C   0  0  0  0  0  0  0  0  0  0  0  0
   37.5980   28.8690   42.6440 H   0  0  0  0  0  0  0  0  0  0  0  0
   36.4360   30.8630   41.9610 H   0  0  0  0  0  0  0  0  0  0  0  0
   35.2240   30.9250   39.8520 H   0  0  0  0  0  0  0  0  0  0  0  0
   35.5410   29.1850   36.8440 C   0  0  0  0  0  3  0  0  0  0  0  0
   34.9940   28.9670   38.0920 C   0  0  0  0  0  0  0  0  0  0  0  0
   33.6040   28.8200   38.1400 C   0  0  0  0  0  0  0  0  0  0  0  0
   33.0530   28.6440   39.0690 H   0  0  0  0  0  0  0  0  0  0  0  0
   32.8110   28.8850   37.0250 C   0  0  0  0  0  0  0  0  0  0  0  0
   31.4990   28.7880   36.7420 N   0  0  0  0  0  0  0  0  0  0  0  0
   31.2480   28.9330   35.4400 C   0  0  0  0  0  0  0  0  0  0  0  0
   30.3540   28.9180   34.8490 H   0  0  0  0  0  0  0  0  0  0  0  0
   32.4550   29.1330   34.8360 N   0  0  0  0  0  0  0  0  0  0  0  0
   33.3940   29.1030   35.7970 C   0  0  0  0  0  0  0  0  0  0  0  0
   34.7610   29.2530   35.7090 C   0  0  0  0  0  3  0  0  0  0  0  0
   30.7480   28.6210   37.4470 H   0  0  0  0  0  0  0  0  0  0  0  0
   37.8110   24.2310   42.2340 C   0  0  0  0  0  0  0  0  0  0  0  0
   37.1220   25.3960   41.8760 C   0  0  0  0  0  0  0  0  0  0  0  0
   37.7730   26.5070   41.3240 C   0  0  0  0  0  0  0  0  0  0  0  0
   39.1140   26.3700   41.1650 N   0  0  0  0  0  0  0  0  0  0  0  0
   39.7650   25.2420   41.5140 C   0  0  0  0  0  0  0  0  0  0  0  0
   39.1380   24.1860   42.0390 N   0  0  0  0  0  0  0  0  0  0  0  0
   37.1880   23.4440   42.6500 H   0  0  0  0  0  0  0  0  0  0  0  0
   36.0580   25.5010   42.0030 H   0  0  0  0  0  0  0  0  0  0  0  0
   40.8540   25.1870   41.3620 H   0  0  0  0  0  0  0  0  0  0  0  0
  1  2  1  0  0  0  0
  2  3  1  0  0  0  0
  3 25  1  0  0  0  0
  3  4  2  0  0  0  0
  4  8  1  0  0  0  0
  5  4  1  0  0  0  0
  5  9  1  0  0  0  0
  6  5  2  0  0  0  0
  7  2  2  0  0  0  0
  7  6  1  0  0  0  0
 10  6  1  0  0  0  0
 11 12  1  0  0  0  0
 12 13  2  0  0  0  0
 12  7  1  0  0  0  0
 13 14  1  0  0  0  0
 15 13  1  0  0  0  0
 16 15  1  0  0  0  0
 16 22  1  0  0  0  0
 17 16  1  0  0  0  0
 18 17  1  0  0  0  0
 19 17  2  0  0  0  0
 19 20  1  0  0  0  0
 20 15  2  0  0  0  0
 21 20  1  0  0  0  0
 21 11  2  0  0  0  0
 23 29  1  0  0  0  0
 24 30  1  0  0  0  0
 24 23  2  0  0  0  0
 25 24  1  0  0  0  0
 26 25  2  0  0  0  0
 26 27  1  0  0  0  0
 27 28  2  0  0  0  0
 28 23  1  0  0  0  0
 31 27  1  0  0  0  0
M  END
>  <minimizedAffinity>
-5.42443466

$$$$

 OpenBabel03242516013D

 31 34  0  0  0  0  0  0  0  0999 V2000
   40.7370   30.1660   41.1920 Cl  0  0  0  0  0  0  0  0  0  0  0  0
   39.3820   31.1730   40.7260 C   0  0  0  0  0  0  0  0  0  0  0  0
   38.0990   30.7760   40.9510 C   0  0  0  0  0  0  0  0  0  0  0  0
   37.1150   31.6400   40.5470 C   0  0  0  0  0  0  0  0  0  0  0  0
   37.3660   32.8370   39.9500 C   0  0  0  0  0  0  0  0  0  0  0  0
   38.6670   33.2310   39.7260 C   0  0  0  0  0  0  0  0  0  0  0  0
   39.6740   32.3770   40.1250 C   0  0  0  0  0  0  0  0  0  0  0  0
   36.0780   31.3440   40.7180 H   0  0  0  0  0  0  0  0  0  0  0  0
   36.5290   33.4590   39.6620 H   0  0  0  0  0  0  0  0  0  0  0  0
   38.8210   34.1720   39.2580 H   0  0  0  0  0  0  0  0  0  0  0  0
   41.8120   33.5840   40.7260 C   0  0  0  0  0  3  0  0  0  0  0  0
   41.0280   32.8500   39.8600 C   0  0  0  0  0  0  0  0  0  0  0  0
   41.6000   32.5410   38.6210 C   0  0  0  0  0  0  0  0  0  0  0  0
   41.0810   31.9650   37.8500 H   0  0  0  0  0  0  0  0  0  0  0  0
   42.8640   32.9340   38.2680 C   0  0  0  0  0  0  0  0  0  0  0  0
   43.6730   32.8060   37.2010 N   0  0  0  0  0  0  0  0  0  0  0  0
   44.8520   33.4040   37.3820 C   0  0  0  0  0  0  0  0  0  0  0  0
   45.7300   33.5150   36.7780 H   0  0  0  0  0  0  0  0  0  0  0  0
   44.8170   33.9520   38.6310 N   0  0  0  0  0  0  0  0  0  0  0  0
   43.6150   33.6650   39.1610 C   0  0  0  0  0  0  0  0  0  0  0  0
   43.0860   33.9910   40.3900 C   0  0  0  0  0  3  0  0  0  0  0  0
   43.4250   32.3000   36.3220 H   0  0  0  0  0  0  0  0  0  0  0  0
   37.5920   28.0800   43.5670 C   0  0  0  0  0  0  0  0  0  0  0  0
   37.8200   29.3290   42.9760 C   0  0  0  0  0  0  0  0  0  0  0  0
   37.8650   29.4990   41.5870 C   0  0  0  0  0  0  0  0  0  0  0  0
   37.6740   28.3680   40.8600 N   0  0  0  0  0  0  0  0  0  0  0  0
   37.4550   27.1720   41.4420 C   0  0  0  0  0  0  0  0  0  0  0  0
   37.4120   27.0170   42.7680 N   0  0  0  0  0  0  0  0  0  0  0  0
   37.5800   28.0860   44.6540 H   0  0  0  0  0  0  0  0  0  0  0  0
   37.9710   30.2230   43.5560 H   0  0  0  0  0  0  0  0  0  0  0  0
   37.3060   26.2880   40.8020 H   0  0  0  0  0  0  0  0  0  0  0  0
  2  3  1  0  0  0  0
  2  1  1  0  0  0  0
  3 25  1  0  0  0  0
  4  8  1  0  0  0  0
  4  3  2  0  0  0  0
  5  4  1  0  0  0  0
  6  5  2  0  0  0  0
  6  7  1  0  0  0  0
  7  2  2  0  0  0  0
  9  5  1  0  0  0  0
 10  6  1  0  0  0  0
 12  7  1  0  0  0  0
 12 11  2  0  0  0  0
 13 12  1  0  0  0  0
 14 13  1  0  0  0  0
 15 13  2  0  0  0  0
 15 20  1  0  0  0  0
 16 17  1  0  0  0  0
 16 15  1  0  0  0  0
 17 19  2  0  0  0  0
 18 17  1  0  0  0  0
 19 20  1  0  0  0  0
 20 21  2  0  0  0  0
 21 11  1  0  0  0  0
 22 16  1  0  0  0  0
 23 29  1  0  0  0  0
 24 30  1  0  0  0  0
 24 23  1  0  0  0  0
 25 24  2  0  0  0  0
 26 27  2  0  0  0  0
 26 25  1  0  0  0  0
 27 28  1  0  0  0  0
 28 23  2  0  0  0  0
 31 27  1  0  0  0  0
M  END
>  <minimizedAffinity>
-5.40825272

$$$$

 OpenBabel03242516013D

 31 34  0  0  0  0  0  0  0  0999 V2000
   40.5480   30.0310   40.2680 Cl  0  0  0  0  0  0  0  0  0  0  0  0
   39.1680   31.0980   40.1050 C   0  0  0  0  0  0  0  0  0  0  0  0
   39.2920   32.3300   39.5390 C   0  0  0  0  0  0  0  0  0  0  0  0
   38.1500   33.0830   39.4600 C   0  0  0  0  0  0  0  0  0  0  0  0
   36.9390   32.6570   39.9130 C   0  0  0  0  0  0  0  0  0  0  0  0
   36.8210   31.4090   40.4850 C   0  0  0  0  0  0  0  0  0  0  0  0
   37.9590   30.6340   40.5740 C   0  0  0  0  0  0  0  0  0  0  0  0
   38.2250   34.0740   39.0100 H   0  0  0  0  0  0  0  0  0  0  0  0
   36.0870   33.3150   39.8130 H   0  0  0  0  0  0  0  0  0  0  0  0
   35.8590   31.1150   40.8260 H   0  0  0  0  0  0  0  0  0  0  0  0
   37.8470   29.0460   42.5370 C   0  0  0  0  0  3  0  0  0  0  0  0
   37.7690   29.3250   41.1880 C   0  0  0  0  0  0  0  0  0  0  0  0
   37.4840   28.2420   40.3500 C   0  0  0  0  0  0  0  0  0  0  0  0
   37.3960   28.3340   39.2630 H   0  0  0  0  0  0  0  0  0  0  0  0
   37.2870   26.9700   40.8200 C   0  0  0  0  0  0  0  0  0  0  0  0
   37.0070   25.7610   40.3010 N   0  0  0  0  0  0  0  0  0  0  0  0
   36.9180   24.8150   41.2370 C   0  0  0  0  0  0  0  0  0  0  0  0
   36.7150   23.7630   41.2150 H   0  0  0  0  0  0  0  0  0  0  0  0
   37.1490   25.4330   42.4320 N   0  0  0  0  0  0  0  0  0  0  0  0
   37.3720   26.7330   42.1730 C   0  0  0  0  0  0  0  0  0  0  0  0
   37.6530   27.7740   43.0310 C   0  0  0  0  0  3  0  0  0  0  0  0
   36.8720   25.5650   39.2850 H   0  0  0  0  0  0  0  0  0  0  0  0
   42.7880   33.7900   39.4010 C   0  0  0  0  0  0  0  0  0  0  0  0
   41.5360   33.3910   39.8830 C   0  0  0  0  0  0  0  0  0  0  0  0
   40.5920   32.7530   39.0680 C   0  0  0  0  0  0  0  0  0  0  0  0
   40.9810   32.5540   37.7820 N   0  0  0  0  0  0  0  0  0  0  0  0
   42.1900   32.9440   37.3310 C   0  0  0  0  0  0  0  0  0  0  0  0
   43.0850   33.5510   38.1150 N   0  0  0  0  0  0  0  0  0  0  0  0
   43.4260   34.2730   40.1370 H   0  0  0  0  0  0  0  0  0  0  0  0
   41.2310   33.5500   40.9030 H   0  0  0  0  0  0  0  0  0  0  0  0
   42.4520   32.7570   36.2780 H   0  0  0  0  0  0  0  0  0  0  0  0
  2  1  1  0  0  0  0
  2  7  1  0  0  0  0
  3  2  2  0  0  0  0
  4  3  1  0  0  0  0
  4  5  2  0  0  0  0
  5  6  1  0  0  0  0
  6  7  2  0  0  0  0
  6 10  1  0  0  0  0
  7 12  1  0  0  0  0
  8  4  1  0  0  0  0
  9  5  1  0  0  0  0
 11 21  1  0  0  0  0
 12 11  2  0  0  0  0
 13 15  2  0  0  0  0
 13 12  1  0  0  0  0
 14 13  1  0  0  0  0
 15 20  1  0  0  0  0
 16 15  1  0  0  0  0
 16 17  1  0  0  0  0
 17 19  2  0  0  0  0
 18 17  1  0  0  0  0
 20 19  1  0  0  0  0
 20 21  2  0  0  0  0
 22 16  1  0  0  0  0
 23 24  1  0  0  0  0
 23 29  1  0  0  0  0
 24 30  1  0  0  0  0
 25  3  1  0  0  0  0
 25 24  2  0  0  0  0
 26 25  1  0  0  0  0
 27 26  2  0  0  0  0
 27 28  1  0  0  0  0
 28 23  2  0  0  0  0
 31 27  1  0  0  0  0
M  END
>  <minimizedAffinity>
-5.36471605

$$$$

 OpenBabel03242516013D

 31 34  0  0  0  0  0  0  0  0999 V2000
   39.7330   27.8490   40.8350 Cl  0  0  0  0  0  0  0  0  0  0  0  0
   38.2800   28.8270   40.8750 C   0  0  0  0  0  0  0  0  0  0  0  0
   37.0460   28.2540   40.9210 C   0  0  0  0  0  0  0  0  0  0  0  0
   35.9770   29.1100   40.9500 C   0  0  0  0  0  0  0  0  0  0  0  0
   36.1020   30.4660   40.9330 C   0  0  0  0  0  0  0  0  0  0  0  0
   37.3540   31.0380   40.8860 C   0  0  0  0  0  0  0  0  0  0  0  0
   38.4450   30.1940   40.8570 C   0  0  0  0  0  0  0  0  0  0  0  0
   34.9770   28.6740   40.9870 H   0  0  0  0  0  0  0  0  0  0  0  0
   35.2050   31.0700   40.9570 H   0  0  0  0  0  0  0  0  0  0  0  0
   37.4090   32.0990   40.8740 H   0  0  0  0  0  0  0  0  0  0  0  0
   40.3900   31.2820   39.6660 C   0  0  0  0  0  3  0  0  0  0  0  0
   39.7420   30.8600   40.8080 C   0  0  0  0  0  0  0  0  0  0  0  0
   40.4030   31.0990   42.0170 C   0  0  0  0  0  0  0  0  0  0  0  0
   39.9930   30.8120   42.9900 H   0  0  0  0  0  0  0  0  0  0  0  0
   41.6240   31.7170   42.0870 C   0  0  0  0  0  0  0  0  0  0  0  0
   42.4890   32.0810   43.0500 N   0  0  0  0  0  0  0  0  0  0  0  0
   43.5770   32.6760   42.5570 C   0  0  0  0  0  0  0  0  0  0  0  0
   44.4610   33.0920   42.9970 H   0  0  0  0  0  0  0  0  0  0  0  0
   43.4190   32.7050   41.2020 N   0  0  0  0  0  0  0  0  0  0  0  0
   42.2380   32.1250   40.9240 C   0  0  0  0  0  0  0  0  0  0  0  0
   41.6190   31.9060   39.7130 C   0  0  0  0  0  3  0  0  0  0  0  0
   42.3450   31.9250   44.0720 H   0  0  0  0  0  0  0  0  0  0  0  0
   36.9910   24.6470   42.0890 C   0  0  0  0  0  0  0  0  0  0  0  0
   37.0920   26.0440   42.1010 C   0  0  0  0  0  0  0  0  0  0  0  0
   36.9470   26.8110   40.9380 C   0  0  0  0  0  0  0  0  0  0  0  0
   36.7060   26.1030   39.8050 N   0  0  0  0  0  0  0  0  0  0  0  0
   36.6120   24.7580   39.8080 C   0  0  0  0  0  0  0  0  0  0  0  0
   36.7500   24.0320   40.9210 N   0  0  0  0  0  0  0  0  0  0  0  0
   37.1220   24.1730   43.0580 H   0  0  0  0  0  0  0  0  0  0  0  0
   37.2830   26.6020   43.0010 H   0  0  0  0  0  0  0  0  0  0  0  0
   36.4140   24.2360   38.8590 H   0  0  0  0  0  0  0  0  0  0  0  0
  1  2  1  0  0  0  0
  2  3  1  0  0  0  0
  3 25  1  0  0  0  0
  3  4  2  0  0  0  0
  4  8  1  0  0  0  0
  5  4  1  0  0  0  0
  5  9  1  0  0  0  0
  6  5  2  0  0  0  0
  7  2  2  0  0  0  0
  7  6  1  0  0  0  0
 10  6  1  0  0  0  0
 11 21  2  0  0  0  0
 11 12  1  0  0  0  0
 12  7  1  0  0  0  0
 12 13  2  0  0  0  0
 13 15  1  0  0  0  0
 13 14  1  0  0  0  0
 15 16  1  0  0  0  0
 16 22  1  0  0  0  0
 17 18  1  0  0  0  0
 17 16  1  0  0  0  0
 19 17  2  0  0  0  0
 20 19  1  0  0  0  0
 20 15  2  0  0  0  0
 21 20  1  0  0  0  0
 23 24  1  0  0  0  0
 23 29  1  0  0  0  0
 24 30  1  0  0  0  0
 25 24  2  0  0  0  0
 26 27  2  0  0  0  0
 26 25  1  0  0  0  0
 27 28  1  0  0  0  0
 28 23  2  0  0  0  0
 31 27  1  0  0  0  0
M  END
>  <minimizedAffinity>
-5.32592916

$$$$

 OpenBabel03242516013D

 31 34  0  0  0  0  0  0  0  0999 V2000
   38.2640   27.8340   39.3150 Cl  0  0  0  0  0  0  0  0  0  0  0  0
   37.8990   28.0210   41.0190 C   0  0  0  0  0  0  0  0  0  0  0  0
   37.8360   29.2540   41.5940 C   0  0  0  0  0  0  0  0  0  0  0  0
   37.5430   29.2860   42.9330 C   0  0  0  0  0  0  0  0  0  0  0  0
   37.3220   28.1690   43.6800 C   0  0  0  0  0  0  0  0  0  0  0  0
   37.3890   26.9270   43.0900 C   0  0  0  0  0  0  0  0  0  0  0  0
   37.6820   26.8700   41.7420 C   0  0  0  0  0  0  0  0  0  0  0  0
   37.4860   30.2630   43.4160 H   0  0  0  0  0  0  0  0  0  0  0  0
   37.0970   28.2850   44.7310 H   0  0  0  0  0  0  0  0  0  0  0  0
   37.2100   26.0810   43.7070 H   0  0  0  0  0  0  0  0  0  0  0  0
   38.8450   24.7040   41.1570 C   0  0  0  0  0  3  0  0  0  0  0  0
   37.7380   25.5270   41.1770 C   0  0  0  0  0  0  0  0  0  0  0  0
   36.5740   25.0100   40.5980 C   0  0  0  0  0  0  0  0  0  0  0  0
   35.6320   25.5640   40.5520 H   0  0  0  0  0  0  0  0  0  0  0  0
   36.5140   23.7610   40.0390 C   0  0  0  0  0  0  0  0  0  0  0  0
   35.5890   22.9990   39.4270 N   0  0  0  0  0  0  0  0  0  0  0  0
   36.0720   21.8120   39.0590 C   0  0  0  0  0  0  0  0  0  0  0  0
   35.6530   20.9590   38.5620 H   0  0  0  0  0  0  0  0  0  0  0  0
   37.3800   21.7900   39.4480 N   0  0  0  0  0  0  0  0  0  0  0  0
   37.6410   22.9700   40.0390 C   0  0  0  0  0  0  0  0  0  0  0  0
   38.8070   23.4440   40.5980 C   0  0  0  0  0  3  0  0  0  0  0  0
   34.6020   23.2860   39.2510 H   0  0  0  0  0  0  0  0  0  0  0  0
   37.3100   32.2900   39.3860 C   0  0  0  0  0  0  0  0  0  0  0  0
   37.0500   31.1630   40.1760 C   0  0  0  0  0  0  0  0  0  0  0  0
   38.0750   30.4200   40.7740 C   0  0  0  0  0  0  0  0  0  0  0  0
   39.3330   30.8700   40.5290 N   0  0  0  0  0  0  0  0  0  0  0  0
   39.5690   31.9560   39.7660 C   0  0  0  0  0  0  0  0  0  0  0  0
   38.5850   32.6610   39.2000 N   0  0  0  0  0  0  0  0  0  0  0  0
   36.4250   32.7760   38.9820 H   0  0  0  0  0  0  0  0  0  0  0  0
   36.0510   30.8100   40.3680 H   0  0  0  0  0  0  0  0  0  0  0  0
   40.6090   32.2760   39.6020 H   0  0  0  0  0  0  0  0  0  0  0  0
  1  2  1  0  0  0  0
  2  3  2  0  0  0  0
  2  7  1  0  0  0  0
  3  4  1  0  0  0  0
  4  8  1  0  0  0  0
  4  5  2  0  0  0  0
  5  9  1  0  0  0  0
  6  5  1  0  0  0  0
  6 10  1  0  0  0  0
  7  6  2  0  0  0  0
 11 12  1  0  0  0  0
 12  7  1  0  0  0  0
 13 12  2  0  0  0  0
 14 13  1  0  0  0  0
 15 20  2  0  0  0  0
 15 13  1  0  0  0  0
 16 15  1  0  0  0  0
 17 16  1  0  0  0  0
 17 19  2  0  0  0  0
 18 17  1  0  0  0  0
 19 20  1  0  0  0  0
 20 21  1  0  0  0  0
 21 11  2  0  0  0  0
 22 16  1  0  0  0  0
 23 24  1  0  0  0  0
 24 30  1  0  0  0  0
 24 25  2  0  0  0  0
 25  3  1  0  0  0  0
 26 25  1  0  0  0  0
 27 26  2  0  0  0  0
 28 23  2  0  0  0  0
 28 27  1  0  0  0  0
 29 23  1  0  0  0  0
 31 27  1  0  0  0  0
M  END
>  <minimizedAffinity>
-5.30848742

$$$$
