
 OpenBabel03252504493D

 27 29  0  0  0  0  0  0  0  0999 V2000
   47.0800   34.7150   42.8570 C   0  0  0  0  0  0  0  0  0  0  0  0
   48.0760   34.2580   41.9720 C   0  0  0  0  0  0  0  0  0  0  0  0
   48.6720   33.0250   42.2490 C   0  0  0  0  0  0  0  0  0  0  0  0
   48.2560   32.3470   43.3520 N   0  0  0  0  0  0  0  0  0  0  0  0
   47.3050   32.8200   44.1670 C   0  0  0  0  0  0  0  0  0  0  0  0
   46.7050   34.0160   43.9230 N   0  0  0  0  0  0  0  0  0  0  0  0
   46.6100   35.6700   42.6510 H   0  0  0  0  0  0  0  0  0  0  0  0
   49.4330   32.6490   41.5960 H   0  0  0  0  0  0  0  0  0  0  0  0
   47.3730   30.7950   45.5600 C   0  0  0  0  0  0  0  0  0  0  0  0
   46.8660   32.0700   45.3590 C   0  0  0  0  0  0  0  0  0  0  0  0
   45.9610   32.6270   46.2660 C   0  0  0  0  0  0  0  0  0  0  0  0
   45.6030   33.6350   46.0430 H   0  0  0  0  0  0  0  0  0  0  0  0
   45.5810   31.8800   47.3670 C   0  0  0  0  0  0  0  0  0  0  0  0
   44.7320   32.2110   48.3590 N   0  0  0  0  0  0  0  0  0  0  0  0
   44.7100   31.1530   49.1710 C   0  0  0  0  0  0  0  0  0  0  0  0
   44.1390   31.0290   50.0940 H   0  0  0  0  0  0  0  0  0  0  0  0
   45.5190   30.2080   48.6900 N   0  0  0  0  0  0  0  0  0  0  0  0
   46.1020   30.6130   47.5430 C   0  0  0  0  0  0  0  0  0  0  0  0
   46.9960   30.0370   46.6670 C   0  0  0  0  0  0  0  0  0  0  0  0
   44.1940   33.1000   48.4870 H   0  0  0  0  0  0  0  0  0  0  0  0
   48.4380   35.0790   40.8180 C   0  0  0  0  0  0  0  0  0  0  0  0
   48.9930   34.5590   40.0340 H   0  0  0  0  0  0  0  0  0  0  0  0
   47.5230   35.5110   40.3710 H   0  0  0  0  0  0  0  0  0  0  0  0
   49.2420   36.2800   41.3380 C   0  0  0  0  0  0  0  0  0  0  0  0
   50.3160   35.9780   41.2700 H   0  0  0  0  0  0  0  0  0  0  0  0
   49.0350   37.1530   40.7020 H   0  0  0  0  0  0  0  0  0  0  0  0
   48.8900   36.4910   42.3470 H   0  0  0  0  0  0  0  0  0  0  0  0
  1  6  1  0  0  0  0
  2  3  1  0  0  0  0
  2  1  2  0  0  0  0
  3  4  2  0  0  0  0
  4  5  1  0  0  0  0
  5 10  1  0  0  0  0
  6  5  2  0  0  0  0
  7  1  1  0  0  0  0
  8  3  1  0  0  0  0
  9 19  1  0  0  0  0
 10  9  2  0  0  0  0
 10 11  1  0  0  0  0
 11 13  2  0  0  0  0
 12 11  1  0  0  0  0
 13 18  1  0  0  0  0
 13 14  1  0  0  0  0
 14 20  1  0  0  0  0
 14 15  1  0  0  0  0
 15 16  1  0  0  0  0
 17 15  2  0  0  0  0
 18 17  1  0  0  0  0
 19 18  2  0  0  0  0
 21 24  1  0  0  0  0
 21  2  1  0  0  0  0
 22 21  1  0  0  0  0
 23 21  1  0  0  0  0
 24 27  1  0  0  0  0
 25 24  1  0  0  0  0
 26 24  1  0  0  0  0
M  END
>  <minimizedAffinity>
-5.08873606

>  <minimizedRMSD>
3.00109291

$$$$
