
 OpenBabel03252508333D

 35 38  0  0  1  0  0  0  0  0999 V2000
   45.8140   34.1870   43.1040 N   0  0  0  0  0  0  0  0  0  0  0  0
   45.8570   33.3850   41.9250 C   0  0  2  0  0  0  0  0  0  0  0  0
   45.5980   34.1970   40.6780 C   0  0  0  0  0  0  0  0  0  0  0  0
   44.4040   34.9760   40.7880 N   0  0  0  0  0  0  0  0  0  0  0  0
   44.2830   35.7130   41.9850 C   0  0  0  0  0  0  0  0  0  0  0  0
   45.4840   35.5830   42.8970 C   0  0  0  0  0  0  0  0  0  0  0  0
   46.8970   32.9850   41.8350 H   0  0  0  0  0  0  0  0  0  0  0  0
   46.4550   34.8930   40.5580 H   0  0  0  0  0  0  0  0  0  0  0  0
   45.5430   33.5630   39.7950 H   0  0  0  0  0  0  0  0  0  0  0  0
   43.5810   34.3300   40.6950 H   0  0  0  0  0  0  0  0  0  0  0  0
   43.3840   35.5130   42.6000 H   0  0  0  0  0  0  0  0  0  0  0  0
   44.2400   36.7990   41.7030 H   0  0  0  0  0  0  0  0  0  0  0  0
   46.3460   35.9980   42.2990 H   0  0  0  0  0  0  0  0  0  0  0  0
   45.2690   36.1610   43.7830 H   0  0  0  0  0  0  0  0  0  0  0  0
   45.2630   31.0220   41.3030 C   0  0  0  0  0  3  0  0  0  0  0  0
   44.9470   32.2380   41.8770 C   0  0  0  0  0  0  0  0  0  0  0  0
   43.6560   32.2200   42.4220 C   0  0  0  0  0  0  0  0  0  0  0  0
   43.3030   33.1430   42.9070 H   0  0  0  0  0  0  0  0  0  0  0  0
   42.7930   31.1570   42.4070 C   0  0  0  0  0  0  0  0  0  0  0  0
   41.5450   31.0160   42.8890 N   0  0  0  0  0  0  0  0  0  0  0  0
   41.1570   29.7600   42.6010 C   0  0  0  0  0  0  0  0  0  0  0  0
   40.1570   29.4140   42.9040 H   0  0  0  0  0  0  0  0  0  0  0  0
   42.1570   29.1470   41.9520 N   0  0  0  0  0  0  0  0  0  0  0  0
   43.1910   29.9850   41.8130 C   0  0  0  0  0  0  0  0  0  0  0  0
   44.4480   29.9120   41.2490 C   0  0  0  0  0  3  0  0  0  0  0  0
   40.9900   31.7570   43.3950 H   0  0  0  0  0  0  0  0  0  0  0  0
   45.3370   33.9850   45.4630 C   0  0  0  0  0  0  0  0  0  0  0  0
   46.0900   33.5910   44.3660 C   0  0  0  0  0  0  0  0  0  0  0  0
   47.0580   32.6320   44.5730 C   0  0  0  0  0  0  0  0  0  0  0  0
   47.2340   32.1210   45.8110 N   0  0  0  0  0  0  0  0  0  0  0  0
   46.4900   32.5190   46.8600 C   0  0  0  0  0  0  0  0  0  0  0  0
   45.5540   33.4420   46.6750 N   0  0  0  0  0  0  0  0  0  0  0  0
   44.5460   34.7150   45.4810 H   0  0  0  0  0  0  0  0  0  0  0  0
   47.6710   32.3000   43.7630 H   0  0  0  0  0  0  0  0  0  0  0  0
   46.7480   32.0180   47.7880 H   0  0  0  0  0  0  0  0  0  0  0  0
  1 28  1  0  0  0  0
  2  7  1  6  0  0  0
  2  1  1  0  0  0  0
  3  4  1  0  0  0  0
  3  2  1  0  0  0  0
  4  5  1  0  0  0  0
  5 11  1  0  0  0  0
  5  6  1  0  0  0  0
  6  1  1  0  0  0  0
  6 14  1  0  0  0  0
  8  3  1  0  0  0  0
  9  3  1  0  0  0  0
 10  4  1  0  0  0  0
 12  5  1  0  0  0  0
 13  6  1  0  0  0  0
 15 16  1  0  0  0  0
 16  2  1  0  0  0  0
 16 17  2  0  0  0  0
 17 18  1  0  0  0  0
 19 17  1  0  0  0  0
 19 20  1  0  0  0  0
 20 26  1  0  0  0  0
 21 20  1  0  0  0  0
 21 22  1  0  0  0  0
 23 21  2  0  0  0  0
 24 23  1  0  0  0  0
 24 19  2  0  0  0  0
 25 15  2  0  0  0  0
 25 24  1  0  0  0  0
 27 33  1  0  0  0  0
 27 32  1  0  0  0  0
 28 29  1  0  0  0  0
 28 27  2  0  0  0  0
 29 30  2  0  0  0  0
 30 31  1  0  0  0  0
 31 35  1  0  0  0  0
 32 31  2  0  0  0  0
 34 29  1  0  0  0  0
M  END
>  <minimizedAffinity>
-4.4186945

>  <minimizedRMSD>
1.93582082

$$$$
