
 OpenBabel03252506563D

 41 46  0  0  0  0  0  0  0  0999 V2000
   47.2000   31.4040   45.2880 C   0  0  0  0  0  0  0  0  0  0  0  0
   46.6700   32.6900   45.2880 C   0  0  0  0  0  0  0  0  0  0  0  0
   45.9310   33.1880   46.3350 C   0  0  0  0  0  0  0  0  0  0  0  0
   45.6800   32.4090   47.4580 C   0  0  0  0  0  0  0  0  0  0  0  0
   45.0120   32.5670   48.6410 N   0  0  0  0  0  0  0  0  0  0  0  0
   45.1270   31.4120   49.3470 C   0  0  0  0  0  0  0  0  0  0  0  0
   45.8580   30.5640   48.5990 N   0  0  0  0  0  0  0  0  0  0  0  0
   46.2080   31.1420   47.4440 C   0  0  0  0  0  0  0  0  0  0  0  0
   46.9450   30.6160   46.4240 C   0  0  0  0  0  0  0  0  0  0  0  0
   47.7820   31.0040   44.4690 H   0  0  0  0  0  0  0  0  0  0  0  0
   45.5170   34.1890   46.3390 H   0  0  0  0  0  0  0  0  0  0  0  0
   44.5230   33.4660   48.8720 H   0  0  0  0  0  0  0  0  0  0  0  0
   44.6850   31.2720   50.3270 H   0  0  0  0  0  0  0  0  0  0  0  0
   46.2000   35.2540   42.6980 C   0  0  0  0  0  0  0  0  0  0  0  0
   47.3850   35.1490   41.9530 C   0  0  0  0  0  0  0  0  0  0  0  0
   48.3270   34.2040   42.3440 C   0  0  0  0  0  0  0  0  0  0  0  0
   48.0650   33.4150   43.4390 N   0  0  0  0  0  0  0  0  0  0  0  0
   46.9050   33.5510   44.1310 C   0  0  0  0  0  0  0  0  0  0  0  0
   45.9770   34.4550   43.7760 N   0  0  0  0  0  0  0  0  0  0  0  0
   45.4540   35.9820   42.4110 H   0  0  0  0  0  0  0  0  0  0  0  0
   47.5490   35.7870   41.1020 H   0  0  0  0  0  0  0  0  0  0  0  0
   49.2380   34.1120   41.7850 H   0  0  0  0  0  0  0  0  0  0  0  0
   47.4740   29.2390   46.4990 C   0  0  0  0  0  0  0  0  0  0  0  0
   48.7340   28.9160   46.9940 C   0  0  0  0  0  0  0  0  0  0  0  0
   48.7770   27.5200   46.8620 C   0  0  0  0  0  0  0  0  0  0  0  0
   47.5790   27.0910   46.3120 C   0  0  0  0  0  0  0  0  0  0  0  0
   46.8390   28.1700   46.1160 O   0  0  0  0  0  0  0  0  0  0  0  0
   49.4350   29.6470   47.3690 H   0  0  0  0  0  0  0  0  0  0  0  0
   49.6510   26.9530   47.1690 H   0  0  0  0  0  0  0  0  0  0  0  0
   47.8130   25.0230   44.9520 C   0  0  0  0  0  3  0  0  0  0  0  0
   47.2760   25.6920   46.0330 C   0  0  0  0  0  0  0  0  0  0  0  0
   46.4140   24.9970   46.8850 C   0  0  0  0  0  0  0  0  0  0  0  0
   45.9550   25.4640   47.7570 H   0  0  0  0  0  0  0  0  0  0  0  0
   46.1500   23.6740   46.5900 C   0  0  0  0  0  0  0  0  0  0  0  0
   45.3830   22.7120   47.1760 N   0  0  0  0  0  0  0  0  0  0  0  0
   45.4550   21.5530   46.4960 C   0  0  0  0  0  0  0  0  0  0  0  0
   44.8990   20.6980   46.8430 H   0  0  0  0  0  0  0  0  0  0  0  0
   46.2850   21.7540   45.4440 N   0  0  0  0  0  0  0  0  0  0  0  0
   46.7030   23.0230   45.4960 C   0  0  0  0  0  0  0  0  0  0  0  0
   47.5510   23.7180   44.6650 C   0  0  0  0  0  3  0  0  0  0  0  0
   44.8370   22.9300   48.0450 H   0  0  0  0  0  0  0  0  0  0  0  0
  1  9  1  0  0  0  0
  2  1  2  0  0  0  0
  2  3  1  0  0  0  0
  3 11  1  0  0  0  0
  3  4  2  0  0  0  0
  4  5  1  0  0  0  0
  5 12  1  0  0  0  0
  5  6  1  0  0  0  0
  6 13  1  0  0  0  0
  7  6  2  0  0  0  0
  8  4  1  0  0  0  0
  8  7  1  0  0  0  0
  9 23  1  0  0  0  0
  9  8  2  0  0  0  0
 10  1  1  0  0  0  0
 14 19  1  0  0  0  0
 15 16  1  0  0  0  0
 15 14  2  0  0  0  0
 16 17  2  0  0  0  0
 17 18  1  0  0  0  0
 18  2  1  0  0  0  0
 19 18  2  0  0  0  0
 20 14  1  0  0  0  0
 21 15  1  0  0  0  0
 22 16  1  0  0  0  0
 23 24  2  0  0  0  0
 24 28  1  0  0  0  0
 25 24  1  0  0  0  0
 25 29  1  0  0  0  0
 26 25  2  0  0  0  0
 27 26  1  0  0  0  0
 27 23  1  0  0  0  0
 30 31  1  0  0  0  0
 31 26  1  0  0  0  0
 31 32  2  0  0  0  0
 32 33  1  0  0  0  0
 34 32  1  0  0  0  0
 34 35  1  0  0  0  0
 35 41  1  0  0  0  0
 36 37  1  0  0  0  0
 36 35  1  0  0  0  0
 38 39  1  0  0  0  0
 38 36  2  0  0  0  0
 39 34  2  0  0  0  0
 40 30  2  0  0  0  0
 40 39  1  0  0  0  0
M  END
>  <minimizedAffinity>
-5.43677902

>  <minimizedRMSD>
0.689391136

$$$$
