
 OpenBabel03252505353D

 33 36  0  0  0  0  0  0  0  0999 V2000
   37.7920   29.4880   41.6280 C   0  0  0  0  0  0  0  0  0  0  0  0
   38.0190   29.2960   42.9710 C   0  0  0  0  0  0  0  0  0  0  0  0
   37.5520   28.1930   43.6790 C   0  0  0  0  0  0  0  0  0  0  0  0
   36.8170   27.2220   43.0150 C   0  0  0  0  0  0  0  0  0  0  0  0
   36.5940   27.4200   41.6770 C   0  0  0  0  0  0  0  0  0  0  0  0
   37.0640   28.5200   40.9900 C   0  0  0  0  0  0  0  0  0  0  0  0
   38.5900   30.0380   43.5190 H   0  0  0  0  0  0  0  0  0  0  0  0
   37.7670   28.1010   44.7400 H   0  0  0  0  0  0  0  0  0  0  0  0
   36.4860   26.3960   43.6190 H   0  0  0  0  0  0  0  0  0  0  0  0
   36.0110   26.6360   41.1800 H   0  0  0  0  0  0  0  0  0  0  0  0
   35.4460   28.9530   39.3160 C   0  0  0  0  0  3  0  0  0  0  0  0
   36.7850   28.6560   39.5650 C   0  0  0  0  0  0  0  0  0  0  0  0
   37.6320   28.5330   38.4870 C   0  0  0  0  0  0  0  0  0  0  0  0
   38.6440   28.3020   38.7710 H   0  0  0  0  0  0  0  0  0  0  0  0
   37.1680   28.7000   37.2050 C   0  0  0  0  0  0  0  0  0  0  0  0
   37.8360   28.6200   36.0410 N   0  0  0  0  0  0  0  0  0  0  0  0
   36.9430   28.8620   35.0590 C   0  0  0  0  0  0  0  0  0  0  0  0
   37.1050   28.8840   33.9930 H   0  0  0  0  0  0  0  0  0  0  0  0
   35.7320   29.0880   35.6330 N   0  0  0  0  0  0  0  0  0  0  0  0
   35.8540   28.9920   36.9600 C   0  0  0  0  0  0  0  0  0  0  0  0
   34.9760   29.1210   38.0270 C   0  0  0  0  0  3  0  0  0  0  0  0
   38.8440   28.4130   35.9110 H   0  0  0  0  0  0  0  0  0  0  0  0
   40.0570   32.0620   40.1050 C   0  0  0  0  0  0  0  0  0  0  0  0
   39.6580   30.8590   40.7230 C   0  0  0  0  0  0  0  0  0  0  0  0
   38.3190   30.6630   41.0020 C   0  0  0  0  0  0  0  0  0  0  0  0
   37.4470   31.6440   40.6630 N   0  0  0  0  0  0  0  0  0  0  0  0
   37.8560   32.7910   40.0690 C   0  0  0  0  0  0  0  0  0  0  0  0
   39.1670   32.9910   39.7940 N   0  0  0  0  0  0  0  0  0  0  0  0
   36.9140   33.8140   39.7180 N   0  0  0  0  0  0  0  0  0  0  0  0
   41.1130   32.1950   39.8950 H   0  0  0  0  0  0  0  0  0  0  0  0
   40.3400   30.0760   40.9960 H   0  0  0  0  0  0  0  0  0  0  0  0
   37.0610   34.3890   38.8500 H   0  0  0  0  0  0  0  0  0  0  0  0
   36.0430   34.0690   40.2610 H   0  0  0  0  0  0  0  0  0  0  0  0
  1  2  1  0  0  0  0
  2  7  1  0  0  0  0
  2  3  2  0  0  0  0
  3  8  1  0  0  0  0
  4  9  1  0  0  0  0
  4  3  1  0  0  0  0
  5  4  2  0  0  0  0
  6  1  2  0  0  0  0
  6  5  1  0  0  0  0
 10  5  1  0  0  0  0
 11 12  1  0  0  0  0
 12  6  1  0  0  0  0
 13 14  1  0  0  0  0
 13 12  2  0  0  0  0
 15 13  1  0  0  0  0
 16 15  1  0  0  0  0
 17 19  2  0  0  0  0
 17 16  1  0  0  0  0
 18 17  1  0  0  0  0
 19 20  1  0  0  0  0
 20 15  2  0  0  0  0
 20 21  1  0  0  0  0
 21 11  2  0  0  0  0
 22 16  1  0  0  0  0
 23 24  1  0  0  0  0
 24 31  1  0  0  0  0
 24 25  2  0  0  0  0
 25  1  1  0  0  0  0
 26 25  1  0  0  0  0
 27 26  2  0  0  0  0
 28 27  1  0  0  0  0
 28 23  2  0  0  0  0
 29 27  1  0  0  0  0
 29 33  1  0  0  0  0
 30 23  1  0  0  0  0
 32 29  1  0  0  0  0
M  END
>  <minimizedAffinity>
-6.42011499

$$$$

 OpenBabel03252505353D

 33 36  0  0  0  0  0  0  0  0999 V2000
   41.2260   31.8720   41.2700 C   0  0  0  0  0  0  0  0  0  0  0  0
   42.2120   32.8230   41.1500 C   0  0  0  0  0  0  0  0  0  0  0  0
   43.2770   32.9420   42.0390 C   0  0  0  0  0  0  0  0  0  0  0  0
   43.3680   32.0640   43.1090 C   0  0  0  0  0  0  0  0  0  0  0  0
   42.3810   31.1180   43.2220 C   0  0  0  0  0  0  0  0  0  0  0  0
   41.3320   31.0150   42.3320 C   0  0  0  0  0  0  0  0  0  0  0  0
   42.1680   33.5250   40.3250 H   0  0  0  0  0  0  0  0  0  0  0  0
   44.0240   33.7160   41.8880 H   0  0  0  0  0  0  0  0  0  0  0  0
   44.2140   32.2080   43.7570 H   0  0  0  0  0  0  0  0  0  0  0  0
   42.4820   30.4400   44.0770 H   0  0  0  0  0  0  0  0  0  0  0  0
   40.7720   28.7240   42.1150 C   0  0  0  0  0  3  0  0  0  0  0  0
   40.3230   29.9800   42.5220 C   0  0  0  0  0  0  0  0  0  0  0  0
   39.0460   30.0790   43.0250 C   0  0  0  0  0  0  0  0  0  0  0  0
   38.7830   31.0820   43.3130 H   0  0  0  0  0  0  0  0  0  0  0  0
   38.2400   28.9710   43.1230 C   0  0  0  0  0  0  0  0  0  0  0  0
   36.9800   28.8710   43.5820 N   0  0  0  0  0  0  0  0  0  0  0  0
   36.6240   27.5750   43.4740 C   0  0  0  0  0  0  0  0  0  0  0  0
   35.6880   27.1090   43.7410 H   0  0  0  0  0  0  0  0  0  0  0  0
   37.6720   26.8890   42.9460 N   0  0  0  0  0  0  0  0  0  0  0  0
   38.6800   27.7380   42.7230 C   0  0  0  0  0  0  0  0  0  0  0  0
   39.9630   27.6070   42.2110 C   0  0  0  0  0  3  0  0  0  0  0  0
   36.3870   29.6390   43.9510 H   0  0  0  0  0  0  0  0  0  0  0  0
   39.0930   31.1160   38.2760 C   0  0  0  0  0  0  0  0  0  0  0  0
   40.1880   31.0540   39.1630 C   0  0  0  0  0  0  0  0  0  0  0  0
   40.1750   31.8440   40.2970 C   0  0  0  0  0  0  0  0  0  0  0  0
   39.1010   32.6460   40.5030 N   0  0  0  0  0  0  0  0  0  0  0  0
   38.0620   32.6870   39.6350 C   0  0  0  0  0  0  0  0  0  0  0  0
   38.0680   31.9160   38.5220 N   0  0  0  0  0  0  0  0  0  0  0  0
   36.9360   33.5410   39.8760 N   0  0  0  0  0  0  0  0  0  0  0  0
   39.1250   30.4880   37.3930 H   0  0  0  0  0  0  0  0  0  0  0  0
   41.0440   30.4240   39.0100 H   0  0  0  0  0  0  0  0  0  0  0  0
   35.9710   33.2320   39.5930 H   0  0  0  0  0  0  0  0  0  0  0  0
   36.9660   34.4960   40.3290 H   0  0  0  0  0  0  0  0  0  0  0  0
  1  6  1  0  0  0  0
  2  1  2  0  0  0  0
  2  3  1  0  0  0  0
  3  4  2  0  0  0  0
  4  5  1  0  0  0  0
  4  9  1  0  0  0  0
  5 10  1  0  0  0  0
  6 12  1  0  0  0  0
  6  5  2  0  0  0  0
  7  2  1  0  0  0  0
  8  3  1  0  0  0  0
 11 21  2  0  0  0  0
 11 12  1  0  0  0  0
 12 13  2  0  0  0  0
 13 15  1  0  0  0  0
 13 14  1  0  0  0  0
 15 16  1  0  0  0  0
 16 22  1  0  0  0  0
 17 16  1  0  0  0  0
 17 18  1  0  0  0  0
 19 17  2  0  0  0  0
 20 19  1  0  0  0  0
 20 15  2  0  0  0  0
 21 20  1  0  0  0  0
 23 28  2  0  0  0  0
 23 24  1  0  0  0  0
 24 25  2  0  0  0  0
 25 26  1  0  0  0  0
 25  1  1  0  0  0  0
 27 29  1  0  0  0  0
 27 26  2  0  0  0  0
 28 27  1  0  0  0  0
 29 33  1  0  0  0  0
 30 23  1  0  0  0  0
 31 24  1  0  0  0  0
 32 29  1  0  0  0  0
M  END
>  <minimizedAffinity>
-6.18993855

$$$$

 OpenBabel03252505353D

 33 36  0  0  0  0  0  0  0  0999 V2000
   37.5800   29.3100   41.4590 C   0  0  0  0  0  0  0  0  0  0  0  0
   38.2630   29.3020   42.6530 C   0  0  0  0  0  0  0  0  0  0  0  0
   38.0060   28.3960   43.6790 C   0  0  0  0  0  0  0  0  0  0  0  0
   37.0130   27.4430   43.5090 C   0  0  0  0  0  0  0  0  0  0  0  0
   36.3360   27.4580   42.3160 C   0  0  0  0  0  0  0  0  0  0  0  0
   36.6040   28.3630   41.3100 C   0  0  0  0  0  0  0  0  0  0  0  0
   39.0460   30.0350   42.8180 H   0  0  0  0  0  0  0  0  0  0  0  0
   38.5820   28.4430   44.5990 H   0  0  0  0  0  0  0  0  0  0  0  0
   36.8640   26.7740   44.3370 H   0  0  0  0  0  0  0  0  0  0  0  0
   35.5580   26.6930   42.2130 H   0  0  0  0  0  0  0  0  0  0  0  0
   34.6950   29.1070   40.1220 C   0  0  0  0  0  3  0  0  0  0  0  0
   35.8390   28.3120   40.0690 C   0  0  0  0  0  0  0  0  0  0  0  0
   36.0880   27.6120   38.9110 C   0  0  0  0  0  0  0  0  0  0  0  0
   36.9890   27.0250   38.9590 H   0  0  0  0  0  0  0  0  0  0  0  0
   35.2330   27.6980   37.8390 C   0  0  0  0  0  0  0  0  0  0  0  0
   35.3090   27.0960   36.6390 N   0  0  0  0  0  0  0  0  0  0  0  0
   34.2340   27.4970   35.9310 C   0  0  0  0  0  0  0  0  0  0  0  0
   33.9510   27.2270   34.9250 H   0  0  0  0  0  0  0  0  0  0  0  0
   33.5060   28.3440   36.7060 N   0  0  0  0  0  0  0  0  0  0  0  0
   34.1100   28.4780   37.8900 C   0  0  0  0  0  0  0  0  0  0  0  0
   33.8330   29.1950   39.0450 C   0  0  0  0  0  3  0  0  0  0  0  0
   36.0490   26.4470   36.3110 H   0  0  0  0  0  0  0  0  0  0  0  0
   39.1190   31.1320   38.5630 C   0  0  0  0  0  0  0  0  0  0  0  0
   38.8590   30.0870   39.4740 C   0  0  0  0  0  0  0  0  0  0  0  0
   37.9290   30.2900   40.4750 C   0  0  0  0  0  0  0  0  0  0  0  0
   37.3060   31.4930   40.5320 N   0  0  0  0  0  0  0  0  0  0  0  0
   37.5740   32.4810   39.6440 C   0  0  0  0  0  0  0  0  0  0  0  0
   38.4850   32.2890   38.6600 N   0  0  0  0  0  0  0  0  0  0  0  0
   36.9000   33.7440   39.7240 N   0  0  0  0  0  0  0  0  0  0  0  0
   39.8530   30.9510   37.7850 H   0  0  0  0  0  0  0  0  0  0  0  0
   39.3470   29.1320   39.4380 H   0  0  0  0  0  0  0  0  0  0  0  0
   36.6610   34.2690   38.8440 H   0  0  0  0  0  0  0  0  0  0  0  0
   36.6000   34.2330   40.6120 H   0  0  0  0  0  0  0  0  0  0  0  0
  1  2  1  0  0  0  0
  2  7  1  0  0  0  0
  2  3  2  0  0  0  0
  3  8  1  0  0  0  0
  4  3  1  0  0  0  0
  4  9  1  0  0  0  0
  5  4  2  0  0  0  0
  6  1  2  0  0  0  0
  6  5  1  0  0  0  0
 10  5  1  0  0  0  0
 12 11  1  0  0  0  0
 12  6  1  0  0  0  0
 13 14  1  0  0  0  0
 13 12  2  0  0  0  0
 15 20  2  0  0  0  0
 15 13  1  0  0  0  0
 16 15  1  0  0  0  0
 17 16  1  0  0  0  0
 17 19  2  0  0  0  0
 18 17  1  0  0  0  0
 19 20  1  0  0  0  0
 20 21  1  0  0  0  0
 21 11  2  0  0  0  0
 22 16  1  0  0  0  0
 23 28  2  0  0  0  0
 23 24  1  0  0  0  0
 24 25  2  0  0  0  0
 25 26  1  0  0  0  0
 25  1  1  0  0  0  0
 27 29  1  0  0  0  0
 27 26  2  0  0  0  0
 28 27  1  0  0  0  0
 29 33  1  0  0  0  0
 30 23  1  0  0  0  0
 31 24  1  0  0  0  0
 32 29  1  0  0  0  0
M  END
>  <minimizedAffinity>
-6.1396904

$$$$

 OpenBabel03252505353D

 33 36  0  0  0  0  0  0  0  0999 V2000
   37.3980   29.5570   41.3610 C   0  0  0  0  0  0  0  0  0  0  0  0
   38.1000   29.6620   42.5390 C   0  0  0  0  0  0  0  0  0  0  0  0
   37.9420   28.7850   43.6090 C   0  0  0  0  0  0  0  0  0  0  0  0
   37.0340   27.7420   43.5010 C   0  0  0  0  0  0  0  0  0  0  0  0
   36.3390   27.6430   42.3240 C   0  0  0  0  0  0  0  0  0  0  0  0
   36.5080   28.5210   41.2730 C   0  0  0  0  0  0  0  0  0  0  0  0
   38.8170   30.4680   42.6550 H   0  0  0  0  0  0  0  0  0  0  0  0
   38.5270   28.9240   44.5130 H   0  0  0  0  0  0  0  0  0  0  0  0
   36.9600   27.1010   44.3610 H   0  0  0  0  0  0  0  0  0  0  0  0
   35.6300   26.8090   42.2700 H   0  0  0  0  0  0  0  0  0  0  0  0
   36.2790   27.3840   39.2090 C   0  0  0  0  0  3  0  0  0  0  0  0
   35.7290   28.3470   40.0530 C   0  0  0  0  0  0  0  0  0  0  0  0
   34.5780   28.9820   39.6460 C   0  0  0  0  0  0  0  0  0  0  0  0
   34.2240   29.7090   40.3560 H   0  0  0  0  0  0  0  0  0  0  0  0
   33.9910   28.6720   38.4440 C   0  0  0  0  0  0  0  0  0  0  0  0
   32.8790   29.1790   37.8830 N   0  0  0  0  0  0  0  0  0  0  0  0
   32.7150   28.5530   36.7000 C   0  0  0  0  0  0  0  0  0  0  0  0
   31.9350   28.6910   35.9670 H   0  0  0  0  0  0  0  0  0  0  0  0
   33.7320   27.6650   36.5450 N   0  0  0  0  0  0  0  0  0  0  0  0
   34.5310   27.7270   37.6150 C   0  0  0  0  0  0  0  0  0  0  0  0
   35.6910   27.0700   37.9980 C   0  0  0  0  0  3  0  0  0  0  0  0
   32.2580   29.9120   38.2770 H   0  0  0  0  0  0  0  0  0  0  0  0
   37.3270   32.6020   39.1700 C   0  0  0  0  0  0  0  0  0  0  0  0
   37.0030   31.7400   40.2380 C   0  0  0  0  0  0  0  0  0  0  0  0
   37.6420   30.5180   40.3280 C   0  0  0  0  0  0  0  0  0  0  0  0
   38.5580   30.2060   39.3770 N   0  0  0  0  0  0  0  0  0  0  0  0
   38.8510   31.0530   38.3610 C   0  0  0  0  0  0  0  0  0  0  0  0
   38.2290   32.2520   38.2660 N   0  0  0  0  0  0  0  0  0  0  0  0
   39.8250   30.7020   37.3700 N   0  0  0  0  0  0  0  0  0  0  0  0
   36.8130   33.5560   39.1190 H   0  0  0  0  0  0  0  0  0  0  0  0
   36.2790   31.9760   40.9950 H   0  0  0  0  0  0  0  0  0  0  0  0
   40.4410   31.4440   36.9500 H   0  0  0  0  0  0  0  0  0  0  0  0
   40.0060   29.7300   36.9920 H   0  0  0  0  0  0  0  0  0  0  0  0
  1  2  1  0  0  0  0
  2  7  1  0  0  0  0
  2  3  2  0  0  0  0
  3  8  1  0  0  0  0
  4  3  1  0  0  0  0
  4  9  1  0  0  0  0
  5  4  2  0  0  0  0
  6  1  2  0  0  0  0
  6  5  1  0  0  0  0
 10  5  1  0  0  0  0
 11 12  1  0  0  0  0
 12  6  1  0  0  0  0
 13 12  2  0  0  0  0
 13 14  1  0  0  0  0
 15 13  1  0  0  0  0
 16 22  1  0  0  0  0
 16 15  1  0  0  0  0
 17 16  1  0  0  0  0
 18 17  1  0  0  0  0
 19 17  2  0  0  0  0
 19 20  1  0  0  0  0
 20 21  1  0  0  0  0
 20 15  2  0  0  0  0
 21 11  2  0  0  0  0
 23 24  1  0  0  0  0
 24 25  2  0  0  0  0
 24 31  1  0  0  0  0
 25  1  1  0  0  0  0
 26 25  1  0  0  0  0
 27 26  2  0  0  0  0
 28 27  1  0  0  0  0
 28 23  2  0  0  0  0
 29 27  1  0  0  0  0
 30 23  1  0  0  0  0
 32 29  1  0  0  0  0
 33 29  1  0  0  0  0
M  END
>  <minimizedAffinity>
-6.11434126

$$$$

 OpenBabel03252505353D

 33 36  0  0  0  0  0  0  0  0999 V2000
   36.3860   27.9910   38.9540 C   0  0  0  0  0  0  0  0  0  0  0  0
   35.6320   26.9260   38.5180 C   0  0  0  0  0  0  0  0  0  0  0  0
   34.8240   26.9700   37.3850 C   0  0  0  0  0  0  0  0  0  0  0  0
   34.7620   28.1390   36.6410 C   0  0  0  0  0  0  0  0  0  0  0  0
   35.5160   29.1960   37.0820 C   0  0  0  0  0  0  0  0  0  0  0  0
   36.3120   29.1360   38.2070 C   0  0  0  0  0  0  0  0  0  0  0  0
   35.6580   25.9980   39.0780 H   0  0  0  0  0  0  0  0  0  0  0  0
   34.2520   26.0930   37.0940 H   0  0  0  0  0  0  0  0  0  0  0  0
   34.1210   28.1070   35.7790 H   0  0  0  0  0  0  0  0  0  0  0  0
   35.4460   30.1050   36.4730 H   0  0  0  0  0  0  0  0  0  0  0  0
   38.3610   30.3120   38.0470 C   0  0  0  0  0  3  0  0  0  0  0  0
   37.0850   30.3050   38.6090 C   0  0  0  0  0  0  0  0  0  0  0  0
   36.7350   31.3490   39.4340 C   0  0  0  0  0  0  0  0  0  0  0  0
   35.7350   31.2620   39.8230 H   0  0  0  0  0  0  0  0  0  0  0  0
   37.6190   32.3690   39.6920 C   0  0  0  0  0  0  0  0  0  0  0  0
   37.4590   33.4600   40.4610 N   0  0  0  0  0  0  0  0  0  0  0  0
   38.6110   34.1580   40.3950 C   0  0  0  0  0  0  0  0  0  0  0  0
   38.8630   35.0890   40.8790 H   0  0  0  0  0  0  0  0  0  0  0  0
   39.4700   33.4860   39.5840 N   0  0  0  0  0  0  0  0  0  0  0  0
   38.8710   32.3760   39.1410 C   0  0  0  0  0  0  0  0  0  0  0  0
   39.2530   31.3360   38.3060 C   0  0  0  0  0  3  0  0  0  0  0  0
   36.6160   33.7240   41.0050 H   0  0  0  0  0  0  0  0  0  0  0  0
   39.0970   27.1090   41.3930 C   0  0  0  0  0  0  0  0  0  0  0  0
   38.4100   27.2050   40.1650 C   0  0  0  0  0  0  0  0  0  0  0  0
   37.1800   27.8330   40.1350 C   0  0  0  0  0  0  0  0  0  0  0  0
   36.6900   28.3310   41.2970 N   0  0  0  0  0  0  0  0  0  0  0  0
   37.3710   28.2260   42.4640 C   0  0  0  0  0  0  0  0  0  0  0  0
   38.5770   27.6120   42.5010 N   0  0  0  0  0  0  0  0  0  0  0  0
   36.8330   28.7630   43.6800 N   0  0  0  0  0  0  0  0  0  0  0  0
   40.0610   26.6120   41.3930 H   0  0  0  0  0  0  0  0  0  0  0  0
   38.7880   26.8130   39.2400 H   0  0  0  0  0  0  0  0  0  0  0  0
   37.4760   29.1790   44.4010 H   0  0  0  0  0  0  0  0  0  0  0  0
   35.8100   28.7920   43.9480 H   0  0  0  0  0  0  0  0  0  0  0  0
  1 25  1  0  0  0  0
  2  1  1  0  0  0  0
  2  7  1  0  0  0  0
  3  2  2  0  0  0  0
  4  5  2  0  0  0  0
  4  3  1  0  0  0  0
  5  6  1  0  0  0  0
  6 12  1  0  0  0  0
  6  1  2  0  0  0  0
  8  3  1  0  0  0  0
  9  4  1  0  0  0  0
 10  5  1  0  0  0  0
 11 21  2  0  0  0  0
 11 12  1  0  0  0  0
 12 13  2  0  0  0  0
 13 15  1  0  0  0  0
 13 14  1  0  0  0  0
 15 16  1  0  0  0  0
 16 22  1  0  0  0  0
 17 16  1  0  0  0  0
 17 18  1  0  0  0  0
 19 17  2  0  0  0  0
 20 19  1  0  0  0  0
 20 15  2  0  0  0  0
 21 20  1  0  0  0  0
 23 30  1  0  0  0  0
 23 28  1  0  0  0  0
 24 23  2  0  0  0  0
 25 24  1  0  0  0  0
 25 26  2  0  0  0  0
 26 27  1  0  0  0  0
 27 28  2  0  0  0  0
 27 29  1  0  0  0  0
 29 33  1  0  0  0  0
 29 32  1  0  0  0  0
 31 24  1  0  0  0  0
M  END
>  <minimizedAffinity>
-6.0586791

$$$$

 OpenBabel03252505353D

 33 36  0  0  0  0  0  0  0  0999 V2000
   36.9570   26.4750   40.3560 C   0  0  0  0  0  0  0  0  0  0  0  0
   37.1200   25.6110   41.4140 C   0  0  0  0  0  0  0  0  0  0  0  0
   36.7670   24.2650   41.3680 C   0  0  0  0  0  0  0  0  0  0  0  0
   36.2210   23.7460   40.2030 C   0  0  0  0  0  0  0  0  0  0  0  0
   36.0610   24.6140   39.1530 C   0  0  0  0  0  0  0  0  0  0  0  0
   36.4160   25.9460   39.2160 C   0  0  0  0  0  0  0  0  0  0  0  0
   37.5450   25.9850   42.3390 H   0  0  0  0  0  0  0  0  0  0  0  0
   36.9230   23.6350   42.2390 H   0  0  0  0  0  0  0  0  0  0  0  0
   35.9700   22.7020   40.2320 H   0  0  0  0  0  0  0  0  0  0  0  0
   35.6270   24.1750   38.2470 H   0  0  0  0  0  0  0  0  0  0  0  0
   34.9010   27.2580   37.9550 C   0  0  0  0  0  3  0  0  0  0  0  0
   36.2150   26.8030   38.0540 C   0  0  0  0  0  0  0  0  0  0  0  0
   37.1120   27.2000   37.0880 C   0  0  0  0  0  0  0  0  0  0  0  0
   38.1000   26.8030   37.2420 H   0  0  0  0  0  0  0  0  0  0  0  0
   36.7200   28.0220   36.0590 C   0  0  0  0  0  0  0  0  0  0  0  0
   37.4430   28.5090   35.0360 N   0  0  0  0  0  0  0  0  0  0  0  0
   36.6110   29.2660   34.2920 C   0  0  0  0  0  0  0  0  0  0  0  0
   36.8270   29.8190   33.3920 H   0  0  0  0  0  0  0  0  0  0  0  0
   35.3790   29.2340   34.8680 N   0  0  0  0  0  0  0  0  0  0  0  0
   35.4300   28.4680   35.9620 C   0  0  0  0  0  0  0  0  0  0  0  0
   34.5030   28.0840   36.9200 C   0  0  0  0  0  3  0  0  0  0  0  0
   38.4500   28.3430   34.8460 H   0  0  0  0  0  0  0  0  0  0  0  0
   38.9180   29.6680   40.5490 C   0  0  0  0  0  0  0  0  0  0  0  0
   38.6500   28.2960   40.3610 C   0  0  0  0  0  0  0  0  0  0  0  0
   37.3550   27.8410   40.5170 C   0  0  0  0  0  0  0  0  0  0  0  0
   36.3970   28.7440   40.8460 N   0  0  0  0  0  0  0  0  0  0  0  0
   36.6820   30.0570   41.0200 C   0  0  0  0  0  0  0  0  0  0  0  0
   37.9490   30.5100   40.8690 N   0  0  0  0  0  0  0  0  0  0  0  0
   35.6510   30.9920   41.3650 N   0  0  0  0  0  0  0  0  0  0  0  0
   39.9420   30.0030   40.4220 H   0  0  0  0  0  0  0  0  0  0  0  0
   39.4000   27.5730   40.1020 H   0  0  0  0  0  0  0  0  0  0  0  0
   35.6870   31.9760   40.9920 H   0  0  0  0  0  0  0  0  0  0  0  0
   34.8160   30.7970   41.9830 H   0  0  0  0  0  0  0  0  0  0  0  0
  1 25  1  0  0  0  0
  1  2  1  0  0  0  0
  2  7  1  0  0  0  0
  3  2  2  0  0  0  0
  3  8  1  0  0  0  0
  4  9  1  0  0  0  0
  4  3  1  0  0  0  0
  5  6  1  0  0  0  0
  5  4  2  0  0  0  0
  6  1  2  0  0  0  0
 10  5  1  0  0  0  0
 11 12  1  0  0  0  0
 12  6  1  0  0  0  0
 13 14  1  0  0  0  0
 13 12  2  0  0  0  0
 15 13  1  0  0  0  0
 16 15  1  0  0  0  0
 17 19  2  0  0  0  0
 17 16  1  0  0  0  0
 18 17  1  0  0  0  0
 19 20  1  0  0  0  0
 20 15  2  0  0  0  0
 20 21  1  0  0  0  0
 21 11  2  0  0  0  0
 22 16  1  0  0  0  0
 23 28  1  0  0  0  0
 24 25  1  0  0  0  0
 24 23  2  0  0  0  0
 25 26  2  0  0  0  0
 26 27  1  0  0  0  0
 27 29  1  0  0  0  0
 28 27  2  0  0  0  0
 29 33  1  0  0  0  0
 30 23  1  0  0  0  0
 31 24  1  0  0  0  0
 32 29  1  0  0  0  0
M  END
>  <minimizedAffinity>
-6.02656364

$$$$

 OpenBabel03252505353D

 33 36  0  0  0  0  0  0  0  0999 V2000
   37.6950   29.1570   41.5040 C   0  0  0  0  0  0  0  0  0  0  0  0
   36.6140   28.3920   41.8730 C   0  0  0  0  0  0  0  0  0  0  0  0
   36.6360   27.4950   42.9380 C   0  0  0  0  0  0  0  0  0  0  0  0
   37.7990   27.3500   43.6790 C   0  0  0  0  0  0  0  0  0  0  0  0
   38.8730   28.1170   43.3040 C   0  0  0  0  0  0  0  0  0  0  0  0
   38.8340   29.0010   42.2460 C   0  0  0  0  0  0  0  0  0  0  0  0
   35.6890   28.4810   41.3130 H   0  0  0  0  0  0  0  0  0  0  0  0
   35.7460   26.9200   43.1790 H   0  0  0  0  0  0  0  0  0  0  0  0
   37.7500   26.6430   44.4870 H   0  0  0  0  0  0  0  0  0  0  0  0
   39.7770   27.9800   43.9090 H   0  0  0  0  0  0  0  0  0  0  0  0
   40.7640   29.1970   40.8870 C   0  0  0  0  0  3  0  0  0  0  0  0
   40.0200   29.7810   41.9120 C   0  0  0  0  0  0  0  0  0  0  0  0
   40.4780   30.9600   42.4530 C   0  0  0  0  0  0  0  0  0  0  0  0
   39.8450   31.3380   43.2370 H   0  0  0  0  0  0  0  0  0  0  0  0
   41.6340   31.5430   41.9940 C   0  0  0  0  0  0  0  0  0  0  0  0
   42.2320   32.6790   42.3930 N   0  0  0  0  0  0  0  0  0  0  0  0
   43.3390   32.8260   41.6380 C   0  0  0  0  0  0  0  0  0  0  0  0
   44.0740   33.6160   41.6660 H   0  0  0  0  0  0  0  0  0  0  0  0
   43.4120   31.7740   40.7810 N   0  0  0  0  0  0  0  0  0  0  0  0
   42.3640   30.9700   40.9880 C   0  0  0  0  0  0  0  0  0  0  0  0
   41.9280   29.7810   40.4230 C   0  0  0  0  0  3  0  0  0  0  0  0
   41.9100   33.3270   43.1370 H   0  0  0  0  0  0  0  0  0  0  0  0
   37.4810   30.6220   38.0560 C   0  0  0  0  0  0  0  0  0  0  0  0
   37.6280   29.6500   39.0670 C   0  0  0  0  0  0  0  0  0  0  0  0
   37.5590   30.0460   40.3890 C   0  0  0  0  0  0  0  0  0  0  0  0
   37.3500   31.3600   40.6510 N   0  0  0  0  0  0  0  0  0  0  0  0
   37.2110   32.2740   39.6600 C   0  0  0  0  0  0  0  0  0  0  0  0
   37.2780   31.8940   38.3620 N   0  0  0  0  0  0  0  0  0  0  0  0
   36.9880   33.6580   39.9620 N   0  0  0  0  0  0  0  0  0  0  0  0
   37.5390   30.2890   37.0250 H   0  0  0  0  0  0  0  0  0  0  0  0
   37.7950   28.6080   38.8720 H   0  0  0  0  0  0  0  0  0  0  0  0
   36.3730   34.2410   39.3390 H   0  0  0  0  0  0  0  0  0  0  0  0
   37.3910   34.1880   40.7840 H   0  0  0  0  0  0  0  0  0  0  0  0
  1  2  2  0  0  0  0
  1  6  1  0  0  0  0
  2  3  1  0  0  0  0
  3  8  1  0  0  0  0
  3  4  2  0  0  0  0
  4  9  1  0  0  0  0
  5  4  1  0  0  0  0
  5 10  1  0  0  0  0
  6  5  2  0  0  0  0
  7  2  1  0  0  0  0
 11 12  1  0  0  0  0
 12  6  1  0  0  0  0
 12 13  2  0  0  0  0
 13 14  1  0  0  0  0
 15 16  1  0  0  0  0
 15 13  1  0  0  0  0
 16 22  1  0  0  0  0
 17 18  1  0  0  0  0
 17 16  1  0  0  0  0
 19 20  1  0  0  0  0
 19 17  2  0  0  0  0
 20 15  2  0  0  0  0
 21 11  2  0  0  0  0
 21 20  1  0  0  0  0
 23 28  2  0  0  0  0
 23 24  1  0  0  0  0
 24 25  2  0  0  0  0
 25 26  1  0  0  0  0
 25  1  1  0  0  0  0
 27 29  1  0  0  0  0
 27 26  2  0  0  0  0
 28 27  1  0  0  0  0
 29 33  1  0  0  0  0
 30 23  1  0  0  0  0
 31 24  1  0  0  0  0
 32 29  1  0  0  0  0
M  END
>  <minimizedAffinity>
-5.99456692

$$$$

 OpenBabel03252505353D

 33 36  0  0  0  0  0  0  0  0999 V2000
   36.2830   29.2370   37.1280 C   0  0  0  0  0  0  0  0  0  0  0  0
   35.7190   29.4770   35.8960 C   0  0  0  0  0  0  0  0  0  0  0  0
   34.3920   29.1870   35.5890 C   0  0  0  0  0  0  0  0  0  0  0  0
   33.5770   28.6280   36.5630 C   0  0  0  0  0  0  0  0  0  0  0  0
   34.1460   28.3920   37.7880 C   0  0  0  0  0  0  0  0  0  0  0  0
   35.4640   28.6840   38.0750 C   0  0  0  0  0  0  0  0  0  0  0  0
   36.3300   29.9130   35.1130 H   0  0  0  0  0  0  0  0  0  0  0  0
   34.0080   29.4020   34.5960 H   0  0  0  0  0  0  0  0  0  0  0  0
   32.5640   28.4290   36.2630 H   0  0  0  0  0  0  0  0  0  0  0  0
   33.4770   27.9490   38.5350 H   0  0  0  0  0  0  0  0  0  0  0  0
   36.3670   27.0680   39.5520 C   0  0  0  0  0  3  0  0  0  0  0  0
   35.9930   28.4030   39.4040 C   0  0  0  0  0  0  0  0  0  0  0  0
   36.1620   29.2450   40.4800 C   0  0  0  0  0  0  0  0  0  0  0  0
   35.8470   30.2550   40.2780 H   0  0  0  0  0  0  0  0  0  0  0  0
   36.6840   28.7800   41.6620 C   0  0  0  0  0  0  0  0  0  0  0  0
   36.9200   29.4430   42.8080 N   0  0  0  0  0  0  0  0  0  0  0  0
   37.4380   28.5520   43.6780 C   0  0  0  0  0  0  0  0  0  0  0  0
   37.7520   28.7110   44.6970 H   0  0  0  0  0  0  0  0  0  0  0  0
   37.5130   27.3460   43.0550 N   0  0  0  0  0  0  0  0  0  0  0  0
   37.0510   27.4700   41.8080 C   0  0  0  0  0  0  0  0  0  0  0  0
   36.8920   26.5970   40.7410 C   0  0  0  0  0  3  0  0  0  0  0  0
   36.7430   30.4480   42.9970 H   0  0  0  0  0  0  0  0  0  0  0  0
   40.0190   29.1240   37.4550 C   0  0  0  0  0  0  0  0  0  0  0  0
   38.7020   28.6720   37.2300 C   0  0  0  0  0  0  0  0  0  0  0  0
   37.6600   29.5730   37.3310 C   0  0  0  0  0  0  0  0  0  0  0  0
   37.9570   30.8590   37.6420 N   0  0  0  0  0  0  0  0  0  0  0  0
   39.2310   31.2680   37.8530 C   0  0  0  0  0  0  0  0  0  0  0  0
   40.2580   30.3900   37.7570 N   0  0  0  0  0  0  0  0  0  0  0  0
   39.5200   32.6340   38.1790 N   0  0  0  0  0  0  0  0  0  0  0  0
   40.8210   28.4000   37.3710 H   0  0  0  0  0  0  0  0  0  0  0  0
   38.4560   27.6570   36.9840 H   0  0  0  0  0  0  0  0  0  0  0  0
   40.4040   33.0840   37.8270 H   0  0  0  0  0  0  0  0  0  0  0  0
   38.9150   33.2760   38.7620 H   0  0  0  0  0  0  0  0  0  0  0  0
  1 25  1  0  0  0  0
  1  6  1  0  0  0  0
  2  1  2  0  0  0  0
  3  2  1  0  0  0  0
  3  4  2  0  0  0  0
  4  5  1  0  0  0  0
  5  6  2  0  0  0  0
  5 10  1  0  0  0  0
  6 12  1  0  0  0  0
  7  2  1  0  0  0  0
  8  3  1  0  0  0  0
  9  4  1  0  0  0  0
 11 21  1  0  0  0  0
 12 11  2  0  0  0  0
 12 13  1  0  0  0  0
 13 15  2  0  0  0  0
 14 13  1  0  0  0  0
 15 20  1  0  0  0  0
 15 16  1  0  0  0  0
 16 22  1  0  0  0  0
 16 17  1  0  0  0  0
 17 18  1  0  0  0  0
 19 17  2  0  0  0  0
 20 19  1  0  0  0  0
 21 20  2  0  0  0  0
 23 28  1  0  0  0  0
 24 25  1  0  0  0  0
 24 23  2  0  0  0  0
 25 26  2  0  0  0  0
 26 27  1  0  0  0  0
 27 29  1  0  0  0  0
 28 27  2  0  0  0  0
 29 33  1  0  0  0  0
 30 23  1  0  0  0  0
 31 24  1  0  0  0  0
 32 29  1  0  0  0  0
M  END
>  <minimizedAffinity>
-5.89878225

$$$$

 OpenBabel03252505353D

 33 36  0  0  0  0  0  0  0  0999 V2000
   36.1230   29.2490   38.0970 C   0  0  0  0  0  0  0  0  0  0  0  0
   35.3010   29.2880   36.9940 C   0  0  0  0  0  0  0  0  0  0  0  0
   34.5270   28.2100   36.5750 C   0  0  0  0  0  0  0  0  0  0  0  0
   34.5700   27.0240   37.2930 C   0  0  0  0  0  0  0  0  0  0  0  0
   35.3910   26.9930   38.3910 C   0  0  0  0  0  0  0  0  0  0  0  0
   36.1520   28.0710   38.7930 C   0  0  0  0  0  0  0  0  0  0  0  0
   35.2460   30.2010   36.4100 H   0  0  0  0  0  0  0  0  0  0  0  0
   33.8980   28.3060   35.6940 H   0  0  0  0  0  0  0  0  0  0  0  0
   33.9490   26.2310   36.9180 H   0  0  0  0  0  0  0  0  0  0  0  0
   35.4030   26.0430   38.9380 H   0  0  0  0  0  0  0  0  0  0  0  0
   36.2680   28.0310   41.1580 C   0  0  0  0  0  3  0  0  0  0  0  0
   37.0000   27.9580   39.9730 C   0  0  0  0  0  0  0  0  0  0  0  0
   38.3640   27.7970   40.0640 C   0  0  0  0  0  0  0  0  0  0  0  0
   38.8480   27.7510   39.1040 H   0  0  0  0  0  0  0  0  0  0  0  0
   38.9830   27.7110   41.2880 C   0  0  0  0  0  0  0  0  0  0  0  0
   40.2870   27.5560   41.5740 N   0  0  0  0  0  0  0  0  0  0  0  0
   40.3940   27.5280   42.9180 C   0  0  0  0  0  0  0  0  0  0  0  0
   41.2820   27.4180   43.5210 H   0  0  0  0  0  0  0  0  0  0  0  0
   39.1490   27.6690   43.4460 N   0  0  0  0  0  0  0  0  0  0  0  0
   38.2640   27.7840   42.4510 C   0  0  0  0  0  0  0  0  0  0  0  0
   36.8880   27.9460   42.3910 C   0  0  0  0  0  3  0  0  0  0  0  0
   41.0700   27.4710   40.8970 H   0  0  0  0  0  0  0  0  0  0  0  0
   37.4440   32.3390   39.7670 C   0  0  0  0  0  0  0  0  0  0  0  0
   36.6320   31.2070   39.5420 C   0  0  0  0  0  0  0  0  0  0  0  0
   36.8760   30.4200   38.4340 C   0  0  0  0  0  0  0  0  0  0  0  0
   37.8930   30.7760   37.6100 N   0  0  0  0  0  0  0  0  0  0  0  0
   38.6580   31.8680   37.8480 C   0  0  0  0  0  0  0  0  0  0  0  0
   38.4240   32.6450   38.9330 N   0  0  0  0  0  0  0  0  0  0  0  0
   39.7290   32.2230   36.9640 N   0  0  0  0  0  0  0  0  0  0  0  0
   37.2340   32.9430   40.6430 H   0  0  0  0  0  0  0  0  0  0  0  0
   35.8250   30.9170   40.1870 H   0  0  0  0  0  0  0  0  0  0  0  0
   40.6080   32.6550   37.3480 H   0  0  0  0  0  0  0  0  0  0  0  0
   39.7370   32.0940   35.9140 H   0  0  0  0  0  0  0  0  0  0  0  0
  1 25  1  0  0  0  0
  1  6  1  0  0  0  0
  2  1  2  0  0  0  0
  3  2  1  0  0  0  0
  3  4  2  0  0  0  0
  4  5  1  0  0  0  0
  5  6  2  0  0  0  0
  5 10  1  0  0  0  0
  6 12  1  0  0  0  0
  7  2  1  0  0  0  0
  8  3  1  0  0  0  0
  9  4  1  0  0  0  0
 11 21  1  0  0  0  0
 12 13  1  0  0  0  0
 12 11  2  0  0  0  0
 13 15  2  0  0  0  0
 14 13  1  0  0  0  0
 15 16  1  0  0  0  0
 15 20  1  0  0  0  0
 16 17  1  0  0  0  0
 17 19  2  0  0  0  0
 17 18  1  0  0  0  0
 20 19  1  0  0  0  0
 21 20  2  0  0  0  0
 22 16  1  0  0  0  0
 23 30  1  0  0  0  0
 24 23  1  0  0  0  0
 24 31  1  0  0  0  0
 25 24  2  0  0  0  0
 26 27  2  0  0  0  0
 26 25  1  0  0  0  0
 27 28  1  0  0  0  0
 28 23  2  0  0  0  0
 29 32  1  0  0  0  0
 29 27  1  0  0  0  0
 33 29  1  0  0  0  0
M  END
>  <minimizedAffinity>
-5.79661322

$$$$
