
 OpenBabel03252500113D

 34 37  0  0  0  0  0  0  0  0999 V2000
   40.4790   30.0480   39.7640 Cl  0  0  0  0  0  0  0  0  0  0  0  0
   39.3960   31.3950   39.8330 C   0  0  0  0  0  0  0  0  0  0  0  0
   38.0500   31.1980   40.0180 C   0  0  0  0  0  0  0  0  0  0  0  0
   37.1480   32.2690   40.0780 C   0  0  0  0  0  0  0  0  0  0  0  0
   37.6900   33.5320   39.9410 C   0  0  0  0  0  0  0  0  0  0  0  0
   39.0360   33.7270   39.7560 C   0  0  0  0  0  0  0  0  0  0  0  0
   39.8850   32.6760   39.7020 C   0  0  0  0  0  0  0  0  0  0  0  0
   36.1200   32.0270   40.2250 H   0  0  0  0  0  0  0  0  0  0  0  0
   36.9500   34.3290   39.9940 H   0  0  0  0  0  0  0  0  0  0  0  0
   39.3360   34.7600   39.6620 H   0  0  0  0  0  0  0  0  0  0  0  0
   42.0930   33.4300   40.5440 C   0  0  0  0  0  3  0  0  0  0  0  0
   41.2990   32.9780   39.5020 C   0  0  0  0  0  0  0  0  0  0  0  0
   41.8980   32.8240   38.2640 C   0  0  0  0  0  0  0  0  0  0  0  0
   41.3600   32.4830   37.4130 H   0  0  0  0  0  0  0  0  0  0  0  0
   43.2280   33.0970   38.0290 C   0  0  0  0  0  0  0  0  0  0  0  0
   44.0260   33.0280   36.9370 N   0  0  0  0  0  0  0  0  0  0  0  0
   45.2700   33.4200   37.2720 C   0  0  0  0  0  0  0  0  0  0  0  0
   46.0650   33.4340   36.5250 H   0  0  0  0  0  0  0  0  0  0  0  0
   45.2600   33.7410   38.5960 N   0  0  0  0  0  0  0  0  0  0  0  0
   44.0150   33.5510   39.0840 C   0  0  0  0  0  0  0  0  0  0  0  0
   43.4350   33.7110   40.3260 C   0  0  0  0  0  3  0  0  0  0  0  0
   43.6940   32.7120   35.9850 H   0  0  0  0  0  0  0  0  0  0  0  0
   36.5970   27.9110   39.2130 C   0  0  0  0  0  0  0  0  0  0  0  0
   36.5840   27.2720   40.4710 C   0  0  0  0  0  0  0  0  0  0  0  0
   37.0690   27.9740   41.5590 C   0  0  0  0  0  0  0  0  0  0  0  0
   37.5370   29.2380   41.3860 N   0  0  0  0  0  0  0  0  0  0  0  0
   37.5380   29.8360   40.1570 C   0  0  0  0  0  0  0  0  0  0  0  0
   37.0670   29.1630   39.0830 N   0  0  0  0  0  0  0  0  0  0  0  0
   36.2130   27.3490   38.3660 H   0  0  0  0  0  0  0  0  0  0  0  0
   36.2260   26.2830   40.6440 H   0  0  0  0  0  0  0  0  0  0  0  0
   37.1090   27.4030   42.9500 C   0  0  0  0  0  0  0  0  0  0  0  0
   35.8500   27.3910   43.5080 F   0  0  0  0  0  0  0  0  0  0  0  0
   37.5890   26.1010   42.8880 F   0  0  0  0  0  0  0  0  0  0  0  0
   37.9530   28.1990   43.6800 F   0  0  0  0  0  0  0  0  0  0  0  0
  1  2  1  0  0  0  0
  2  3  1  0  0  0  0
  3  4  2  0  0  0  0
  3 27  1  0  0  0  0
  4  8  1  0  0  0  0
  5  9  1  0  0  0  0
  5  4  1  0  0  0  0
  6  5  2  0  0  0  0
  7  6  1  0  0  0  0
  7  2  2  0  0  0  0
 10  6  1  0  0  0  0
 12  7  1  0  0  0  0
 12 11  2  0  0  0  0
 13 12  1  0  0  0  0
 14 13  1  0  0  0  0
 15 13  2  0  0  0  0
 15 20  1  0  0  0  0
 16 17  1  0  0  0  0
 16 15  1  0  0  0  0
 17 19  2  0  0  0  0
 18 17  1  0  0  0  0
 19 20  1  0  0  0  0
 20 21  2  0  0  0  0
 21 11  1  0  0  0  0
 22 16  1  0  0  0  0
 23 24  1  0  0  0  0
 24 30  1  0  0  0  0
 24 25  2  0  0  0  0
 25 31  1  0  0  0  0
 26 25  1  0  0  0  0
 27 26  2  0  0  0  0
 28 23  2  0  0  0  0
 28 27  1  0  0  0  0
 29 23  1  0  0  0  0
 31 32  1  0  0  0  0
 31 34  1  0  0  0  0
 33 31  1  0  0  0  0
M  END
>  <minimizedAffinity>
-6.33088636

$$$$

 OpenBabel03252500113D

 34 37  0  0  0  0  0  0  0  0999 V2000
   38.3630   28.0140   39.4490 Cl  0  0  0  0  0  0  0  0  0  0  0  0
   37.8190   27.9070   41.0870 C   0  0  0  0  0  0  0  0  0  0  0  0
   37.5130   26.6880   41.6410 C   0  0  0  0  0  0  0  0  0  0  0  0
   37.0690   26.5690   42.9660 C   0  0  0  0  0  0  0  0  0  0  0  0
   36.9570   27.7460   43.6800 C   0  0  0  0  0  0  0  0  0  0  0  0
   37.2620   28.9640   43.1240 C   0  0  0  0  0  0  0  0  0  0  0  0
   37.6880   29.0500   41.8430 C   0  0  0  0  0  0  0  0  0  0  0  0
   36.8550   25.5860   43.3170 H   0  0  0  0  0  0  0  0  0  0  0  0
   36.6090   27.6010   44.7020 H   0  0  0  0  0  0  0  0  0  0  0  0
   37.1330   29.8080   43.7830 H   0  0  0  0  0  0  0  0  0  0  0  0
   37.0370   31.1310   40.6610 C   0  0  0  0  0  3  0  0  0  0  0  0
   37.9890   30.3850   41.3360 C   0  0  0  0  0  0  0  0  0  0  0  0
   39.2380   30.9560   41.5140 C   0  0  0  0  0  0  0  0  0  0  0  0
   40.0240   30.4510   42.0200 H   0  0  0  0  0  0  0  0  0  0  0  0
   39.5670   32.2120   41.0520 C   0  0  0  0  0  0  0  0  0  0  0  0
   40.6880   32.9690   41.0990 N   0  0  0  0  0  0  0  0  0  0  0  0
   40.4560   34.1430   40.4800 C   0  0  0  0  0  0  0  0  0  0  0  0
   41.2420   34.8960   40.4110 H   0  0  0  0  0  0  0  0  0  0  0  0
   39.1690   34.1280   40.0350 N   0  0  0  0  0  0  0  0  0  0  0  0
   38.6000   32.9510   40.3750 C   0  0  0  0  0  0  0  0  0  0  0  0
   37.3490   32.3990   40.1890 C   0  0  0  0  0  3  0  0  0  0  0  0
   41.5880   32.6600   41.5570 H   0  0  0  0  0  0  0  0  0  0  0  0
   38.9920   23.7900   39.9150 C   0  0  0  0  0  0  0  0  0  0  0  0
   37.8670   23.1990   39.3020 C   0  0  0  0  0  0  0  0  0  0  0  0
   36.6350   23.8000   39.4910 C   0  0  0  0  0  0  0  0  0  0  0  0
   36.5490   24.9240   40.2510 N   0  0  0  0  0  0  0  0  0  0  0  0
   37.6540   25.4780   40.8330 C   0  0  0  0  0  0  0  0  0  0  0  0
   38.8650   24.9020   40.6590 N   0  0  0  0  0  0  0  0  0  0  0  0
   39.9530   23.3080   39.7580 H   0  0  0  0  0  0  0  0  0  0  0  0
   37.8960   22.3200   38.7010 H   0  0  0  0  0  0  0  0  0  0  0  0
   35.3630   23.2670   38.8920 C   0  0  0  0  0  0  0  0  0  0  0  0
   34.4610   22.9360   39.8780 F   0  0  0  0  0  0  0  0  0  0  0  0
   34.8060   24.2440   38.0780 F   0  0  0  0  0  0  0  0  0  0  0  0
   35.7050   22.1600   38.1600 F   0  0  0  0  0  0  0  0  0  0  0  0
  1  2  1  0  0  0  0
  2  3  2  0  0  0  0
  2  7  1  0  0  0  0
  3  4  1  0  0  0  0
  4  8  1  0  0  0  0
  4  5  2  0  0  0  0
  5  9  1  0  0  0  0
  6  5  1  0  0  0  0
  6 10  1  0  0  0  0
  7  6  2  0  0  0  0
 11 12  1  0  0  0  0
 12 13  2  0  0  0  0
 12  7  1  0  0  0  0
 13 14  1  0  0  0  0
 15 16  1  0  0  0  0
 15 13  1  0  0  0  0
 16 22  1  0  0  0  0
 17 16  1  0  0  0  0
 18 17  1  0  0  0  0
 19 20  1  0  0  0  0
 19 17  2  0  0  0  0
 20 15  2  0  0  0  0
 21 20  1  0  0  0  0
 21 11  2  0  0  0  0
 23 28  1  0  0  0  0
 24 25  1  0  0  0  0
 24 23  2  0  0  0  0
 25 26  2  0  0  0  0
 26 27  1  0  0  0  0
 27  3  1  0  0  0  0
 28 27  2  0  0  0  0
 29 23  1  0  0  0  0
 30 24  1  0  0  0  0
 31 25  1  0  0  0  0
 31 32  1  0  0  0  0
 33 31  1  0  0  0  0
 34 31  1  0  0  0  0
M  END
>  <minimizedAffinity>
-6.26913357

$$$$

 OpenBabel03252500113D

 34 37  0  0  0  0  0  0  0  0999 V2000
   39.4390   28.6850   39.1130 Cl  0  0  0  0  0  0  0  0  0  0  0  0
   38.1380   29.5860   39.8110 C   0  0  0  0  0  0  0  0  0  0  0  0
   36.9410   28.9760   40.0940 C   0  0  0  0  0  0  0  0  0  0  0  0
   35.8680   29.6800   40.6590 C   0  0  0  0  0  0  0  0  0  0  0  0
   36.0840   31.0200   40.9140 C   0  0  0  0  0  0  0  0  0  0  0  0
   37.2810   31.6290   40.6290 C   0  0  0  0  0  0  0  0  0  0  0  0
   38.3000   30.9260   40.0840 C   0  0  0  0  0  0  0  0  0  0  0  0
   34.9750   29.1290   40.8480 H   0  0  0  0  0  0  0  0  0  0  0  0
   35.2220   31.5220   41.3520 H   0  0  0  0  0  0  0  0  0  0  0  0
   37.3250   32.6790   40.8740 H   0  0  0  0  0  0  0  0  0  0  0  0
   40.4830   31.8570   40.8060 C   0  0  0  0  0  3  0  0  0  0  0  0
   39.5350   31.6560   39.8150 C   0  0  0  0  0  0  0  0  0  0  0  0
   39.8060   32.1730   38.5600 C   0  0  0  0  0  0  0  0  0  0  0  0
   39.1320   32.0630   37.7460 H   0  0  0  0  0  0  0  0  0  0  0  0
   40.9570   32.8680   38.2610 C   0  0  0  0  0  0  0  0  0  0  0  0
   41.4390   33.4560   37.1410 N   0  0  0  0  0  0  0  0  0  0  0  0
   42.6380   34.0060   37.4100 C   0  0  0  0  0  0  0  0  0  0  0  0
   43.1930   34.5300   36.6310 H   0  0  0  0  0  0  0  0  0  0  0  0
   42.9200   33.7620   38.7210 N   0  0  0  0  0  0  0  0  0  0  0  0
   41.9010   33.0630   39.2660 C   0  0  0  0  0  0  0  0  0  0  0  0
   41.6500   32.5550   40.5240 C   0  0  0  0  0  3  0  0  0  0  0  0
   40.9290   33.4650   36.2150 H   0  0  0  0  0  0  0  0  0  0  0  0
   36.1520   25.8380   38.3340 C   0  0  0  0  0  0  0  0  0  0  0  0
   36.4800   24.8620   39.2990 C   0  0  0  0  0  0  0  0  0  0  0  0
   36.9620   25.2950   40.5210 C   0  0  0  0  0  0  0  0  0  0  0  0
   37.1010   26.6270   40.7520 N   0  0  0  0  0  0  0  0  0  0  0  0
   36.7750   27.5530   39.8020 C   0  0  0  0  0  0  0  0  0  0  0  0
   36.3040   27.1470   38.6010 N   0  0  0  0  0  0  0  0  0  0  0  0
   35.7760   25.4850   37.3780 H   0  0  0  0  0  0  0  0  0  0  0  0
   36.3850   23.8110   39.1530 H   0  0  0  0  0  0  0  0  0  0  0  0
   37.3470   24.3540   41.6290 C   0  0  0  0  0  0  0  0  0  0  0  0
   37.3330   23.0500   41.1880 F   0  0  0  0  0  0  0  0  0  0  0  0
   38.6260   24.6710   42.0650 F   0  0  0  0  0  0  0  0  0  0  0  0
   36.4320   24.5320   42.6340 F   0  0  0  0  0  0  0  0  0  0  0  0
  1  2  1  0  0  0  0
  2  7  2  0  0  0  0
  2  3  1  0  0  0  0
  3  4  2  0  0  0  0
  4  8  1  0  0  0  0
  4  5  1  0  0  0  0
  5  9  1  0  0  0  0
  6 10  1  0  0  0  0
  6  5  2  0  0  0  0
  7  6  1  0  0  0  0
 12  7  1  0  0  0  0
 12 11  2  0  0  0  0
 13 12  1  0  0  0  0
 14 13  1  0  0  0  0
 15 13  2  0  0  0  0
 15 20  1  0  0  0  0
 16 17  1  0  0  0  0
 16 15  1  0  0  0  0
 17 19  2  0  0  0  0
 18 17  1  0  0  0  0
 19 20  1  0  0  0  0
 20 21  2  0  0  0  0
 21 11  1  0  0  0  0
 22 16  1  0  0  0  0
 23 28  2  0  0  0  0
 23 24  1  0  0  0  0
 24 25  2  0  0  0  0
 25 26  1  0  0  0  0
 25 31  1  0  0  0  0
 27  3  1  0  0  0  0
 27 26  2  0  0  0  0
 28 27  1  0  0  0  0
 29 23  1  0  0  0  0
 30 24  1  0  0  0  0
 31 33  1  0  0  0  0
 31 34  1  0  0  0  0
 32 31  1  0  0  0  0
M  END
>  <minimizedAffinity>
-6.18976688

$$$$

 OpenBabel03252500113D

 34 37  0  0  0  0  0  0  0  0999 V2000
   40.4960   30.0460   41.2460 Cl  0  0  0  0  0  0  0  0  0  0  0  0
   39.1710   30.9920   40.6630 C   0  0  0  0  0  0  0  0  0  0  0  0
   37.8760   30.5850   40.8780 C   0  0  0  0  0  0  0  0  0  0  0  0
   36.7820   31.3310   40.4170 C   0  0  0  0  0  0  0  0  0  0  0  0
   37.0800   32.4950   39.7370 C   0  0  0  0  0  0  0  0  0  0  0  0
   38.3740   32.9000   39.5230 C   0  0  0  0  0  0  0  0  0  0  0  0
   39.4120   32.1620   39.9780 C   0  0  0  0  0  0  0  0  0  0  0  0
   35.8110   30.9430   40.6270 H   0  0  0  0  0  0  0  0  0  0  0  0
   36.1970   33.0380   39.4000 H   0  0  0  0  0  0  0  0  0  0  0  0
   38.4750   33.8270   38.9800 H   0  0  0  0  0  0  0  0  0  0  0  0
   41.4250   33.4600   40.6230 C   0  0  0  0  0  3  0  0  0  0  0  0
   40.7530   32.6690   39.7050 C   0  0  0  0  0  0  0  0  0  0  0  0
   41.4020   32.3790   38.5180 C   0  0  0  0  0  0  0  0  0  0  0  0
   40.9570   31.7800   37.7610 H   0  0  0  0  0  0  0  0  0  0  0  0
   42.6670   32.8360   38.2160 C   0  0  0  0  0  0  0  0  0  0  0  0
   43.4920   32.6930   37.1530 N   0  0  0  0  0  0  0  0  0  0  0  0
   44.6360   33.3640   37.3870 C   0  0  0  0  0  0  0  0  0  0  0  0
   45.4340   33.3700   36.6440 H   0  0  0  0  0  0  0  0  0  0  0  0
   44.5340   33.9400   38.6180 N   0  0  0  0  0  0  0  0  0  0  0  0
   43.3310   33.6300   39.1480 C   0  0  0  0  0  0  0  0  0  0  0  0
   42.7000   33.9300   40.3380 C   0  0  0  0  0  3  0  0  0  0  0  0
   43.2480   32.1360   36.2890 H   0  0  0  0  0  0  0  0  0  0  0  0
   37.3340   28.1910   43.6230 C   0  0  0  0  0  0  0  0  0  0  0  0
   37.1560   26.9750   42.9310 C   0  0  0  0  0  0  0  0  0  0  0  0
   37.2240   27.0000   41.5490 C   0  0  0  0  0  0  0  0  0  0  0  0
   37.4570   28.1770   40.9120 N   0  0  0  0  0  0  0  0  0  0  0  0
   37.6270   29.3420   41.6050 C   0  0  0  0  0  0  0  0  0  0  0  0
   37.5630   29.3350   42.9560 N   0  0  0  0  0  0  0  0  0  0  0  0
   37.2780   28.1580   44.7080 H   0  0  0  0  0  0  0  0  0  0  0  0
   36.9710   26.0350   43.3960 H   0  0  0  0  0  0  0  0  0  0  0  0
   37.0500   25.7720   40.6990 C   0  0  0  0  0  0  0  0  0  0  0  0
   36.1630   26.0110   39.6730 F   0  0  0  0  0  0  0  0  0  0  0  0
   38.2810   25.4210   40.1600 F   0  0  0  0  0  0  0  0  0  0  0  0
   36.5800   24.7840   41.5230 F   0  0  0  0  0  0  0  0  0  0  0  0
  2  3  1  0  0  0  0
  2  1  1  0  0  0  0
  3 27  1  0  0  0  0
  4  8  1  0  0  0  0
  4  3  2  0  0  0  0
  5  4  1  0  0  0  0
  6  5  2  0  0  0  0
  6  7  1  0  0  0  0
  7  2  2  0  0  0  0
  9  5  1  0  0  0  0
 10  6  1  0  0  0  0
 12  7  1  0  0  0  0
 12 11  2  0  0  0  0
 13 12  1  0  0  0  0
 14 13  1  0  0  0  0
 15 13  2  0  0  0  0
 15 20  1  0  0  0  0
 16 17  1  0  0  0  0
 16 15  1  0  0  0  0
 17 19  2  0  0  0  0
 18 17  1  0  0  0  0
 19 20  1  0  0  0  0
 20 21  2  0  0  0  0
 21 11  1  0  0  0  0
 22 16  1  0  0  0  0
 23 29  1  0  0  0  0
 24 30  1  0  0  0  0
 24 23  2  0  0  0  0
 25 24  1  0  0  0  0
 26 25  2  0  0  0  0
 26 27  1  0  0  0  0
 27 28  2  0  0  0  0
 28 23  1  0  0  0  0
 31 34  1  0  0  0  0
 31 25  1  0  0  0  0
 32 31  1  0  0  0  0
 33 31  1  0  0  0  0
M  END
>  <minimizedAffinity>
-6.18854666

$$$$

 OpenBabel03252500113D

 34 37  0  0  0  0  0  0  0  0999 V2000
   37.2270   28.2080   40.0510 Cl  0  0  0  0  0  0  0  0  0  0  0  0
   36.7300   28.4090   38.4070 C   0  0  0  0  0  0  0  0  0  0  0  0
   36.1740   27.3610   37.7140 C   0  0  0  0  0  0  0  0  0  0  0  0
   35.7620   27.4930   36.3800 C   0  0  0  0  0  0  0  0  0  0  0  0
   35.9470   28.7340   35.8040 C   0  0  0  0  0  0  0  0  0  0  0  0
   36.5030   29.7800   36.4980 C   0  0  0  0  0  0  0  0  0  0  0  0
   36.8920   29.6260   37.7840 C   0  0  0  0  0  0  0  0  0  0  0  0
   35.3400   26.6300   35.9180 H   0  0  0  0  0  0  0  0  0  0  0  0
   35.6110   28.7860   34.7690 H   0  0  0  0  0  0  0  0  0  0  0  0
   36.5940   30.6980   35.9380 H   0  0  0  0  0  0  0  0  0  0  0  0
   36.7850   31.4790   39.4300 C   0  0  0  0  0  3  0  0  0  0  0  0
   37.4730   30.7920   38.4420 C   0  0  0  0  0  0  0  0  0  0  0  0
   38.7330   31.2540   38.1040 C   0  0  0  0  0  0  0  0  0  0  0  0
   39.3260   30.7860   37.3570 H   0  0  0  0  0  0  0  0  0  0  0  0
   39.3210   32.3500   38.6970 C   0  0  0  0  0  0  0  0  0  0  0  0
   40.5090   32.9810   38.5450 N   0  0  0  0  0  0  0  0  0  0  0  0
   40.5710   34.0220   39.3970 C   0  0  0  0  0  0  0  0  0  0  0  0
   41.4560   34.6590   39.4270 H   0  0  0  0  0  0  0  0  0  0  0  0
   39.4050   34.0500   40.1010 N   0  0  0  0  0  0  0  0  0  0  0  0
   38.6190   33.0320   39.6880 C   0  0  0  0  0  0  0  0  0  0  0  0
   37.3610   32.5860   40.0400 C   0  0  0  0  0  3  0  0  0  0  0  0
   41.2510   32.6790   37.8550 H   0  0  0  0  0  0  0  0  0  0  0  0
   35.0890   23.9170   38.4390 C   0  0  0  0  0  0  0  0  0  0  0  0
   35.7170   23.6580   39.6750 C   0  0  0  0  0  0  0  0  0  0  0  0
   36.4930   24.6600   40.2310 C   0  0  0  0  0  0  0  0  0  0  0  0
   36.6240   25.8440   39.5770 N   0  0  0  0  0  0  0  0  0  0  0  0
   36.0050   26.0710   38.3810 C   0  0  0  0  0  0  0  0  0  0  0  0
   35.2440   25.1020   37.8240 N   0  0  0  0  0  0  0  0  0  0  0  0
   34.4830   23.1220   38.0130 H   0  0  0  0  0  0  0  0  0  0  0  0
   35.6370   22.7430   40.2150 H   0  0  0  0  0  0  0  0  0  0  0  0
   37.2120   24.5060   41.5420 C   0  0  0  0  0  0  0  0  0  0  0  0
   36.3550   24.7250   42.5970 F   0  0  0  0  0  0  0  0  0  0  0  0
   37.7180   23.2160   41.6290 F   0  0  0  0  0  0  0  0  0  0  0  0
   38.2270   25.4280   41.5460 F   0  0  0  0  0  0  0  0  0  0  0  0
  2  1  1  0  0  0  0
  3 27  1  0  0  0  0
  3  2  2  0  0  0  0
  4  3  1  0  0  0  0
  5  4  2  0  0  0  0
  5  6  1  0  0  0  0
  6  7  2  0  0  0  0
  7  2  1  0  0  0  0
  7 12  1  0  0  0  0
  8  4  1  0  0  0  0
  9  5  1  0  0  0  0
 10  6  1  0  0  0  0
 11 21  1  0  0  0  0
 12 11  2  0  0  0  0
 13 12  1  0  0  0  0
 13 15  2  0  0  0  0
 14 13  1  0  0  0  0
 15 20  1  0  0  0  0
 16 15  1  0  0  0  0
 16 17  1  0  0  0  0
 17 18  1  0  0  0  0
 17 19  2  0  0  0  0
 20 21  2  0  0  0  0
 20 19  1  0  0  0  0
 22 16  1  0  0  0  0
 23 24  1  0  0  0  0
 24 30  1  0  0  0  0
 24 25  2  0  0  0  0
 25 31  1  0  0  0  0
 26 25  1  0  0  0  0
 27 26  2  0  0  0  0
 28 27  1  0  0  0  0
 28 23  2  0  0  0  0
 29 23  1  0  0  0  0
 31 34  1  0  0  0  0
 31 33  1  0  0  0  0
 31 32  1  0  0  0  0
M  END
>  <minimizedAffinity>
-5.99686241

$$$$

 OpenBabel03252500113D

 34 37  0  0  0  0  0  0  0  0999 V2000
   39.1770   27.4940   40.0740 Cl  0  0  0  0  0  0  0  0  0  0  0  0
   38.1570   27.4750   41.4700 C   0  0  0  0  0  0  0  0  0  0  0  0
   38.1020   28.5630   42.3080 C   0  0  0  0  0  0  0  0  0  0  0  0
   37.2850   28.5760   43.4470 C   0  0  0  0  0  0  0  0  0  0  0  0
   36.5410   27.4360   43.6780 C   0  0  0  0  0  0  0  0  0  0  0  0
   36.5970   26.3500   42.8400 C   0  0  0  0  0  0  0  0  0  0  0  0
   37.3940   26.3630   41.7470 C   0  0  0  0  0  0  0  0  0  0  0  0
   37.3020   29.4610   44.0420 H   0  0  0  0  0  0  0  0  0  0  0  0
   35.9230   27.4960   44.5740 H   0  0  0  0  0  0  0  0  0  0  0  0
   35.9690   25.5220   43.1290 H   0  0  0  0  0  0  0  0  0  0  0  0
   38.1150   24.0380   41.2690 C   0  0  0  0  0  3  0  0  0  0  0  0
   37.3900   25.1650   40.9140 C   0  0  0  0  0  0  0  0  0  0  0  0
   36.6610   25.1100   39.7390 C   0  0  0  0  0  0  0  0  0  0  0  0
   36.0800   25.9290   39.3950 H   0  0  0  0  0  0  0  0  0  0  0  0
   36.6290   24.0010   38.9210 C   0  0  0  0  0  0  0  0  0  0  0  0
   36.0090   23.7090   37.7530 N   0  0  0  0  0  0  0  0  0  0  0  0
   36.3280   22.4540   37.3840 C   0  0  0  0  0  0  0  0  0  0  0  0
   35.9260   22.0300   36.4630 H   0  0  0  0  0  0  0  0  0  0  0  0
   37.1620   21.9430   38.3330 N   0  0  0  0  0  0  0  0  0  0  0  0
   37.3620   22.8760   39.2890 C   0  0  0  0  0  0  0  0  0  0  0  0
   38.0940   22.9120   40.4580 C   0  0  0  0  0  3  0  0  0  0  0  0
   35.3800   24.3830   37.2360 H   0  0  0  0  0  0  0  0  0  0  0  0
   40.9420   30.9010   42.1520 C   0  0  0  0  0  0  0  0  0  0  0  0
   40.4040   31.9790   41.4170 C   0  0  0  0  0  0  0  0  0  0  0  0
   39.0910   31.8830   40.9930 C   0  0  0  0  0  0  0  0  0  0  0  0
   38.3710   30.7700   41.2940 N   0  0  0  0  0  0  0  0  0  0  0  0
   38.9140   29.7400   42.0070 C   0  0  0  0  0  0  0  0  0  0  0  0
   40.1970   29.8180   42.4290 N   0  0  0  0  0  0  0  0  0  0  0  0
   41.9750   30.9890   42.4780 H   0  0  0  0  0  0  0  0  0  0  0  0
   40.9380   32.8650   41.1630 H   0  0  0  0  0  0  0  0  0  0  0  0
   38.4040   32.9630   40.2030 C   0  0  0  0  0  0  0  0  0  0  0  0
   38.7750   32.9080   38.8780 F   0  0  0  0  0  0  0  0  0  0  0  0
   37.0310   32.7840   40.2970 F   0  0  0  0  0  0  0  0  0  0  0  0
   38.7790   34.1580   40.7600 F   0  0  0  0  0  0  0  0  0  0  0  0
  1  2  1  0  0  0  0
  2  7  2  0  0  0  0
  2  3  1  0  0  0  0
  3  4  2  0  0  0  0
  4  5  1  0  0  0  0
  4  8  1  0  0  0  0
  5  9  1  0  0  0  0
  6 10  1  0  0  0  0
  6  5  2  0  0  0  0
  7  6  1  0  0  0  0
 12 11  1  0  0  0  0
 12  7  1  0  0  0  0
 13 12  2  0  0  0  0
 14 13  1  0  0  0  0
 15 20  2  0  0  0  0
 15 13  1  0  0  0  0
 16 15  1  0  0  0  0
 17 16  1  0  0  0  0
 17 19  2  0  0  0  0
 18 17  1  0  0  0  0
 19 20  1  0  0  0  0
 20 21  1  0  0  0  0
 21 11  2  0  0  0  0
 22 16  1  0  0  0  0
 23 28  1  0  0  0  0
 23 29  1  0  0  0  0
 24 23  2  0  0  0  0
 25 26  2  0  0  0  0
 25 24  1  0  0  0  0
 26 27  1  0  0  0  0
 27  3  1  0  0  0  0
 27 28  2  0  0  0  0
 30 24  1  0  0  0  0
 31 33  1  0  0  0  0
 31 34  1  0  0  0  0
 31 25  1  0  0  0  0
 32 31  1  0  0  0  0
M  END
>  <minimizedAffinity>
-5.96300602

$$$$

 OpenBabel03252500113D

 34 37  0  0  0  0  0  0  0  0999 V2000
   37.9000   27.1950   38.0030 Cl  0  0  0  0  0  0  0  0  0  0  0  0
   36.5650   27.9960   38.7570 C   0  0  0  0  0  0  0  0  0  0  0  0
   35.5840   28.5830   37.9960 C   0  0  0  0  0  0  0  0  0  0  0  0
   34.4910   29.2400   38.5790 C   0  0  0  0  0  0  0  0  0  0  0  0
   34.4580   29.2620   39.9590 C   0  0  0  0  0  0  0  0  0  0  0  0
   35.4400   28.6750   40.7180 C   0  0  0  0  0  0  0  0  0  0  0  0
   36.4840   28.0470   40.1310 C   0  0  0  0  0  0  0  0  0  0  0  0
   33.7750   29.6670   37.9150 H   0  0  0  0  0  0  0  0  0  0  0  0
   33.5900   29.7830   40.3630 H   0  0  0  0  0  0  0  0  0  0  0  0
   35.2990   28.7600   41.7850 H   0  0  0  0  0  0  0  0  0  0  0  0
   38.4190   28.2320   41.6720 C   0  0  0  0  0  3  0  0  0  0  0  0
   37.4790   27.4520   41.0170 C   0  0  0  0  0  0  0  0  0  0  0  0
   37.5210   26.0860   41.2350 C   0  0  0  0  0  0  0  0  0  0  0  0
   36.8370   25.4180   40.7710 H   0  0  0  0  0  0  0  0  0  0  0  0
   38.4420   25.4800   42.0610 C   0  0  0  0  0  0  0  0  0  0  0  0
   38.6810   24.1990   42.4280 N   0  0  0  0  0  0  0  0  0  0  0  0
   39.7260   24.1690   43.2770 C   0  0  0  0  0  0  0  0  0  0  0  0
   40.0760   23.2210   43.6880 H   0  0  0  0  0  0  0  0  0  0  0  0
   40.1550   25.4500   43.4510 N   0  0  0  0  0  0  0  0  0  0  0  0
   39.3810   26.2760   42.7140 C   0  0  0  0  0  0  0  0  0  0  0  0
   39.3550   27.6400   42.5090 C   0  0  0  0  0  3  0  0  0  0  0  0
   38.1180   23.3740   42.0830 H   0  0  0  0  0  0  0  0  0  0  0  0
   35.6070   27.3000   34.5440 C   0  0  0  0  0  0  0  0  0  0  0  0
   35.8620   28.4670   33.7920 C   0  0  0  0  0  0  0  0  0  0  0  0
   36.0190   29.6580   34.4770 C   0  0  0  0  0  0  0  0  0  0  0  0
   35.9240   29.6680   35.8320 N   0  0  0  0  0  0  0  0  0  0  0  0
   35.6770   28.5250   36.5390 C   0  0  0  0  0  0  0  0  0  0  0  0
   35.5210   27.3520   35.8840 N   0  0  0  0  0  0  0  0  0  0  0  0
   35.4850   26.3710   33.9940 H   0  0  0  0  0  0  0  0  0  0  0  0
   35.9420   28.4970   32.7300 H   0  0  0  0  0  0  0  0  0  0  0  0
   36.2930   30.9680   33.7900 C   0  0  0  0  0  0  0  0  0  0  0  0
   37.0720   30.7760   32.6700 F   0  0  0  0  0  0  0  0  0  0  0  0
   35.0850   31.5370   33.4090 F   0  0  0  0  0  0  0  0  0  0  0  0
   36.9410   31.7620   34.6990 F   0  0  0  0  0  0  0  0  0  0  0  0
  1  2  1  0  0  0  0
  2  7  1  0  0  0  0
  3  4  1  0  0  0  0
  3  2  2  0  0  0  0
  4  5  2  0  0  0  0
  5  9  1  0  0  0  0
  5  6  1  0  0  0  0
  6 10  1  0  0  0  0
  7  6  2  0  0  0  0
  7 12  1  0  0  0  0
  8  4  1  0  0  0  0
 11 21  1  0  0  0  0
 12 13  1  0  0  0  0
 12 11  2  0  0  0  0
 13 15  2  0  0  0  0
 14 13  1  0  0  0  0
 15 16  1  0  0  0  0
 15 20  1  0  0  0  0
 16 17  1  0  0  0  0
 17 19  2  0  0  0  0
 17 18  1  0  0  0  0
 20 19  1  0  0  0  0
 21 20  2  0  0  0  0
 22 16  1  0  0  0  0
 23 28  1  0  0  0  0
 24 25  1  0  0  0  0
 24 23  2  0  0  0  0
 25 26  2  0  0  0  0
 26 27  1  0  0  0  0
 27  3  1  0  0  0  0
 28 27  2  0  0  0  0
 29 23  1  0  0  0  0
 30 24  1  0  0  0  0
 31 25  1  0  0  0  0
 31 34  1  0  0  0  0
 32 31  1  0  0  0  0
 33 31  1  0  0  0  0
M  END
>  <minimizedAffinity>
-5.95120096

$$$$

 OpenBabel03252500113D

 34 37  0  0  0  0  0  0  0  0999 V2000
   33.1510   29.3140   39.1460 Cl  0  0  0  0  0  0  0  0  0  0  0  0
   34.2950   29.0450   37.8770 C   0  0  0  0  0  0  0  0  0  0  0  0
   33.8780   28.9510   36.5720 C   0  0  0  0  0  0  0  0  0  0  0  0
   34.7820   28.7330   35.5220 C   0  0  0  0  0  0  0  0  0  0  0  0
   36.1120   28.6180   35.8750 C   0  0  0  0  0  0  0  0  0  0  0  0
   36.5260   28.7120   37.1810 C   0  0  0  0  0  0  0  0  0  0  0  0
   35.6340   28.9230   38.1750 C   0  0  0  0  0  0  0  0  0  0  0  0
   34.3740   28.6740   34.5390 H   0  0  0  0  0  0  0  0  0  0  0  0
   36.7720   28.4500   35.0260 H   0  0  0  0  0  0  0  0  0  0  0  0
   37.5900   28.6050   37.3270 H   0  0  0  0  0  0  0  0  0  0  0  0
   36.5300   30.2240   40.0870 C   0  0  0  0  0  3  0  0  0  0  0  0
   36.1650   29.0080   39.5320 C   0  0  0  0  0  0  0  0  0  0  0  0
   36.3230   27.8780   40.3140 C   0  0  0  0  0  0  0  0  0  0  0  0
   36.0680   26.9070   39.9640 H   0  0  0  0  0  0  0  0  0  0  0  0
   36.8200   27.9100   41.5980 C   0  0  0  0  0  0  0  0  0  0  0  0
   37.0630   26.9680   42.5390 N   0  0  0  0  0  0  0  0  0  0  0  0
   37.5600   27.5610   43.6420 C   0  0  0  0  0  0  0  0  0  0  0  0
   37.8220   26.9660   44.5180 H   0  0  0  0  0  0  0  0  0  0  0  0
   37.6330   28.8990   43.3950 N   0  0  0  0  0  0  0  0  0  0  0  0
   37.1840   29.1390   42.1440 C   0  0  0  0  0  0  0  0  0  0  0  0
   37.0330   30.2780   41.3800 C   0  0  0  0  0  3  0  0  0  0  0  0
   36.8800   25.9370   42.4000 H   0  0  0  0  0  0  0  0  0  0  0  0
   30.3730   28.1070   35.8230 C   0  0  0  0  0  0  0  0  0  0  0  0
   29.7810   29.3800   35.6810 C   0  0  0  0  0  0  0  0  0  0  0  0
   30.5880   30.4920   35.8440 C   0  0  0  0  0  0  0  0  0  0  0  0
   31.9060   30.3260   36.1310 N   0  0  0  0  0  0  0  0  0  0  0  0
   32.4550   29.0820   36.2630 C   0  0  0  0  0  0  0  0  0  0  0  0
   31.6800   27.9850   36.1080 N   0  0  0  0  0  0  0  0  0  0  0  0
   29.7280   27.2430   35.6930 H   0  0  0  0  0  0  0  0  0  0  0  0
   28.7530   29.5490   35.4570 H   0  0  0  0  0  0  0  0  0  0  0  0
   30.0760   31.9010   35.7190 C   0  0  0  0  0  0  0  0  0  0  0  0
   28.9170   31.9330   34.9760 F   0  0  0  0  0  0  0  0  0  0  0  0
   29.8150   32.3990   36.9880 F   0  0  0  0  0  0  0  0  0  0  0  0
   31.0630   32.6260   35.1040 F   0  0  0  0  0  0  0  0  0  0  0  0
  2  7  1  0  0  0  0
  2  1  1  0  0  0  0
  3  2  2  0  0  0  0
  4  5  2  0  0  0  0
  4  3  1  0  0  0  0
  5  6  1  0  0  0  0
  6 10  1  0  0  0  0
  6  7  2  0  0  0  0
  7 12  1  0  0  0  0
  8  4  1  0  0  0  0
  9  5  1  0  0  0  0
 11 21  1  0  0  0  0
 12 11  2  0  0  0  0
 12 13  1  0  0  0  0
 13 15  2  0  0  0  0
 14 13  1  0  0  0  0
 15 20  1  0  0  0  0
 15 16  1  0  0  0  0
 16 17  1  0  0  0  0
 17 18  1  0  0  0  0
 19 17  2  0  0  0  0
 20 19  1  0  0  0  0
 21 20  2  0  0  0  0
 22 16  1  0  0  0  0
 23 28  1  0  0  0  0
 24 23  2  0  0  0  0
 24 25  1  0  0  0  0
 25 26  2  0  0  0  0
 26 27  1  0  0  0  0
 27  3  1  0  0  0  0
 28 27  2  0  0  0  0
 29 23  1  0  0  0  0
 30 24  1  0  0  0  0
 31 25  1  0  0  0  0
 31 33  1  0  0  0  0
 32 31  1  0  0  0  0
 34 31  1  0  0  0  0
M  END
>  <minimizedAffinity>
-5.8520503

$$$$

 OpenBabel03252500113D

 34 37  0  0  0  0  0  0  0  0999 V2000
   36.3310   26.2790   38.8780 Cl  0  0  0  0  0  0  0  0  0  0  0  0
   36.3960   27.7160   39.8370 C   0  0  0  0  0  0  0  0  0  0  0  0
   37.0960   27.7340   41.0190 C   0  0  0  0  0  0  0  0  0  0  0  0
   37.1670   28.8830   41.8180 C   0  0  0  0  0  0  0  0  0  0  0  0
   36.4940   29.9950   41.3500 C   0  0  0  0  0  0  0  0  0  0  0  0
   35.7940   29.9750   40.1690 C   0  0  0  0  0  0  0  0  0  0  0  0
   35.7420   28.8530   39.4160 C   0  0  0  0  0  0  0  0  0  0  0  0
   37.7320   28.8110   42.7190 H   0  0  0  0  0  0  0  0  0  0  0  0
   36.5790   30.8610   42.0050 H   0  0  0  0  0  0  0  0  0  0  0  0
   35.3120   30.9060   39.9130 H   0  0  0  0  0  0  0  0  0  0  0  0
   35.5990   29.1130   36.9540 C   0  0  0  0  0  3  0  0  0  0  0  0
   34.9750   28.9240   38.1770 C   0  0  0  0  0  0  0  0  0  0  0  0
   33.5960   28.8050   38.1770 C   0  0  0  0  0  0  0  0  0  0  0  0
   33.0410   28.6600   39.0720 H   0  0  0  0  0  0  0  0  0  0  0  0
   32.8310   28.8670   37.0330 C   0  0  0  0  0  0  0  0  0  0  0  0
   31.5050   28.7810   36.7800 N   0  0  0  0  0  0  0  0  0  0  0  0
   31.2960   28.9100   35.4560 C   0  0  0  0  0  0  0  0  0  0  0  0
   30.2850   28.8680   35.0490 H   0  0  0  0  0  0  0  0  0  0  0  0
   32.5110   29.0800   34.8610 N   0  0  0  0  0  0  0  0  0  0  0  0
   33.4710   29.0570   35.8100 C   0  0  0  0  0  0  0  0  0  0  0  0
   34.8450   29.1770   35.7890 C   0  0  0  0  0  3  0  0  0  0  0  0
   30.7720   28.6350   37.5270 H   0  0  0  0  0  0  0  0  0  0  0  0
   37.7290   24.3410   42.3040 C   0  0  0  0  0  0  0  0  0  0  0  0
   39.1370   24.2680   42.2800 C   0  0  0  0  0  0  0  0  0  0  0  0
   39.8360   25.3730   41.8270 C   0  0  0  0  0  0  0  0  0  0  0  0
   39.1530   26.4780   41.4260 N   0  0  0  0  0  0  0  0  0  0  0  0
   37.7880   26.5240   41.4600 C   0  0  0  0  0  0  0  0  0  0  0  0
   37.0900   25.4520   41.8990 N   0  0  0  0  0  0  0  0  0  0  0  0
   37.1920   23.4660   42.6620 H   0  0  0  0  0  0  0  0  0  0  0  0
   39.7050   23.4200   42.5860 H   0  0  0  0  0  0  0  0  0  0  0  0
   41.3370   25.4190   41.7530 C   0  0  0  0  0  0  0  0  0  0  0  0
   41.7840   24.8680   40.5720 F   0  0  0  0  0  0  0  0  0  0  0  0
   41.7500   26.7430   41.8200 F   0  0  0  0  0  0  0  0  0  0  0  0
   41.8070   24.7070   42.8260 F   0  0  0  0  0  0  0  0  0  0  0  0
  1  2  1  0  0  0  0
  2  3  1  0  0  0  0
  3 27  1  0  0  0  0
  3  4  2  0  0  0  0
  4  8  1  0  0  0  0
  5  4  1  0  0  0  0
  5  9  1  0  0  0  0
  6  5  2  0  0  0  0
  7  2  2  0  0  0  0
  7  6  1  0  0  0  0
 10  6  1  0  0  0  0
 11 12  1  0  0  0  0
 12 13  2  0  0  0  0
 12  7  1  0  0  0  0
 13 14  1  0  0  0  0
 15 13  1  0  0  0  0
 16 15  1  0  0  0  0
 16 22  1  0  0  0  0
 17 16  1  0  0  0  0
 18 17  1  0  0  0  0
 19 17  2  0  0  0  0
 19 20  1  0  0  0  0
 20 15  2  0  0  0  0
 21 20  1  0  0  0  0
 21 11  2  0  0  0  0
 23 29  1  0  0  0  0
 24 23  1  0  0  0  0
 24 30  1  0  0  0  0
 25 24  2  0  0  0  0
 26 27  2  0  0  0  0
 26 25  1  0  0  0  0
 27 28  1  0  0  0  0
 28 23  2  0  0  0  0
 31 33  1  0  0  0  0
 31 25  1  0  0  0  0
 31 34  1  0  0  0  0
 32 31  1  0  0  0  0
M  END
>  <minimizedAffinity>
-5.81384802

$$$$
