
 OpenBabel03252504113D

 28 30  0  0  0  0  0  0  0  0999 V2000
   45.1640   32.5210   43.1930 C   0  0  0  0  0  0  0  0  0  0  0  0
   45.5590   33.3300   44.2550 C   0  0  0  0  0  0  0  0  0  0  0  0
   45.0310   34.6290   44.3120 C   0  0  0  0  0  0  0  0  0  0  0  0
   44.1760   35.0230   43.3430 N   0  0  0  0  0  0  0  0  0  0  0  0
   43.8190   34.2070   42.3300 C   0  0  0  0  0  0  0  0  0  0  0  0
   44.3040   32.9640   42.2460 N   0  0  0  0  0  0  0  0  0  0  0  0
   45.3340   35.2560   45.1310 H   0  0  0  0  0  0  0  0  0  0  0  0
   41.6360   35.2270   41.7230 C   0  0  0  0  0  3  0  0  0  0  0  0
   42.8890   34.7530   41.3470 C   0  0  0  0  0  0  0  0  0  0  0  0
   43.2540   34.8040   40.0270 C   0  0  0  0  0  0  0  0  0  0  0  0
   44.2220   34.4440   39.7000 H   0  0  0  0  0  0  0  0  0  0  0  0
   42.3630   35.3240   39.1100 C   0  0  0  0  0  0  0  0  0  0  0  0
   42.5310   35.4610   37.7670 N   0  0  0  0  0  0  0  0  0  0  0  0
   41.3640   36.0220   37.3440 C   0  0  0  0  0  0  0  0  0  0  0  0
   41.2530   36.2340   36.2810 H   0  0  0  0  0  0  0  0  0  0  0  0
   40.5280   36.2160   38.3790 N   0  0  0  0  0  0  0  0  0  0  0  0
   41.1240   35.7880   39.5060 C   0  0  0  0  0  0  0  0  0  0  0  0
   40.7160   35.7570   40.8230 C   0  0  0  0  0  3  0  0  0  0  0  0
   43.3710   35.1930   37.2060 H   0  0  0  0  0  0  0  0  0  0  0  0
   46.5000   32.8050   45.2660 C   0  0  0  0  0  0  0  0  0  0  0  0
   46.0240   31.6080   45.7750 F   0  0  0  0  0  0  0  0  0  0  0  0
   47.6980   32.5020   44.6340 F   0  0  0  0  0  0  0  0  0  0  0  0
   46.7410   33.6340   46.3040 F   0  0  0  0  0  0  0  0  0  0  0  0
   45.6800   31.2660   43.1460 O   0  0  0  0  0  0  0  0  0  0  0  0
   44.9680   30.0640   42.9770 C   0  0  0  0  0  0  0  0  0  0  0  0
   43.7830   30.1730   43.7090 F   0  0  0  0  0  0  0  0  0  0  0  0
   44.7460   29.8300   41.6570 F   0  0  0  0  0  0  0  0  0  0  0  0
   45.6630   29.0230   43.5780 F   0  0  0  0  0  0  0  0  0  0  0  0
  1  2  1  0  0  0  0
  2  3  2  0  0  0  0
  2 20  1  0  0  0  0
  3  7  1  0  0  0  0
  4  3  1  0  0  0  0
  5  4  2  0  0  0  0
  6  5  1  0  0  0  0
  6  1  2  0  0  0  0
  9  8  1  0  0  0  0
  9  5  1  0  0  0  0
 10  9  2  0  0  0  0
 11 10  1  0  0  0  0
 12 17  2  0  0  0  0
 12 10  1  0  0  0  0
 13 12  1  0  0  0  0
 14 13  1  0  0  0  0
 14 16  2  0  0  0  0
 15 14  1  0  0  0  0
 16 17  1  0  0  0  0
 17 18  1  0  0  0  0
 18  8  2  0  0  0  0
 19 13  1  0  0  0  0
 20 21  1  0  0  0  0
 20 23  1  0  0  0  0
 22 20  1  0  0  0  0
 24  1  1  0  0  0  0
 25 24  1  0  0  0  0
 25 28  1  0  0  0  0
 25 26  1  0  0  0  0
 27 25  1  0  0  0  0
M  END
>  <minimizedAffinity>
-4.65532017

>  <minimizedRMSD>
8.37755585

$$$$
