
 OpenBabel03242517183D

 36 39  0  0  0  0  0  0  0  0999 V2000
   36.0940   29.4360   40.4620 C   0  0  0  0  0  0  0  0  0  0  0  0
   36.8650   28.6140   41.2970 C   0  0  0  0  0  0  0  0  0  0  0  0
   38.0070   29.1470   41.8630 C   0  0  0  0  0  0  0  0  0  0  0  0
   38.3100   30.4350   41.5710 N   0  0  0  0  0  0  0  0  0  0  0  0
   37.5640   31.2180   40.7670 C   0  0  0  0  0  0  0  0  0  0  0  0
   36.4640   30.6880   40.2300 N   0  0  0  0  0  0  0  0  0  0  0  0
   35.2010   29.0020   40.0270 H   0  0  0  0  0  0  0  0  0  0  0  0
   38.6640   28.5790   42.5240 H   0  0  0  0  0  0  0  0  0  0  0  0
   37.1620   33.3720   39.6930 C   0  0  0  0  0  3  0  0  0  0  0  0
   37.9660   32.5980   40.5070 C   0  0  0  0  0  0  0  0  0  0  0  0
   39.1270   33.0780   41.0800 C   0  0  0  0  0  0  0  0  0  0  0  0
   39.7560   32.4950   41.7080 H   0  0  0  0  0  0  0  0  0  0  0  0
   39.4390   34.3910   40.7870 C   0  0  0  0  0  0  0  0  0  0  0  0
   40.4760   35.1660   41.1680 N   0  0  0  0  0  0  0  0  0  0  0  0
   40.3600   36.4110   40.6230 C   0  0  0  0  0  0  0  0  0  0  0  0
   41.0110   37.2680   40.7230 H   0  0  0  0  0  0  0  0  0  0  0  0
   39.2240   36.3790   39.8990 N   0  0  0  0  0  0  0  0  0  0  0  0
   38.6440   35.1740   39.9770 C   0  0  0  0  0  0  0  0  0  0  0  0
   37.4800   34.6850   39.4040 C   0  0  0  0  0  3  0  0  0  0  0  0
   41.2950   34.9440   41.7840 H   0  0  0  0  0  0  0  0  0  0  0  0
   36.4980   27.2240   41.5850 C   0  0  0  0  0  3  0  0  0  0  0  0
   37.2360   26.3240   42.1630 C   0  0  0  0  0  3  0  0  0  0  0  0
   36.7990   24.9300   42.4250 C   0  0  0  0  0  0  0  0  0  0  0  0
   35.7080   24.9050   42.7020 H   0  0  0  0  0  0  0  0  0  0  0  0
   37.4180   24.5380   43.2540 H   0  0  0  0  0  0  0  0  0  0  0  0
   39.2310   23.6710   41.8810 F   0  0  0  0  0  0  0  0  0  0  0  0
   38.2170   23.4810   41.0110 C   0  0  0  0  0  0  0  0  0  0  0  0
   36.9710   24.0950   41.2370 C   0  0  0  0  0  0  0  0  0  0  0  0
   36.0470   23.8140   40.2770 C   0  0  0  0  0  0  0  0  0  0  0  0
   36.1900   23.0360   39.1630 C   0  0  0  0  0  0  0  0  0  0  0  0
   37.4700   22.4660   39.0240 C   0  0  0  0  0  0  0  0  0  0  0  0
   38.4980   22.6630   39.9150 C   0  0  0  0  0  0  0  0  0  0  0  0
   35.0620   24.2620   40.3960 H   0  0  0  0  0  0  0  0  0  0  0  0
   35.4030   22.8620   38.4450 H   0  0  0  0  0  0  0  0  0  0  0  0
   37.6480   21.8370   38.1610 H   0  0  0  0  0  0  0  0  0  0  0  0
   39.4560   22.2260   39.7940 H   0  0  0  0  0  0  0  0  0  0  0  0
  1  2  1  0  0  0  0
  2 21  1  0  0  0  0
  2  3  2  0  0  0  0
  3  8  1  0  0  0  0
  4  3  1  0  0  0  0
  5  4  2  0  0  0  0
  6  1  2  0  0  0  0
  6  5  1  0  0  0  0
  7  1  1  0  0  0  0
  9 10  1  0  0  0  0
 10  5  1  0  0  0  0
 10 11  2  0  0  0  0
 11 12  1  0  0  0  0
 13 11  1  0  0  0  0
 13 14  1  0  0  0  0
 14 20  1  0  0  0  0
 15 16  1  0  0  0  0
 15 14  1  0  0  0  0
 17 18  1  0  0  0  0
 17 15  2  0  0  0  0
 18 13  2  0  0  0  0
 19  9  2  0  0  0  0
 19 18  1  0  0  0  0
 21 22  2  0  0  0  0
 22 23  1  0  0  0  0
 23 24  1  0  0  0  0
 23 25  1  0  0  0  0
 27 28  1  0  0  0  0
 27 26  1  0  0  0  0
 28 23  1  0  0  0  0
 29 33  1  0  0  0  0
 29 28  2  0  0  0  0
 30 29  1  0  0  0  0
 31 30  2  0  0  0  0
 31 32  1  0  0  0  0
 32 27  2  0  0  0  0
 34 30  1  0  0  0  0
 35 31  1  0  0  0  0
 36 32  1  0  0  0  0
M  END
>  <minimizedAffinity>
-6.56146479

$$$$

 OpenBabel03242517183D

 36 39  0  0  0  0  0  0  0  0999 V2000
   34.3330   29.2180   39.3620 C   0  0  0  0  0  0  0  0  0  0  0  0
   34.4560   28.6080   38.1050 C   0  0  0  0  0  0  0  0  0  0  0  0
   35.4550   27.6700   37.9310 C   0  0  0  0  0  0  0  0  0  0  0  0
   36.2540   27.4000   38.9900 N   0  0  0  0  0  0  0  0  0  0  0  0
   36.1310   27.9920   40.1950 C   0  0  0  0  0  0  0  0  0  0  0  0
   35.1600   28.8950   40.3470 N   0  0  0  0  0  0  0  0  0  0  0  0
   33.5440   29.9520   39.4820 H   0  0  0  0  0  0  0  0  0  0  0  0
   35.6210   27.1460   36.9880 H   0  0  0  0  0  0  0  0  0  0  0  0
   36.7570   28.1130   42.5500 C   0  0  0  0  0  3  0  0  0  0  0  0
   37.0380   27.6400   41.2830 C   0  0  0  0  0  0  0  0  0  0  0  0
   38.1380   26.8510   41.0110 C   0  0  0  0  0  0  0  0  0  0  0  0
   38.3680   26.4790   40.0420 H   0  0  0  0  0  0  0  0  0  0  0  0
   38.9490   26.5610   42.0910 C   0  0  0  0  0  0  0  0  0  0  0  0
   40.0810   25.8340   42.1860 N   0  0  0  0  0  0  0  0  0  0  0  0
   40.5330   25.8280   43.4730 C   0  0  0  0  0  0  0  0  0  0  0  0
   41.4050   25.3470   43.8920 H   0  0  0  0  0  0  0  0  0  0  0  0
   39.6470   26.5710   44.1660 N   0  0  0  0  0  0  0  0  0  0  0  0
   38.6780   27.0280   43.3610 C   0  0  0  0  0  0  0  0  0  0  0  0
   37.5720   27.8200   43.6270 C   0  0  0  0  0  3  0  0  0  0  0  0
   40.6130   25.3140   41.4470 H   0  0  0  0  0  0  0  0  0  0  0  0
   33.5660   28.9320   36.9870 C   0  0  0  0  0  3  0  0  0  0  0  0
   32.5410   28.2440   36.5790 C   0  0  0  0  0  3  0  0  0  0  0  0
   31.6780   28.6320   35.4350 C   0  0  0  0  0  0  0  0  0  0  0  0
   30.7840   27.9500   35.3690 H   0  0  0  0  0  0  0  0  0  0  0  0
   32.2900   28.5590   34.5170 H   0  0  0  0  0  0  0  0  0  0  0  0
   29.9880   29.3160   37.5510 F   0  0  0  0  0  0  0  0  0  0  0  0
   30.3310   30.2890   36.6810 C   0  0  0  0  0  0  0  0  0  0  0  0
   31.1790   29.9970   35.5950 C   0  0  0  0  0  0  0  0  0  0  0  0
   31.4360   31.0750   34.8030 C   0  0  0  0  0  0  0  0  0  0  0  0
   30.9790   32.3550   34.9400 C   0  0  0  0  0  0  0  0  0  0  0  0
   30.1390   32.5490   36.0530 C   0  0  0  0  0  0  0  0  0  0  0  0
   29.7950   31.5530   36.9350 C   0  0  0  0  0  0  0  0  0  0  0  0
   32.0850   30.9120   33.9450 H   0  0  0  0  0  0  0  0  0  0  0  0
   31.2310   33.1590   34.2640 H   0  0  0  0  0  0  0  0  0  0  0  0
   29.7450   33.5430   36.2170 H   0  0  0  0  0  0  0  0  0  0  0  0
   29.1610   31.7160   37.7690 H   0  0  0  0  0  0  0  0  0  0  0  0
  1  7  1  0  0  0  0
  1  6  1  0  0  0  0
  2  1  2  0  0  0  0
  3  2  1  0  0  0  0
  3  4  2  0  0  0  0
  4  5  1  0  0  0  0
  5  6  2  0  0  0  0
  5 10  1  0  0  0  0
  8  3  1  0  0  0  0
  9 19  1  0  0  0  0
 10  9  2  0  0  0  0
 11 10  1  0  0  0  0
 11 13  2  0  0  0  0
 12 11  1  0  0  0  0
 13 14  1  0  0  0  0
 13 18  1  0  0  0  0
 14 15  1  0  0  0  0
 15 16  1  0  0  0  0
 15 17  2  0  0  0  0
 18 19  2  0  0  0  0
 18 17  1  0  0  0  0
 20 14  1  0  0  0  0
 21  2  1  0  0  0  0
 22 21  2  0  0  0  0
 23 28  1  0  0  0  0
 23 22  1  0  0  0  0
 24 23  1  0  0  0  0
 25 23  1  0  0  0  0
 27 32  1  0  0  0  0
 27 26  1  0  0  0  0
 28 27  2  0  0  0  0
 29 30  2  0  0  0  0
 29 28  1  0  0  0  0
 30 31  1  0  0  0  0
 31 35  1  0  0  0  0
 31 32  2  0  0  0  0
 32 36  1  0  0  0  0
 33 29  1  0  0  0  0
 34 30  1  0  0  0  0
M  END
>  <minimizedAffinity>
-6.1668973

$$$$

 OpenBabel03242517183D

 36 39  0  0  0  0  0  0  0  0999 V2000
   35.4110   28.8870   40.5920 C   0  0  0  0  0  0  0  0  0  0  0  0
   35.1860   29.2690   39.2620 C   0  0  0  0  0  0  0  0  0  0  0  0
   36.2000   29.9270   38.5920 C   0  0  0  0  0  0  0  0  0  0  0  0
   37.3500   30.1610   39.2680 N   0  0  0  0  0  0  0  0  0  0  0  0
   37.5580   29.7920   40.5480 C   0  0  0  0  0  0  0  0  0  0  0  0
   36.5690   29.1570   41.1790 N   0  0  0  0  0  0  0  0  0  0  0  0
   34.6050   28.3710   41.1030 H   0  0  0  0  0  0  0  0  0  0  0  0
   36.1110   30.2590   37.5560 H   0  0  0  0  0  0  0  0  0  0  0  0
   39.3670   29.1360   42.0470 C   0  0  0  0  0  3  0  0  0  0  0  0
   38.8310   30.0850   41.2000 C   0  0  0  0  0  0  0  0  0  0  0  0
   39.4500   31.2930   40.9480 C   0  0  0  0  0  0  0  0  0  0  0  0
   39.0510   32.0340   40.2990 H   0  0  0  0  0  0  0  0  0  0  0  0
   40.6500   31.4980   41.6020 C   0  0  0  0  0  0  0  0  0  0  0  0
   41.5060   32.5410   41.5880 N   0  0  0  0  0  0  0  0  0  0  0  0
   42.5710   32.2880   42.4000 C   0  0  0  0  0  0  0  0  0  0  0  0
   43.4310   32.9060   42.6170 H   0  0  0  0  0  0  0  0  0  0  0  0
   42.3480   31.0620   42.9120 N   0  0  0  0  0  0  0  0  0  0  0  0
   41.1960   30.5570   42.4500 C   0  0  0  0  0  0  0  0  0  0  0  0
   40.5680   29.3460   42.6980 C   0  0  0  0  0  3  0  0  0  0  0  0
   41.4530   33.4500   41.0690 H   0  0  0  0  0  0  0  0  0  0  0  0
   33.9240   28.9930   38.5700 C   0  0  0  0  0  3  0  0  0  0  0  0
   33.7220   28.9840   37.2860 C   0  0  0  0  0  3  0  0  0  0  0  0
   32.4130   28.6940   36.6490 C   0  0  0  0  0  0  0  0  0  0  0  0
   31.6880   28.2850   37.4080 H   0  0  0  0  0  0  0  0  0  0  0  0
   32.5910   27.9540   35.8460 H   0  0  0  0  0  0  0  0  0  0  0  0
   30.7940   30.3640   38.1930 F   0  0  0  0  0  0  0  0  0  0  0  0
   31.0160   30.7160   36.9100 C   0  0  0  0  0  0  0  0  0  0  0  0
   31.8230   29.9080   36.0870 C   0  0  0  0  0  0  0  0  0  0  0  0
   31.9570   30.3880   34.8200 C   0  0  0  0  0  0  0  0  0  0  0  0
   31.4140   31.5200   34.2800 C   0  0  0  0  0  0  0  0  0  0  0  0
   30.6240   32.2610   35.1790 C   0  0  0  0  0  0  0  0  0  0  0  0
   30.4030   31.8970   36.4850 C   0  0  0  0  0  0  0  0  0  0  0  0
   32.5690   29.8050   34.1340 H   0  0  0  0  0  0  0  0  0  0  0  0
   31.5690   31.8330   33.2580 H   0  0  0  0  0  0  0  0  0  0  0  0
   30.1660   33.1710   34.8120 H   0  0  0  0  0  0  0  0  0  0  0  0
   29.8040   32.4670   37.1490 H   0  0  0  0  0  0  0  0  0  0  0  0
  1  7  1  0  0  0  0
  1  6  1  0  0  0  0
  2  1  2  0  0  0  0
  3  2  1  0  0  0  0
  3  4  2  0  0  0  0
  4  5  1  0  0  0  0
  5  6  2  0  0  0  0
  5 10  1  0  0  0  0
  8  3  1  0  0  0  0
  9 19  1  0  0  0  0
 10  9  2  0  0  0  0
 11 10  1  0  0  0  0
 11 13  2  0  0  0  0
 12 11  1  0  0  0  0
 13 18  1  0  0  0  0
 14 13  1  0  0  0  0
 14 15  1  0  0  0  0
 15 16  1  0  0  0  0
 15 17  2  0  0  0  0
 18 19  2  0  0  0  0
 18 17  1  0  0  0  0
 20 14  1  0  0  0  0
 21  2  1  0  0  0  0
 22 21  2  0  0  0  0
 23 22  1  0  0  0  0
 23 24  1  0  0  0  0
 25 23  1  0  0  0  0
 27 26  1  0  0  0  0
 28 23  1  0  0  0  0
 28 27  2  0  0  0  0
 29 28  1  0  0  0  0
 30 29  2  0  0  0  0
 30 31  1  0  0  0  0
 31 32  2  0  0  0  0
 32 27  1  0  0  0  0
 32 36  1  0  0  0  0
 33 29  1  0  0  0  0
 34 30  1  0  0  0  0
 35 31  1  0  0  0  0
M  END
>  <minimizedAffinity>
-5.96109915

$$$$

 OpenBabel03242517183D

 36 39  0  0  0  0  0  0  0  0999 V2000
   37.0410   30.1910   39.4300 C   0  0  0  0  0  0  0  0  0  0  0  0
   36.7580   30.2910   38.0600 C   0  0  0  0  0  0  0  0  0  0  0  0
   37.5710   31.0920   37.2830 C   0  0  0  0  0  0  0  0  0  0  0  0
   38.5930   31.7330   37.8980 N   0  0  0  0  0  0  0  0  0  0  0  0
   38.8590   31.6330   39.2150 C   0  0  0  0  0  0  0  0  0  0  0  0
   38.0650   30.8540   39.9510 N   0  0  0  0  0  0  0  0  0  0  0  0
   36.3930   29.5570   40.0260 H   0  0  0  0  0  0  0  0  0  0  0  0
   37.4220   31.2260   36.2100 H   0  0  0  0  0  0  0  0  0  0  0  0
   41.1850   31.6950   39.9490 C   0  0  0  0  0  3  0  0  0  0  0  0
   39.9850   32.3600   39.7950 C   0  0  0  0  0  0  0  0  0  0  0  0
   39.8120   33.6790   40.1660 C   0  0  0  0  0  0  0  0  0  0  0  0
   38.8950   34.2050   40.0540 H   0  0  0  0  0  0  0  0  0  0  0  0
   40.9220   34.2980   40.7070 C   0  0  0  0  0  0  0  0  0  0  0  0
   41.1060   35.5530   41.1670 N   0  0  0  0  0  0  0  0  0  0  0  0
   42.3850   35.7100   41.6110 C   0  0  0  0  0  0  0  0  0  0  0  0
   42.8620   36.5810   42.0370 H   0  0  0  0  0  0  0  0  0  0  0  0
   42.9820   34.5190   41.4100 N   0  0  0  0  0  0  0  0  0  0  0  0
   42.1260   33.6450   40.8650 C   0  0  0  0  0  0  0  0  0  0  0  0
   42.2920   32.3200   40.4910 C   0  0  0  0  0  3  0  0  0  0  0  0
   40.4360   36.3580   41.2200 H   0  0  0  0  0  0  0  0  0  0  0  0
   35.6380   29.5780   37.4380 C   0  0  0  0  0  3  0  0  0  0  0  0
   34.6810   28.9430   38.0470 C   0  0  0  0  0  3  0  0  0  0  0  0
   33.5730   28.2400   37.3530 C   0  0  0  0  0  0  0  0  0  0  0  0
   32.9060   27.7240   38.1000 H   0  0  0  0  0  0  0  0  0  0  0  0
   34.0270   27.5020   36.6640 H   0  0  0  0  0  0  0  0  0  0  0  0
   31.5530   29.7080   38.6030 F   0  0  0  0  0  0  0  0  0  0  0  0
   31.7420   29.8980   37.2810 C   0  0  0  0  0  0  0  0  0  0  0  0
   32.7450   29.1810   36.6010 C   0  0  0  0  0  0  0  0  0  0  0  0
   32.8170   29.4760   35.2740 C   0  0  0  0  0  0  0  0  0  0  0  0
   32.0530   30.3530   34.5570 C   0  0  0  0  0  0  0  0  0  0  0  0
   31.0780   31.0210   35.3220 C   0  0  0  0  0  0  0  0  0  0  0  0
   30.8930   30.8230   36.6690 C   0  0  0  0  0  0  0  0  0  0  0  0
   33.5740   28.9510   34.6930 H   0  0  0  0  0  0  0  0  0  0  0  0
   32.1740   30.5310   33.4990 H   0  0  0  0  0  0  0  0  0  0  0  0
   30.4400   31.7310   34.8120 H   0  0  0  0  0  0  0  0  0  0  0  0
   30.1530   31.3350   37.2300 H   0  0  0  0  0  0  0  0  0  0  0  0
  1  6  1  0  0  0  0
  1  7  1  0  0  0  0
  2  1  2  0  0  0  0
  3  4  2  0  0  0  0
  3  2  1  0  0  0  0
  4  5  1  0  0  0  0
  5 10  1  0  0  0  0
  5  6  2  0  0  0  0
  8  3  1  0  0  0  0
  9 19  1  0  0  0  0
 10  9  2  0  0  0  0
 10 11  1  0  0  0  0
 11 13  2  0  0  0  0
 12 11  1  0  0  0  0
 13 18  1  0  0  0  0
 13 14  1  0  0  0  0
 14 20  1  0  0  0  0
 14 15  1  0  0  0  0
 15 16  1  0  0  0  0
 17 15  2  0  0  0  0
 18 17  1  0  0  0  0
 19 18  2  0  0  0  0
 21 22  2  0  0  0  0
 21  2  1  0  0  0  0
 23 22  1  0  0  0  0
 23 24  1  0  0  0  0
 25 23  1  0  0  0  0
 27 26  1  0  0  0  0
 28 27  2  0  0  0  0
 28 23  1  0  0  0  0
 29 28  1  0  0  0  0
 30 29  2  0  0  0  0
 30 31  1  0  0  0  0
 31 32  2  0  0  0  0
 32 36  1  0  0  0  0
 32 27  1  0  0  0  0
 33 29  1  0  0  0  0
 34 30  1  0  0  0  0
 35 31  1  0  0  0  0
M  END
>  <minimizedAffinity>
-5.79328632

$$$$

 OpenBabel03242517183D

 36 39  0  0  0  0  0  0  0  0999 V2000
   38.1450   28.3200   39.6560 C   0  0  0  0  0  0  0  0  0  0  0  0
   37.1220   27.8510   40.4930 C   0  0  0  0  0  0  0  0  0  0  0  0
   36.4150   28.7740   41.2390 C   0  0  0  0  0  0  0  0  0  0  0  0
   36.7580   30.0790   41.1120 N   0  0  0  0  0  0  0  0  0  0  0  0
   37.7440   30.5220   40.3060 C   0  0  0  0  0  0  0  0  0  0  0  0
   38.4160   29.6170   39.5920 N   0  0  0  0  0  0  0  0  0  0  0  0
   38.6900   27.5820   39.0770 H   0  0  0  0  0  0  0  0  0  0  0  0
   35.6040   28.4970   41.9140 H   0  0  0  0  0  0  0  0  0  0  0  0
   37.1300   32.7820   39.6220 C   0  0  0  0  0  3  0  0  0  0  0  0
   38.0470   31.9480   40.2320 C   0  0  0  0  0  0  0  0  0  0  0  0
   39.2310   32.4110   40.7700 C   0  0  0  0  0  0  0  0  0  0  0  0
   39.9460   31.7830   41.2430 H   0  0  0  0  0  0  0  0  0  0  0  0
   39.4450   33.7710   40.6610 C   0  0  0  0  0  0  0  0  0  0  0  0
   40.4720   34.5470   41.0670 N   0  0  0  0  0  0  0  0  0  0  0  0
   40.2400   35.8490   40.7360 C   0  0  0  0  0  0  0  0  0  0  0  0
   40.8530   36.7220   40.9120 H   0  0  0  0  0  0  0  0  0  0  0  0
   39.0440   35.8530   40.1160 N   0  0  0  0  0  0  0  0  0  0  0  0
   38.5370   34.6140   40.0550 C   0  0  0  0  0  0  0  0  0  0  0  0
   37.3500   34.1410   39.5150 C   0  0  0  0  0  3  0  0  0  0  0  0
   41.3570   34.2880   41.5680 H   0  0  0  0  0  0  0  0  0  0  0  0
   36.7860   26.4280   40.5970 C   0  0  0  0  0  3  0  0  0  0  0  0
   37.5100   25.4230   40.2040 C   0  0  0  0  0  3  0  0  0  0  0  0
   37.1080   24.0010   40.3410 C   0  0  0  0  0  0  0  0  0  0  0  0
   36.4180   23.8710   41.2220 H   0  0  0  0  0  0  0  0  0  0  0  0
   38.0310   23.4070   40.4810 H   0  0  0  0  0  0  0  0  0  0  0  0
   34.4570   23.1380   40.4890 F   0  0  0  0  0  0  0  0  0  0  0  0
   35.0570   23.1190   39.2810 C   0  0  0  0  0  0  0  0  0  0  0  0
   36.3940   23.5420   39.1520 C   0  0  0  0  0  0  0  0  0  0  0  0
   36.8650   23.4660   37.8760 C   0  0  0  0  0  0  0  0  0  0  0  0
   36.2110   23.0410   36.7540 C   0  0  0  0  0  0  0  0  0  0  0  0
   34.8820   22.6390   36.9840 C   0  0  0  0  0  0  0  0  0  0  0  0
   34.2760   22.6620   38.2170 C   0  0  0  0  0  0  0  0  0  0  0  0
   37.8950   23.7780   37.7120 H   0  0  0  0  0  0  0  0  0  0  0  0
   36.6590   23.0110   35.7720 H   0  0  0  0  0  0  0  0  0  0  0  0
   34.3090   22.2920   36.1340 H   0  0  0  0  0  0  0  0  0  0  0  0
   33.2730   22.3550   38.3720 H   0  0  0  0  0  0  0  0  0  0  0  0
  1  2  1  0  0  0  0
  2 21  1  0  0  0  0
  2  3  2  0  0  0  0
  3  8  1  0  0  0  0
  4  3  1  0  0  0  0
  5  4  2  0  0  0  0
  6  1  2  0  0  0  0
  6  5  1  0  0  0  0
  7  1  1  0  0  0  0
  9 10  1  0  0  0  0
 10  5  1  0  0  0  0
 10 11  2  0  0  0  0
 11 12  1  0  0  0  0
 13 11  1  0  0  0  0
 13 14  1  0  0  0  0
 14 20  1  0  0  0  0
 15 16  1  0  0  0  0
 15 14  1  0  0  0  0
 17 15  2  0  0  0  0
 18 17  1  0  0  0  0
 18 13  2  0  0  0  0
 19  9  2  0  0  0  0
 19 18  1  0  0  0  0
 22 23  1  0  0  0  0
 22 21  2  0  0  0  0
 23 25  1  0  0  0  0
 23 24  1  0  0  0  0
 27 26  1  0  0  0  0
 28 27  1  0  0  0  0
 28 23  1  0  0  0  0
 29 28  2  0  0  0  0
 30 31  2  0  0  0  0
 30 29  1  0  0  0  0
 31 32  1  0  0  0  0
 32 36  1  0  0  0  0
 32 27  2  0  0  0  0
 33 29  1  0  0  0  0
 34 30  1  0  0  0  0
 35 31  1  0  0  0  0
M  END
>  <minimizedAffinity>
-5.65756321

$$$$

 OpenBabel03242517183D

 36 39  0  0  0  0  0  0  0  0999 V2000
   38.1800   28.6150   39.5500 C   0  0  0  0  0  0  0  0  0  0  0  0
   36.8250   28.2670   39.6420 C   0  0  0  0  0  0  0  0  0  0  0  0
   35.9030   29.2790   39.8320 C   0  0  0  0  0  0  0  0  0  0  0  0
   36.3720   30.5470   39.9190 N   0  0  0  0  0  0  0  0  0  0  0  0
   37.6770   30.8730   39.8310 C   0  0  0  0  0  0  0  0  0  0  0  0
   38.5530   29.8840   39.6460 N   0  0  0  0  0  0  0  0  0  0  0  0
   38.8900   27.8090   39.4000 H   0  0  0  0  0  0  0  0  0  0  0  0
   34.8300   29.0980   39.9140 H   0  0  0  0  0  0  0  0  0  0  0  0
   37.2190   33.2480   39.5100 C   0  0  0  0  0  3  0  0  0  0  0  0
   38.0940   32.2680   39.9360 C   0  0  0  0  0  0  0  0  0  0  0  0
   39.3410   32.5590   40.4550 C   0  0  0  0  0  0  0  0  0  0  0  0
   40.0260   31.8170   40.7870 H   0  0  0  0  0  0  0  0  0  0  0  0
   39.6630   33.9000   40.5210 C   0  0  0  0  0  0  0  0  0  0  0  0
   40.7710   34.5290   40.9630 N   0  0  0  0  0  0  0  0  0  0  0  0
   40.6320   35.8790   40.8320 C   0  0  0  0  0  0  0  0  0  0  0  0
   41.3240   36.6690   41.0880 H   0  0  0  0  0  0  0  0  0  0  0  0
   39.4080   36.0630   40.2990 N   0  0  0  0  0  0  0  0  0  0  0  0
   38.7970   34.8870   40.0990 C   0  0  0  0  0  0  0  0  0  0  0  0
   37.5470   34.5880   39.5790 C   0  0  0  0  0  3  0  0  0  0  0  0
   41.6570   34.1350   41.3640 H   0  0  0  0  0  0  0  0  0  0  0  0
   36.3630   26.8790   39.5420 C   0  0  0  0  0  3  0  0  0  0  0  0
   36.0330   26.2420   38.4580 C   0  0  0  0  0  3  0  0  0  0  0  0
   35.5740   24.8310   38.4270 C   0  0  0  0  0  0  0  0  0  0  0  0
   35.1890   24.5650   37.4030 H   0  0  0  0  0  0  0  0  0  0  0  0
   34.7720   24.7260   39.1820 H   0  0  0  0  0  0  0  0  0  0  0  0
   35.9140   23.7940   40.9970 F   0  0  0  0  0  0  0  0  0  0  0  0
   36.7960   23.4210   40.0480 C   0  0  0  0  0  0  0  0  0  0  0  0
   36.6720   23.9160   38.7360 C   0  0  0  0  0  0  0  0  0  0  0  0
   37.6330   23.4540   37.8890 C   0  0  0  0  0  0  0  0  0  0  0  0
   38.6630   22.5990   38.1610 C   0  0  0  0  0  0  0  0  0  0  0  0
   38.7050   22.1580   39.4970 C   0  0  0  0  0  0  0  0  0  0  0  0
   37.8010   22.5420   40.4590 C   0  0  0  0  0  0  0  0  0  0  0  0
   37.5910   23.8040   36.8590 H   0  0  0  0  0  0  0  0  0  0  0  0
   39.3890   22.2790   37.4280 H   0  0  0  0  0  0  0  0  0  0  0  0
   39.4980   21.4780   39.7770 H   0  0  0  0  0  0  0  0  0  0  0  0
   37.8470   22.2010   41.4620 H   0  0  0  0  0  0  0  0  0  0  0  0
  1  2  2  0  0  0  0
  1  6  1  0  0  0  0
  2  3  1  0  0  0  0
  3  8  1  0  0  0  0
  3  4  2  0  0  0  0
  5  4  1  0  0  0  0
  5 10  1  0  0  0  0
  6  5  2  0  0  0  0
  7  1  1  0  0  0  0
  9 19  2  0  0  0  0
  9 10  1  0  0  0  0
 10 11  2  0  0  0  0
 11 13  1  0  0  0  0
 11 12  1  0  0  0  0
 13 14  1  0  0  0  0
 14 20  1  0  0  0  0
 15 14  1  0  0  0  0
 15 16  1  0  0  0  0
 17 15  2  0  0  0  0
 18 17  1  0  0  0  0
 18 13  2  0  0  0  0
 19 18  1  0  0  0  0
 21  2  1  0  0  0  0
 22 21  2  0  0  0  0
 23 22  1  0  0  0  0
 23 28  1  0  0  0  0
 23 25  1  0  0  0  0
 24 23  1  0  0  0  0
 27 32  1  0  0  0  0
 27 26  1  0  0  0  0
 28 27  2  0  0  0  0
 29 30  2  0  0  0  0
 29 28  1  0  0  0  0
 30 31  1  0  0  0  0
 31 35  1  0  0  0  0
 31 32  2  0  0  0  0
 32 36  1  0  0  0  0
 33 29  1  0  0  0  0
 34 30  1  0  0  0  0
M  END
>  <minimizedAffinity>
-5.58353806

$$$$

 OpenBabel03242517183D

 36 39  0  0  0  0  0  0  0  0999 V2000
   37.7820   28.4990   41.0100 C   0  0  0  0  0  0  0  0  0  0  0  0
   38.6850   27.5830   41.5700 C   0  0  0  0  0  0  0  0  0  0  0  0
   39.9560   28.0250   41.8780 C   0  0  0  0  0  0  0  0  0  0  0  0
   40.2500   29.3210   41.6170 N   0  0  0  0  0  0  0  0  0  0  0  0
   39.3780   30.1960   41.0780 C   0  0  0  0  0  0  0  0  0  0  0  0
   38.1540   29.7530   40.7870 N   0  0  0  0  0  0  0  0  0  0  0  0
   36.7880   28.1360   40.7750 H   0  0  0  0  0  0  0  0  0  0  0  0
   40.7200   27.3810   42.3160 H   0  0  0  0  0  0  0  0  0  0  0  0
   41.1110   31.8340   40.5600 C   0  0  0  0  0  3  0  0  0  0  0  0
   39.7810   31.5780   40.8300 C   0  0  0  0  0  0  0  0  0  0  0  0
   38.8250   32.5730   40.8720 C   0  0  0  0  0  0  0  0  0  0  0  0
   37.7980   32.3920   41.0780 H   0  0  0  0  0  0  0  0  0  0  0  0
   39.2830   33.8530   40.6280 C   0  0  0  0  0  0  0  0  0  0  0  0
   38.6390   35.0380   40.5900 N   0  0  0  0  0  0  0  0  0  0  0  0
   39.5160   36.0430   40.3060 C   0  0  0  0  0  0  0  0  0  0  0  0
   39.3340   37.1030   40.2030 H   0  0  0  0  0  0  0  0  0  0  0  0
   40.7140   35.4440   40.1690 N   0  0  0  0  0  0  0  0  0  0  0  0
   40.6080   34.1210   40.3570 C   0  0  0  0  0  0  0  0  0  0  0  0
   41.5630   33.1160   40.3170 C   0  0  0  0  0  3  0  0  0  0  0  0
   37.6250   35.2600   40.7410 H   0  0  0  0  0  0  0  0  0  0  0  0
   38.3210   26.1880   41.8350 C   0  0  0  0  0  3  0  0  0  0  0  0
   37.1890   25.6100   41.5620 C   0  0  0  0  0  3  0  0  0  0  0  0
   36.8860   24.1870   41.8570 C   0  0  0  0  0  0  0  0  0  0  0  0
   35.7900   24.0570   42.0820 H   0  0  0  0  0  0  0  0  0  0  0  0
   37.4980   23.8920   42.7300 H   0  0  0  0  0  0  0  0  0  0  0  0
   34.9760   23.6200   39.9010 F   0  0  0  0  0  0  0  0  0  0  0  0
   36.2050   23.0830   39.7540 C   0  0  0  0  0  0  0  0  0  0  0  0
   37.2040   23.3360   40.7130 C   0  0  0  0  0  0  0  0  0  0  0  0
   38.3900   22.7280   40.4330 C   0  0  0  0  0  0  0  0  0  0  0  0
   38.7040   21.9310   39.3680 C   0  0  0  0  0  0  0  0  0  0  0  0
   37.6420   21.7370   38.4650 C   0  0  0  0  0  0  0  0  0  0  0  0
   36.3930   22.2880   38.6210 C   0  0  0  0  0  0  0  0  0  0  0  0
   39.2030   22.8840   41.1400 H   0  0  0  0  0  0  0  0  0  0  0  0
   39.6750   21.4830   39.2170 H   0  0  0  0  0  0  0  0  0  0  0  0
   37.8280   21.1150   37.5990 H   0  0  0  0  0  0  0  0  0  0  0  0
   35.6040   22.1310   37.9310 H   0  0  0  0  0  0  0  0  0  0  0  0
  1  2  1  0  0  0  0
  2 21  1  0  0  0  0
  2  3  2  0  0  0  0
  3  8  1  0  0  0  0
  4  3  1  0  0  0  0
  5  4  2  0  0  0  0
  6  1  2  0  0  0  0
  6  5  1  0  0  0  0
  7  1  1  0  0  0  0
  9 10  1  0  0  0  0
 10 11  2  0  0  0  0
 10  5  1  0  0  0  0
 11 12  1  0  0  0  0
 13 11  1  0  0  0  0
 14 13  1  0  0  0  0
 14 20  1  0  0  0  0
 15 14  1  0  0  0  0
 16 15  1  0  0  0  0
 17 15  2  0  0  0  0
 17 18  1  0  0  0  0
 18 13  2  0  0  0  0
 19 18  1  0  0  0  0
 19  9  2  0  0  0  0
 22 21  2  0  0  0  0
 22 23  1  0  0  0  0
 23 24  1  0  0  0  0
 23 25  1  0  0  0  0
 27 26  1  0  0  0  0
 27 28  1  0  0  0  0
 28 23  1  0  0  0  0
 29 28  2  0  0  0  0
 29 33  1  0  0  0  0
 30 29  1  0  0  0  0
 31 32  1  0  0  0  0
 31 30  2  0  0  0  0
 32 27  2  0  0  0  0
 34 30  1  0  0  0  0
 35 31  1  0  0  0  0
 36 32  1  0  0  0  0
M  END
>  <minimizedAffinity>
-5.55606747

$$$$

 OpenBabel03242517183D

 36 39  0  0  0  0  0  0  0  0999 V2000
   36.3730   29.6960   37.3180 C   0  0  0  0  0  0  0  0  0  0  0  0
   36.7490   30.2860   38.5330 C   0  0  0  0  0  0  0  0  0  0  0  0
   36.8260   29.4810   39.6520 C   0  0  0  0  0  0  0  0  0  0  0  0
   36.5320   28.1680   39.5020 N   0  0  0  0  0  0  0  0  0  0  0  0
   36.1700   27.6070   38.3310 C   0  0  0  0  0  0  0  0  0  0  0  0
   36.1010   28.3990   37.2600 N   0  0  0  0  0  0  0  0  0  0  0  0
   36.3170   30.3420   36.4480 H   0  0  0  0  0  0  0  0  0  0  0  0
   37.1110   29.8570   40.6370 H   0  0  0  0  0  0  0  0  0  0  0  0
   34.8470   25.7660   37.4290 C   0  0  0  0  0  3  0  0  0  0  0  0
   35.8690   26.1800   38.2600 C   0  0  0  0  0  0  0  0  0  0  0  0
   36.6130   25.3000   39.0210 C   0  0  0  0  0  0  0  0  0  0  0  0
   37.4020   25.6020   39.6650 H   0  0  0  0  0  0  0  0  0  0  0  0
   36.2690   23.9680   38.9000 C   0  0  0  0  0  0  0  0  0  0  0  0
   36.7740   22.8610   39.4840 N   0  0  0  0  0  0  0  0  0  0  0  0
   36.1060   21.7530   39.0530 C   0  0  0  0  0  0  0  0  0  0  0  0
   36.2530   20.7160   39.3170 H   0  0  0  0  0  0  0  0  0  0  0  0
   35.1780   22.2090   38.1880 N   0  0  0  0  0  0  0  0  0  0  0  0
   35.2510   23.5420   38.0730 C   0  0  0  0  0  0  0  0  0  0  0  0
   34.5080   24.4320   37.3130 C   0  0  0  0  0  3  0  0  0  0  0  0
   37.5560   22.7590   40.1750 H   0  0  0  0  0  0  0  0  0  0  0  0
   37.0590   31.7140   38.6470 C   0  0  0  0  0  3  0  0  0  0  0  0
   37.2640   32.3850   39.7420 C   0  0  0  0  0  3  0  0  0  0  0  0
   37.5760   33.8350   39.7860 C   0  0  0  0  0  0  0  0  0  0  0  0
   36.9760   34.3420   40.5930 H   0  0  0  0  0  0  0  0  0  0  0  0
   37.3290   34.2590   38.7940 H   0  0  0  0  0  0  0  0  0  0  0  0
   38.6500   36.4110   39.8700 F   0  0  0  0  0  0  0  0  0  0  0  0
   39.4800   35.3770   40.1160 C   0  0  0  0  0  0  0  0  0  0  0  0
   38.9900   34.0570   40.0840 C   0  0  0  0  0  0  0  0  0  0  0  0
   39.9410   33.1190   40.3510 C   0  0  0  0  0  0  0  0  0  0  0  0
   41.2650   33.3100   40.6330 C   0  0  0  0  0  0  0  0  0  0  0  0
   41.6600   34.6620   40.6420 C   0  0  0  0  0  0  0  0  0  0  0  0
   40.8080   35.7100   40.3910 C   0  0  0  0  0  0  0  0  0  0  0  0
   39.6240   32.0790   40.3390 H   0  0  0  0  0  0  0  0  0  0  0  0
   41.9590   32.5080   40.8340 H   0  0  0  0  0  0  0  0  0  0  0  0
   42.6970   34.8800   40.8590 H   0  0  0  0  0  0  0  0  0  0  0  0
   41.1220   36.7230   40.4010 H   0  0  0  0  0  0  0  0  0  0  0  0
  1  2  1  0  0  0  0
  2 21  1  0  0  0  0
  2  3  2  0  0  0  0
  3  8  1  0  0  0  0
  4  3  1  0  0  0  0
  5  4  2  0  0  0  0
  6  1  2  0  0  0  0
  6  5  1  0  0  0  0
  7  1  1  0  0  0  0
  9 10  1  0  0  0  0
 10  5  1  0  0  0  0
 10 11  2  0  0  0  0
 11 12  1  0  0  0  0
 13 11  1  0  0  0  0
 13 14  1  0  0  0  0
 14 20  1  0  0  0  0
 15 16  1  0  0  0  0
 15 14  1  0  0  0  0
 17 15  2  0  0  0  0
 18 17  1  0  0  0  0
 18 13  2  0  0  0  0
 19  9  2  0  0  0  0
 19 18  1  0  0  0  0
 21 22  2  0  0  0  0
 22 23  1  0  0  0  0
 23 28  1  0  0  0  0
 23 24  1  0  0  0  0
 25 23  1  0  0  0  0
 26 27  1  0  0  0  0
 27 32  1  0  0  0  0
 28 27  2  0  0  0  0
 28 29  1  0  0  0  0
 29 30  2  0  0  0  0
 30 31  1  0  0  0  0
 30 34  1  0  0  0  0
 31 35  1  0  0  0  0
 32 36  1  0  0  0  0
 32 31  2  0  0  0  0
 33 29  1  0  0  0  0
M  END
>  <minimizedAffinity>
-5.55374432

$$$$

 OpenBabel03242517183D

 36 39  0  0  0  0  0  0  0  0999 V2000
   36.7980   31.4060   39.2150 C   0  0  0  0  0  0  0  0  0  0  0  0
   37.3630   30.5310   38.2740 C   0  0  0  0  0  0  0  0  0  0  0  0
   38.6910   30.7030   37.9390 C   0  0  0  0  0  0  0  0  0  0  0  0
   39.3660   31.7110   38.5430 N   0  0  0  0  0  0  0  0  0  0  0  0
   38.8160   32.5480   39.4460 C   0  0  0  0  0  0  0  0  0  0  0  0
   37.5320   32.3670   39.7590 N   0  0  0  0  0  0  0  0  0  0  0  0
   35.7540   31.2560   39.4670 H   0  0  0  0  0  0  0  0  0  0  0  0
   39.2100   30.0690   37.2180 H   0  0  0  0  0  0  0  0  0  0  0  0
   39.0960   34.8870   40.0810 C   0  0  0  0  0  3  0  0  0  0  0  0
   39.6190   33.6090   40.0480 C   0  0  0  0  0  0  0  0  0  0  0  0
   40.8630   33.3000   40.5610 C   0  0  0  0  0  0  0  0  0  0  0  0
   41.2790   32.3220   40.5430 H   0  0  0  0  0  0  0  0  0  0  0  0
   41.5610   34.3560   41.1130 C   0  0  0  0  0  0  0  0  0  0  0  0
   42.7780   34.4140   41.6930 N   0  0  0  0  0  0  0  0  0  0  0  0
   43.0500   35.6880   42.0940 C   0  0  0  0  0  0  0  0  0  0  0  0
   43.9280   36.0790   42.5880 H   0  0  0  0  0  0  0  0  0  0  0  0
   41.9670   36.4110   41.7470 N   0  0  0  0  0  0  0  0  0  0  0  0
   41.0500   35.6360   41.1530 C   0  0  0  0  0  0  0  0  0  0  0  0
   39.7990   35.9390   40.6360 C   0  0  0  0  0  3  0  0  0  0  0  0
   43.4840   33.6560   41.8580 H   0  0  0  0  0  0  0  0  0  0  0  0
   36.5920   29.4540   37.6460 C   0  0  0  0  0  3  0  0  0  0  0  0
   35.5850   28.8120   38.1590 C   0  0  0  0  0  3  0  0  0  0  0  0
   34.8460   27.7270   37.4650 C   0  0  0  0  0  0  0  0  0  0  0  0
   34.6880   26.8540   38.1580 H   0  0  0  0  0  0  0  0  0  0  0  0
   35.4500   27.4230   36.5890 H   0  0  0  0  0  0  0  0  0  0  0  0
   33.4460   26.4000   35.4470 F   0  0  0  0  0  0  0  0  0  0  0  0
   32.8650   27.4800   36.0080 C   0  0  0  0  0  0  0  0  0  0  0  0
   33.5290   28.1870   37.0290 C   0  0  0  0  0  0  0  0  0  0  0  0
   32.8230   29.2530   37.4980 C   0  0  0  0  0  0  0  0  0  0  0  0
   31.5910   29.6940   37.1020 C   0  0  0  0  0  0  0  0  0  0  0  0
   31.0080   28.9240   36.0780 C   0  0  0  0  0  0  0  0  0  0  0  0
   31.6060   27.8240   35.5120 C   0  0  0  0  0  0  0  0  0  0  0  0
   33.2850   29.8410   38.2870 H   0  0  0  0  0  0  0  0  0  0  0  0
   31.0960   30.5540   37.5270 H   0  0  0  0  0  0  0  0  0  0  0  0
   30.0310   29.2220   35.7210 H   0  0  0  0  0  0  0  0  0  0  0  0
   31.1520   27.2550   34.7410 H   0  0  0  0  0  0  0  0  0  0  0  0
  1  7  1  0  0  0  0
  1  6  1  0  0  0  0
  2  1  2  0  0  0  0
  3  2  1  0  0  0  0
  3  4  2  0  0  0  0
  4  5  1  0  0  0  0
  5  6  2  0  0  0  0
  5 10  1  0  0  0  0
  8  3  1  0  0  0  0
  9 19  1  0  0  0  0
 10  9  2  0  0  0  0
 10 11  1  0  0  0  0
 11 13  2  0  0  0  0
 12 11  1  0  0  0  0
 13 18  1  0  0  0  0
 13 14  1  0  0  0  0
 14 20  1  0  0  0  0
 14 15  1  0  0  0  0
 15 16  1  0  0  0  0
 17 15  2  0  0  0  0
 18 17  1  0  0  0  0
 19 18  2  0  0  0  0
 21 22  2  0  0  0  0
 21  2  1  0  0  0  0
 23 24  1  0  0  0  0
 23 22  1  0  0  0  0
 25 23  1  0  0  0  0
 26 27  1  0  0  0  0
 27 28  1  0  0  0  0
 28 23  1  0  0  0  0
 28 29  2  0  0  0  0
 29 33  1  0  0  0  0
 30 29  1  0  0  0  0
 30 34  1  0  0  0  0
 31 30  2  0  0  0  0
 32 27  2  0  0  0  0
 32 31  1  0  0  0  0
 35 31  1  0  0  0  0
 36 32  1  0  0  0  0
M  END
>  <minimizedAffinity>
-5.53097773

$$$$
