
 OpenBabel03252508393D

 44 48  0  0  0  0  0  0  0  0999 V2000
   45.1310   34.0030   40.7850 C   0  0  0  0  0  0  0  0  0  0  0  0
   44.0750   33.6670   39.9880 C   0  0  0  0  0  0  0  0  0  0  0  0
   44.3610   33.1220   38.7650 C   0  0  0  0  0  0  0  0  0  0  0  0
   45.6400   32.9010   38.3070 C   0  0  0  0  0  0  0  0  0  0  0  0
   46.6790   33.2550   39.1440 C   0  0  0  0  0  0  0  0  0  0  0  0
   46.4420   33.8090   40.3890 C   0  0  0  0  0  0  0  0  0  0  0  0
   43.5310   32.8520   38.1260 H   0  0  0  0  0  0  0  0  0  0  0  0
   45.7970   32.4730   37.3420 H   0  0  0  0  0  0  0  0  0  0  0  0
   47.6980   33.0850   38.7890 H   0  0  0  0  0  0  0  0  0  0  0  0
   40.8910   35.4130   41.0360 C   0  0  0  0  0  0  0  0  0  0  0  0
   42.1910   35.2180   40.5250 C   0  0  0  0  0  0  0  0  0  0  0  0
   42.7380   33.9140   40.5060 C   0  0  0  0  0  0  0  0  0  0  0  0
   41.9400   32.9470   40.9960 N   0  0  0  0  0  0  0  0  0  0  0  0
   40.7170   33.1540   41.4730 C   0  0  0  0  0  0  0  0  0  0  0  0
   40.1950   34.3910   41.4920 N   0  0  0  0  0  0  0  0  0  0  0  0
   40.3930   36.7450   41.0290 N   0  0  0  0  0  0  0  0  0  0  0  0
   42.7970   36.0310   40.1400 H   0  0  0  0  0  0  0  0  0  0  0  0
   40.1260   32.3270   41.8540 H   0  0  0  0  0  0  0  0  0  0  0  0
   40.1620   37.3670   40.2090 H   0  0  0  0  0  0  0  0  0  0  0  0
   40.1960   37.2660   41.9120 H   0  0  0  0  0  0  0  0  0  0  0  0
   47.6040   34.1460   41.1850 C   0  0  0  0  0  0  0  0  0  0  0  0
   48.1710   35.3790   40.9190 C   0  0  0  0  0  0  0  0  0  0  0  0
   49.2900   35.8830   41.5750 C   0  0  0  0  0  0  0  0  0  0  0  0
   49.8570   35.0810   42.5550 C   0  0  0  0  0  0  0  0  0  0  0  0
   49.3080   33.8440   42.8390 C   0  0  0  0  0  0  0  0  0  0  0  0
   48.1960   33.3900   42.1580 C   0  0  0  0  0  0  0  0  0  0  0  0
   47.7940   36.0790   40.1660 H   0  0  0  0  0  0  0  0  0  0  0  0
   49.7290   36.8310   41.3730 H   0  0  0  0  0  0  0  0  0  0  0  0
   50.7280   35.4140   43.1020 H   0  0  0  0  0  0  0  0  0  0  0  0
   49.7080   33.1680   43.5980 H   0  0  0  0  0  0  0  0  0  0  0  0
   46.9040   32.0840   43.6520 C   0  0  0  0  0  3  0  0  0  0  0  0
   47.6020   32.0910   42.4400 C   0  0  0  0  0  0  0  0  0  0  0  0
   47.6220   30.9160   41.7180 C   0  0  0  0  0  0  0  0  0  0  0  0
   48.1810   31.0150   40.7980 H   0  0  0  0  0  0  0  0  0  0  0  0
   46.9730   29.8010   42.1980 C   0  0  0  0  0  0  0  0  0  0  0  0
   46.8790   28.5880   41.6510 N   0  0  0  0  0  0  0  0  0  0  0  0
   46.1420   27.8040   42.4780 C   0  0  0  0  0  0  0  0  0  0  0  0
   45.8880   26.7610   42.3090 H   0  0  0  0  0  0  0  0  0  0  0  0
   45.7860   28.5640   43.5400 N   0  0  0  0  0  0  0  0  0  0  0  0
   46.2980   29.8070   43.3770 C   0  0  0  0  0  0  0  0  0  0  0  0
   46.2490   30.9580   44.1350 C   0  0  0  0  0  3  0  0  0  0  0  0
   47.2880   28.2570   40.7430 H   0  0  0  0  0  0  0  0  0  0  0  0
   44.7470   35.0680   43.1520 N   0  0  0  0  0  0  0  0  0  0  0  0
   44.9140   34.5870   42.0930 C   0  0  0  0  0  0  0  0  0  0  0  0
  1 44  1  0  0  0  0
  2 12  1  0  0  0  0
  2  1  2  0  0  0  0
  3  2  1  0  0  0  0
  4  3  2  0  0  0  0
  4  5  1  0  0  0  0
  5  6  2  0  0  0  0
  6  1  1  0  0  0  0
  6 21  1  0  0  0  0
  7  3  1  0  0  0  0
  8  4  1  0  0  0  0
  9  5  1  0  0  0  0
 10 15  1  0  0  0  0
 11 10  2  0  0  0  0
 12 11  1  0  0  0  0
 12 13  2  0  0  0  0
 13 14  1  0  0  0  0
 14 15  2  0  0  0  0
 14 18  1  0  0  0  0
 16 10  1  0  0  0  0
 16 20  1  0  0  0  0
 17 11  1  0  0  0  0
 19 16  1  0  0  0  0
 21 26  1  0  0  0  0
 22 21  2  0  0  0  0
 22 23  1  0  0  0  0
 23 24  2  0  0  0  0
 24 25  1  0  0  0  0
 24 29  1  0  0  0  0
 25 30  1  0  0  0  0
 26 32  1  0  0  0  0
 26 25  2  0  0  0  0
 27 22  1  0  0  0  0
 28 23  1  0  0  0  0
 31 41  1  0  0  0  0
 32 31  2  0  0  0  0
 33 35  2  0  0  0  0
 33 32  1  0  0  0  0
 34 33  1  0  0  0  0
 35 40  1  0  0  0  0
 36 35  1  0  0  0  0
 36 37  1  0  0  0  0
 37 39  2  0  0  0  0
 38 37  1  0  0  0  0
 40 39  1  0  0  0  0
 40 41  2  0  0  0  0
 42 36  1  0  0  0  0
 44 43  3  0  0  0  0
M  END
>  <minimizedAffinity>
-6.09715462

>  <minimizedRMSD>
0.684246719

$$$$
