
 OpenBabel03252509163D

 28 31  0  0  0  0  0  0  0  0999 V2000
   49.4580   31.8880   40.4730 C   0  0  0  0  0  0  0  0  0  0  0  0
   48.7110   32.8190   39.7050 C   0  0  0  0  0  0  0  0  0  0  0  0
   47.7760   33.5650   40.3430 C   0  0  0  0  0  0  0  0  0  0  0  0
   47.5820   33.3920   41.7410 C   0  0  0  0  0  0  0  0  0  0  0  0
   48.8100   32.0830   42.1610 S   0  0  0  0  0  0  0  0  0  0  0  0
   48.8900   32.9180   38.6440 H   0  0  0  0  0  0  0  0  0  0  0  0
   47.1580   34.2870   39.8860 H   0  0  0  0  0  0  0  0  0  0  0  0
   45.9790   35.1390   42.2400 C   0  0  0  0  0  3  0  0  0  0  0  0
   46.6930   34.0260   42.6370 C   0  0  0  0  0  0  0  0  0  0  0  0
   46.5820   33.4860   43.9000 C   0  0  0  0  0  0  0  0  0  0  0  0
   47.1290   32.6110   44.2500 H   0  0  0  0  0  0  0  0  0  0  0  0
   45.7100   34.0940   44.8110 C   0  0  0  0  0  0  0  0  0  0  0  0
   45.4140   33.7700   46.1020 N   0  0  0  0  0  0  0  0  0  0  0  0
   44.5020   34.6980   46.5080 C   0  0  0  0  0  0  0  0  0  0  0  0
   44.0180   34.7820   47.4850 H   0  0  0  0  0  0  0  0  0  0  0  0
   44.2550   35.5550   45.4920 N   0  0  0  0  0  0  0  0  0  0  0  0
   44.9910   35.2050   44.4260 C   0  0  0  0  0  0  0  0  0  0  0  0
   45.1210   35.7330   43.1400 C   0  0  0  0  0  3  0  0  0  0  0  0
   45.7880   32.9900   46.6800 H   0  0  0  0  0  0  0  0  0  0  0  0
   51.4670   29.4940   38.4500 C   0  0  0  0  0  0  0  0  0  0  0  0
   52.6810   29.5130   39.1860 C   0  0  0  0  0  0  0  0  0  0  0  0
   52.7410   30.3320   40.3160 C   0  0  0  0  0  0  0  0  0  0  0  0
   51.6320   31.0690   40.6510 N   0  0  0  0  0  0  0  0  0  0  0  0
   50.4970   31.0160   39.9150 C   0  0  0  0  0  0  0  0  0  0  0  0
   50.4070   30.2310   38.8120 N   0  0  0  0  0  0  0  0  0  0  0  0
   51.3880   28.8700   37.5690 H   0  0  0  0  0  0  0  0  0  0  0  0
   53.5280   28.9250   38.8970 H   0  0  0  0  0  0  0  0  0  0  0  0
   53.6280   30.4010   40.9290 H   0  0  0  0  0  0  0  0  0  0  0  0
  1  5  1  0  0  0  0
  2  3  1  0  0  0  0
  2  1  2  0  0  0  0
  3  4  2  0  0  0  0
  4  5  1  0  0  0  0
  4  9  1  0  0  0  0
  6  2  1  0  0  0  0
  7  3  1  0  0  0  0
  8  9  2  0  0  0  0
  8 18  1  0  0  0  0
  9 10  1  0  0  0  0
 10 11  1  0  0  0  0
 10 12  2  0  0  0  0
 12 13  1  0  0  0  0
 13 14  1  0  0  0  0
 13 19  1  0  0  0  0
 14 15  1  0  0  0  0
 16 14  2  0  0  0  0
 17 12  1  0  0  0  0
 17 16  1  0  0  0  0
 18 17  2  0  0  0  0
 20 25  2  0  0  0  0
 20 21  1  0  0  0  0
 21 22  2  0  0  0  0
 22 23  1  0  0  0  0
 22 28  1  0  0  0  0
 24  1  1  0  0  0  0
 24 23  2  0  0  0  0
 25 24  1  0  0  0  0
 26 20  1  0  0  0  0
 27 21  1  0  0  0  0
M  END
>  <minimizedAffinity>
-4.39989996

>  <minimizedRMSD>
8.9808712

$$$$
