
 OpenBabel03242522073D

 47 51  0  0  1  0  0  0  0  0999 V2000
   44.7220   35.0660   45.2570 C   0  0  0  0  0  0  0  0  0  0  0  0
   45.5140   34.9400   44.1050 C   0  0  0  0  0  0  0  0  0  0  0  0
   46.5010   33.9530   44.0760 C   0  0  0  0  0  0  0  0  0  0  0  0
   46.6050   33.1860   45.1930 N   0  0  0  0  0  0  0  0  0  0  0  0
   45.8370   33.3250   46.2820 C   0  0  0  0  0  0  0  0  0  0  0  0
   44.8850   34.2780   46.3090 N   0  0  0  0  0  0  0  0  0  0  0  0
   43.9790   35.8510   45.2090 H   0  0  0  0  0  0  0  0  0  0  0  0
   45.4220   35.5460   43.2370 H   0  0  0  0  0  0  0  0  0  0  0  0
   47.3740   33.7130   42.9740 N   0  0  0  0  0  0  0  0  0  0  0  0
   46.9510   32.8570   41.8890 C   0  0  0  0  0  0  0  0  0  0  0  0
   48.1390   32.3340   41.1180 C   0  0  0  0  0  0  0  0  0  0  0  0
   49.0650   33.3130   40.7130 N   0  0  0  0  0  0  0  0  0  0  0  0
   49.2930   34.3860   41.6050 C   0  0  2  0  0  0  0  0  0  0  0  0
   48.6710   34.3200   42.9420 C   0  0  0  0  0  0  0  0  0  0  0  0
   46.2880   33.4530   41.2320 H   0  0  0  0  0  0  0  0  0  0  0  0
   46.3820   32.0060   42.2980 H   0  0  0  0  0  0  0  0  0  0  0  0
   47.7580   31.7410   40.2770 H   0  0  0  0  0  0  0  0  0  0  0  0
   48.6740   31.5910   41.7790 H   0  0  0  0  0  0  0  0  0  0  0  0
   48.9620   33.5940   39.7270 H   0  0  0  0  0  0  0  0  0  0  0  0
   50.3980   34.4740   41.7450 H   0  0  0  0  0  0  0  0  0  0  0  0
   49.3570   33.8050   43.6460 H   0  0  0  0  0  0  0  0  0  0  0  0
   48.5790   35.3560   43.3330 H   0  0  0  0  0  0  0  0  0  0  0  0
   48.8390   35.6680   40.9420 C   0  0  0  0  0  0  0  0  0  0  0  0
   49.6490   36.7280   41.3500 F   0  0  0  0  0  0  0  0  0  0  0  0
   47.5720   35.9390   41.4500 F   0  0  0  0  0  0  0  0  0  0  0  0
   48.8690   35.6220   39.5830 F   0  0  0  0  0  0  0  0  0  0  0  0
   46.0280   32.4520   47.4300 C   0  0  0  0  0  0  0  0  0  0  0  0
   44.9400   32.0250   48.1590 C   0  0  0  0  0  0  0  0  0  0  0  0
   45.1770   31.1870   49.2530 C   0  0  0  0  0  0  0  0  0  0  0  0
   46.4790   30.8540   49.5170 C   0  0  0  0  0  0  0  0  0  0  0  0
   47.5620   31.2770   48.7950 C   0  0  0  0  0  0  0  0  0  0  0  0
   47.3110   32.0870   47.7420 N   0  0  0  0  0  0  0  0  0  0  0  0
   43.9380   32.3270   47.8940 H   0  0  0  0  0  0  0  0  0  0  0  0
   44.3560   30.8440   49.8310 H   0  0  0  0  0  0  0  0  0  0  0  0
   46.6520   30.2090   50.3630 H   0  0  0  0  0  0  0  0  0  0  0  0
   49.3300   29.6250   48.8200 C   0  0  0  0  0  0  0  0  0  0  0  0
   48.9500   30.9260   49.0740 C   0  0  0  0  0  0  0  0  0  0  0  0
   49.8520   31.8330   49.5680 C   0  0  0  0  0  0  0  0  0  0  0  0
   49.5790   32.8390   49.7700 H   0  0  0  0  0  0  0  0  0  0  0  0
   51.1380   31.3840   49.7920 C   0  0  0  0  0  0  0  0  0  0  0  0
   52.1890   32.0880   50.2680 N   0  0  0  0  0  0  0  0  0  0  0  0
   53.2360   31.2400   50.3190 C   0  0  0  0  0  0  0  0  0  0  0  0
   54.2600   31.3770   50.6320 H   0  0  0  0  0  0  0  0  0  0  0  0
   52.8890   30.0130   49.8870 N   0  0  0  0  0  0  0  0  0  0  0  0
   51.5690   30.1040   49.5560 C   0  0  0  0  0  0  0  0  0  0  0  0
   50.6390   29.1880   49.0520 C   0  0  0  0  0  0  0  0  0  0  0  0
   52.2390   33.0880   50.5570 H   0  0  0  0  0  0  0  0  0  0  0  0
  1  6  1  0  0  0  0
  2  1  2  0  0  0  0
  3  2  1  0  0  0  0
  3  4  2  0  0  0  0
  4  5  1  0  0  0  0
  5  6  2  0  0  0  0
  5 27  1  0  0  0  0
  7  1  1  0  0  0  0
  8  2  1  0  0  0  0
  9  3  1  0  0  0  0
 10 16  1  0  0  0  0
 10  9  1  0  0  0  0
 11 18  1  0  0  0  0
 11 10  1  0  0  0  0
 12 11  1  0  0  0  0
 12 13  1  0  0  0  0
 13 20  1  1  0  0  0
 13 14  1  0  0  0  0
 14  9  1  0  0  0  0
 14 22  1  0  0  0  0
 14 21  1  0  0  0  0
 15 10  1  0  0  0  0
 17 11  1  0  0  0  0
 19 12  1  0  0  0  0
 23 24  1  0  0  0  0
 23 25  1  0  0  0  0
 23 13  1  0  0  0  0
 26 23  1  0  0  0  0
 27 32  2  0  0  0  0
 27 28  1  0  0  0  0
 28 29  2  0  0  0  0
 29 30  1  0  0  0  0
 29 34  1  0  0  0  0
 30 35  1  0  0  0  0
 31 37  1  0  0  0  0
 31 30  2  0  0  0  0
 32 31  1  0  0  0  0
 33 28  1  0  0  0  0
 36 46  2  0  0  0  0
 36 37  1  0  0  0  0
 37 38  2  0  0  0  0
 38 39  1  0  0  0  0
 38 40  1  0  0  0  0
 40 41  1  0  0  0  0
 41 42  1  0  0  0  0
 41 47  1  0  0  0  0
 42 43  1  0  0  0  0
 44 42  2  0  0  0  0
 45 40  2  0  0  0  0
 45 44  1  0  0  0  0
 46 45  1  0  0  0  0
M  END
>  <minimizedAffinity>
-7.74848318

>  <minimizedRMSD>
0.401411325

$$$$
