
 OpenBabel03242512573D

 31 34  0  0  0  0  0  0  0  0999 V2000
   45.2390   33.3080   41.0150 F   0  0  0  0  0  0  0  0  0  0  0  0
   46.4210   33.9910   40.8870 C   0  0  0  0  0  0  0  0  0  0  0  0
   46.9070   34.7890   41.8890 C   0  0  0  0  0  0  0  0  0  0  0  0
   48.1050   35.4250   41.6440 C   0  0  0  0  0  0  0  0  0  0  0  0
   48.8180   35.2990   40.4750 C   0  0  0  0  0  0  0  0  0  0  0  0
   48.2820   34.4840   39.5040 C   0  0  0  0  0  0  0  0  0  0  0  0
   47.0920   33.8270   39.6950 C   0  0  0  0  0  0  0  0  0  0  0  0
   48.5030   36.0620   42.4290 H   0  0  0  0  0  0  0  0  0  0  0  0
   49.7550   35.8340   40.3610 H   0  0  0  0  0  0  0  0  0  0  0  0
   48.8210   34.3640   38.5680 H   0  0  0  0  0  0  0  0  0  0  0  0
   46.3920   31.6160   38.8020 C   0  0  0  0  0  0  0  0  0  0  0  0
   46.5590   32.9710   38.6370 C   0  0  0  0  0  0  0  0  0  0  0  0
   46.2050   33.5360   37.4140 C   0  0  0  0  0  0  0  0  0  0  0  0
   46.3220   34.5990   37.2480 H   0  0  0  0  0  0  0  0  0  0  0  0
   45.6980   32.7280   36.4020 C   0  0  0  0  0  0  0  0  0  0  0  0
   45.2960   33.0670   35.1520 N   0  0  0  0  0  0  0  0  0  0  0  0
   44.8820   31.9250   34.5480 C   0  0  0  0  0  0  0  0  0  0  0  0
   44.4970   31.8890   33.5170 H   0  0  0  0  0  0  0  0  0  0  0  0
   45.0360   30.9190   35.4280 N   0  0  0  0  0  0  0  0  0  0  0  0
   45.5370   31.3820   36.5800 C   0  0  0  0  0  0  0  0  0  0  0  0
   45.8860   30.8110   37.7920 C   0  0  0  0  0  0  0  0  0  0  0  0
   45.2950   34.0230   34.7130 H   0  0  0  0  0  0  0  0  0  0  0  0
   44.4900   35.9830   44.5330 C   0  0  0  0  0  0  0  0  0  0  0  0
   45.2170   35.9160   43.3400 C   0  0  0  0  0  0  0  0  0  0  0  0
   46.1310   34.9010   43.1100 C   0  0  0  0  0  0  0  0  0  0  0  0
   46.2630   33.9910   44.1190 N   0  0  0  0  0  0  0  0  0  0  0  0
   45.5610   34.0650   45.2620 C   0  0  0  0  0  0  0  0  0  0  0  0
   44.6870   35.0430   45.4720 N   0  0  0  0  0  0  0  0  0  0  0  0
   43.8030   36.8100   44.6190 H   0  0  0  0  0  0  0  0  0  0  0  0
   45.0910   36.6560   42.5510 H   0  0  0  0  0  0  0  0  0  0  0  0
   45.7450   33.2860   46.0000 H   0  0  0  0  0  0  0  0  0  0  0  0
  2  1  1  0  0  0  0
  2  3  1  0  0  0  0
  3 25  1  0  0  0  0
  4  3  2  0  0  0  0
  4  8  1  0  0  0  0
  5  4  1  0  0  0  0
  6  7  1  0  0  0  0
  6  5  2  0  0  0  0
  7  2  2  0  0  0  0
  9  5  1  0  0  0  0
 10  6  1  0  0  0  0
 12 11  1  0  0  0  0
 12  7  1  0  0  0  0
 13 12  2  0  0  0  0
 14 13  1  0  0  0  0
 15 20  2  0  0  0  0
 15 13  1  0  0  0  0
 16 15  1  0  0  0  0
 17 16  1  0  0  0  0
 17 19  2  0  0  0  0
 18 17  1  0  0  0  0
 19 20  1  0  0  0  0
 20 21  1  0  0  0  0
 21 11  2  0  0  0  0
 22 16  1  0  0  0  0
 23 29  1  0  0  0  0
 23 28  1  0  0  0  0
 24 23  2  0  0  0  0
 25 24  1  0  0  0  0
 25 26  2  0  0  0  0
 26 27  1  0  0  0  0
 27 28  2  0  0  0  0
 27 31  1  0  0  0  0
 30 24  1  0  0  0  0
M  END
>  <minimizedAffinity>
-6.41554213

>  <minimizedRMSD>
0.35569194

$$$$
