
 OpenBabel03252508323D

 35 38  0  0  1  0  0  0  0  0999 V2000
   44.3050   34.3790   41.8120 N   0  0  0  0  0  0  0  0  0  0  0  0
   44.3810   33.2580   40.9330 C   0  0  2  0  0  0  0  0  0  0  0  0
   43.9250   33.6020   39.5350 C   0  0  0  0  0  0  0  0  0  0  0  0
   42.6430   34.2360   39.5330 N   0  0  0  0  0  0  0  0  0  0  0  0
   42.5010   35.2920   40.4580 C   0  0  0  0  0  0  0  0  0  0  0  0
   43.7670   35.5920   41.2300 C   0  0  0  0  0  0  0  0  0  0  0  0
   45.4590   32.9700   40.8550 H   0  0  0  0  0  0  0  0  0  0  0  0
   44.6640   34.3180   39.1180 H   0  0  0  0  0  0  0  0  0  0  0  0
   43.9010   32.7210   38.8960 H   0  0  0  0  0  0  0  0  0  0  0  0
   41.9150   33.5030   39.7300 H   0  0  0  0  0  0  0  0  0  0  0  0
   41.6830   35.1940   41.1990 H   0  0  0  0  0  0  0  0  0  0  0  0
   42.2850   36.2220   39.8670 H   0  0  0  0  0  0  0  0  0  0  0  0
   44.5190   35.8940   40.4450 H   0  0  0  0  0  0  0  0  0  0  0  0
   43.5340   36.3910   41.9170 H   0  0  0  0  0  0  0  0  0  0  0  0
   44.0230   30.7700   41.0090 C   0  0  0  0  0  3  0  0  0  0  0  0
   43.6420   32.0580   41.3330 C   0  0  0  0  0  0  0  0  0  0  0  0
   42.4740   32.0610   42.1100 C   0  0  0  0  0  0  0  0  0  0  0  0
   42.0840   33.0410   42.4230 H   0  0  0  0  0  0  0  0  0  0  0  0
   41.7750   30.9550   42.5120 C   0  0  0  0  0  0  0  0  0  0  0  0
   40.6580   30.8270   43.2480 N   0  0  0  0  0  0  0  0  0  0  0  0
   40.4020   29.5100   43.3430 C   0  0  0  0  0  0  0  0  0  0  0  0
   39.5240   29.1620   43.9080 H   0  0  0  0  0  0  0  0  0  0  0  0
   41.3550   28.8460   42.6740 N   0  0  0  0  0  0  0  0  0  0  0  0
   42.2270   29.7120   42.1430 C   0  0  0  0  0  0  0  0  0  0  0  0
   43.3700   29.6120   41.3790 C   0  0  0  0  0  3  0  0  0  0  0  0
   40.0970   31.6190   43.6630 H   0  0  0  0  0  0  0  0  0  0  0  0
   44.3930   35.2240   44.0720 C   0  0  0  0  0  0  0  0  0  0  0  0
   44.7490   34.2440   43.1570 C   0  0  0  0  0  0  0  0  0  0  0  0
   45.5080   33.1920   43.6200 C   0  0  0  0  0  0  0  0  0  0  0  0
   45.8690   33.1530   44.9200 N   0  0  0  0  0  0  0  0  0  0  0  0
   45.5100   34.1160   45.7900 C   0  0  0  0  0  0  0  0  0  0  0  0
   44.7790   35.1360   45.3590 N   0  0  0  0  0  0  0  0  0  0  0  0
   43.8070   36.1080   43.8850 H   0  0  0  0  0  0  0  0  0  0  0  0
   45.8160   32.4150   42.9530 H   0  0  0  0  0  0  0  0  0  0  0  0
   45.8750   33.9460   46.7980 H   0  0  0  0  0  0  0  0  0  0  0  0
  1 28  1  0  0  0  0
  2  7  1  6  0  0  0
  2 16  1  0  0  0  0
  2  1  1  0  0  0  0
  3  2  1  0  0  0  0
  4  3  1  0  0  0  0
  4 10  1  0  0  0  0
  4  5  1  0  0  0  0
  5 11  1  0  0  0  0
  5  6  1  0  0  0  0
  6  1  1  0  0  0  0
  6 14  1  0  0  0  0
  8  3  1  0  0  0  0
  9  3  1  0  0  0  0
 12  5  1  0  0  0  0
 13  6  1  0  0  0  0
 15 16  2  0  0  0  0
 15 25  1  0  0  0  0
 16 17  1  0  0  0  0
 17 18  1  0  0  0  0
 17 19  2  0  0  0  0
 19 20  1  0  0  0  0
 20 21  1  0  0  0  0
 20 26  1  0  0  0  0
 21 22  1  0  0  0  0
 23 21  2  0  0  0  0
 24 19  1  0  0  0  0
 24 23  1  0  0  0  0
 25 24  2  0  0  0  0
 27 32  1  0  0  0  0
 28 29  1  0  0  0  0
 28 27  2  0  0  0  0
 29 30  2  0  0  0  0
 30 31  1  0  0  0  0
 31 35  1  0  0  0  0
 32 31  2  0  0  0  0
 33 27  1  0  0  0  0
 34 29  1  0  0  0  0
M  END
>  <minimizedAffinity>
-4.25787115

>  <minimizedRMSD>
0.248308212

$$$$
