
 OpenBabel03252508333D

 35 38  0  0  1  0  0  0  0  0999 V2000
   43.5950   34.4880   40.9390 N   0  0  0  0  0  0  0  0  0  0  0  0
   42.9220   33.7100   39.9500 C   0  0  2  0  0  0  0  0  0  0  0  0
   41.6840   34.4020   39.4290 C   0  0  0  0  0  0  0  0  0  0  0  0
   40.8270   34.8310   40.4900 N   0  0  0  0  0  0  0  0  0  0  0  0
   41.4750   35.5260   41.5340 C   0  0  0  0  0  0  0  0  0  0  0  0
   42.9530   35.7380   41.2900 C   0  0  0  0  0  0  0  0  0  0  0  0
   43.6170   33.6040   39.0810 H   0  0  0  0  0  0  0  0  0  0  0  0
   42.0230   35.3020   38.8740 H   0  0  0  0  0  0  0  0  0  0  0  0
   41.1300   33.7630   38.7440 H   0  0  0  0  0  0  0  0  0  0  0  0
   40.3450   33.9850   40.8850 H   0  0  0  0  0  0  0  0  0  0  0  0
   41.3710   35.0980   42.5510 H   0  0  0  0  0  0  0  0  0  0  0  0
   41.0280   36.5550   41.5740 H   0  0  0  0  0  0  0  0  0  0  0  0
   43.0030   36.3630   40.3510 H   0  0  0  0  0  0  0  0  0  0  0  0
   43.3430   36.2510   42.1560 H   0  0  0  0  0  0  0  0  0  0  0  0
   42.1740   31.9950   41.6320 C   0  0  0  0  0  3  0  0  0  0  0  0
   42.5140   32.3580   40.3430 C   0  0  0  0  0  0  0  0  0  0  0  0
   42.3980   31.2730   39.4630 C   0  0  0  0  0  0  0  0  0  0  0  0
   42.6470   31.4540   38.4070 H   0  0  0  0  0  0  0  0  0  0  0  0
   42.0020   30.0060   39.8010 C   0  0  0  0  0  0  0  0  0  0  0  0
   41.8530   28.8940   39.0600 N   0  0  0  0  0  0  0  0  0  0  0  0
   41.4400   27.9230   39.8950 C   0  0  0  0  0  0  0  0  0  0  0  0
   41.2500   26.9110   39.5070 H   0  0  0  0  0  0  0  0  0  0  0  0
   41.3410   28.4400   41.1290 N   0  0  0  0  0  0  0  0  0  0  0  0
   41.6830   29.7340   41.1080 C   0  0  0  0  0  0  0  0  0  0  0  0
   41.7680   30.7440   42.0440 C   0  0  0  0  0  3  0  0  0  0  0  0
   42.0290   28.8120   38.0240 H   0  0  0  0  0  0  0  0  0  0  0  0
   44.9080   33.9000   42.8770 C   0  0  0  0  0  0  0  0  0  0  0  0
   44.8120   34.0080   41.4970 C   0  0  0  0  0  0  0  0  0  0  0  0
   45.9080   33.6300   40.7540 C   0  0  0  0  0  0  0  0  0  0  0  0
   47.0140   33.1770   41.3830 N   0  0  0  0  0  0  0  0  0  0  0  0
   47.0840   33.0800   42.7230 C   0  0  0  0  0  0  0  0  0  0  0  0
   46.0350   33.4400   43.4520 N   0  0  0  0  0  0  0  0  0  0  0  0
   44.1540   34.1480   43.6040 H   0  0  0  0  0  0  0  0  0  0  0  0
   45.8880   33.7010   39.6870 H   0  0  0  0  0  0  0  0  0  0  0  0
   48.0360   32.6990   43.0800 H   0  0  0  0  0  0  0  0  0  0  0  0
  1  6  1  0  0  0  0
  1 28  1  0  0  0  0
  2  7  1  6  0  0  0
  2 16  1  0  0  0  0
  2  1  1  0  0  0  0
  3  2  1  0  0  0  0
  3  4  1  0  0  0  0
  4 10  1  0  0  0  0
  4  5  1  0  0  0  0
  5 12  1  0  0  0  0
  5 11  1  0  0  0  0
  6  5  1  0  0  0  0
  6 14  1  0  0  0  0
  8  3  1  0  0  0  0
  9  3  1  0  0  0  0
 13  6  1  0  0  0  0
 15 25  1  0  0  0  0
 16 15  2  0  0  0  0
 17 19  2  0  0  0  0
 17 16  1  0  0  0  0
 18 17  1  0  0  0  0
 19 24  1  0  0  0  0
 20 19  1  0  0  0  0
 20 21  1  0  0  0  0
 21 23  2  0  0  0  0
 22 21  1  0  0  0  0
 24 23  1  0  0  0  0
 24 25  2  0  0  0  0
 26 20  1  0  0  0  0
 27 32  1  0  0  0  0
 27 33  1  0  0  0  0
 28 27  2  0  0  0  0
 29 30  2  0  0  0  0
 29 28  1  0  0  0  0
 30 31  1  0  0  0  0
 31 35  1  0  0  0  0
 31 32  2  0  0  0  0
 34 29  1  0  0  0  0
M  END
>  <minimizedAffinity>
-3.40381527

>  <minimizedRMSD>
1.93283153

$$$$
