
 OpenBabel03242516143D

 44 48  0  0  0  0  0  0  0  0999 V2000
   48.0870   34.6090   41.6880 C   0  0  0  0  0  0  0  0  0  0  0  0
   48.9160   35.8690   41.4260 C   0  0  0  0  0  0  0  0  0  0  0  0
   49.4840   34.7200   42.0980 C   0  0  0  0  0  0  0  0  0  0  0  0
   48.5900   36.7870   41.9960 H   0  0  0  0  0  0  0  0  0  0  0  0
   49.1870   36.1270   40.3850 H   0  0  0  0  0  0  0  0  0  0  0  0
   49.8090   34.8700   43.1510 H   0  0  0  0  0  0  0  0  0  0  0  0
   50.2590   34.1370   41.5280 H   0  0  0  0  0  0  0  0  0  0  0  0
   47.7470   33.8620   40.4490 C   0  0  0  0  0  0  0  0  0  0  0  0
   48.2340   34.4950   39.1500 C   0  0  0  0  0  0  0  0  0  0  0  0
   47.9190   33.4340   38.0800 C   0  0  0  0  0  0  0  0  0  0  0  0
   46.5500   33.4560   37.8750 O   0  0  0  0  0  0  0  0  0  0  0  0
   46.0260   32.8360   39.0390 C   0  0  0  0  0  0  0  0  0  0  0  0
   46.2430   33.7430   40.2450 C   0  0  0  0  0  0  0  0  0  0  0  0
   48.1430   32.8250   40.4500 H   0  0  0  0  0  0  0  0  0  0  0  0
   47.7340   35.4210   38.8880 H   0  0  0  0  0  0  0  0  0  0  0  0
   49.3450   34.5320   39.1670 H   0  0  0  0  0  0  0  0  0  0  0  0
   48.3300   32.4560   38.3620 H   0  0  0  0  0  0  0  0  0  0  0  0
   48.3950   33.8100   37.1410 H   0  0  0  0  0  0  0  0  0  0  0  0
   46.6630   31.9270   39.1780 H   0  0  0  0  0  0  0  0  0  0  0  0
   44.9810   32.5380   38.9090 H   0  0  0  0  0  0  0  0  0  0  0  0
   45.8610   33.1510   41.1150 H   0  0  0  0  0  0  0  0  0  0  0  0
   45.7360   34.7020   40.1220 H   0  0  0  0  0  0  0  0  0  0  0  0
   46.2190   35.8890   42.7800 C   0  0  0  0  0  0  0  0  0  0  0  0
   47.0170   34.7430   42.7200 C   0  0  0  0  0  0  0  0  0  0  0  0
   46.7530   33.7460   43.6780 C   0  0  0  0  0  0  0  0  0  0  0  0
   45.7660   33.9460   44.5850 N   0  0  0  0  0  0  0  0  0  0  0  0
   45.0380   35.0680   44.5880 C   0  0  0  0  0  0  0  0  0  0  0  0
   45.2530   36.0270   43.7070 N   0  0  0  0  0  0  0  0  0  0  0  0
   44.0070   35.2890   45.5250 N   0  0  0  0  0  0  0  0  0  0  0  0
   46.4000   36.6740   42.0540 H   0  0  0  0  0  0  0  0  0  0  0  0
   43.0420   35.4030   45.1400 H   0  0  0  0  0  0  0  0  0  0  0  0
   44.2470   35.3270   46.5420 H   0  0  0  0  0  0  0  0  0  0  0  0
   47.1380   31.8000   44.9910 C   0  0  0  0  0  0  0  0  0  0  0  0
   47.4740   32.5040   43.8200 C   0  0  0  0  0  0  0  0  0  0  0  0
   48.4070   31.8350   43.0650 C   0  0  0  0  0  0  0  0  0  0  0  0
   48.6420   32.3800   42.1680 H   0  0  0  0  0  0  0  0  0  0  0  0
   48.9490   30.6380   43.3990 C   0  0  0  0  0  0  0  0  0  0  0  0
   49.8630   29.9220   42.7190 N   0  0  0  0  0  0  0  0  0  0  0  0
   50.0820   28.8140   43.4490 C   0  0  0  0  0  0  0  0  0  0  0  0
   50.7760   28.0390   43.1550 H   0  0  0  0  0  0  0  0  0  0  0  0
   49.3310   28.8400   44.5420 N   0  0  0  0  0  0  0  0  0  0  0  0
   48.6090   29.9740   44.5390 C   0  0  0  0  0  0  0  0  0  0  0  0
   47.6760   30.5800   45.3520 C   0  0  0  0  0  0  0  0  0  0  0  0
   50.3190   30.1690   41.8050 H   0  0  0  0  0  0  0  0  0  0  0  0
  1  3  1  0  0  0  0
  1 24  1  0  0  0  0
  2  1  1  0  0  0  0
  2  4  1  0  0  0  0
  2  3  1  0  0  0  0
  3  6  1  0  0  0  0
  5  2  1  0  0  0  0
  7  3  1  0  0  0  0
  8 14  1  0  0  0  0
  8  1  1  0  0  0  0
  9 16  1  0  0  0  0
  9  8  1  0  0  0  0
 10 17  1  0  0  0  0
 10  9  1  0  0  0  0
 11 10  1  0  0  0  0
 11 12  1  0  0  0  0
 12 19  1  0  0  0  0
 12 13  1  0  0  0  0
 13  8  1  0  0  0  0
 13 21  1  0  0  0  0
 15  9  1  0  0  0  0
 18 10  1  0  0  0  0
 20 12  1  0  0  0  0
 22 13  1  0  0  0  0
 23 28  1  0  0  0  0
 24 23  2  0  0  0  0
 24 25  1  0  0  0  0
 25 34  1  0  0  0  0
 25 26  2  0  0  0  0
 26 27  1  0  0  0  0
 27 29  1  0  0  0  0
 28 27  2  0  0  0  0
 29 32  1  0  0  0  0
 30 23  1  0  0  0  0
 31 29  1  0  0  0  0
 33 43  1  0  0  0  0
 34 33  2  0  0  0  0
 35 37  2  0  0  0  0
 35 34  1  0  0  0  0
 36 35  1  0  0  0  0
 37 42  1  0  0  0  0
 38 37  1  0  0  0  0
 38 39  1  0  0  0  0
 39 41  2  0  0  0  0
 40 39  1  0  0  0  0
 42 41  1  0  0  0  0
 42 43  2  0  0  0  0
 44 38  1  0  0  0  0
M  END
>  <minimizedAffinity>
-6.12493706

>  <minimizedRMSD>
0.743996739

$$$$
