
 OpenBabel03242515253D

 34 37  0  0  0  0  0  0  0  0999 V2000
   44.3320   35.4420   42.9560 C   0  0  0  0  0  0  0  0  0  0  0  0
   43.9040   34.8580   41.7610 C   0  0  0  0  0  0  0  0  0  0  0  0
   44.1390   33.5130   41.5930 C   0  0  0  0  0  0  0  0  0  0  0  0
   44.7580   32.8300   42.5680 N   0  0  0  0  0  0  0  0  0  0  0  0
   45.1610   33.4260   43.7190 C   0  0  0  0  0  0  0  0  0  0  0  0
   44.9540   34.7530   43.9360 N   0  0  0  0  0  0  0  0  0  0  0  0
   44.1800   36.5080   43.1610 H   0  0  0  0  0  0  0  0  0  0  0  0
   43.8010   33.0700   40.6590 H   0  0  0  0  0  0  0  0  0  0  0  0
   45.9460   31.2780   44.6030 C   0  0  0  0  0  0  0  0  0  0  0  0
   45.8400   32.6430   44.7700 C   0  0  0  0  0  0  0  0  0  0  0  0
   46.3520   33.2670   45.8880 C   0  0  0  0  0  0  0  0  0  0  0  0
   46.2380   34.3320   45.9590 H   0  0  0  0  0  0  0  0  0  0  0  0
   46.9840   32.4790   46.8500 C   0  0  0  0  0  0  0  0  0  0  0  0
   47.5330   32.9290   47.9890 N   0  0  0  0  0  0  0  0  0  0  0  0
   48.0270   31.8300   48.6130 C   0  0  0  0  0  0  0  0  0  0  0  0
   48.5490   31.7640   49.5630 H   0  0  0  0  0  0  0  0  0  0  0  0
   47.7650   30.7480   47.8380 N   0  0  0  0  0  0  0  0  0  0  0  0
   47.1100   31.1090   46.7190 C   0  0  0  0  0  0  0  0  0  0  0  0
   46.5800   30.5620   45.5890 C   0  0  0  0  0  0  0  0  0  0  0  0
   47.5860   33.9100   48.3490 H   0  0  0  0  0  0  0  0  0  0  0  0
   43.2450   35.7550   40.8090 C   0  0  0  0  0  0  0  0  0  0  0  0
   43.8330   35.7110   39.8620 H   0  0  0  0  0  0  0  0  0  0  0  0
   43.2760   36.7930   41.1320 H   0  0  0  0  0  0  0  0  0  0  0  0
   41.8900   35.2670   40.5640 N   0  0  0  0  0  0  0  0  0  0  0  0
   41.0520   35.0630   41.5830 C   0  0  0  0  0  0  0  0  0  0  0  0
   39.7790   34.6010   41.3000 C   0  0  0  0  0  0  0  0  0  0  0  0
   39.3890   34.3590   39.9980 C   0  0  0  0  0  0  0  0  0  0  0  0
   38.2290   33.9380   39.7630 O   0  0  0  0  0  0  0  0  0  0  0  0
   40.2700   34.5800   39.0090 N   0  0  0  0  0  0  0  0  0  0  0  0
   41.5160   35.0310   39.2740 C   0  0  0  0  0  0  0  0  0  0  0  0
   42.2860   35.2150   38.2880 O   0  0  0  0  0  0  0  0  0  0  0  0
   41.3330   35.2470   42.6210 H   0  0  0  0  0  0  0  0  0  0  0  0
   39.0550   34.4150   42.0680 H   0  0  0  0  0  0  0  0  0  0  0  0
   39.9620   34.3920   38.0240 H   0  0  0  0  0  0  0  0  0  0  0  0
  1  7  1  0  0  0  0
  1  6  1  0  0  0  0
  2  1  2  0  0  0  0
  3  2  1  0  0  0  0
  3  4  2  0  0  0  0
  4  5  1  0  0  0  0
  5  6  2  0  0  0  0
  5 10  1  0  0  0  0
  8  3  1  0  0  0  0
  9 10  2  0  0  0  0
  9 19  1  0  0  0  0
 10 11  1  0  0  0  0
 11 12  1  0  0  0  0
 11 13  2  0  0  0  0
 13 14  1  0  0  0  0
 14 20  1  0  0  0  0
 14 15  1  0  0  0  0
 15 16  1  0  0  0  0
 17 15  2  0  0  0  0
 18 13  1  0  0  0  0
 18 17  1  0  0  0  0
 19 18  2  0  0  0  0
 21 23  1  0  0  0  0
 21  2  1  0  0  0  0
 22 21  1  0  0  0  0
 24 21  1  0  0  0  0
 24 25  1  0  0  0  0
 25 32  1  0  0  0  0
 26 25  2  0  0  0  0
 26 33  1  0  0  0  0
 27 26  1  0  0  0  0
 28 27  2  0  0  0  0
 29 30  1  0  0  0  0
 29 27  1  0  0  0  0
 30 24  1  0  0  0  0
 31 30  2  0  0  0  0
 34 29  1  0  0  0  0
M  END
>  <minimizedAffinity>
-6.35140419

>  <minimizedRMSD>
2.55192733

$$$$
