
 OpenBabel03252507193D

 47 51  0  0  1  0  0  0  0  0999 V2000
   47.0050   33.3950   42.9930 C   0  0  0  0  0  0  0  0  0  0  0  0
   48.0670   33.0420   43.5740 O   0  0  0  0  0  0  0  0  0  0  0  0
   46.6110   32.9560   41.6820 N   0  0  0  0  0  0  0  0  0  0  0  0
   45.3300   32.4910   41.1820 C   0  0  0  0  0  0  0  0  0  0  0  0
   44.9740   33.2900   39.9130 C   0  0  0  0  0  0  0  0  0  0  0  0
   45.9930   33.0040   38.8360 C   0  0  0  0  0  0  0  0  0  0  0  0
   47.1810   32.2960   39.4290 C   0  0  0  0  0  0  0  0  0  0  0  0
   47.6600   32.9830   40.6850 C   0  0  2  0  0  0  0  0  0  0  0  0
   44.5350   32.8180   41.9130 H   0  0  0  0  0  0  0  0  0  0  0  0
   45.2660   31.4190   41.0070 H   0  0  0  0  0  0  0  0  0  0  0  0
   43.9520   32.9700   39.6200 H   0  0  0  0  0  0  0  0  0  0  0  0
   45.0130   34.3610   40.2250 H   0  0  0  0  0  0  0  0  0  0  0  0
   46.3890   33.9810   38.4480 H   0  0  0  0  0  0  0  0  0  0  0  0
   45.5980   32.3860   38.0080 H   0  0  0  0  0  0  0  0  0  0  0  0
   46.9090   31.2400   39.6320 H   0  0  0  0  0  0  0  0  0  0  0  0
   48.0390   32.3090   38.7290 H   0  0  0  0  0  0  0  0  0  0  0  0
   47.8190   34.0480   40.4250 H   0  0  0  0  0  0  0  0  0  0  0  0
   50.0850   33.1210   41.4740 C   0  0  0  0  0  0  0  0  0  0  0  0
   48.9450   32.4170   41.1500 C   0  0  0  0  0  0  0  0  0  0  0  0
   49.0840   31.0330   41.2960 C   0  0  0  0  0  0  0  0  0  0  0  0
   48.1940   30.4380   41.0470 H   0  0  0  0  0  0  0  0  0  0  0  0
   50.2190   30.3770   41.7180 C   0  0  0  0  0  0  0  0  0  0  0  0
   50.4690   29.0690   41.8960 N   0  0  0  0  0  0  0  0  0  0  0  0
   51.7410   28.9940   42.3220 C   0  0  0  0  0  0  0  0  0  0  0  0
   52.2310   28.0540   42.5510 H   0  0  0  0  0  0  0  0  0  0  0  0
   52.2690   30.2480   42.4040 N   0  0  0  0  0  0  0  0  0  0  0  0
   51.3230   31.1380   42.0270 C   0  0  0  0  0  0  0  0  0  0  0  0
   51.2420   32.5090   41.9000 C   0  0  0  0  0  0  0  0  0  0  0  0
   49.7670   28.2980   41.7210 H   0  0  0  0  0  0  0  0  0  0  0  0
   45.7490   35.4980   43.0500 C   0  0  0  0  0  0  0  0  0  0  0  0
   46.1270   34.3000   43.6980 C   0  0  0  0  0  0  0  0  0  0  0  0
   45.6520   34.0370   44.9690 C   0  0  0  0  0  0  0  0  0  0  0  0
   44.8370   34.9420   45.5490 N   0  0  0  0  0  0  0  0  0  0  0  0
   44.4670   36.0970   44.9360 C   0  0  0  0  0  0  0  0  0  0  0  0
   44.9320   36.3530   43.6950 N   0  0  0  0  0  0  0  0  0  0  0  0
   46.1040   35.7350   42.0550 H   0  0  0  0  0  0  0  0  0  0  0  0
   43.8160   36.8120   45.4090 H   0  0  0  0  0  0  0  0  0  0  0  0
   46.0560   32.8060   45.6170 C   0  0  0  0  0  0  0  0  0  0  0  0
   45.5850   31.6090   45.1610 C   0  0  0  0  0  0  0  0  0  0  0  0
   45.9790   30.4460   45.7890 C   0  0  0  0  0  0  0  0  0  0  0  0
   46.8420   30.4350   46.8770 C   0  0  0  0  0  0  0  0  0  0  0  0
   47.2880   31.6850   47.2980 C   0  0  0  0  0  0  0  0  0  0  0  0
   46.8850   32.7980   46.6630 N   0  0  0  0  0  0  0  0  0  0  0  0
   44.9120   31.4540   44.3360 H   0  0  0  0  0  0  0  0  0  0  0  0
   45.6410   29.4690   45.4730 H   0  0  0  0  0  0  0  0  0  0  0  0
   47.1750   29.5540   47.3980 H   0  0  0  0  0  0  0  0  0  0  0  0
   47.9700   31.8220   48.1420 H   0  0  0  0  0  0  0  0  0  0  0  0
  1  2  2  0  0  0  0
  1 31  1  0  0  0  0
  3  1  1  0  0  0  0
  4  3  1  0  0  0  0
  4  9  1  0  0  0  0
  5 12  1  0  0  0  0
  5  4  1  0  0  0  0
  6  7  1  0  0  0  0
  6  5  1  0  0  0  0
  7 15  1  0  0  0  0
  7  8  1  0  0  0  0
  8 17  1  6  0  0  0
  8 19  1  0  0  0  0
  8  3  1  0  0  0  0
 10  4  1  0  0  0  0
 11  5  1  0  0  0  0
 13  6  1  0  0  0  0
 14  6  1  0  0  0  0
 16  7  1  0  0  0  0
 18 28  1  0  0  0  0
 19 20  1  0  0  0  0
 19 18  2  0  0  0  0
 20 22  2  0  0  0  0
 21 20  1  0  0  0  0
 22 23  1  0  0  0  0
 22 27  1  0  0  0  0
 23 24  1  0  0  0  0
 24 26  2  0  0  0  0
 24 25  1  0  0  0  0
 27 26  1  0  0  0  0
 28 27  2  0  0  0  0
 29 23  1  0  0  0  0
 30 35  2  0  0  0  0
 30 31  1  0  0  0  0
 31 32  2  0  0  0  0
 32 33  1  0  0  0  0
 32 38  1  0  0  0  0
 34 37  1  0  0  0  0
 34 33  2  0  0  0  0
 35 34  1  0  0  0  0
 36 30  1  0  0  0  0
 38 43  1  0  0  0  0
 39 38  2  0  0  0  0
 39 40  1  0  0  0  0
 40 41  2  0  0  0  0
 41 42  1  0  0  0  0
 41 46  1  0  0  0  0
 42 47  1  0  0  0  0
 43 42  2  0  0  0  0
 44 39  1  0  0  0  0
 45 40  1  0  0  0  0
M  END
>  <minimizedAffinity>
-5.62070179

>  <minimizedRMSD>
1.3030293

$$$$
