
 OpenBabel03252506573D

 41 46  0  0  0  0  0  0  0  0999 V2000
   47.3900   31.4290   45.2020 C   0  0  0  0  0  0  0  0  0  0  0  0
   46.8930   32.7270   45.1500 C   0  0  0  0  0  0  0  0  0  0  0  0
   46.1880   33.2940   46.1850 C   0  0  0  0  0  0  0  0  0  0  0  0
   45.9380   32.5760   47.3480 C   0  0  0  0  0  0  0  0  0  0  0  0
   45.2970   32.8060   48.5340 N   0  0  0  0  0  0  0  0  0  0  0  0
   45.3950   31.6830   49.2920 C   0  0  0  0  0  0  0  0  0  0  0  0
   46.0890   30.7810   48.5710 N   0  0  0  0  0  0  0  0  0  0  0  0
   46.4320   31.2950   47.3850 C   0  0  0  0  0  0  0  0  0  0  0  0
   47.1360   30.7030   46.3780 C   0  0  0  0  0  0  0  0  0  0  0  0
   47.9460   30.9750   44.3920 H   0  0  0  0  0  0  0  0  0  0  0  0
   45.8000   34.3040   46.1490 H   0  0  0  0  0  0  0  0  0  0  0  0
   44.8360   33.7280   48.7310 H   0  0  0  0  0  0  0  0  0  0  0  0
   44.9690   31.6010   50.2850 H   0  0  0  0  0  0  0  0  0  0  0  0
   46.4460   35.1850   42.4560 C   0  0  0  0  0  0  0  0  0  0  0  0
   47.6090   35.0070   41.6900 C   0  0  0  0  0  0  0  0  0  0  0  0
   48.5280   34.0500   42.1020 C   0  0  0  0  0  0  0  0  0  0  0  0
   48.2660   33.3200   43.2380 N   0  0  0  0  0  0  0  0  0  0  0  0
   47.1290   33.5270   43.9500 C   0  0  0  0  0  0  0  0  0  0  0  0
   46.2230   34.4450   43.5740 N   0  0  0  0  0  0  0  0  0  0  0  0
   45.7180   35.9240   42.1530 H   0  0  0  0  0  0  0  0  0  0  0  0
   47.7730   35.6000   40.8070 H   0  0  0  0  0  0  0  0  0  0  0  0
   49.4220   33.9010   41.5280 H   0  0  0  0  0  0  0  0  0  0  0  0
   47.6310   29.3160   46.5090 C   0  0  0  0  0  0  0  0  0  0  0  0
   48.9630   28.9840   46.7340 C   0  0  0  0  0  0  0  0  0  0  0  0
   48.9360   27.5830   46.7820 C   0  0  0  0  0  0  0  0  0  0  0  0
   47.6300   27.1590   46.5880 C   0  0  0  0  0  0  0  0  0  0  0  0
   46.8940   28.2470   46.4290 O   0  0  0  0  0  0  0  0  0  0  0  0
   49.7530   29.7140   46.8340 H   0  0  0  0  0  0  0  0  0  0  0  0
   49.8420   27.0080   46.9480 H   0  0  0  0  0  0  0  0  0  0  0  0
   48.1370   24.7320   46.7630 C   0  0  0  0  0  3  0  0  0  0  0  0
   47.2310   25.7560   46.5750 C   0  0  0  0  0  0  0  0  0  0  0  0
   45.8900   25.4290   46.3660 C   0  0  0  0  0  0  0  0  0  0  0  0
   45.1220   26.1880   46.2110 H   0  0  0  0  0  0  0  0  0  0  0  0
   45.5500   24.0900   46.3610 C   0  0  0  0  0  0  0  0  0  0  0  0
   44.3770   23.4160   46.1930 N   0  0  0  0  0  0  0  0  0  0  0  0
   44.5680   22.0860   46.2750 C   0  0  0  0  0  0  0  0  0  0  0  0
   43.7260   21.4220   46.1610 H   0  0  0  0  0  0  0  0  0  0  0  0
   45.8870   21.8800   46.5010 N   0  0  0  0  0  0  0  0  0  0  0  0
   46.4780   23.0770   46.5530 C   0  0  0  0  0  0  0  0  0  0  0  0
   47.7980   23.4120   46.7580 C   0  0  0  0  0  3  0  0  0  0  0  0
   43.4870   23.9420   46.0260 H   0  0  0  0  0  0  0  0  0  0  0  0
  1  9  1  0  0  0  0
  2  1  2  0  0  0  0
  2  3  1  0  0  0  0
  3  4  2  0  0  0  0
  4  8  1  0  0  0  0
  4  5  1  0  0  0  0
  5 12  1  0  0  0  0
  5  6  1  0  0  0  0
  6 13  1  0  0  0  0
  7  6  2  0  0  0  0
  8  7  1  0  0  0  0
  9 23  1  0  0  0  0
  9  8  2  0  0  0  0
 10  1  1  0  0  0  0
 11  3  1  0  0  0  0
 14 19  1  0  0  0  0
 15 16  1  0  0  0  0
 15 14  2  0  0  0  0
 16 17  2  0  0  0  0
 17 18  1  0  0  0  0
 18  2  1  0  0  0  0
 19 18  2  0  0  0  0
 20 14  1  0  0  0  0
 21 15  1  0  0  0  0
 22 16  1  0  0  0  0
 23 24  2  0  0  0  0
 24 25  1  0  0  0  0
 24 28  1  0  0  0  0
 25 29  1  0  0  0  0
 26 25  2  0  0  0  0
 27 23  1  0  0  0  0
 27 26  1  0  0  0  0
 31 26  1  0  0  0  0
 31 30  2  0  0  0  0
 32 31  1  0  0  0  0
 33 32  1  0  0  0  0
 34 32  2  0  0  0  0
 34 39  1  0  0  0  0
 35 36  1  0  0  0  0
 35 34  1  0  0  0  0
 36 38  2  0  0  0  0
 37 36  1  0  0  0  0
 38 39  1  0  0  0  0
 39 40  2  0  0  0  0
 40 30  1  0  0  0  0
 41 35  1  0  0  0  0
M  END
>  <minimizedAffinity>
-5.62579107

>  <minimizedRMSD>
0.457148492

$$$$
