
 OpenBabel03242522503D

 29 31  0  0  0  0  0  0  0  0999 V2000
   47.4660   32.2940   48.2540 O   0  0  0  0  0  0  0  0  0  0  0  0
   45.4320   30.8250   47.5740 O   0  0  0  0  0  0  0  0  0  0  0  0
   45.8250   32.1170   48.3380 P   0  0  1  0  0  0  0  0  0  0  0  0
   45.2740   31.8750   49.9100 O   0  0  0  0  0  0  0  0  0  0  0  0
   45.6720   32.5740   50.4980 H   0  0  0  0  0  0  0  0  0  0  0  0
   45.0020   33.4050   47.6240 O   0  0  0  0  0  0  0  0  0  0  0  0
   46.6660   33.5440   44.3950 C   0  0  0  0  0  0  0  0  0  0  0  0
   46.3110   33.1390   45.6950 C   0  0  0  0  0  0  0  0  0  0  0  0
   45.3220   33.8300   46.3520 C   0  0  0  0  0  0  0  0  0  0  0  0
   44.7360   34.8720   45.7100 N   0  0  0  0  0  0  0  0  0  0  0  0
   45.0850   35.2460   44.4740 C   0  0  0  0  0  0  0  0  0  0  0  0
   46.0450   34.5910   43.8120 N   0  0  0  0  0  0  0  0  0  0  0  0
   47.4300   33.0690   43.7950 H   0  0  0  0  0  0  0  0  0  0  0  0
   46.8860   32.3060   46.0030 H   0  0  0  0  0  0  0  0  0  0  0  0
   44.5210   36.1030   44.0950 H   0  0  0  0  0  0  0  0  0  0  0  0
   48.5030   31.5160   48.6100 C   0  0  0  0  0  0  0  0  0  0  0  0
   49.4080   32.1740   49.3170 O   0  0  0  0  0  0  0  0  0  0  0  0
   50.3380   29.9180   48.9860 C   0  0  0  0  0  3  0  0  0  0  0  0
   49.0780   30.1330   48.5190 C   0  0  0  0  0  0  0  0  0  0  0  0
   48.4160   29.0480   47.9710 C   0  0  0  0  0  0  0  0  0  0  0  0
   47.4150   29.2850   47.6160 H   0  0  0  0  0  0  0  0  0  0  0  0
   48.8740   27.7660   47.8350 C   0  0  0  0  0  0  0  0  0  0  0  0
   48.3520   26.6410   47.3350 N   0  0  0  0  0  0  0  0  0  0  0  0
   49.3530   25.7330   47.5190 C   0  0  0  0  0  0  0  0  0  0  0  0
   49.3000   24.6760   47.2300 H   0  0  0  0  0  0  0  0  0  0  0  0
   50.4290   26.2950   48.1070 N   0  0  0  0  0  0  0  0  0  0  0  0
   50.1480   27.6110   48.3240 C   0  0  0  0  0  0  0  0  0  0  0  0
   50.8740   28.6280   48.8820 C   0  0  0  0  0  3  0  0  0  0  0  0
   47.4130   26.4940   46.9090 H   0  0  0  0  0  0  0  0  0  0  0  0
  1  3  1  0  0  0  0
  1 16  1  0  0  0  0
  3  2  2  6  0  0  0
  3  4  1  0  0  0  0
  4  5  1  0  0  0  0
  6  3  1  0  0  0  0
  7  8  1  0  0  0  0
  8 14  1  0  0  0  0
  8  9  2  0  0  0  0
  9  6  1  0  0  0  0
 10  9  1  0  0  0  0
 11 10  2  0  0  0  0
 12  7  2  0  0  0  0
 12 11  1  0  0  0  0
 13  7  1  0  0  0  0
 15 11  1  0  0  0  0
 16 17  2  0  0  0  0
 19 16  1  0  0  0  0
 19 18  2  0  0  0  0
 20 19  1  0  0  0  0
 21 20  1  0  0  0  0
 22 20  2  0  0  0  0
 22 27  1  0  0  0  0
 23 24  1  0  0  0  0
 23 22  1  0  0  0  0
 24 26  2  0  0  0  0
 25 24  1  0  0  0  0
 26 27  1  0  0  0  0
 27 28  2  0  0  0  0
 28 18  1  0  0  0  0
 29 23  1  0  0  0  0
M  END
>  <minimizedAffinity>
-4.80846739

>  <minimizedRMSD>
0.884610116

$$$$
