
 OpenBabel03242522503D

 29 31  0  0  0  0  0  0  0  0999 V2000
   47.4660   32.2940   48.2510 O   0  0  0  0  0  0  0  0  0  0  0  0
   45.4310   30.8250   47.5750 O   0  0  0  0  0  0  0  0  0  0  0  0
   45.8250   32.1170   48.3370 P   0  0  1  0  0  0  0  0  0  0  0  0
   45.2760   31.8770   49.9110 O   0  0  0  0  0  0  0  0  0  0  0  0
   45.6740   32.5760   50.4970 H   0  0  0  0  0  0  0  0  0  0  0  0
   45.0020   33.4040   47.6230 O   0  0  0  0  0  0  0  0  0  0  0  0
   46.6660   33.5440   44.3940 C   0  0  0  0  0  0  0  0  0  0  0  0
   46.3100   33.1390   45.6940 C   0  0  0  0  0  0  0  0  0  0  0  0
   45.3220   33.8300   46.3520 C   0  0  0  0  0  0  0  0  0  0  0  0
   44.7360   34.8720   45.7090 N   0  0  0  0  0  0  0  0  0  0  0  0
   45.0860   35.2460   44.4740 C   0  0  0  0  0  0  0  0  0  0  0  0
   46.0460   34.5910   43.8110 N   0  0  0  0  0  0  0  0  0  0  0  0
   47.4300   33.0690   43.7940 H   0  0  0  0  0  0  0  0  0  0  0  0
   46.8850   32.3060   46.0030 H   0  0  0  0  0  0  0  0  0  0  0  0
   44.5220   36.1040   44.0950 H   0  0  0  0  0  0  0  0  0  0  0  0
   48.5030   31.5170   48.6090 C   0  0  0  0  0  0  0  0  0  0  0  0
   49.4070   32.1760   49.3170 O   0  0  0  0  0  0  0  0  0  0  0  0
   50.3390   29.9200   48.9870 C   0  0  0  0  0  3  0  0  0  0  0  0
   49.0780   30.1340   48.5200 C   0  0  0  0  0  0  0  0  0  0  0  0
   48.4180   29.0480   47.9710 C   0  0  0  0  0  0  0  0  0  0  0  0
   47.4160   29.2840   47.6170 H   0  0  0  0  0  0  0  0  0  0  0  0
   48.8770   27.7660   47.8380 C   0  0  0  0  0  0  0  0  0  0  0  0
   48.3550   26.6400   47.3370 N   0  0  0  0  0  0  0  0  0  0  0  0
   49.3570   25.7330   47.5230 C   0  0  0  0  0  0  0  0  0  0  0  0
   49.3050   24.6750   47.2340 H   0  0  0  0  0  0  0  0  0  0  0  0
   50.4330   26.2960   48.1120 N   0  0  0  0  0  0  0  0  0  0  0  0
   50.1510   27.6120   48.3270 C   0  0  0  0  0  0  0  0  0  0  0  0
   50.8760   28.6300   48.8850 C   0  0  0  0  0  3  0  0  0  0  0  0
   47.4170   26.4920   46.9120 H   0  0  0  0  0  0  0  0  0  0  0  0
  1  3  1  0  0  0  0
  1 16  1  0  0  0  0
  3  2  2  6  0  0  0
  3  4  1  0  0  0  0
  4  5  1  0  0  0  0
  6  3  1  0  0  0  0
  7  8  1  0  0  0  0
  8 14  1  0  0  0  0
  8  9  2  0  0  0  0
  9  6  1  0  0  0  0
 10  9  1  0  0  0  0
 11 10  2  0  0  0  0
 12  7  2  0  0  0  0
 12 11  1  0  0  0  0
 13  7  1  0  0  0  0
 15 11  1  0  0  0  0
 16 17  2  0  0  0  0
 19 16  1  0  0  0  0
 19 18  2  0  0  0  0
 20 19  1  0  0  0  0
 21 20  1  0  0  0  0
 22 20  2  0  0  0  0
 22 27  1  0  0  0  0
 23 24  1  0  0  0  0
 23 22  1  0  0  0  0
 24 26  2  0  0  0  0
 25 24  1  0  0  0  0
 26 27  1  0  0  0  0
 27 28  2  0  0  0  0
 28 18  1  0  0  0  0
 29 23  1  0  0  0  0
M  END
>  <minimizedAffinity>
-4.8053441

>  <minimizedRMSD>
0.199793085

$$$$
