
 OpenBabel03242522503D

 29 31  0  0  0  0  0  0  0  0999 V2000
   47.6390   32.3140   48.2620 O   0  0  0  0  0  0  0  0  0  0  0  0
   45.7040   30.6670   47.7180 O   0  0  0  0  0  0  0  0  0  0  0  0
   46.0100   32.0500   48.3500 P   0  0  1  0  0  0  0  0  0  0  0  0
   45.4510   31.9370   49.9340 O   0  0  0  0  0  0  0  0  0  0  0  0
   45.7990   32.7140   50.4510 H   0  0  0  0  0  0  0  0  0  0  0  0
   45.1260   33.2080   47.5010 O   0  0  0  0  0  0  0  0  0  0  0  0
   46.9610   33.2900   44.3650 C   0  0  0  0  0  0  0  0  0  0  0  0
   46.5370   32.9090   45.6510 C   0  0  0  0  0  0  0  0  0  0  0  0
   45.5120   33.6090   46.2400 C   0  0  0  0  0  0  0  0  0  0  0  0
   44.9590   34.6360   45.5460 N   0  0  0  0  0  0  0  0  0  0  0  0
   45.3730   34.9860   44.3240 C   0  0  0  0  0  0  0  0  0  0  0  0
   46.3700   34.3220   43.7280 N   0  0  0  0  0  0  0  0  0  0  0  0
   47.7580   32.8060   43.8160 H   0  0  0  0  0  0  0  0  0  0  0  0
   47.0970   32.0850   46.0070 H   0  0  0  0  0  0  0  0  0  0  0  0
   44.8280   35.8340   43.8970 H   0  0  0  0  0  0  0  0  0  0  0  0
   48.7130   31.6490   48.7230 C   0  0  0  0  0  0  0  0  0  0  0  0
   49.5450   32.4330   49.3900 O   0  0  0  0  0  0  0  0  0  0  0  0
   50.7280   30.2590   48.9900 C   0  0  0  0  0  3  0  0  0  0  0  0
   49.3840   30.3080   48.7830 C   0  0  0  0  0  0  0  0  0  0  0  0
   48.7270   29.1000   48.6250 C   0  0  0  0  0  0  0  0  0  0  0  0
   47.6560   29.2070   48.4630 H   0  0  0  0  0  0  0  0  0  0  0  0
   49.2650   27.8410   48.6480 C   0  0  0  0  0  0  0  0  0  0  0  0
   48.7580   26.6120   48.5120 N   0  0  0  0  0  0  0  0  0  0  0  0
   49.8560   25.8140   48.6450 C   0  0  0  0  0  0  0  0  0  0  0  0
   49.8440   24.7180   48.5910 H   0  0  0  0  0  0  0  0  0  0  0  0
   50.9750   26.5400   48.8530 N   0  0  0  0  0  0  0  0  0  0  0  0
   50.6220   27.8570   48.8600 C   0  0  0  0  0  0  0  0  0  0  0  0
   51.3500   29.0030   49.0260 C   0  0  0  0  0  3  0  0  0  0  0  0
   47.7690   26.3320   48.3460 H   0  0  0  0  0  0  0  0  0  0  0  0
  1  3  1  0  0  0  0
  1 16  1  0  0  0  0
  3  2  2  6  0  0  0
  3  4  1  0  0  0  0
  4  5  1  0  0  0  0
  6  3  1  0  0  0  0
  7  8  1  0  0  0  0
  8 14  1  0  0  0  0
  8  9  2  0  0  0  0
  9  6  1  0  0  0  0
 10  9  1  0  0  0  0
 11 10  2  0  0  0  0
 12 11  1  0  0  0  0
 12  7  2  0  0  0  0
 13  7  1  0  0  0  0
 15 11  1  0  0  0  0
 16 19  1  0  0  0  0
 16 17  2  0  0  0  0
 18 28  1  0  0  0  0
 19 18  2  0  0  0  0
 20 22  2  0  0  0  0
 20 19  1  0  0  0  0
 21 20  1  0  0  0  0
 22 27  1  0  0  0  0
 23 24  1  0  0  0  0
 23 22  1  0  0  0  0
 24 26  2  0  0  0  0
 25 24  1  0  0  0  0
 26 27  1  0  0  0  0
 27 28  2  0  0  0  0
 29 23  1  0  0  0  0
M  END
>  <minimizedAffinity>
-4.69700241

>  <minimizedRMSD>
0.64008528

$$$$
