
 OpenBabel03242522493D

 29 31  0  0  0  0  0  0  0  0999 V2000
   47.6160   32.2730   48.3210 O   0  0  0  0  0  0  0  0  0  0  0  0
   45.6850   30.6410   47.7170 O   0  0  0  0  0  0  0  0  0  0  0  0
   45.9850   32.0130   48.3760 P   0  0  1  0  0  0  0  0  0  0  0  0
   45.3990   31.8760   49.9480 O   0  0  0  0  0  0  0  0  0  0  0  0
   45.7400   32.6430   50.4830 H   0  0  0  0  0  0  0  0  0  0  0  0
   45.1180   33.1870   47.5310 O   0  0  0  0  0  0  0  0  0  0  0  0
   46.9690   33.2650   44.4040 C   0  0  0  0  0  0  0  0  0  0  0  0
   46.5390   32.8860   45.6890 C   0  0  0  0  0  0  0  0  0  0  0  0
   45.5110   33.5870   46.2720 C   0  0  0  0  0  0  0  0  0  0  0  0
   44.9600   34.6120   45.5740 N   0  0  0  0  0  0  0  0  0  0  0  0
   45.3810   34.9610   44.3530 C   0  0  0  0  0  0  0  0  0  0  0  0
   46.3810   34.2960   43.7630 N   0  0  0  0  0  0  0  0  0  0  0  0
   47.7680   32.7810   43.8600 H   0  0  0  0  0  0  0  0  0  0  0  0
   47.0970   32.0630   46.0490 H   0  0  0  0  0  0  0  0  0  0  0  0
   44.8380   35.8080   43.9220 H   0  0  0  0  0  0  0  0  0  0  0  0
   48.6690   31.6900   48.9190 C   0  0  0  0  0  0  0  0  0  0  0  0
   49.5580   32.5730   49.3490 O   0  0  0  0  0  0  0  0  0  0  0  0
   49.2040   29.3360   48.4340 C   0  0  0  0  0  3  0  0  0  0  0  0
   49.2760   30.3750   49.3110 C   0  0  0  0  0  0  0  0  0  0  0  0
   49.8960   30.1330   50.5240 C   0  0  0  0  0  0  0  0  0  0  0  0
   49.9200   31.0020   51.1790 H   0  0  0  0  0  0  0  0  0  0  0  0
   50.4550   28.9640   50.9630 C   0  0  0  0  0  0  0  0  0  0  0  0
   51.0760   28.5970   52.0900 N   0  0  0  0  0  0  0  0  0  0  0  0
   51.3790   27.2880   51.8570 C   0  0  0  0  0  0  0  0  0  0  0  0
   51.9000   26.6300   52.5630 H   0  0  0  0  0  0  0  0  0  0  0  0
   50.9550   26.8900   50.6390 N   0  0  0  0  0  0  0  0  0  0  0  0
   50.3540   27.9560   50.0380 C   0  0  0  0  0  0  0  0  0  0  0  0
   49.7580   28.1060   48.8150 C   0  0  0  0  0  3  0  0  0  0  0  0
   51.2790   29.1690   52.9360 H   0  0  0  0  0  0  0  0  0  0  0  0
  1  3  1  0  0  0  0
  1 16  1  0  0  0  0
  3  2  2  6  0  0  0
  3  4  1  0  0  0  0
  4  5  1  0  0  0  0
  6  3  1  0  0  0  0
  7  8  1  0  0  0  0
  8 14  1  0  0  0  0
  8  9  2  0  0  0  0
  9  6  1  0  0  0  0
 10  9  1  0  0  0  0
 11 10  2  0  0  0  0
 12 11  1  0  0  0  0
 12  7  2  0  0  0  0
 13  7  1  0  0  0  0
 15 11  1  0  0  0  0
 16 19  1  0  0  0  0
 16 17  2  0  0  0  0
 18 28  2  0  0  0  0
 18 19  1  0  0  0  0
 19 20  2  0  0  0  0
 20 22  1  0  0  0  0
 20 21  1  0  0  0  0
 22 23  1  0  0  0  0
 23 29  1  0  0  0  0
 24 23  1  0  0  0  0
 24 25  1  0  0  0  0
 26 24  2  0  0  0  0
 27 26  1  0  0  0  0
 27 22  2  0  0  0  0
 28 27  1  0  0  0  0
M  END
>  <minimizedAffinity>
-5.57338858

>  <minimizedRMSD>
1.22696233

$$$$
