
 OpenBabel03242522503D

 29 31  0  0  0  0  0  0  0  0999 V2000
   47.4660   32.2940   48.2510 O   0  0  0  0  0  0  0  0  0  0  0  0
   45.4310   30.8250   47.5740 O   0  0  0  0  0  0  0  0  0  0  0  0
   45.8260   32.1170   48.3370 P   0  0  1  0  0  0  0  0  0  0  0  0
   45.2760   31.8760   49.9100 O   0  0  0  0  0  0  0  0  0  0  0  0
   45.6750   32.5750   50.4970 H   0  0  0  0  0  0  0  0  0  0  0  0
   45.0030   33.4050   47.6230 O   0  0  0  0  0  0  0  0  0  0  0  0
   46.6660   33.5450   44.3940 C   0  0  0  0  0  0  0  0  0  0  0  0
   46.3110   33.1400   45.6940 C   0  0  0  0  0  0  0  0  0  0  0  0
   45.3220   33.8300   46.3520 C   0  0  0  0  0  0  0  0  0  0  0  0
   44.7360   34.8720   45.7100 N   0  0  0  0  0  0  0  0  0  0  0  0
   45.0850   35.2470   44.4740 C   0  0  0  0  0  0  0  0  0  0  0  0
   46.0450   34.5920   43.8110 N   0  0  0  0  0  0  0  0  0  0  0  0
   47.4300   33.0700   43.7940 H   0  0  0  0  0  0  0  0  0  0  0  0
   46.8860   32.3070   46.0020 H   0  0  0  0  0  0  0  0  0  0  0  0
   44.5210   36.1040   44.0950 H   0  0  0  0  0  0  0  0  0  0  0  0
   48.5030   31.5170   48.6090 C   0  0  0  0  0  0  0  0  0  0  0  0
   49.4080   32.1760   49.3160 O   0  0  0  0  0  0  0  0  0  0  0  0
   50.3370   29.9200   48.9900 C   0  0  0  0  0  3  0  0  0  0  0  0
   49.0790   30.1340   48.5210 C   0  0  0  0  0  0  0  0  0  0  0  0
   48.4190   29.0480   47.9710 C   0  0  0  0  0  0  0  0  0  0  0  0
   47.4180   29.2850   47.6150 H   0  0  0  0  0  0  0  0  0  0  0  0
   48.8790   27.7660   47.8390 C   0  0  0  0  0  0  0  0  0  0  0  0
   48.3580   26.6410   47.3370 N   0  0  0  0  0  0  0  0  0  0  0  0
   49.3580   25.7330   47.5240 C   0  0  0  0  0  0  0  0  0  0  0  0
   49.3060   24.6760   47.2360 H   0  0  0  0  0  0  0  0  0  0  0  0
   50.4340   26.2960   48.1150 N   0  0  0  0  0  0  0  0  0  0  0  0
   50.1500   27.6120   48.3290 C   0  0  0  0  0  0  0  0  0  0  0  0
   50.8750   28.6300   48.8880 C   0  0  0  0  0  3  0  0  0  0  0  0
   47.4200   26.4930   46.9090 H   0  0  0  0  0  0  0  0  0  0  0  0
  1  3  1  0  0  0  0
  1 16  1  0  0  0  0
  3  2  2  6  0  0  0
  3  4  1  0  0  0  0
  4  5  1  0  0  0  0
  6  3  1  0  0  0  0
  7  8  1  0  0  0  0
  8 14  1  0  0  0  0
  8  9  2  0  0  0  0
  9  6  1  0  0  0  0
 10  9  1  0  0  0  0
 11 10  2  0  0  0  0
 12  7  2  0  0  0  0
 12 11  1  0  0  0  0
 13  7  1  0  0  0  0
 15 11  1  0  0  0  0
 16 17  2  0  0  0  0
 19 16  1  0  0  0  0
 19 18  2  0  0  0  0
 20 19  1  0  0  0  0
 21 20  1  0  0  0  0
 22 20  2  0  0  0  0
 22 27  1  0  0  0  0
 23 24  1  0  0  0  0
 23 22  1  0  0  0  0
 24 26  2  0  0  0  0
 25 24  1  0  0  0  0
 26 27  1  0  0  0  0
 27 28  2  0  0  0  0
 28 18  1  0  0  0  0
 29 23  1  0  0  0  0
M  END
>  <minimizedAffinity>
-4.80532742

>  <minimizedRMSD>
0.216636941

$$$$
