
 OpenBabel03242522493D

 29 31  0  0  0  0  0  0  0  0999 V2000
   47.4650   32.2930   48.2480 O   0  0  0  0  0  0  0  0  0  0  0  0
   45.4290   30.8240   47.5770 O   0  0  0  0  0  0  0  0  0  0  0  0
   45.8250   32.1170   48.3370 P   0  0  1  0  0  0  0  0  0  0  0  0
   45.2780   31.8780   49.9110 O   0  0  0  0  0  0  0  0  0  0  0  0
   45.6770   32.5780   50.4960 H   0  0  0  0  0  0  0  0  0  0  0  0
   45.0010   33.4040   47.6220 O   0  0  0  0  0  0  0  0  0  0  0  0
   46.6660   33.5440   44.3940 C   0  0  0  0  0  0  0  0  0  0  0  0
   46.3100   33.1380   45.6940 C   0  0  0  0  0  0  0  0  0  0  0  0
   45.3220   33.8290   46.3510 C   0  0  0  0  0  0  0  0  0  0  0  0
   44.7360   34.8720   45.7090 N   0  0  0  0  0  0  0  0  0  0  0  0
   45.0860   35.2470   44.4740 C   0  0  0  0  0  0  0  0  0  0  0  0
   46.0460   34.5910   43.8110 N   0  0  0  0  0  0  0  0  0  0  0  0
   47.4300   33.0680   43.7940 H   0  0  0  0  0  0  0  0  0  0  0  0
   46.8840   32.3050   46.0020 H   0  0  0  0  0  0  0  0  0  0  0  0
   44.5230   36.1040   44.0950 H   0  0  0  0  0  0  0  0  0  0  0  0
   48.5030   31.5160   48.6080 C   0  0  0  0  0  0  0  0  0  0  0  0
   49.4050   32.1770   49.3160 O   0  0  0  0  0  0  0  0  0  0  0  0
   50.3400   29.9210   48.9900 C   0  0  0  0  0  3  0  0  0  0  0  0
   49.0800   30.1340   48.5200 C   0  0  0  0  0  0  0  0  0  0  0  0
   48.4210   29.0480   47.9720 C   0  0  0  0  0  0  0  0  0  0  0  0
   47.4200   29.2820   47.6150 H   0  0  0  0  0  0  0  0  0  0  0  0
   48.8810   27.7650   47.8390 C   0  0  0  0  0  0  0  0  0  0  0  0
   48.3620   26.6390   47.3390 N   0  0  0  0  0  0  0  0  0  0  0  0
   49.3640   25.7330   47.5260 C   0  0  0  0  0  0  0  0  0  0  0  0
   49.3130   24.6750   47.2390 H   0  0  0  0  0  0  0  0  0  0  0  0
   50.4380   26.2970   48.1160 N   0  0  0  0  0  0  0  0  0  0  0  0
   50.1530   27.6130   48.3300 C   0  0  0  0  0  0  0  0  0  0  0  0
   50.8770   28.6320   48.8880 C   0  0  0  0  0  3  0  0  0  0  0  0
   47.4230   26.4900   46.9120 H   0  0  0  0  0  0  0  0  0  0  0  0
  1  3  1  0  0  0  0
  1 16  1  0  0  0  0
  3  2  2  6  0  0  0
  3  4  1  0  0  0  0
  4  5  1  0  0  0  0
  6  3  1  0  0  0  0
  7  8  1  0  0  0  0
  8 14  1  0  0  0  0
  8  9  2  0  0  0  0
  9  6  1  0  0  0  0
 10  9  1  0  0  0  0
 11 10  2  0  0  0  0
 12  7  2  0  0  0  0
 12 11  1  0  0  0  0
 13  7  1  0  0  0  0
 15 11  1  0  0  0  0
 16 17  2  0  0  0  0
 19 16  1  0  0  0  0
 19 18  2  0  0  0  0
 20 19  1  0  0  0  0
 21 20  1  0  0  0  0
 22 20  2  0  0  0  0
 22 27  1  0  0  0  0
 23 24  1  0  0  0  0
 23 22  1  0  0  0  0
 24 26  2  0  0  0  0
 25 24  1  0  0  0  0
 26 27  1  0  0  0  0
 27 28  2  0  0  0  0
 28 18  1  0  0  0  0
 29 23  1  0  0  0  0
M  END
>  <minimizedAffinity>
-4.80507469

>  <minimizedRMSD>
0.342828393

$$$$
