
 OpenBabel03242522503D

 29 31  0  0  0  0  0  0  0  0999 V2000
   47.4280   31.8650   48.6520 O   0  0  0  0  0  0  0  0  0  0  0  0
   45.3440   30.5270   47.8610 O   0  0  0  0  0  0  0  0  0  0  0  0
   45.7780   31.8320   48.5800 P   0  0  1  0  0  0  0  0  0  0  0  0
   45.0600   31.7470   50.1010 O   0  0  0  0  0  0  0  0  0  0  0  0
   45.4610   32.4490   50.6820 H   0  0  0  0  0  0  0  0  0  0  0  0
   45.1460   33.1310   47.7090 O   0  0  0  0  0  0  0  0  0  0  0  0
   47.0470   32.8490   44.6240 C   0  0  0  0  0  0  0  0  0  0  0  0
   46.5810   32.6060   45.9300 C   0  0  0  0  0  0  0  0  0  0  0  0
   45.5760   33.3980   46.4280 C   0  0  0  0  0  0  0  0  0  0  0  0
   45.0810   34.3790   45.6300 N   0  0  0  0  0  0  0  0  0  0  0  0
   45.5360   34.5990   44.3910 C   0  0  0  0  0  0  0  0  0  0  0  0
   46.5150   33.8420   43.8820 N   0  0  0  0  0  0  0  0  0  0  0  0
   47.8330   32.2840   44.1420 H   0  0  0  0  0  0  0  0  0  0  0  0
   47.0970   31.7950   46.3720 H   0  0  0  0  0  0  0  0  0  0  0  0
   45.0370   35.4250   43.8770 H   0  0  0  0  0  0  0  0  0  0  0  0
   48.3750   30.9110   48.6770 C   0  0  0  0  0  0  0  0  0  0  0  0
   48.8060   30.6590   49.9030 O   0  0  0  0  0  0  0  0  0  0  0  0
   48.6450   29.5110   46.6680 C   0  0  0  0  0  3  0  0  0  0  0  0
   49.1840   29.9730   47.8300 C   0  0  0  0  0  0  0  0  0  0  0  0
   50.4520   29.5240   48.1580 C   0  0  0  0  0  0  0  0  0  0  0  0
   50.8270   29.9290   49.0960 H   0  0  0  0  0  0  0  0  0  0  0  0
   51.2450   28.6590   47.4520 C   0  0  0  0  0  0  0  0  0  0  0  0
   52.4660   28.1490   47.6490 N   0  0  0  0  0  0  0  0  0  0  0  0
   52.6430   27.3560   46.5530 C   0  0  0  0  0  0  0  0  0  0  0  0
   53.5400   26.7590   46.3510 H   0  0  0  0  0  0  0  0  0  0  0  0
   51.5690   27.3920   45.7360 N   0  0  0  0  0  0  0  0  0  0  0  0
   50.6480   28.2280   46.2950 C   0  0  0  0  0  0  0  0  0  0  0  0
   49.4000   28.6210   45.8930 C   0  0  0  0  0  3  0  0  0  0  0  0
   53.1200   28.3160   48.4410 H   0  0  0  0  0  0  0  0  0  0  0  0
  1 16  1  0  0  0  0
  3  2  2  6  0  0  0
  3  1  1  0  0  0  0
  3  4  1  0  0  0  0
  4  5  1  0  0  0  0
  6  3  1  0  0  0  0
  7  8  1  0  0  0  0
  8 14  1  0  0  0  0
  8  9  2  0  0  0  0
  9  6  1  0  0  0  0
 10  9  1  0  0  0  0
 11 10  2  0  0  0  0
 12 11  1  0  0  0  0
 12  7  2  0  0  0  0
 13  7  1  0  0  0  0
 15 11  1  0  0  0  0
 16 17  2  0  0  0  0
 18 19  1  0  0  0  0
 19 20  2  0  0  0  0
 19 16  1  0  0  0  0
 20 21  1  0  0  0  0
 22 23  1  0  0  0  0
 22 20  1  0  0  0  0
 23 29  1  0  0  0  0
 24 23  1  0  0  0  0
 25 24  1  0  0  0  0
 26 27  1  0  0  0  0
 26 24  2  0  0  0  0
 27 22  2  0  0  0  0
 28 27  1  0  0  0  0
 28 18  2  0  0  0  0
M  END
>  <minimizedAffinity>
-4.54106855

>  <minimizedRMSD>
1.32959867

$$$$
