
 OpenBabel03242522503D

 29 31  0  0  0  0  0  0  0  0999 V2000
   47.7380   32.1620   48.4210 O   0  0  0  0  0  0  0  0  0  0  0  0
   45.8420   30.4550   47.9280 O   0  0  0  0  0  0  0  0  0  0  0  0
   46.1100   31.8860   48.4620 P   0  0  1  0  0  0  0  0  0  0  0  0
   45.4870   31.8870   50.0270 O   0  0  0  0  0  0  0  0  0  0  0  0
   45.8070   32.7050   50.4960 H   0  0  0  0  0  0  0  0  0  0  0  0
   45.2500   32.9650   47.4920 O   0  0  0  0  0  0  0  0  0  0  0  0
   47.2010   32.8380   44.4280 C   0  0  0  0  0  0  0  0  0  0  0  0
   46.7120   32.5280   45.7110 C   0  0  0  0  0  0  0  0  0  0  0  0
   45.7020   33.2980   46.2340 C   0  0  0  0  0  0  0  0  0  0  0  0
   45.2250   34.3220   45.4820 N   0  0  0  0  0  0  0  0  0  0  0  0
   45.7010   34.6050   44.2640 C   0  0  0  0  0  0  0  0  0  0  0  0
   46.6850   33.8710   43.7310 N   0  0  0  0  0  0  0  0  0  0  0  0
   47.9920   32.2950   43.9290 H   0  0  0  0  0  0  0  0  0  0  0  0
   47.2170   31.6920   46.1180 H   0  0  0  0  0  0  0  0  0  0  0  0
   45.2140   35.4600   43.7860 H   0  0  0  0  0  0  0  0  0  0  0  0
   48.7920   31.5930   49.0330 C   0  0  0  0  0  0  0  0  0  0  0  0
   49.7100   32.4800   49.3840 O   0  0  0  0  0  0  0  0  0  0  0  0
   49.9970   30.2500   50.7070 C   0  0  0  0  0  3  0  0  0  0  0  0
   49.3770   30.2920   49.4960 C   0  0  0  0  0  0  0  0  0  0  0  0
   49.3470   29.1180   48.7630 C   0  0  0  0  0  0  0  0  0  0  0  0
   48.8380   29.2180   47.8070 H   0  0  0  0  0  0  0  0  0  0  0  0
   49.8690   27.9000   49.1050 C   0  0  0  0  0  0  0  0  0  0  0  0
   49.9110   26.7050   48.5050 N   0  0  0  0  0  0  0  0  0  0  0  0
   50.5850   25.9360   49.4060 C   0  0  0  0  0  0  0  0  0  0  0  0
   50.8230   24.8740   49.2690 H   0  0  0  0  0  0  0  0  0  0  0  0
   50.9320   26.6440   50.5010 N   0  0  0  0  0  0  0  0  0  0  0  0
   50.4800   27.9210   50.3340 C   0  0  0  0  0  0  0  0  0  0  0  0
   50.5570   29.0340   51.1240 C   0  0  0  0  0  3  0  0  0  0  0  0
   49.5240   26.4310   47.5780 H   0  0  0  0  0  0  0  0  0  0  0  0
  1  3  1  0  0  0  0
  1 16  1  0  0  0  0
  3  2  2  6  0  0  0
  3  4  1  0  0  0  0
  4  5  1  0  0  0  0
  6  3  1  0  0  0  0
  7  8  1  0  0  0  0
  8 14  1  0  0  0  0
  8  9  2  0  0  0  0
  9  6  1  0  0  0  0
 10  9  1  0  0  0  0
 11 10  2  0  0  0  0
 12 11  1  0  0  0  0
 12  7  2  0  0  0  0
 13  7  1  0  0  0  0
 15 11  1  0  0  0  0
 16 17  2  0  0  0  0
 16 19  1  0  0  0  0
 18 28  1  0  0  0  0
 19 18  2  0  0  0  0
 20 22  2  0  0  0  0
 20 19  1  0  0  0  0
 21 20  1  0  0  0  0
 22 27  1  0  0  0  0
 23 22  1  0  0  0  0
 23 24  1  0  0  0  0
 24 26  2  0  0  0  0
 25 24  1  0  0  0  0
 27 26  1  0  0  0  0
 27 28  2  0  0  0  0
 29 23  1  0  0  0  0
M  END
>  <minimizedAffinity>
-5.21876287

>  <minimizedRMSD>
1.43514633

$$$$
