
 OpenBabel03242522493D

 29 31  0  0  0  0  0  0  0  0999 V2000
   47.6160   32.2730   48.3210 O   0  0  0  0  0  0  0  0  0  0  0  0
   45.6860   30.6410   47.7160 O   0  0  0  0  0  0  0  0  0  0  0  0
   45.9850   32.0130   48.3760 P   0  0  1  0  0  0  0  0  0  0  0  0
   45.3990   31.8740   49.9480 O   0  0  0  0  0  0  0  0  0  0  0  0
   45.7390   32.6420   50.4840 H   0  0  0  0  0  0  0  0  0  0  0  0
   45.1180   33.1870   47.5310 O   0  0  0  0  0  0  0  0  0  0  0  0
   46.9680   33.2660   44.4040 C   0  0  0  0  0  0  0  0  0  0  0  0
   46.5380   32.8870   45.6890 C   0  0  0  0  0  0  0  0  0  0  0  0
   45.5100   33.5870   46.2720 C   0  0  0  0  0  0  0  0  0  0  0  0
   44.9590   34.6120   45.5740 N   0  0  0  0  0  0  0  0  0  0  0  0
   45.3800   34.9620   44.3530 C   0  0  0  0  0  0  0  0  0  0  0  0
   46.3800   34.2970   43.7630 N   0  0  0  0  0  0  0  0  0  0  0  0
   47.7680   32.7820   43.8600 H   0  0  0  0  0  0  0  0  0  0  0  0
   47.0970   32.0630   46.0490 H   0  0  0  0  0  0  0  0  0  0  0  0
   44.8360   35.8080   43.9230 H   0  0  0  0  0  0  0  0  0  0  0  0
   48.6690   31.6910   48.9190 C   0  0  0  0  0  0  0  0  0  0  0  0
   49.5580   32.5730   49.3490 O   0  0  0  0  0  0  0  0  0  0  0  0
   49.2050   29.3360   48.4340 C   0  0  0  0  0  3  0  0  0  0  0  0
   49.2760   30.3750   49.3110 C   0  0  0  0  0  0  0  0  0  0  0  0
   49.8960   30.1330   50.5240 C   0  0  0  0  0  0  0  0  0  0  0  0
   49.9210   31.0020   51.1790 H   0  0  0  0  0  0  0  0  0  0  0  0
   50.4560   28.9640   50.9630 C   0  0  0  0  0  0  0  0  0  0  0  0
   51.0760   28.5970   52.0890 N   0  0  0  0  0  0  0  0  0  0  0  0
   51.3780   27.2870   51.8570 C   0  0  0  0  0  0  0  0  0  0  0  0
   51.9000   26.6300   52.5640 H   0  0  0  0  0  0  0  0  0  0  0  0
   50.9540   26.8890   50.6390 N   0  0  0  0  0  0  0  0  0  0  0  0
   50.3540   27.9550   50.0380 C   0  0  0  0  0  0  0  0  0  0  0  0
   49.7570   28.1070   48.8150 C   0  0  0  0  0  3  0  0  0  0  0  0
   51.2790   29.1690   52.9360 H   0  0  0  0  0  0  0  0  0  0  0  0
  1  3  1  0  0  0  0
  1 16  1  0  0  0  0
  3  2  2  6  0  0  0
  3  4  1  0  0  0  0
  4  5  1  0  0  0  0
  6  3  1  0  0  0  0
  7  8  1  0  0  0  0
  8 14  1  0  0  0  0
  8  9  2  0  0  0  0
  9  6  1  0  0  0  0
 10  9  1  0  0  0  0
 11 10  2  0  0  0  0
 12 11  1  0  0  0  0
 12  7  2  0  0  0  0
 13  7  1  0  0  0  0
 15 11  1  0  0  0  0
 16 19  1  0  0  0  0
 16 17  2  0  0  0  0
 18 28  2  0  0  0  0
 18 19  1  0  0  0  0
 19 20  2  0  0  0  0
 20 22  1  0  0  0  0
 20 21  1  0  0  0  0
 22 23  1  0  0  0  0
 23 29  1  0  0  0  0
 24 23  1  0  0  0  0
 24 25  1  0  0  0  0
 26 24  2  0  0  0  0
 27 26  1  0  0  0  0
 27 22  2  0  0  0  0
 28 27  1  0  0  0  0
M  END
>  <minimizedAffinity>
-5.57331133

>  <minimizedRMSD>
1.66721761

$$$$
