
 OpenBabel03242522493D

 29 31  0  0  0  0  0  0  0  0999 V2000
   47.6470   32.2350   48.3680 O   0  0  0  0  0  0  0  0  0  0  0  0
   45.7280   30.5890   47.7650 O   0  0  0  0  0  0  0  0  0  0  0  0
   46.0170   31.9710   48.4080 P   0  0  1  0  0  0  0  0  0  0  0  0
   45.4120   31.8540   49.9750 O   0  0  0  0  0  0  0  0  0  0  0  0
   45.7450   32.6300   50.5030 H   0  0  0  0  0  0  0  0  0  0  0  0
   45.1570   33.1310   47.5360 O   0  0  0  0  0  0  0  0  0  0  0  0
   47.0400   33.1660   44.4280 C   0  0  0  0  0  0  0  0  0  0  0  0
   46.5950   32.8030   45.7130 C   0  0  0  0  0  0  0  0  0  0  0  0
   45.5640   33.5140   46.2770 C   0  0  0  0  0  0  0  0  0  0  0  0
   45.0240   34.5330   45.5610 N   0  0  0  0  0  0  0  0  0  0  0  0
   45.4580   34.8660   44.3410 C   0  0  0  0  0  0  0  0  0  0  0  0
   46.4620   34.1910   43.7690 N   0  0  0  0  0  0  0  0  0  0  0  0
   47.8430   32.6720   43.8980 H   0  0  0  0  0  0  0  0  0  0  0  0
   47.1470   31.9820   46.0880 H   0  0  0  0  0  0  0  0  0  0  0  0
   44.9230   35.7100   43.8950 H   0  0  0  0  0  0  0  0  0  0  0  0
   48.6980   31.6420   48.9620 C   0  0  0  0  0  0  0  0  0  0  0  0
   49.6110   32.5140   49.3600 O   0  0  0  0  0  0  0  0  0  0  0  0
   49.9100   30.2320   50.5760 C   0  0  0  0  0  3  0  0  0  0  0  0
   49.2830   30.3230   49.3720 C   0  0  0  0  0  0  0  0  0  0  0  0
   49.2470   29.1790   48.5940 C   0  0  0  0  0  0  0  0  0  0  0  0
   48.7330   29.3170   47.6440 H   0  0  0  0  0  0  0  0  0  0  0  0
   49.7700   27.9480   48.8850 C   0  0  0  0  0  0  0  0  0  0  0  0
   49.8070   26.7780   48.2380 N   0  0  0  0  0  0  0  0  0  0  0  0
   50.4840   25.9720   49.1050 C   0  0  0  0  0  0  0  0  0  0  0  0
   50.7190   24.9160   48.9250 H   0  0  0  0  0  0  0  0  0  0  0  0
   50.8380   26.6370   50.2260 N   0  0  0  0  0  0  0  0  0  0  0  0
   50.3870   27.9190   50.1100 C   0  0  0  0  0  0  0  0  0  0  0  0
   50.4700   29.0010   50.9440 C   0  0  0  0  0  3  0  0  0  0  0  0
   49.4140   26.5400   47.3030 H   0  0  0  0  0  0  0  0  0  0  0  0
  1  3  1  0  0  0  0
  1 16  1  0  0  0  0
  3  2  2  6  0  0  0
  3  4  1  0  0  0  0
  4  5  1  0  0  0  0
  6  3  1  0  0  0  0
  7  8  1  0  0  0  0
  8 14  1  0  0  0  0
  8  9  2  0  0  0  0
  9  6  1  0  0  0  0
 10  9  1  0  0  0  0
 11 10  2  0  0  0  0
 12 11  1  0  0  0  0
 12  7  2  0  0  0  0
 13  7  1  0  0  0  0
 15 11  1  0  0  0  0
 16 17  2  0  0  0  0
 16 19  1  0  0  0  0
 18 28  1  0  0  0  0
 19 18  2  0  0  0  0
 20 22  2  0  0  0  0
 20 19  1  0  0  0  0
 21 20  1  0  0  0  0
 22 27  1  0  0  0  0
 23 22  1  0  0  0  0
 23 24  1  0  0  0  0
 24 26  2  0  0  0  0
 25 24  1  0  0  0  0
 27 26  1  0  0  0  0
 27 28  2  0  0  0  0
 29 23  1  0  0  0  0
M  END
>  <minimizedAffinity>
-5.23664141

>  <minimizedRMSD>
1.42515206

$$$$
