
 OpenBabel03242522503D

 29 31  0  0  0  0  0  0  0  0999 V2000
   47.7100   32.1870   48.4040 O   0  0  0  0  0  0  0  0  0  0  0  0
   45.8180   30.4850   47.8770 O   0  0  0  0  0  0  0  0  0  0  0  0
   46.0820   31.9090   48.4340 P   0  0  1  0  0  0  0  0  0  0  0  0
   45.4520   31.8870   49.9950 O   0  0  0  0  0  0  0  0  0  0  0  0
   45.7680   32.6990   50.4770 H   0  0  0  0  0  0  0  0  0  0  0  0
   45.2260   33.0010   47.4750 O   0  0  0  0  0  0  0  0  0  0  0  0
   47.1880   32.9090   44.4170 C   0  0  0  0  0  0  0  0  0  0  0  0
   46.6990   32.5890   45.6970 C   0  0  0  0  0  0  0  0  0  0  0  0
   45.6760   33.3430   46.2190 C   0  0  0  0  0  0  0  0  0  0  0  0
   45.1870   34.3620   45.4670 N   0  0  0  0  0  0  0  0  0  0  0  0
   45.6630   34.6540   44.2510 C   0  0  0  0  0  0  0  0  0  0  0  0
   46.6590   33.9360   43.7210 N   0  0  0  0  0  0  0  0  0  0  0  0
   47.9880   32.3780   43.9190 H   0  0  0  0  0  0  0  0  0  0  0  0
   47.2150   31.7590   46.1050 H   0  0  0  0  0  0  0  0  0  0  0  0
   45.1650   35.5030   43.7740 H   0  0  0  0  0  0  0  0  0  0  0  0
   48.7620   31.6050   49.0050 C   0  0  0  0  0  0  0  0  0  0  0  0
   49.6810   32.4830   49.3770 O   0  0  0  0  0  0  0  0  0  0  0  0
   49.9610   30.2240   50.6540 C   0  0  0  0  0  3  0  0  0  0  0  0
   49.3460   30.2940   49.4420 C   0  0  0  0  0  0  0  0  0  0  0  0
   49.3170   29.1370   48.6830 C   0  0  0  0  0  0  0  0  0  0  0  0
   48.8110   29.2570   47.7270 H   0  0  0  0  0  0  0  0  0  0  0  0
   49.8380   27.9110   49.0000 C   0  0  0  0  0  0  0  0  0  0  0  0
   49.8820   26.7300   48.3740 N   0  0  0  0  0  0  0  0  0  0  0  0
   50.5540   25.9410   49.2600 C   0  0  0  0  0  0  0  0  0  0  0  0
   50.7910   24.8820   49.1010 H   0  0  0  0  0  0  0  0  0  0  0  0
   50.8970   26.6240   50.3730 N   0  0  0  0  0  0  0  0  0  0  0  0
   50.4450   27.9040   50.2310 C   0  0  0  0  0  0  0  0  0  0  0  0
   50.5190   29.0000   51.0470 C   0  0  0  0  0  3  0  0  0  0  0  0
   49.4990   26.4760   47.4390 H   0  0  0  0  0  0  0  0  0  0  0  0
  1  3  1  0  0  0  0
  1 16  1  0  0  0  0
  3  2  2  6  0  0  0
  3  4  1  0  0  0  0
  4  5  1  0  0  0  0
  6  3  1  0  0  0  0
  7  8  1  0  0  0  0
  8 14  1  0  0  0  0
  8  9  2  0  0  0  0
  9  6  1  0  0  0  0
 10  9  1  0  0  0  0
 11 10  2  0  0  0  0
 12 11  1  0  0  0  0
 12  7  2  0  0  0  0
 13  7  1  0  0  0  0
 15 11  1  0  0  0  0
 16 17  2  0  0  0  0
 16 19  1  0  0  0  0
 18 28  1  0  0  0  0
 19 18  2  0  0  0  0
 20 22  2  0  0  0  0
 20 19  1  0  0  0  0
 21 20  1  0  0  0  0
 22 27  1  0  0  0  0
 23 22  1  0  0  0  0
 23 24  1  0  0  0  0
 24 26  2  0  0  0  0
 25 24  1  0  0  0  0
 27 26  1  0  0  0  0
 27 28  2  0  0  0  0
 29 23  1  0  0  0  0
M  END
>  <minimizedAffinity>
-5.21724463

>  <minimizedRMSD>
1.49123549

$$$$
