
 OpenBabel03242519413D

 32 34  0  0  0  0  0  0  0  0999 V2000
   48.0180   32.8710   41.5770 O   0  0  0  0  0  0  0  0  0  0  0  0
   47.1430   34.1050   41.2310 P   0  0  2  0  0  0  0  0  0  0  0  0
   45.5700   33.8470   41.8660 O   0  0  0  0  0  0  0  0  0  0  0  0
   44.4060   35.8900   44.6510 C   0  0  0  0  0  0  0  0  0  0  0  0
   44.6720   35.4670   43.3300 C   0  0  0  0  0  0  0  0  0  0  0  0
   45.3210   34.2330   43.1670 C   0  0  0  0  0  0  0  0  0  0  0  0
   45.6490   33.5290   44.2650 N   0  0  0  0  0  0  0  0  0  0  0  0
   45.3790   33.9660   45.5160 C   0  0  0  0  0  0  0  0  0  0  0  0
   44.7620   35.1360   45.7200 N   0  0  0  0  0  0  0  0  0  0  0  0
   43.9080   36.8400   44.7480 H   0  0  0  0  0  0  0  0  0  0  0  0
   44.3760   36.0890   42.5170 H   0  0  0  0  0  0  0  0  0  0  0  0
   45.6890   33.3140   46.3400 H   0  0  0  0  0  0  0  0  0  0  0  0
   47.0230   34.2790   39.5850 O   0  0  0  0  0  0  0  0  0  0  0  0
   46.9820   33.3200   38.6160 C   0  0  0  0  0  0  0  0  0  0  0  0
   47.3630   33.6940   37.3620 O   0  0  0  0  0  0  0  0  0  0  0  0
   47.1310   31.3900   37.1020 C   0  0  0  0  0  3  0  0  0  0  0  0
   46.6870   31.8870   38.2790 C   0  0  0  0  0  0  0  0  0  0  0  0
   46.0120   30.9970   39.1080 C   0  0  0  0  0  0  0  0  0  0  0  0
   45.6770   31.4730   40.0540 H   0  0  0  0  0  0  0  0  0  0  0  0
   45.7210   29.6800   38.9220 C   0  0  0  0  0  0  0  0  0  0  0  0
   45.0890   28.7430   39.6350 N   0  0  0  0  0  0  0  0  0  0  0  0
   45.1750   27.6470   38.8250 C   0  0  0  0  0  0  0  0  0  0  0  0
   44.7460   26.6770   39.1150 H   0  0  0  0  0  0  0  0  0  0  0  0
   45.8340   27.9360   37.6750 N   0  0  0  0  0  0  0  0  0  0  0  0
   46.1920   29.2310   37.7170 C   0  0  0  0  0  0  0  0  0  0  0  0
   46.8640   30.0350   36.8450 C   0  0  0  0  0  3  0  0  0  0  0  0
   44.6540   28.8480   40.5670 H   0  0  0  0  0  0  0  0  0  0  0  0
   47.8270   35.3990   42.0070 O   0  0  0  0  0  0  0  0  0  0  0  0
   49.0560   35.7530   41.4700 C   0  0  0  0  0  0  0  0  0  0  0  0
   49.4270   37.0470   41.7990 F   0  0  0  0  0  0  0  0  0  0  0  0
   50.0010   34.8370   41.8050 F   0  0  0  0  0  0  0  0  0  0  0  0
   48.8960   35.7340   40.0900 F   0  0  0  0  0  0  0  0  0  0  0  0
  2  1  2  1  0  0  0
  2  3  1  0  0  0  0
  2 28  1  0  0  0  0
  3  6  1  0  0  0  0
  4 10  1  0  0  0  0
  4  9  1  0  0  0  0
  5  4  2  0  0  0  0
  6  5  1  0  0  0  0
  6  7  2  0  0  0  0
  7  8  1  0  0  0  0
  8  9  2  0  0  0  0
  8 12  1  0  0  0  0
 11  5  1  0  0  0  0
 13  2  1  0  0  0  0
 14 13  1  0  0  0  0
 15 14  2  0  0  0  0
 16 17  1  0  0  0  0
 17 14  1  0  0  0  0
 17 18  2  0  0  0  0
 18 19  1  0  0  0  0
 20 18  1  0  0  0  0
 20 21  1  0  0  0  0
 21 27  1  0  0  0  0
 22 23  1  0  0  0  0
 22 21  1  0  0  0  0
 24 25  1  0  0  0  0
 24 22  2  0  0  0  0
 25 20  2  0  0  0  0
 26 16  2  0  0  0  0
 26 25  1  0  0  0  0
 29 30  1  0  0  0  0
 29 31  1  0  0  0  0
 29 28  1  0  0  0  0
 32 29  1  0  0  0  0
M  END
>  <minimizedAffinity>
-4.83987713

>  <minimizedRMSD>
0.538656294

$$$$
