
 OpenBabel03242519413D

 32 34  0  0  0  0  0  0  0  0999 V2000
   48.0140   32.8980   41.7990 O   0  0  0  0  0  0  0  0  0  0  0  0
   47.1570   34.0970   41.3120 P   0  0  2  0  0  0  0  0  0  0  0  0
   45.5610   33.9000   41.9110 O   0  0  0  0  0  0  0  0  0  0  0  0
   44.3880   35.9360   44.6960 C   0  0  0  0  0  0  0  0  0  0  0  0
   44.6650   35.5190   43.3760 C   0  0  0  0  0  0  0  0  0  0  0  0
   45.3010   34.2790   43.2120 C   0  0  0  0  0  0  0  0  0  0  0  0
   45.6080   33.5630   44.3090 N   0  0  0  0  0  0  0  0  0  0  0  0
   45.3280   33.9950   45.5600 C   0  0  0  0  0  0  0  0  0  0  0  0
   44.7220   35.1710   45.7640 N   0  0  0  0  0  0  0  0  0  0  0  0
   43.9000   36.8910   44.7950 H   0  0  0  0  0  0  0  0  0  0  0  0
   44.3860   36.1500   42.5640 H   0  0  0  0  0  0  0  0  0  0  0  0
   45.6210   33.3340   46.3820 H   0  0  0  0  0  0  0  0  0  0  0  0
   47.0970   34.1220   39.6540 O   0  0  0  0  0  0  0  0  0  0  0  0
   46.6830   33.1510   38.7900 C   0  0  0  0  0  0  0  0  0  0  0  0
   47.5820   32.7340   37.8550 O   0  0  0  0  0  0  0  0  0  0  0  0
   44.9700   31.4680   39.3110 C   0  0  0  0  0  3  0  0  0  0  0  0
   45.5720   32.2310   38.3730 C   0  0  0  0  0  0  0  0  0  0  0  0
   45.0760   32.1220   37.0770 C   0  0  0  0  0  0  0  0  0  0  0  0
   45.6190   32.7750   36.3600 H   0  0  0  0  0  0  0  0  0  0  0  0
   44.0610   31.3550   36.5930 C   0  0  0  0  0  0  0  0  0  0  0  0
   43.5070   31.1710   35.3900 N   0  0  0  0  0  0  0  0  0  0  0  0
   42.5310   30.2520   35.6520 C   0  0  0  0  0  0  0  0  0  0  0  0
   41.8680   29.8690   34.8640 H   0  0  0  0  0  0  0  0  0  0  0  0
   42.5170   29.9100   36.9660 N   0  0  0  0  0  0  0  0  0  0  0  0
   43.4860   30.6040   37.5840 C   0  0  0  0  0  0  0  0  0  0  0  0
   43.9100   30.6500   38.8800 C   0  0  0  0  0  3  0  0  0  0  0  0
   43.7710   31.6240   34.5000 H   0  0  0  0  0  0  0  0  0  0  0  0
   47.8180   35.4560   41.9930 O   0  0  0  0  0  0  0  0  0  0  0  0
   49.0540   35.7760   41.4490 C   0  0  0  0  0  0  0  0  0  0  0  0
   49.4670   37.0540   41.7870 F   0  0  0  0  0  0  0  0  0  0  0  0
   49.9720   34.8270   41.7670 F   0  0  0  0  0  0  0  0  0  0  0  0
   48.8820   35.7750   40.0700 F   0  0  0  0  0  0  0  0  0  0  0  0
  2  1  2  1  0  0  0
  2  3  1  0  0  0  0
  2 28  1  0  0  0  0
  3  6  1  0  0  0  0
  4 10  1  0  0  0  0
  4  9  1  0  0  0  0
  5  4  2  0  0  0  0
  6  5  1  0  0  0  0
  6  7  2  0  0  0  0
  7  8  1  0  0  0  0
  8  9  2  0  0  0  0
  8 12  1  0  0  0  0
 11  5  1  0  0  0  0
 13  2  1  0  0  0  0
 14 13  1  0  0  0  0
 15 14  2  0  0  0  0
 17 14  1  0  0  0  0
 17 16  2  0  0  0  0
 18 17  1  0  0  0  0
 19 18  1  0  0  0  0
 20 18  2  0  0  0  0
 20 25  1  0  0  0  0
 21 22  1  0  0  0  0
 21 20  1  0  0  0  0
 22 24  2  0  0  0  0
 23 22  1  0  0  0  0
 24 25  1  0  0  0  0
 25 26  2  0  0  0  0
 26 16  1  0  0  0  0
 27 21  1  0  0  0  0
 29 31  1  0  0  0  0
 29 30  1  0  0  0  0
 29 28  1  0  0  0  0
 32 29  1  0  0  0  0
M  END
>  <minimizedAffinity>
-5.38970947

>  <minimizedRMSD>
1.52913046

$$$$
