
 OpenBabel03242519413D

 32 34  0  0  0  0  0  0  0  0999 V2000
   48.0210   32.9030   41.8040 O   0  0  0  0  0  0  0  0  0  0  0  0
   47.1620   34.1000   41.3140 P   0  0  2  0  0  0  0  0  0  0  0  0
   45.5660   33.9000   41.9110 O   0  0  0  0  0  0  0  0  0  0  0  0
   44.3880   35.9360   44.6940 C   0  0  0  0  0  0  0  0  0  0  0  0
   44.6660   35.5190   43.3740 C   0  0  0  0  0  0  0  0  0  0  0  0
   45.3040   34.2800   43.2120 C   0  0  0  0  0  0  0  0  0  0  0  0
   45.6100   33.5640   44.3090 N   0  0  0  0  0  0  0  0  0  0  0  0
   45.3280   33.9960   45.5590 C   0  0  0  0  0  0  0  0  0  0  0  0
   44.7210   35.1710   45.7630 N   0  0  0  0  0  0  0  0  0  0  0  0
   43.8980   36.8900   44.7920 H   0  0  0  0  0  0  0  0  0  0  0  0
   44.3880   36.1500   42.5620 H   0  0  0  0  0  0  0  0  0  0  0  0
   45.6210   33.3350   46.3830 H   0  0  0  0  0  0  0  0  0  0  0  0
   47.1040   34.1220   39.6560 O   0  0  0  0  0  0  0  0  0  0  0  0
   46.6870   33.1510   38.7930 C   0  0  0  0  0  0  0  0  0  0  0  0
   47.5790   32.7410   37.8490 O   0  0  0  0  0  0  0  0  0  0  0  0
   44.9840   31.4610   39.3240 C   0  0  0  0  0  3  0  0  0  0  0  0
   45.5750   32.2290   38.3830 C   0  0  0  0  0  0  0  0  0  0  0  0
   45.0670   32.1220   37.0910 C   0  0  0  0  0  0  0  0  0  0  0  0
   45.6000   32.7790   36.3720 H   0  0  0  0  0  0  0  0  0  0  0  0
   44.0500   31.3530   36.6160 C   0  0  0  0  0  0  0  0  0  0  0  0
   43.4860   31.1710   35.4180 N   0  0  0  0  0  0  0  0  0  0  0  0
   42.5150   30.2480   35.6850 C   0  0  0  0  0  0  0  0  0  0  0  0
   41.8450   29.8650   34.9020 H   0  0  0  0  0  0  0  0  0  0  0  0
   42.5130   29.9020   36.9980 N   0  0  0  0  0  0  0  0  0  0  0  0
   43.4880   30.5980   37.6090 C   0  0  0  0  0  0  0  0  0  0  0  0
   43.9230   30.6410   38.9010 C   0  0  0  0  0  3  0  0  0  0  0  0
   43.7390   31.6280   34.5260 H   0  0  0  0  0  0  0  0  0  0  0  0
   47.8200   35.4610   41.9930 O   0  0  0  0  0  0  0  0  0  0  0  0
   49.0560   35.7820   41.4510 C   0  0  0  0  0  0  0  0  0  0  0  0
   49.4680   37.0610   41.7900 F   0  0  0  0  0  0  0  0  0  0  0  0
   49.9750   34.8340   41.7710 F   0  0  0  0  0  0  0  0  0  0  0  0
   48.8860   35.7810   40.0720 F   0  0  0  0  0  0  0  0  0  0  0  0
  2  1  2  1  0  0  0
  2  3  1  0  0  0  0
  2 28  1  0  0  0  0
  3  6  1  0  0  0  0
  4 10  1  0  0  0  0
  4  9  1  0  0  0  0
  5  4  2  0  0  0  0
  6  5  1  0  0  0  0
  6  7  2  0  0  0  0
  7  8  1  0  0  0  0
  8  9  2  0  0  0  0
  8 12  1  0  0  0  0
 11  5  1  0  0  0  0
 13  2  1  0  0  0  0
 14 13  1  0  0  0  0
 15 14  2  0  0  0  0
 17 14  1  0  0  0  0
 17 16  2  0  0  0  0
 18 17  1  0  0  0  0
 19 18  1  0  0  0  0
 20 18  2  0  0  0  0
 20 25  1  0  0  0  0
 21 22  1  0  0  0  0
 21 20  1  0  0  0  0
 22 24  2  0  0  0  0
 23 22  1  0  0  0  0
 24 25  1  0  0  0  0
 25 26  2  0  0  0  0
 26 16  1  0  0  0  0
 27 21  1  0  0  0  0
 29 31  1  0  0  0  0
 29 30  1  0  0  0  0
 29 28  1  0  0  0  0
 32 29  1  0  0  0  0
M  END
>  <minimizedAffinity>
-5.38908958

>  <minimizedRMSD>
1.85535896

$$$$
