
 OpenBabel03242519413D

 32 34  0  0  0  0  0  0  0  0999 V2000
   48.0310   32.9020   41.7510 O   0  0  0  0  0  0  0  0  0  0  0  0
   47.1650   34.1030   41.2860 P   0  0  2  0  0  0  0  0  0  0  0  0
   45.5730   33.8860   41.8900 O   0  0  0  0  0  0  0  0  0  0  0  0
   44.3910   35.9200   44.6740 C   0  0  0  0  0  0  0  0  0  0  0  0
   44.6690   35.5020   43.3540 C   0  0  0  0  0  0  0  0  0  0  0  0
   45.3120   34.2660   43.1910 C   0  0  0  0  0  0  0  0  0  0  0  0
   45.6250   33.5540   44.2880 N   0  0  0  0  0  0  0  0  0  0  0  0
   45.3440   33.9850   45.5390 C   0  0  0  0  0  0  0  0  0  0  0  0
   44.7310   35.1580   45.7430 N   0  0  0  0  0  0  0  0  0  0  0  0
   43.8970   36.8710   44.7720 H   0  0  0  0  0  0  0  0  0  0  0  0
   44.3850   36.1310   42.5410 H   0  0  0  0  0  0  0  0  0  0  0  0
   45.6420   33.3270   46.3620 H   0  0  0  0  0  0  0  0  0  0  0  0
   47.0950   34.1520   39.6290 O   0  0  0  0  0  0  0  0  0  0  0  0
   46.7710   33.1620   38.7480 C   0  0  0  0  0  0  0  0  0  0  0  0
   46.7980   33.4810   37.4240 O   0  0  0  0  0  0  0  0  0  0  0  0
   45.3230   31.4420   37.7580 C   0  0  0  0  0  3  0  0  0  0  0  0
   46.3690   31.7270   38.5640 C   0  0  0  0  0  0  0  0  0  0  0  0
   47.0200   30.6380   39.1380 C   0  0  0  0  0  0  0  0  0  0  0  0
   47.8680   30.9470   39.7860 H   0  0  0  0  0  0  0  0  0  0  0  0
   46.7680   29.3070   39.0140 C   0  0  0  0  0  0  0  0  0  0  0  0
   47.3160   28.1930   39.5090 N   0  0  0  0  0  0  0  0  0  0  0  0
   46.5420   27.2120   38.9560 C   0  0  0  0  0  0  0  0  0  0  0  0
   46.7220   26.1470   39.1580 H   0  0  0  0  0  0  0  0  0  0  0  0
   45.5720   27.7380   38.1650 N   0  0  0  0  0  0  0  0  0  0  0  0
   45.7000   29.0760   38.1890 C   0  0  0  0  0  0  0  0  0  0  0  0
   45.0050   30.0830   37.5850 C   0  0  0  0  0  3  0  0  0  0  0  0
   48.1240   28.1190   40.1490 H   0  0  0  0  0  0  0  0  0  0  0  0
   47.8210   35.4550   41.9830 O   0  0  0  0  0  0  0  0  0  0  0  0
   49.0590   35.7820   41.4490 C   0  0  0  0  0  0  0  0  0  0  0  0
   49.4640   37.0620   41.7900 F   0  0  0  0  0  0  0  0  0  0  0  0
   49.9800   34.8380   41.7730 F   0  0  0  0  0  0  0  0  0  0  0  0
   48.8970   35.7810   40.0680 F   0  0  0  0  0  0  0  0  0  0  0  0
  2  1  2  1  0  0  0
  2  3  1  0  0  0  0
  2 28  1  0  0  0  0
  3  6  1  0  0  0  0
  4 10  1  0  0  0  0
  4  9  1  0  0  0  0
  5  4  2  0  0  0  0
  6  5  1  0  0  0  0
  6  7  2  0  0  0  0
  7  8  1  0  0  0  0
  8  9  2  0  0  0  0
  8 12  1  0  0  0  0
 11  5  1  0  0  0  0
 13  2  1  0  0  0  0
 14 13  1  0  0  0  0
 15 14  2  0  0  0  0
 16 17  1  0  0  0  0
 17 14  1  0  0  0  0
 17 18  2  0  0  0  0
 18 19  1  0  0  0  0
 20 18  1  0  0  0  0
 20 21  1  0  0  0  0
 21 27  1  0  0  0  0
 22 23  1  0  0  0  0
 22 21  1  0  0  0  0
 24 25  1  0  0  0  0
 24 22  2  0  0  0  0
 25 20  2  0  0  0  0
 26 16  2  0  0  0  0
 26 25  1  0  0  0  0
 29 31  1  0  0  0  0
 29 30  1  0  0  0  0
 29 28  1  0  0  0  0
 32 29  1  0  0  0  0
M  END
>  <minimizedAffinity>
-4.79601336

>  <minimizedRMSD>
0.656042695

$$$$
