
 OpenBabel03242519413D

 32 34  0  0  0  0  0  0  0  0999 V2000
   48.1130   32.8620   41.5690 O   0  0  0  0  0  0  0  0  0  0  0  0
   47.1420   34.0240   41.2220 P   0  0  2  0  0  0  0  0  0  0  0  0
   45.6110   33.6720   41.9130 O   0  0  0  0  0  0  0  0  0  0  0  0
   44.4110   35.8370   44.5880 C   0  0  0  0  0  0  0  0  0  0  0  0
   44.6850   35.3500   43.2910 C   0  0  0  0  0  0  0  0  0  0  0  0
   45.3550   34.1210   43.1930 C   0  0  0  0  0  0  0  0  0  0  0  0
   45.6940   33.4800   44.3250 N   0  0  0  0  0  0  0  0  0  0  0  0
   45.4160   33.9760   45.5520 C   0  0  0  0  0  0  0  0  0  0  0  0
   44.7790   35.1450   45.6950 N   0  0  0  0  0  0  0  0  0  0  0  0
   43.8970   36.7810   44.6370 H   0  0  0  0  0  0  0  0  0  0  0  0
   44.3790   35.9240   42.4470 H   0  0  0  0  0  0  0  0  0  0  0  0
   45.7360   33.3740   46.4090 H   0  0  0  0  0  0  0  0  0  0  0  0
   46.9610   34.1470   39.5780 O   0  0  0  0  0  0  0  0  0  0  0  0
   47.5900   33.4540   38.5850 C   0  0  0  0  0  0  0  0  0  0  0  0
   48.8180   32.9410   38.8750 O   0  0  0  0  0  0  0  0  0  0  0  0
   46.3860   32.3460   36.7510 C   0  0  0  0  0  3  0  0  0  0  0  0
   47.5230   32.9390   37.1760 C   0  0  0  0  0  0  0  0  0  0  0  0
   48.5460   33.0550   36.2390 C   0  0  0  0  0  0  0  0  0  0  0  0
   49.4490   33.5510   36.6570 H   0  0  0  0  0  0  0  0  0  0  0  0
   48.5840   32.6600   34.9360 C   0  0  0  0  0  0  0  0  0  0  0  0
   49.4940   32.7190   33.9590 N   0  0  0  0  0  0  0  0  0  0  0  0
   48.8430   32.1270   32.9140 C   0  0  0  0  0  0  0  0  0  0  0  0
   49.3170   32.0080   31.9300 H   0  0  0  0  0  0  0  0  0  0  0  0
   47.5930   31.7360   33.2710 N   0  0  0  0  0  0  0  0  0  0  0  0
   47.4090   32.0680   34.5610 C   0  0  0  0  0  0  0  0  0  0  0  0
   46.3560   31.9130   35.4140 C   0  0  0  0  0  3  0  0  0  0  0  0
   50.4470   33.1180   34.0090 H   0  0  0  0  0  0  0  0  0  0  0  0
   47.7560   35.3820   41.9470 O   0  0  0  0  0  0  0  0  0  0  0  0
   49.0060   35.7290   41.4550 C   0  0  0  0  0  0  0  0  0  0  0  0
   49.4290   36.9680   41.9070 F   0  0  0  0  0  0  0  0  0  0  0  0
   49.9060   34.7430   41.7100 F   0  0  0  0  0  0  0  0  0  0  0  0
   48.8620   35.8450   40.0780 F   0  0  0  0  0  0  0  0  0  0  0  0
  2  1  2  1  0  0  0
  2  3  1  0  0  0  0
  2 28  1  0  0  0  0
  3  6  1  0  0  0  0
  4 10  1  0  0  0  0
  4  9  1  0  0  0  0
  5  4  2  0  0  0  0
  6  5  1  0  0  0  0
  6  7  2  0  0  0  0
  7  8  1  0  0  0  0
  8  9  2  0  0  0  0
  8 12  1  0  0  0  0
 11  5  1  0  0  0  0
 13  2  1  0  0  0  0
 14 15  2  0  0  0  0
 14 13  1  0  0  0  0
 16 17  1  0  0  0  0
 17 14  1  0  0  0  0
 18 19  1  0  0  0  0
 18 17  2  0  0  0  0
 20 18  1  0  0  0  0
 21 27  1  0  0  0  0
 21 20  1  0  0  0  0
 22 24  2  0  0  0  0
 22 21  1  0  0  0  0
 23 22  1  0  0  0  0
 24 25  1  0  0  0  0
 25 20  2  0  0  0  0
 25 26  1  0  0  0  0
 26 16  2  0  0  0  0
 29 31  1  0  0  0  0
 29 30  1  0  0  0  0
 29 28  1  0  0  0  0
 32 29  1  0  0  0  0
M  END
>  <minimizedAffinity>
-6.16908836

>  <minimizedRMSD>
2.96575809

$$$$
