
 OpenBabel03242519413D

 32 34  0  0  0  0  0  0  0  0999 V2000
   47.8160   32.7260   41.8350 O   0  0  0  0  0  0  0  0  0  0  0  0
   46.9060   33.8570   41.2860 P   0  0  2  0  0  0  0  0  0  0  0  0
   45.3510   33.6900   41.9910 O   0  0  0  0  0  0  0  0  0  0  0  0
   44.3570   35.9410   44.6790 C   0  0  0  0  0  0  0  0  0  0  0  0
   44.5610   35.4270   43.3790 C   0  0  0  0  0  0  0  0  0  0  0  0
   45.1610   34.1640   43.2730 C   0  0  0  0  0  0  0  0  0  0  0  0
   45.5040   33.5170   44.4010 N   0  0  0  0  0  0  0  0  0  0  0  0
   45.2930   34.0390   45.6310 C   0  0  0  0  0  0  0  0  0  0  0  0
   44.7240   35.2420   45.7810 N   0  0  0  0  0  0  0  0  0  0  0  0
   43.8950   36.9120   44.7340 H   0  0  0  0  0  0  0  0  0  0  0  0
   44.2580   36.0090   42.5390 H   0  0  0  0  0  0  0  0  0  0  0  0
   45.6100   33.4290   46.4830 H   0  0  0  0  0  0  0  0  0  0  0  0
   46.7540   33.7220   39.6390 O   0  0  0  0  0  0  0  0  0  0  0  0
   45.7520   33.1550   38.9090 C   0  0  0  0  0  0  0  0  0  0  0  0
   46.1130   32.2140   37.9920 O   0  0  0  0  0  0  0  0  0  0  0  0
   43.7680   31.9710   38.0720 C   0  0  0  0  0  3  0  0  0  0  0  0
   44.2760   33.0870   38.6420 C   0  0  0  0  0  0  0  0  0  0  0  0
   43.3600   34.0820   38.9710 C   0  0  0  0  0  0  0  0  0  0  0  0
   43.8480   34.9670   39.4340 H   0  0  0  0  0  0  0  0  0  0  0  0
   42.0090   34.1130   38.8090 C   0  0  0  0  0  0  0  0  0  0  0  0
   41.0470   34.9980   39.0820 N   0  0  0  0  0  0  0  0  0  0  0  0
   39.9220   34.3570   38.6460 C   0  0  0  0  0  0  0  0  0  0  0  0
   38.9260   34.8140   38.7220 H   0  0  0  0  0  0  0  0  0  0  0  0
   40.2200   33.1360   38.1340 N   0  0  0  0  0  0  0  0  0  0  0  0
   41.5500   32.9610   38.2290 C   0  0  0  0  0  0  0  0  0  0  0  0
   42.3760   31.9360   37.8740 C   0  0  0  0  0  3  0  0  0  0  0  0
   41.1530   35.9310   39.5160 H   0  0  0  0  0  0  0  0  0  0  0  0
   47.5720   35.2860   41.7960 O   0  0  0  0  0  0  0  0  0  0  0  0
   48.8350   35.5050   41.2650 C   0  0  0  0  0  0  0  0  0  0  0  0
   49.3720   36.7210   41.6530 F   0  0  0  0  0  0  0  0  0  0  0  0
   49.6550   34.4580   41.5450 F   0  0  0  0  0  0  0  0  0  0  0  0
   48.6690   35.5740   39.8870 F   0  0  0  0  0  0  0  0  0  0  0  0
  2 28  1  0  0  0  0
  2  1  2  1  0  0  0
  2  3  1  0  0  0  0
  3  6  1  0  0  0  0
  4 10  1  0  0  0  0
  4  9  1  0  0  0  0
  5  4  2  0  0  0  0
  6  5  1  0  0  0  0
  6  7  2  0  0  0  0
  7  8  1  0  0  0  0
  8  9  2  0  0  0  0
  8 12  1  0  0  0  0
 11  5  1  0  0  0  0
 13  2  1  0  0  0  0
 14 13  1  0  0  0  0
 15 14  2  0  0  0  0
 16 17  1  0  0  0  0
 17 14  1  0  0  0  0
 17 18  2  0  0  0  0
 18 19  1  0  0  0  0
 20 18  1  0  0  0  0
 20 21  1  0  0  0  0
 21 27  1  0  0  0  0
 22 23  1  0  0  0  0
 22 21  1  0  0  0  0
 24 25  1  0  0  0  0
 24 22  2  0  0  0  0
 25 20  2  0  0  0  0
 26 16  2  0  0  0  0
 26 25  1  0  0  0  0
 29 31  1  0  0  0  0
 29 30  1  0  0  0  0
 29 28  1  0  0  0  0
 32 29  1  0  0  0  0
M  END
>  <minimizedAffinity>
-5.81683969

>  <minimizedRMSD>
3.68682456

$$$$
