
 OpenBabel03242519413D

 32 34  0  0  0  0  0  0  0  0999 V2000
   47.9740   32.5330   41.5540 O   0  0  0  0  0  0  0  0  0  0  0  0
   46.8660   33.5910   41.3020 P   0  0  2  0  0  0  0  0  0  0  0  0
   45.4870   33.1600   42.2270 O   0  0  0  0  0  0  0  0  0  0  0  0
   44.3650   35.8310   44.4370 C   0  0  0  0  0  0  0  0  0  0  0  0
   44.6230   35.1000   43.2570 C   0  0  0  0  0  0  0  0  0  0  0  0
   45.2440   33.8500   43.3970 C   0  0  0  0  0  0  0  0  0  0  0  0
   45.5560   33.4210   44.6330 N   0  0  0  0  0  0  0  0  0  0  0  0
   45.2930   34.1490   45.7430 C   0  0  0  0  0  0  0  0  0  0  0  0
   44.7020   35.3470   45.6570 N   0  0  0  0  0  0  0  0  0  0  0  0
   43.8870   36.7870   44.3020 H   0  0  0  0  0  0  0  0  0  0  0  0
   44.3420   35.5170   42.3170 H   0  0  0  0  0  0  0  0  0  0  0  0
   45.5880   33.7060   46.7000 H   0  0  0  0  0  0  0  0  0  0  0  0
   46.4410   33.6050   39.6980 O   0  0  0  0  0  0  0  0  0  0  0  0
   45.2280   33.3570   39.1250 C   0  0  0  0  0  0  0  0  0  0  0  0
   45.2050   32.4750   38.0870 O   0  0  0  0  0  0  0  0  0  0  0  0
   42.9420   32.9000   38.3480 C   0  0  0  0  0  3  0  0  0  0  0  0
   43.7530   33.6420   39.1330 C   0  0  0  0  0  0  0  0  0  0  0  0
   43.1340   34.6050   39.9250 C   0  0  0  0  0  0  0  0  0  0  0  0
   43.8600   35.1750   40.5420 H   0  0  0  0  0  0  0  0  0  0  0  0
   41.8160   34.9240   40.0390 C   0  0  0  0  0  0  0  0  0  0  0  0
   41.1180   35.8130   40.7530 N   0  0  0  0  0  0  0  0  0  0  0  0
   39.8340   35.5670   40.3570 C   0  0  0  0  0  0  0  0  0  0  0  0
   38.9840   36.1360   40.7600 H   0  0  0  0  0  0  0  0  0  0  0  0
   39.7840   34.5680   39.4400 N   0  0  0  0  0  0  0  0  0  0  0  0
   41.0410   34.1440   39.2230 C   0  0  0  0  0  0  0  0  0  0  0  0
   41.5650   33.1780   38.4160 C   0  0  0  0  0  3  0  0  0  0  0  0
   41.4840   36.5030   41.4300 H   0  0  0  0  0  0  0  0  0  0  0  0
   47.4560   35.0340   41.8650 O   0  0  0  0  0  0  0  0  0  0  0  0
   48.6930   35.3510   41.3220 C   0  0  0  0  0  0  0  0  0  0  0  0
   49.1050   36.6320   41.6520 F   0  0  0  0  0  0  0  0  0  0  0  0
   49.6110   34.4050   41.6490 F   0  0  0  0  0  0  0  0  0  0  0  0
   48.5250   35.3400   39.9420 F   0  0  0  0  0  0  0  0  0  0  0  0
  2  1  2  1  0  0  0
  2 28  1  0  0  0  0
  2  3  1  0  0  0  0
  3  6  1  0  0  0  0
  4  9  1  0  0  0  0
  5  6  1  0  0  0  0
  5  4  2  0  0  0  0
  6  7  2  0  0  0  0
  7  8  1  0  0  0  0
  8 12  1  0  0  0  0
  9  8  2  0  0  0  0
 10  4  1  0  0  0  0
 11  5  1  0  0  0  0
 13  2  1  0  0  0  0
 14 17  1  0  0  0  0
 14 13  1  0  0  0  0
 15 14  2  0  0  0  0
 16 26  2  0  0  0  0
 16 17  1  0  0  0  0
 17 18  2  0  0  0  0
 18 20  1  0  0  0  0
 18 19  1  0  0  0  0
 20 21  1  0  0  0  0
 21 27  1  0  0  0  0
 22 21  1  0  0  0  0
 22 23  1  0  0  0  0
 24 22  2  0  0  0  0
 25 24  1  0  0  0  0
 25 20  2  0  0  0  0
 26 25  1  0  0  0  0
 29 31  1  0  0  0  0
 29 30  1  0  0  0  0
 29 28  1  0  0  0  0
 32 29  1  0  0  0  0
M  END
>  <minimizedAffinity>
-5.99203873

>  <minimizedRMSD>
4.20268679

$$$$
