
 OpenBabel03242510503D

 25 27  0  0  0  0  0  0  0  0999 V2000
   44.6180   36.2540   44.6020 C   0  0  0  0  0  0  0  0  0  0  0  0
   45.2550   36.3960   43.3390 C   0  0  0  0  0  0  0  0  0  0  0  0
   45.9750   35.2960   42.8300 C   0  0  0  0  0  0  0  0  0  0  0  0
   46.0090   34.1640   43.5930 N   0  0  0  0  0  0  0  0  0  0  0  0
   45.3990   34.0600   44.7810 C   0  0  0  0  0  0  0  0  0  0  0  0
   44.7070   35.1110   45.2750 N   0  0  0  0  0  0  0  0  0  0  0  0
   46.4920   31.9210   45.0820 C   0  0  0  0  0  0  0  0  0  0  0  0
   47.2970   32.1100   44.1270 O   0  0  0  0  0  0  0  0  0  0  0  0
   45.4960   32.8370   45.4970 N   0  0  0  0  0  0  0  0  0  0  0  0
   44.0490   37.0510   45.0590 H   0  0  0  0  0  0  0  0  0  0  0  0
   45.1550   37.3450   42.8280 H   0  0  0  0  0  0  0  0  0  0  0  0
   46.4520   35.4090   41.8780 H   0  0  0  0  0  0  0  0  0  0  0  0
   44.8280   32.6930   46.2790 H   0  0  0  0  0  0  0  0  0  0  0  0
   47.8380   30.0740   46.1190 C   0  0  0  0  0  0  0  0  0  0  0  0
   46.6310   30.6510   45.7860 C   0  0  0  0  0  0  0  0  0  0  0  0
   45.5480   29.8930   46.1910 C   0  0  0  0  0  0  0  0  0  0  0  0
   44.5370   30.2580   45.9760 H   0  0  0  0  0  0  0  0  0  0  0  0
   45.6090   28.6870   46.8570 C   0  0  0  0  0  0  0  0  0  0  0  0
   44.6740   27.8440   47.3100 N   0  0  0  0  0  0  0  0  0  0  0  0
   45.3150   26.8100   47.8900 C   0  0  0  0  0  0  0  0  0  0  0  0
   44.9400   25.9180   48.3770 H   0  0  0  0  0  0  0  0  0  0  0  0
   46.6510   27.0300   47.7850 N   0  0  0  0  0  0  0  0  0  0  0  0
   46.8510   28.1810   47.1510 C   0  0  0  0  0  0  0  0  0  0  0  0
   47.9820   28.8760   46.7810 C   0  0  0  0  0  0  0  0  0  0  0  0
   43.6370   27.9320   47.2490 H   0  0  0  0  0  0  0  0  0  0  0  0
  1 10  1  0  0  0  0
  1  6  1  0  0  0  0
  2  1  2  0  0  0  0
  3  2  1  0  0  0  0
  3  4  2  0  0  0  0
  4  5  1  0  0  0  0
  5  6  2  0  0  0  0
  5  9  1  0  0  0  0
  7  9  1  0  0  0  0
  7 15  1  0  0  0  0
  8  7  2  0  0  0  0
  9 13  1  0  0  0  0
 11  2  1  0  0  0  0
 12  3  1  0  0  0  0
 14 24  1  0  0  0  0
 15 14  2  0  0  0  0
 15 16  1  0  0  0  0
 16 18  2  0  0  0  0
 17 16  1  0  0  0  0
 18 23  1  0  0  0  0
 18 19  1  0  0  0  0
 19 20  1  0  0  0  0
 20 21  1  0  0  0  0
 22 20  2  0  0  0  0
 23 22  1  0  0  0  0
 24 23  2  0  0  0  0
 25 19  1  0  0  0  0
M  END
>  <minimizedAffinity>
-4.68434238

>  <minimizedRMSD>
2.87556314

$$$$
