
 OpenBabel03242520023D

 33 36  0  0  1  0  0  0  0  0999 V2000
   36.9590   26.6720   40.6050 Br  0  0  0  0  0  0  0  0  0  0  0  0
   38.4000   26.2660   41.7800 C   0  0  0  0  0  0  0  0  0  0  0  0
   39.1060   25.0880   41.6910 C   0  0  0  0  0  0  0  0  0  0  0  0
   40.1340   24.8700   42.6090 C   0  0  0  0  0  0  0  0  0  0  0  0
   40.4560   25.7880   43.5870 C   0  0  0  0  0  0  0  0  0  0  0  0
   39.7430   26.9850   43.6800 C   0  0  0  0  0  0  0  0  0  0  0  0
   38.7330   27.1650   42.7550 C   0  0  0  0  0  0  0  0  0  0  0  0
   40.6390   23.9240   42.4730 H   0  0  0  0  0  0  0  0  0  0  0  0
   41.2740   25.5540   44.2740 H   0  0  0  0  0  0  0  0  0  0  0  0
   39.9860   27.7120   44.4410 H   0  0  0  0  0  0  0  0  0  0  0  0
   38.9480   23.2050   38.4210 C   0  0  0  0  0  0  0  0  0  0  0  0
   39.3400   24.1390   39.3990 C   0  0  0  0  0  0  0  0  0  0  0  0
   38.7440   24.1490   40.6360 C   0  0  0  0  0  0  0  0  0  0  0  0
   37.7710   23.2020   40.8160 N   0  0  0  0  0  0  0  0  0  0  0  0
   37.4040   22.3200   39.8850 C   0  0  0  0  0  0  0  0  0  0  0  0
   37.9870   22.3240   38.7020 N   0  0  0  0  0  0  0  0  0  0  0  0
   39.4700   23.2780   37.4900 H   0  0  0  0  0  0  0  0  0  0  0  0
   40.1040   24.8630   39.2210 H   0  0  0  0  0  0  0  0  0  0  0  0
   36.6200   21.6730   40.2530 H   0  0  0  0  0  0  0  0  0  0  0  0
   38.0330   28.4230   42.8550 C   0  0  2  0  0  3  0  0  0  0  0  0
   36.9770   28.5480   43.5830 O   0  0  0  0  0  1  0  0  0  0  0  0
   39.5540   30.3040   42.2800 C   0  0  0  0  0  3  0  0  0  0  0  0
   38.3190   29.7070   42.2270 C   0  0  0  0  0  0  0  0  0  0  0  0
   37.3600   30.4120   41.5120 C   0  0  0  0  0  0  0  0  0  0  0  0
   36.3370   30.0180   41.4010 H   0  0  0  0  0  0  0  0  0  0  0  0
   37.5620   31.6210   40.8820 C   0  0  0  0  0  0  0  0  0  0  0  0
   36.7830   32.4430   40.1600 N   0  0  0  0  0  0  0  0  0  0  0  0
   37.5340   33.4910   39.7990 C   0  0  0  0  0  0  0  0  0  0  0  0
   37.1020   34.2940   39.1990 H   0  0  0  0  0  0  0  0  0  0  0  0
   38.7760   33.3470   40.2820 N   0  0  0  0  0  0  0  0  0  0  0  0
   38.8140   32.1910   40.9580 C   0  0  0  0  0  0  0  0  0  0  0  0
   39.7790   31.5290   41.6490 C   0  0  0  0  0  3  0  0  0  0  0  0
   35.7690   32.2650   39.9340 H   0  0  0  0  0  0  0  0  0  0  0  0
  1  2  1  0  0  0  0
  2  7  1  0  0  0  0
  3  2  2  0  0  0  0
  3  4  1  0  0  0  0
  4  5  2  0  0  0  0
  5  6  1  0  0  0  0
  5  9  1  0  0  0  0
  6 10  1  0  0  0  0
  7 20  1  0  0  0  0
  7  6  2  0  0  0  0
  8  4  1  0  0  0  0
 11 16  2  0  0  0  0
 11 12  1  0  0  0  0
 12 13  2  0  0  0  0
 13 14  1  0  0  0  0
 13  3  1  0  0  0  0
 15 19  1  0  0  0  0
 15 14  2  0  0  0  0
 16 15  1  0  0  0  0
 17 11  1  0  0  0  0
 18 12  1  0  0  0  0
 20 21  1  6  0  0  0
 23 22  1  0  0  0  0
 23 20  1  0  0  0  0
 24 23  2  0  0  0  0
 25 24  1  0  0  0  0
 26 31  2  0  0  0  0
 26 24  1  0  0  0  0
 27 26  1  0  0  0  0
 28 27  1  0  0  0  0
 28 30  2  0  0  0  0
 29 28  1  0  0  0  0
 30 31  1  0  0  0  0
 31 32  1  0  0  0  0
 32 22  2  0  0  0  0
 33 27  1  0  0  0  0
M  END
>  <minimizedAffinity>
-6.30189276

$$$$

 OpenBabel03242520023D

 33 36  0  0  1  0  0  0  0  0999 V2000
   36.6870   27.5180   39.1000 Br  0  0  0  0  0  0  0  0  0  0  0  0
   37.1060   27.4870   40.9560 C   0  0  0  0  0  0  0  0  0  0  0  0
   37.5100   26.3380   41.5950 C   0  0  0  0  0  0  0  0  0  0  0  0
   37.7780   26.4080   42.9630 C   0  0  0  0  0  0  0  0  0  0  0  0
   37.6510   27.5800   43.6790 C   0  0  0  0  0  0  0  0  0  0  0  0
   37.2420   28.7490   43.0340 C   0  0  0  0  0  0  0  0  0  0  0  0
   36.9860   28.6400   41.6810 C   0  0  0  0  0  0  0  0  0  0  0  0
   38.0890   25.4650   43.3900 H   0  0  0  0  0  0  0  0  0  0  0  0
   37.8770   27.5660   44.7490 H   0  0  0  0  0  0  0  0  0  0  0  0
   37.1390   29.6730   43.5840 H   0  0  0  0  0  0  0  0  0  0  0  0
   36.8320   23.0390   39.8840 C   0  0  0  0  0  0  0  0  0  0  0  0
   36.6410   24.1950   40.6650 C   0  0  0  0  0  0  0  0  0  0  0  0
   37.6450   25.1220   40.8010 C   0  0  0  0  0  0  0  0  0  0  0  0
   38.8010   24.8230   40.1300 N   0  0  0  0  0  0  0  0  0  0  0  0
   38.9760   23.7270   39.3910 C   0  0  0  0  0  0  0  0  0  0  0  0
   38.0010   22.8460   39.2710 N   0  0  0  0  0  0  0  0  0  0  0  0
   35.9920   22.3780   39.8400 H   0  0  0  0  0  0  0  0  0  0  0  0
   35.7240   24.3930   41.1750 H   0  0  0  0  0  0  0  0  0  0  0  0
   39.9660   23.7060   38.9580 H   0  0  0  0  0  0  0  0  0  0  0  0
   36.5960   29.8700   41.0330 C   0  0  1  0  0  3  0  0  0  0  0  0
   35.3690   30.0990   40.7140 O   0  0  0  0  0  1  0  0  0  0  0  0
   36.9590   31.9680   39.7490 C   0  0  0  0  0  3  0  0  0  0  0  0
   37.4030   31.0140   40.6320 C   0  0  0  0  0  0  0  0  0  0  0  0
   38.6810   31.2310   41.1310 C   0  0  0  0  0  0  0  0  0  0  0  0
   39.1300   30.5300   41.8520 H   0  0  0  0  0  0  0  0  0  0  0  0
   39.4950   32.2940   40.8080 C   0  0  0  0  0  0  0  0  0  0  0  0
   40.7300   32.6730   41.1720 N   0  0  0  0  0  0  0  0  0  0  0  0
   41.0070   33.8120   40.5260 C   0  0  0  0  0  0  0  0  0  0  0  0
   41.9700   34.3060   40.6710 H   0  0  0  0  0  0  0  0  0  0  0  0
   39.9660   34.1610   39.7560 N   0  0  0  0  0  0  0  0  0  0  0  0
   39.0160   33.2310   39.9180 C   0  0  0  0  0  0  0  0  0  0  0  0
   37.7690   33.0530   39.4090 C   0  0  0  0  0  3  0  0  0  0  0  0
   41.3450   32.1480   41.8480 H   0  0  0  0  0  0  0  0  0  0  0  0
  1  2  1  0  0  0  0
  2  3  2  0  0  0  0
  2  7  1  0  0  0  0
  3  4  1  0  0  0  0
  4  8  1  0  0  0  0
  4  5  2  0  0  0  0
  5  9  1  0  0  0  0
  6 10  1  0  0  0  0
  6  5  1  0  0  0  0
  7  6  2  0  0  0  0
 11 12  1  0  0  0  0
 12 13  2  0  0  0  0
 12 18  1  0  0  0  0
 13  3  1  0  0  0  0
 14 13  1  0  0  0  0
 15 14  2  0  0  0  0
 16 15  1  0  0  0  0
 16 11  2  0  0  0  0
 17 11  1  0  0  0  0
 19 15  1  0  0  0  0
 20 21  1  1  0  0  0
 20  7  1  0  0  0  0
 22 23  1  0  0  0  0
 23 20  1  0  0  0  0
 23 24  2  0  0  0  0
 24 25  1  0  0  0  0
 26 24  1  0  0  0  0
 26 27  1  0  0  0  0
 27 33  1  0  0  0  0
 28 29  1  0  0  0  0
 28 27  1  0  0  0  0
 30 31  1  0  0  0  0
 30 28  2  0  0  0  0
 31 26  2  0  0  0  0
 32 22  2  0  0  0  0
 32 31  1  0  0  0  0
M  END
>  <minimizedAffinity>
-6.18399382

$$$$

 OpenBabel03242520023D

 33 36  0  0  1  0  0  0  0  0999 V2000
   36.3540   27.2830   38.2070 Br  0  0  0  0  0  0  0  0  0  0  0  0
   36.7200   26.4790   39.8930 C   0  0  0  0  0  0  0  0  0  0  0  0
   37.0890   25.1590   40.0080 C   0  0  0  0  0  0  0  0  0  0  0  0
   37.3190   24.6520   41.2880 C   0  0  0  0  0  0  0  0  0  0  0  0
   37.1880   25.4270   42.4220 C   0  0  0  0  0  0  0  0  0  0  0  0
   36.8140   26.7680   42.3080 C   0  0  0  0  0  0  0  0  0  0  0  0
   36.5950   27.2330   41.0270 C   0  0  0  0  0  0  0  0  0  0  0  0
   37.6040   23.6090   41.2950 H   0  0  0  0  0  0  0  0  0  0  0  0
   37.3830   24.9680   43.3950 H   0  0  0  0  0  0  0  0  0  0  0  0
   36.7090   27.3850   43.1880 H   0  0  0  0  0  0  0  0  0  0  0  0
   36.4130   22.8790   37.0740 C   0  0  0  0  0  0  0  0  0  0  0  0
   36.2160   23.6140   38.2580 C   0  0  0  0  0  0  0  0  0  0  0  0
   37.2300   24.3750   38.7860 C   0  0  0  0  0  0  0  0  0  0  0  0
   38.4010   24.3500   38.0770 N   0  0  0  0  0  0  0  0  0  0  0  0
   38.5810   23.6510   36.9550 C   0  0  0  0  0  0  0  0  0  0  0  0
   37.5970   22.9250   36.4610 N   0  0  0  0  0  0  0  0  0  0  0  0
   35.5650   22.3170   36.7430 H   0  0  0  0  0  0  0  0  0  0  0  0
   35.2870   23.6080   38.7840 H   0  0  0  0  0  0  0  0  0  0  0  0
   39.5830   23.7850   36.5730 H   0  0  0  0  0  0  0  0  0  0  0  0
   36.2410   28.6290   40.9370 C   0  0  2  0  0  3  0  0  0  0  0  0
   35.0110   29.0050   40.8510 O   0  0  0  0  0  1  0  0  0  0  0  0
   38.3980   29.7970   41.3470 C   0  0  0  0  0  3  0  0  0  0  0  0
   37.0910   29.8130   40.9230 C   0  0  0  0  0  0  0  0  0  0  0  0
   36.6420   31.0430   40.4620 C   0  0  0  0  0  0  0  0  0  0  0  0
   35.6110   31.1630   40.0920 H   0  0  0  0  0  0  0  0  0  0  0  0
   37.3900   32.1980   40.4070 C   0  0  0  0  0  0  0  0  0  0  0  0
   37.1460   33.4560   40.0060 N   0  0  0  0  0  0  0  0  0  0  0  0
   38.2690   34.1600   40.1870 C   0  0  0  0  0  0  0  0  0  0  0  0
   38.3010   35.2200   39.9260 H   0  0  0  0  0  0  0  0  0  0  0  0
   39.2230   33.3680   40.6980 N   0  0  0  0  0  0  0  0  0  0  0  0
   38.6970   32.1450   40.8420 C   0  0  0  0  0  0  0  0  0  0  0  0
   39.1730   30.9570   41.3000 C   0  0  0  0  0  3  0  0  0  0  0  0
   36.2250   33.7950   39.6220 H   0  0  0  0  0  0  0  0  0  0  0  0
  1  2  1  0  0  0  0
  2  3  2  0  0  0  0
  2  7  1  0  0  0  0
  3  4  1  0  0  0  0
  4  8  1  0  0  0  0
  4  5  2  0  0  0  0
  5  9  1  0  0  0  0
  6  5  1  0  0  0  0
  6 10  1  0  0  0  0
  7  6  2  0  0  0  0
 11 12  1  0  0  0  0
 12 18  1  0  0  0  0
 12 13  2  0  0  0  0
 13  3  1  0  0  0  0
 14 13  1  0  0  0  0
 15 14  2  0  0  0  0
 16 15  1  0  0  0  0
 16 11  2  0  0  0  0
 17 11  1  0  0  0  0
 19 15  1  0  0  0  0
 20 21  1  6  0  0  0
 20  7  1  0  0  0  0
 23 20  1  0  0  0  0
 23 22  2  0  0  0  0
 24 23  1  0  0  0  0
 25 24  1  0  0  0  0
 26 24  2  0  0  0  0
 26 31  1  0  0  0  0
 27 28  1  0  0  0  0
 27 26  1  0  0  0  0
 28 30  2  0  0  0  0
 29 28  1  0  0  0  0
 30 31  1  0  0  0  0
 31 32  2  0  0  0  0
 32 22  1  0  0  0  0
 33 27  1  0  0  0  0
M  END
>  <minimizedAffinity>
-5.79893923

$$$$

 OpenBabel03242520023D

 33 36  0  0  1  0  0  0  0  0999 V2000
   37.5890   27.6990   38.9970 Br  0  0  0  0  0  0  0  0  0  0  0  0
   37.5860   27.7960   40.8980 C   0  0  0  0  0  0  0  0  0  0  0  0
   37.6240   26.6690   41.6870 C   0  0  0  0  0  0  0  0  0  0  0  0
   37.6000   26.8380   43.0720 C   0  0  0  0  0  0  0  0  0  0  0  0
   37.5400   28.0840   43.6610 C   0  0  0  0  0  0  0  0  0  0  0  0
   37.5020   29.2300   42.8630 C   0  0  0  0  0  0  0  0  0  0  0  0
   37.5280   29.0230   41.4990 C   0  0  0  0  0  0  0  0  0  0  0  0
   37.6330   25.9080   43.6210 H   0  0  0  0  0  0  0  0  0  0  0  0
   37.5240   28.1460   44.7530 H   0  0  0  0  0  0  0  0  0  0  0  0
   37.4550   30.2110   43.3130 H   0  0  0  0  0  0  0  0  0  0  0  0
   36.7400   23.3380   40.1420 C   0  0  0  0  0  0  0  0  0  0  0  0
   36.6020   24.5830   40.7840 C   0  0  0  0  0  0  0  0  0  0  0  0
   37.7010   25.3710   41.0270 C   0  0  0  0  0  0  0  0  0  0  0  0
   38.8920   24.8470   40.6020 N   0  0  0  0  0  0  0  0  0  0  0  0
   39.0160   23.6670   39.9940 C   0  0  0  0  0  0  0  0  0  0  0  0
   37.9510   22.9220   39.7680 N   0  0  0  0  0  0  0  0  0  0  0  0
   35.8270   22.7990   39.9980 H   0  0  0  0  0  0  0  0  0  0  0  0
   35.6540   24.9580   41.1020 H   0  0  0  0  0  0  0  0  0  0  0  0
   40.0490   23.4630   39.7500 H   0  0  0  0  0  0  0  0  0  0  0  0
   37.5190   30.2240   40.6990 C   0  0  1  0  0  3  0  0  0  0  0  0
   36.4170   30.7420   40.2780 O   0  0  0  0  0  1  0  0  0  0  0  0
   39.5010   31.6770   41.0820 C   0  0  0  0  0  3  0  0  0  0  0  0
   38.6280   31.0460   40.2300 C   0  0  0  0  0  0  0  0  0  0  0  0
   38.8900   31.2360   38.8800 C   0  0  0  0  0  0  0  0  0  0  0  0
   38.2540   30.7670   38.1120 H   0  0  0  0  0  0  0  0  0  0  0  0
   39.9240   31.9850   38.3640 C   0  0  0  0  0  0  0  0  0  0  0  0
   40.3370   32.2840   37.1220 N   0  0  0  0  0  0  0  0  0  0  0  0
   41.4170   33.0660   37.2360 C   0  0  0  0  0  0  0  0  0  0  0  0
   41.9250   33.4350   36.3430 H   0  0  0  0  0  0  0  0  0  0  0  0
   41.6970   33.2680   38.5320 N   0  0  0  0  0  0  0  0  0  0  0  0
   40.7800   32.6040   39.2490 C   0  0  0  0  0  0  0  0  0  0  0  0
   40.5560   32.4410   40.5790 C   0  0  0  0  0  3  0  0  0  0  0  0
   39.8730   31.9480   36.2380 H   0  0  0  0  0  0  0  0  0  0  0  0
  1  2  1  0  0  0  0
  2  7  2  0  0  0  0
  2  3  1  0  0  0  0
  3  4  2  0  0  0  0
  4  8  1  0  0  0  0
  4  5  1  0  0  0  0
  5  9  1  0  0  0  0
  6 10  1  0  0  0  0
  6  5  2  0  0  0  0
  7  6  1  0  0  0  0
 11 12  1  0  0  0  0
 12 13  2  0  0  0  0
 12 18  1  0  0  0  0
 13  3  1  0  0  0  0
 14 13  1  0  0  0  0
 15 14  2  0  0  0  0
 16 15  1  0  0  0  0
 16 11  2  0  0  0  0
 17 11  1  0  0  0  0
 19 15  1  0  0  0  0
 20 21  1  1  0  0  0
 20  7  1  0  0  0  0
 23 20  1  0  0  0  0
 23 22  2  0  0  0  0
 24 23  1  0  0  0  0
 25 24  1  0  0  0  0
 26 24  2  0  0  0  0
 26 31  1  0  0  0  0
 27 28  1  0  0  0  0
 27 26  1  0  0  0  0
 28 30  2  0  0  0  0
 29 28  1  0  0  0  0
 30 31  1  0  0  0  0
 31 32  2  0  0  0  0
 32 22  1  0  0  0  0
 33 27  1  0  0  0  0
M  END
>  <minimizedAffinity>
-5.75986814

$$$$

 OpenBabel03242520023D

 33 36  0  0  1  0  0  0  0  0999 V2000
   38.4250   30.6810   41.3910 Br  0  0  0  0  0  0  0  0  0  0  0  0
   37.9320   30.6260   39.5540 C   0  0  0  0  0  0  0  0  0  0  0  0
   38.5930   31.3620   38.5980 C   0  0  0  0  0  0  0  0  0  0  0  0
   38.1480   31.2710   37.2780 C   0  0  0  0  0  0  0  0  0  0  0  0
   37.0810   30.4760   36.9130 C   0  0  0  0  0  0  0  0  0  0  0  0
   36.4090   29.7270   37.8810 C   0  0  0  0  0  0  0  0  0  0  0  0
   36.8770   29.8430   39.1750 C   0  0  0  0  0  0  0  0  0  0  0  0
   38.7180   31.8780   36.5880 H   0  0  0  0  0  0  0  0  0  0  0  0
   36.7840   30.4500   35.8610 H   0  0  0  0  0  0  0  0  0  0  0  0
   35.5720   29.1010   37.6080 H   0  0  0  0  0  0  0  0  0  0  0  0
   40.7160   34.1560   39.9940 C   0  0  0  0  0  0  0  0  0  0  0  0
   39.5840   33.4140   39.6070 C   0  0  0  0  0  0  0  0  0  0  0  0
   39.7240   32.1800   39.0200 C   0  0  0  0  0  0  0  0  0  0  0  0
   41.0180   31.7610   38.8560 N   0  0  0  0  0  0  0  0  0  0  0  0
   42.0850   32.4700   39.2250 C   0  0  0  0  0  0  0  0  0  0  0  0
   41.9340   33.6540   39.7870 N   0  0  0  0  0  0  0  0  0  0  0  0
   40.5040   35.1050   40.4410 H   0  0  0  0  0  0  0  0  0  0  0  0
   38.5900   33.7740   39.7510 H   0  0  0  0  0  0  0  0  0  0  0  0
   42.9990   31.9400   38.9970 H   0  0  0  0  0  0  0  0  0  0  0  0
   36.1840   29.0350   40.1490 C   0  0  1  0  0  3  0  0  0  0  0  0
   35.0580   29.4080   40.6520 O   0  0  0  0  0  1  0  0  0  0  0  0
   36.6920   27.5560   42.0830 C   0  0  0  0  0  3  0  0  0  0  0  0
   36.5500   27.7490   40.7310 C   0  0  0  0  0  0  0  0  0  0  0  0
   36.7660   26.6190   39.9530 C   0  0  0  0  0  0  0  0  0  0  0  0
   36.6700   26.6640   38.8570 H   0  0  0  0  0  0  0  0  0  0  0  0
   37.1010   25.3720   40.4330 C   0  0  0  0  0  0  0  0  0  0  0  0
   37.3470   24.1830   39.8600 N   0  0  0  0  0  0  0  0  0  0  0  0
   37.6250   23.3160   40.8410 C   0  0  0  0  0  0  0  0  0  0  0  0
   37.8590   22.2750   40.6050 H   0  0  0  0  0  0  0  0  0  0  0  0
   37.5600   23.9360   42.0270 N   0  0  0  0  0  0  0  0  0  0  0  0
   37.2350   25.2150   41.7950 C   0  0  0  0  0  0  0  0  0  0  0  0
   37.0310   26.2990   42.5890 C   0  0  0  0  0  3  0  0  0  0  0  0
   37.3170   23.9980   38.8230 H   0  0  0  0  0  0  0  0  0  0  0  0
  2  1  1  0  0  0  0
  3 13  1  0  0  0  0
  3  2  2  0  0  0  0
  4  3  1  0  0  0  0
  5  4  2  0  0  0  0
  5  6  1  0  0  0  0
  6  7  2  0  0  0  0
  7  2  1  0  0  0  0
  7 20  1  0  0  0  0
  8  4  1  0  0  0  0
  9  5  1  0  0  0  0
 10  6  1  0  0  0  0
 11 17  1  0  0  0  0
 12 18  1  0  0  0  0
 12 11  2  0  0  0  0
 13 12  1  0  0  0  0
 14 13  2  0  0  0  0
 14 15  1  0  0  0  0
 15 16  2  0  0  0  0
 16 11  1  0  0  0  0
 19 15  1  0  0  0  0
 20 21  1  6  0  0  0
 20 23  1  0  0  0  0
 22 32  1  0  0  0  0
 23 22  2  0  0  0  0
 24 26  2  0  0  0  0
 24 23  1  0  0  0  0
 25 24  1  0  0  0  0
 26 31  1  0  0  0  0
 27 26  1  0  0  0  0
 27 28  1  0  0  0  0
 28 30  2  0  0  0  0
 29 28  1  0  0  0  0
 31 30  1  0  0  0  0
 31 32  2  0  0  0  0
 33 27  1  0  0  0  0
M  END
>  <minimizedAffinity>
-5.71536255

$$$$

 OpenBabel03242520023D

 33 36  0  0  1  0  0  0  0  0999 V2000
   38.6450   28.6360   41.5380 Br  0  0  0  0  0  0  0  0  0  0  0  0
   37.3100   28.3830   40.2050 C   0  0  0  0  0  0  0  0  0  0  0  0
   36.9260   27.1310   39.7850 C   0  0  0  0  0  0  0  0  0  0  0  0
   35.9520   27.0450   38.7880 C   0  0  0  0  0  0  0  0  0  0  0  0
   35.3750   28.1630   38.2240 C   0  0  0  0  0  0  0  0  0  0  0  0
   35.7620   29.4360   38.6490 C   0  0  0  0  0  0  0  0  0  0  0  0
   36.7270   29.4810   39.6360 C   0  0  0  0  0  0  0  0  0  0  0  0
   35.7060   26.0290   38.5130 H   0  0  0  0  0  0  0  0  0  0  0  0
   34.6170   28.0250   37.4480 H   0  0  0  0  0  0  0  0  0  0  0  0
   35.3170   30.3190   38.2150 H   0  0  0  0  0  0  0  0  0  0  0  0
   37.6800   24.2300   42.0830 C   0  0  0  0  0  0  0  0  0  0  0  0
   37.0310   25.3460   41.5210 C   0  0  0  0  0  0  0  0  0  0  0  0
   37.5500   25.9730   40.4140 C   0  0  0  0  0  0  0  0  0  0  0  0
   38.7110   25.4290   39.9330 N   0  0  0  0  0  0  0  0  0  0  0  0
   39.3200   24.3720   40.4710 C   0  0  0  0  0  0  0  0  0  0  0  0
   38.8090   23.7800   41.5340 N   0  0  0  0  0  0  0  0  0  0  0  0
   37.1990   23.8130   42.9430 H   0  0  0  0  0  0  0  0  0  0  0  0
   36.1260   25.7420   41.9250 H   0  0  0  0  0  0  0  0  0  0  0  0
   40.2180   24.1220   39.9220 H   0  0  0  0  0  0  0  0  0  0  0  0
   37.0860   30.8070   40.0780 C   0  0  1  0  0  3  0  0  0  0  0  0
   36.3540   31.4550   40.9180 O   0  0  0  0  0  1  0  0  0  0  0  0
   38.7280   32.6150   40.5470 C   0  0  0  0  0  3  0  0  0  0  0  0
   38.2310   31.6350   39.7230 C   0  0  0  0  0  0  0  0  0  0  0  0
   38.9140   31.4800   38.5240 C   0  0  0  0  0  0  0  0  0  0  0  0
   38.6020   30.7160   37.7940 H   0  0  0  0  0  0  0  0  0  0  0  0
   40.0100   32.2140   38.1280 C   0  0  0  0  0  0  0  0  0  0  0  0
   40.7910   32.2180   37.0360 N   0  0  0  0  0  0  0  0  0  0  0  0
   41.7180   33.1670   37.2090 C   0  0  0  0  0  0  0  0  0  0  0  0
   42.4690   33.3490   36.4380 H   0  0  0  0  0  0  0  0  0  0  0  0
   41.5370   33.7680   38.3940 N   0  0  0  0  0  0  0  0  0  0  0  0
   40.4800   33.1890   38.9800 C   0  0  0  0  0  0  0  0  0  0  0  0
   39.8370   33.3710   40.1640 C   0  0  0  0  0  3  0  0  0  0  0  0
   40.6710   31.5750   36.2100 H   0  0  0  0  0  0  0  0  0  0  0  0
  2  1  1  0  0  0  0
  3  2  1  0  0  0  0
  3 13  1  0  0  0  0
  4  3  2  0  0  0  0
  5  6  2  0  0  0  0
  5  4  1  0  0  0  0
  6  7  1  0  0  0  0
  7 20  1  0  0  0  0
  7  2  2  0  0  0  0
  8  4  1  0  0  0  0
  9  5  1  0  0  0  0
 10  6  1  0  0  0  0
 11 17  1  0  0  0  0
 12 18  1  0  0  0  0
 12 11  2  0  0  0  0
 13 12  1  0  0  0  0
 14 13  2  0  0  0  0
 14 15  1  0  0  0  0
 15 16  2  0  0  0  0
 16 11  1  0  0  0  0
 19 15  1  0  0  0  0
 20 21  1  1  0  0  0
 23 20  1  0  0  0  0
 23 22  2  0  0  0  0
 24 23  1  0  0  0  0
 25 24  1  0  0  0  0
 26 24  2  0  0  0  0
 26 31  1  0  0  0  0
 27 28  1  0  0  0  0
 27 26  1  0  0  0  0
 28 30  2  0  0  0  0
 29 28  1  0  0  0  0
 30 31  1  0  0  0  0
 31 32  2  0  0  0  0
 32 22  1  0  0  0  0
 33 27  1  0  0  0  0
M  END
>  <minimizedAffinity>
-5.70553017

$$$$

 OpenBabel03242520023D

 33 36  0  0  1  0  0  0  0  0999 V2000
   40.2170   26.6460   40.6080 Br  0  0  0  0  0  0  0  0  0  0  0  0
   38.8560   27.1480   41.8400 C   0  0  0  0  0  0  0  0  0  0  0  0
   37.6370   26.5120   41.8820 C   0  0  0  0  0  0  0  0  0  0  0  0
   36.6940   26.9620   42.8070 C   0  0  0  0  0  0  0  0  0  0  0  0
   36.9480   28.0110   43.6670 C   0  0  0  0  0  0  0  0  0  0  0  0
   38.1850   28.6590   43.6280 C   0  0  0  0  0  0  0  0  0  0  0  0
   39.0920   28.1860   42.7000 C   0  0  0  0  0  0  0  0  0  0  0  0
   35.7640   26.4120   42.7770 H   0  0  0  0  0  0  0  0  0  0  0  0
   36.1650   28.3140   44.3680 H   0  0  0  0  0  0  0  0  0  0  0  0
   38.3960   29.4810   44.2960 H   0  0  0  0  0  0  0  0  0  0  0  0
   36.5660   24.4180   38.9270 C   0  0  0  0  0  0  0  0  0  0  0  0
   36.7520   25.5310   39.7690 C   0  0  0  0  0  0  0  0  0  0  0  0
   37.4110   25.4000   40.9670 C   0  0  0  0  0  0  0  0  0  0  0  0
   37.8500   24.1330   41.2490 N   0  0  0  0  0  0  0  0  0  0  0  0
   37.6690   23.0830   40.4460 C   0  0  0  0  0  0  0  0  0  0  0  0
   37.0340   23.2260   39.2990 N   0  0  0  0  0  0  0  0  0  0  0  0
   36.0410   24.6220   38.0170 H   0  0  0  0  0  0  0  0  0  0  0  0
   36.3950   26.5040   39.5140 H   0  0  0  0  0  0  0  0  0  0  0  0
   38.1000   22.1900   40.8760 H   0  0  0  0  0  0  0  0  0  0  0  0
   40.3720   28.8520   42.7030 C   0  0  1  0  0  3  0  0  0  0  0  0
   41.3720   28.3800   43.3630 O   0  0  0  0  0  1  0  0  0  0  0  0
   40.3270   30.4490   40.7970 C   0  0  0  0  0  3  0  0  0  0  0  0
   40.7910   30.0780   42.0350 C   0  0  0  0  0  0  0  0  0  0  0  0
   41.6830   30.9700   42.6150 C   0  0  0  0  0  0  0  0  0  0  0  0
   42.1100   30.7710   43.6110 H   0  0  0  0  0  0  0  0  0  0  0  0
   42.1130   32.1510   42.0510 C   0  0  0  0  0  0  0  0  0  0  0  0
   42.9500   33.1250   42.4410 N   0  0  0  0  0  0  0  0  0  0  0  0
   42.9800   34.0410   41.4650 C   0  0  0  0  0  0  0  0  0  0  0  0
   43.6030   34.9330   41.5680 H   0  0  0  0  0  0  0  0  0  0  0  0
   42.1750   33.6630   40.4630 N   0  0  0  0  0  0  0  0  0  0  0  0
   41.6260   32.4900   40.8080 C   0  0  0  0  0  0  0  0  0  0  0  0
   40.7510   31.6420   40.2080 C   0  0  0  0  0  3  0  0  0  0  0  0
   43.4730   33.1380   43.3550 H   0  0  0  0  0  0  0  0  0  0  0  0
  1  2  1  0  0  0  0
  2  3  2  0  0  0  0
  2  7  1  0  0  0  0
  3  4  1  0  0  0  0
  4  5  2  0  0  0  0
  5  9  1  0  0  0  0
  6  5  1  0  0  0  0
  6 10  1  0  0  0  0
  7 20  1  0  0  0  0
  7  6  2  0  0  0  0
  8  4  1  0  0  0  0
 11 16  2  0  0  0  0
 11 12  1  0  0  0  0
 12 13  2  0  0  0  0
 13 14  1  0  0  0  0
 13  3  1  0  0  0  0
 15 19  1  0  0  0  0
 15 14  2  0  0  0  0
 16 15  1  0  0  0  0
 17 11  1  0  0  0  0
 18 12  1  0  0  0  0
 20 21  1  6  0  0  0
 22 23  1  0  0  0  0
 23 24  2  0  0  0  0
 23 20  1  0  0  0  0
 24 25  1  0  0  0  0
 26 27  1  0  0  0  0
 26 24  1  0  0  0  0
 27 33  1  0  0  0  0
 28 29  1  0  0  0  0
 28 27  1  0  0  0  0
 30 31  1  0  0  0  0
 30 28  2  0  0  0  0
 31 26  2  0  0  0  0
 32 22  2  0  0  0  0
 32 31  1  0  0  0  0
M  END
>  <minimizedAffinity>
-5.59757471

$$$$

 OpenBabel03242520023D

 33 36  0  0  1  0  0  0  0  0999 V2000
   39.8460   29.1610   41.4020 Br  0  0  0  0  0  0  0  0  0  0  0  0
   38.0450   29.4540   40.8600 C   0  0  0  0  0  0  0  0  0  0  0  0
   37.6860   30.5120   40.0580 C   0  0  0  0  0  0  0  0  0  0  0  0
   36.3380   30.6560   39.7270 C   0  0  0  0  0  0  0  0  0  0  0  0
   35.3720   29.7800   40.1770 C   0  0  0  0  0  0  0  0  0  0  0  0
   35.7330   28.7040   40.9900 C   0  0  0  0  0  0  0  0  0  0  0  0
   37.0750   28.5940   41.2950 C   0  0  0  0  0  0  0  0  0  0  0  0
   36.1370   31.5110   39.0960 H   0  0  0  0  0  0  0  0  0  0  0  0
   34.3330   29.9500   39.8800 H   0  0  0  0  0  0  0  0  0  0  0  0
   34.9860   28.0100   41.3470 H   0  0  0  0  0  0  0  0  0  0  0  0
   40.3790   32.1660   37.9890 C   0  0  0  0  0  0  0  0  0  0  0  0
   39.3710   31.2660   38.3830 C   0  0  0  0  0  0  0  0  0  0  0  0
   38.7370   31.4100   39.5930 C   0  0  0  0  0  0  0  0  0  0  0  0
   39.1660   32.4700   40.3460 N   0  0  0  0  0  0  0  0  0  0  0  0
   40.1220   33.3190   39.9670 C   0  0  0  0  0  0  0  0  0  0  0  0
   40.7200   33.1670   38.8010 N   0  0  0  0  0  0  0  0  0  0  0  0
   40.8120   31.9700   37.0300 H   0  0  0  0  0  0  0  0  0  0  0  0
   39.0640   30.4490   37.7670 H   0  0  0  0  0  0  0  0  0  0  0  0
   40.2900   34.0740   40.7220 H   0  0  0  0  0  0  0  0  0  0  0  0
   37.4240   27.4560   42.1110 C   0  0  2  0  0  3  0  0  0  0  0  0
   37.5310   27.5560   43.3910 O   0  0  0  0  0  1  0  0  0  0  0  0
   38.7540   25.3590   42.2460 C   0  0  0  0  0  3  0  0  0  0  0  0
   37.7070   26.0790   41.7260 C   0  0  0  0  0  0  0  0  0  0  0  0
   36.9210   25.3890   40.8120 C   0  0  0  0  0  0  0  0  0  0  0  0
   36.0510   25.8730   40.3400 H   0  0  0  0  0  0  0  0  0  0  0  0
   37.1190   24.0860   40.4110 C   0  0  0  0  0  0  0  0  0  0  0  0
   36.4880   23.2610   39.5600 N   0  0  0  0  0  0  0  0  0  0  0  0
   37.1410   22.0930   39.5770 C   0  0  0  0  0  0  0  0  0  0  0  0
   36.8000   21.2640   38.9530 H   0  0  0  0  0  0  0  0  0  0  0  0
   38.1770   22.1640   40.4250 N   0  0  0  0  0  0  0  0  0  0  0  0
   38.1800   23.3950   40.9540 C   0  0  0  0  0  0  0  0  0  0  0  0
   38.9720   24.0370   41.8520 C   0  0  0  0  0  3  0  0  0  0  0  0
   35.6350   23.5170   38.9970 H   0  0  0  0  0  0  0  0  0  0  0  0
  2  7  1  0  0  0  0
  2  1  1  0  0  0  0
  3  2  2  0  0  0  0
  4  3  1  0  0  0  0
  4  5  2  0  0  0  0
  5  6  1  0  0  0  0
  6  7  2  0  0  0  0
  6 10  1  0  0  0  0
  7 20  1  0  0  0  0
  8  4  1  0  0  0  0
  9  5  1  0  0  0  0
 11 12  2  0  0  0  0
 11 16  1  0  0  0  0
 12 13  1  0  0  0  0
 13  3  1  0  0  0  0
 13 14  2  0  0  0  0
 15 14  1  0  0  0  0
 15 19  1  0  0  0  0
 16 15  2  0  0  0  0
 17 11  1  0  0  0  0
 18 12  1  0  0  0  0
 20 21  1  6  0  0  0
 23 20  1  0  0  0  0
 23 22  2  0  0  0  0
 24 23  1  0  0  0  0
 25 24  1  0  0  0  0
 26 24  2  0  0  0  0
 26 31  1  0  0  0  0
 27 28  1  0  0  0  0
 27 26  1  0  0  0  0
 28 30  2  0  0  0  0
 29 28  1  0  0  0  0
 30 31  1  0  0  0  0
 31 32  2  0  0  0  0
 32 22  1  0  0  0  0
 33 27  1  0  0  0  0
M  END
>  <minimizedAffinity>
-5.583601

$$$$

 OpenBabel03242520023D

 33 36  0  0  1  0  0  0  0  0999 V2000
   36.5530   26.7930   39.4260 Br  0  0  0  0  0  0  0  0  0  0  0  0
   36.6380   28.6310   39.9100 C   0  0  0  0  0  0  0  0  0  0  0  0
   36.4100   29.6370   39.0010 C   0  0  0  0  0  0  0  0  0  0  0  0
   36.5130   30.9570   39.4440 C   0  0  0  0  0  0  0  0  0  0  0  0
   36.8320   31.2730   40.7480 C   0  0  0  0  0  0  0  0  0  0  0  0
   37.0630   30.2540   41.6750 C   0  0  0  0  0  0  0  0  0  0  0  0
   36.9520   28.9620   41.2000 C   0  0  0  0  0  0  0  0  0  0  0  0
   36.3200   31.6880   38.6710 H   0  0  0  0  0  0  0  0  0  0  0  0
   36.8960   32.3280   41.0300 H   0  0  0  0  0  0  0  0  0  0  0  0
   37.3130   30.4890   42.6990 H   0  0  0  0  0  0  0  0  0  0  0  0
   34.4990   28.7040   35.8800 C   0  0  0  0  0  0  0  0  0  0  0  0
   34.7710   29.0640   37.2130 C   0  0  0  0  0  0  0  0  0  0  0  0
   36.0630   29.2640   37.6350 C   0  0  0  0  0  0  0  0  0  0  0  0
   37.0190   29.0860   36.6710 N   0  0  0  0  0  0  0  0  0  0  0  0
   36.7540   28.7450   35.4090 C   0  0  0  0  0  0  0  0  0  0  0  0
   35.5080   28.5570   35.0200 N   0  0  0  0  0  0  0  0  0  0  0  0
   33.4620   28.5710   35.6490 H   0  0  0  0  0  0  0  0  0  0  0  0
   33.9970   29.1930   37.9380 H   0  0  0  0  0  0  0  0  0  0  0  0
   37.6640   28.6630   34.8310 H   0  0  0  0  0  0  0  0  0  0  0  0
   37.1650   27.9290   42.1850 C   0  0  1  0  0  3  0  0  0  0  0  0
   36.2070   27.5130   42.9390 O   0  0  0  0  0  1  0  0  0  0  0  0
   38.4350   25.8210   42.5440 C   0  0  0  0  0  3  0  0  0  0  0  0
   38.3770   27.1930   42.5230 C   0  0  0  0  0  0  0  0  0  0  0  0
   39.5700   27.8320   42.8340 C   0  0  0  0  0  0  0  0  0  0  0  0
   39.6340   28.9320   42.8390 H   0  0  0  0  0  0  0  0  0  0  0  0
   40.7540   27.2040   43.1490 C   0  0  0  0  0  0  0  0  0  0  0  0
   41.9850   27.6320   43.4720 N   0  0  0  0  0  0  0  0  0  0  0  0
   42.7450   26.5490   43.6780 C   0  0  0  0  0  0  0  0  0  0  0  0
   43.7950   26.6600   43.9540 H   0  0  0  0  0  0  0  0  0  0  0  0
   42.0150   25.4410   43.4900 N   0  0  0  0  0  0  0  0  0  0  0  0
   40.7750   25.8260   43.1610 C   0  0  0  0  0  0  0  0  0  0  0  0
   39.6260   25.1650   42.8610 C   0  0  0  0  0  3  0  0  0  0  0  0
   42.2700   28.6440   43.5420 H   0  0  0  0  0  0  0  0  0  0  0  0
  1  2  1  0  0  0  0
  2  7  1  0  0  0  0
  3  4  1  0  0  0  0
  3  2  2  0  0  0  0
  4  5  2  0  0  0  0
  5  9  1  0  0  0  0
  5  6  1  0  0  0  0
  6 10  1  0  0  0  0
  7  6  2  0  0  0  0
  7 20  1  0  0  0  0
  8  4  1  0  0  0  0
 11 12  1  0  0  0  0
 12 13  2  0  0  0  0
 12 18  1  0  0  0  0
 13  3  1  0  0  0  0
 14 13  1  0  0  0  0
 15 14  2  0  0  0  0
 16 15  1  0  0  0  0
 16 11  2  0  0  0  0
 17 11  1  0  0  0  0
 19 15  1  0  0  0  0
 20 23  1  0  0  0  0
 20 21  1  6  0  0  0
 22 32  1  0  0  0  0
 23 22  2  0  0  0  0
 23 24  1  0  0  0  0
 24 25  1  0  0  0  0
 24 26  2  0  0  0  0
 26 31  1  0  0  0  0
 26 27  1  0  0  0  0
 27 33  1  0  0  0  0
 27 28  1  0  0  0  0
 28 29  1  0  0  0  0
 30 28  2  0  0  0  0
 31 30  1  0  0  0  0
 32 31  2  0  0  0  0
M  END
>  <minimizedAffinity>
-5.54473305

$$$$
