
 OpenBabel03242520003D

 33 36  0  0  1  0  0  0  0  0999 V2000
   44.5800   33.0940   41.1920 Br  0  0  0  0  0  0  0  0  0  0  0  0
   46.2560   33.9740   40.9940 C   0  0  0  0  0  0  0  0  0  0  0  0
   46.7970   34.7490   41.9930 C   0  0  0  0  0  0  0  0  0  0  0  0
   48.0220   35.3710   41.7500 C   0  0  0  0  0  0  0  0  0  0  0  0
   48.6940   35.2320   40.5530 C   0  0  0  0  0  0  0  0  0  0  0  0
   48.1480   34.4450   39.5360 C   0  0  0  0  0  0  0  0  0  0  0  0
   46.9350   33.8460   39.8140 C   0  0  0  0  0  0  0  0  0  0  0  0
   48.3800   35.9610   42.5820 H   0  0  0  0  0  0  0  0  0  0  0  0
   49.6510   35.7460   40.4270 H   0  0  0  0  0  0  0  0  0  0  0  0
   48.6640   34.3280   38.5950 H   0  0  0  0  0  0  0  0  0  0  0  0
   44.4930   35.9270   44.7450 C   0  0  0  0  0  0  0  0  0  0  0  0
   45.1720   35.8730   43.5130 C   0  0  0  0  0  0  0  0  0  0  0  0
   46.0630   34.8620   43.2490 C   0  0  0  0  0  0  0  0  0  0  0  0
   46.2200   33.9510   44.2600 N   0  0  0  0  0  0  0  0  0  0  0  0
   45.5740   34.0080   45.4250 C   0  0  0  0  0  0  0  0  0  0  0  0
   44.7210   34.9860   45.6630 N   0  0  0  0  0  0  0  0  0  0  0  0
   43.8210   36.7520   44.8560 H   0  0  0  0  0  0  0  0  0  0  0  0
   45.0230   36.6030   42.7480 H   0  0  0  0  0  0  0  0  0  0  0  0
   45.8570   33.1850   46.0650 H   0  0  0  0  0  0  0  0  0  0  0  0
   46.4090   33.0150   38.7580 C   0  0  1  0  0  3  0  0  0  0  0  0
   45.4880   33.4410   37.9650 O   0  0  0  0  0  1  0  0  0  0  0  0
   47.3990   30.7830   39.2260 C   0  0  0  0  0  3  0  0  0  0  0  0
   46.7550   31.6510   38.3790 C   0  0  0  0  0  0  0  0  0  0  0  0
   46.4430   31.1260   37.1330 C   0  0  0  0  0  0  0  0  0  0  0  0
   45.9190   31.7350   36.3800 H   0  0  0  0  0  0  0  0  0  0  0  0
   46.7260   29.8450   36.7120 C   0  0  0  0  0  0  0  0  0  0  0  0
   46.5120   29.1630   35.5750 N   0  0  0  0  0  0  0  0  0  0  0  0
   47.0140   27.9330   35.7440 C   0  0  0  0  0  0  0  0  0  0  0  0
   46.9510   27.1990   34.9390 H   0  0  0  0  0  0  0  0  0  0  0  0
   47.5420   27.8250   36.9720 N   0  0  0  0  0  0  0  0  0  0  0  0
   47.3740   29.0010   37.5890 C   0  0  0  0  0  0  0  0  0  0  0  0
   47.6960   29.4810   38.8180 C   0  0  0  0  0  3  0  0  0  0  0  0
   46.0340   29.5530   34.7220 H   0  0  0  0  0  0  0  0  0  0  0  0
  2  1  1  0  0  0  0
  2  3  1  0  0  0  0
  3 13  1  0  0  0  0
  4  3  2  0  0  0  0
  4  8  1  0  0  0  0
  5  4  1  0  0  0  0
  6  7  1  0  0  0  0
  6  5  2  0  0  0  0
  7  2  2  0  0  0  0
  9  5  1  0  0  0  0
 10  6  1  0  0  0  0
 11 17  1  0  0  0  0
 11 16  1  0  0  0  0
 12 11  2  0  0  0  0
 13 12  1  0  0  0  0
 13 14  2  0  0  0  0
 14 15  1  0  0  0  0
 15 16  2  0  0  0  0
 15 19  1  0  0  0  0
 18 12  1  0  0  0  0
 20 21  1  6  0  0  0
 20  7  1  0  0  0  0
 23 20  1  0  0  0  0
 23 22  2  0  0  0  0
 24 23  1  0  0  0  0
 25 24  1  0  0  0  0
 26 24  2  0  0  0  0
 26 31  1  0  0  0  0
 27 28  1  0  0  0  0
 27 26  1  0  0  0  0
 28 30  2  0  0  0  0
 29 28  1  0  0  0  0
 30 31  1  0  0  0  0
 31 32  2  0  0  0  0
 32 22  1  0  0  0  0
 33 27  1  0  0  0  0
M  END
>  <minimizedAffinity>
-5.27360392

>  <minimizedRMSD>
2.31105614

$$$$
