
 OpenBabel03242520003D

 33 36  0  0  1  0  0  0  0  0999 V2000
   44.7260   32.9970   41.2010 Br  0  0  0  0  0  0  0  0  0  0  0  0
   46.3610   33.9520   41.0040 C   0  0  0  0  0  0  0  0  0  0  0  0
   46.8530   34.7690   41.9950 C   0  0  0  0  0  0  0  0  0  0  0  0
   48.0510   35.4430   41.7530 C   0  0  0  0  0  0  0  0  0  0  0  0
   48.7420   35.3150   40.5660 C   0  0  0  0  0  0  0  0  0  0  0  0
   48.2450   34.4850   39.5590 C   0  0  0  0  0  0  0  0  0  0  0  0
   47.0590   33.8350   39.8340 C   0  0  0  0  0  0  0  0  0  0  0  0
   48.3710   36.0640   42.5780 H   0  0  0  0  0  0  0  0  0  0  0  0
   49.6750   35.8720   40.4420 H   0  0  0  0  0  0  0  0  0  0  0  0
   48.7780   34.3760   38.6250 H   0  0  0  0  0  0  0  0  0  0  0  0
   44.4930   35.9080   44.7150 C   0  0  0  0  0  0  0  0  0  0  0  0
   45.1890   35.8650   43.4920 C   0  0  0  0  0  0  0  0  0  0  0  0
   46.1010   34.8690   43.2400 C   0  0  0  0  0  0  0  0  0  0  0  0
   46.2590   33.9610   44.2540 N   0  0  0  0  0  0  0  0  0  0  0  0
   45.5960   34.0070   45.4100 C   0  0  0  0  0  0  0  0  0  0  0  0
   44.7230   34.9700   45.6360 N   0  0  0  0  0  0  0  0  0  0  0  0
   43.8060   36.7210   44.8170 H   0  0  0  0  0  0  0  0  0  0  0  0
   45.0390   36.5930   42.7260 H   0  0  0  0  0  0  0  0  0  0  0  0
   45.8840   33.1880   46.0540 H   0  0  0  0  0  0  0  0  0  0  0  0
   46.5850   32.9610   38.7880 C   0  0  2  0  0  3  0  0  0  0  0  0
   45.8040   33.3900   37.8580 O   0  0  0  0  0  1  0  0  0  0  0  0
   45.8720   30.6590   38.1730 C   0  0  0  0  0  3  0  0  0  0  0  0
   46.8470   31.5450   38.5600 C   0  0  0  0  0  0  0  0  0  0  0  0
   48.1140   30.9940   38.7020 C   0  0  0  0  0  0  0  0  0  0  0  0
   48.9690   31.6190   39.0010 H   0  0  0  0  0  0  0  0  0  0  0  0
   48.4380   29.6720   38.4900 C   0  0  0  0  0  0  0  0  0  0  0  0
   49.5720   28.9600   38.5720 N   0  0  0  0  0  0  0  0  0  0  0  0
   49.2780   27.6960   38.2450 C   0  0  0  0  0  0  0  0  0  0  0  0
   50.0590   26.9320   38.2440 H   0  0  0  0  0  0  0  0  0  0  0  0
   47.9720   27.5940   37.9570 N   0  0  0  0  0  0  0  0  0  0  0  0
   47.4320   28.8120   38.1030 C   0  0  0  0  0  0  0  0  0  0  0  0
   46.1790   29.3160   37.9530 C   0  0  0  0  0  3  0  0  0  0  0  0
   50.5100   29.3540   38.8480 H   0  0  0  0  0  0  0  0  0  0  0  0
  2  1  1  0  0  0  0
  2  3  1  0  0  0  0
  3 13  1  0  0  0  0
  4  3  2  0  0  0  0
  4  8  1  0  0  0  0
  5  4  1  0  0  0  0
  6  7  1  0  0  0  0
  6  5  2  0  0  0  0
  7  2  2  0  0  0  0
  9  5  1  0  0  0  0
 10  6  1  0  0  0  0
 11 17  1  0  0  0  0
 11 16  1  0  0  0  0
 12 11  2  0  0  0  0
 13 12  1  0  0  0  0
 13 14  2  0  0  0  0
 14 15  1  0  0  0  0
 15 16  2  0  0  0  0
 15 19  1  0  0  0  0
 18 12  1  0  0  0  0
 20 21  1  1  0  0  0
 20  7  1  0  0  0  0
 22 23  1  0  0  0  0
 23 24  2  0  0  0  0
 23 20  1  0  0  0  0
 24 25  1  0  0  0  0
 26 27  1  0  0  0  0
 26 24  1  0  0  0  0
 27 33  1  0  0  0  0
 28 27  1  0  0  0  0
 29 28  1  0  0  0  0
 30 31  1  0  0  0  0
 30 28  2  0  0  0  0
 31 26  2  0  0  0  0
 32 31  1  0  0  0  0
 32 22  2  0  0  0  0
M  END
>  <minimizedAffinity>
-5.13463783

>  <minimizedRMSD>
1.7985642

$$$$
