
 OpenBabel03252508013D

 32 35  0  0  1  0  0  0  0  0999 V2000
   39.2710   32.4260   39.4260 C   0  0  0  0  0  0  0  0  0  0  0  0
   39.2310   33.6290   40.1930 C   0  0  0  0  0  0  0  0  0  0  0  0
   40.4250   34.3490   40.3360 C   0  0  0  0  0  0  0  0  0  0  0  0
   41.5360   33.8570   39.7380 N   0  0  0  0  0  0  0  0  0  0  0  0
   41.5060   32.6910   39.0120 C   0  0  0  0  0  0  0  0  0  0  0  0
   40.4030   31.9770   38.8500 N   0  0  0  0  0  0  0  0  0  0  0  0
   38.3140   33.9750   40.6490 H   0  0  0  0  0  0  0  0  0  0  0  0
   40.4430   35.2620   40.9060 H   0  0  0  0  0  0  0  0  0  0  0  0
   42.7700   32.2150   38.3660 C   0  0  1  0  0  0  0  0  0  0  0  0
   42.7470   31.8420   36.9000 C   0  0  0  0  0  0  0  0  0  0  0  0
   43.3330   33.1460   37.3660 C   0  0  1  0  0  0  0  0  0  0  0  0
   43.4550   31.6010   38.9810 H   0  0  0  0  0  0  0  0  0  0  0  0
   41.7100   31.8060   36.4820 H   0  0  0  0  0  0  0  0  0  0  0  0
   43.3970   31.0270   36.5740 H   0  0  0  0  0  0  0  0  0  0  0  0
   44.4040   33.2800   37.2010 H   0  0  0  0  0  0  0  0  0  0  0  0
   42.5330   34.2920   36.9190 N   0  0  0  0  0  0  0  0  0  0  0  0
   42.4870   34.2320   35.8570 H   0  0  0  0  0  0  0  0  0  0  0  0
   43.0180   35.1840   37.1160 H   0  0  0  0  0  0  0  0  0  0  0  0
   38.0120   31.7530   39.3190 C   0  0  0  0  0  0  0  0  0  0  0  0
   37.0630   32.1430   38.5550 O   0  0  0  0  0  0  0  0  0  0  0  0
   37.2760   29.3750   39.4440 C   0  0  0  0  0  3  0  0  0  0  0  0
   37.6570   30.5490   40.0620 C   0  0  0  0  0  0  0  0  0  0  0  0
   37.6860   30.5280   41.4460 C   0  0  0  0  0  0  0  0  0  0  0  0
   37.9690   31.3930   42.0000 H   0  0  0  0  0  0  0  0  0  0  0  0
   37.3500   29.3840   42.1740 C   0  0  0  0  0  0  0  0  0  0  0  0
   37.2940   29.0990   43.4990 N   0  0  0  0  0  0  0  0  0  0  0  0
   36.9030   27.8250   43.6780 C   0  0  0  0  0  0  0  0  0  0  0  0
   36.7460   27.2480   44.5810 H   0  0  0  0  0  0  0  0  0  0  0  0
   36.7020   27.2840   42.4410 N   0  0  0  0  0  0  0  0  0  0  0  0
   36.9720   28.2260   41.5190 C   0  0  0  0  0  0  0  0  0  0  0  0
   36.9360   28.2230   40.1270 C   0  0  0  0  0  3  0  0  0  0  0  0
   37.5220   29.7670   44.2750 H   0  0  0  0  0  0  0  0  0  0  0  0
  1  2  1  0  0  0  0
  2  3  2  0  0  0  0
  2  7  1  0  0  0  0
  3  8  1  0  0  0  0
  4  3  1  0  0  0  0
  5  4  2  0  0  0  0
  6  5  1  0  0  0  0
  6  1  2  0  0  0  0
  9 12  1  1  0  0  0
  9  5  1  0  0  0  0
 10 11  1  0  0  0  0
 10  9  1  0  0  0  0
 11 15  1  6  0  0  0
 11  9  1  0  0  0  0
 13 10  1  0  0  0  0
 14 10  1  0  0  0  0
 16 18  1  0  0  0  0
 16 11  1  0  0  0  0
 17 16  1  0  0  0  0
 19  1  1  0  0  0  0
 19 22  1  0  0  0  0
 20 19  2  0  0  0  0
 21 22  2  0  0  0  0
 21 31  1  0  0  0  0
 22 23  1  0  0  0  0
 23 24  1  0  0  0  0
 23 25  2  0  0  0  0
 25 26  1  0  0  0  0
 26 27  1  0  0  0  0
 26 32  1  0  0  0  0
 27 28  1  0  0  0  0
 29 27  2  0  0  0  0
 30 25  1  0  0  0  0
 30 29  1  0  0  0  0
 31 30  2  0  0  0  0
M  END
>  <minimizedAffinity>
-5.8350234

$$$$

 OpenBabel03252508013D

 32 35  0  0  1  0  0  0  0  0999 V2000
   38.5640   29.7690   42.0740 C   0  0  0  0  0  0  0  0  0  0  0  0
   39.7970   29.9420   42.7710 C   0  0  0  0  0  0  0  0  0  0  0  0
   40.6270   30.9980   42.3720 C   0  0  0  0  0  0  0  0  0  0  0  0
   40.2050   31.7840   41.3540 N   0  0  0  0  0  0  0  0  0  0  0  0
   39.0040   31.5630   40.7240 C   0  0  0  0  0  0  0  0  0  0  0  0
   38.1870   30.5790   41.0650 N   0  0  0  0  0  0  0  0  0  0  0  0
   40.0830   29.2820   43.5790 H   0  0  0  0  0  0  0  0  0  0  0  0
   41.5670   31.1660   42.8690 H   0  0  0  0  0  0  0  0  0  0  0  0
   38.5960   32.4830   39.6150 C   0  0  1  0  0  0  0  0  0  0  0  0
   37.2870   33.2330   39.7310 C   0  0  0  0  0  0  0  0  0  0  0  0
   38.6050   33.9160   39.9750 C   0  0  1  0  0  0  0  0  0  0  0  0
   38.8570   32.1820   38.5830 H   0  0  0  0  0  0  0  0  0  0  0  0
   36.6650   32.8820   40.5920 H   0  0  0  0  0  0  0  0  0  0  0  0
   36.7270   33.4210   38.8130 H   0  0  0  0  0  0  0  0  0  0  0  0
   38.8720   34.7130   39.2780 H   0  0  0  0  0  0  0  0  0  0  0  0
   38.7630   34.3040   41.3810 N   0  0  0  0  0  0  0  0  0  0  0  0
   37.9370   34.9340   41.6160 H   0  0  0  0  0  0  0  0  0  0  0  0
   39.5990   34.8990   41.5110 H   0  0  0  0  0  0  0  0  0  0  0  0
   37.7680   28.6770   42.5450 C   0  0  0  0  0  0  0  0  0  0  0  0
   37.1690   28.6710   43.6760 O   0  0  0  0  0  0  0  0  0  0  0  0
   36.8620   27.4060   40.6000 C   0  0  0  0  0  3  0  0  0  0  0  0
   37.5430   27.4420   41.8000 C   0  0  0  0  0  0  0  0  0  0  0  0
   38.0090   26.2260   42.2730 C   0  0  0  0  0  0  0  0  0  0  0  0
   38.5450   26.1670   43.1930 H   0  0  0  0  0  0  0  0  0  0  0  0
   37.8040   25.0350   41.5740 C   0  0  0  0  0  0  0  0  0  0  0  0
   38.1440   23.7430   41.8050 N   0  0  0  0  0  0  0  0  0  0  0  0
   37.6980   22.9650   40.8030 C   0  0  0  0  0  0  0  0  0  0  0  0
   37.7770   21.8970   40.6400 H   0  0  0  0  0  0  0  0  0  0  0  0
   37.0570   23.7780   39.9130 N   0  0  0  0  0  0  0  0  0  0  0  0
   37.1160   25.0390   40.3740 C   0  0  0  0  0  0  0  0  0  0  0  0
   36.6380   26.2500   39.8790 C   0  0  0  0  0  3  0  0  0  0  0  0
   38.6770   23.3930   42.6380 H   0  0  0  0  0  0  0  0  0  0  0  0
  1 19  1  0  0  0  0
  1  2  1  0  0  0  0
  2  7  1  0  0  0  0
  3  2  2  0  0  0  0
  3  8  1  0  0  0  0
  4  3  1  0  0  0  0
  5  6  1  0  0  0  0
  5  4  2  0  0  0  0
  6  1  2  0  0  0  0
  9 12  1  6  0  0  0
  9 10  1  0  0  0  0
  9 11  1  0  0  0  0
  9  5  1  0  0  0  0
 10 11  1  0  0  0  0
 10 13  1  0  0  0  0
 11 15  1  6  0  0  0
 11 16  1  0  0  0  0
 14 10  1  0  0  0  0
 16 18  1  0  0  0  0
 16 17  1  0  0  0  0
 19 20  2  0  0  0  0
 21 22  1  0  0  0  0
 22 23  2  0  0  0  0
 22 19  1  0  0  0  0
 23 24  1  0  0  0  0
 25 26  1  0  0  0  0
 25 23  1  0  0  0  0
 26 32  1  0  0  0  0
 27 26  1  0  0  0  0
 28 27  1  0  0  0  0
 29 30  1  0  0  0  0
 29 27  2  0  0  0  0
 30 25  2  0  0  0  0
 31 30  1  0  0  0  0
 31 21  2  0  0  0  0
M  END
>  <minimizedAffinity>
-5.78405952

$$$$

 OpenBabel03252508013D

 32 35  0  0  1  0  0  0  0  0999 V2000
   37.2290   30.4550   40.0800 C   0  0  0  0  0  0  0  0  0  0  0  0
   36.7840   31.7880   40.3290 C   0  0  0  0  0  0  0  0  0  0  0  0
   37.6820   32.8320   40.0680 C   0  0  0  0  0  0  0  0  0  0  0  0
   38.9090   32.5080   39.5970 N   0  0  0  0  0  0  0  0  0  0  0  0
   39.2750   31.2020   39.3790 C   0  0  0  0  0  0  0  0  0  0  0  0
   38.4620   30.1830   39.6110 N   0  0  0  0  0  0  0  0  0  0  0  0
   35.7910   31.9870   40.7060 H   0  0  0  0  0  0  0  0  0  0  0  0
   37.3900   33.8540   40.2420 H   0  0  0  0  0  0  0  0  0  0  0  0
   40.6440   30.9210   38.8420 C   0  0  1  0  0  0  0  0  0  0  0  0
   40.7790   30.1380   37.5550 C   0  0  0  0  0  0  0  0  0  0  0  0
   40.9660   31.6290   37.5870 C   0  0  1  0  0  0  0  0  0  0  0  0
   41.4480   30.7280   39.5780 H   0  0  0  0  0  0  0  0  0  0  0  0
   39.8080   29.6980   37.2150 H   0  0  0  0  0  0  0  0  0  0  0  0
   41.6400   29.4730   37.4530 H   0  0  0  0  0  0  0  0  0  0  0  0
   41.9650   31.9960   37.3390 H   0  0  0  0  0  0  0  0  0  0  0  0
   39.9000   32.3270   36.8600 N   0  0  0  0  0  0  0  0  0  0  0  0
   39.9110   31.9440   35.8660 H   0  0  0  0  0  0  0  0  0  0  0  0
   40.1130   33.3340   36.7610 H   0  0  0  0  0  0  0  0  0  0  0  0
   36.2540   29.4460   40.3610 C   0  0  0  0  0  0  0  0  0  0  0  0
   35.0020   29.5880   40.1420 O   0  0  0  0  0  0  0  0  0  0  0  0
   36.7090   27.9280   42.2860 C   0  0  0  0  0  3  0  0  0  0  0  0
   36.5640   28.1380   40.9300 C   0  0  0  0  0  0  0  0  0  0  0  0
   36.7320   27.0270   40.1190 C   0  0  0  0  0  0  0  0  0  0  0  0
   36.6370   27.1040   39.0600 H   0  0  0  0  0  0  0  0  0  0  0  0
   37.0290   25.7680   40.6450 C   0  0  0  0  0  0  0  0  0  0  0  0
   37.2390   24.5470   40.0930 N   0  0  0  0  0  0  0  0  0  0  0  0
   37.4960   23.6450   41.0570 C   0  0  0  0  0  0  0  0  0  0  0  0
   37.7100   22.5850   41.0020 H   0  0  0  0  0  0  0  0  0  0  0  0
   37.4500   24.3040   42.2520 N   0  0  0  0  0  0  0  0  0  0  0  0
   37.1670   25.5970   42.0120 C   0  0  0  0  0  0  0  0  0  0  0  0
   37.0030   26.6990   42.8460 C   0  0  0  0  0  3  0  0  0  0  0  0
   37.2070   24.3300   39.0670 H   0  0  0  0  0  0  0  0  0  0  0  0
  1  2  1  0  0  0  0
  1 19  1  0  0  0  0
  2  7  1  0  0  0  0
  3  8  1  0  0  0  0
  3  2  2  0  0  0  0
  4  3  1  0  0  0  0
  5  4  2  0  0  0  0
  5  6  1  0  0  0  0
  6  1  2  0  0  0  0
  9  5  1  0  0  0  0
  9 12  1  1  0  0  0
 10 11  1  0  0  0  0
 10  9  1  0  0  0  0
 11 15  1  6  0  0  0
 11  9  1  0  0  0  0
 13 10  1  0  0  0  0
 14 10  1  0  0  0  0
 16 11  1  0  0  0  0
 17 16  1  0  0  0  0
 18 16  1  0  0  0  0
 19 22  1  0  0  0  0
 20 19  2  0  0  0  0
 21 31  1  0  0  0  0
 22 21  2  0  0  0  0
 23 25  2  0  0  0  0
 23 22  1  0  0  0  0
 24 23  1  0  0  0  0
 25 30  1  0  0  0  0
 26 25  1  0  0  0  0
 26 27  1  0  0  0  0
 27 29  2  0  0  0  0
 28 27  1  0  0  0  0
 30 29  1  0  0  0  0
 30 31  2  0  0  0  0
 32 26  1  0  0  0  0
M  END
>  <minimizedAffinity>
-5.75165224

$$$$

 OpenBabel03252508013D

 32 35  0  0  1  0  0  0  0  0999 V2000
   36.9870   28.7340   41.6100 C   0  0  0  0  0  0  0  0  0  0  0  0
   38.0590   29.2150   42.4200 C   0  0  0  0  0  0  0  0  0  0  0  0
   38.7300   28.2880   43.2290 C   0  0  0  0  0  0  0  0  0  0  0  0
   38.3180   26.9980   43.1880 N   0  0  0  0  0  0  0  0  0  0  0  0
   37.2780   26.6000   42.3850 C   0  0  0  0  0  0  0  0  0  0  0  0
   36.6140   27.4390   41.6050 N   0  0  0  0  0  0  0  0  0  0  0  0
   38.3450   30.2580   42.4120 H   0  0  0  0  0  0  0  0  0  0  0  0
   39.5450   28.6050   43.8580 H   0  0  0  0  0  0  0  0  0  0  0  0
   36.8880   25.1540   42.3800 C   0  0  1  0  0  0  0  0  0  0  0  0
   36.8660   24.4060   41.0660 C   0  0  0  0  0  0  0  0  0  0  0  0
   37.9880   24.2260   42.0500 C   0  0  1  0  0  0  0  0  0  0  0  0
   36.1070   24.8370   43.0970 H   0  0  0  0  0  0  0  0  0  0  0  0
   36.9930   25.0830   40.1830 H   0  0  0  0  0  0  0  0  0  0  0  0
   36.1110   23.6280   40.9370 H   0  0  0  0  0  0  0  0  0  0  0  0
   38.0900   23.2300   42.4870 H   0  0  0  0  0  0  0  0  0  0  0  0
   39.2540   24.7610   41.5370 N   0  0  0  0  0  0  0  0  0  0  0  0
   39.4440   24.2590   40.6170 H   0  0  0  0  0  0  0  0  0  0  0  0
   40.0440   24.5040   42.1520 H   0  0  0  0  0  0  0  0  0  0  0  0
   36.3590   29.7370   40.8070 C   0  0  0  0  0  0  0  0  0  0  0  0
   36.0850   30.9140   41.2270 O   0  0  0  0  0  0  0  0  0  0  0  0
   34.7210   29.0330   39.0640 C   0  0  0  0  0  3  0  0  0  0  0  0
   35.9530   29.5440   39.4180 C   0  0  0  0  0  0  0  0  0  0  0  0
   36.8010   29.8710   38.3730 C   0  0  0  0  0  0  0  0  0  0  0  0
   37.7710   30.2720   38.5610 H   0  0  0  0  0  0  0  0  0  0  0  0
   36.4300   29.6940   37.0380 C   0  0  0  0  0  0  0  0  0  0  0  0
   37.0510   29.9240   35.8550 N   0  0  0  0  0  0  0  0  0  0  0  0
   36.2440   29.5730   34.8380 C   0  0  0  0  0  0  0  0  0  0  0  0
   36.3900   29.6120   33.7650 H   0  0  0  0  0  0  0  0  0  0  0  0
   35.0820   29.1080   35.3840 N   0  0  0  0  0  0  0  0  0  0  0  0
   35.1860   29.1770   36.7220 C   0  0  0  0  0  0  0  0  0  0  0  0
   34.3160   28.8420   37.7570 C   0  0  0  0  0  3  0  0  0  0  0  0
   38.0170   30.3170   35.7400 H   0  0  0  0  0  0  0  0  0  0  0  0
  1  2  1  0  0  0  0
  2  3  2  0  0  0  0
  3  8  1  0  0  0  0
  4  3  1  0  0  0  0
  5  4  2  0  0  0  0
  6  1  2  0  0  0  0
  6  5  1  0  0  0  0
  7  2  1  0  0  0  0
  9  5  1  0  0  0  0
  9 12  1  1  0  0  0
 10 11  1  0  0  0  0
 10  9  1  0  0  0  0
 11  9  1  0  0  0  0
 11 15  1  1  0  0  0
 13 10  1  0  0  0  0
 14 10  1  0  0  0  0
 16 11  1  0  0  0  0
 16 18  1  0  0  0  0
 17 16  1  0  0  0  0
 19 20  2  0  0  0  0
 19  1  1  0  0  0  0
 21 22  1  0  0  0  0
 22 19  1  0  0  0  0
 23 24  1  0  0  0  0
 23 22  2  0  0  0  0
 25 23  1  0  0  0  0
 26 25  1  0  0  0  0
 27 29  2  0  0  0  0
 27 26  1  0  0  0  0
 28 27  1  0  0  0  0
 29 30  1  0  0  0  0
 30 25  2  0  0  0  0
 30 31  1  0  0  0  0
 31 21  2  0  0  0  0
 32 26  1  0  0  0  0
M  END
>  <minimizedAffinity>
-5.73672295

$$$$

 OpenBabel03252508013D

 32 35  0  0  1  0  0  0  0  0999 V2000
   36.9810   28.7160   41.6600 C   0  0  0  0  0  0  0  0  0  0  0  0
   38.0650   29.2030   42.4500 C   0  0  0  0  0  0  0  0  0  0  0  0
   38.7650   28.2760   43.2350 C   0  0  0  0  0  0  0  0  0  0  0  0
   38.3670   26.9830   43.1910 N   0  0  0  0  0  0  0  0  0  0  0  0
   37.3130   26.5790   42.4080 C   0  0  0  0  0  0  0  0  0  0  0  0
   36.6220   27.4180   41.6510 N   0  0  0  0  0  0  0  0  0  0  0  0
   38.3390   30.2490   42.4450 H   0  0  0  0  0  0  0  0  0  0  0  0
   39.5900   28.5980   43.8470 H   0  0  0  0  0  0  0  0  0  0  0  0
   36.9390   25.1290   42.3990 C   0  0  1  0  0  0  0  0  0  0  0  0
   36.9000   24.3920   41.0790 C   0  0  0  0  0  0  0  0  0  0  0  0
   38.0430   24.2160   42.0400 C   0  0  1  0  0  0  0  0  0  0  0  0
   36.1760   24.7970   43.1280 H   0  0  0  0  0  0  0  0  0  0  0  0
   37.0020   25.0780   40.2000 H   0  0  0  0  0  0  0  0  0  0  0  0
   36.1510   23.6060   40.9580 H   0  0  0  0  0  0  0  0  0  0  0  0
   38.1660   23.2180   42.4670 H   0  0  0  0  0  0  0  0  0  0  0  0
   39.2920   24.7710   41.5060 N   0  0  0  0  0  0  0  0  0  0  0  0
   39.4700   24.2780   40.5790 H   0  0  0  0  0  0  0  0  0  0  0  0
   40.0970   24.5170   42.1030 H   0  0  0  0  0  0  0  0  0  0  0  0
   36.3230   29.7200   40.8800 C   0  0  0  0  0  0  0  0  0  0  0  0
   36.1160   30.9140   41.2890 O   0  0  0  0  0  0  0  0  0  0  0  0
   36.5690   29.7140   38.3990 C   0  0  0  0  0  3  0  0  0  0  0  0
   35.8070   29.5070   39.5310 C   0  0  0  0  0  0  0  0  0  0  0  0
   34.5060   29.0810   39.3220 C   0  0  0  0  0  0  0  0  0  0  0  0
   33.8520   28.8980   40.1430 H   0  0  0  0  0  0  0  0  0  0  0  0
   33.9950   28.8710   38.0390 C   0  0  0  0  0  0  0  0  0  0  0  0
   32.7920   28.4680   37.5640 N   0  0  0  0  0  0  0  0  0  0  0  0
   32.8170   28.4300   36.2200 C   0  0  0  0  0  0  0  0  0  0  0  0
   32.0550   28.1590   35.4990 H   0  0  0  0  0  0  0  0  0  0  0  0
   34.0660   28.8190   35.8270 N   0  0  0  0  0  0  0  0  0  0  0  0
   34.7900   29.0900   36.9270 C   0  0  0  0  0  0  0  0  0  0  0  0
   36.1020   29.5190   37.1130 C   0  0  0  0  0  3  0  0  0  0  0  0
   31.9580   28.2190   38.1510 H   0  0  0  0  0  0  0  0  0  0  0  0
  1  2  1  0  0  0  0
  2  3  2  0  0  0  0
  3  8  1  0  0  0  0
  4  3  1  0  0  0  0
  5  4  2  0  0  0  0
  6  1  2  0  0  0  0
  6  5  1  0  0  0  0
  7  2  1  0  0  0  0
  9  5  1  0  0  0  0
  9 12  1  1  0  0  0
 10 11  1  0  0  0  0
 10  9  1  0  0  0  0
 11  9  1  0  0  0  0
 11 15  1  1  0  0  0
 13 10  1  0  0  0  0
 14 10  1  0  0  0  0
 16 11  1  0  0  0  0
 16 18  1  0  0  0  0
 17 16  1  0  0  0  0
 19 20  2  0  0  0  0
 19  1  1  0  0  0  0
 21 22  1  0  0  0  0
 22 19  1  0  0  0  0
 23 22  2  0  0  0  0
 23 24  1  0  0  0  0
 25 23  1  0  0  0  0
 26 25  1  0  0  0  0
 26 32  1  0  0  0  0
 27 26  1  0  0  0  0
 28 27  1  0  0  0  0
 29 27  2  0  0  0  0
 29 30  1  0  0  0  0
 30 31  1  0  0  0  0
 30 25  2  0  0  0  0
 31 21  2  0  0  0  0
M  END
>  <minimizedAffinity>
-5.64506197

$$$$

 OpenBabel03252508013D

 32 35  0  0  1  0  0  0  0  0999 V2000
   37.9300   30.7790   40.7420 C   0  0  0  0  0  0  0  0  0  0  0  0
   39.2940   31.1940   40.8040 C   0  0  0  0  0  0  0  0  0  0  0  0
   40.0760   30.7000   41.8560 C   0  0  0  0  0  0  0  0  0  0  0  0
   39.4880   29.8620   42.7430 N   0  0  0  0  0  0  0  0  0  0  0  0
   38.1680   29.5020   42.6260 C   0  0  0  0  0  0  0  0  0  0  0  0
   37.3890   29.9430   41.6500 N   0  0  0  0  0  0  0  0  0  0  0  0
   39.7110   31.8650   40.0660 H   0  0  0  0  0  0  0  0  0  0  0  0
   41.1110   30.9860   41.9440 H   0  0  0  0  0  0  0  0  0  0  0  0
   37.5890   28.5600   43.6360 C   0  0  1  0  0  0  0  0  0  0  0  0
   36.8370   27.3400   43.1510 C   0  0  0  0  0  0  0  0  0  0  0  0
   38.2410   27.2350   43.6800 C   0  0  1  0  0  0  0  0  0  0  0  0
   37.1890   28.9990   44.5690 H   0  0  0  0  0  0  0  0  0  0  0  0
   36.6490   27.3600   42.0480 H   0  0  0  0  0  0  0  0  0  0  0  0
   35.9920   26.9930   43.7500 H   0  0  0  0  0  0  0  0  0  0  0  0
   38.3700   26.6550   44.5960 H   0  0  0  0  0  0  0  0  0  0  0  0
   39.1930   26.8650   42.6260 N   0  0  0  0  0  0  0  0  0  0  0  0
   38.8500   25.9440   42.2180 H   0  0  0  0  0  0  0  0  0  0  0  0
   40.1230   26.6530   43.0220 H   0  0  0  0  0  0  0  0  0  0  0  0
   37.2000   31.3180   39.6350 C   0  0  0  0  0  0  0  0  0  0  0  0
   36.9520   32.5640   39.4880 O   0  0  0  0  0  0  0  0  0  0  0  0
   35.5970   29.6430   38.7180 C   0  0  0  0  0  3  0  0  0  0  0  0
   36.6490   30.5180   38.5450 C   0  0  0  0  0  0  0  0  0  0  0  0
   37.1690   30.6020   37.2640 C   0  0  0  0  0  0  0  0  0  0  0  0
   37.9840   31.2540   37.0460 H   0  0  0  0  0  0  0  0  0  0  0  0
   36.6560   29.8450   36.2080 C   0  0  0  0  0  0  0  0  0  0  0  0
   36.9690   29.7370   34.8940 N   0  0  0  0  0  0  0  0  0  0  0  0
   36.1530   28.8480   34.2990 C   0  0  0  0  0  0  0  0  0  0  0  0
   36.1000   28.5040   33.2740 H   0  0  0  0  0  0  0  0  0  0  0  0
   35.3010   28.3770   35.2560 N   0  0  0  0  0  0  0  0  0  0  0  0
   35.5990   28.9770   36.4210 C   0  0  0  0  0  0  0  0  0  0  0  0
   35.0600   28.8770   37.7020 C   0  0  0  0  0  3  0  0  0  0  0  0
   37.7320   30.2650   34.4040 H   0  0  0  0  0  0  0  0  0  0  0  0
  1  2  2  0  0  0  0
  1  6  1  0  0  0  0
  2  3  1  0  0  0  0
  3  8  1  0  0  0  0
  3  4  2  0  0  0  0
  5  4  1  0  0  0  0
  5  9  1  0  0  0  0
  6  5  2  0  0  0  0
  7  2  1  0  0  0  0
  9 11  1  0  0  0  0
  9 12  1  1  0  0  0
 10  9  1  0  0  0  0
 10 11  1  0  0  0  0
 10 14  1  0  0  0  0
 11 15  1  1  0  0  0
 13 10  1  0  0  0  0
 16 18  1  0  0  0  0
 16 11  1  0  0  0  0
 17 16  1  0  0  0  0
 19  1  1  0  0  0  0
 20 19  2  0  0  0  0
 22 21  1  0  0  0  0
 22 19  1  0  0  0  0
 23 22  2  0  0  0  0
 24 23  1  0  0  0  0
 25 30  2  0  0  0  0
 25 23  1  0  0  0  0
 26 25  1  0  0  0  0
 27 26  1  0  0  0  0
 27 29  2  0  0  0  0
 28 27  1  0  0  0  0
 29 30  1  0  0  0  0
 30 31  1  0  0  0  0
 31 21  2  0  0  0  0
 32 26  1  0  0  0  0
M  END
>  <minimizedAffinity>
-5.51903439

$$$$

 OpenBabel03252508013D

 32 35  0  0  1  0  0  0  0  0999 V2000
   37.1870   28.8730   39.0580 C   0  0  0  0  0  0  0  0  0  0  0  0
   35.8840   29.4320   39.2140 C   0  0  0  0  0  0  0  0  0  0  0  0
   35.2220   29.2080   40.4290 C   0  0  0  0  0  0  0  0  0  0  0  0
   35.8620   28.4790   41.3740 N   0  0  0  0  0  0  0  0  0  0  0  0
   37.1190   27.9680   41.1590 C   0  0  0  0  0  0  0  0  0  0  0  0
   37.7830   28.1520   40.0280 N   0  0  0  0  0  0  0  0  0  0  0  0
   35.4210   30.0070   38.4250 H   0  0  0  0  0  0  0  0  0  0  0  0
   34.2370   29.6110   40.5920 H   0  0  0  0  0  0  0  0  0  0  0  0
   37.7720   27.1830   42.2550 C   0  0  1  0  0  0  0  0  0  0  0  0
   39.0650   27.6940   42.8510 C   0  0  0  0  0  0  0  0  0  0  0  0
   37.7560   27.8470   43.5740 C   0  0  1  0  0  0  0  0  0  0  0  0
   37.7010   26.0800   42.2010 H   0  0  0  0  0  0  0  0  0  0  0  0
   39.4950   28.5520   42.2750 H   0  0  0  0  0  0  0  0  0  0  0  0
   39.7980   26.9550   43.1810 H   0  0  0  0  0  0  0  0  0  0  0  0
   37.6620   27.3090   44.5210 H   0  0  0  0  0  0  0  0  0  0  0  0
   37.3470   29.2530   43.6690 N   0  0  0  0  0  0  0  0  0  0  0  0
   38.1390   29.7650   44.1630 H   0  0  0  0  0  0  0  0  0  0  0  0
   36.5290   29.3620   44.2910 H   0  0  0  0  0  0  0  0  0  0  0  0
   37.8010   29.1520   37.7960 C   0  0  0  0  0  0  0  0  0  0  0  0
   37.2740   28.8510   36.6690 O   0  0  0  0  0  0  0  0  0  0  0  0
   40.2690   29.1080   37.4400 C   0  0  0  0  0  3  0  0  0  0  0  0
   39.0950   29.8070   37.6370 C   0  0  0  0  0  0  0  0  0  0  0  0
   39.2080   31.1870   37.6790 C   0  0  0  0  0  0  0  0  0  0  0  0
   38.3490   31.8010   37.8270 H   0  0  0  0  0  0  0  0  0  0  0  0
   40.4370   31.8330   37.5280 C   0  0  0  0  0  0  0  0  0  0  0  0
   40.8190   33.1330   37.5280 N   0  0  0  0  0  0  0  0  0  0  0  0
   42.1480   33.2220   37.3420 C   0  0  0  0  0  0  0  0  0  0  0  0
   42.8040   34.0820   37.2830 H   0  0  0  0  0  0  0  0  0  0  0  0
   42.6260   31.9490   37.2210 N   0  0  0  0  0  0  0  0  0  0  0  0
   41.5930   31.0960   37.3330 C   0  0  0  0  0  0  0  0  0  0  0  0
   41.5040   29.7070   37.2880 C   0  0  0  0  0  3  0  0  0  0  0  0
   40.1790   33.9550   37.6540 H   0  0  0  0  0  0  0  0  0  0  0  0
  1  2  2  0  0  0  0
  1  6  1  0  0  0  0
  2  3  1  0  0  0  0
  3  8  1  0  0  0  0
  3  4  2  0  0  0  0
  5  4  1  0  0  0  0
  5  9  1  0  0  0  0
  6  5  2  0  0  0  0
  7  2  1  0  0  0  0
  9 12  1  6  0  0  0
  9 10  1  0  0  0  0
  9 11  1  0  0  0  0
 10 14  1  0  0  0  0
 10 11  1  0  0  0  0
 11 16  1  0  0  0  0
 11 15  1  1  0  0  0
 13 10  1  0  0  0  0
 16 17  1  0  0  0  0
 16 18  1  0  0  0  0
 19  1  1  0  0  0  0
 20 19  2  0  0  0  0
 21 22  1  0  0  0  0
 22 23  2  0  0  0  0
 22 19  1  0  0  0  0
 23 24  1  0  0  0  0
 25 23  1  0  0  0  0
 26 25  1  0  0  0  0
 26 32  1  0  0  0  0
 27 26  1  0  0  0  0
 28 27  1  0  0  0  0
 29 30  1  0  0  0  0
 29 27  2  0  0  0  0
 30 25  2  0  0  0  0
 31 30  1  0  0  0  0
 31 21  2  0  0  0  0
M  END
>  <minimizedAffinity>
-5.41945362

$$$$

 OpenBabel03252508013D

 32 35  0  0  1  0  0  0  0  0999 V2000
   37.5280   28.8470   42.1560 C   0  0  0  0  0  0  0  0  0  0  0  0
   38.8290   29.0390   42.7110 C   0  0  0  0  0  0  0  0  0  0  0  0
   39.4910   30.2380   42.4170 C   0  0  0  0  0  0  0  0  0  0  0  0
   38.8550   31.1350   41.6260 N   0  0  0  0  0  0  0  0  0  0  0  0
   37.6010   30.8880   41.1230 C   0  0  0  0  0  0  0  0  0  0  0  0
   36.9360   29.7710   41.3740 N   0  0  0  0  0  0  0  0  0  0  0  0
   39.2890   28.2870   43.3370 H   0  0  0  0  0  0  0  0  0  0  0  0
   40.4750   30.4260   42.8130 H   0  0  0  0  0  0  0  0  0  0  0  0
   36.9530   31.9330   40.2690 C   0  0  1  0  0  0  0  0  0  0  0  0
   37.8270   32.8400   39.4310 C   0  0  0  0  0  0  0  0  0  0  0  0
   37.0720   31.6940   38.8160 C   0  0  1  0  0  0  0  0  0  0  0  0
   36.0410   32.4200   40.6650 H   0  0  0  0  0  0  0  0  0  0  0  0
   38.9140   32.7340   39.6750 H   0  0  0  0  0  0  0  0  0  0  0  0
   37.4930   33.8690   39.2800 H   0  0  0  0  0  0  0  0  0  0  0  0
   36.2970   31.9600   38.0930 H   0  0  0  0  0  0  0  0  0  0  0  0
   37.9770   30.6460   38.3300 N   0  0  0  0  0  0  0  0  0  0  0  0
   38.6340   31.1120   37.6340 H   0  0  0  0  0  0  0  0  0  0  0  0
   37.4630   29.9360   37.7810 H   0  0  0  0  0  0  0  0  0  0  0  0
   36.9130   27.6040   42.5090 C   0  0  0  0  0  0  0  0  0  0  0  0
   36.2500   27.4220   43.5880 O   0  0  0  0  0  0  0  0  0  0  0  0
   37.1630   25.1410   42.2220 C   0  0  0  0  0  3  0  0  0  0  0  0
   36.9660   26.3980   41.6890 C   0  0  0  0  0  0  0  0  0  0  0  0
   36.8190   26.4610   40.3130 C   0  0  0  0  0  0  0  0  0  0  0  0
   36.6620   27.3950   39.8230 H   0  0  0  0  0  0  0  0  0  0  0  0
   36.8660   25.3180   39.5130 C   0  0  0  0  0  0  0  0  0  0  0  0
   36.7550   25.1030   38.1790 N   0  0  0  0  0  0  0  0  0  0  0  0
   36.8770   23.7910   37.9140 C   0  0  0  0  0  0  0  0  0  0  0  0
   36.8430   23.2460   36.9780 H   0  0  0  0  0  0  0  0  0  0  0  0
   37.0710   23.1520   39.1050 N   0  0  0  0  0  0  0  0  0  0  0  0
   37.0660   24.0740   40.0840 C   0  0  0  0  0  0  0  0  0  0  0  0
   37.2170   23.9860   41.4660 C   0  0  0  0  0  3  0  0  0  0  0  0
   36.5960   25.8450   37.4540 H   0  0  0  0  0  0  0  0  0  0  0  0
  1 19  1  0  0  0  0
  1  2  1  0  0  0  0
  2  7  1  0  0  0  0
  3  2  2  0  0  0  0
  3  8  1  0  0  0  0
  4  3  1  0  0  0  0
  5  6  1  0  0  0  0
  5  4  2  0  0  0  0
  6  1  2  0  0  0  0
  9 12  1  1  0  0  0
  9  5  1  0  0  0  0
 10 13  1  0  0  0  0
 10  9  1  0  0  0  0
 11 15  1  6  0  0  0
 11 10  1  0  0  0  0
 11  9  1  0  0  0  0
 14 10  1  0  0  0  0
 16 11  1  0  0  0  0
 17 16  1  0  0  0  0
 18 16  1  0  0  0  0
 19 20  2  0  0  0  0
 22 21  1  0  0  0  0
 22 19  1  0  0  0  0
 23 22  2  0  0  0  0
 24 23  1  0  0  0  0
 25 30  2  0  0  0  0
 25 23  1  0  0  0  0
 26 25  1  0  0  0  0
 27 26  1  0  0  0  0
 27 29  2  0  0  0  0
 28 27  1  0  0  0  0
 29 30  1  0  0  0  0
 30 31  1  0  0  0  0
 31 21  2  0  0  0  0
 32 26  1  0  0  0  0
M  END
>  <minimizedAffinity>
-5.33484888

$$$$

 OpenBabel03252508013D

 32 35  0  0  1  0  0  0  0  0999 V2000
   37.0480   27.0840   41.5770 C   0  0  0  0  0  0  0  0  0  0  0  0
   37.2040   25.8270   42.2340 C   0  0  0  0  0  0  0  0  0  0  0  0
   37.0200   24.6670   41.4700 C   0  0  0  0  0  0  0  0  0  0  0  0
   36.7080   24.8140   40.1600 N   0  0  0  0  0  0  0  0  0  0  0  0
   36.5720   26.0560   39.5890 C   0  0  0  0  0  0  0  0  0  0  0  0
   36.7350   27.1800   40.2700 N   0  0  0  0  0  0  0  0  0  0  0  0
   37.4550   25.7690   43.2840 H   0  0  0  0  0  0  0  0  0  0  0  0
   37.1270   23.6960   41.9230 H   0  0  0  0  0  0  0  0  0  0  0  0
   36.2400   26.1420   38.1310 C   0  0  1  0  0  0  0  0  0  0  0  0
   36.8180   27.2760   37.3140 C   0  0  0  0  0  0  0  0  0  0  0  0
   37.3800   25.8840   37.2280 C   0  0  1  0  0  0  0  0  0  0  0  0
   35.2230   25.8330   37.8220 H   0  0  0  0  0  0  0  0  0  0  0  0
   37.3220   28.0490   37.9480 H   0  0  0  0  0  0  0  0  0  0  0  0
   36.2100   27.6790   36.5020 H   0  0  0  0  0  0  0  0  0  0  0  0
   37.2850   25.3840   36.2610 H   0  0  0  0  0  0  0  0  0  0  0  0
   38.7360   25.8090   37.7840 N   0  0  0  0  0  0  0  0  0  0  0  0
   39.3240   26.5110   37.2410 H   0  0  0  0  0  0  0  0  0  0  0  0
   39.1680   24.8900   37.5890 H   0  0  0  0  0  0  0  0  0  0  0  0
   37.2600   28.2210   42.4200 C   0  0  0  0  0  0  0  0  0  0  0  0
   37.0370   28.2210   43.6800 O   0  0  0  0  0  0  0  0  0  0  0  0
   39.0500   29.9360   42.1540 C   0  0  0  0  0  3  0  0  0  0  0  0
   37.7520   29.5120   41.9510 C   0  0  0  0  0  0  0  0  0  0  0  0
   36.9240   30.3890   41.2700 C   0  0  0  0  0  0  0  0  0  0  0  0
   35.9070   30.1380   41.0710 H   0  0  0  0  0  0  0  0  0  0  0  0
   37.3770   31.6290   40.8130 C   0  0  0  0  0  0  0  0  0  0  0  0
   36.7930   32.6490   40.1390 N   0  0  0  0  0  0  0  0  0  0  0  0
   37.6840   33.6380   39.9410 C   0  0  0  0  0  0  0  0  0  0  0  0
   37.5860   34.5970   39.4480 H   0  0  0  0  0  0  0  0  0  0  0  0
   38.8630   33.2400   40.5030 N   0  0  0  0  0  0  0  0  0  0  0  0
   38.6860   32.0180   41.0370 C   0  0  0  0  0  0  0  0  0  0  0  0
   39.5370   31.1530   41.7200 C   0  0  0  0  0  3  0  0  0  0  0  0
   35.7960   32.6730   39.8140 H   0  0  0  0  0  0  0  0  0  0  0  0
  1  2  1  0  0  0  0
  1 19  1  0  0  0  0
  2  7  1  0  0  0  0
  3  8  1  0  0  0  0
  3  2  2  0  0  0  0
  4  3  1  0  0  0  0
  5  4  2  0  0  0  0
  5  6  1  0  0  0  0
  6  1  2  0  0  0  0
  9 12  1  6  0  0  0
  9  5  1  0  0  0  0
 10 13  1  0  0  0  0
 10  9  1  0  0  0  0
 11 15  1  6  0  0  0
 11 10  1  0  0  0  0
 11 16  1  0  0  0  0
 11  9  1  0  0  0  0
 14 10  1  0  0  0  0
 17 16  1  0  0  0  0
 18 16  1  0  0  0  0
 19 20  2  0  0  0  0
 22 21  1  0  0  0  0
 22 19  1  0  0  0  0
 23 22  2  0  0  0  0
 24 23  1  0  0  0  0
 25 30  2  0  0  0  0
 25 23  1  0  0  0  0
 26 25  1  0  0  0  0
 27 26  1  0  0  0  0
 27 29  2  0  0  0  0
 28 27  1  0  0  0  0
 29 30  1  0  0  0  0
 30 31  1  0  0  0  0
 31 21  2  0  0  0  0
 32 26  1  0  0  0  0
M  END
>  <minimizedAffinity>
-5.31453896

$$$$
