
 OpenBabel03252508003D

 32 35  0  0  1  0  0  0  0  0999 V2000
   46.6610   34.7740   43.1590 C   0  0  0  0  0  0  0  0  0  0  0  0
   45.5780   35.6870   43.3270 C   0  0  0  0  0  0  0  0  0  0  0  0
   44.7080   35.4730   44.4050 C   0  0  0  0  0  0  0  0  0  0  0  0
   44.9530   34.4160   45.2150 N   0  0  0  0  0  0  0  0  0  0  0  0
   46.0160   33.5740   44.9970 C   0  0  0  0  0  0  0  0  0  0  0  0
   46.8630   33.7350   43.9930 N   0  0  0  0  0  0  0  0  0  0  0  0
   45.4310   36.5160   42.6480 H   0  0  0  0  0  0  0  0  0  0  0  0
   43.8760   36.1370   44.5710 H   0  0  0  0  0  0  0  0  0  0  0  0
   46.2340   32.4340   45.9440 C   0  0  1  0  0  0  0  0  0  0  0  0
   46.9870   32.6850   47.2310 C   0  0  0  0  0  0  0  0  0  0  0  0
   45.4900   32.5450   47.2150 C   0  0  1  0  0  0  0  0  0  0  0  0
   46.4080   31.4340   45.5030 H   0  0  0  0  0  0  0  0  0  0  0  0
   47.4580   33.7000   47.2630 H   0  0  0  0  0  0  0  0  0  0  0  0
   47.6150   31.8800   47.6170 H   0  0  0  0  0  0  0  0  0  0  0  0
   45.0800   31.6870   47.7520 H   0  0  0  0  0  0  0  0  0  0  0  0
   44.8210   33.8070   47.5510 N   0  0  0  0  0  0  0  0  0  0  0  0
   45.1850   34.0960   48.5090 H   0  0  0  0  0  0  0  0  0  0  0  0
   43.8050   33.6670   47.6810 H   0  0  0  0  0  0  0  0  0  0  0  0
   47.5090   35.0640   42.0430 C   0  0  0  0  0  0  0  0  0  0  0  0
   48.4930   35.8800   42.0930 O   0  0  0  0  0  0  0  0  0  0  0  0
   46.2620   33.7130   40.3590 C   0  0  0  0  0  3  0  0  0  0  0  0
   47.3580   34.4700   40.7180 C   0  0  0  0  0  0  0  0  0  0  0  0
   48.3260   34.6410   39.7430 C   0  0  0  0  0  0  0  0  0  0  0  0
   49.2040   35.2120   39.9390 H   0  0  0  0  0  0  0  0  0  0  0  0
   48.1990   34.0800   38.4700 C   0  0  0  0  0  0  0  0  0  0  0  0
   48.9760   34.0920   37.3600 N   0  0  0  0  0  0  0  0  0  0  0  0
   48.3870   33.3830   36.3800 C   0  0  0  0  0  0  0  0  0  0  0  0
   48.7010   33.1710   35.3660 H   0  0  0  0  0  0  0  0  0  0  0  0
   47.2070   32.9080   36.8760 N   0  0  0  0  0  0  0  0  0  0  0  0
   47.0840   33.3270   38.1470 C   0  0  0  0  0  0  0  0  0  0  0  0
   46.0970   33.1420   39.1130 C   0  0  0  0  0  3  0  0  0  0  0  0
   49.9010   34.5780   37.2680 H   0  0  0  0  0  0  0  0  0  0  0  0
  1  2  2  0  0  0  0
  1  6  1  0  0  0  0
  2  3  1  0  0  0  0
  3  8  1  0  0  0  0
  3  4  2  0  0  0  0
  5  4  1  0  0  0  0
  5  9  1  0  0  0  0
  6  5  2  0  0  0  0
  7  2  1  0  0  0  0
  9 12  1  6  0  0  0
  9 11  1  0  0  0  0
  9 10  1  0  0  0  0
 10 13  1  0  0  0  0
 10 14  1  0  0  0  0
 11 10  1  0  0  0  0
 11 16  1  0  0  0  0
 11 15  1  1  0  0  0
 16 18  1  0  0  0  0
 16 17  1  0  0  0  0
 19 20  2  0  0  0  0
 19  1  1  0  0  0  0
 21 22  1  0  0  0  0
 22 19  1  0  0  0  0
 23 24  1  0  0  0  0
 23 22  2  0  0  0  0
 25 23  1  0  0  0  0
 26 25  1  0  0  0  0
 27 29  2  0  0  0  0
 27 26  1  0  0  0  0
 28 27  1  0  0  0  0
 29 30  1  0  0  0  0
 30 25  2  0  0  0  0
 30 31  1  0  0  0  0
 31 21  2  0  0  0  0
 32 26  1  0  0  0  0
M  END
>  <minimizedAffinity>
-6.55641222

>  <minimizedRMSD>
1.31763327

$$$$
