
 OpenBabel03242517003D

 35 38  0  0  0  0  0  0  0  0999 V2000
   46.7440   34.8320   42.0000 C   0  0  0  0  0  0  0  0  0  0  0  0
   48.0380   35.3550   41.9990 C   0  0  0  0  0  0  0  0  0  0  0  0
   48.8080   35.2260   40.8570 C   0  0  0  0  0  0  0  0  0  0  0  0
   48.2840   34.5890   39.7510 C   0  0  0  0  0  0  0  0  0  0  0  0
   47.0270   34.0670   39.7120 C   0  0  0  0  0  0  0  0  0  0  0  0
   46.2690   34.2130   40.8880 C   0  0  0  0  0  0  0  0  0  0  0  0
   48.4300   35.8520   42.8830 H   0  0  0  0  0  0  0  0  0  0  0  0
   49.8020   35.6500   40.9200 H   0  0  0  0  0  0  0  0  0  0  0  0
   48.9040   34.4990   38.8680 H   0  0  0  0  0  0  0  0  0  0  0  0
   46.6050   33.5650   38.8510 H   0  0  0  0  0  0  0  0  0  0  0  0
   44.5000   36.1110   44.7550 C   0  0  0  0  0  0  0  0  0  0  0  0
   45.1900   36.0800   43.5130 C   0  0  0  0  0  0  0  0  0  0  0  0
   45.9810   34.9960   43.2280 C   0  0  0  0  0  0  0  0  0  0  0  0
   46.0600   33.9960   44.1680 N   0  0  0  0  0  0  0  0  0  0  0  0
   45.4020   34.0330   45.3430 C   0  0  0  0  0  0  0  0  0  0  0  0
   44.6090   35.1120   45.6380 N   0  0  0  0  0  0  0  0  0  0  0  0
   43.8810   36.9770   44.9580 H   0  0  0  0  0  0  0  0  0  0  0  0
   45.1180   36.8750   42.7840 H   0  0  0  0  0  0  0  0  0  0  0  0
   45.5520   33.1780   45.9930 H   0  0  0  0  0  0  0  0  0  0  0  0
   43.6440   34.2470   40.8580 C   0  0  0  0  0  0  0  0  0  0  0  0
   43.3750   35.4310   40.5530 O   0  0  0  0  0  0  0  0  0  0  0  0
   44.9490   33.7130   40.9840 N   0  0  0  0  0  0  0  0  0  0  0  0
   45.1580   32.7100   41.1950 H   0  0  0  0  0  0  0  0  0  0  0  0
   42.7510   32.1390   41.6610 C   0  0  0  0  0  0  0  0  0  0  0  0
   42.5040   33.3720   41.1000 C   0  0  0  0  0  0  0  0  0  0  0  0
   41.1840   33.6460   40.8240 C   0  0  0  0  0  0  0  0  0  0  0  0
   40.9600   34.6040   40.3850 H   0  0  0  0  0  0  0  0  0  0  0  0
   40.1520   32.7760   41.0760 C   0  0  0  0  0  0  0  0  0  0  0  0
   38.8240   32.8420   40.8900 N   0  0  0  0  0  0  0  0  0  0  0  0
   38.2660   31.6850   41.3210 C   0  0  0  0  0  0  0  0  0  0  0  0
   37.2530   31.3490   41.3450 H   0  0  0  0  0  0  0  0  0  0  0  0
   39.2460   30.8730   41.7880 N   0  0  0  0  0  0  0  0  0  0  0  0
   40.4050   31.5430   41.6380 C   0  0  0  0  0  0  0  0  0  0  0  0
   41.7170   31.2310   41.9290 C   0  0  0  0  0  0  0  0  0  0  0  0
   38.2700   33.6210   40.4870 H   0  0  0  0  0  0  0  0  0  0  0  0
  1 13  1  0  0  0  0
  2  1  1  0  0  0  0
  2  7  1  0  0  0  0
  3  8  1  0  0  0  0
  3  2  2  0  0  0  0
  4  3  1  0  0  0  0
  5  4  2  0  0  0  0
  5  6  1  0  0  0  0
  6 22  1  0  0  0  0
  6  1  2  0  0  0  0
  9  4  1  0  0  0  0
 10  5  1  0  0  0  0
 11 17  1  0  0  0  0
 11 16  1  0  0  0  0
 12 11  2  0  0  0  0
 13 12  1  0  0  0  0
 13 14  2  0  0  0  0
 14 15  1  0  0  0  0
 15 16  2  0  0  0  0
 15 19  1  0  0  0  0
 18 12  1  0  0  0  0
 20 22  1  0  0  0  0
 20 25  1  0  0  0  0
 21 20  2  0  0  0  0
 22 23  1  0  0  0  0
 24 34  1  0  0  0  0
 25 24  2  0  0  0  0
 26 28  2  0  0  0  0
 26 25  1  0  0  0  0
 27 26  1  0  0  0  0
 28 33  1  0  0  0  0
 29 28  1  0  0  0  0
 29 30  1  0  0  0  0
 30 31  1  0  0  0  0
 30 32  2  0  0  0  0
 33 32  1  0  0  0  0
 33 34  2  0  0  0  0
 35 29  1  0  0  0  0
M  END
>  <minimizedAffinity>
-6.90676737

>  <minimizedRMSD>
0.863569379

$$$$
