
 OpenBabel03252508523D

 31 34  0  0  0  0  0  0  0  0999 V2000
   41.3020   32.3860   39.6990 C   0  0  0  0  0  0  0  0  0  0  0  0
   40.2160   32.3170   38.8320 C   0  0  0  0  0  0  0  0  0  0  0  0
   40.5130   32.2040   37.4620 C   0  0  0  0  0  0  0  0  0  0  0  0
   41.8260   32.1710   37.0850 N   0  0  0  0  0  0  0  0  0  0  0  0
   42.8260   32.2400   37.9570 C   0  0  0  0  0  0  0  0  0  0  0  0
   42.5750   32.3490   39.2720 N   0  0  0  0  0  0  0  0  0  0  0  0
   39.6730   32.1500   36.7770 H   0  0  0  0  0  0  0  0  0  0  0  0
   43.8540   32.2100   37.6120 H   0  0  0  0  0  0  0  0  0  0  0  0
   38.8670   32.3620   39.3510 C   0  0  0  0  0  0  0  0  0  0  0  0
   38.0720   31.2260   39.4760 C   0  0  0  0  0  0  0  0  0  0  0  0
   36.8970   31.7230   40.0010 C   0  0  0  0  0  0  0  0  0  0  0  0
   36.9700   33.0700   40.1830 N   0  0  0  0  0  0  0  0  0  0  0  0
   38.1720   33.4220   39.7810 N   0  0  0  0  0  0  0  0  0  0  0  0
   38.2720   30.1800   39.2370 H   0  0  0  0  0  0  0  0  0  0  0  0
   35.9960   31.1710   40.2570 H   0  0  0  0  0  0  0  0  0  0  0  0
   36.2550   33.7270   40.5580 H   0  0  0  0  0  0  0  0  0  0  0  0
   41.0510   32.4970   41.0560 O   0  0  0  0  0  0  0  0  0  0  0  0
   41.4370   31.6350   42.0410 C   0  0  0  0  0  0  0  0  0  0  0  0
   42.4810   31.7110   42.7800 O   0  0  0  0  0  0  0  0  0  0  0  0
   41.2600   29.1730   42.5070 C   0  0  0  0  0  3  0  0  0  0  0  0
   40.6750   30.4140   42.4280 C   0  0  0  0  0  0  0  0  0  0  0  0
   39.3270   30.4360   42.7300 C   0  0  0  0  0  0  0  0  0  0  0  0
   38.8130   31.3880   42.6840 H   0  0  0  0  0  0  0  0  0  0  0  0
   38.5550   29.3580   43.0900 C   0  0  0  0  0  0  0  0  0  0  0  0
   37.2560   29.2210   43.4100 N   0  0  0  0  0  0  0  0  0  0  0  0
   37.0660   27.9060   43.6780 C   0  0  0  0  0  0  0  0  0  0  0  0
   36.0700   27.5720   43.9620 H   0  0  0  0  0  0  0  0  0  0  0  0
   38.2330   27.2520   43.5250 N   0  0  0  0  0  0  0  0  0  0  0  0
   39.1900   28.1390   43.1550 C   0  0  0  0  0  0  0  0  0  0  0  0
   40.5310   28.0340   42.8690 C   0  0  0  0  0  3  0  0  0  0  0  0
   36.5600   30.0060   43.4330 H   0  0  0  0  0  0  0  0  0  0  0  0
  1 17  1  0  0  0  0
  2  9  1  0  0  0  0
  2  1  2  0  0  0  0
  3  2  1  0  0  0  0
  4  3  2  0  0  0  0
  4  5  1  0  0  0  0
  5  6  2  0  0  0  0
  6  1  1  0  0  0  0
  7  3  1  0  0  0  0
  8  5  1  0  0  0  0
  9 10  1  0  0  0  0
  9 13  2  0  0  0  0
 10 11  2  0  0  0  0
 11 12  1  0  0  0  0
 11 15  1  0  0  0  0
 12 16  1  0  0  0  0
 13 12  1  0  0  0  0
 14 10  1  0  0  0  0
 17 18  1  0  0  0  0
 18 21  1  0  0  0  0
 18 19  2  0  0  0  0
 20 30  1  0  0  0  0
 21 20  2  0  0  0  0
 21 22  1  0  0  0  0
 22 24  2  0  0  0  0
 23 22  1  0  0  0  0
 24 29  1  0  0  0  0
 24 25  1  0  0  0  0
 25 31  1  0  0  0  0
 25 26  1  0  0  0  0
 26 27  1  0  0  0  0
 28 26  2  0  0  0  0
 29 28  1  0  0  0  0
 30 29  2  0  0  0  0
M  END
>  <minimizedAffinity>
-6.02926302

$$$$

 OpenBabel03252508523D

 31 34  0  0  0  0  0  0  0  0999 V2000
   36.5870   26.6520   39.9190 C   0  0  0  0  0  0  0  0  0  0  0  0
   37.4030   26.5120   41.0370 C   0  0  0  0  0  0  0  0  0  0  0  0
   38.0990   25.2960   41.1560 C   0  0  0  0  0  0  0  0  0  0  0  0
   37.9280   24.3540   40.1810 N   0  0  0  0  0  0  0  0  0  0  0  0
   37.1350   24.5410   39.1320 C   0  0  0  0  0  0  0  0  0  0  0  0
   36.4560   25.6910   38.9900 N   0  0  0  0  0  0  0  0  0  0  0  0
   38.7390   25.1750   42.0240 H   0  0  0  0  0  0  0  0  0  0  0  0
   37.0290   23.7650   38.3820 H   0  0  0  0  0  0  0  0  0  0  0  0
   37.5030   27.5820   42.0040 C   0  0  0  0  0  0  0  0  0  0  0  0
   38.5510   28.5000   42.0030 C   0  0  0  0  0  0  0  0  0  0  0  0
   38.2480   29.3200   43.0700 C   0  0  0  0  0  0  0  0  0  0  0  0
   37.0960   28.9300   43.6800 N   0  0  0  0  0  0  0  0  0  0  0  0
   36.6740   27.8790   43.0110 N   0  0  0  0  0  0  0  0  0  0  0  0
   39.4200   28.5960   41.3490 H   0  0  0  0  0  0  0  0  0  0  0  0
   38.8100   30.1780   43.4290 H   0  0  0  0  0  0  0  0  0  0  0  0
   36.6110   29.3430   44.5030 H   0  0  0  0  0  0  0  0  0  0  0  0
   35.8840   27.8360   39.7660 O   0  0  0  0  0  0  0  0  0  0  0  0
   36.0830   28.7970   38.8180 C   0  0  0  0  0  0  0  0  0  0  0  0
   35.5240   28.8880   37.6690 O   0  0  0  0  0  0  0  0  0  0  0  0
   38.3330   29.8850   38.5620 C   0  0  0  0  0  3  0  0  0  0  0  0
   37.0230   29.9430   38.9750 C   0  0  0  0  0  0  0  0  0  0  0  0
   36.6540   31.1440   39.5480 C   0  0  0  0  0  0  0  0  0  0  0  0
   35.6320   31.2470   39.8930 H   0  0  0  0  0  0  0  0  0  0  0  0
   37.4580   32.2420   39.7320 C   0  0  0  0  0  0  0  0  0  0  0  0
   37.2490   33.4590   40.2630 N   0  0  0  0  0  0  0  0  0  0  0  0
   38.4270   34.1240   40.1690 C   0  0  0  0  0  0  0  0  0  0  0  0
   38.4800   35.1430   40.5450 H   0  0  0  0  0  0  0  0  0  0  0  0
   39.3400   33.3230   39.5880 N   0  0  0  0  0  0  0  0  0  0  0  0
   38.7610   32.1300   39.3000 C   0  0  0  0  0  0  0  0  0  0  0  0
   39.2060   30.9670   38.7180 C   0  0  0  0  0  3  0  0  0  0  0  0
   36.3370   33.7890   40.6630 H   0  0  0  0  0  0  0  0  0  0  0  0
  1  2  1  0  0  0  0
  2  3  2  0  0  0  0
  2  9  1  0  0  0  0
  3  7  1  0  0  0  0
  4  3  1  0  0  0  0
  5  4  2  0  0  0  0
  6  5  1  0  0  0  0
  6  1  2  0  0  0  0
  8  5  1  0  0  0  0
  9 13  2  0  0  0  0
 10  9  1  0  0  0  0
 10 11  2  0  0  0  0
 11 15  1  0  0  0  0
 11 12  1  0  0  0  0
 12 16  1  0  0  0  0
 13 12  1  0  0  0  0
 14 10  1  0  0  0  0
 17  1  1  0  0  0  0
 18 21  1  0  0  0  0
 18 17  1  0  0  0  0
 19 18  2  0  0  0  0
 20 30  2  0  0  0  0
 20 21  1  0  0  0  0
 21 22  2  0  0  0  0
 22 24  1  0  0  0  0
 22 23  1  0  0  0  0
 24 25  1  0  0  0  0
 25 31  1  0  0  0  0
 26 25  1  0  0  0  0
 26 27  1  0  0  0  0
 28 26  2  0  0  0  0
 29 28  1  0  0  0  0
 29 24  2  0  0  0  0
 30 29  1  0  0  0  0
M  END
>  <minimizedAffinity>
-5.72806168

$$$$

 OpenBabel03252508523D

 31 34  0  0  0  0  0  0  0  0999 V2000
   39.5560   31.5350   41.2610 C   0  0  0  0  0  0  0  0  0  0  0  0
   38.6070   31.6010   40.2450 C   0  0  0  0  0  0  0  0  0  0  0  0
   38.9210   32.4210   39.1470 C   0  0  0  0  0  0  0  0  0  0  0  0
   40.1150   33.0850   39.1550 N   0  0  0  0  0  0  0  0  0  0  0  0
   40.9860   32.9860   40.1530 C   0  0  0  0  0  0  0  0  0  0  0  0
   40.7160   32.2110   41.2160 N   0  0  0  0  0  0  0  0  0  0  0  0
   38.1880   32.4800   38.3490 H   0  0  0  0  0  0  0  0  0  0  0  0
   41.9230   33.5310   40.1160 H   0  0  0  0  0  0  0  0  0  0  0  0
   37.3760   30.8500   40.3510 C   0  0  0  0  0  0  0  0  0  0  0  0
   37.1370   29.6920   39.6160 C   0  0  0  0  0  0  0  0  0  0  0  0
   35.8720   29.3200   40.0230 C   0  0  0  0  0  0  0  0  0  0  0  0
   35.3740   30.1910   40.9410 N   0  0  0  0  0  0  0  0  0  0  0  0
   36.3070   31.1020   41.1150 N   0  0  0  0  0  0  0  0  0  0  0  0
   37.7550   29.1630   38.8880 H   0  0  0  0  0  0  0  0  0  0  0  0
   35.2940   28.4600   39.6940 H   0  0  0  0  0  0  0  0  0  0  0  0
   34.4550   30.1820   41.4310 H   0  0  0  0  0  0  0  0  0  0  0  0
   39.2840   30.7370   42.3600 O   0  0  0  0  0  0  0  0  0  0  0  0
   39.7340   29.4700   42.5910 C   0  0  0  0  0  0  0  0  0  0  0  0
   40.9270   29.1040   42.8800 O   0  0  0  0  0  0  0  0  0  0  0  0
   37.6150   28.2200   43.0980 C   0  0  0  0  0  3  0  0  0  0  0  0
   38.8700   28.2560   42.5400 C   0  0  0  0  0  0  0  0  0  0  0  0
   39.2660   27.0780   41.9360 C   0  0  0  0  0  0  0  0  0  0  0  0
   40.2470   27.0490   41.4790 H   0  0  0  0  0  0  0  0  0  0  0  0
   38.5330   25.9190   41.8500 C   0  0  0  0  0  0  0  0  0  0  0  0
   38.7750   24.7150   41.3050 N   0  0  0  0  0  0  0  0  0  0  0  0
   37.6710   23.9630   41.5350 C   0  0  0  0  0  0  0  0  0  0  0  0
   37.6540   22.9370   41.1720 H   0  0  0  0  0  0  0  0  0  0  0  0
   36.7690   24.7000   42.2110 N   0  0  0  0  0  0  0  0  0  0  0  0
   37.2820   25.9370   42.4250 C   0  0  0  0  0  0  0  0  0  0  0  0
   36.8160   27.0710   43.0460 C   0  0  0  0  0  3  0  0  0  0  0  0
   39.6600   24.4500   40.8070 H   0  0  0  0  0  0  0  0  0  0  0  0
  1 17  1  0  0  0  0
  2  9  1  0  0  0  0
  2  1  2  0  0  0  0
  3  4  2  0  0  0  0
  3  2  1  0  0  0  0
  4  5  1  0  0  0  0
  5  6  2  0  0  0  0
  6  1  1  0  0  0  0
  7  3  1  0  0  0  0
  8  5  1  0  0  0  0
  9 13  2  0  0  0  0
 10 11  2  0  0  0  0
 10  9  1  0  0  0  0
 11 12  1  0  0  0  0
 12 13  1  0  0  0  0
 12 16  1  0  0  0  0
 14 10  1  0  0  0  0
 15 11  1  0  0  0  0
 17 18  1  0  0  0  0
 18 19  2  0  0  0  0
 21 18  1  0  0  0  0
 21 20  2  0  0  0  0
 22 21  1  0  0  0  0
 23 22  1  0  0  0  0
 24 22  2  0  0  0  0
 24 29  1  0  0  0  0
 25 26  1  0  0  0  0
 25 24  1  0  0  0  0
 26 28  2  0  0  0  0
 27 26  1  0  0  0  0
 28 29  1  0  0  0  0
 29 30  2  0  0  0  0
 30 20  1  0  0  0  0
 31 25  1  0  0  0  0
M  END
>  <minimizedAffinity>
-5.72780848

$$$$

 OpenBabel03252508523D

 31 34  0  0  0  0  0  0  0  0999 V2000
   36.8510   30.5270   39.4180 C   0  0  0  0  0  0  0  0  0  0  0  0
   37.6330   31.5160   38.8300 C   0  0  0  0  0  0  0  0  0  0  0  0
   37.6860   31.5200   37.4250 C   0  0  0  0  0  0  0  0  0  0  0  0
   36.9770   30.5680   36.7470 N   0  0  0  0  0  0  0  0  0  0  0  0
   36.2450   29.6450   37.3610 C   0  0  0  0  0  0  0  0  0  0  0  0
   36.1730   29.6150   38.7020 N   0  0  0  0  0  0  0  0  0  0  0  0
   38.2930   32.2870   36.9550 H   0  0  0  0  0  0  0  0  0  0  0  0
   35.6980   28.9090   36.7830 H   0  0  0  0  0  0  0  0  0  0  0  0
   38.3390   32.4720   39.6540 C   0  0  0  0  0  0  0  0  0  0  0  0
   39.7140   32.4110   39.8640 C   0  0  0  0  0  0  0  0  0  0  0  0
   39.9510   33.4890   40.6910 C   0  0  0  0  0  0  0  0  0  0  0  0
   38.8010   34.1610   40.9670 N   0  0  0  0  0  0  0  0  0  0  0  0
   37.8480   33.5200   40.3260 N   0  0  0  0  0  0  0  0  0  0  0  0
   40.4660   31.7120   39.4950 H   0  0  0  0  0  0  0  0  0  0  0  0
   40.9030   33.8150   41.1030 H   0  0  0  0  0  0  0  0  0  0  0  0
   38.6540   35.0080   41.5550 H   0  0  0  0  0  0  0  0  0  0  0  0
   36.7730   30.4900   40.8010 O   0  0  0  0  0  0  0  0  0  0  0  0
   37.5710   29.7860   41.6540 C   0  0  0  0  0  0  0  0  0  0  0  0
   38.4850   30.2450   42.4270 O   0  0  0  0  0  0  0  0  0  0  0  0
   36.7090   27.7120   42.7780 C   0  0  0  0  0  3  0  0  0  0  0  0
   37.5060   28.3080   41.8300 C   0  0  0  0  0  0  0  0  0  0  0  0
   38.2410   27.4270   41.0610 C   0  0  0  0  0  0  0  0  0  0  0  0
   38.8880   27.8410   40.2970 H   0  0  0  0  0  0  0  0  0  0  0  0
   38.2390   26.0570   41.1630 C   0  0  0  0  0  0  0  0  0  0  0  0
   38.8850   25.0830   40.4990 N   0  0  0  0  0  0  0  0  0  0  0  0
   38.4780   23.9120   41.0480 C   0  0  0  0  0  0  0  0  0  0  0  0
   38.8850   22.9830   40.6530 H   0  0  0  0  0  0  0  0  0  0  0  0
   37.5950   24.1700   42.0310 N   0  0  0  0  0  0  0  0  0  0  0  0
   37.4230   25.5120   42.1280 C   0  0  0  0  0  0  0  0  0  0  0  0
   36.6590   26.3220   42.9350 C   0  0  0  0  0  3  0  0  0  0  0  0
   39.5660   25.2420   39.7160 H   0  0  0  0  0  0  0  0  0  0  0  0
  1 17  1  0  0  0  0
  2  1  1  0  0  0  0
  2  9  1  0  0  0  0
  3  2  2  0  0  0  0
  4  5  2  0  0  0  0
  4  3  1  0  0  0  0
  5  6  1  0  0  0  0
  6  1  2  0  0  0  0
  7  3  1  0  0  0  0
  8  5  1  0  0  0  0
  9 10  1  0  0  0  0
  9 13  2  0  0  0  0
 10 11  2  0  0  0  0
 11 12  1  0  0  0  0
 11 15  1  0  0  0  0
 12 16  1  0  0  0  0
 13 12  1  0  0  0  0
 14 10  1  0  0  0  0
 17 18  1  0  0  0  0
 18 21  1  0  0  0  0
 18 19  2  0  0  0  0
 20 30  1  0  0  0  0
 21 20  2  0  0  0  0
 22 24  2  0  0  0  0
 22 21  1  0  0  0  0
 23 22  1  0  0  0  0
 24 29  1  0  0  0  0
 25 26  1  0  0  0  0
 25 24  1  0  0  0  0
 26 28  2  0  0  0  0
 27 26  1  0  0  0  0
 28 29  1  0  0  0  0
 29 30  2  0  0  0  0
 31 25  1  0  0  0  0
M  END
>  <minimizedAffinity>
-5.44101524

$$$$

 OpenBabel03252508523D

 31 34  0  0  0  0  0  0  0  0999 V2000
   37.0860   26.5500   41.5840 C   0  0  0  0  0  0  0  0  0  0  0  0
   37.3480   26.3450   40.2330 C   0  0  0  0  0  0  0  0  0  0  0  0
   37.8370   25.0760   39.8760 C   0  0  0  0  0  0  0  0  0  0  0  0
   38.0170   24.1490   40.8630 N   0  0  0  0  0  0  0  0  0  0  0  0
   37.7500   24.3990   42.1400 C   0  0  0  0  0  0  0  0  0  0  0  0
   37.2820   25.6010   42.5150 N   0  0  0  0  0  0  0  0  0  0  0  0
   38.0450   24.9050   38.8240 H   0  0  0  0  0  0  0  0  0  0  0  0
   37.9080   23.6330   42.8910 H   0  0  0  0  0  0  0  0  0  0  0  0
   37.1170   27.4060   39.2790 C   0  0  0  0  0  0  0  0  0  0  0  0
   35.8540   27.6970   38.7700 C   0  0  0  0  0  0  0  0  0  0  0  0
   36.0970   28.7540   37.9170 C   0  0  0  0  0  0  0  0  0  0  0  0
   37.4170   29.0850   37.9060 N   0  0  0  0  0  0  0  0  0  0  0  0
   38.0030   28.2510   38.7380 N   0  0  0  0  0  0  0  0  0  0  0  0
   34.8810   27.2400   38.9590 H   0  0  0  0  0  0  0  0  0  0  0  0
   35.3790   29.2940   37.3060 H   0  0  0  0  0  0  0  0  0  0  0  0
   37.9070   29.8300   37.3700 H   0  0  0  0  0  0  0  0  0  0  0  0
   36.6030   27.7880   41.9770 O   0  0  0  0  0  0  0  0  0  0  0  0
   37.3150   28.8180   42.5180 C   0  0  0  0  0  0  0  0  0  0  0  0
   37.8540   28.8710   43.6790 O   0  0  0  0  0  0  0  0  0  0  0  0
   36.6450   30.7420   41.0480 C   0  0  0  0  0  3  0  0  0  0  0  0
   37.5900   30.1030   41.8140 C   0  0  0  0  0  0  0  0  0  0  0  0
   38.8120   30.7450   41.8730 C   0  0  0  0  0  0  0  0  0  0  0  0
   39.5960   30.2860   42.4630 H   0  0  0  0  0  0  0  0  0  0  0  0
   39.1450   31.9240   41.2520 C   0  0  0  0  0  0  0  0  0  0  0  0
   40.2690   32.6600   41.2150 N   0  0  0  0  0  0  0  0  0  0  0  0
   39.9980   33.7320   40.4310 C   0  0  0  0  0  0  0  0  0  0  0  0
   40.7820   34.4680   40.2650 H   0  0  0  0  0  0  0  0  0  0  0  0
   38.7250   33.6500   39.9970 N   0  0  0  0  0  0  0  0  0  0  0  0
   38.1610   32.5220   40.4970 C   0  0  0  0  0  0  0  0  0  0  0  0
   36.9180   31.9460   40.3890 C   0  0  0  0  0  3  0  0  0  0  0  0
   41.1620   32.4160   41.7110 H   0  0  0  0  0  0  0  0  0  0  0  0
  1 17  1  0  0  0  0
  1  6  1  0  0  0  0
  2  1  2  0  0  0  0
  3  2  1  0  0  0  0
  3  4  2  0  0  0  0
  4  5  1  0  0  0  0
  5  6  2  0  0  0  0
  5  8  1  0  0  0  0
  7  3  1  0  0  0  0
  9  2  1  0  0  0  0
 10 14  1  0  0  0  0
 10  9  1  0  0  0  0
 11 10  2  0  0  0  0
 12 11  1  0  0  0  0
 12 13  1  0  0  0  0
 13  9  2  0  0  0  0
 15 11  1  0  0  0  0
 16 12  1  0  0  0  0
 17 18  1  0  0  0  0
 18 19  2  0  0  0  0
 20 21  1  0  0  0  0
 21 22  2  0  0  0  0
 21 18  1  0  0  0  0
 22 23  1  0  0  0  0
 24 22  1  0  0  0  0
 25 24  1  0  0  0  0
 25 31  1  0  0  0  0
 26 25  1  0  0  0  0
 27 26  1  0  0  0  0
 28 26  2  0  0  0  0
 28 29  1  0  0  0  0
 29 24  2  0  0  0  0
 30 29  1  0  0  0  0
 30 20  2  0  0  0  0
M  END
>  <minimizedAffinity>
-5.38257885

$$$$

 OpenBabel03252508523D

 31 34  0  0  0  0  0  0  0  0999 V2000
   39.0300   30.9600   41.6180 C   0  0  0  0  0  0  0  0  0  0  0  0
   39.2990   29.7490   42.2470 C   0  0  0  0  0  0  0  0  0  0  0  0
   40.6490   29.4750   42.5290 C   0  0  0  0  0  0  0  0  0  0  0  0
   41.5860   30.4040   42.1720 N   0  0  0  0  0  0  0  0  0  0  0  0
   41.2730   31.5460   41.5720 C   0  0  0  0  0  0  0  0  0  0  0  0
   39.9930   31.8370   41.2880 N   0  0  0  0  0  0  0  0  0  0  0  0
   40.8710   28.5330   43.0200 H   0  0  0  0  0  0  0  0  0  0  0  0
   42.0500   32.2540   41.3060 H   0  0  0  0  0  0  0  0  0  0  0  0
   38.2200   28.8450   42.5770 C   0  0  0  0  0  0  0  0  0  0  0  0
   37.8420   27.7910   41.7490 C   0  0  0  0  0  0  0  0  0  0  0  0
   36.8000   27.2090   42.4400 C   0  0  0  0  0  0  0  0  0  0  0  0
   36.5580   27.8620   43.6090 N   0  0  0  0  0  0  0  0  0  0  0  0
   37.4320   28.8430   43.6600 N   0  0  0  0  0  0  0  0  0  0  0  0
   38.2340   27.4600   40.7860 H   0  0  0  0  0  0  0  0  0  0  0  0
   36.2090   26.3450   42.1480 H   0  0  0  0  0  0  0  0  0  0  0  0
   35.8440   27.6650   44.3410 H   0  0  0  0  0  0  0  0  0  0  0  0
   37.7110   31.2660   41.3230 O   0  0  0  0  0  0  0  0  0  0  0  0
   37.2030   31.6500   40.1160 C   0  0  0  0  0  0  0  0  0  0  0  0
   37.0460   32.8440   39.6800 O   0  0  0  0  0  0  0  0  0  0  0  0
   35.7670   29.7500   39.3190 C   0  0  0  0  0  3  0  0  0  0  0  0
   36.7280   30.7010   39.0710 C   0  0  0  0  0  0  0  0  0  0  0  0
   37.2180   30.7010   37.7790 C   0  0  0  0  0  0  0  0  0  0  0  0
   37.9770   31.4300   37.5260 H   0  0  0  0  0  0  0  0  0  0  0  0
   36.8360   29.8600   36.7620 C   0  0  0  0  0  0  0  0  0  0  0  0
   37.2110   29.7380   35.4770 N   0  0  0  0  0  0  0  0  0  0  0  0
   36.4800   28.7210   34.9600 C   0  0  0  0  0  0  0  0  0  0  0  0
   36.6280   28.4510   33.9170 H   0  0  0  0  0  0  0  0  0  0  0  0
   35.6700   28.2300   35.9170 N   0  0  0  0  0  0  0  0  0  0  0  0
   35.8700   28.9260   37.0640 C   0  0  0  0  0  0  0  0  0  0  0  0
   35.3330   28.8620   38.3270 C   0  0  0  0  0  3  0  0  0  0  0  0
   37.9350   30.3360   35.0050 H   0  0  0  0  0  0  0  0  0  0  0  0
  1  2  1  0  0  0  0
  2  3  2  0  0  0  0
  2  9  1  0  0  0  0
  3  7  1  0  0  0  0
  4  3  1  0  0  0  0
  5  4  2  0  0  0  0
  6  5  1  0  0  0  0
  6  1  2  0  0  0  0
  8  5  1  0  0  0  0
  9 13  2  0  0  0  0
 10 11  2  0  0  0  0
 10  9  1  0  0  0  0
 11 12  1  0  0  0  0
 12 13  1  0  0  0  0
 12 16  1  0  0  0  0
 14 10  1  0  0  0  0
 15 11  1  0  0  0  0
 17  1  1  0  0  0  0
 18 17  1  0  0  0  0
 19 18  2  0  0  0  0
 21 20  1  0  0  0  0
 21 18  1  0  0  0  0
 22 21  2  0  0  0  0
 23 22  1  0  0  0  0
 24 29  2  0  0  0  0
 24 22  1  0  0  0  0
 25 24  1  0  0  0  0
 26 25  1  0  0  0  0
 26 28  2  0  0  0  0
 27 26  1  0  0  0  0
 28 29  1  0  0  0  0
 29 30  1  0  0  0  0
 30 20  2  0  0  0  0
 31 25  1  0  0  0  0
M  END
>  <minimizedAffinity>
-5.33101988

$$$$

 OpenBabel03252508523D

 31 34  0  0  0  0  0  0  0  0999 V2000
   37.1440   29.1100   40.2400 C   0  0  0  0  0  0  0  0  0  0  0  0
   37.5600   30.0020   41.2230 C   0  0  0  0  0  0  0  0  0  0  0  0
   37.7740   29.4650   42.5050 C   0  0  0  0  0  0  0  0  0  0  0  0
   37.5620   28.1280   42.6920 N   0  0  0  0  0  0  0  0  0  0  0  0
   37.1650   27.3210   41.7150 C   0  0  0  0  0  0  0  0  0  0  0  0
   36.9520   27.8020   40.4790 N   0  0  0  0  0  0  0  0  0  0  0  0
   38.0980   30.1520   43.2810 H   0  0  0  0  0  0  0  0  0  0  0  0
   37.0100   26.2650   41.9080 H   0  0  0  0  0  0  0  0  0  0  0  0
   37.7510   31.3990   40.9040 C   0  0  0  0  0  0  0  0  0  0  0  0
   38.9570   32.0610   41.1200 C   0  0  0  0  0  0  0  0  0  0  0  0
   38.6920   33.3420   40.6830 C   0  0  0  0  0  0  0  0  0  0  0  0
   37.4130   33.4540   40.2310 N   0  0  0  0  0  0  0  0  0  0  0  0
   36.8740   32.2640   40.3800 N   0  0  0  0  0  0  0  0  0  0  0  0
   39.9060   31.7090   41.5290 H   0  0  0  0  0  0  0  0  0  0  0  0
   39.3670   34.1950   40.6720 H   0  0  0  0  0  0  0  0  0  0  0  0
   36.9190   34.2840   39.8420 H   0  0  0  0  0  0  0  0  0  0  0  0
   36.9240   29.6000   38.9630 O   0  0  0  0  0  0  0  0  0  0  0  0
   37.6880   29.3850   37.8530 C   0  0  0  0  0  0  0  0  0  0  0  0
   37.3860   28.6910   36.8190 O   0  0  0  0  0  0  0  0  0  0  0  0
   40.1630   29.1510   37.4960 C   0  0  0  0  0  3  0  0  0  0  0  0
   39.0540   29.9470   37.6590 C   0  0  0  0  0  0  0  0  0  0  0  0
   39.3110   31.3040   37.6330 C   0  0  0  0  0  0  0  0  0  0  0  0
   38.4740   31.9800   37.7560 H   0  0  0  0  0  0  0  0  0  0  0  0
   40.5380   31.8990   37.4640 C   0  0  0  0  0  0  0  0  0  0  0  0
   40.9410   33.1800   37.4150 N   0  0  0  0  0  0  0  0  0  0  0  0
   42.2830   33.1510   37.2260 C   0  0  0  0  0  0  0  0  0  0  0  0
   42.8200   34.0950   37.1560 H   0  0  0  0  0  0  0  0  0  0  0  0
   42.6910   31.8690   37.1590 N   0  0  0  0  0  0  0  0  0  0  0  0
   41.6150   31.0560   37.3050 C   0  0  0  0  0  0  0  0  0  0  0  0
   41.4420   29.6930   37.3190 C   0  0  0  0  0  3  0  0  0  0  0  0
   40.3080   34.0120   37.5110 H   0  0  0  0  0  0  0  0  0  0  0  0
  1  6  2  0  0  0  0
  1  2  1  0  0  0  0
  2  3  2  0  0  0  0
  3  4  1  0  0  0  0
  3  7  1  0  0  0  0
  5  8  1  0  0  0  0
  5  4  2  0  0  0  0
  6  5  1  0  0  0  0
  9 10  1  0  0  0  0
  9  2  1  0  0  0  0
 10 14  1  0  0  0  0
 11 10  2  0  0  0  0
 12 13  1  0  0  0  0
 12 11  1  0  0  0  0
 13  9  2  0  0  0  0
 15 11  1  0  0  0  0
 16 12  1  0  0  0  0
 17  1  1  0  0  0  0
 18 17  1  0  0  0  0
 19 18  2  0  0  0  0
 20 21  1  0  0  0  0
 21 18  1  0  0  0  0
 22 21  2  0  0  0  0
 22 23  1  0  0  0  0
 24 22  1  0  0  0  0
 25 24  1  0  0  0  0
 25 31  1  0  0  0  0
 26 25  1  0  0  0  0
 27 26  1  0  0  0  0
 28 26  2  0  0  0  0
 28 29  1  0  0  0  0
 29 30  1  0  0  0  0
 29 24  2  0  0  0  0
 30 20  2  0  0  0  0
M  END
>  <minimizedAffinity>
-5.33067131

$$$$

 OpenBabel03252508523D

 31 34  0  0  0  0  0  0  0  0999 V2000
   36.4500   29.9180   40.3950 C   0  0  0  0  0  0  0  0  0  0  0  0
   37.2240   30.7330   39.5740 C   0  0  0  0  0  0  0  0  0  0  0  0
   36.9260   30.7020   38.2000 C   0  0  0  0  0  0  0  0  0  0  0  0
   35.9140   29.8880   37.7750 N   0  0  0  0  0  0  0  0  0  0  0  0
   35.2060   29.1300   38.6040 C   0  0  0  0  0  0  0  0  0  0  0  0
   35.4650   29.1370   39.9210 N   0  0  0  0  0  0  0  0  0  0  0  0
   37.5240   31.3330   37.5500 H   0  0  0  0  0  0  0  0  0  0  0  0
   34.4110   28.4990   38.2210 H   0  0  0  0  0  0  0  0  0  0  0  0
   38.2700   31.5530   40.1420 C   0  0  0  0  0  0  0  0  0  0  0  0
   39.6080   31.1650   40.1500 C   0  0  0  0  0  0  0  0  0  0  0  0
   40.2360   32.2230   40.7740 C   0  0  0  0  0  0  0  0  0  0  0  0
   39.3440   33.1890   41.1230 N   0  0  0  0  0  0  0  0  0  0  0  0
   38.1680   32.7520   40.7270 N   0  0  0  0  0  0  0  0  0  0  0  0
   40.0960   30.2650   39.7740 H   0  0  0  0  0  0  0  0  0  0  0  0
   41.2950   32.3340   40.9900 H   0  0  0  0  0  0  0  0  0  0  0  0
   39.5070   34.0990   41.6020 H   0  0  0  0  0  0  0  0  0  0  0  0
   36.7120   29.9210   41.7550 O   0  0  0  0  0  0  0  0  0  0  0  0
   37.4780   29.0300   42.4500 C   0  0  0  0  0  0  0  0  0  0  0  0
   37.9330   29.1540   43.6410 O   0  0  0  0  0  0  0  0  0  0  0  0
   39.1370   27.5510   41.2800 C   0  0  0  0  0  3  0  0  0  0  0  0
   37.9260   27.7160   41.9090 C   0  0  0  0  0  0  0  0  0  0  0  0
   37.1620   26.5690   41.9940 C   0  0  0  0  0  0  0  0  0  0  0  0
   36.1970   26.6390   42.4810 H   0  0  0  0  0  0  0  0  0  0  0  0
   37.5010   25.3250   41.5200 C   0  0  0  0  0  0  0  0  0  0  0  0
   36.8770   24.1340   41.5270 N   0  0  0  0  0  0  0  0  0  0  0  0
   37.7090   23.2630   40.9050 C   0  0  0  0  0  0  0  0  0  0  0  0
   37.3950   22.2270   40.8000 H   0  0  0  0  0  0  0  0  0  0  0  0
   38.8250   23.9150   40.5250 N   0  0  0  0  0  0  0  0  0  0  0  0
   38.7250   25.2160   40.8980 C   0  0  0  0  0  0  0  0  0  0  0  0
   39.5450   26.3120   40.7740 C   0  0  0  0  0  3  0  0  0  0  0  0
   35.9300   23.9570   41.9430 H   0  0  0  0  0  0  0  0  0  0  0  0
  1 17  1  0  0  0  0
  2  9  1  0  0  0  0
  2  1  2  0  0  0  0
  3  2  1  0  0  0  0
  4  3  2  0  0  0  0
  4  5  1  0  0  0  0
  5  6  2  0  0  0  0
  6  1  1  0  0  0  0
  7  3  1  0  0  0  0
  8  5  1  0  0  0  0
  9 10  1  0  0  0  0
  9 13  2  0  0  0  0
 10 11  2  0  0  0  0
 11 15  1  0  0  0  0
 11 12  1  0  0  0  0
 12 16  1  0  0  0  0
 13 12  1  0  0  0  0
 14 10  1  0  0  0  0
 17 18  1  0  0  0  0
 18 19  2  0  0  0  0
 20 21  1  0  0  0  0
 21 22  2  0  0  0  0
 21 18  1  0  0  0  0
 22 23  1  0  0  0  0
 24 25  1  0  0  0  0
 24 22  1  0  0  0  0
 25 31  1  0  0  0  0
 26 25  1  0  0  0  0
 27 26  1  0  0  0  0
 28 29  1  0  0  0  0
 28 26  2  0  0  0  0
 29 24  2  0  0  0  0
 30 29  1  0  0  0  0
 30 20  2  0  0  0  0
M  END
>  <minimizedAffinity>
-5.22816515

$$$$

 OpenBabel03252508523D

 31 34  0  0  0  0  0  0  0  0999 V2000
   38.3940   26.5540   40.1990 C   0  0  0  0  0  0  0  0  0  0  0  0
   37.4130   26.8670   41.1360 C   0  0  0  0  0  0  0  0  0  0  0  0
   37.2350   25.9500   42.1860 C   0  0  0  0  0  0  0  0  0  0  0  0
   38.0230   24.8340   42.2140 N   0  0  0  0  0  0  0  0  0  0  0  0
   38.9460   24.5840   41.2920 C   0  0  0  0  0  0  0  0  0  0  0  0
   39.1410   25.4400   40.2760 N   0  0  0  0  0  0  0  0  0  0  0  0
   36.4730   26.1840   42.9230 H   0  0  0  0  0  0  0  0  0  0  0  0
   39.5500   23.6860   41.3530 H   0  0  0  0  0  0  0  0  0  0  0  0
   36.6400   28.0810   41.0000 C   0  0  0  0  0  0  0  0  0  0  0  0
   35.6930   28.2610   39.9950 C   0  0  0  0  0  0  0  0  0  0  0  0
   35.2130   29.5300   40.2420 C   0  0  0  0  0  0  0  0  0  0  0  0
   35.8230   30.0860   41.3230 N   0  0  0  0  0  0  0  0  0  0  0  0
   36.6790   29.1850   41.7560 N   0  0  0  0  0  0  0  0  0  0  0  0
   35.3700   27.6010   39.1880 H   0  0  0  0  0  0  0  0  0  0  0  0
   34.4510   30.0720   39.6880 H   0  0  0  0  0  0  0  0  0  0  0  0
   35.6800   31.0230   41.7550 H   0  0  0  0  0  0  0  0  0  0  0  0
   38.6000   27.4330   39.1490 O   0  0  0  0  0  0  0  0  0  0  0  0
   39.4630   28.4900   39.1140 C   0  0  0  0  0  0  0  0  0  0  0  0
   40.7380   28.4540   39.0010 O   0  0  0  0  0  0  0  0  0  0  0  0
   38.1710   30.4890   38.3120 C   0  0  0  0  0  3  0  0  0  0  0  0
   39.0390   29.9150   39.2100 C   0  0  0  0  0  0  0  0  0  0  0  0
   39.4880   30.7670   40.2010 C   0  0  0  0  0  0  0  0  0  0  0  0
   40.1750   30.3690   40.9370 H   0  0  0  0  0  0  0  0  0  0  0  0
   39.1490   32.0890   40.3550 C   0  0  0  0  0  0  0  0  0  0  0  0
   39.4940   33.0310   41.2500 N   0  0  0  0  0  0  0  0  0  0  0  0
   38.8370   34.1600   40.8890 C   0  0  0  0  0  0  0  0  0  0  0  0
   38.9760   35.0570   41.4890 H   0  0  0  0  0  0  0  0  0  0  0  0
   38.1010   33.9090   39.7900 N   0  0  0  0  0  0  0  0  0  0  0  0
   38.2760   32.6140   39.4280 C   0  0  0  0  0  0  0  0  0  0  0  0
   37.7840   31.8300   38.4120 C   0  0  0  0  0  3  0  0  0  0  0  0
   40.1490   32.8790   42.0560 H   0  0  0  0  0  0  0  0  0  0  0  0
  1  6  2  0  0  0  0
  1  2  1  0  0  0  0
  2  3  2  0  0  0  0
  3  4  1  0  0  0  0
  3  7  1  0  0  0  0
  5  8  1  0  0  0  0
  5  4  2  0  0  0  0
  6  5  1  0  0  0  0
  9  2  1  0  0  0  0
  9 13  2  0  0  0  0
 10 11  2  0  0  0  0
 10  9  1  0  0  0  0
 11 12  1  0  0  0  0
 12 16  1  0  0  0  0
 12 13  1  0  0  0  0
 14 10  1  0  0  0  0
 15 11  1  0  0  0  0
 17  1  1  0  0  0  0
 18 17  1  0  0  0  0
 18 21  1  0  0  0  0
 19 18  2  0  0  0  0
 20 30  2  0  0  0  0
 20 21  1  0  0  0  0
 21 22  2  0  0  0  0
 22 24  1  0  0  0  0
 22 23  1  0  0  0  0
 24 25  1  0  0  0  0
 25 31  1  0  0  0  0
 26 25  1  0  0  0  0
 26 27  1  0  0  0  0
 28 26  2  0  0  0  0
 29 28  1  0  0  0  0
 29 24  2  0  0  0  0
 30 29  1  0  0  0  0
M  END
>  <minimizedAffinity>
-5.2101717

$$$$
