
 OpenBabel03242518493D

 26 28  0  0  0  0  0  0  0  0999 V2000
   45.5300   33.3960   46.6640 C   0  0  0  0  0  0  0  0  0  0  0  0
   44.6620   33.5970   47.5320 O   0  0  0  0  0  0  0  0  0  0  0  0
   46.6620   31.2430   46.2240 C   0  0  0  0  0  0  0  0  0  0  0  0
   46.4580   32.3400   47.0420 C   0  0  0  0  0  0  0  0  0  0  0  0
   47.1800   32.3490   48.2170 C   0  0  0  0  0  0  0  0  0  0  0  0
   47.0630   33.1820   48.9040 H   0  0  0  0  0  0  0  0  0  0  0  0
   48.0640   31.3610   48.6130 C   0  0  0  0  0  0  0  0  0  0  0  0
   48.8390   31.2190   49.7150 N   0  0  0  0  0  0  0  0  0  0  0  0
   49.5040   30.0470   49.5670 C   0  0  0  0  0  0  0  0  0  0  0  0
   50.2000   29.6850   50.3130 H   0  0  0  0  0  0  0  0  0  0  0  0
   49.1530   29.4810   48.4070 N   0  0  0  0  0  0  0  0  0  0  0  0
   48.2530   30.2760   47.7820 C   0  0  0  0  0  0  0  0  0  0  0  0
   47.5490   30.2320   46.6000 C   0  0  0  0  0  0  0  0  0  0  0  0
   48.8960   31.8840   50.5040 H   0  0  0  0  0  0  0  0  0  0  0  0
   44.7200   35.8580   44.1160 C   0  0  0  0  0  0  0  0  0  0  0  0
   45.6520   35.6300   43.0810 C   0  0  0  0  0  0  0  0  0  0  0  0
   46.5620   34.5990   43.2930 C   0  0  0  0  0  0  0  0  0  0  0  0
   46.4840   33.9080   44.4540 N   0  0  0  0  0  0  0  0  0  0  0  0
   45.5860   34.1470   45.4250 C   0  0  0  0  0  0  0  0  0  0  0  0
   44.6950   35.1340   45.2500 N   0  0  0  0  0  0  0  0  0  0  0  0
   43.9840   36.6360   44.0290 H   0  0  0  0  0  0  0  0  0  0  0  0
   45.6280   36.2430   42.1890 H   0  0  0  0  0  0  0  0  0  0  0  0
   47.5190   34.3640   42.2290 C   0  0  0  0  0  0  0  0  0  0  0  0
   48.6570   33.7420   42.7450 F   0  0  0  0  0  0  0  0  0  0  0  0
   47.9620   35.6270   41.8100 F   0  0  0  0  0  0  0  0  0  0  0  0
   47.0540   33.6290   41.2020 F   0  0  0  0  0  0  0  0  0  0  0  0
  1  4  1  0  0  0  0
  1  2  2  0  0  0  0
  3 13  2  0  0  0  0
  3  4  1  0  0  0  0
  4  5  2  0  0  0  0
  5  7  1  0  0  0  0
  5  6  1  0  0  0  0
  7  8  1  0  0  0  0
  8 14  1  0  0  0  0
  9  8  1  0  0  0  0
  9 10  1  0  0  0  0
 11  9  2  0  0  0  0
 12 11  1  0  0  0  0
 12  7  2  0  0  0  0
 13 12  1  0  0  0  0
 15 20  1  0  0  0  0
 16 17  1  0  0  0  0
 16 15  2  0  0  0  0
 17 18  2  0  0  0  0
 18 19  1  0  0  0  0
 19  1  1  0  0  0  0
 20 19  2  0  0  0  0
 21 15  1  0  0  0  0
 22 16  1  0  0  0  0
 23 24  1  0  0  0  0
 23 17  1  0  0  0  0
 25 23  1  0  0  0  0
 26 23  1  0  0  0  0
M  END
>  <minimizedAffinity>
-6.04372025

>  <minimizedRMSD>
0.858366311

$$$$
