
 OpenBabel03252508503D

 31 34  0  0  0  0  0  0  0  0999 V2000
   45.7680   34.2230   41.0340 C   0  0  0  0  0  0  0  0  0  0  0  0
   46.4130   34.7630   42.1420 C   0  0  0  0  0  0  0  0  0  0  0  0
   47.7920   35.0040   42.0090 C   0  0  0  0  0  0  0  0  0  0  0  0
   48.3910   34.6960   40.8200 N   0  0  0  0  0  0  0  0  0  0  0  0
   47.7250   34.1820   39.7920 C   0  0  0  0  0  0  0  0  0  0  0  0
   46.4080   33.9400   39.8870 N   0  0  0  0  0  0  0  0  0  0  0  0
   48.3060   35.4250   42.8670 H   0  0  0  0  0  0  0  0  0  0  0  0
   48.2420   33.9530   38.8660 H   0  0  0  0  0  0  0  0  0  0  0  0
   45.6700   35.0470   43.3490 C   0  0  0  0  0  0  0  0  0  0  0  0
   45.1000   36.2920   43.6050 C   0  0  0  0  0  0  0  0  0  0  0  0
   44.5040   36.1150   44.8370 C   0  0  0  0  0  0  0  0  0  0  0  0
   44.6970   34.8500   45.3000 N   0  0  0  0  0  0  0  0  0  0  0  0
   45.4040   34.2340   44.3780 N   0  0  0  0  0  0  0  0  0  0  0  0
   45.0930   37.2120   43.0190 H   0  0  0  0  0  0  0  0  0  0  0  0
   43.9420   36.8440   45.4150 H   0  0  0  0  0  0  0  0  0  0  0  0
   44.3730   34.4150   46.1890 H   0  0  0  0  0  0  0  0  0  0  0  0
   44.4090   33.9720   41.1260 O   0  0  0  0  0  0  0  0  0  0  0  0
   43.3910   34.7670   40.6850 C   0  0  0  0  0  0  0  0  0  0  0  0
   43.2710   36.0340   40.8280 O   0  0  0  0  0  0  0  0  0  0  0  0
   41.0790   35.0270   39.7400 C   0  0  0  0  0  3  0  0  0  0  0  0
   42.2050   34.2640   39.9350 C   0  0  0  0  0  0  0  0  0  0  0  0
   42.1460   32.9990   39.3840 C   0  0  0  0  0  0  0  0  0  0  0  0
   43.0060   32.3530   39.5070 H   0  0  0  0  0  0  0  0  0  0  0  0
   41.0920   32.4620   38.6840 C   0  0  0  0  0  0  0  0  0  0  0  0
   40.8870   31.2710   38.0970 N   0  0  0  0  0  0  0  0  0  0  0  0
   39.6460   31.3200   37.5550 C   0  0  0  0  0  0  0  0  0  0  0  0
   39.2750   30.4450   37.0250 H   0  0  0  0  0  0  0  0  0  0  0  0
   39.1030   32.5270   37.8080 N   0  0  0  0  0  0  0  0  0  0  0  0
   39.9880   33.2690   38.5170 C   0  0  0  0  0  0  0  0  0  0  0  0
   39.9710   34.5420   39.0360 C   0  0  0  0  0  3  0  0  0  0  0  0
   41.5800   30.4820   38.0850 H   0  0  0  0  0  0  0  0  0  0  0  0
  1 17  1  0  0  0  0
  1  2  1  0  0  0  0
  2  9  1  0  0  0  0
  3  2  2  0  0  0  0
  3  7  1  0  0  0  0
  4  3  1  0  0  0  0
  5  6  1  0  0  0  0
  5  4  2  0  0  0  0
  6  1  2  0  0  0  0
  8  5  1  0  0  0  0
  9 10  1  0  0  0  0
  9 13  2  0  0  0  0
 10 11  2  0  0  0  0
 11 12  1  0  0  0  0
 11 15  1  0  0  0  0
 12 16  1  0  0  0  0
 13 12  1  0  0  0  0
 14 10  1  0  0  0  0
 18 19  2  0  0  0  0
 18 17  1  0  0  0  0
 20 21  1  0  0  0  0
 21 18  1  0  0  0  0
 22 23  1  0  0  0  0
 22 21  2  0  0  0  0
 24 22  1  0  0  0  0
 25 24  1  0  0  0  0
 26 28  2  0  0  0  0
 26 25  1  0  0  0  0
 27 26  1  0  0  0  0
 28 29  1  0  0  0  0
 29 24  2  0  0  0  0
 29 30  1  0  0  0  0
 30 20  2  0  0  0  0
 31 25  1  0  0  0  0
M  END
>  <minimizedAffinity>
-5.73517036

>  <minimizedRMSD>
1.29003525

$$$$
