
 OpenBabel03252508503D

 31 34  0  0  0  0  0  0  0  0999 V2000
   45.9410   34.1860   41.0360 C   0  0  0  0  0  0  0  0  0  0  0  0
   46.5300   34.8020   42.1360 C   0  0  0  0  0  0  0  0  0  0  0  0
   47.8830   35.1600   42.0030 C   0  0  0  0  0  0  0  0  0  0  0  0
   48.5130   34.8850   40.8220 N   0  0  0  0  0  0  0  0  0  0  0  0
   47.9010   34.2940   39.8020 C   0  0  0  0  0  0  0  0  0  0  0  0
   46.6100   33.9390   39.8970 N   0  0  0  0  0  0  0  0  0  0  0  0
   48.3540   35.6410   42.8550 H   0  0  0  0  0  0  0  0  0  0  0  0
   48.4410   34.0950   38.8830 H   0  0  0  0  0  0  0  0  0  0  0  0
   45.7580   35.0420   43.3350 C   0  0  0  0  0  0  0  0  0  0  0  0
   45.0730   36.2330   43.5620 C   0  0  0  0  0  0  0  0  0  0  0  0
   44.4910   36.0280   44.7960 C   0  0  0  0  0  0  0  0  0  0  0  0
   44.8000   34.7970   45.2880 N   0  0  0  0  0  0  0  0  0  0  0  0
   45.5660   34.2290   44.3810 N   0  0  0  0  0  0  0  0  0  0  0  0
   44.9830   37.1350   42.9550 H   0  0  0  0  0  0  0  0  0  0  0  0
   43.8610   36.7140   45.3560 H   0  0  0  0  0  0  0  0  0  0  0  0
   44.5150   34.3530   46.1850 H   0  0  0  0  0  0  0  0  0  0  0  0
   44.6080   33.8180   41.1280 O   0  0  0  0  0  0  0  0  0  0  0  0
   43.5320   34.4810   40.6150 C   0  0  0  0  0  0  0  0  0  0  0  0
   43.3220   35.7450   40.6120 O   0  0  0  0  0  0  0  0  0  0  0  0
   42.1970   32.4500   39.9810 C   0  0  0  0  0  3  0  0  0  0  0  0
   42.3780   33.8120   39.9500 C   0  0  0  0  0  0  0  0  0  0  0  0
   41.4080   34.5060   39.2520 C   0  0  0  0  0  0  0  0  0  0  0  0
   41.4990   35.5830   39.1940 H   0  0  0  0  0  0  0  0  0  0  0  0
   40.3200   33.9630   38.6110 C   0  0  0  0  0  0  0  0  0  0  0  0
   39.3090   34.4950   37.9030 N   0  0  0  0  0  0  0  0  0  0  0  0
   38.5280   33.4580   37.5140 C   0  0  0  0  0  0  0  0  0  0  0  0
   37.6410   33.6680   36.9200 H   0  0  0  0  0  0  0  0  0  0  0  0
   39.0580   32.3090   37.9780 N   0  0  0  0  0  0  0  0  0  0  0  0
   40.1870   32.5940   38.6730 C   0  0  0  0  0  0  0  0  0  0  0  0
   41.1110   31.8340   39.3500 C   0  0  0  0  0  3  0  0  0  0  0  0
   39.1850   35.5200   37.7130 H   0  0  0  0  0  0  0  0  0  0  0  0
  1 17  1  0  0  0  0
  1  2  1  0  0  0  0
  2  9  1  0  0  0  0
  3  2  2  0  0  0  0
  3  7  1  0  0  0  0
  4  3  1  0  0  0  0
  5  6  1  0  0  0  0
  5  4  2  0  0  0  0
  6  1  2  0  0  0  0
  8  5  1  0  0  0  0
  9 10  1  0  0  0  0
  9 13  2  0  0  0  0
 10 11  2  0  0  0  0
 11 12  1  0  0  0  0
 11 15  1  0  0  0  0
 12 16  1  0  0  0  0
 13 12  1  0  0  0  0
 14 10  1  0  0  0  0
 18 17  1  0  0  0  0
 19 18  2  0  0  0  0
 21 20  1  0  0  0  0
 21 18  1  0  0  0  0
 22 21  2  0  0  0  0
 23 22  1  0  0  0  0
 24 29  2  0  0  0  0
 24 22  1  0  0  0  0
 25 24  1  0  0  0  0
 26 25  1  0  0  0  0
 26 28  2  0  0  0  0
 27 26  1  0  0  0  0
 28 29  1  0  0  0  0
 29 30  1  0  0  0  0
 30 20  2  0  0  0  0
 31 25  1  0  0  0  0
M  END
>  <minimizedAffinity>
-5.93023586

>  <minimizedRMSD>
0.868353665

$$$$
