
 OpenBabel03252508503D

 31 34  0  0  0  0  0  0  0  0999 V2000
   46.0840   34.1690   41.0430 C   0  0  0  0  0  0  0  0  0  0  0  0
   46.6120   34.8530   42.1330 C   0  0  0  0  0  0  0  0  0  0  0  0
   47.9350   35.3100   42.0050 C   0  0  0  0  0  0  0  0  0  0  0  0
   48.5980   35.0550   40.8380 N   0  0  0  0  0  0  0  0  0  0  0  0
   48.0440   34.3960   39.8260 C   0  0  0  0  0  0  0  0  0  0  0  0
   46.7820   33.9460   39.9170 N   0  0  0  0  0  0  0  0  0  0  0  0
   48.3580   35.8450   42.8500 H   0  0  0  0  0  0  0  0  0  0  0  0
   48.6080   34.2170   38.9180 H   0  0  0  0  0  0  0  0  0  0  0  0
   45.8100   35.0620   43.3180 C   0  0  0  0  0  0  0  0  0  0  0  0
   45.0460   36.2090   43.5160 C   0  0  0  0  0  0  0  0  0  0  0  0
   44.4620   35.9870   44.7460 C   0  0  0  0  0  0  0  0  0  0  0  0
   44.8430   34.7880   45.2630 N   0  0  0  0  0  0  0  0  0  0  0  0
   45.6570   34.2570   44.3760 N   0  0  0  0  0  0  0  0  0  0  0  0
   44.9050   37.0930   42.8920 H   0  0  0  0  0  0  0  0  0  0  0  0
   43.7810   36.6400   45.2860 H   0  0  0  0  0  0  0  0  0  0  0  0
   44.5760   34.3420   46.1650 H   0  0  0  0  0  0  0  0  0  0  0  0
   44.7820   33.7030   41.1300 O   0  0  0  0  0  0  0  0  0  0  0  0
   43.7160   34.0850   40.3700 C   0  0  0  0  0  0  0  0  0  0  0  0
   43.2250   35.2620   40.2470 O   0  0  0  0  0  0  0  0  0  0  0  0
   41.6250   32.8000   39.8330 C   0  0  0  0  0  3  0  0  0  0  0  0
   42.9170   33.1530   39.5250 C   0  0  0  0  0  0  0  0  0  0  0  0
   43.4120   32.5710   38.3720 C   0  0  0  0  0  0  0  0  0  0  0  0
   44.4270   32.8140   38.0790 H   0  0  0  0  0  0  0  0  0  0  0  0
   42.7430   31.7040   37.5440 C   0  0  0  0  0  0  0  0  0  0  0  0
   43.0820   31.0670   36.4100 N   0  0  0  0  0  0  0  0  0  0  0  0
   42.0000   30.3380   36.0430 C   0  0  0  0  0  0  0  0  0  0  0  0
   42.0590   29.7360   35.1390 H   0  0  0  0  0  0  0  0  0  0  0  0
   41.0150   30.5290   36.9430 N   0  0  0  0  0  0  0  0  0  0  0  0
   41.4520   31.3840   37.9000 C   0  0  0  0  0  0  0  0  0  0  0  0
   40.8880   31.9210   39.0320 C   0  0  0  0  0  3  0  0  0  0  0  0
   44.0150   31.1460   35.9350 H   0  0  0  0  0  0  0  0  0  0  0  0
  1 17  1  0  0  0  0
  1  2  1  0  0  0  0
  2  9  1  0  0  0  0
  3  2  2  0  0  0  0
  3  7  1  0  0  0  0
  4  3  1  0  0  0  0
  5  6  1  0  0  0  0
  5  4  2  0  0  0  0
  6  1  2  0  0  0  0
  8  5  1  0  0  0  0
  9 10  1  0  0  0  0
  9 13  2  0  0  0  0
 10 11  2  0  0  0  0
 11 12  1  0  0  0  0
 11 15  1  0  0  0  0
 12 16  1  0  0  0  0
 13 12  1  0  0  0  0
 14 10  1  0  0  0  0
 18 17  1  0  0  0  0
 19 18  2  0  0  0  0
 21 20  1  0  0  0  0
 21 18  1  0  0  0  0
 22 21  2  0  0  0  0
 23 22  1  0  0  0  0
 24 29  2  0  0  0  0
 24 22  1  0  0  0  0
 25 24  1  0  0  0  0
 26 25  1  0  0  0  0
 26 28  2  0  0  0  0
 27 26  1  0  0  0  0
 28 29  1  0  0  0  0
 29 30  1  0  0  0  0
 30 20  2  0  0  0  0
 31 25  1  0  0  0  0
M  END
>  <minimizedAffinity>
-5.35141754

>  <minimizedRMSD>
0.502765179

$$$$
