
 OpenBabel03252508503D

 31 34  0  0  0  0  0  0  0  0999 V2000
   46.0780   34.1620   41.0160 C   0  0  0  0  0  0  0  0  0  0  0  0
   46.6100   34.8390   42.1090 C   0  0  0  0  0  0  0  0  0  0  0  0
   47.9360   35.2900   41.9810 C   0  0  0  0  0  0  0  0  0  0  0  0
   48.5970   35.0360   40.8130 N   0  0  0  0  0  0  0  0  0  0  0  0
   48.0390   34.3840   39.7990 C   0  0  0  0  0  0  0  0  0  0  0  0
   46.7750   33.9410   39.8890 N   0  0  0  0  0  0  0  0  0  0  0  0
   48.3620   35.8190   42.8280 H   0  0  0  0  0  0  0  0  0  0  0  0
   48.6020   34.2050   38.8890 H   0  0  0  0  0  0  0  0  0  0  0  0
   45.8100   35.0470   43.2950 C   0  0  0  0  0  0  0  0  0  0  0  0
   45.0480   36.1960   43.4950 C   0  0  0  0  0  0  0  0  0  0  0  0
   44.4650   35.9730   44.7250 C   0  0  0  0  0  0  0  0  0  0  0  0
   44.8450   34.7720   45.2400 N   0  0  0  0  0  0  0  0  0  0  0  0
   45.6560   34.2410   44.3510 N   0  0  0  0  0  0  0  0  0  0  0  0
   44.9080   37.0810   42.8730 H   0  0  0  0  0  0  0  0  0  0  0  0
   43.7860   36.6250   45.2670 H   0  0  0  0  0  0  0  0  0  0  0  0
   44.5780   34.3240   46.1410 H   0  0  0  0  0  0  0  0  0  0  0  0
   44.7740   33.7020   41.1020 O   0  0  0  0  0  0  0  0  0  0  0  0
   43.6880   34.1680   40.4200 C   0  0  0  0  0  0  0  0  0  0  0  0
   43.2650   35.3760   40.3550 O   0  0  0  0  0  0  0  0  0  0  0  0
   41.4160   33.3220   39.7640 C   0  0  0  0  0  3  0  0  0  0  0  0
   42.7810   33.3090   39.6080 C   0  0  0  0  0  0  0  0  0  0  0  0
   43.2410   32.4340   38.6410 C   0  0  0  0  0  0  0  0  0  0  0  0
   44.3080   32.3820   38.4730 H   0  0  0  0  0  0  0  0  0  0  0  0
   42.4720   31.6100   37.8560 C   0  0  0  0  0  0  0  0  0  0  0  0
   42.7660   30.7200   36.8920 N   0  0  0  0  0  0  0  0  0  0  0  0
   41.5830   30.2040   36.4750 C   0  0  0  0  0  0  0  0  0  0  0  0
   41.5910   29.4550   35.6870 H   0  0  0  0  0  0  0  0  0  0  0  0
   40.5830   30.7740   37.1760 N   0  0  0  0  0  0  0  0  0  0  0  0
   41.1110   31.6630   38.0550 C   0  0  0  0  0  0  0  0  0  0  0  0
   40.5760   32.5080   38.9970 C   0  0  0  0  0  3  0  0  0  0  0  0
   43.7340   30.4980   36.5570 H   0  0  0  0  0  0  0  0  0  0  0  0
  1 17  1  0  0  0  0
  1  2  1  0  0  0  0
  2  9  1  0  0  0  0
  3  2  2  0  0  0  0
  3  7  1  0  0  0  0
  4  3  1  0  0  0  0
  5  6  1  0  0  0  0
  5  4  2  0  0  0  0
  6  1  2  0  0  0  0
  8  5  1  0  0  0  0
  9 10  1  0  0  0  0
  9 13  2  0  0  0  0
 10 11  2  0  0  0  0
 11 12  1  0  0  0  0
 11 15  1  0  0  0  0
 12 16  1  0  0  0  0
 13 12  1  0  0  0  0
 14 10  1  0  0  0  0
 18 17  1  0  0  0  0
 19 18  2  0  0  0  0
 21 20  1  0  0  0  0
 21 18  1  0  0  0  0
 22 21  2  0  0  0  0
 23 22  1  0  0  0  0
 24 29  2  0  0  0  0
 24 22  1  0  0  0  0
 25 24  1  0  0  0  0
 26 25  1  0  0  0  0
 26 28  2  0  0  0  0
 27 26  1  0  0  0  0
 28 29  1  0  0  0  0
 29 30  1  0  0  0  0
 30 20  2  0  0  0  0
 31 25  1  0  0  0  0
M  END
>  <minimizedAffinity>
-5.34388447

>  <minimizedRMSD>
0.223959789

$$$$
