
 OpenBabel03242517203D

 41 43  0  0  0  0  0  0  0  0999 V2000
   35.3230   28.9200   40.3360 C   0  0  0  0  0  0  0  0  0  0  0  0
   35.7960   29.1860   39.0140 C   0  0  0  0  0  0  0  0  0  0  0  0
   37.1280   29.4750   38.8210 C   0  0  0  0  0  0  0  0  0  0  0  0
   37.9240   29.4900   39.9250 N   0  0  0  0  0  0  0  0  0  0  0  0
   37.4830   29.2420   41.1610 C   0  0  0  0  0  0  0  0  0  0  0  0
   36.1760   28.9560   41.3560 N   0  0  0  0  0  0  0  0  0  0  0  0
   34.2720   28.6970   40.4430 H   0  0  0  0  0  0  0  0  0  0  0  0
   37.5230   29.6810   37.8500 H   0  0  0  0  0  0  0  0  0  0  0  0
   38.2880   29.2390   42.3920 C   0  0  0  0  0  0  0  0  0  0  0  0
   38.2200   30.2190   42.9010 H   0  0  0  0  0  0  0  0  0  0  0  0
   39.3420   28.9680   42.1730 H   0  0  0  0  0  0  0  0  0  0  0  0
   37.7870   28.1810   43.3510 C   0  0  0  0  0  0  0  0  0  0  0  0
   37.8010   28.5220   44.3920 H   0  0  0  0  0  0  0  0  0  0  0  0
   36.7210   27.9750   43.0370 H   0  0  0  0  0  0  0  0  0  0  0  0
   38.0560   25.7500   42.5680 C   0  0  0  0  0  0  0  0  0  0  0  0
   38.4860   26.8870   43.1630 C   0  0  0  0  0  0  0  0  0  0  0  0
   39.7850   26.8500   43.6790 C   0  0  0  0  0  0  0  0  0  0  0  0
   40.2380   27.7180   44.1830 H   0  0  0  0  0  0  0  0  0  0  0  0
   40.6050   25.7400   43.6030 C   0  0  0  0  0  3  0  0  0  0  0  0
   40.0710   24.6380   42.9800 C   0  0  0  0  0  3  0  0  0  0  0  0
   38.7990   24.5970   42.4470 C   0  0  0  0  0  0  0  0  0  0  0  0
   36.7460   25.8260   42.0620 O   0  0  0  0  0  0  0  0  0  0  0  0
   36.6970   25.9570   41.0450 H   0  0  0  0  0  0  0  0  0  0  0  0
   38.2620   23.4820   41.8190 O   0  0  0  0  0  0  0  0  0  0  0  0
   38.3750   23.2870   40.8360 H   0  0  0  0  0  0  0  0  0  0  0  0
   34.8480   29.1410   37.8860 C   0  0  0  0  0  3  0  0  0  0  0  0
   33.5680   28.8520   38.0000 C   0  0  0  0  0  3  0  0  0  0  0  0
   32.6300   28.8140   36.8520 C   0  0  0  0  0  0  0  0  0  0  0  0
   32.1180   27.8350   36.8340 H   0  0  0  0  0  0  0  0  0  0  0  0
   33.2610   28.9790   35.9440 H   0  0  0  0  0  0  0  0  0  0  0  0
   32.1730   30.5550   34.7110 F   0  0  0  0  0  0  0  0  0  0  0  0
   31.4480   30.7250   35.8320 C   0  0  0  0  0  0  0  0  0  0  0  0
   31.6400   29.8830   36.9250 C   0  0  0  0  0  0  0  0  0  0  0  0
   30.8420   30.1620   38.0000 C   0  0  0  0  0  0  0  0  0  0  0  0
   29.9020   31.1630   38.0940 C   0  0  0  0  0  0  0  0  0  0  0  0
   29.7620   31.9680   36.9670 C   0  0  0  0  0  0  0  0  0  0  0  0
   30.5140   31.7700   35.8410 C   0  0  0  0  0  0  0  0  0  0  0  0
   30.9680   29.5150   38.8800 H   0  0  0  0  0  0  0  0  0  0  0  0
   29.3250   31.2930   39.0010 H   0  0  0  0  0  0  0  0  0  0  0  0
   29.0330   32.7750   36.9850 H   0  0  0  0  0  0  0  0  0  0  0  0
   30.3910   32.4080   34.9670 H   0  0  0  0  0  0  0  0  0  0  0  0
  1  7  1  0  0  0  0
  1  6  1  0  0  0  0
  2  1  2  0  0  0  0
  3  2  1  0  0  0  0
  3  4  2  0  0  0  0
  4  5  1  0  0  0  0
  5  6  2  0  0  0  0
  5  9  1  0  0  0  0
  8  3  1  0  0  0  0
  9 10  1  0  0  0  0
  9 12  1  0  0  0  0
 11  9  1  0  0  0  0
 12 13  1  0  0  0  0
 14 12  1  0  0  0  0
 15 16  1  0  0  0  0
 16 12  1  0  0  0  0
 16 17  2  0  0  0  0
 17 18  1  0  0  0  0
 19 17  1  0  0  0  0
 20 19  2  0  0  0  0
 21 15  2  0  0  0  0
 21 20  1  0  0  0  0
 22 15  1  0  0  0  0
 23 22  1  0  0  0  0
 24 21  1  0  0  0  0
 25 24  1  0  0  0  0
 26 27  2  0  0  0  0
 26  2  1  0  0  0  0
 28 33  1  0  0  0  0
 28 27  1  0  0  0  0
 29 28  1  0  0  0  0
 30 28  1  0  0  0  0
 31 32  1  0  0  0  0
 32 37  2  0  0  0  0
 32 33  1  0  0  0  0
 33 34  2  0  0  0  0
 34 35  1  0  0  0  0
 34 38  1  0  0  0  0
 35 39  1  0  0  0  0
 36 40  1  0  0  0  0
 36 35  2  0  0  0  0
 37 36  1  0  0  0  0
 41 37  1  0  0  0  0
M  END
>  <minimizedAffinity>
-6.69265699

$$$$

 OpenBabel03242517203D

 41 43  0  0  0  0  0  0  0  0999 V2000
   36.3780   28.7340   38.1510 C   0  0  0  0  0  0  0  0  0  0  0  0
   35.8580   28.7890   39.4810 C   0  0  0  0  0  0  0  0  0  0  0  0
   34.5050   28.9620   39.6690 C   0  0  0  0  0  0  0  0  0  0  0  0
   33.7350   29.0720   38.5520 N   0  0  0  0  0  0  0  0  0  0  0  0
   34.2190   29.0210   37.3090 C   0  0  0  0  0  0  0  0  0  0  0  0
   35.5460   28.8500   37.1190 N   0  0  0  0  0  0  0  0  0  0  0  0
   37.4440   28.5960   38.0480 H   0  0  0  0  0  0  0  0  0  0  0  0
   34.0760   29.0100   40.6460 H   0  0  0  0  0  0  0  0  0  0  0  0
   33.4430   29.1310   36.0640 C   0  0  0  0  0  0  0  0  0  0  0  0
   33.8030   28.3970   35.3180 H   0  0  0  0  0  0  0  0  0  0  0  0
   33.4820   30.1660   35.6650 H   0  0  0  0  0  0  0  0  0  0  0  0
   31.9790   28.8500   36.3240 C   0  0  0  0  0  0  0  0  0  0  0  0
   31.5340   28.2110   35.5540 H   0  0  0  0  0  0  0  0  0  0  0  0
   31.9510   28.3150   37.3200 H   0  0  0  0  0  0  0  0  0  0  0  0
   30.5780   30.5320   37.6660 C   0  0  0  0  0  0  0  0  0  0  0  0
   31.2080   30.0960   36.5510 C   0  0  0  0  0  0  0  0  0  0  0  0
   31.1310   30.9400   35.4380 C   0  0  0  0  0  0  0  0  0  0  0  0
   31.6070   30.6850   34.4790 H   0  0  0  0  0  0  0  0  0  0  0  0
   30.4620   32.1490   35.4420 C   0  0  0  0  0  3  0  0  0  0  0  0
   29.8550   32.4980   36.6250 C   0  0  0  0  0  3  0  0  0  0  0  0
   29.8870   31.7190   37.7640 C   0  0  0  0  0  0  0  0  0  0  0  0
   30.6780   29.6580   38.7630 O   0  0  0  0  0  0  0  0  0  0  0  0
   31.3670   29.9470   39.4670 H   0  0  0  0  0  0  0  0  0  0  0  0
   29.2730   32.0740   38.9570 O   0  0  0  0  0  0  0  0  0  0  0  0
   29.7160   32.6350   39.6680 H   0  0  0  0  0  0  0  0  0  0  0  0
   36.7820   28.6560   40.6220 C   0  0  0  0  0  3  0  0  0  0  0  0
   36.4610   28.1250   41.7830 C   0  0  0  0  0  3  0  0  0  0  0  0
   37.4080   27.9990   42.9180 C   0  0  0  0  0  0  0  0  0  0  0  0
   36.8460   28.0660   43.8680 H   0  0  0  0  0  0  0  0  0  0  0  0
   38.1350   28.8400   42.7960 H   0  0  0  0  0  0  0  0  0  0  0  0
   40.0940   27.8330   43.6790 F   0  0  0  0  0  0  0  0  0  0  0  0
   39.4830   26.7090   43.2630 C   0  0  0  0  0  0  0  0  0  0  0  0
   38.1450   26.7420   42.8730 C   0  0  0  0  0  0  0  0  0  0  0  0
   37.6450   25.5350   42.4700 C   0  0  0  0  0  0  0  0  0  0  0  0
   38.3180   24.3360   42.4180 C   0  0  0  0  0  0  0  0  0  0  0  0
   39.6500   24.3740   42.8210 C   0  0  0  0  0  0  0  0  0  0  0  0
   40.2450   25.5330   43.2400 C   0  0  0  0  0  0  0  0  0  0  0  0
   36.5900   25.5260   42.1560 H   0  0  0  0  0  0  0  0  0  0  0  0
   37.8180   23.4370   42.0800 H   0  0  0  0  0  0  0  0  0  0  0  0
   40.2320   23.4550   42.8010 H   0  0  0  0  0  0  0  0  0  0  0  0
   41.2880   25.5450   43.5530 H   0  0  0  0  0  0  0  0  0  0  0  0
  1  2  1  0  0  0  0
  2  3  2  0  0  0  0
  2 26  1  0  0  0  0
  3  8  1  0  0  0  0
  4  3  1  0  0  0  0
  5  4  2  0  0  0  0
  6  5  1  0  0  0  0
  6  1  2  0  0  0  0
  7  1  1  0  0  0  0
  9 12  1  0  0  0  0
  9  5  1  0  0  0  0
 10  9  1  0  0  0  0
 11  9  1  0  0  0  0
 12 16  1  0  0  0  0
 12 14  1  0  0  0  0
 13 12  1  0  0  0  0
 15 21  1  0  0  0  0
 15 22  1  0  0  0  0
 16 15  2  0  0  0  0
 17 19  2  0  0  0  0
 17 16  1  0  0  0  0
 18 17  1  0  0  0  0
 19 20  1  0  0  0  0
 20 21  2  0  0  0  0
 21 24  1  0  0  0  0
 22 23  1  0  0  0  0
 24 25  1  0  0  0  0
 26 27  2  0  0  0  0
 27 28  1  0  0  0  0
 28 29  1  0  0  0  0
 30 28  1  0  0  0  0
 32 31  1  0  0  0  0
 33 28  1  0  0  0  0
 33 32  2  0  0  0  0
 34 33  1  0  0  0  0
 35 34  2  0  0  0  0
 35 36  1  0  0  0  0
 36 37  2  0  0  0  0
 37 32  1  0  0  0  0
 37 41  1  0  0  0  0
 38 34  1  0  0  0  0
 39 35  1  0  0  0  0
 40 36  1  0  0  0  0
M  END
>  <minimizedAffinity>
-6.650702

$$$$

 OpenBabel03242517203D

 41 43  0  0  0  0  0  0  0  0999 V2000
   36.4560   30.6540   38.8230 C   0  0  0  0  0  0  0  0  0  0  0  0
   36.4660   29.4780   38.0100 C   0  0  0  0  0  0  0  0  0  0  0  0
   37.5900   28.6830   37.9900 C   0  0  0  0  0  0  0  0  0  0  0  0
   38.6400   29.0770   38.7620 N   0  0  0  0  0  0  0  0  0  0  0  0
   38.6320   30.1750   39.5220 C   0  0  0  0  0  0  0  0  0  0  0  0
   37.5300   30.9590   39.5460 N   0  0  0  0  0  0  0  0  0  0  0  0
   35.5550   31.2490   38.8100 H   0  0  0  0  0  0  0  0  0  0  0  0
   37.6390   27.7970   37.3960 H   0  0  0  0  0  0  0  0  0  0  0  0
   39.7280   30.6540   40.3780 C   0  0  0  0  0  0  0  0  0  0  0  0
   40.1260   31.6120   39.9970 H   0  0  0  0  0  0  0  0  0  0  0  0
   40.5260   29.8870   40.4610 H   0  0  0  0  0  0  0  0  0  0  0  0
   39.2360   30.8830   41.7910 C   0  0  0  0  0  0  0  0  0  0  0  0
   39.9460   31.4650   42.3900 H   0  0  0  0  0  0  0  0  0  0  0  0
   38.2720   31.4640   41.6800 H   0  0  0  0  0  0  0  0  0  0  0  0
   37.5990   29.1660   42.7740 C   0  0  0  0  0  0  0  0  0  0  0  0
   38.8320   29.6180   42.4500 C   0  0  0  0  0  0  0  0  0  0  0  0
   39.8960   28.7710   42.7770 C   0  0  0  0  0  0  0  0  0  0  0  0
   40.9420   29.0360   42.5590 H   0  0  0  0  0  0  0  0  0  0  0  0
   39.7330   27.5440   43.3930 C   0  0  0  0  0  3  0  0  0  0  0  0
   38.4390   27.1810   43.6790 C   0  0  0  0  0  3  0  0  0  0  0  0
   37.3390   27.9620   43.3880 C   0  0  0  0  0  0  0  0  0  0  0  0
   36.5560   30.0450   42.4290 O   0  0  0  0  0  0  0  0  0  0  0  0
   36.0450   29.7760   41.5800 H   0  0  0  0  0  0  0  0  0  0  0  0
   36.0340   27.5930   43.6800 O   0  0  0  0  0  0  0  0  0  0  0  0
   35.4560   27.0450   43.0600 H   0  0  0  0  0  0  0  0  0  0  0  0
   35.2720   29.1420   37.2140 C   0  0  0  0  0  3  0  0  0  0  0  0
   34.0690   28.9560   37.7170 C   0  0  0  0  0  3  0  0  0  0  0  0
   32.8800   28.6200   36.8960 C   0  0  0  0  0  0  0  0  0  0  0  0
   32.4270   27.6880   37.2790 H   0  0  0  0  0  0  0  0  0  0  0  0
   33.2600   28.5090   35.8500 H   0  0  0  0  0  0  0  0  0  0  0  0
   32.3800   30.2110   34.6510 F   0  0  0  0  0  0  0  0  0  0  0  0
   31.6750   30.4560   35.7700 C   0  0  0  0  0  0  0  0  0  0  0  0
   31.8890   29.6900   36.9150 C   0  0  0  0  0  0  0  0  0  0  0  0
   31.1100   30.0410   37.9830 C   0  0  0  0  0  0  0  0  0  0  0  0
   30.1690   31.0450   38.0260 C   0  0  0  0  0  0  0  0  0  0  0  0
   30.0060   31.7700   36.8490 C   0  0  0  0  0  0  0  0  0  0  0  0
   30.7380   31.4980   35.7250 C   0  0  0  0  0  0  0  0  0  0  0  0
   31.2540   29.4550   38.9020 H   0  0  0  0  0  0  0  0  0  0  0  0
   29.6080   31.2350   38.9320 H   0  0  0  0  0  0  0  0  0  0  0  0
   29.2760   32.5760   36.8260 H   0  0  0  0  0  0  0  0  0  0  0  0
   30.5980   32.0750   34.8130 H   0  0  0  0  0  0  0  0  0  0  0  0
  1  6  1  0  0  0  0
  2  1  2  0  0  0  0
  3  2  1  0  0  0  0
  3  4  2  0  0  0  0
  4  5  1  0  0  0  0
  5  6  2  0  0  0  0
  5  9  1  0  0  0  0
  7  1  1  0  0  0  0
  8  3  1  0  0  0  0
  9 11  1  0  0  0  0
  9 12  1  0  0  0  0
 10  9  1  0  0  0  0
 12 13  1  0  0  0  0
 12 16  1  0  0  0  0
 14 12  1  0  0  0  0
 15 21  1  0  0  0  0
 16 15  2  0  0  0  0
 16 17  1  0  0  0  0
 17 19  2  0  0  0  0
 18 17  1  0  0  0  0
 19 20  1  0  0  0  0
 21 20  2  0  0  0  0
 21 24  1  0  0  0  0
 22 15  1  0  0  0  0
 23 22  1  0  0  0  0
 25 24  1  0  0  0  0
 26 27  2  0  0  0  0
 26  2  1  0  0  0  0
 28 33  1  0  0  0  0
 28 29  1  0  0  0  0
 28 27  1  0  0  0  0
 30 28  1  0  0  0  0
 31 32  1  0  0  0  0
 32 33  1  0  0  0  0
 33 34  2  0  0  0  0
 34 35  1  0  0  0  0
 34 38  1  0  0  0  0
 35 39  1  0  0  0  0
 36 35  2  0  0  0  0
 37 32  2  0  0  0  0
 37 36  1  0  0  0  0
 40 36  1  0  0  0  0
 41 37  1  0  0  0  0
M  END
>  <minimizedAffinity>
-6.53269434

$$$$

 OpenBabel03242517203D

 41 43  0  0  0  0  0  0  0  0999 V2000
   36.1440   27.5650   38.4230 C   0  0  0  0  0  0  0  0  0  0  0  0
   35.8430   28.1220   39.7050 C   0  0  0  0  0  0  0  0  0  0  0  0
   34.7700   28.9760   39.8320 C   0  0  0  0  0  0  0  0  0  0  0  0
   34.0510   29.2370   38.7070 N   0  0  0  0  0  0  0  0  0  0  0  0
   34.3310   28.7170   37.5090 C   0  0  0  0  0  0  0  0  0  0  0  0
   35.3830   27.8790   37.3790 N   0  0  0  0  0  0  0  0  0  0  0  0
   36.9940   26.9000   38.3680 H   0  0  0  0  0  0  0  0  0  0  0  0
   34.5110   29.4150   40.7710 H   0  0  0  0  0  0  0  0  0  0  0  0
   33.5950   28.9570   36.2580 C   0  0  0  0  0  0  0  0  0  0  0  0
   33.9580   28.2820   35.4610 H   0  0  0  0  0  0  0  0  0  0  0  0
   33.6720   30.0220   35.9550 H   0  0  0  0  0  0  0  0  0  0  0  0
   32.1180   28.6940   36.4540 C   0  0  0  0  0  0  0  0  0  0  0  0
   31.7080   28.0300   35.6840 H   0  0  0  0  0  0  0  0  0  0  0  0
   32.0350   28.1960   37.4640 H   0  0  0  0  0  0  0  0  0  0  0  0
   30.7240   30.4670   37.6820 C   0  0  0  0  0  0  0  0  0  0  0  0
   31.3450   29.9520   36.5960 C   0  0  0  0  0  0  0  0  0  0  0  0
   31.2560   30.7120   35.4250 C   0  0  0  0  0  0  0  0  0  0  0  0
   31.7230   30.3890   34.4820 H   0  0  0  0  0  0  0  0  0  0  0  0
   30.5830   31.9170   35.3470 C   0  0  0  0  0  3  0  0  0  0  0  0
   29.9870   32.3490   36.5070 C   0  0  0  0  0  3  0  0  0  0  0  0
   30.0310   31.6560   37.7000 C   0  0  0  0  0  0  0  0  0  0  0  0
   30.8370   29.6750   38.8380 O   0  0  0  0  0  0  0  0  0  0  0  0
   31.5310   30.0160   39.5130 H   0  0  0  0  0  0  0  0  0  0  0  0
   29.4270   32.0960   38.8690 O   0  0  0  0  0  0  0  0  0  0  0  0
   29.8760   32.7080   39.5340 H   0  0  0  0  0  0  0  0  0  0  0  0
   36.6870   27.7700   40.8610 C   0  0  0  0  0  3  0  0  0  0  0  0
   36.4770   28.1880   42.0920 C   0  0  0  0  0  3  0  0  0  0  0  0
   37.3390   27.8190   43.2420 C   0  0  0  0  0  0  0  0  0  0  0  0
   37.3750   26.7170   43.3290 H   0  0  0  0  0  0  0  0  0  0  0  0
   36.8680   28.2990   44.1350 H   0  0  0  0  0  0  0  0  0  0  0  0
   39.5960   26.2260   43.6770 F   0  0  0  0  0  0  0  0  0  0  0  0
   39.7850   27.5100   43.3240 C   0  0  0  0  0  0  0  0  0  0  0  0
   38.6920   28.3430   43.0960 C   0  0  0  0  0  0  0  0  0  0  0  0
   39.0200   29.6230   42.7450 C   0  0  0  0  0  0  0  0  0  0  0  0
   40.2870   30.1420   42.6010 C   0  0  0  0  0  0  0  0  0  0  0  0
   41.3330   29.2560   42.8430 C   0  0  0  0  0  0  0  0  0  0  0  0
   41.1090   27.9550   43.2010 C   0  0  0  0  0  0  0  0  0  0  0  0
   38.1790   30.3070   42.5580 H   0  0  0  0  0  0  0  0  0  0  0  0
   40.4290   31.1780   42.3180 H   0  0  0  0  0  0  0  0  0  0  0  0
   42.3560   29.6120   42.7440 H   0  0  0  0  0  0  0  0  0  0  0  0
   41.9390   27.2750   43.3860 H   0  0  0  0  0  0  0  0  0  0  0  0
  1  2  1  0  0  0  0
  2  3  2  0  0  0  0
  2 26  1  0  0  0  0
  3  8  1  0  0  0  0
  4  3  1  0  0  0  0
  5  4  2  0  0  0  0
  6  5  1  0  0  0  0
  6  1  2  0  0  0  0
  7  1  1  0  0  0  0
  9 12  1  0  0  0  0
  9  5  1  0  0  0  0
 10  9  1  0  0  0  0
 11  9  1  0  0  0  0
 12 16  1  0  0  0  0
 12 14  1  0  0  0  0
 13 12  1  0  0  0  0
 15 21  1  0  0  0  0
 15 22  1  0  0  0  0
 16 15  2  0  0  0  0
 17 16  1  0  0  0  0
 18 17  1  0  0  0  0
 19 17  2  0  0  0  0
 19 20  1  0  0  0  0
 20 21  2  0  0  0  0
 21 24  1  0  0  0  0
 22 23  1  0  0  0  0
 24 25  1  0  0  0  0
 26 27  2  0  0  0  0
 27 28  1  0  0  0  0
 28 29  1  0  0  0  0
 28 30  1  0  0  0  0
 32 31  1  0  0  0  0
 33 28  1  0  0  0  0
 33 32  2  0  0  0  0
 34 33  1  0  0  0  0
 35 34  2  0  0  0  0
 35 36  1  0  0  0  0
 36 37  2  0  0  0  0
 37 32  1  0  0  0  0
 37 41  1  0  0  0  0
 38 34  1  0  0  0  0
 39 35  1  0  0  0  0
 40 36  1  0  0  0  0
M  END
>  <minimizedAffinity>
-6.51235867

$$$$

 OpenBabel03242517203D

 41 43  0  0  0  0  0  0  0  0999 V2000
   36.4090   29.1510   37.4530 C   0  0  0  0  0  0  0  0  0  0  0  0
   35.4470   29.2220   38.5080 C   0  0  0  0  0  0  0  0  0  0  0  0
   35.8750   29.4660   39.7940 C   0  0  0  0  0  0  0  0  0  0  0  0
   37.2140   29.6280   39.9790 N   0  0  0  0  0  0  0  0  0  0  0  0
   38.1130   29.5620   38.9950 C   0  0  0  0  0  0  0  0  0  0  0  0
   37.6980   29.3230   37.7310 N   0  0  0  0  0  0  0  0  0  0  0  0
   36.0310   28.9580   36.4600 H   0  0  0  0  0  0  0  0  0  0  0  0
   35.1900   29.5260   40.6110 H   0  0  0  0  0  0  0  0  0  0  0  0
   39.5690   29.7290   39.1270 C   0  0  0  0  0  0  0  0  0  0  0  0
   40.0070   28.8760   39.6770 H   0  0  0  0  0  0  0  0  0  0  0  0
   39.8110   30.6950   39.6160 H   0  0  0  0  0  0  0  0  0  0  0  0
   40.2220   29.7880   37.7630 C   0  0  0  0  0  0  0  0  0  0  0  0
   40.5310   28.7990   37.4060 H   0  0  0  0  0  0  0  0  0  0  0  0
   39.4320   30.2080   37.0730 H   0  0  0  0  0  0  0  0  0  0  0  0
   41.3280   32.0420   37.2230 C   0  0  0  0  0  0  0  0  0  0  0  0
   41.3210   30.7830   37.7180 C   0  0  0  0  0  0  0  0  0  0  0  0
   42.5250   30.3410   38.2770 C   0  0  0  0  0  0  0  0  0  0  0  0
   42.6330   29.3350   38.7090 H   0  0  0  0  0  0  0  0  0  0  0  0
   43.6680   31.1150   38.3360 C   0  0  0  0  0  3  0  0  0  0  0  0
   43.5680   32.3780   37.8050 C   0  0  0  0  0  3  0  0  0  0  0  0
   42.4160   32.8850   37.2370 C   0  0  0  0  0  0  0  0  0  0  0  0
   40.1010   32.4500   36.6700 O   0  0  0  0  0  0  0  0  0  0  0  0
   39.5540   33.0700   37.2780 H   0  0  0  0  0  0  0  0  0  0  0  0
   42.3190   34.1610   36.7000 O   0  0  0  0  0  0  0  0  0  0  0  0
   42.0740   34.9770   37.2410 H   0  0  0  0  0  0  0  0  0  0  0  0
   34.0190   29.0340   38.1960 C   0  0  0  0  0  3  0  0  0  0  0  0
   33.5160   29.0400   36.9790 C   0  0  0  0  0  3  0  0  0  0  0  0
   32.0740   28.8470   36.6860 C   0  0  0  0  0  0  0  0  0  0  0  0
   31.6000   28.3200   37.5340 H   0  0  0  0  0  0  0  0  0  0  0  0
   32.0380   28.2490   35.7420 H   0  0  0  0  0  0  0  0  0  0  0  0
   30.5960   30.1190   38.6910 F   0  0  0  0  0  0  0  0  0  0  0  0
   30.6690   30.7110   37.4850 C   0  0  0  0  0  0  0  0  0  0  0  0
   31.3930   30.1160   36.4540 C   0  0  0  0  0  0  0  0  0  0  0  0
   31.3870   30.8180   35.2810 C   0  0  0  0  0  0  0  0  0  0  0  0
   30.7530   32.0150   35.0370 C   0  0  0  0  0  0  0  0  0  0  0  0
   30.0480   32.5540   36.1100 C   0  0  0  0  0  0  0  0  0  0  0  0
   29.9920   31.9280   37.3250 C   0  0  0  0  0  0  0  0  0  0  0  0
   31.9500   30.3750   34.4460 H   0  0  0  0  0  0  0  0  0  0  0  0
   30.8160   32.4840   34.0630 H   0  0  0  0  0  0  0  0  0  0  0  0
   29.5270   33.5000   35.9740 H   0  0  0  0  0  0  0  0  0  0  0  0
   29.4360   32.3640   38.1530 H   0  0  0  0  0  0  0  0  0  0  0  0
  1  6  2  0  0  0  0
  1  2  1  0  0  0  0
  2  3  2  0  0  0  0
  3  4  1  0  0  0  0
  3  8  1  0  0  0  0
  5  9  1  0  0  0  0
  5  4  2  0  0  0  0
  6  5  1  0  0  0  0
  7  1  1  0  0  0  0
  9 11  1  0  0  0  0
  9 10  1  0  0  0  0
 12  9  1  0  0  0  0
 13 12  1  0  0  0  0
 14 12  1  0  0  0  0
 15 21  2  0  0  0  0
 15 16  1  0  0  0  0
 16 12  1  0  0  0  0
 16 17  2  0  0  0  0
 17 19  1  0  0  0  0
 17 18  1  0  0  0  0
 20 19  2  0  0  0  0
 21 20  1  0  0  0  0
 22 15  1  0  0  0  0
 22 23  1  0  0  0  0
 24 21  1  0  0  0  0
 24 25  1  0  0  0  0
 26  2  1  0  0  0  0
 27 26  2  0  0  0  0
 28 27  1  0  0  0  0
 28 29  1  0  0  0  0
 30 28  1  0  0  0  0
 32 31  1  0  0  0  0
 33 28  1  0  0  0  0
 33 32  2  0  0  0  0
 34 33  1  0  0  0  0
 35 34  2  0  0  0  0
 35 36  1  0  0  0  0
 36 37  2  0  0  0  0
 37 32  1  0  0  0  0
 37 41  1  0  0  0  0
 38 34  1  0  0  0  0
 39 35  1  0  0  0  0
 40 36  1  0  0  0  0
M  END
>  <minimizedAffinity>
-6.44604301

$$$$

 OpenBabel03242517203D

 41 43  0  0  0  0  0  0  0  0999 V2000
   36.4940   30.3190   38.1530 C   0  0  0  0  0  0  0  0  0  0  0  0
   35.7690   29.3410   38.9010 C   0  0  0  0  0  0  0  0  0  0  0  0
   36.3490   28.7840   40.0190 C   0  0  0  0  0  0  0  0  0  0  0  0
   37.5990   29.2110   40.3450 N   0  0  0  0  0  0  0  0  0  0  0  0
   38.2770   30.1250   39.6470 C   0  0  0  0  0  0  0  0  0  0  0  0
   37.7130   30.6750   38.5490 N   0  0  0  0  0  0  0  0  0  0  0  0
   36.0030   30.7310   37.2840 H   0  0  0  0  0  0  0  0  0  0  0  0
   35.8420   28.0490   40.6060 H   0  0  0  0  0  0  0  0  0  0  0  0
   39.6270   30.6290   39.9460 C   0  0  0  0  0  0  0  0  0  0  0  0
   40.3110   30.4280   39.1010 H   0  0  0  0  0  0  0  0  0  0  0  0
   40.0100   30.1920   40.8910 H   0  0  0  0  0  0  0  0  0  0  0  0
   39.5950   32.1250   40.1730 C   0  0  0  0  0  0  0  0  0  0  0  0
   38.6550   32.5770   39.8360 H   0  0  0  0  0  0  0  0  0  0  0  0
   39.6970   32.2590   41.2900 H   0  0  0  0  0  0  0  0  0  0  0  0
   41.0620   33.1450   38.3290 C   0  0  0  0  0  0  0  0  0  0  0  0
   40.7900   32.7970   39.6070 C   0  0  0  0  0  0  0  0  0  0  0  0
   41.7730   33.1180   40.5490 C   0  0  0  0  0  0  0  0  0  0  0  0
   41.6570   32.8820   41.6180 H   0  0  0  0  0  0  0  0  0  0  0  0
   42.9600   33.7490   40.2280 C   0  0  0  0  0  3  0  0  0  0  0  0
   43.1380   34.0570   38.9010 C   0  0  0  0  0  3  0  0  0  0  0  0
   42.2150   33.7740   37.9140 C   0  0  0  0  0  0  0  0  0  0  0  0
   40.0500   32.8070   37.4130 O   0  0  0  0  0  0  0  0  0  0  0  0
   39.4610   33.5980   37.1290 H   0  0  0  0  0  0  0  0  0  0  0  0
   42.3980   34.0870   36.5750 O   0  0  0  0  0  0  0  0  0  0  0  0
   42.1400   34.9720   36.1680 H   0  0  0  0  0  0  0  0  0  0  0  0
   34.4170   28.9520   38.4610 C   0  0  0  0  0  3  0  0  0  0  0  0
   33.9440   29.1510   37.2480 C   0  0  0  0  0  3  0  0  0  0  0  0
   32.5790   28.7500   36.8250 C   0  0  0  0  0  0  0  0  0  0  0  0
   32.1540   28.0620   37.5780 H   0  0  0  0  0  0  0  0  0  0  0  0
   32.7070   28.2600   35.8280 H   0  0  0  0  0  0  0  0  0  0  0  0
   31.0500   29.7520   38.9400 F   0  0  0  0  0  0  0  0  0  0  0  0
   30.9590   30.3660   37.7470 C   0  0  0  0  0  0  0  0  0  0  0  0
   31.7010   29.9030   36.6620 C   0  0  0  0  0  0  0  0  0  0  0  0
   31.5170   30.6120   35.5080 C   0  0  0  0  0  0  0  0  0  0  0  0
   30.6960   31.7020   35.3290 C   0  0  0  0  0  0  0  0  0  0  0  0
   29.9830   32.1120   36.4520 C   0  0  0  0  0  0  0  0  0  0  0  0
   30.0960   31.4680   37.6540 C   0  0  0  0  0  0  0  0  0  0  0  0
   32.0890   30.2730   34.6320 H   0  0  0  0  0  0  0  0  0  0  0  0
   30.6280   32.1880   34.3640 H   0  0  0  0  0  0  0  0  0  0  0  0
   29.3180   32.9680   36.3690 H   0  0  0  0  0  0  0  0  0  0  0  0
   29.5320   31.8010   38.5230 H   0  0  0  0  0  0  0  0  0  0  0  0
  1  6  2  0  0  0  0
  1  2  1  0  0  0  0
  2  3  2  0  0  0  0
  3  4  1  0  0  0  0
  3  8  1  0  0  0  0
  5  9  1  0  0  0  0
  5  4  2  0  0  0  0
  6  5  1  0  0  0  0
  7  1  1  0  0  0  0
  9 12  1  0  0  0  0
  9 11  1  0  0  0  0
 10  9  1  0  0  0  0
 12 14  1  0  0  0  0
 13 12  1  0  0  0  0
 15 16  1  0  0  0  0
 16 12  1  0  0  0  0
 16 17  2  0  0  0  0
 17 18  1  0  0  0  0
 19 17  1  0  0  0  0
 20 19  2  0  0  0  0
 21 15  2  0  0  0  0
 21 20  1  0  0  0  0
 22 15  1  0  0  0  0
 23 22  1  0  0  0  0
 24 21  1  0  0  0  0
 25 24  1  0  0  0  0
 26  2  1  0  0  0  0
 27 26  2  0  0  0  0
 28 27  1  0  0  0  0
 28 29  1  0  0  0  0
 30 28  1  0  0  0  0
 32 31  1  0  0  0  0
 33 28  1  0  0  0  0
 33 32  2  0  0  0  0
 34 33  1  0  0  0  0
 35 34  2  0  0  0  0
 35 36  1  0  0  0  0
 36 37  2  0  0  0  0
 37 32  1  0  0  0  0
 37 41  1  0  0  0  0
 38 34  1  0  0  0  0
 39 35  1  0  0  0  0
 40 36  1  0  0  0  0
M  END
>  <minimizedAffinity>
-6.31196642

$$$$

 OpenBabel03242517203D

 41 43  0  0  0  0  0  0  0  0999 V2000
   36.5100   27.4230   38.6670 C   0  0  0  0  0  0  0  0  0  0  0  0
   35.2870   28.1440   38.8360 C   0  0  0  0  0  0  0  0  0  0  0  0
   35.1040   28.9020   39.9710 C   0  0  0  0  0  0  0  0  0  0  0  0
   36.1210   28.9170   40.8750 N   0  0  0  0  0  0  0  0  0  0  0  0
   37.2640   28.2450   40.7190 C   0  0  0  0  0  0  0  0  0  0  0  0
   37.4490   27.4990   39.6060 N   0  0  0  0  0  0  0  0  0  0  0  0
   36.6130   26.8410   37.7630 H   0  0  0  0  0  0  0  0  0  0  0  0
   34.2050   29.4550   40.1370 H   0  0  0  0  0  0  0  0  0  0  0  0
   38.3990   28.2200   41.6540 C   0  0  0  0  0  0  0  0  0  0  0  0
   39.3310   27.9500   41.1240 H   0  0  0  0  0  0  0  0  0  0  0  0
   38.1980   27.5290   42.4990 H   0  0  0  0  0  0  0  0  0  0  0  0
   38.5990   29.5830   42.2810 C   0  0  0  0  0  0  0  0  0  0  0  0
   38.1400   30.3840   41.6910 H   0  0  0  0  0  0  0  0  0  0  0  0
   38.0940   29.5230   43.2900 H   0  0  0  0  0  0  0  0  0  0  0  0
   40.7030   31.0160   42.6180 C   0  0  0  0  0  0  0  0  0  0  0  0
   40.0240   29.8460   42.5940 C   0  0  0  0  0  0  0  0  0  0  0  0
   40.7660   28.7040   42.9150 C   0  0  0  0  0  0  0  0  0  0  0  0
   40.3160   27.7000   42.9280 H   0  0  0  0  0  0  0  0  0  0  0  0
   42.1090   28.7340   43.2400 C   0  0  0  0  0  3  0  0  0  0  0  0
   42.7030   29.9730   43.2340 C   0  0  0  0  0  3  0  0  0  0  0  0
   42.0380   31.1430   42.9280 C   0  0  0  0  0  0  0  0  0  0  0  0
   39.9240   32.1390   42.2900 O   0  0  0  0  0  0  0  0  0  0  0  0
   39.6340   32.6990   43.1010 H   0  0  0  0  0  0  0  0  0  0  0  0
   42.6420   32.3930   42.9220 O   0  0  0  0  0  0  0  0  0  0  0  0
   42.7170   32.9810   43.7380 H   0  0  0  0  0  0  0  0  0  0  0  0
   34.2510   28.0600   37.7910 C   0  0  0  0  0  3  0  0  0  0  0  0
   33.2870   28.9410   37.6260 C   0  0  0  0  0  3  0  0  0  0  0  0
   32.2540   28.8380   36.5660 C   0  0  0  0  0  0  0  0  0  0  0  0
   31.5560   28.0200   36.8190 H   0  0  0  0  0  0  0  0  0  0  0  0
   32.8160   28.6400   35.6190 H   0  0  0  0  0  0  0  0  0  0  0  0
   30.6740   29.8870   38.6210 F   0  0  0  0  0  0  0  0  0  0  0  0
   30.7380   30.5670   37.4620 C   0  0  0  0  0  0  0  0  0  0  0  0
   31.5120   30.0840   36.4080 C   0  0  0  0  0  0  0  0  0  0  0  0
   31.4910   30.8670   35.2870 C   0  0  0  0  0  0  0  0  0  0  0  0
   30.8010   32.0450   35.1140 C   0  0  0  0  0  0  0  0  0  0  0  0
   30.0480   32.4690   36.2060 C   0  0  0  0  0  0  0  0  0  0  0  0
   30.0020   31.7560   37.3730 C   0  0  0  0  0  0  0  0  0  0  0  0
   32.0920   30.5150   34.4370 H   0  0  0  0  0  0  0  0  0  0  0  0
   30.8570   32.5840   34.1770 H   0  0  0  0  0  0  0  0  0  0  0  0
   29.4810   33.3940   36.1250 H   0  0  0  0  0  0  0  0  0  0  0  0
   29.4090   32.1030   38.2170 H   0  0  0  0  0  0  0  0  0  0  0  0
  1  2  2  0  0  0  0
  1  6  1  0  0  0  0
  2  3  1  0  0  0  0
  3  8  1  0  0  0  0
  3  4  2  0  0  0  0
  5  4  1  0  0  0  0
  5  9  1  0  0  0  0
  6  5  2  0  0  0  0
  7  1  1  0  0  0  0
  9 12  1  0  0  0  0
  9 11  1  0  0  0  0
 10  9  1  0  0  0  0
 12 16  1  0  0  0  0
 12 14  1  0  0  0  0
 13 12  1  0  0  0  0
 15 21  1  0  0  0  0
 16 15  2  0  0  0  0
 16 17  1  0  0  0  0
 17 18  1  0  0  0  0
 17 19  2  0  0  0  0
 20 19  1  0  0  0  0
 21 20  2  0  0  0  0
 22 15  1  0  0  0  0
 22 23  1  0  0  0  0
 24 21  1  0  0  0  0
 24 25  1  0  0  0  0
 26  2  1  0  0  0  0
 27 26  2  0  0  0  0
 28 29  1  0  0  0  0
 28 27  1  0  0  0  0
 30 28  1  0  0  0  0
 32 31  1  0  0  0  0
 33 28  1  0  0  0  0
 33 32  2  0  0  0  0
 34 33  1  0  0  0  0
 35 34  2  0  0  0  0
 35 36  1  0  0  0  0
 36 37  2  0  0  0  0
 37 32  1  0  0  0  0
 37 41  1  0  0  0  0
 38 34  1  0  0  0  0
 39 35  1  0  0  0  0
 40 36  1  0  0  0  0
M  END
>  <minimizedAffinity>
-6.1219492

$$$$

 OpenBabel03242517203D

 41 43  0  0  0  0  0  0  0  0999 V2000
   37.5120   29.2180   41.9400 C   0  0  0  0  0  0  0  0  0  0  0  0
   38.2540   28.0370   42.2540 C   0  0  0  0  0  0  0  0  0  0  0  0
   39.6260   28.1070   42.3390 C   0  0  0  0  0  0  0  0  0  0  0  0
   40.1990   29.3220   42.1150 N   0  0  0  0  0  0  0  0  0  0  0  0
   39.5070   30.4250   41.8220 C   0  0  0  0  0  0  0  0  0  0  0  0
   38.1590   30.3620   41.7370 N   0  0  0  0  0  0  0  0  0  0  0  0
   36.4380   29.1190   41.8830 H   0  0  0  0  0  0  0  0  0  0  0  0
   40.2180   27.2480   42.5700 H   0  0  0  0  0  0  0  0  0  0  0  0
   40.0620   31.7640   41.5720 C   0  0  0  0  0  0  0  0  0  0  0  0
   41.1550   31.7680   41.7410 H   0  0  0  0  0  0  0  0  0  0  0  0
   39.5520   32.5250   42.1980 H   0  0  0  0  0  0  0  0  0  0  0  0
   39.8120   32.1820   40.1390 C   0  0  0  0  0  0  0  0  0  0  0  0
   39.4510   31.3530   39.5210 H   0  0  0  0  0  0  0  0  0  0  0  0
   39.0170   32.9840   40.1970 H   0  0  0  0  0  0  0  0  0  0  0  0
   41.2330   33.2090   38.2630 C   0  0  0  0  0  0  0  0  0  0  0  0
   40.9870   32.8680   39.5480 C   0  0  0  0  0  0  0  0  0  0  0  0
   41.9810   33.2110   40.4710 C   0  0  0  0  0  0  0  0  0  0  0  0
   41.8860   32.9830   41.5430 H   0  0  0  0  0  0  0  0  0  0  0  0
   43.1520   33.8580   40.1250 C   0  0  0  0  0  3  0  0  0  0  0  0
   43.3040   34.1580   38.7920 C   0  0  0  0  0  3  0  0  0  0  0  0
   42.3690   33.8520   37.8240 C   0  0  0  0  0  0  0  0  0  0  0  0
   40.2120   32.8470   37.3660 O   0  0  0  0  0  0  0  0  0  0  0  0
   39.6060   33.6270   37.0860 H   0  0  0  0  0  0  0  0  0  0  0  0
   42.5260   34.1550   36.4790 O   0  0  0  0  0  0  0  0  0  0  0  0
   42.2470   35.0330   36.0690 H   0  0  0  0  0  0  0  0  0  0  0  0
   37.5320   26.7720   42.4810 C   0  0  0  0  0  3  0  0  0  0  0  0
   37.4300   25.8040   41.5940 C   0  0  0  0  0  3  0  0  0  0  0  0
   36.6990   24.5360   41.8440 C   0  0  0  0  0  0  0  0  0  0  0  0
   35.6880   24.7700   42.2230 H   0  0  0  0  0  0  0  0  0  0  0  0
   37.3150   23.9790   42.5920 H   0  0  0  0  0  0  0  0  0  0  0  0
   38.6840   22.7040   41.1180 F   0  0  0  0  0  0  0  0  0  0  0  0
   37.6100   22.8240   40.3180 C   0  0  0  0  0  0  0  0  0  0  0  0
   36.5950   23.7240   40.6370 C   0  0  0  0  0  0  0  0  0  0  0  0
   35.5610   23.7500   39.7420 C   0  0  0  0  0  0  0  0  0  0  0  0
   35.4380   22.9950   38.5980 C   0  0  0  0  0  0  0  0  0  0  0  0
   36.4870   22.1170   38.3390 C   0  0  0  0  0  0  0  0  0  0  0  0
   37.5680   22.0170   39.1720 C   0  0  0  0  0  0  0  0  0  0  0  0
   34.7420   24.4500   39.9650 H   0  0  0  0  0  0  0  0  0  0  0  0
   34.5710   23.1000   37.9590 H   0  0  0  0  0  0  0  0  0  0  0  0
   36.4440   21.4950   37.4470 H   0  0  0  0  0  0  0  0  0  0  0  0
   38.3800   21.3250   38.9550 H   0  0  0  0  0  0  0  0  0  0  0  0
  1  2  1  0  0  0  0
  2  3  2  0  0  0  0
  2 26  1  0  0  0  0
  3  8  1  0  0  0  0
  4  3  1  0  0  0  0
  5  4  2  0  0  0  0
  6  5  1  0  0  0  0
  6  1  2  0  0  0  0
  7  1  1  0  0  0  0
  9 10  1  0  0  0  0
  9  5  1  0  0  0  0
  9 11  1  0  0  0  0
 12 14  1  0  0  0  0
 12  9  1  0  0  0  0
 13 12  1  0  0  0  0
 15 16  1  0  0  0  0
 16 12  1  0  0  0  0
 16 17  2  0  0  0  0
 17 18  1  0  0  0  0
 19 17  1  0  0  0  0
 20 19  2  0  0  0  0
 21 15  2  0  0  0  0
 21 20  1  0  0  0  0
 22 15  1  0  0  0  0
 23 22  1  0  0  0  0
 24 21  1  0  0  0  0
 25 24  1  0  0  0  0
 27 28  1  0  0  0  0
 27 26  2  0  0  0  0
 28 29  1  0  0  0  0
 28 30  1  0  0  0  0
 32 33  1  0  0  0  0
 32 31  1  0  0  0  0
 33 28  1  0  0  0  0
 34 38  1  0  0  0  0
 34 33  2  0  0  0  0
 35 34  1  0  0  0  0
 36 35  2  0  0  0  0
 36 37  1  0  0  0  0
 37 32  2  0  0  0  0
 39 35  1  0  0  0  0
 40 36  1  0  0  0  0
 41 37  1  0  0  0  0
M  END
>  <minimizedAffinity>
-6.0921545

$$$$

 OpenBabel03242517203D

 41 43  0  0  0  0  0  0  0  0999 V2000
   36.8950   26.0230   40.3570 C   0  0  0  0  0  0  0  0  0  0  0  0
   36.8570   24.7030   40.9030 C   0  0  0  0  0  0  0  0  0  0  0  0
   37.5420   24.4360   42.0680 C   0  0  0  0  0  0  0  0  0  0  0  0
   38.2230   25.4690   42.6340 N   0  0  0  0  0  0  0  0  0  0  0  0
   38.2600   26.7030   42.1250 C   0  0  0  0  0  0  0  0  0  0  0  0
   37.5890   26.9700   40.9830 N   0  0  0  0  0  0  0  0  0  0  0  0
   36.3440   26.1890   39.4430 H   0  0  0  0  0  0  0  0  0  0  0  0
   37.5400   23.4630   42.5090 H   0  0  0  0  0  0  0  0  0  0  0  0
   38.9730   27.8600   42.6870 C   0  0  0  0  0  0  0  0  0  0  0  0
   39.7040   28.2550   41.9580 H   0  0  0  0  0  0  0  0  0  0  0  0
   39.4610   27.5930   43.6480 H   0  0  0  0  0  0  0  0  0  0  0  0
   38.0010   28.9710   43.0200 C   0  0  0  0  0  0  0  0  0  0  0  0
   36.9590   28.6310   43.0050 H   0  0  0  0  0  0  0  0  0  0  0  0
   38.2740   29.3030   44.0650 H   0  0  0  0  0  0  0  0  0  0  0  0
   37.3340   30.9270   41.4960 C   0  0  0  0  0  0  0  0  0  0  0  0
   38.2240   30.1730   42.1800 C   0  0  0  0  0  0  0  0  0  0  0  0
   39.5600   30.5790   42.0950 C   0  0  0  0  0  0  0  0  0  0  0  0
   40.3690   30.0400   42.6110 H   0  0  0  0  0  0  0  0  0  0  0  0
   39.9780   31.6760   41.3650 C   0  0  0  0  0  3  0  0  0  0  0  0
   38.9940   32.3720   40.7070 C   0  0  0  0  0  3  0  0  0  0  0  0
   37.6560   32.0340   40.7430 C   0  0  0  0  0  0  0  0  0  0  0  0
   36.0030   30.4870   41.6070 O   0  0  0  0  0  0  0  0  0  0  0  0
   35.4330   31.0380   42.2590 H   0  0  0  0  0  0  0  0  0  0  0  0
   36.6650   32.7390   40.0760 O   0  0  0  0  0  0  0  0  0  0  0  0
   36.1830   33.5330   40.4690 H   0  0  0  0  0  0  0  0  0  0  0  0
   36.0840   23.6570   40.2090 C   0  0  0  0  0  3  0  0  0  0  0  0
   35.3570   23.8610   39.1300 C   0  0  0  0  0  3  0  0  0  0  0  0
   34.5880   22.7940   38.4450 C   0  0  0  0  0  0  0  0  0  0  0  0
   34.9100   21.8100   38.8320 H   0  0  0  0  0  0  0  0  0  0  0  0
   34.8120   22.9150   37.3560 H   0  0  0  0  0  0  0  0  0  0  0  0
   32.9150   23.7370   36.4120 F   0  0  0  0  0  0  0  0  0  0  0  0
   32.3580   23.4240   37.5960 C   0  0  0  0  0  0  0  0  0  0  0  0
   33.1510   22.9510   38.6390 C   0  0  0  0  0  0  0  0  0  0  0  0
   32.4640   22.6710   39.7880 C   0  0  0  0  0  0  0  0  0  0  0  0
   31.1110   22.8110   39.9970 C   0  0  0  0  0  0  0  0  0  0  0  0
   30.3790   23.2880   38.9140 C   0  0  0  0  0  0  0  0  0  0  0  0
   30.9730   23.5980   37.7210 C   0  0  0  0  0  0  0  0  0  0  0  0
   33.0600   22.2950   40.6320 H   0  0  0  0  0  0  0  0  0  0  0  0
   30.6720   22.5580   40.9540 H   0  0  0  0  0  0  0  0  0  0  0  0
   29.3040   23.4190   39.0220 H   0  0  0  0  0  0  0  0  0  0  0  0
   30.3860   23.9700   36.8830 H   0  0  0  0  0  0  0  0  0  0  0  0
  1  2  2  0  0  0  0
  1  6  1  0  0  0  0
  2  3  1  0  0  0  0
  3  8  1  0  0  0  0
  3  4  2  0  0  0  0
  5  4  1  0  0  0  0
  5  9  1  0  0  0  0
  6  5  2  0  0  0  0
  7  1  1  0  0  0  0
  9 12  1  0  0  0  0
  9 11  1  0  0  0  0
 10  9  1  0  0  0  0
 12 14  1  0  0  0  0
 13 12  1  0  0  0  0
 15 22  1  0  0  0  0
 15 16  1  0  0  0  0
 16 12  1  0  0  0  0
 17 16  2  0  0  0  0
 17 18  1  0  0  0  0
 19 17  1  0  0  0  0
 20 21  1  0  0  0  0
 20 19  2  0  0  0  0
 21 15  2  0  0  0  0
 22 23  1  0  0  0  0
 24 25  1  0  0  0  0
 24 21  1  0  0  0  0
 26  2  1  0  0  0  0
 27 26  2  0  0  0  0
 28 33  1  0  0  0  0
 28 29  1  0  0  0  0
 28 27  1  0  0  0  0
 30 28  1  0  0  0  0
 31 32  1  0  0  0  0
 32 37  2  0  0  0  0
 32 33  1  0  0  0  0
 33 34  2  0  0  0  0
 34 35  1  0  0  0  0
 34 38  1  0  0  0  0
 35 39  1  0  0  0  0
 36 40  1  0  0  0  0
 36 35  2  0  0  0  0
 37 36  1  0  0  0  0
 41 37  1  0  0  0  0
M  END
>  <minimizedAffinity>
-6.06723928

$$$$
