
 OpenBabel03252507553D

 46 49  0  0  1  0  0  0  0  0999 V2000
   49.0780   32.1720   40.5580 C   0  0  2  0  0  0  0  0  0  0  0  0
   49.9440   31.6420   41.5980 C   0  0  0  0  0  0  0  0  0  0  0  0
   50.4580   31.8410   40.2060 C   0  0  1  0  0  0  0  0  0  0  0  0
   48.2900   31.5140   40.1460 H   0  0  0  0  0  0  0  0  0  0  0  0
   49.7950   30.6250   41.9780 H   0  0  0  0  0  0  0  0  0  0  0  0
   50.4190   32.3290   42.3490 H   0  0  0  0  0  0  0  0  0  0  0  0
   51.0610   32.6940   39.8780 H   0  0  0  0  0  0  0  0  0  0  0  0
   47.0630   34.8100   41.9580 C   0  0  2  0  0  0  0  0  0  0  0  0
   46.2900   34.2120   40.7810 C   0  0  0  0  0  0  0  0  0  0  0  0
   47.4900   34.0020   39.8330 C   0  0  0  0  0  0  0  0  0  0  0  0
   48.6250   33.6050   40.7280 C   0  0  1  0  0  0  0  0  0  0  0  0
   48.1070   33.7410   42.1300 C   0  0  0  0  0  0  0  0  0  0  0  0
   47.4620   35.7810   41.6700 H   0  0  0  0  0  0  0  0  0  0  0  0
   45.8530   33.2580   41.0980 H   0  0  0  0  0  0  0  0  0  0  0  0
   45.5870   34.9450   40.3780 H   0  0  0  0  0  0  0  0  0  0  0  0
   47.7000   34.9950   39.4030 H   0  0  0  0  0  0  0  0  0  0  0  0
   47.2110   33.2420   39.0790 H   0  0  0  0  0  0  0  0  0  0  0  0
   49.5180   34.2450   40.5700 H   0  0  0  0  0  0  0  0  0  0  0  0
   47.6730   32.8360   42.5540 H   0  0  0  0  0  0  0  0  0  0  0  0
   48.9300   34.1600   42.7560 H   0  0  0  0  0  0  0  0  0  0  0  0
   44.5410   36.0090   44.4860 C   0  0  0  0  0  0  0  0  0  0  0  0
   45.2790   35.9780   43.3080 C   0  0  0  0  0  0  0  0  0  0  0  0
   46.1950   34.9420   43.1630 C   0  0  0  0  0  0  0  0  0  0  0  0
   46.3490   33.9830   44.1750 N   0  0  0  0  0  0  0  0  0  0  0  0
   45.5990   34.0690   45.3030 C   0  0  0  0  0  0  0  0  0  0  0  0
   44.7040   35.0740   45.4520 N   0  0  0  0  0  0  0  0  0  0  0  0
   43.8240   36.8110   44.6090 H   0  0  0  0  0  0  0  0  0  0  0  0
   45.1720   36.7060   42.5210 H   0  0  0  0  0  0  0  0  0  0  0  0
   45.7930   33.2840   46.0210 H   0  0  0  0  0  0  0  0  0  0  0  0
   50.6670   30.6770   39.4260 O   0  0  0  0  0  0  0  0  0  0  0  0
   51.9180   30.0030   37.2390 O   0  0  0  0  0  0  0  0  0  0  0  0
   51.9730   30.9560   38.4050 P   0  0  1  0  0  0  0  0  0  0  0  0
   51.8920   32.5480   37.7700 O   0  0  0  0  0  0  0  0  0  0  0  0
   52.1390   33.1560   38.5060 H   0  0  0  0  0  0  0  0  0  0  0  0
   53.4570   30.8080   39.1390 O   0  0  0  0  0  0  0  0  0  0  0  0
   55.2810   29.4300   39.0400 C   0  0  0  0  0  0  0  0  0  0  0  0
   54.5790   30.4450   38.4240 C   0  0  0  0  0  0  0  0  0  0  0  0
   55.0640   30.9420   37.2330 C   0  0  0  0  0  0  0  0  0  0  0  0
   54.4450   31.7410   36.8200 H   0  0  0  0  0  0  0  0  0  0  0  0
   56.2160   30.4410   36.6740 C   0  0  0  0  0  3  0  0  0  0  0  0
   56.9090   29.4160   37.3120 C   0  0  0  0  0  3  0  0  0  0  0  0
   56.4510   28.9090   38.4880 C   0  0  0  0  0  0  0  0  0  0  0  0
   54.9170   28.8190   40.2550 O   0  0  0  0  0  0  0  0  0  0  0  0
   54.6970   29.3820   41.0690 H   0  0  0  0  0  0  0  0  0  0  0  0
   57.1870   27.8900   39.0720 O   0  0  0  0  0  0  0  0  0  0  0  0
   57.7950   28.1020   39.8400 H   0  0  0  0  0  0  0  0  0  0  0  0
  1  4  1  6  0  0  0
  1 11  1  0  0  0  0
  1  2  1  0  0  0  0
  2  5  1  0  0  0  0
  2  6  1  0  0  0  0
  3  7  1  6  0  0  0
  3  1  1  0  0  0  0
  3  2  1  0  0  0  0
  8 13  1  6  0  0  0
  8 12  1  0  0  0  0
  8 23  1  0  0  0  0
  9 14  1  0  0  0  0
  9  8  1  0  0  0  0
 10 11  1  0  0  0  0
 10  9  1  0  0  0  0
 11 18  1  6  0  0  0
 11 12  1  0  0  0  0
 12 19  1  0  0  0  0
 12 20  1  0  0  0  0
 15  9  1  0  0  0  0
 16 10  1  0  0  0  0
 17 10  1  0  0  0  0
 21 27  1  0  0  0  0
 21 26  1  0  0  0  0
 22 21  2  0  0  0  0
 23 22  1  0  0  0  0
 23 24  2  0  0  0  0
 24 25  1  0  0  0  0
 25 26  2  0  0  0  0
 25 29  1  0  0  0  0
 28 22  1  0  0  0  0
 30  3  1  0  0  0  0
 32 31  2  6  0  0  0
 32 35  1  0  0  0  0
 32 30  1  0  0  0  0
 33 32  1  0  0  0  0
 33 34  1  0  0  0  0
 36 43  1  0  0  0  0
 37 36  2  0  0  0  0
 37 35  1  0  0  0  0
 38 37  1  0  0  0  0
 39 38  1  0  0  0  0
 40 38  2  0  0  0  0
 40 41  1  0  0  0  0
 41 42  2  0  0  0  0
 42 36  1  0  0  0  0
 42 45  1  0  0  0  0
 43 44  1  0  0  0  0
 45 46  1  0  0  0  0
M  END
>  <minimizedAffinity>
-5.60518265

>  <minimizedRMSD>
1.73078227

$$$$
