
 OpenBabel03242516413D

 34 35  0  0  0  0  0  0  0  0999 V2000
   49.2050   33.6860   42.7110 C   0  0  0  0  0  0  0  0  0  0  0  0
   49.4230   34.0060   43.7500 H   0  0  0  0  0  0  0  0  0  0  0  0
   49.9890   34.1700   42.0890 H   0  0  0  0  0  0  0  0  0  0  0  0
   47.8760   34.1840   42.2270 C   0  0  0  0  0  0  0  0  0  0  0  0
   47.5400   33.5640   41.3890 H   0  0  0  0  0  0  0  0  0  0  0  0
   47.9820   35.2420   41.8470 H   0  0  0  0  0  0  0  0  0  0  0  0
   44.8950   35.0770   44.3410 C   0  0  0  0  0  0  0  0  0  0  0  0
   45.8100   35.0460   43.2530 C   0  0  0  0  0  0  0  0  0  0  0  0
   46.9230   34.2180   43.3580 C   0  0  0  0  0  0  0  0  0  0  0  0
   47.0870   33.4850   44.4770 N   0  0  0  0  0  0  0  0  0  0  0  0
   46.1930   33.5410   45.4950 C   0  0  0  0  0  0  0  0  0  0  0  0
   45.1070   34.3290   45.4270 N   0  0  0  0  0  0  0  0  0  0  0  0
   43.7580   35.9040   44.2640 N   0  0  0  0  0  0  0  0  0  0  0  0
   45.6530   35.6440   42.3650 H   0  0  0  0  0  0  0  0  0  0  0  0
   46.3290   32.9490   46.3930 H   0  0  0  0  0  0  0  0  0  0  0  0
   43.2290   36.1600   45.1020 H   0  0  0  0  0  0  0  0  0  0  0  0
   43.4560   36.2610   43.3200 H   0  0  0  0  0  0  0  0  0  0  0  0
   49.2840   32.3240   42.5420 O   0  0  0  0  0  0  0  0  0  0  0  0
   50.7640   30.4420   41.4820 O   0  0  0  0  0  0  0  0  0  0  0  0
   50.4070   31.8970   41.3430 P   0  0  2  0  0  0  0  0  0  0  0  0
   51.7320   32.9150   41.5180 O   0  0  0  0  0  0  0  0  0  0  0  0
   51.7990   33.6170   40.8520 H   0  0  0  0  0  0  0  0  0  0  0  0
   49.7230   32.2280   39.8220 O   0  0  0  0  0  0  0  0  0  0  0  0
   49.2700   31.8480   37.5950 C   0  0  0  0  0  0  0  0  0  0  0  0
   50.2230   31.7940   38.6180 C   0  0  0  0  0  0  0  0  0  0  0  0
   51.4880   31.3320   38.2990 C   0  0  0  0  0  0  0  0  0  0  0  0
   52.1600   31.3240   39.1450 H   0  0  0  0  0  0  0  0  0  0  0  0
   51.7840   30.9410   37.0090 C   0  0  0  0  0  3  0  0  0  0  0  0
   50.8420   30.9940   36.0010 C   0  0  0  0  0  3  0  0  0  0  0  0
   49.5890   31.4500   36.3070 C   0  0  0  0  0  0  0  0  0  0  0  0
   47.9560   32.2920   37.7660 O   0  0  0  0  0  0  0  0  0  0  0  0
   47.6570   32.4380   38.7320 H   0  0  0  0  0  0  0  0  0  0  0  0
   48.6490   31.4970   35.2710 O   0  0  0  0  0  0  0  0  0  0  0  0
   47.9700   32.2630   35.2360 H   0  0  0  0  0  0  0  0  0  0  0  0
  1  2  1  0  0  0  0
  3  1  1  0  0  0  0
  4  1  1  0  0  0  0
  4  9  1  0  0  0  0
  5  4  1  0  0  0  0
  6  4  1  0  0  0  0
  7 12  1  0  0  0  0
  8  9  1  0  0  0  0
  8  7  2  0  0  0  0
  9 10  2  0  0  0  0
 10 11  1  0  0  0  0
 11 15  1  0  0  0  0
 12 11  2  0  0  0  0
 13  7  1  0  0  0  0
 13 16  1  0  0  0  0
 14  8  1  0  0  0  0
 17 13  1  0  0  0  0
 18  1  1  0  0  0  0
 20 19  2  1  0  0  0
 20 21  1  0  0  0  0
 20 18  1  0  0  0  0
 22 21  1  0  0  0  0
 23 20  1  0  0  0  0
 24 31  1  0  0  0  0
 24 25  1  0  0  0  0
 25 23  1  0  0  0  0
 26 25  2  0  0  0  0
 26 27  1  0  0  0  0
 28 26  1  0  0  0  0
 29 30  1  0  0  0  0
 29 28  2  0  0  0  0
 30 24  2  0  0  0  0
 31 32  1  0  0  0  0
 33 30  1  0  0  0  0
 34 33  1  0  0  0  0
M  END
>  <minimizedAffinity>
-4.81134987

>  <minimizedRMSD>
0.820812762

$$$$
