
 OpenBabel03252507163D

 31 33  0  0  0  0  0  0  0  0999 V2000
   44.9490   35.9020   44.0730 C   0  0  0  0  0  0  0  0  0  0  0  0
   45.6720   34.8270   43.5000 C   0  0  0  0  0  0  0  0  0  0  0  0
   45.9000   33.7070   44.3010 C   0  0  0  0  0  0  0  0  0  0  0  0
   45.4370   33.6810   45.5600 N   0  0  0  0  0  0  0  0  0  0  0  0
   44.7390   34.7350   46.0900 C   0  0  0  0  0  0  0  0  0  0  0  0
   44.5110   35.8160   45.3380 N   0  0  0  0  0  0  0  0  0  0  0  0
   44.7540   36.7850   43.4800 H   0  0  0  0  0  0  0  0  0  0  0  0
   44.4410   34.5490   47.1150 H   0  0  0  0  0  0  0  0  0  0  0  0
   46.6400   32.6010   43.7230 C   0  0  0  0  0  0  0  0  0  0  0  0
   45.9700   31.4640   43.3100 C   0  0  0  0  0  0  0  0  0  0  0  0
   46.6990   30.4340   42.7680 C   0  0  0  0  0  0  0  0  0  0  0  0
   48.0740   30.4650   42.6080 C   0  0  0  0  0  0  0  0  0  0  0  0
   48.6880   31.6340   43.0410 C   0  0  0  0  0  0  0  0  0  0  0  0
   47.9640   32.6410   43.5730 N   0  0  0  0  0  0  0  0  0  0  0  0
   44.9160   31.3350   43.3860 H   0  0  0  0  0  0  0  0  0  0  0  0
   46.2170   29.5180   42.4270 H   0  0  0  0  0  0  0  0  0  0  0  0
   48.6990   29.7100   42.1980 H   0  0  0  0  0  0  0  0  0  0  0  0
   49.7600   31.7990   42.9780 H   0  0  0  0  0  0  0  0  0  0  0  0
   46.1300   34.9260   42.1610 C   0  0  0  0  0  0  0  0  0  0  0  0
   47.2240   35.5060   41.9460 O   0  0  0  0  0  0  0  0  0  0  0  0
   45.9280   33.4990   40.1350 C   0  0  0  0  0  0  0  0  0  0  0  0
   45.3750   34.3810   41.0380 C   0  0  0  0  0  0  0  0  0  0  0  0
   44.0580   34.7370   40.8400 C   0  0  0  0  0  0  0  0  0  0  0  0
   43.6410   35.4280   41.5560 H   0  0  0  0  0  0  0  0  0  0  0  0
   43.2900   34.2700   39.8160 C   0  0  0  0  0  3  0  0  0  0  0  0
   43.8710   33.3790   38.9150 C   0  0  0  0  0  3  0  0  0  0  0  0
   45.1750   33.0080   39.0890 C   0  0  0  0  0  0  0  0  0  0  0  0
   47.2700   33.1010   40.2920 O   0  0  0  0  0  0  0  0  0  0  0  0
   47.9220   33.0510   39.5250 H   0  0  0  0  0  0  0  0  0  0  0  0
   45.7880   32.1230   38.2120 O   0  0  0  0  0  0  0  0  0  0  0  0
   45.3920   31.2140   37.9930 H   0  0  0  0  0  0  0  0  0  0  0  0
  1  6  1  0  0  0  0
  2  1  2  0  0  0  0
  2  3  1  0  0  0  0
  3  4  2  0  0  0  0
  4  5  1  0  0  0  0
  5  8  1  0  0  0  0
  6  5  2  0  0  0  0
  7  1  1  0  0  0  0
  9  3  1  0  0  0  0
 10 15  1  0  0  0  0
 10  9  2  0  0  0  0
 11 10  1  0  0  0  0
 12 11  2  0  0  0  0
 12 13  1  0  0  0  0
 13 14  2  0  0  0  0
 14  9  1  0  0  0  0
 16 11  1  0  0  0  0
 17 12  1  0  0  0  0
 18 13  1  0  0  0  0
 19  2  1  0  0  0  0
 20 19  2  0  0  0  0
 21 28  1  0  0  0  0
 21 22  1  0  0  0  0
 22 19  1  0  0  0  0
 23 22  2  0  0  0  0
 23 24  1  0  0  0  0
 25 23  1  0  0  0  0
 26 27  1  0  0  0  0
 26 25  2  0  0  0  0
 27 21  2  0  0  0  0
 29 28  1  0  0  0  0
 30 27  1  0  0  0  0
 31 30  1  0  0  0  0
M  END
>  <minimizedAffinity>
-4.7475214

>  <minimizedRMSD>
0.816001177

$$$$
