
 OpenBabel03242516413D

 34 35  0  0  0  0  0  0  0  0999 V2000
   49.2380   33.7380   42.6720 C   0  0  0  0  0  0  0  0  0  0  0  0
   49.4640   34.0810   43.7010 H   0  0  0  0  0  0  0  0  0  0  0  0
   50.0090   34.2180   42.0320 H   0  0  0  0  0  0  0  0  0  0  0  0
   47.8980   34.2110   42.1930 C   0  0  0  0  0  0  0  0  0  0  0  0
   47.5690   33.5840   41.3570 H   0  0  0  0  0  0  0  0  0  0  0  0
   47.9830   35.2700   41.8120 H   0  0  0  0  0  0  0  0  0  0  0  0
   44.9200   35.0640   44.3280 C   0  0  0  0  0  0  0  0  0  0  0  0
   45.8310   35.0500   43.2360 C   0  0  0  0  0  0  0  0  0  0  0  0
   46.9490   34.2270   43.3280 C   0  0  0  0  0  0  0  0  0  0  0  0
   47.1220   33.4830   44.4390 N   0  0  0  0  0  0  0  0  0  0  0  0
   46.2320   33.5230   45.4610 C   0  0  0  0  0  0  0  0  0  0  0  0
   45.1400   34.3060   45.4060 N   0  0  0  0  0  0  0  0  0  0  0  0
   43.7780   35.8860   44.2650 N   0  0  0  0  0  0  0  0  0  0  0  0
   45.6670   35.6570   42.3560 H   0  0  0  0  0  0  0  0  0  0  0  0
   46.3740   32.9230   46.3520 H   0  0  0  0  0  0  0  0  0  0  0  0
   43.2520   36.1290   45.1080 H   0  0  0  0  0  0  0  0  0  0  0  0
   43.4710   36.2510   43.3270 H   0  0  0  0  0  0  0  0  0  0  0  0
   49.3310   32.3740   42.5300 O   0  0  0  0  0  0  0  0  0  0  0  0
   50.6300   30.4520   41.3140 O   0  0  0  0  0  0  0  0  0  0  0  0
   50.3900   31.9380   41.2770 P   0  0  2  0  0  0  0  0  0  0  0  0
   51.7980   32.8320   41.4820 O   0  0  0  0  0  0  0  0  0  0  0  0
   51.9080   33.5680   40.8600 H   0  0  0  0  0  0  0  0  0  0  0  0
   49.7050   32.4210   39.7980 O   0  0  0  0  0  0  0  0  0  0  0  0
   50.7810   31.5440   37.9600 C   0  0  0  0  0  0  0  0  0  0  0  0
   49.5860   31.6260   38.6830 C   0  0  0  0  0  0  0  0  0  0  0  0
   48.4910   30.9300   38.2050 C   0  0  0  0  0  0  0  0  0  0  0  0
   47.6120   31.0490   38.8230 H   0  0  0  0  0  0  0  0  0  0  0  0
   48.5910   30.1810   37.0490 C   0  0  0  0  0  3  0  0  0  0  0  0
   49.7700   30.1010   36.3360 C   0  0  0  0  0  3  0  0  0  0  0  0
   50.8580   30.7850   36.8020 C   0  0  0  0  0  0  0  0  0  0  0  0
   51.9660   32.1910   38.3190 O   0  0  0  0  0  0  0  0  0  0  0  0
   51.8890   32.8760   39.0740 H   0  0  0  0  0  0  0  0  0  0  0  0
   52.0440   30.6920   36.0640 O   0  0  0  0  0  0  0  0  0  0  0  0
   52.9440   30.6670   36.5530 H   0  0  0  0  0  0  0  0  0  0  0  0
  1  2  1  0  0  0  0
  3  1  1  0  0  0  0
  4  1  1  0  0  0  0
  4  9  1  0  0  0  0
  5  4  1  0  0  0  0
  6  4  1  0  0  0  0
  7 12  1  0  0  0  0
  8  9  1  0  0  0  0
  8  7  2  0  0  0  0
  9 10  2  0  0  0  0
 10 11  1  0  0  0  0
 11 15  1  0  0  0  0
 12 11  2  0  0  0  0
 13  7  1  0  0  0  0
 13 16  1  0  0  0  0
 14  8  1  0  0  0  0
 17 13  1  0  0  0  0
 18  1  1  0  0  0  0
 20 19  2  1  0  0  0
 20 21  1  0  0  0  0
 20 18  1  0  0  0  0
 22 21  1  0  0  0  0
 23 20  1  0  0  0  0
 24 31  1  0  0  0  0
 24 25  1  0  0  0  0
 25 23  1  0  0  0  0
 26 25  2  0  0  0  0
 26 27  1  0  0  0  0
 28 26  1  0  0  0  0
 29 30  1  0  0  0  0
 29 28  2  0  0  0  0
 30 24  2  0  0  0  0
 31 32  1  0  0  0  0
 33 34  1  0  0  0  0
 33 30  1  0  0  0  0
M  END
>  <minimizedAffinity>
-4.9280653

>  <minimizedRMSD>
1.6059972

$$$$
