
 OpenBabel03252506343D

 35 37  0  0  1  0  0  0  0  0999 V2000
   44.4320   35.7120   44.9860 C   0  0  0  0  0  0  0  0  0  0  0  0
   45.1180   35.7190   43.7510 C   0  0  0  0  0  0  0  0  0  0  0  0
   46.0730   34.7770   43.5160 C   0  0  0  0  0  0  0  0  0  0  0  0
   46.3090   33.8740   44.5040 N   0  0  0  0  0  0  0  0  0  0  0  0
   45.6630   33.8730   45.6600 C   0  0  0  0  0  0  0  0  0  0  0  0
   44.7150   34.7910   45.9190 N   0  0  0  0  0  0  0  0  0  0  0  0
   45.9930   32.8850   46.6190 N   0  0  0  0  0  0  0  0  0  0  0  0
   45.1790   32.5360   47.7820 C   0  0  0  0  0  0  0  0  0  0  0  0
   46.2550   32.2970   48.8430 C   0  0  0  0  0  0  0  0  0  0  0  0
   47.5680   32.2440   48.1370 C   0  0  0  0  0  0  0  0  0  0  0  0
   47.1470   32.0220   46.6930 C   0  0  1  0  0  0  0  0  0  0  0  0
   43.6680   36.4540   45.1920 H   0  0  0  0  0  0  0  0  0  0  0  0
   46.5950   34.7870   42.5690 H   0  0  0  0  0  0  0  0  0  0  0  0
   44.7070   31.5710   47.5420 H   0  0  0  0  0  0  0  0  0  0  0  0
   44.4800   33.3210   48.0700 H   0  0  0  0  0  0  0  0  0  0  0  0
   45.9900   31.3630   49.3980 H   0  0  0  0  0  0  0  0  0  0  0  0
   46.2320   33.1270   49.5790 H   0  0  0  0  0  0  0  0  0  0  0  0
   48.2780   31.5150   48.5160 H   0  0  0  0  0  0  0  0  0  0  0  0
   48.0390   33.2700   48.1650 H   0  0  0  0  0  0  0  0  0  0  0  0
   47.9840   32.3710   46.0690 H   0  0  0  0  0  0  0  0  0  0  0  0
   44.7400   36.7470   42.8170 N   0  0  0  0  0  0  0  0  0  0  0  0
   45.6080   37.3440   42.7660 H   0  0  0  0  0  0  0  0  0  0  0  0
   43.7920   36.7640   42.3770 H   0  0  0  0  0  0  0  0  0  0  0  0
   46.7320   30.2940   46.4400 S   0  0  0  0  0  0  0  0  0  0  0  0
   49.2970   29.0560   46.0570 C   0  0  0  0  0  0  0  0  0  0  0  0
   48.0580   29.4440   45.6050 C   0  0  0  0  0  0  0  0  0  0  0  0
   47.7050   29.1540   44.2810 C   0  0  0  0  0  0  0  0  0  0  0  0
   46.7640   29.3930   43.7700 H   0  0  0  0  0  0  0  0  0  0  0  0
   48.5950   28.4830   43.4340 C   0  0  0  0  0  3  0  0  0  0  0  0
   49.8320   28.1040   43.9140 C   0  0  0  0  0  3  0  0  0  0  0  0
   50.1570   28.4030   45.2290 C   0  0  0  0  0  0  0  0  0  0  0  0
   49.5090   29.4030   47.3750 O   0  0  0  0  0  0  0  0  0  0  0  0
   50.3910   29.8410   47.6620 H   0  0  0  0  0  0  0  0  0  0  0  0
   51.3780   28.0780   45.8480 O   0  0  0  0  0  0  0  0  0  0  0  0
   52.0150   27.4180   45.4310 H   0  0  0  0  0  0  0  0  0  0  0  0
  1 12  1  0  0  0  0
  1  6  1  0  0  0  0
  2  1  2  0  0  0  0
  3  2  1  0  0  0  0
  3  4  2  0  0  0  0
  4  5  1  0  0  0  0
  5  6  2  0  0  0  0
  5  7  1  0  0  0  0
  7 11  1  0  0  0  0
  7  8  1  0  0  0  0
  8 15  1  0  0  0  0
  8  9  1  0  0  0  0
  9 16  1  0  0  0  0
  9 17  1  0  0  0  0
 10 19  1  0  0  0  0
 10 18  1  0  0  0  0
 10  9  1  0  0  0  0
 11 20  1  6  0  0  0
 11 10  1  0  0  0  0
 13  3  1  0  0  0  0
 14  8  1  0  0  0  0
 21  2  1  0  0  0  0
 22 21  1  0  0  0  0
 23 21  1  0  0  0  0
 24 11  1  0  0  0  0
 25 32  1  0  0  0  0
 26 25  1  0  0  0  0
 26 24  1  0  0  0  0
 27 26  2  0  0  0  0
 28 27  1  0  0  0  0
 29 30  2  0  0  0  0
 29 27  1  0  0  0  0
 30 31  1  0  0  0  0
 31 34  1  0  0  0  0
 31 25  2  0  0  0  0
 32 33  1  0  0  0  0
 35 34  1  0  0  0  0
M  END
>  <minimizedAffinity>
-5.01041698

>  <minimizedRMSD>
1.12454128

$$$$
