
 OpenBabel03252509273D

 32 34  0  0  1  0  0  0  0  0999 V2000
   46.9690   35.2690   41.9480 C   0  0  1  0  0  0  0  0  0  0  0  0
   48.4340   35.7680   42.1160 C   0  0  0  0  0  0  0  0  0  0  0  0
   47.9800   34.5160   41.3220 C   0  0  2  0  0  0  0  0  0  0  0  0
   46.3270   35.9880   41.4120 H   0  0  0  0  0  0  0  0  0  0  0  0
   48.9290   35.6330   43.0770 H   0  0  0  0  0  0  0  0  0  0  0  0
   48.6820   36.6590   41.5280 H   0  0  0  0  0  0  0  0  0  0  0  0
   48.4220   33.5790   41.7760 H   0  0  0  0  0  0  0  0  0  0  0  0
   44.8780   34.9550   45.0440 C   0  0  0  0  0  0  0  0  0  0  0  0
   45.3650   35.4980   43.8220 C   0  0  0  0  0  0  0  0  0  0  0  0
   46.4050   34.8230   43.2750 C   0  0  0  0  0  0  0  0  0  0  0  0
   46.9430   33.6960   43.8710 N   0  0  0  0  0  0  0  0  0  0  0  0
   46.4410   33.2230   45.0340 C   0  0  0  0  0  0  0  0  0  0  0  0
   45.4020   33.8580   45.6210 N   0  0  0  0  0  0  0  0  0  0  0  0
   44.0500   35.4620   45.5100 H   0  0  0  0  0  0  0  0  0  0  0  0
   46.9680   32.3390   45.3690 H   0  0  0  0  0  0  0  0  0  0  0  0
   44.8310   36.6590   43.2300 N   0  0  0  0  0  0  0  0  0  0  0  0
   43.7870   36.7880   43.2630 H   0  0  0  0  0  0  0  0  0  0  0  0
   45.4990   37.3470   42.7830 H   0  0  0  0  0  0  0  0  0  0  0  0
   48.1310   34.5140   39.8230 C   0  0  0  0  0  0  0  0  0  0  0  0
   47.7370   35.4970   39.4780 H   0  0  0  0  0  0  0  0  0  0  0  0
   49.2210   34.5330   39.5920 H   0  0  0  0  0  0  0  0  0  0  0  0
   48.5100   32.4620   38.7580 C   0  0  0  0  0  0  0  0  0  0  0  0
   47.5220   33.3870   39.1220 C   0  0  0  0  0  0  0  0  0  0  0  0
   46.2260   33.0760   38.7750 C   0  0  0  0  0  0  0  0  0  0  0  0
   45.5340   33.8270   39.0860 H   0  0  0  0  0  0  0  0  0  0  0  0
   45.8980   31.9230   38.1030 C   0  0  0  0  0  3  0  0  0  0  0  0
   46.8870   31.0110   37.7450 C   0  0  0  0  0  3  0  0  0  0  0  0
   48.1850   31.2980   38.0810 C   0  0  0  0  0  0  0  0  0  0  0  0
   49.8850   32.5570   39.0000 O   0  0  0  0  0  0  0  0  0  0  0  0
   50.1650   32.5000   39.9770 H   0  0  0  0  0  0  0  0  0  0  0  0
   49.0940   30.3290   37.6810 O   0  0  0  0  0  0  0  0  0  0  0  0
   50.0270   30.3920   38.1130 H   0  0  0  0  0  0  0  0  0  0  0  0
  1  4  1  6  0  0  0
  1  2  1  0  0  0  0
  1 10  1  0  0  0  0
  2  5  1  0  0  0  0
  3  7  1  1  0  0  0
  3  1  1  0  0  0  0
  3  2  1  0  0  0  0
  6  2  1  0  0  0  0
  8 14  1  0  0  0  0
  8 13  1  0  0  0  0
  9  8  2  0  0  0  0
 10  9  1  0  0  0  0
 10 11  2  0  0  0  0
 11 12  1  0  0  0  0
 12 15  1  0  0  0  0
 12 13  2  0  0  0  0
 16 17  1  0  0  0  0
 16  9  1  0  0  0  0
 18 16  1  0  0  0  0
 19  3  1  0  0  0  0
 20 19  1  0  0  0  0
 21 19  1  0  0  0  0
 22 29  1  0  0  0  0
 22 23  1  0  0  0  0
 23 19  1  0  0  0  0
 24 25  1  0  0  0  0
 24 23  2  0  0  0  0
 26 24  1  0  0  0  0
 27 28  1  0  0  0  0
 27 26  2  0  0  0  0
 28 22  2  0  0  0  0
 29 30  1  0  0  0  0
 31 28  1  0  0  0  0
 31 32  1  0  0  0  0
M  END
>  <minimizedAffinity>
-4.93077755

>  <minimizedRMSD>
1.82975113

$$$$
