
 OpenBabel03252507163D

 31 33  0  0  0  0  0  0  0  0999 V2000
   45.0700   36.0820   43.4870 C   0  0  0  0  0  0  0  0  0  0  0  0
   45.7120   34.8650   43.1490 C   0  0  0  0  0  0  0  0  0  0  0  0
   45.7860   33.8820   44.1360 C   0  0  0  0  0  0  0  0  0  0  0  0
   45.2590   34.1130   45.3490 N   0  0  0  0  0  0  0  0  0  0  0  0
   44.6430   35.3000   45.6490 C   0  0  0  0  0  0  0  0  0  0  0  0
   44.5630   36.2530   44.7160 N   0  0  0  0  0  0  0  0  0  0  0  0
   44.9950   36.8650   42.7440 H   0  0  0  0  0  0  0  0  0  0  0  0
   44.2760   35.3180   46.6690 H   0  0  0  0  0  0  0  0  0  0  0  0
   46.4410   32.6320   43.8000 C   0  0  0  0  0  0  0  0  0  0  0  0
   45.6910   31.4810   43.6410 C   0  0  0  0  0  0  0  0  0  0  0  0
   46.3410   30.3140   43.3230 C   0  0  0  0  0  0  0  0  0  0  0  0
   47.7110   30.2180   43.1510 C   0  0  0  0  0  0  0  0  0  0  0  0
   48.4080   31.4080   43.3240 C   0  0  0  0  0  0  0  0  0  0  0  0
   47.7620   32.5510   43.6360 N   0  0  0  0  0  0  0  0  0  0  0  0
   44.6320   31.4430   43.7500 H   0  0  0  0  0  0  0  0  0  0  0  0
   45.7940   29.3820   43.1870 H   0  0  0  0  0  0  0  0  0  0  0  0
   48.2780   29.3540   42.9050 H   0  0  0  0  0  0  0  0  0  0  0  0
   49.4870   31.4830   43.2200 H   0  0  0  0  0  0  0  0  0  0  0  0
   46.2450   34.6930   41.8460 C   0  0  0  0  0  0  0  0  0  0  0  0
   47.3550   35.2210   41.5810 O   0  0  0  0  0  0  0  0  0  0  0  0
   44.3530   34.3430   40.2700 C   0  0  0  0  0  0  0  0  0  0  0  0
   45.5500   33.9300   40.8140 C   0  0  0  0  0  0  0  0  0  0  0  0
   46.0790   32.7470   40.3410 C   0  0  0  0  0  0  0  0  0  0  0  0
   47.0170   32.4380   40.7780 H   0  0  0  0  0  0  0  0  0  0  0  0
   45.4880   31.9810   39.3820 C   0  0  0  0  0  3  0  0  0  0  0  0
   44.2790   32.4200   38.8470 C   0  0  0  0  0  3  0  0  0  0  0  0
   43.7330   33.5890   39.2970 C   0  0  0  0  0  0  0  0  0  0  0  0
   43.7700   35.5440   40.7180 O   0  0  0  0  0  0  0  0  0  0  0  0
   42.7900   35.6350   40.9270 H   0  0  0  0  0  0  0  0  0  0  0  0
   42.5290   34.0570   38.7870 O   0  0  0  0  0  0  0  0  0  0  0  0
   42.3720   34.1800   37.7920 H   0  0  0  0  0  0  0  0  0  0  0  0
  1  6  1  0  0  0  0
  2  1  2  0  0  0  0
  2  3  1  0  0  0  0
  3  4  2  0  0  0  0
  4  5  1  0  0  0  0
  5  8  1  0  0  0  0
  6  5  2  0  0  0  0
  7  1  1  0  0  0  0
  9  3  1  0  0  0  0
 10 15  1  0  0  0  0
 10  9  1  0  0  0  0
 11 10  2  0  0  0  0
 12 11  1  0  0  0  0
 12 13  2  0  0  0  0
 13 14  1  0  0  0  0
 14  9  2  0  0  0  0
 16 11  1  0  0  0  0
 17 12  1  0  0  0  0
 18 13  1  0  0  0  0
 19  2  1  0  0  0  0
 20 19  2  0  0  0  0
 21 28  1  0  0  0  0
 21 22  1  0  0  0  0
 22 19  1  0  0  0  0
 23 24  1  0  0  0  0
 23 22  2  0  0  0  0
 25 23  1  0  0  0  0
 26 27  1  0  0  0  0
 26 25  2  0  0  0  0
 27 21  2  0  0  0  0
 28 29  1  0  0  0  0
 30 27  1  0  0  0  0
 31 30  1  0  0  0  0
M  END
>  <minimizedAffinity>
-4.76844072

>  <minimizedRMSD>
1.40378261

$$$$
