
 OpenBabel03242516413D

 34 35  0  0  0  0  0  0  0  0999 V2000
   49.1980   33.6110   42.7050 C   0  0  0  0  0  0  0  0  0  0  0  0
   49.4010   33.8560   43.7670 H   0  0  0  0  0  0  0  0  0  0  0  0
   50.0030   34.1210   42.1320 H   0  0  0  0  0  0  0  0  0  0  0  0
   47.8880   34.1660   42.2310 C   0  0  0  0  0  0  0  0  0  0  0  0
   47.5330   33.5780   41.3770 H   0  0  0  0  0  0  0  0  0  0  0  0
   48.0310   35.2280   41.8780 H   0  0  0  0  0  0  0  0  0  0  0  0
   44.9060   35.0680   44.3400 C   0  0  0  0  0  0  0  0  0  0  0  0
   45.8230   35.0330   43.2530 C   0  0  0  0  0  0  0  0  0  0  0  0
   46.9340   34.2030   43.3610 C   0  0  0  0  0  0  0  0  0  0  0  0
   47.0960   33.4730   44.4820 N   0  0  0  0  0  0  0  0  0  0  0  0
   46.2010   33.5330   45.4990 C   0  0  0  0  0  0  0  0  0  0  0  0
   45.1160   34.3230   45.4280 N   0  0  0  0  0  0  0  0  0  0  0  0
   43.7710   35.8980   44.2600 N   0  0  0  0  0  0  0  0  0  0  0  0
   45.6680   35.6290   42.3630 H   0  0  0  0  0  0  0  0  0  0  0  0
   46.3350   32.9430   46.3990 H   0  0  0  0  0  0  0  0  0  0  0  0
   43.2420   36.1550   45.0970 H   0  0  0  0  0  0  0  0  0  0  0  0
   43.4710   36.2530   43.3150 H   0  0  0  0  0  0  0  0  0  0  0  0
   49.2570   32.2630   42.4460 O   0  0  0  0  0  0  0  0  0  0  0  0
   50.9690   30.4650   41.6130 O   0  0  0  0  0  0  0  0  0  0  0  0
   50.5120   31.8780   41.3690 P   0  0  2  0  0  0  0  0  0  0  0  0
   51.7310   33.0090   41.6020 O   0  0  0  0  0  0  0  0  0  0  0  0
   51.8010   33.6830   40.9070 H   0  0  0  0  0  0  0  0  0  0  0  0
   49.9400   32.0810   39.7800 O   0  0  0  0  0  0  0  0  0  0  0  0
   49.6920   31.4530   37.5780 C   0  0  0  0  0  0  0  0  0  0  0  0
   50.5760   31.6340   38.6470 C   0  0  0  0  0  0  0  0  0  0  0  0
   51.9130   31.3540   38.4350 C   0  0  0  0  0  0  0  0  0  0  0  0
   52.5240   31.5200   39.3110 H   0  0  0  0  0  0  0  0  0  0  0  0
   52.3460   30.9080   37.2010 C   0  0  0  0  0  3  0  0  0  0  0  0
   51.4730   30.7300   36.1480 C   0  0  0  0  0  3  0  0  0  0  0  0
   50.1490   31.0050   36.3480 C   0  0  0  0  0  0  0  0  0  0  0  0
   48.3170   31.6950   37.6420 O   0  0  0  0  0  0  0  0  0  0  0  0
   47.9380   31.8720   38.5760 H   0  0  0  0  0  0  0  0  0  0  0  0
   49.2790   30.8180   35.2670 O   0  0  0  0  0  0  0  0  0  0  0  0
   48.4950   31.4610   35.1300 H   0  0  0  0  0  0  0  0  0  0  0  0
  1  2  1  0  0  0  0
  3  1  1  0  0  0  0
  4  1  1  0  0  0  0
  4  9  1  0  0  0  0
  5  4  1  0  0  0  0
  6  4  1  0  0  0  0
  7 12  1  0  0  0  0
  8  9  1  0  0  0  0
  8  7  2  0  0  0  0
  9 10  2  0  0  0  0
 10 11  1  0  0  0  0
 11 15  1  0  0  0  0
 12 11  2  0  0  0  0
 13  7  1  0  0  0  0
 13 16  1  0  0  0  0
 14  8  1  0  0  0  0
 17 13  1  0  0  0  0
 18  1  1  0  0  0  0
 20 21  1  0  0  0  0
 20 19  2  1  0  0  0
 20 18  1  0  0  0  0
 22 21  1  0  0  0  0
 23 20  1  0  0  0  0
 24 31  1  0  0  0  0
 24 25  1  0  0  0  0
 25 23  1  0  0  0  0
 26 25  2  0  0  0  0
 26 27  1  0  0  0  0
 28 26  1  0  0  0  0
 29 30  1  0  0  0  0
 29 28  2  0  0  0  0
 30 24  2  0  0  0  0
 31 32  1  0  0  0  0
 33 30  1  0  0  0  0
 34 33  1  0  0  0  0
M  END
>  <minimizedAffinity>
-4.78949976

>  <minimizedRMSD>
0.800682604

$$$$
