
 OpenBabel03252507163D

 31 33  0  0  0  0  0  0  0  0999 V2000
   45.2890   36.1340   43.3180 C   0  0  0  0  0  0  0  0  0  0  0  0
   45.9170   34.8970   43.0300 C   0  0  0  0  0  0  0  0  0  0  0  0
   45.8680   33.9060   44.0110 C   0  0  0  0  0  0  0  0  0  0  0  0
   45.2410   34.1490   45.1730 N   0  0  0  0  0  0  0  0  0  0  0  0
   44.6400   35.3550   45.4260 C   0  0  0  0  0  0  0  0  0  0  0  0
   44.6770   36.3150   44.4980 N   0  0  0  0  0  0  0  0  0  0  0  0
   45.3080   36.9220   42.5780 H   0  0  0  0  0  0  0  0  0  0  0  0
   44.1830   35.3800   46.4080 H   0  0  0  0  0  0  0  0  0  0  0  0
   46.5090   32.6370   43.7260 C   0  0  0  0  0  0  0  0  0  0  0  0
   45.7380   31.5110   43.4970 C   0  0  0  0  0  0  0  0  0  0  0  0
   46.3750   30.3240   43.2300 C   0  0  0  0  0  0  0  0  0  0  0  0
   47.7510   30.1850   43.1740 C   0  0  0  0  0  0  0  0  0  0  0  0
   48.4690   31.3500   43.4110 C   0  0  0  0  0  0  0  0  0  0  0  0
   47.8360   32.5140   43.6740 N   0  0  0  0  0  0  0  0  0  0  0  0
   44.6740   31.5070   43.5170 H   0  0  0  0  0  0  0  0  0  0  0  0
   45.8120   29.4110   43.0430 H   0  0  0  0  0  0  0  0  0  0  0  0
   48.3080   29.3030   42.9720 H   0  0  0  0  0  0  0  0  0  0  0  0
   49.5550   31.3910   43.3990 H   0  0  0  0  0  0  0  0  0  0  0  0
   46.5610   34.7140   41.7780 C   0  0  0  0  0  0  0  0  0  0  0  0
   47.6550   35.2990   41.5800 O   0  0  0  0  0  0  0  0  0  0  0  0
   44.7610   34.1260   40.1670 C   0  0  0  0  0  0  0  0  0  0  0  0
   45.9950   33.8750   40.7270 C   0  0  0  0  0  0  0  0  0  0  0  0
   46.6890   32.7840   40.2510 C   0  0  0  0  0  0  0  0  0  0  0  0
   47.6540   32.6020   40.7000 H   0  0  0  0  0  0  0  0  0  0  0  0
   46.2270   31.9560   39.2730 C   0  0  0  0  0  3  0  0  0  0  0  0
   44.9760   32.2290   38.7210 C   0  0  0  0  0  3  0  0  0  0  0  0
   44.2650   33.3050   39.1750 C   0  0  0  0  0  0  0  0  0  0  0  0
   44.0100   35.2290   40.6180 O   0  0  0  0  0  0  0  0  0  0  0  0
   43.0220   35.1790   40.8120 H   0  0  0  0  0  0  0  0  0  0  0  0
   43.0160   33.6090   38.6500 O   0  0  0  0  0  0  0  0  0  0  0  0
   42.8590   33.7220   37.6540 H   0  0  0  0  0  0  0  0  0  0  0  0
  1  6  1  0  0  0  0
  2  1  2  0  0  0  0
  2  3  1  0  0  0  0
  3  4  2  0  0  0  0
  4  5  1  0  0  0  0
  5  8  1  0  0  0  0
  6  5  2  0  0  0  0
  7  1  1  0  0  0  0
  9  3  1  0  0  0  0
 10 15  1  0  0  0  0
 10  9  2  0  0  0  0
 11 10  1  0  0  0  0
 12 11  2  0  0  0  0
 12 13  1  0  0  0  0
 13 14  2  0  0  0  0
 14  9  1  0  0  0  0
 16 11  1  0  0  0  0
 17 12  1  0  0  0  0
 18 13  1  0  0  0  0
 19  2  1  0  0  0  0
 20 19  2  0  0  0  0
 21 28  1  0  0  0  0
 21 22  1  0  0  0  0
 22 19  1  0  0  0  0
 23 24  1  0  0  0  0
 23 22  2  0  0  0  0
 25 23  1  0  0  0  0
 26 27  1  0  0  0  0
 26 25  2  0  0  0  0
 27 21  2  0  0  0  0
 28 29  1  0  0  0  0
 30 27  1  0  0  0  0
 31 30  1  0  0  0  0
M  END
>  <minimizedAffinity>
-4.77983856

>  <minimizedRMSD>
0.309285671

$$$$
