
 OpenBabel03252502563D

 39 41  0  0  0  0  0  0  0  0999 V2000
   45.5790   29.9970   44.6370 Br  0  0  0  0  0  0  0  0  0  0  0  0
   45.6650   30.6200   46.4620 C   0  0  0  0  0  0  0  0  0  0  0  0
   46.3590   31.7790   46.6680 C   0  0  0  0  0  0  0  0  0  0  0  0
   46.4000   32.1980   48.0010 C   0  0  0  0  0  0  0  0  0  0  0  0
   45.7940   31.5120   49.0390 C   0  0  0  0  0  0  0  0  0  0  0  0
   45.1170   30.3580   48.7490 C   0  0  0  0  0  0  0  0  0  0  0  0
   45.0400   29.8890   47.4490 C   0  0  0  0  0  0  0  0  0  0  0  0
   46.9240   33.0990   48.2560 H   0  0  0  0  0  0  0  0  0  0  0  0
   45.8270   31.8360   50.0530 H   0  0  0  0  0  0  0  0  0  0  0  0
   44.6170   29.7700   49.5240 H   0  0  0  0  0  0  0  0  0  0  0  0
   47.0420   32.6000   45.6770 C   0  0  0  0  0  0  0  0  0  0  0  0
   47.3530   31.9450   44.8300 H   0  0  0  0  0  0  0  0  0  0  0  0
   47.9830   32.9830   46.1700 H   0  0  0  0  0  0  0  0  0  0  0  0
   44.5430   35.3540   45.3460 C   0  0  0  0  0  0  0  0  0  0  0  0
   44.7510   35.7860   44.0410 C   0  0  0  0  0  0  0  0  0  0  0  0
   45.7350   35.1360   43.2950 C   0  0  0  0  0  0  0  0  0  0  0  0
   46.4300   34.1360   43.8610 N   0  0  0  0  0  0  0  0  0  0  0  0
   46.2180   33.7210   45.1380 C   0  0  0  0  0  0  0  0  0  0  0  0
   45.2600   34.3610   45.8480 N   0  0  0  0  0  0  0  0  0  0  0  0
   43.7710   35.8640   45.9300 H   0  0  0  0  0  0  0  0  0  0  0  0
   44.2100   36.5860   43.5570 H   0  0  0  0  0  0  0  0  0  0  0  0
   45.9750   35.3990   42.2650 H   0  0  0  0  0  0  0  0  0  0  0  0
   44.3440   28.7070   47.1700 O   0  0  0  0  0  0  0  0  0  0  0  0
   44.1160   26.1520   46.7520 O   0  0  0  0  0  0  0  0  0  0  0  0
   44.9800   27.1660   47.5110 P   0  0  2  0  0  0  0  0  0  0  0  0
   44.8560   26.9020   49.1500 O   0  0  0  0  0  0  0  0  0  0  0  0
   44.0110   27.3040   49.4920 H   0  0  0  0  0  0  0  0  0  0  0  0
   46.5540   26.9870   46.9480 O   0  0  0  0  0  0  0  0  0  0  0  0
   48.2400   26.2440   48.3120 C   0  0  0  0  0  0  0  0  0  0  0  0
   47.7110   27.3440   47.6280 C   0  0  0  0  0  0  0  0  0  0  0  0
   48.3520   28.5610   47.7030 C   0  0  0  0  0  0  0  0  0  0  0  0
   47.8520   29.3330   47.1360 H   0  0  0  0  0  0  0  0  0  0  0  0
   49.5040   28.6780   48.4500 C   0  0  0  0  0  0  0  0  0  0  0  0
   50.0360   27.5980   49.1300 C   0  0  0  0  0  0  0  0  0  0  0  0
   49.4040   26.3730   49.0630 C   0  0  0  0  0  0  0  0  0  0  0  0
   47.6990   24.9540   48.3240 O   0  0  0  0  0  0  0  0  0  0  0  0
   46.8810   24.7170   47.7540 H   0  0  0  0  0  0  0  0  0  0  0  0
   49.9680   25.3070   49.7610 O   0  0  0  0  0  0  0  0  0  0  0  0
   50.6170   24.6830   49.3070 H   0  0  0  0  0  0  0  0  0  0  0  0
  1  2  1  0  0  0  0
  2  3  2  0  0  0  0
  2  7  1  0  0  0  0
  3  4  1  0  0  0  0
  4  8  1  0  0  0  0
  4  5  2  0  0  0  0
  5  9  1  0  0  0  0
  6  5  1  0  0  0  0
  6 10  1  0  0  0  0
  7  6  2  0  0  0  0
 11 13  1  0  0  0  0
 11  3  1  0  0  0  0
 12 11  1  0  0  0  0
 14 19  1  0  0  0  0
 14 20  1  0  0  0  0
 15 14  2  0  0  0  0
 16 17  2  0  0  0  0
 16 15  1  0  0  0  0
 17 18  1  0  0  0  0
 18 11  1  0  0  0  0
 18 19  2  0  0  0  0
 21 15  1  0  0  0  0
 22 16  1  0  0  0  0
 23  7  1  0  0  0  0
 23 25  1  0  0  0  0
 25 24  2  6  0  0  0
 25 26  1  0  0  0  0
 26 27  1  0  0  0  0
 28 25  1  0  0  0  0
 28 30  1  0  0  0  0
 29 36  1  0  0  0  0
 29 35  1  0  0  0  0
 30 31  1  0  0  0  0
 30 29  2  0  0  0  0
 31 33  2  0  0  0  0
 32 31  1  0  0  0  0
 33 34  1  0  0  0  0
 35 34  2  0  0  0  0
 35 38  1  0  0  0  0
 37 36  1  0  0  0  0
 39 38  1  0  0  0  0
M  END
>  <minimizedAffinity>
-5.49435282

>  <minimizedRMSD>
0.899112403

$$$$
