
 OpenBabel03252507163D

 31 33  0  0  0  0  0  0  0  0999 V2000
   45.1880   34.5930   44.7840 C   0  0  0  0  0  0  0  0  0  0  0  0
   46.1600   34.2720   43.8050 C   0  0  0  0  0  0  0  0  0  0  0  0
   47.1140   33.3100   44.1370 C   0  0  0  0  0  0  0  0  0  0  0  0
   47.0830   32.7290   45.3470 N   0  0  0  0  0  0  0  0  0  0  0  0
   46.1300   33.0580   46.2770 C   0  0  0  0  0  0  0  0  0  0  0  0
   45.2090   33.9780   45.9760 N   0  0  0  0  0  0  0  0  0  0  0  0
   44.4340   35.3350   44.5590 H   0  0  0  0  0  0  0  0  0  0  0  0
   46.2510   32.4970   47.1960 H   0  0  0  0  0  0  0  0  0  0  0  0
   48.1140   32.9740   43.1410 C   0  0  0  0  0  0  0  0  0  0  0  0
   47.9520   31.8490   42.3540 C   0  0  0  0  0  0  0  0  0  0  0  0
   48.9170   31.5580   41.4200 C   0  0  0  0  0  0  0  0  0  0  0  0
   50.0480   32.3290   41.2170 C   0  0  0  0  0  0  0  0  0  0  0  0
   50.1520   33.4450   42.0380 C   0  0  0  0  0  0  0  0  0  0  0  0
   49.2000   33.7240   42.9540 N   0  0  0  0  0  0  0  0  0  0  0  0
   47.1210   31.1870   42.4270 H   0  0  0  0  0  0  0  0  0  0  0  0
   48.8340   30.6830   40.7760 H   0  0  0  0  0  0  0  0  0  0  0  0
   50.8300   32.1660   40.5170 H   0  0  0  0  0  0  0  0  0  0  0  0
   50.9860   34.1400   41.9910 H   0  0  0  0  0  0  0  0  0  0  0  0
   46.1300   34.9280   42.5470 C   0  0  0  0  0  0  0  0  0  0  0  0
   46.9380   35.8700   42.3460 O   0  0  0  0  0  0  0  0  0  0  0  0
   43.9980   35.1950   41.2960 C   0  0  0  0  0  0  0  0  0  0  0  0
   45.1970   34.5450   41.4920 C   0  0  0  0  0  0  0  0  0  0  0  0
   45.4920   33.5010   40.6410 C   0  0  0  0  0  0  0  0  0  0  0  0
   46.4350   33.0040   40.8080 H   0  0  0  0  0  0  0  0  0  0  0  0
   44.6720   33.0870   39.6340 C   0  0  0  0  0  3  0  0  0  0  0  0
   43.4640   33.7590   39.4560 C   0  0  0  0  0  3  0  0  0  0  0  0
   43.1470   34.7990   40.2860 C   0  0  0  0  0  0  0  0  0  0  0  0
   43.6480   36.2690   42.1380 O   0  0  0  0  0  0  0  0  0  0  0  0
   42.7290   36.3800   42.5340 H   0  0  0  0  0  0  0  0  0  0  0  0
   41.9520   35.4920   40.1370 O   0  0  0  0  0  0  0  0  0  0  0  0
   41.6690   35.9020   39.2530 H   0  0  0  0  0  0  0  0  0  0  0  0
  1  6  1  0  0  0  0
  2  3  1  0  0  0  0
  2  1  2  0  0  0  0
  3  4  2  0  0  0  0
  4  5  1  0  0  0  0
  5  8  1  0  0  0  0
  6  5  2  0  0  0  0
  7  1  1  0  0  0  0
  9  3  1  0  0  0  0
 10 15  1  0  0  0  0
 10  9  2  0  0  0  0
 11 10  1  0  0  0  0
 12 11  2  0  0  0  0
 12 13  1  0  0  0  0
 13 14  2  0  0  0  0
 14  9  1  0  0  0  0
 16 11  1  0  0  0  0
 17 12  1  0  0  0  0
 18 13  1  0  0  0  0
 19  2  1  0  0  0  0
 20 19  2  0  0  0  0
 21 22  1  0  0  0  0
 21 28  1  0  0  0  0
 22 19  1  0  0  0  0
 23 24  1  0  0  0  0
 23 22  2  0  0  0  0
 25 23  1  0  0  0  0
 26 25  2  0  0  0  0
 26 27  1  0  0  0  0
 27 21  2  0  0  0  0
 28 29  1  0  0  0  0
 30 27  1  0  0  0  0
 31 30  1  0  0  0  0
M  END
>  <minimizedAffinity>
-5.33992243

>  <minimizedRMSD>
2.42484283

$$$$
