
 OpenBabel03242522513D

 28 29  0  0  0  0  0  0  0  0999 V2000
   45.2880   30.6130   47.7150 O   0  0  0  0  0  0  0  0  0  0  0  0
   45.8300   31.8900   48.4130 P   0  0  2  0  0  0  0  0  0  0  0  0
   45.2310   31.8260   49.9840 O   0  0  0  0  0  0  0  0  0  0  0  0
   45.9660   31.8940   50.6420 H   0  0  0  0  0  0  0  0  0  0  0  0
   45.1890   33.2200   47.5940 O   0  0  0  0  0  0  0  0  0  0  0  0
   47.0550   33.0620   44.4780 C   0  0  0  0  0  0  0  0  0  0  0  0
   46.6180   32.7790   45.7950 C   0  0  0  0  0  0  0  0  0  0  0  0
   45.5850   33.5280   46.3090 C   0  0  0  0  0  0  0  0  0  0  0  0
   45.0450   34.4890   45.5330 N   0  0  0  0  0  0  0  0  0  0  0  0
   45.4540   34.7590   44.2910 C   0  0  0  0  0  0  0  0  0  0  0  0
   46.4610   34.0480   43.7590 N   0  0  0  0  0  0  0  0  0  0  0  0
   47.8610   32.5290   43.9880 H   0  0  0  0  0  0  0  0  0  0  0  0
   47.1740   31.9870   46.2250 H   0  0  0  0  0  0  0  0  0  0  0  0
   44.9370   35.5620   43.7640 H   0  0  0  0  0  0  0  0  0  0  0  0
   47.4840   31.8740   48.3730 O   0  0  0  0  0  0  0  0  0  0  0  0
   48.4060   30.9410   48.6710 C   0  0  0  0  0  0  0  0  0  0  0  0
   48.9010   31.1050   49.8840 O   0  0  0  0  0  0  0  0  0  0  0  0
   50.4990   29.6940   48.2660 C   0  0  0  0  0  0  0  0  0  0  0  0
   49.1570   29.7300   48.1910 C   0  0  0  0  0  0  0  0  0  0  0  0
   48.5120   28.6130   47.6350 C   0  0  0  0  0  0  0  0  0  0  0  0
   47.4130   28.7340   47.6150 H   0  0  0  0  0  0  0  0  0  0  0  0
   49.0940   27.4720   47.1530 C   0  0  0  0  0  3  0  0  0  0  0  0
   50.4430   27.5030   47.2600 C   0  0  0  0  0  3  0  0  0  0  0  0
   51.1500   28.5450   47.7860 C   0  0  0  0  0  0  0  0  0  0  0  0
   51.3440   30.6690   48.7720 O   0  0  0  0  0  0  0  0  0  0  0  0
   52.1210   30.4880   49.3950 H   0  0  0  0  0  0  0  0  0  0  0  0
   52.5330   28.4770   47.8490 O   0  0  0  0  0  0  0  0  0  0  0  0
   53.0610   29.3060   47.5990 H   0  0  0  0  0  0  0  0  0  0  0  0
  2  1  2  6  0  0  0
  2  3  1  0  0  0  0
  3  4  1  0  0  0  0
  5  2  1  0  0  0  0
  6  7  1  0  0  0  0
  7 13  1  0  0  0  0
  7  8  2  0  0  0  0
  8  5  1  0  0  0  0
  9  8  1  0  0  0  0
 10  9  2  0  0  0  0
 11 10  1  0  0  0  0
 11  6  2  0  0  0  0
 12  6  1  0  0  0  0
 14 10  1  0  0  0  0
 15  2  1  0  0  0  0
 15 16  1  0  0  0  0
 16 17  2  0  0  0  0
 18 25  1  0  0  0  0
 19 18  1  0  0  0  0
 19 16  1  0  0  0  0
 20 19  2  0  0  0  0
 21 20  1  0  0  0  0
 22 23  2  0  0  0  0
 22 20  1  0  0  0  0
 23 24  1  0  0  0  0
 24 27  1  0  0  0  0
 24 18  2  0  0  0  0
 25 26  1  0  0  0  0
 28 27  1  0  0  0  0
M  END
>  <minimizedAffinity>
-4.58663511

>  <minimizedRMSD>
0.607552588

$$$$
