
 OpenBabel03242522523D

 28 29  0  0  0  0  0  0  0  0999 V2000
   34.6340   29.3840   39.8880 O   0  0  0  0  0  0  0  0  0  0  0  0
   36.0550   29.7710   40.3790 P   0  0  2  0  0  0  0  0  0  0  0  0
   35.8150   30.6410   41.7980 O   0  0  0  0  0  0  0  0  0  0  0  0
   36.3300   30.2440   42.5430 H   0  0  0  0  0  0  0  0  0  0  0  0
   36.7430   30.7600   39.1950 O   0  0  0  0  0  0  0  0  0  0  0  0
   38.2180   34.0080   39.8950 C   0  0  0  0  0  0  0  0  0  0  0  0
   37.2700   33.0080   39.5690 C   0  0  0  0  0  0  0  0  0  0  0  0
   37.6980   31.7020   39.5160 C   0  0  0  0  0  0  0  0  0  0  0  0
   38.9950   31.4440   39.7760 N   0  0  0  0  0  0  0  0  0  0  0  0
   39.8930   32.3830   40.0860 C   0  0  0  0  0  0  0  0  0  0  0  0
   39.5090   33.6690   40.1460 N   0  0  0  0  0  0  0  0  0  0  0  0
   37.9770   35.0620   39.9610 H   0  0  0  0  0  0  0  0  0  0  0  0
   36.3100   33.4250   39.4030 H   0  0  0  0  0  0  0  0  0  0  0  0
   40.9130   32.0490   40.2760 H   0  0  0  0  0  0  0  0  0  0  0  0
   36.9410   28.3960   40.6300 O   0  0  0  0  0  0  0  0  0  0  0  0
   37.3750   27.7670   41.7380 C   0  0  0  0  0  0  0  0  0  0  0  0
   36.4390   27.7000   42.6670 O   0  0  0  0  0  0  0  0  0  0  0  0
   38.5410   25.7360   42.5230 C   0  0  0  0  0  0  0  0  0  0  0  0
   38.5300   27.0770   42.4090 C   0  0  0  0  0  0  0  0  0  0  0  0
   39.6150   27.7810   42.9560 C   0  0  0  0  0  0  0  0  0  0  0  0
   39.5170   28.8720   42.8150 H   0  0  0  0  0  0  0  0  0  0  0  0
   40.7030   27.2570   43.6020 C   0  0  0  0  0  3  0  0  0  0  0  0
   40.6510   25.9070   43.6800 C   0  0  0  0  0  3  0  0  0  0  0  0
   39.6360   25.1470   43.1780 C   0  0  0  0  0  0  0  0  0  0  0  0
   37.5880   24.8400   42.0640 O   0  0  0  0  0  0  0  0  0  0  0  0
   37.7990   23.9820   41.5710 H   0  0  0  0  0  0  0  0  0  0  0  0
   39.6790   23.7660   43.3100 O   0  0  0  0  0  0  0  0  0  0  0  0
   38.8210   23.2880   43.5660 H   0  0  0  0  0  0  0  0  0  0  0  0
  2  1  2  6  0  0  0
  2 15  1  0  0  0  0
  2  3  1  0  0  0  0
  3  4  1  0  0  0  0
  5  8  1  0  0  0  0
  5  2  1  0  0  0  0
  6 12  1  0  0  0  0
  6 11  1  0  0  0  0
  7  6  2  0  0  0  0
  8  7  1  0  0  0  0
  8  9  2  0  0  0  0
  9 10  1  0  0  0  0
 10 11  2  0  0  0  0
 10 14  1  0  0  0  0
 13  7  1  0  0  0  0
 15 16  1  0  0  0  0
 16 19  1  0  0  0  0
 16 17  2  0  0  0  0
 18 24  1  0  0  0  0
 19 18  2  0  0  0  0
 19 20  1  0  0  0  0
 20 22  2  0  0  0  0
 21 20  1  0  0  0  0
 22 23  1  0  0  0  0
 24 27  1  0  0  0  0
 24 23  2  0  0  0  0
 25 18  1  0  0  0  0
 26 25  1  0  0  0  0
 27 28  1  0  0  0  0
M  END
>  <minimizedAffinity>
-5.7336297

$$$$

 OpenBabel03242522523D

 28 29  0  0  0  0  0  0  0  0999 V2000
   38.0300   30.0490   41.9860 O   0  0  0  0  0  0  0  0  0  0  0  0
   36.9350   29.9830   40.8880 P   0  0  2  0  0  0  0  0  0  0  0  0
   35.7300   31.0400   41.3960 O   0  0  0  0  0  0  0  0  0  0  0  0
   35.5300   31.7080   40.6940 H   0  0  0  0  0  0  0  0  0  0  0  0
   36.3510   28.3980   40.8570 O   0  0  0  0  0  0  0  0  0  0  0  0
   38.0170   25.4700   42.2230 C   0  0  0  0  0  0  0  0  0  0  0  0
   37.1560   26.5880   42.1000 C   0  0  0  0  0  0  0  0  0  0  0  0
   37.2060   27.3190   40.9360 C   0  0  0  0  0  0  0  0  0  0  0  0
   38.0690   26.9330   39.9760 N   0  0  0  0  0  0  0  0  0  0  0  0
   38.8830   25.8800   40.0870 C   0  0  0  0  0  0  0  0  0  0  0  0
   38.8610   25.1450   41.2100 N   0  0  0  0  0  0  0  0  0  0  0  0
   38.0520   24.8360   43.1000 H   0  0  0  0  0  0  0  0  0  0  0  0
   36.5600   26.7130   42.9670 H   0  0  0  0  0  0  0  0  0  0  0  0
   39.5370   25.6690   39.2400 H   0  0  0  0  0  0  0  0  0  0  0  0
   37.5890   30.4310   39.4350 O   0  0  0  0  0  0  0  0  0  0  0  0
   38.2670   31.5180   39.0250 C   0  0  0  0  0  0  0  0  0  0  0  0
   37.5210   32.3150   38.2810 O   0  0  0  0  0  0  0  0  0  0  0  0
   40.2020   32.5570   37.8930 C   0  0  0  0  0  0  0  0  0  0  0  0
   39.5800   32.2530   39.0470 C   0  0  0  0  0  0  0  0  0  0  0  0
   40.2140   32.6290   40.2420 C   0  0  0  0  0  0  0  0  0  0  0  0
   39.6290   32.3370   41.1340 H   0  0  0  0  0  0  0  0  0  0  0  0
   41.4110   33.2790   40.3770 C   0  0  0  0  0  3  0  0  0  0  0  0
   41.9810   33.5550   39.1810 C   0  0  0  0  0  3  0  0  0  0  0  0
   41.4350   33.2260   37.9760 C   0  0  0  0  0  0  0  0  0  0  0  0
   39.7710   32.2890   36.6030 O   0  0  0  0  0  0  0  0  0  0  0  0
   39.7960   32.9550   35.8410 H   0  0  0  0  0  0  0  0  0  0  0  0
   42.1020   33.5560   36.8040 O   0  0  0  0  0  0  0  0  0  0  0  0
   42.1300   32.8620   36.0640 H   0  0  0  0  0  0  0  0  0  0  0  0
  2  3  1  0  0  0  0
  2  1  2  1  0  0  0
  4  3  1  0  0  0  0
  5  2  1  0  0  0  0
  5  8  1  0  0  0  0
  6 12  1  0  0  0  0
  7  6  1  0  0  0  0
  7 13  1  0  0  0  0
  8  7  2  0  0  0  0
  9 10  2  0  0  0  0
  9  8  1  0  0  0  0
 10 11  1  0  0  0  0
 11  6  2  0  0  0  0
 14 10  1  0  0  0  0
 15  2  1  0  0  0  0
 16 19  1  0  0  0  0
 16 15  1  0  0  0  0
 17 16  2  0  0  0  0
 18 24  2  0  0  0  0
 18 19  1  0  0  0  0
 19 20  2  0  0  0  0
 20 22  1  0  0  0  0
 20 21  1  0  0  0  0
 23 22  2  0  0  0  0
 24 23  1  0  0  0  0
 25 18  1  0  0  0  0
 26 25  1  0  0  0  0
 27 24  1  0  0  0  0
 28 27  1  0  0  0  0
M  END
>  <minimizedAffinity>
-5.61324406

$$$$

 OpenBabel03242522523D

 28 29  0  0  0  0  0  0  0  0999 V2000
   37.9310   28.6400   36.7970 O   0  0  0  0  0  0  0  0  0  0  0  0
   36.9550   29.8300   36.5930 P   0  0  2  0  0  0  0  0  0  0  0  0
   36.6230   29.8560   34.9440 O   0  0  0  0  0  0  0  0  0  0  0  0
   35.6470   29.8230   34.7830 H   0  0  0  0  0  0  0  0  0  0  0  0
   37.7740   31.2350   37.0480 O   0  0  0  0  0  0  0  0  0  0  0  0
   37.6360   32.9430   40.2540 C   0  0  0  0  0  0  0  0  0  0  0  0
   37.4000   32.6200   38.8960 C   0  0  0  0  0  0  0  0  0  0  0  0
   38.0320   31.5150   38.3740 C   0  0  0  0  0  0  0  0  0  0  0  0
   38.8420   30.8020   39.1810 N   0  0  0  0  0  0  0  0  0  0  0  0
   39.0680   31.1030   40.4630 C   0  0  0  0  0  0  0  0  0  0  0  0
   38.4660   32.1740   41.0040 N   0  0  0  0  0  0  0  0  0  0  0  0
   37.1850   33.7920   40.7540 H   0  0  0  0  0  0  0  0  0  0  0  0
   36.7320   33.3070   38.4460 H   0  0  0  0  0  0  0  0  0  0  0  0
   39.7440   30.4470   41.0130 H   0  0  0  0  0  0  0  0  0  0  0  0
   35.5940   29.5840   37.5010 O   0  0  0  0  0  0  0  0  0  0  0  0
   35.3810   29.0490   38.7180 C   0  0  0  0  0  0  0  0  0  0  0  0
   34.0990   29.0440   39.0370 O   0  0  0  0  0  0  0  0  0  0  0  0
   36.1140   29.1340   41.0750 C   0  0  0  0  0  0  0  0  0  0  0  0
   36.0070   28.4280   39.9350 C   0  0  0  0  0  0  0  0  0  0  0  0
   36.5180   27.1190   39.9360 C   0  0  0  0  0  0  0  0  0  0  0  0
   36.3850   26.6200   38.9590 H   0  0  0  0  0  0  0  0  0  0  0  0
   37.1220   26.4650   40.9760 C   0  0  0  0  0  3  0  0  0  0  0  0
   37.1950   27.2310   42.0890 C   0  0  0  0  0  3  0  0  0  0  0  0
   36.7260   28.5090   42.1740 C   0  0  0  0  0  0  0  0  0  0  0  0
   35.6860   30.4320   41.3090 O   0  0  0  0  0  0  0  0  0  0  0  0
   35.1810   30.7280   42.1350 H   0  0  0  0  0  0  0  0  0  0  0  0
   36.8510   29.2100   43.3650 O   0  0  0  0  0  0  0  0  0  0  0  0
   37.1350   30.1830   43.3140 H   0  0  0  0  0  0  0  0  0  0  0  0
  2  1  2  1  0  0  0
  2  5  1  0  0  0  0
  2 15  1  0  0  0  0
  3  2  1  0  0  0  0
  4  3  1  0  0  0  0
  5  8  1  0  0  0  0
  6 12  1  0  0  0  0
  6 11  1  0  0  0  0
  7  6  2  0  0  0  0
  8  7  1  0  0  0  0
  8  9  2  0  0  0  0
  9 10  1  0  0  0  0
 10 11  2  0  0  0  0
 10 14  1  0  0  0  0
 13  7  1  0  0  0  0
 15 16  1  0  0  0  0
 16 17  2  0  0  0  0
 16 19  1  0  0  0  0
 18 25  1  0  0  0  0
 18 24  1  0  0  0  0
 19 20  1  0  0  0  0
 19 18  2  0  0  0  0
 20 22  2  0  0  0  0
 21 20  1  0  0  0  0
 22 23  1  0  0  0  0
 23 24  2  0  0  0  0
 24 27  1  0  0  0  0
 25 26  1  0  0  0  0
 28 27  1  0  0  0  0
M  END
>  <minimizedAffinity>
-5.47118282

$$$$

 OpenBabel03242522523D

 28 29  0  0  0  0  0  0  0  0999 V2000
   36.6990   29.9500   39.4360 O   0  0  0  0  0  0  0  0  0  0  0  0
   37.0210   30.8010   40.6940 P   0  0  2  0  0  0  0  0  0  0  0  0
   35.5660   30.9300   41.5280 O   0  0  0  0  0  0  0  0  0  0  0  0
   35.6690   30.6210   42.4620 H   0  0  0  0  0  0  0  0  0  0  0  0
   37.5260   32.3210   40.1560 O   0  0  0  0  0  0  0  0  0  0  0  0
   40.7000   32.4530   38.3900 C   0  0  0  0  0  0  0  0  0  0  0  0
   39.3380   32.1980   38.6830 C   0  0  0  0  0  0  0  0  0  0  0  0
   38.8570   32.5870   39.9110 C   0  0  0  0  0  0  0  0  0  0  0  0
   39.7050   33.1890   40.7680 N   0  0  0  0  0  0  0  0  0  0  0  0
   40.9900   33.4320   40.4960 C   0  0  0  0  0  0  0  0  0  0  0  0
   41.4930   33.0650   39.3060 N   0  0  0  0  0  0  0  0  0  0  0  0
   41.1710   32.1830   37.4520 H   0  0  0  0  0  0  0  0  0  0  0  0
   38.8520   31.7190   37.8730 H   0  0  0  0  0  0  0  0  0  0  0  0
   41.5750   33.9260   41.2720 H   0  0  0  0  0  0  0  0  0  0  0  0
   38.1880   30.0390   41.5860 O   0  0  0  0  0  0  0  0  0  0  0  0
   38.1880   28.9340   42.3530 C   0  0  0  0  0  0  0  0  0  0  0  0
   37.1640   28.9110   43.1870 O   0  0  0  0  0  0  0  0  0  0  0  0
   38.3080   26.4680   42.4230 C   0  0  0  0  0  0  0  0  0  0  0  0
   38.8930   27.6490   42.6910 C   0  0  0  0  0  0  0  0  0  0  0  0
   40.1550   27.6200   43.3070 C   0  0  0  0  0  0  0  0  0  0  0  0
   40.5540   28.6350   43.4880 H   0  0  0  0  0  0  0  0  0  0  0  0
   40.8740   26.5140   43.6740 C   0  0  0  0  0  3  0  0  0  0  0  0
   40.2300   25.3630   43.3750 C   0  0  0  0  0  3  0  0  0  0  0  0
   39.0050   25.3000   42.7790 C   0  0  0  0  0  0  0  0  0  0  0  0
   37.0770   26.2500   41.8250 O   0  0  0  0  0  0  0  0  0  0  0  0
   36.9070   25.5710   41.0930 H   0  0  0  0  0  0  0  0  0  0  0  0
   38.4290   24.0650   42.5150 O   0  0  0  0  0  0  0  0  0  0  0  0
   37.4390   23.9530   42.7070 H   0  0  0  0  0  0  0  0  0  0  0  0
  2  1  2  6  0  0  0
  2  3  1  0  0  0  0
  2 15  1  0  0  0  0
  3  4  1  0  0  0  0
  5  2  1  0  0  0  0
  6  7  2  0  0  0  0
  6 11  1  0  0  0  0
  7  8  1  0  0  0  0
  8  5  1  0  0  0  0
  8  9  2  0  0  0  0
 10  9  1  0  0  0  0
 10 14  1  0  0  0  0
 11 10  2  0  0  0  0
 12  6  1  0  0  0  0
 13  7  1  0  0  0  0
 15 16  1  0  0  0  0
 16 19  1  0  0  0  0
 16 17  2  0  0  0  0
 18 19  2  0  0  0  0
 18 24  1  0  0  0  0
 19 20  1  0  0  0  0
 20 21  1  0  0  0  0
 20 22  2  0  0  0  0
 23 22  1  0  0  0  0
 24 23  2  0  0  0  0
 25 18  1  0  0  0  0
 26 25  1  0  0  0  0
 27 28  1  0  0  0  0
 27 24  1  0  0  0  0
M  END
>  <minimizedAffinity>
-5.44946146

$$$$

 OpenBabel03242522523D

 28 29  0  0  0  0  0  0  0  0999 V2000
   41.0280   31.3920   39.7460 O   0  0  0  0  0  0  0  0  0  0  0  0
   40.5370   31.9510   41.1090 P   0  0  2  0  0  0  0  0  0  0  0  0
   41.7420   33.0100   41.6160 O   0  0  0  0  0  0  0  0  0  0  0  0
   41.3640   33.9040   41.8070 H   0  0  0  0  0  0  0  0  0  0  0  0
   40.4180   30.6450   42.1730 O   0  0  0  0  0  0  0  0  0  0  0  0
   37.5150   28.5700   42.8700 C   0  0  0  0  0  0  0  0  0  0  0  0
   38.5200   29.5590   43.0040 C   0  0  0  0  0  0  0  0  0  0  0  0
   39.4570   29.6690   42.0040 C   0  0  0  0  0  0  0  0  0  0  0  0
   39.3700   28.8320   40.9520 N   0  0  0  0  0  0  0  0  0  0  0  0
   38.4240   27.8980   40.8200 C   0  0  0  0  0  0  0  0  0  0  0  0
   37.4940   27.7630   41.7790 N   0  0  0  0  0  0  0  0  0  0  0  0
   36.7360   28.4060   43.6040 H   0  0  0  0  0  0  0  0  0  0  0  0
   38.4040   30.1080   43.9030 H   0  0  0  0  0  0  0  0  0  0  0  0
   38.4590   27.2820   39.9220 H   0  0  0  0  0  0  0  0  0  0  0  0
   39.0830   32.7130   40.8960 O   0  0  0  0  0  0  0  0  0  0  0  0
   37.9710   32.4020   40.2060 C   0  0  0  0  0  0  0  0  0  0  0  0
   37.2330   33.4680   39.9520 O   0  0  0  0  0  0  0  0  0  0  0  0
   36.1070   30.7800   40.2200 C   0  0  0  0  0  0  0  0  0  0  0  0
   37.1620   31.3050   39.5700 C   0  0  0  0  0  0  0  0  0  0  0  0
   37.4720   30.7740   38.3080 C   0  0  0  0  0  0  0  0  0  0  0  0
   38.3500   31.2670   37.8530 H   0  0  0  0  0  0  0  0  0  0  0  0
   36.8180   29.7680   37.6470 C   0  0  0  0  0  3  0  0  0  0  0  0
   35.7700   29.2880   38.3560 C   0  0  0  0  0  3  0  0  0  0  0  0
   35.4010   29.7450   39.5860 C   0  0  0  0  0  0  0  0  0  0  0  0
   35.6170   31.1410   41.4660 O   0  0  0  0  0  0  0  0  0  0  0  0
   34.6370   31.2810   41.6780 H   0  0  0  0  0  0  0  0  0  0  0  0
   34.3070   29.1830   40.2310 O   0  0  0  0  0  0  0  0  0  0  0  0
   34.3890   28.9920   41.2240 H   0  0  0  0  0  0  0  0  0  0  0  0
  2  1  2  6  0  0  0
  2  3  1  0  0  0  0
  2  5  1  0  0  0  0
  3  4  1  0  0  0  0
  6  7  1  0  0  0  0
  6 12  1  0  0  0  0
  7 13  1  0  0  0  0
  8  5  1  0  0  0  0
  8  7  2  0  0  0  0
  9  8  1  0  0  0  0
 10  9  2  0  0  0  0
 10 11  1  0  0  0  0
 11  6  2  0  0  0  0
 14 10  1  0  0  0  0
 15  2  1  0  0  0  0
 16 15  1  0  0  0  0
 17 16  2  0  0  0  0
 18 25  1  0  0  0  0
 19 16  1  0  0  0  0
 19 18  2  0  0  0  0
 20 19  1  0  0  0  0
 21 20  1  0  0  0  0
 22 20  2  0  0  0  0
 22 23  1  0  0  0  0
 23 24  2  0  0  0  0
 24 18  1  0  0  0  0
 24 27  1  0  0  0  0
 25 26  1  0  0  0  0
 27 28  1  0  0  0  0
M  END
>  <minimizedAffinity>
-5.44789267

$$$$

 OpenBabel03242522523D

 28 29  0  0  0  0  0  0  0  0999 V2000
   35.3680   28.7790   40.2940 O   0  0  0  0  0  0  0  0  0  0  0  0
   36.4070   29.6920   40.9990 P   0  0  2  0  0  0  0  0  0  0  0  0
   35.5660   31.0910   41.4060 O   0  0  0  0  0  0  0  0  0  0  0  0
   35.6510   31.2820   42.3730 H   0  0  0  0  0  0  0  0  0  0  0  0
   37.6150   30.0420   39.8720 O   0  0  0  0  0  0  0  0  0  0  0  0
   38.1170   27.9850   36.9170 C   0  0  0  0  0  0  0  0  0  0  0  0
   38.1910   28.4580   38.2500 C   0  0  0  0  0  0  0  0  0  0  0  0
   37.5180   29.6160   38.5640 C   0  0  0  0  0  0  0  0  0  0  0  0
   36.8260   30.2370   37.5880 N   0  0  0  0  0  0  0  0  0  0  0  0
   36.7530   29.7950   36.3300 C   0  0  0  0  0  0  0  0  0  0  0  0
   37.3980   28.6680   35.9890 N   0  0  0  0  0  0  0  0  0  0  0  0
   38.6120   27.0850   36.5730 H   0  0  0  0  0  0  0  0  0  0  0  0
   38.7830   27.8210   38.8530 H   0  0  0  0  0  0  0  0  0  0  0  0
   36.1600   30.3860   35.6320 H   0  0  0  0  0  0  0  0  0  0  0  0
   37.0060   28.9130   42.3300 O   0  0  0  0  0  0  0  0  0  0  0  0
   37.0610   27.6190   42.6950 C   0  0  0  0  0  0  0  0  0  0  0  0
   36.2170   27.3450   43.6730 O   0  0  0  0  0  0  0  0  0  0  0  0
   38.9520   26.0440   42.9130 C   0  0  0  0  0  0  0  0  0  0  0  0
   37.7080   26.2820   42.4590 C   0  0  0  0  0  0  0  0  0  0  0  0
   37.0700   25.2490   41.7540 C   0  0  0  0  0  0  0  0  0  0  0  0
   36.0550   25.5360   41.4220 H   0  0  0  0  0  0  0  0  0  0  0  0
   37.5700   24.0070   41.4670 C   0  0  0  0  0  3  0  0  0  0  0  0
   38.8220   23.8360   41.9520 C   0  0  0  0  0  3  0  0  0  0  0  0
   39.5140   24.7840   42.6460 C   0  0  0  0  0  0  0  0  0  0  0  0
   39.7700   26.9050   43.6280 O   0  0  0  0  0  0  0  0  0  0  0  0
   40.3030   26.6400   44.4470 H   0  0  0  0  0  0  0  0  0  0  0  0
   40.7950   24.5070   43.1010 O   0  0  0  0  0  0  0  0  0  0  0  0
   41.4990   25.2310   43.0020 H   0  0  0  0  0  0  0  0  0  0  0  0
  2  1  2  6  0  0  0
  2  3  1  0  0  0  0
  2 15  1  0  0  0  0
  3  4  1  0  0  0  0
  5  2  1  0  0  0  0
  6  7  1  0  0  0  0
  7  8  2  0  0  0  0
  7 13  1  0  0  0  0
  8  5  1  0  0  0  0
  9  8  1  0  0  0  0
 10  9  2  0  0  0  0
 11 10  1  0  0  0  0
 11  6  2  0  0  0  0
 12  6  1  0  0  0  0
 14 10  1  0  0  0  0
 15 16  1  0  0  0  0
 16 17  2  0  0  0  0
 18 25  1  0  0  0  0
 19 16  1  0  0  0  0
 19 18  2  0  0  0  0
 20 19  1  0  0  0  0
 21 20  1  0  0  0  0
 22 20  2  0  0  0  0
 22 23  1  0  0  0  0
 23 24  2  0  0  0  0
 24 18  1  0  0  0  0
 24 27  1  0  0  0  0
 25 26  1  0  0  0  0
 28 27  1  0  0  0  0
M  END
>  <minimizedAffinity>
-5.43093014

$$$$

 OpenBabel03242522523D

 28 29  0  0  0  0  0  0  0  0999 V2000
   36.2360   24.7180   38.6470 O   0  0  0  0  0  0  0  0  0  0  0  0
   36.6370   26.1180   39.1850 P   0  0  2  0  0  0  0  0  0  0  0  0
   38.1020   26.4790   38.4410 O   0  0  0  0  0  0  0  0  0  0  0  0
   38.0510   27.3480   37.9720 H   0  0  0  0  0  0  0  0  0  0  0  0
   36.8480   25.9720   40.8550 O   0  0  0  0  0  0  0  0  0  0  0  0
   37.2560   28.2240   43.6800 C   0  0  0  0  0  0  0  0  0  0  0  0
   36.7920   27.1590   42.8700 C   0  0  0  0  0  0  0  0  0  0  0  0
   37.3260   27.0230   41.6100 C   0  0  0  0  0  0  0  0  0  0  0  0
   38.2600   27.9100   41.2130 N   0  0  0  0  0  0  0  0  0  0  0  0
   38.7010   28.9160   41.9730 C   0  0  0  0  0  0  0  0  0  0  0  0
   38.2010   29.0780   43.2080 N   0  0  0  0  0  0  0  0  0  0  0  0
   36.8950   28.4130   44.6840 H   0  0  0  0  0  0  0  0  0  0  0  0
   36.0600   26.5810   43.3740 H   0  0  0  0  0  0  0  0  0  0  0  0
   39.4610   29.5670   41.5390 H   0  0  0  0  0  0  0  0  0  0  0  0
   35.4550   27.2100   38.8020 O   0  0  0  0  0  0  0  0  0  0  0  0
   35.4020   28.5550   38.8100 C   0  0  0  0  0  0  0  0  0  0  0  0
   34.1680   29.0000   38.9530 O   0  0  0  0  0  0  0  0  0  0  0  0
   36.2300   30.6780   39.7630 C   0  0  0  0  0  0  0  0  0  0  0  0
   36.1860   29.8350   38.7150 C   0  0  0  0  0  0  0  0  0  0  0  0
   36.8750   30.2130   37.5520 C   0  0  0  0  0  0  0  0  0  0  0  0
   36.7820   29.4600   36.7480 H   0  0  0  0  0  0  0  0  0  0  0  0
   37.6000   31.3580   37.3520 C   0  0  0  0  0  3  0  0  0  0  0  0
   37.6030   32.1580   38.4420 C   0  0  0  0  0  3  0  0  0  0  0  0
   36.9610   31.8690   39.6100 C   0  0  0  0  0  0  0  0  0  0  0  0
   35.6330   30.5180   41.0030 O   0  0  0  0  0  0  0  0  0  0  0  0
   36.0920   30.6970   41.8870 H   0  0  0  0  0  0  0  0  0  0  0  0
   37.0270   32.7590   40.6720 O   0  0  0  0  0  0  0  0  0  0  0  0
   36.1760   32.9370   41.1950 H   0  0  0  0  0  0  0  0  0  0  0  0
  2  1  2  6  0  0  0
  2  5  1  0  0  0  0
  3  2  1  0  0  0  0
  4  3  1  0  0  0  0
  5  8  1  0  0  0  0
  6 12  1  0  0  0  0
  7 13  1  0  0  0  0
  7  6  2  0  0  0  0
  8  7  1  0  0  0  0
  9  8  2  0  0  0  0
  9 10  1  0  0  0  0
 10 11  2  0  0  0  0
 11  6  1  0  0  0  0
 14 10  1  0  0  0  0
 15 16  1  0  0  0  0
 15  2  1  0  0  0  0
 16 17  2  0  0  0  0
 18 25  1  0  0  0  0
 19 16  1  0  0  0  0
 19 18  2  0  0  0  0
 20 19  1  0  0  0  0
 21 20  1  0  0  0  0
 22 20  2  0  0  0  0
 22 23  1  0  0  0  0
 23 24  2  0  0  0  0
 24 18  1  0  0  0  0
 24 27  1  0  0  0  0
 25 26  1  0  0  0  0
 27 28  1  0  0  0  0
M  END
>  <minimizedAffinity>
-5.41013384

$$$$

 OpenBabel03242522523D

 28 29  0  0  0  0  0  0  0  0999 V2000
   40.8190   30.3470   37.6490 O   0  0  0  0  0  0  0  0  0  0  0  0
   40.9700   31.8900   37.5620 P   0  0  2  0  0  0  0  0  0  0  0  0
   39.7390   32.4010   36.5360 O   0  0  0  0  0  0  0  0  0  0  0  0
   39.1830   33.0930   36.9730 H   0  0  0  0  0  0  0  0  0  0  0  0
   42.4780   32.2090   36.8730 O   0  0  0  0  0  0  0  0  0  0  0  0
   45.3920   31.8800   39.0220 C   0  0  0  0  0  0  0  0  0  0  0  0
   44.2760   31.5480   38.2160 C   0  0  0  0  0  0  0  0  0  0  0  0
   43.5570   32.5750   37.6510 C   0  0  0  0  0  0  0  0  0  0  0  0
   43.9520   33.8410   37.8930 N   0  0  0  0  0  0  0  0  0  0  0  0
   45.0050   34.1590   38.6520 C   0  0  0  0  0  0  0  0  0  0  0  0
   45.7280   33.1800   39.2200 N   0  0  0  0  0  0  0  0  0  0  0  0
   46.0180   31.1430   39.5110 H   0  0  0  0  0  0  0  0  0  0  0  0
   44.1420   30.4990   38.1560 H   0  0  0  0  0  0  0  0  0  0  0  0
   45.2250   35.2200   38.7720 H   0  0  0  0  0  0  0  0  0  0  0  0
   40.8300   32.5390   39.0780 O   0  0  0  0  0  0  0  0  0  0  0  0
   39.9290   32.3910   40.0660 C   0  0  0  0  0  0  0  0  0  0  0  0
   39.7260   33.5190   40.7220 O   0  0  0  0  0  0  0  0  0  0  0  0
   37.6750   31.5850   40.6790 C   0  0  0  0  0  0  0  0  0  0  0  0
   39.0090   31.4430   40.7840 C   0  0  0  0  0  0  0  0  0  0  0  0
   39.4850   30.4010   41.5980 C   0  0  0  0  0  0  0  0  0  0  0  0
   40.5890   30.3640   41.6230 H   0  0  0  0  0  0  0  0  0  0  0  0
   38.7410   29.4980   42.3080 C   0  0  0  0  0  3  0  0  0  0  0  0
   37.4120   29.6970   42.1560 C   0  0  0  0  0  3  0  0  0  0  0  0
   36.8650   30.6820   41.3880 C   0  0  0  0  0  0  0  0  0  0  0  0
   36.9820   32.5310   39.9400 O   0  0  0  0  0  0  0  0  0  0  0  0
   36.1840   32.3270   39.3510 H   0  0  0  0  0  0  0  0  0  0  0  0
   35.4860   30.8020   41.2990 O   0  0  0  0  0  0  0  0  0  0  0  0
   35.0870   31.7340   41.3390 H   0  0  0  0  0  0  0  0  0  0  0  0
  2  1  2  1  0  0  0
  2 15  1  0  0  0  0
  3  4  1  0  0  0  0
  3  2  1  0  0  0  0
  5  2  1  0  0  0  0
  5  8  1  0  0  0  0
  6 11  1  0  0  0  0
  6 12  1  0  0  0  0
  7  6  2  0  0  0  0
  8  9  2  0  0  0  0
  8  7  1  0  0  0  0
  9 10  1  0  0  0  0
 10 14  1  0  0  0  0
 10 11  2  0  0  0  0
 13  7  1  0  0  0  0
 15 16  1  0  0  0  0
 16 17  2  0  0  0  0
 16 19  1  0  0  0  0
 18 19  2  0  0  0  0
 18 24  1  0  0  0  0
 19 20  1  0  0  0  0
 20 21  1  0  0  0  0
 20 22  2  0  0  0  0
 23 22  1  0  0  0  0
 24 23  2  0  0  0  0
 25 18  1  0  0  0  0
 26 25  1  0  0  0  0
 27 28  1  0  0  0  0
 27 24  1  0  0  0  0
M  END
>  <minimizedAffinity>
-5.38648605

$$$$

 OpenBabel03242522523D

 28 29  0  0  0  0  0  0  0  0999 V2000
   36.4390   30.2350   39.2430 O   0  0  0  0  0  0  0  0  0  0  0  0
   36.9180   30.9300   40.5460 P   0  0  2  0  0  0  0  0  0  0  0  0
   35.5640   30.9950   41.5410 O   0  0  0  0  0  0  0  0  0  0  0  0
   35.7530   30.5800   42.4190 H   0  0  0  0  0  0  0  0  0  0  0  0
   37.4160   32.4890   40.1290 O   0  0  0  0  0  0  0  0  0  0  0  0
   40.5890   32.5280   38.3560 C   0  0  0  0  0  0  0  0  0  0  0  0
   39.2350   32.2640   38.6760 C   0  0  0  0  0  0  0  0  0  0  0  0
   38.7380   32.7690   39.8550 C   0  0  0  0  0  0  0  0  0  0  0  0
   39.5650   33.4870   40.6410 N   0  0  0  0  0  0  0  0  0  0  0  0
   40.8420   33.7400   40.3430 C   0  0  0  0  0  0  0  0  0  0  0  0
   41.3600   33.2610   39.2000 N   0  0  0  0  0  0  0  0  0  0  0  0
   41.0700   32.1730   37.4530 H   0  0  0  0  0  0  0  0  0  0  0  0
   38.7660   31.6850   37.9240 H   0  0  0  0  0  0  0  0  0  0  0  0
   41.4090   34.3340   41.0600 H   0  0  0  0  0  0  0  0  0  0  0  0
   38.1460   30.0460   41.2180 O   0  0  0  0  0  0  0  0  0  0  0  0
   38.1730   28.9750   42.0310 C   0  0  0  0  0  0  0  0  0  0  0  0
   38.2380   29.3220   43.3040 O   0  0  0  0  0  0  0  0  0  0  0  0
   39.1780   26.8280   42.7270 C   0  0  0  0  0  0  0  0  0  0  0  0
   38.1670   27.4730   42.1190 C   0  0  0  0  0  0  0  0  0  0  0  0
   37.1410   26.6900   41.5650 C   0  0  0  0  0  0  0  0  0  0  0  0
   36.3580   27.3060   41.0870 H   0  0  0  0  0  0  0  0  0  0  0  0
   37.0450   25.3240   41.5700 C   0  0  0  0  0  3  0  0  0  0  0  0
   38.0920   24.7400   42.1980 C   0  0  0  0  0  3  0  0  0  0  0  0
   39.1290   25.4240   42.7610 C   0  0  0  0  0  0  0  0  0  0  0  0
   40.2890   27.3850   43.3410 O   0  0  0  0  0  0  0  0  0  0  0  0
   40.6490   27.1000   44.2430 H   0  0  0  0  0  0  0  0  0  0  0  0
   40.1560   24.7290   43.3830 O   0  0  0  0  0  0  0  0  0  0  0  0
   41.1080   25.0400   43.2170 H   0  0  0  0  0  0  0  0  0  0  0  0
  2  1  2  6  0  0  0
  2 15  1  0  0  0  0
  2  3  1  0  0  0  0
  3  4  1  0  0  0  0
  5  2  1  0  0  0  0
  6  7  2  0  0  0  0
  6 11  1  0  0  0  0
  7  8  1  0  0  0  0
  8  5  1  0  0  0  0
  8  9  2  0  0  0  0
 10  9  1  0  0  0  0
 10 14  1  0  0  0  0
 11 10  2  0  0  0  0
 12  6  1  0  0  0  0
 13  7  1  0  0  0  0
 15 16  1  0  0  0  0
 16 19  1  0  0  0  0
 16 17  2  0  0  0  0
 18 24  1  0  0  0  0
 18 25  1  0  0  0  0
 19 18  2  0  0  0  0
 20 22  2  0  0  0  0
 20 19  1  0  0  0  0
 21 20  1  0  0  0  0
 22 23  1  0  0  0  0
 23 24  2  0  0  0  0
 24 27  1  0  0  0  0
 25 26  1  0  0  0  0
 28 27  1  0  0  0  0
M  END
>  <minimizedAffinity>
-5.37555838

$$$$
