
 OpenBabel03252500283D

 45 47  0  0  1  0  0  0  0  0999 V2000
   36.9320   27.1220   42.5710 O   0  0  0  0  0  0  0  0  0  0  0  0
   37.8690   27.9340   43.3980 P   0  0  1  0  0  0  0  0  0  0  0  0
   36.9780   28.9120   44.4460 O   0  0  0  0  0  0  0  0  0  0  0  0
   37.3350   29.8180   44.5600 H   0  0  0  0  0  0  0  0  0  0  0  0
   38.7910   26.8760   44.2670 O   0  0  0  0  0  0  0  0  0  0  0  0
   39.9350   25.0560   43.2250 C   0  0  2  0  0  0  0  0  0  0  0  0
   39.8940   26.5050   43.5440 C   0  0  2  0  0  0  0  0  0  0  0  0
   41.1470   26.8080   44.2010 C   0  0  0  0  0  0  0  0  0  0  0  0
   42.0910   25.8340   43.8510 O   0  0  0  0  0  0  0  0  0  0  0  0
   41.4870   25.0450   42.9330 C   0  0  0  0  0  0  0  0  0  0  0  0
   40.0060   24.3400   44.0610 H   0  0  0  0  0  0  0  0  0  0  0  0
   39.6950   26.9660   42.5320 H   0  0  0  0  0  0  0  0  0  0  0  0
   41.2600   27.3110   45.1370 H   0  0  0  0  0  0  0  0  0  0  0  0
   41.5760   27.6460   43.5430 H   0  0  0  0  0  0  0  0  0  0  0  0
   41.8430   24.0250   42.8100 H   0  0  0  0  0  0  0  0  0  0  0  0
   41.5310   25.5270   41.9220 H   0  0  0  0  0  0  0  0  0  0  0  0
   39.3100   24.6550   42.1060 O   0  0  0  0  0  0  0  0  0  0  0  0
   38.1920   23.9850   42.0590 C   0  0  0  0  0  0  0  0  0  0  0  0
   37.5450   23.9230   42.8950 H   0  0  0  0  0  0  0  0  0  0  0  0
   38.5580   22.8290   42.0390 H   0  0  0  0  0  0  0  0  0  0  0  0
   37.5900   24.1520   40.6680 C   0  0  0  0  0  0  0  0  0  0  0  0
   36.6810   23.5200   40.5620 H   0  0  0  0  0  0  0  0  0  0  0  0
   37.3990   25.2220   40.5020 H   0  0  0  0  0  0  0  0  0  0  0  0
   38.3580   23.7340   39.9560 H   0  0  0  0  0  0  0  0  0  0  0  0
   38.7850   28.8610   42.3010 O   0  0  0  0  0  0  0  0  0  0  0  0
   38.4630   31.1620   39.5650 C   0  0  0  0  0  0  0  0  0  0  0  0
   37.1380   31.6680   39.7060 C   0  0  0  0  0  0  0  0  0  0  0  0
   36.3910   31.1690   40.7830 C   0  0  0  0  0  0  0  0  0  0  0  0
   36.9510   30.2590   41.6080 N   0  0  0  0  0  0  0  0  0  0  0  0
   38.2020   29.8060   41.4450 C   0  0  0  0  0  0  0  0  0  0  0  0
   38.9450   30.2560   40.4310 N   0  0  0  0  0  0  0  0  0  0  0  0
   36.6610   32.3730   39.0780 H   0  0  0  0  0  0  0  0  0  0  0  0
   35.3750   31.5330   40.9230 H   0  0  0  0  0  0  0  0  0  0  0  0
   39.2310   31.6100   38.5360 O   0  0  0  0  0  0  0  0  0  0  0  0
   40.9600   32.8840   37.6660 C   0  0  0  0  0  0  0  0  0  0  0  0
   40.0650   32.6950   38.7010 C   0  0  0  0  0  0  0  0  0  0  0  0
   40.0770   33.5700   39.7660 C   0  0  0  0  0  0  0  0  0  0  0  0
   39.3380   33.3520   40.5440 H   0  0  0  0  0  0  0  0  0  0  0  0
   40.9500   34.6340   39.8460 C   0  0  0  0  0  3  0  0  0  0  0  0
   41.8410   34.8200   38.8120 C   0  0  0  0  0  3  0  0  0  0  0  0
   41.8520   33.9580   37.7310 C   0  0  0  0  0  0  0  0  0  0  0  0
   41.1400   32.1500   36.4990 O   0  0  0  0  0  0  0  0  0  0  0  0
   41.0790   32.5980   35.5720 H   0  0  0  0  0  0  0  0  0  0  0  0
   42.8120   34.2640   36.7490 O   0  0  0  0  0  0  0  0  0  0  0  0
   43.7530   34.4040   37.0940 H   0  0  0  0  0  0  0  0  0  0  0  0
  2  1  2  6  0  0  0
  2  5  1  0  0  0  0
  2  3  1  0  0  0  0
  3  4  1  0  0  0  0
  6  7  1  0  0  0  0
  6 11  1  1  0  0  0
  7 12  1  6  0  0  0
  7  8  1  0  0  0  0
  7  5  1  0  0  0  0
  8 13  1  0  0  0  0
  9  8  1  0  0  0  0
 10  6  1  0  0  0  0
 10  9  1  0  0  0  0
 14  8  1  0  0  0  0
 15 10  1  0  0  0  0
 16 10  1  0  0  0  0
 17  6  1  0  0  0  0
 18 17  1  0  0  0  0
 18 19  1  0  0  0  0
 20 18  1  0  0  0  0
 21 18  1  0  0  0  0
 22 21  1  0  0  0  0
 23 21  1  0  0  0  0
 24 21  1  0  0  0  0
 25  2  1  0  0  0  0
 26 27  2  0  0  0  0
 26 31  1  0  0  0  0
 27 28  1  0  0  0  0
 28 33  1  0  0  0  0
 28 29  2  0  0  0  0
 30 29  1  0  0  0  0
 30 25  1  0  0  0  0
 31 30  2  0  0  0  0
 32 27  1  0  0  0  0
 34 36  1  0  0  0  0
 34 26  1  0  0  0  0
 35 41  2  0  0  0  0
 35 36  1  0  0  0  0
 36 37  2  0  0  0  0
 37 39  1  0  0  0  0
 37 38  1  0  0  0  0
 40 39  2  0  0  0  0
 41 40  1  0  0  0  0
 42 35  1  0  0  0  0
 43 42  1  0  0  0  0
 44 45  1  0  0  0  0
 44 41  1  0  0  0  0
M  END
>  <minimizedAffinity>
-6.61440802

$$$$

 OpenBabel03252500283D

 45 47  0  0  1  0  0  0  0  0999 V2000
   35.3750   28.6860   39.9280 O   0  0  0  0  0  0  0  0  0  0  0  0
   36.3140   29.4640   40.7840 P   0  0  1  0  0  0  0  0  0  0  0  0
   35.5610   30.8920   41.2770 O   0  0  0  0  0  0  0  0  0  0  0  0
   36.1450   31.6800   41.2810 H   0  0  0  0  0  0  0  0  0  0  0  0
   36.6620   28.5300   42.0990 O   0  0  0  0  0  0  0  0  0  0  0  0
   38.1540   26.6770   42.3200 C   0  0  2  0  0  0  0  0  0  0  0  0
   37.9710   28.1270   42.0610 C   0  0  2  0  0  0  0  0  0  0  0  0
   38.8170   28.8150   43.0120 C   0  0  0  0  0  0  0  0  0  0  0  0
   39.8260   27.9420   43.4390 O   0  0  0  0  0  0  0  0  0  0  0  0
   39.6810   26.8180   42.6990 C   0  0  0  0  0  0  0  0  0  0  0  0
   37.8620   26.2830   43.3080 H   0  0  0  0  0  0  0  0  0  0  0  0
   38.2240   28.2070   40.9640 H   0  0  0  0  0  0  0  0  0  0  0  0
   38.5130   29.6000   43.6710 H   0  0  0  0  0  0  0  0  0  0  0  0
   39.4830   29.4590   42.3320 H   0  0  0  0  0  0  0  0  0  0  0  0
   40.0610   25.8810   43.0980 H   0  0  0  0  0  0  0  0  0  0  0  0
   40.1530   26.9560   41.6920 H   0  0  0  0  0  0  0  0  0  0  0  0
   38.0740   25.8490   41.2640 O   0  0  0  0  0  0  0  0  0  0  0  0
   36.9790   25.5260   40.6350 C   0  0  0  0  0  0  0  0  0  0  0  0
   36.7550   25.9090   39.6740 H   0  0  0  0  0  0  0  0  0  0  0  0
   36.1150   26.1070   41.2570 H   0  0  0  0  0  0  0  0  0  0  0  0
   36.6630   24.0660   40.9410 C   0  0  0  0  0  0  0  0  0  0  0  0
   35.6850   23.7800   40.4940 H   0  0  0  0  0  0  0  0  0  0  0  0
   37.5010   23.4500   40.5850 H   0  0  0  0  0  0  0  0  0  0  0  0
   36.5330   24.0150   42.0600 H   0  0  0  0  0  0  0  0  0  0  0  0
   37.6820   29.7780   39.8170 O   0  0  0  0  0  0  0  0  0  0  0  0
   39.8850   32.4110   38.7700 C   0  0  0  0  0  0  0  0  0  0  0  0
   39.6720   33.4340   39.7410 C   0  0  0  0  0  0  0  0  0  0  0  0
   38.7380   33.1510   40.7500 C   0  0  0  0  0  0  0  0  0  0  0  0
   38.1080   31.9580   40.7490 N   0  0  0  0  0  0  0  0  0  0  0  0
   38.3350   31.0180   39.8190 C   0  0  0  0  0  0  0  0  0  0  0  0
   39.2160   31.2500   38.8420 N   0  0  0  0  0  0  0  0  0  0  0  0
   40.1370   34.3830   39.7720 H   0  0  0  0  0  0  0  0  0  0  0  0
   38.5490   33.9070   41.5090 H   0  0  0  0  0  0  0  0  0  0  0  0
   40.7770   32.6330   37.7690 O   0  0  0  0  0  0  0  0  0  0  0  0
   42.9580   33.2890   37.3450 C   0  0  0  0  0  0  0  0  0  0  0  0
   42.1190   32.3760   37.9510 C   0  0  0  0  0  0  0  0  0  0  0  0
   42.6670   31.3290   38.6610 C   0  0  0  0  0  0  0  0  0  0  0  0
   41.9360   30.6500   39.1110 H   0  0  0  0  0  0  0  0  0  0  0  0
   44.0290   31.1510   38.7920 C   0  0  0  0  0  3  0  0  0  0  0  0
   44.8630   32.0640   38.1860 C   0  0  0  0  0  3  0  0  0  0  0  0
   44.3410   33.1240   37.4690 C   0  0  0  0  0  0  0  0  0  0  0  0
   42.6520   34.4140   36.5870 O   0  0  0  0  0  0  0  0  0  0  0  0
   43.0060   35.3470   36.8500 H   0  0  0  0  0  0  0  0  0  0  0  0
   45.3050   33.9780   36.9030 O   0  0  0  0  0  0  0  0  0  0  0  0
   46.0300   33.5170   36.3670 H   0  0  0  0  0  0  0  0  0  0  0  0
  2  1  2  6  0  0  0
  2  3  1  0  0  0  0
  2  5  1  0  0  0  0
  3  4  1  0  0  0  0
  6 10  1  0  0  0  0
  6 11  1  1  0  0  0
  7 12  1  6  0  0  0
  7  5  1  0  0  0  0
  7  6  1  0  0  0  0
  7  8  1  0  0  0  0
  8  9  1  0  0  0  0
  8 13  1  0  0  0  0
 10 15  1  0  0  0  0
 10  9  1  0  0  0  0
 14  8  1  0  0  0  0
 16 10  1  0  0  0  0
 17  6  1  0  0  0  0
 18 21  1  0  0  0  0
 18 20  1  0  0  0  0
 18 17  1  0  0  0  0
 19 18  1  0  0  0  0
 21 24  1  0  0  0  0
 22 21  1  0  0  0  0
 23 21  1  0  0  0  0
 25 30  1  0  0  0  0
 25  2  1  0  0  0  0
 26 31  2  0  0  0  0
 26 27  1  0  0  0  0
 27 32  1  0  0  0  0
 27 28  2  0  0  0  0
 28 33  1  0  0  0  0
 29 28  1  0  0  0  0
 30 29  2  0  0  0  0
 31 30  1  0  0  0  0
 34 36  1  0  0  0  0
 34 26  1  0  0  0  0
 35 41  2  0  0  0  0
 35 36  1  0  0  0  0
 36 37  2  0  0  0  0
 37 39  1  0  0  0  0
 37 38  1  0  0  0  0
 40 39  2  0  0  0  0
 41 40  1  0  0  0  0
 42 43  1  0  0  0  0
 42 35  1  0  0  0  0
 44 41  1  0  0  0  0
 45 44  1  0  0  0  0
M  END
>  <minimizedAffinity>
-6.2434516

$$$$

 OpenBabel03252500283D

 45 47  0  0  1  0  0  0  0  0999 V2000
   36.3510   27.5090   43.1460 O   0  0  0  0  0  0  0  0  0  0  0  0
   37.2980   28.4590   42.4970 P   0  0  1  0  0  0  0  0  0  0  0  0
   36.5800   29.9840   42.4090 O   0  0  0  0  0  0  0  0  0  0  0  0
   36.7520   30.4680   41.5740 H   0  0  0  0  0  0  0  0  0  0  0  0
   38.6450   28.5280   43.4480 O   0  0  0  0  0  0  0  0  0  0  0  0
   40.1510   26.6870   43.6750 C   0  0  2  0  0  0  0  0  0  0  0  0
   39.6730   27.8340   42.8640 C   0  0  2  0  0  0  0  0  0  0  0  0
   40.8380   28.6470   42.5900 C   0  0  0  0  0  0  0  0  0  0  0  0
   41.9850   27.8530   42.7150 O   0  0  0  0  0  0  0  0  0  0  0  0
   41.5430   26.5930   42.9340 C   0  0  0  0  0  0  0  0  0  0  0  0
   40.5980   26.8950   44.6610 H   0  0  0  0  0  0  0  0  0  0  0  0
   39.1640   27.3190   41.9970 H   0  0  0  0  0  0  0  0  0  0  0  0
   40.9270   29.6970   42.7640 H   0  0  0  0  0  0  0  0  0  0  0  0
   40.8420   28.6980   41.4430 H   0  0  0  0  0  0  0  0  0  0  0  0
   42.1990   25.8940   43.4460 H   0  0  0  0  0  0  0  0  0  0  0  0
   41.2520   26.1130   41.9640 H   0  0  0  0  0  0  0  0  0  0  0  0
   39.5230   25.5110   43.5050 O   0  0  0  0  0  0  0  0  0  0  0  0
   39.4060   24.8690   42.3760 C   0  0  0  0  0  0  0  0  0  0  0  0
   40.1680   24.2270   42.0190 H   0  0  0  0  0  0  0  0  0  0  0  0
   39.5150   25.7440   41.5430 H   0  0  0  0  0  0  0  0  0  0  0  0
   37.9490   24.4530   42.2100 C   0  0  0  0  0  0  0  0  0  0  0  0
   37.7920   23.9820   41.2150 H   0  0  0  0  0  0  0  0  0  0  0  0
   37.6810   23.7950   43.0500 H   0  0  0  0  0  0  0  0  0  0  0  0
   37.3590   25.4140   42.2080 H   0  0  0  0  0  0  0  0  0  0  0  0
   37.6150   27.8240   40.9480 O   0  0  0  0  0  0  0  0  0  0  0  0
   36.9760   30.2200   38.3520 C   0  0  0  0  0  0  0  0  0  0  0  0
   36.0450   29.5540   37.5030 C   0  0  0  0  0  0  0  0  0  0  0  0
   35.6700   28.2570   37.8840 C   0  0  0  0  0  0  0  0  0  0  0  0
   36.1950   27.7220   39.0050 N   0  0  0  0  0  0  0  0  0  0  0  0
   37.0690   28.3790   39.7820 C   0  0  0  0  0  0  0  0  0  0  0  0
   37.4520   29.6150   39.4530 N   0  0  0  0  0  0  0  0  0  0  0  0
   35.6180   29.9350   36.6130 H   0  0  0  0  0  0  0  0  0  0  0  0
   34.9600   27.7180   37.2590 H   0  0  0  0  0  0  0  0  0  0  0  0
   37.3770   31.4780   38.0290 O   0  0  0  0  0  0  0  0  0  0  0  0
   38.0500   32.9380   39.6980 C   0  0  0  0  0  0  0  0  0  0  0  0
   38.4300   32.0740   38.6900 C   0  0  0  0  0  0  0  0  0  0  0  0
   39.7720   31.8840   38.4400 C   0  0  0  0  0  0  0  0  0  0  0  0
   39.9900   31.1850   37.6260 H   0  0  0  0  0  0  0  0  0  0  0  0
   40.7610   32.5250   39.1570 C   0  0  0  0  0  3  0  0  0  0  0  0
   40.3790   33.3860   40.1620 C   0  0  0  0  0  3  0  0  0  0  0  0
   39.0400   33.5950   40.4350 C   0  0  0  0  0  0  0  0  0  0  0  0
   36.7780   33.2900   40.1370 O   0  0  0  0  0  0  0  0  0  0  0  0
   36.5000   33.1630   41.1230 H   0  0  0  0  0  0  0  0  0  0  0  0
   38.7910   34.4980   41.4850 O   0  0  0  0  0  0  0  0  0  0  0  0
   39.2770   35.3840   41.4170 H   0  0  0  0  0  0  0  0  0  0  0  0
  2  1  2  1  0  0  0
  2  5  1  0  0  0  0
  3  2  1  0  0  0  0
  4  3  1  0  0  0  0
  6 11  1  1  0  0  0
  7 12  1  6  0  0  0
  7  5  1  0  0  0  0
  7  6  1  0  0  0  0
  8  9  1  0  0  0  0
  8 13  1  0  0  0  0
  8  7  1  0  0  0  0
  9 10  1  0  0  0  0
 10 15  1  0  0  0  0
 10  6  1  0  0  0  0
 14  8  1  0  0  0  0
 16 10  1  0  0  0  0
 17  6  1  0  0  0  0
 18 17  1  0  0  0  0
 19 18  1  0  0  0  0
 20 18  1  0  0  0  0
 21 18  1  0  0  0  0
 21 23  1  0  0  0  0
 22 21  1  0  0  0  0
 24 21  1  0  0  0  0
 25  2  1  0  0  0  0
 26 31  1  0  0  0  0
 27 28  1  0  0  0  0
 27 26  2  0  0  0  0
 28 29  2  0  0  0  0
 29 30  1  0  0  0  0
 30 25  1  0  0  0  0
 31 30  2  0  0  0  0
 32 27  1  0  0  0  0
 33 28  1  0  0  0  0
 34 26  1  0  0  0  0
 34 36  1  0  0  0  0
 35 42  1  0  0  0  0
 35 41  1  0  0  0  0
 36 35  2  0  0  0  0
 37 36  1  0  0  0  0
 37 39  2  0  0  0  0
 38 37  1  0  0  0  0
 39 40  1  0  0  0  0
 40 41  2  0  0  0  0
 41 44  1  0  0  0  0
 42 43  1  0  0  0  0
 45 44  1  0  0  0  0
M  END
>  <minimizedAffinity>
-6.10082436

$$$$

 OpenBabel03252500283D

 45 47  0  0  1  0  0  0  0  0999 V2000
   37.4480   29.4730   39.7860 O   0  0  0  0  0  0  0  0  0  0  0  0
   36.7790   30.4150   40.7260 P   0  0  1  0  0  0  0  0  0  0  0  0
   35.1770   29.9300   40.9510 O   0  0  0  0  0  0  0  0  0  0  0  0
   34.5310   30.6660   40.9920 H   0  0  0  0  0  0  0  0  0  0  0  0
   37.5950   30.3350   42.1590 O   0  0  0  0  0  0  0  0  0  0  0  0
   38.9460   28.5570   43.0090 C   0  0  2  0  0  0  0  0  0  0  0  0
   38.7590   29.6300   42.0010 C   0  0  2  0  0  0  0  0  0  0  0  0
   39.9480   30.4540   42.0660 C   0  0  0  0  0  0  0  0  0  0  0  0
   40.9910   29.7040   42.6230 O   0  0  0  0  0  0  0  0  0  0  0  0
   40.5050   28.4510   42.7780 C   0  0  0  0  0  0  0  0  0  0  0  0
   39.0410   28.8470   44.0690 H   0  0  0  0  0  0  0  0  0  0  0  0
   38.5680   29.0410   41.0570 H   0  0  0  0  0  0  0  0  0  0  0  0
   39.9700   31.5160   42.1790 H   0  0  0  0  0  0  0  0  0  0  0  0
   40.3300   30.4240   40.9840 H   0  0  0  0  0  0  0  0  0  0  0  0
   40.9560   27.8080   43.5300 H   0  0  0  0  0  0  0  0  0  0  0  0
   40.5530   27.8950   41.8060 H   0  0  0  0  0  0  0  0  0  0  0  0
   38.4130   27.3550   42.7320 O   0  0  0  0  0  0  0  0  0  0  0  0
   37.1540   27.1210   42.4850 C   0  0  0  0  0  0  0  0  0  0  0  0
   36.8490   26.3380   41.8420 H   0  0  0  0  0  0  0  0  0  0  0  0
   36.8280   28.0560   41.7840 H   0  0  0  0  0  0  0  0  0  0  0  0
   36.3590   27.3870   43.7580 C   0  0  0  0  0  0  0  0  0  0  0  0
   35.2690   27.2860   43.5610 H   0  0  0  0  0  0  0  0  0  0  0  0
   36.7240   26.7060   44.5410 H   0  0  0  0  0  0  0  0  0  0  0  0
   36.5420   28.4710   44.0070 H   0  0  0  0  0  0  0  0  0  0  0  0
   36.8720   31.9530   39.9990 O   0  0  0  0  0  0  0  0  0  0  0  0
   40.0550   32.9490   38.6730 C   0  0  0  0  0  0  0  0  0  0  0  0
   40.4790   33.9840   39.5570 C   0  0  0  0  0  0  0  0  0  0  0  0
   39.6070   34.3000   40.6100 C   0  0  0  0  0  0  0  0  0  0  0  0
   38.4440   33.6250   40.7290 N   0  0  0  0  0  0  0  0  0  0  0  0
   38.0790   32.6550   39.8780 C   0  0  0  0  0  0  0  0  0  0  0  0
   38.8810   32.3260   38.8620 N   0  0  0  0  0  0  0  0  0  0  0  0
   41.3750   34.5410   39.4940 H   0  0  0  0  0  0  0  0  0  0  0  0
   39.8970   35.0850   41.3060 H   0  0  0  0  0  0  0  0  0  0  0  0
   40.8600   32.6030   37.6340 O   0  0  0  0  0  0  0  0  0  0  0  0
   43.0490   33.2660   37.2630 C   0  0  0  0  0  0  0  0  0  0  0  0
   42.1980   32.3420   37.8360 C   0  0  0  0  0  0  0  0  0  0  0  0
   42.7340   31.2810   38.5350 C   0  0  0  0  0  0  0  0  0  0  0  0
   41.9940   30.5940   38.9580 H   0  0  0  0  0  0  0  0  0  0  0  0
   44.0920   31.1000   38.6880 C   0  0  0  0  0  3  0  0  0  0  0  0
   44.9380   32.0240   38.1150 C   0  0  0  0  0  3  0  0  0  0  0  0
   44.4290   33.0980   37.4090 C   0  0  0  0  0  0  0  0  0  0  0  0
   42.7570   34.4060   36.5220 O   0  0  0  0  0  0  0  0  0  0  0  0
   43.1060   35.3340   36.8100 H   0  0  0  0  0  0  0  0  0  0  0  0
   45.4030   33.9630   36.8780 O   0  0  0  0  0  0  0  0  0  0  0  0
   46.1380   33.5120   36.3470 H   0  0  0  0  0  0  0  0  0  0  0  0
  2  1  2  6  0  0  0
  2  3  1  0  0  0  0
  2  5  1  0  0  0  0
  3  4  1  0  0  0  0
  6 11  1  1  0  0  0
  7 12  1  6  0  0  0
  7  8  1  0  0  0  0
  7  5  1  0  0  0  0
  7  6  1  0  0  0  0
  8 13  1  0  0  0  0
  8  9  1  0  0  0  0
  9 10  1  0  0  0  0
 10  6  1  0  0  0  0
 10 15  1  0  0  0  0
 14  8  1  0  0  0  0
 16 10  1  0  0  0  0
 17  6  1  0  0  0  0
 18 17  1  0  0  0  0
 18 21  1  0  0  0  0
 19 18  1  0  0  0  0
 20 18  1  0  0  0  0
 21 24  1  0  0  0  0
 21 23  1  0  0  0  0
 22 21  1  0  0  0  0
 25  2  1  0  0  0  0
 26 31  2  0  0  0  0
 26 27  1  0  0  0  0
 27 28  2  0  0  0  0
 28 29  1  0  0  0  0
 28 33  1  0  0  0  0
 30 25  1  0  0  0  0
 30 29  2  0  0  0  0
 31 30  1  0  0  0  0
 32 27  1  0  0  0  0
 34 36  1  0  0  0  0
 34 26  1  0  0  0  0
 35 41  2  0  0  0  0
 35 36  1  0  0  0  0
 36 37  2  0  0  0  0
 37 39  1  0  0  0  0
 37 38  1  0  0  0  0
 40 39  2  0  0  0  0
 41 40  1  0  0  0  0
 42 43  1  0  0  0  0
 42 35  1  0  0  0  0
 44 41  1  0  0  0  0
 45 44  1  0  0  0  0
M  END
>  <minimizedAffinity>
-6.06233263

$$$$

 OpenBabel03252500283D

 45 47  0  0  1  0  0  0  0  0999 V2000
   41.5350   29.7240   40.0050 O   0  0  0  0  0  0  0  0  0  0  0  0
   40.9980   30.6090   41.0760 P   0  0  1  0  0  0  0  0  0  0  0  0
   41.5570   32.1820   40.8260 O   0  0  0  0  0  0  0  0  0  0  0  0
   41.8090   32.6600   41.6450 H   0  0  0  0  0  0  0  0  0  0  0  0
   39.3520   30.5740   40.9570 O   0  0  0  0  0  0  0  0  0  0  0  0
   38.1100   32.5650   40.5110 C   0  0  2  0  0  0  0  0  0  0  0  0
   38.9290   31.4440   39.9860 C   0  0  2  0  0  0  0  0  0  0  0  0
   38.1370   30.8170   38.9510 C   0  0  0  0  0  0  0  0  0  0  0  0
   37.1910   31.7370   38.4820 O   0  0  0  0  0  0  0  0  0  0  0  0
   37.4660   32.9040   39.1080 C   0  0  0  0  0  0  0  0  0  0  0  0
   37.1440   32.3270   40.9870 H   0  0  0  0  0  0  0  0  0  0  0  0
   39.8840   31.9670   39.6870 H   0  0  0  0  0  0  0  0  0  0  0  0
   37.9110   29.7750   38.8760 H   0  0  0  0  0  0  0  0  0  0  0  0
   38.8320   30.8710   38.0380 H   0  0  0  0  0  0  0  0  0  0  0  0
   36.6680   33.6330   39.2240 H   0  0  0  0  0  0  0  0  0  0  0  0
   38.3110   33.4290   38.5920 H   0  0  0  0  0  0  0  0  0  0  0  0
   38.7640   33.6610   40.9300 O   0  0  0  0  0  0  0  0  0  0  0  0
   38.7040   34.8400   40.3750 C   0  0  0  0  0  0  0  0  0  0  0  0
   37.9350   35.5280   40.6120 H   0  0  0  0  0  0  0  0  0  0  0  0
   38.3720   34.5960   39.2350 H   0  0  0  0  0  0  0  0  0  0  0  0
   40.1270   35.3550   40.1890 C   0  0  0  0  0  0  0  0  0  0  0  0
   40.1190   36.3190   39.6350 H   0  0  0  0  0  0  0  0  0  0  0  0
   40.6000   35.4250   41.1790 H   0  0  0  0  0  0  0  0  0  0  0  0
   40.6340   34.6030   39.5190 H   0  0  0  0  0  0  0  0  0  0  0  0
   41.5670   29.9670   42.5480 O   0  0  0  0  0  0  0  0  0  0  0  0
   39.4500   27.1780   43.3390 C   0  0  0  0  0  0  0  0  0  0  0  0
   40.3490   26.2240   43.9000 C   0  0  0  0  0  0  0  0  0  0  0  0
   41.6960   26.6060   43.9790 C   0  0  0  0  0  0  0  0  0  0  0  0
   42.0620   27.8260   43.5330 N   0  0  0  0  0  0  0  0  0  0  0  0
   41.1890   28.7000   43.0120 C   0  0  0  0  0  0  0  0  0  0  0  0
   39.8970   28.3730   42.9180 N   0  0  0  0  0  0  0  0  0  0  0  0
   40.1040   25.2570   44.2520 H   0  0  0  0  0  0  0  0  0  0  0  0
   42.4110   25.9040   44.4020 H   0  0  0  0  0  0  0  0  0  0  0  0
   38.1330   26.8590   43.2360 O   0  0  0  0  0  0  0  0  0  0  0  0
   36.8050   28.4450   42.1920 C   0  0  0  0  0  0  0  0  0  0  0  0
   37.4100   27.2060   42.1150 C   0  0  0  0  0  0  0  0  0  0  0  0
   37.2510   26.4520   40.9720 C   0  0  0  0  0  0  0  0  0  0  0  0
   37.7610   25.4830   40.9890 H   0  0  0  0  0  0  0  0  0  0  0  0
   36.5070   26.8820   39.8930 C   0  0  0  0  0  3  0  0  0  0  0  0
   35.9040   28.1180   39.9740 C   0  0  0  0  0  3  0  0  0  0  0  0
   36.0470   28.8970   41.1070 C   0  0  0  0  0  0  0  0  0  0  0  0
   36.8180   29.3800   43.2210 O   0  0  0  0  0  0  0  0  0  0  0  0
   37.1410   30.3470   43.0600 H   0  0  0  0  0  0  0  0  0  0  0  0
   35.3800   30.1340   41.0550 O   0  0  0  0  0  0  0  0  0  0  0  0
   34.4060   30.0880   40.7830 H   0  0  0  0  0  0  0  0  0  0  0  0
  2  1  2  6  0  0  0
  2 25  1  0  0  0  0
  3  2  1  0  0  0  0
  3  4  1  0  0  0  0
  5  2  1  0  0  0  0
  6 17  1  0  0  0  0
  6 11  1  1  0  0  0
  7 12  1  6  0  0  0
  7  6  1  0  0  0  0
  7  5  1  0  0  0  0
  8  7  1  0  0  0  0
  9  8  1  0  0  0  0
  9 10  1  0  0  0  0
 10 15  1  0  0  0  0
 10  6  1  0  0  0  0
 13  8  1  0  0  0  0
 14  8  1  0  0  0  0
 16 10  1  0  0  0  0
 18 19  1  0  0  0  0
 18 17  1  0  0  0  0
 20 18  1  0  0  0  0
 21 18  1  0  0  0  0
 21 23  1  0  0  0  0
 22 21  1  0  0  0  0
 24 21  1  0  0  0  0
 25 30  1  0  0  0  0
 26 27  1  0  0  0  0
 27 28  2  0  0  0  0
 27 32  1  0  0  0  0
 28 33  1  0  0  0  0
 29 28  1  0  0  0  0
 30 29  2  0  0  0  0
 31 30  1  0  0  0  0
 31 26  2  0  0  0  0
 34 26  1  0  0  0  0
 35 42  1  0  0  0  0
 36 35  1  0  0  0  0
 36 34  1  0  0  0  0
 37 38  1  0  0  0  0
 37 36  2  0  0  0  0
 39 40  2  0  0  0  0
 39 37  1  0  0  0  0
 40 41  1  0  0  0  0
 41 35  2  0  0  0  0
 43 42  1  0  0  0  0
 44 41  1  0  0  0  0
 45 44  1  0  0  0  0
M  END
>  <minimizedAffinity>
-6.0387907

$$$$

 OpenBabel03252500283D

 45 47  0  0  1  0  0  0  0  0999 V2000
   34.8150   29.3320   39.7170 O   0  0  0  0  0  0  0  0  0  0  0  0
   36.0930   29.9130   40.2160 P   0  0  1  0  0  0  0  0  0  0  0  0
   35.8260   30.6290   41.7220 O   0  0  0  0  0  0  0  0  0  0  0  0
   36.2980   31.4770   41.8590 H   0  0  0  0  0  0  0  0  0  0  0  0
   37.1660   28.6690   40.3690 O   0  0  0  0  0  0  0  0  0  0  0  0
   38.5470   28.6240   42.3180 C   0  0  2  0  0  0  0  0  0  0  0  0
   37.2530   28.2770   41.6800 C   0  0  2  0  0  0  0  0  0  0  0  0
   37.0780   26.8540   41.8720 C   0  0  0  0  0  0  0  0  0  0  0  0
   37.8560   26.4430   42.9610 O   0  0  0  0  0  0  0  0  0  0  0  0
   38.3850   27.5720   43.4860 C   0  0  0  0  0  0  0  0  0  0  0  0
   39.4660   28.1610   41.9200 H   0  0  0  0  0  0  0  0  0  0  0  0
   36.5360   28.9800   42.1970 H   0  0  0  0  0  0  0  0  0  0  0  0
   36.8550   26.1400   41.1090 H   0  0  0  0  0  0  0  0  0  0  0  0
   36.0640   26.7980   42.4090 H   0  0  0  0  0  0  0  0  0  0  0  0
   39.3060   27.4970   44.0590 H   0  0  0  0  0  0  0  0  0  0  0  0
   37.6350   28.0790   44.1460 H   0  0  0  0  0  0  0  0  0  0  0  0
   38.6490   29.8400   42.8810 O   0  0  0  0  0  0  0  0  0  0  0  0
   39.6210   30.6870   42.6860 C   0  0  0  0  0  0  0  0  0  0  0  0
   40.1500   31.1220   43.4930 H   0  0  0  0  0  0  0  0  0  0  0  0
   39.0510   31.6840   42.2970 H   0  0  0  0  0  0  0  0  0  0  0  0
   40.3910   30.2560   41.4430 C   0  0  0  0  0  0  0  0  0  0  0  0
   41.1730   31.0060   41.1940 H   0  0  0  0  0  0  0  0  0  0  0  0
   40.7950   29.2480   41.6210 H   0  0  0  0  0  0  0  0  0  0  0  0
   39.6410   30.2790   40.6010 H   0  0  0  0  0  0  0  0  0  0  0  0
   36.5750   31.0610   39.0530 O   0  0  0  0  0  0  0  0  0  0  0  0
   39.7430   32.6250   38.4190 C   0  0  0  0  0  0  0  0  0  0  0  0
   39.9030   33.5170   39.5200 C   0  0  0  0  0  0  0  0  0  0  0  0
   38.8660   33.5350   40.4650 C   0  0  0  0  0  0  0  0  0  0  0  0
   37.7990   32.7280   40.2870 N   0  0  0  0  0  0  0  0  0  0  0  0
   37.6820   31.9000   39.2390 C   0  0  0  0  0  0  0  0  0  0  0  0
   38.6480   31.8550   38.3170 N   0  0  0  0  0  0  0  0  0  0  0  0
   40.7180   34.1700   39.6900 H   0  0  0  0  0  0  0  0  0  0  0  0
   38.9530   34.2030   41.3190 H   0  0  0  0  0  0  0  0  0  0  0  0
   40.7170   32.5690   37.4720 O   0  0  0  0  0  0  0  0  0  0  0  0
   42.9160   33.2910   37.3830 C   0  0  0  0  0  0  0  0  0  0  0  0
   42.0280   32.3310   37.8240 C   0  0  0  0  0  0  0  0  0  0  0  0
   42.5040   31.2610   38.5510 C   0  0  0  0  0  0  0  0  0  0  0  0
   41.7370   30.5440   38.8640 H   0  0  0  0  0  0  0  0  0  0  0  0
   43.8390   31.1040   38.8600 C   0  0  0  0  0  3  0  0  0  0  0  0
   44.7230   32.0630   38.4170 C   0  0  0  0  0  3  0  0  0  0  0  0
   44.2740   33.1480   37.6870 C   0  0  0  0  0  0  0  0  0  0  0  0
   42.6850   34.4460   36.6450 O   0  0  0  0  0  0  0  0  0  0  0  0
   42.9740   35.3720   36.9980 H   0  0  0  0  0  0  0  0  0  0  0  0
   45.2820   34.0500   37.2990 O   0  0  0  0  0  0  0  0  0  0  0  0
   46.0850   33.6310   36.8470 H   0  0  0  0  0  0  0  0  0  0  0  0
  2  1  2  6  0  0  0
  2  5  1  0  0  0  0
  2  3  1  0  0  0  0
  3  4  1  0  0  0  0
  5  7  1  0  0  0  0
  6 11  1  6  0  0  0
  6 17  1  0  0  0  0
  6 10  1  0  0  0  0
  7  8  1  0  0  0  0
  7 12  1  1  0  0  0
  7  6  1  0  0  0  0
  8 14  1  0  0  0  0
  8  9  1  0  0  0  0
  9 10  1  0  0  0  0
 10 15  1  0  0  0  0
 10 16  1  0  0  0  0
 13  8  1  0  0  0  0
 18 17  1  0  0  0  0
 18 19  1  0  0  0  0
 20 18  1  0  0  0  0
 21 23  1  0  0  0  0
 21 18  1  0  0  0  0
 22 21  1  0  0  0  0
 24 21  1  0  0  0  0
 25 30  1  0  0  0  0
 25  2  1  0  0  0  0
 26 27  1  0  0  0  0
 27 32  1  0  0  0  0
 27 28  2  0  0  0  0
 28 33  1  0  0  0  0
 29 28  1  0  0  0  0
 30 29  2  0  0  0  0
 31 26  2  0  0  0  0
 31 30  1  0  0  0  0
 34 36  1  0  0  0  0
 34 26  1  0  0  0  0
 35 41  2  0  0  0  0
 35 36  1  0  0  0  0
 36 37  2  0  0  0  0
 37 39  1  0  0  0  0
 37 38  1  0  0  0  0
 40 39  2  0  0  0  0
 41 40  1  0  0  0  0
 42 43  1  0  0  0  0
 42 35  1  0  0  0  0
 44 41  1  0  0  0  0
 45 44  1  0  0  0  0
M  END
>  <minimizedAffinity>
-6.02954197

$$$$

 OpenBabel03252500283D

 45 47  0  0  1  0  0  0  0  0999 V2000
   41.8670   32.1050   41.8410 O   0  0  0  0  0  0  0  0  0  0  0  0
   40.8550   31.0130   41.7750 P   0  0  1  0  0  0  0  0  0  0  0  0
   39.6930   31.2620   42.9740 O   0  0  0  0  0  0  0  0  0  0  0  0
   39.3940   30.4460   43.4270 H   0  0  0  0  0  0  0  0  0  0  0  0
   40.1490   31.0930   40.2850 O   0  0  0  0  0  0  0  0  0  0  0  0
   40.3380   32.8920   38.7250 C   0  0  2  0  0  0  0  0  0  0  0  0
   40.9770   31.7370   39.4030 C   0  0  2  0  0  0  0  0  0  0  0  0
   41.4810   30.8810   38.3510 C   0  0  0  0  0  0  0  0  0  0  0  0
   41.6500   31.6420   37.1880 O   0  0  0  0  0  0  0  0  0  0  0  0
   41.3800   32.9210   37.5380 C   0  0  0  0  0  0  0  0  0  0  0  0
   39.4730   32.6990   38.0680 H   0  0  0  0  0  0  0  0  0  0  0  0
   41.7220   32.2430   40.0850 H   0  0  0  0  0  0  0  0  0  0  0  0
   41.2950   29.8340   38.2500 H   0  0  0  0  0  0  0  0  0  0  0  0
   42.5960   30.7970   38.6130 H   0  0  0  0  0  0  0  0  0  0  0  0
   41.0570   33.6140   36.7660 H   0  0  0  0  0  0  0  0  0  0  0  0
   42.2740   33.3820   38.0320 H   0  0  0  0  0  0  0  0  0  0  0  0
   40.4010   34.0820   39.3470 O   0  0  0  0  0  0  0  0  0  0  0  0
   41.4510   34.8520   39.4070 C   0  0  0  0  0  0  0  0  0  0  0  0
   41.7840   35.4070   38.5690 H   0  0  0  0  0  0  0  0  0  0  0  0
   42.3720   34.0660   39.4680 H   0  0  0  0  0  0  0  0  0  0  0  0
   41.4930   35.4990   40.7870 C   0  0  0  0  0  0  0  0  0  0  0  0
   42.4260   36.0930   40.9070 H   0  0  0  0  0  0  0  0  0  0  0  0
   40.5780   36.0950   40.9160 H   0  0  0  0  0  0  0  0  0  0  0  0
   41.5590   34.6430   41.5180 H   0  0  0  0  0  0  0  0  0  0  0  0
   41.7110   29.5610   42.0230 O   0  0  0  0  0  0  0  0  0  0  0  0
   39.2440   27.1600   43.0390 C   0  0  0  0  0  0  0  0  0  0  0  0
   39.9520   26.3110   43.9400 C   0  0  0  0  0  0  0  0  0  0  0  0
   41.3030   26.6230   44.1600 C   0  0  0  0  0  0  0  0  0  0  0  0
   41.8460   27.6830   43.5240 N   0  0  0  0  0  0  0  0  0  0  0  0
   41.1480   28.4600   42.6840 C   0  0  0  0  0  0  0  0  0  0  0  0
   39.8610   28.1960   42.4470 N   0  0  0  0  0  0  0  0  0  0  0  0
   39.5660   25.4690   44.4490 H   0  0  0  0  0  0  0  0  0  0  0  0
   41.8750   25.9980   44.8410 H   0  0  0  0  0  0  0  0  0  0  0  0
   37.9330   26.9020   42.7870 O   0  0  0  0  0  0  0  0  0  0  0  0
   36.8760   28.8520   42.1210 C   0  0  0  0  0  0  0  0  0  0  0  0
   37.2640   27.5710   41.7850 C   0  0  0  0  0  0  0  0  0  0  0  0
   36.9650   27.0870   40.5300 C   0  0  0  0  0  0  0  0  0  0  0  0
   37.3070   26.0640   40.3420 H   0  0  0  0  0  0  0  0  0  0  0  0
   36.2900   27.8320   39.5850 C   0  0  0  0  0  3  0  0  0  0  0  0
   35.9040   29.1100   39.9240 C   0  0  0  0  0  3  0  0  0  0  0  0
   36.1900   29.6210   41.1760 C   0  0  0  0  0  0  0  0  0  0  0  0
   37.0580   29.5570   43.3060 O   0  0  0  0  0  0  0  0  0  0  0  0
   37.5360   30.4720   43.3140 H   0  0  0  0  0  0  0  0  0  0  0  0
   35.7390   30.9370   41.3870 O   0  0  0  0  0  0  0  0  0  0  0  0
   34.7670   31.1030   41.1550 H   0  0  0  0  0  0  0  0  0  0  0  0
  2  1  2  1  0  0  0
  2 25  1  0  0  0  0
  2  3  1  0  0  0  0
  3  4  1  0  0  0  0
  5  2  1  0  0  0  0
  6 11  1  6  0  0  0
  6 17  1  0  0  0  0
  6  7  1  0  0  0  0
  7 12  1  1  0  0  0
  7  5  1  0  0  0  0
  8 14  1  0  0  0  0
  8  7  1  0  0  0  0
  9 10  1  0  0  0  0
  9  8  1  0  0  0  0
 10 16  1  0  0  0  0
 10  6  1  0  0  0  0
 13  8  1  0  0  0  0
 15 10  1  0  0  0  0
 17 18  1  0  0  0  0
 18 20  1  0  0  0  0
 18 21  1  0  0  0  0
 19 18  1  0  0  0  0
 21 22  1  0  0  0  0
 21 23  1  0  0  0  0
 21 24  1  0  0  0  0
 25 30  1  0  0  0  0
 26 27  1  0  0  0  0
 27 28  2  0  0  0  0
 27 32  1  0  0  0  0
 28 33  1  0  0  0  0
 29 28  1  0  0  0  0
 30 29  2  0  0  0  0
 31 30  1  0  0  0  0
 31 26  2  0  0  0  0
 34 26  1  0  0  0  0
 35 42  1  0  0  0  0
 36 35  1  0  0  0  0
 36 34  1  0  0  0  0
 37 36  2  0  0  0  0
 38 37  1  0  0  0  0
 39 40  2  0  0  0  0
 39 37  1  0  0  0  0
 40 41  1  0  0  0  0
 41 44  1  0  0  0  0
 41 35  2  0  0  0  0
 42 43  1  0  0  0  0
 45 44  1  0  0  0  0
M  END
>  <minimizedAffinity>
-6.00133848

$$$$

 OpenBabel03252500283D

 45 47  0  0  1  0  0  0  0  0999 V2000
   35.9940   27.8120   40.2050 O   0  0  0  0  0  0  0  0  0  0  0  0
   35.5740   29.2330   40.0440 P   0  0  1  0  0  0  0  0  0  0  0  0
   33.8880   29.3140   40.0310 O   0  0  0  0  0  0  0  0  0  0  0  0
   33.5150   29.9500   39.3850 H   0  0  0  0  0  0  0  0  0  0  0  0
   36.1660   30.0650   41.3400 O   0  0  0  0  0  0  0  0  0  0  0  0
   38.1280   29.5200   42.5890 C   0  0  2  0  0  0  0  0  0  0  0  0
   37.5360   30.0420   41.3320 C   0  0  2  0  0  0  0  0  0  0  0  0
   38.1360   31.3410   41.1140 C   0  0  0  0  0  0  0  0  0  0  0  0
   39.3490   31.4040   41.8100 O   0  0  0  0  0  0  0  0  0  0  0  0
   39.5440   30.1690   42.3280 C   0  0  0  0  0  0  0  0  0  0  0  0
   37.9520   30.0820   43.5220 H   0  0  0  0  0  0  0  0  0  0  0  0
   37.7660   29.2160   40.5990 H   0  0  0  0  0  0  0  0  0  0  0  0
   37.6100   32.2520   40.9270 H   0  0  0  0  0  0  0  0  0  0  0  0
   38.5930   31.2300   40.0660 H   0  0  0  0  0  0  0  0  0  0  0  0
   40.1750   30.0680   43.2080 H   0  0  0  0  0  0  0  0  0  0  0  0
   39.9670   29.4850   41.5470 H   0  0  0  0  0  0  0  0  0  0  0  0
   38.3030   28.1910   42.6800 O   0  0  0  0  0  0  0  0  0  0  0  0
   37.5410   27.3690   43.3480 C   0  0  0  0  0  0  0  0  0  0  0  0
   37.8080   26.3550   43.4920 H   0  0  0  0  0  0  0  0  0  0  0  0
   36.5980   27.1950   42.6050 H   0  0  0  0  0  0  0  0  0  0  0  0
   36.9010   28.1370   44.4990 C   0  0  0  0  0  0  0  0  0  0  0  0
   36.1740   27.4900   45.0370 H   0  0  0  0  0  0  0  0  0  0  0  0
   37.7040   28.5200   45.1460 H   0  0  0  0  0  0  0  0  0  0  0  0
   36.3040   28.9620   44.0150 H   0  0  0  0  0  0  0  0  0  0  0  0
   36.2380   29.7560   38.5640 O   0  0  0  0  0  0  0  0  0  0  0  0
   33.7700   28.9430   36.0880 C   0  0  0  0  0  0  0  0  0  0  0  0
   34.5430   28.6620   34.9230 C   0  0  0  0  0  0  0  0  0  0  0  0
   35.9350   28.7730   35.0570 C   0  0  0  0  0  0  0  0  0  0  0  0
   36.4560   29.1300   36.2490 N   0  0  0  0  0  0  0  0  0  0  0  0
   35.6980   29.3860   37.3250 C   0  0  0  0  0  0  0  0  0  0  0  0
   34.3680   29.2920   37.2380 N   0  0  0  0  0  0  0  0  0  0  0  0
   34.1730   28.3880   33.9710 H   0  0  0  0  0  0  0  0  0  0  0  0
   36.5580   28.5660   34.1890 H   0  0  0  0  0  0  0  0  0  0  0  0
   32.4150   28.8530   36.0150 O   0  0  0  0  0  0  0  0  0  0  0  0
   31.1020   30.2800   37.2820 C   0  0  0  0  0  0  0  0  0  0  0  0
   31.6320   29.9870   36.0420 C   0  0  0  0  0  0  0  0  0  0  0  0
   31.3480   30.8170   34.9790 C   0  0  0  0  0  0  0  0  0  0  0  0
   31.8060   30.5160   34.0300 H   0  0  0  0  0  0  0  0  0  0  0  0
   30.5520   31.9370   35.0990 C   0  0  0  0  0  3  0  0  0  0  0  0
   30.0250   32.2260   36.3390 C   0  0  0  0  0  3  0  0  0  0  0  0
   30.2930   31.4110   37.4230 C   0  0  0  0  0  0  0  0  0  0  0  0
   31.2420   29.6080   38.4920 O   0  0  0  0  0  0  0  0  0  0  0  0
   31.6040   30.0880   39.3310 H   0  0  0  0  0  0  0  0  0  0  0  0
   29.6920   31.8240   38.6270 O   0  0  0  0  0  0  0  0  0  0  0  0
   28.7000   32.0160   38.5700 H   0  0  0  0  0  0  0  0  0  0  0  0
  2  1  2  1  0  0  0
  2  5  1  0  0  0  0
  3  2  1  0  0  0  0
  4  3  1  0  0  0  0
  6 17  1  0  0  0  0
  6 11  1  1  0  0  0
  7 12  1  6  0  0  0
  7  5  1  0  0  0  0
  7  6  1  0  0  0  0
  8  7  1  0  0  0  0
  8  9  1  0  0  0  0
  9 10  1  0  0  0  0
 10  6  1  0  0  0  0
 10 15  1  0  0  0  0
 13  8  1  0  0  0  0
 14  8  1  0  0  0  0
 16 10  1  0  0  0  0
 17 18  1  0  0  0  0
 18 19  1  0  0  0  0
 18 21  1  0  0  0  0
 20 18  1  0  0  0  0
 21 22  1  0  0  0  0
 21 23  1  0  0  0  0
 24 21  1  0  0  0  0
 25  2  1  0  0  0  0
 26 31  1  0  0  0  0
 27 28  1  0  0  0  0
 27 26  2  0  0  0  0
 28 29  2  0  0  0  0
 29 30  1  0  0  0  0
 30 25  1  0  0  0  0
 31 30  2  0  0  0  0
 32 27  1  0  0  0  0
 33 28  1  0  0  0  0
 34 36  1  0  0  0  0
 34 26  1  0  0  0  0
 35 41  1  0  0  0  0
 35 42  1  0  0  0  0
 36 35  2  0  0  0  0
 37 39  2  0  0  0  0
 37 36  1  0  0  0  0
 38 37  1  0  0  0  0
 39 40  1  0  0  0  0
 40 41  2  0  0  0  0
 41 44  1  0  0  0  0
 42 43  1  0  0  0  0
 45 44  1  0  0  0  0
M  END
>  <minimizedAffinity>
-5.9722209

$$$$

 OpenBabel03252500283D

 45 47  0  0  1  0  0  0  0  0999 V2000
   42.8800   31.6390   43.2000 O   0  0  0  0  0  0  0  0  0  0  0  0
   41.8560   31.1600   42.2290 P   0  0  1  0  0  0  0  0  0  0  0  0
   40.3210   31.3400   42.9090 O   0  0  0  0  0  0  0  0  0  0  0  0
   39.7050   30.6000   42.7240 H   0  0  0  0  0  0  0  0  0  0  0  0
   41.9860   32.1020   40.8800 O   0  0  0  0  0  0  0  0  0  0  0  0
   40.1130   33.4450   40.2480 C   0  0  2  0  0  0  0  0  0  0  0  0
   41.3390   33.2940   41.0720 C   0  0  2  0  0  0  0  0  0  0  0  0
   42.1600   34.4510   40.7860 C   0  0  0  0  0  0  0  0  0  0  0  0
   41.3440   35.4770   40.2920 O   0  0  0  0  0  0  0  0  0  0  0  0
   40.0740   35.0180   40.3830 C   0  0  0  0  0  0  0  0  0  0  0  0
   40.2210   33.4610   39.1510 H   0  0  0  0  0  0  0  0  0  0  0  0
   40.9140   33.1830   42.1120 H   0  0  0  0  0  0  0  0  0  0  0  0
   43.1880   34.4360   40.4950 H   0  0  0  0  0  0  0  0  0  0  0  0
   42.3200   34.9060   41.8290 H   0  0  0  0  0  0  0  0  0  0  0  0
   39.3210   35.4370   39.7210 H   0  0  0  0  0  0  0  0  0  0  0  0
   39.6930   35.1460   41.4290 H   0  0  0  0  0  0  0  0  0  0  0  0
   38.9660   32.9660   40.7590 O   0  0  0  0  0  0  0  0  0  0  0  0
   38.2060   32.0640   40.2040 C   0  0  0  0  0  0  0  0  0  0  0  0
   37.8980   31.1970   40.7270 H   0  0  0  0  0  0  0  0  0  0  0  0
   38.9440   31.5290   39.4050 H   0  0  0  0  0  0  0  0  0  0  0  0
   37.2100   32.7720   39.2930 C   0  0  0  0  0  0  0  0  0  0  0  0
   36.6030   32.0270   38.7320 H   0  0  0  0  0  0  0  0  0  0  0  0
   36.6030   33.4520   39.9080 H   0  0  0  0  0  0  0  0  0  0  0  0
   37.8350   33.3180   38.5300 H   0  0  0  0  0  0  0  0  0  0  0  0
   42.2210   29.5230   41.9290 O   0  0  0  0  0  0  0  0  0  0  0  0
   39.7760   27.3700   43.4360 C   0  0  0  0  0  0  0  0  0  0  0  0
   40.5590   26.4550   44.2000 C   0  0  0  0  0  0  0  0  0  0  0  0
   41.9500   26.6340   44.1530 C   0  0  0  0  0  0  0  0  0  0  0  0
   42.4600   27.6370   43.4080 N   0  0  0  0  0  0  0  0  0  0  0  0
   41.6920   28.4800   42.7030 C   0  0  0  0  0  0  0  0  0  0  0  0
   40.3640   28.3420   42.7200 N   0  0  0  0  0  0  0  0  0  0  0  0
   40.1990   25.6530   44.7880 H   0  0  0  0  0  0  0  0  0  0  0  0
   42.5810   25.9550   44.7230 H   0  0  0  0  0  0  0  0  0  0  0  0
   38.4230   27.2410   43.4440 O   0  0  0  0  0  0  0  0  0  0  0  0
   36.9550   28.5910   42.2650 C   0  0  0  0  0  0  0  0  0  0  0  0
   37.6920   27.4240   42.2900 C   0  0  0  0  0  0  0  0  0  0  0  0
   37.6400   26.5750   41.2050 C   0  0  0  0  0  0  0  0  0  0  0  0
   38.2510   25.6720   41.3020 H   0  0  0  0  0  0  0  0  0  0  0  0
   36.8780   26.8410   40.0860 C   0  0  0  0  0  3  0  0  0  0  0  0
   36.1440   28.0070   40.0650 C   0  0  0  0  0  3  0  0  0  0  0  0
   36.1770   28.8770   41.1390 C   0  0  0  0  0  0  0  0  0  0  0  0
   36.8440   29.5950   43.2210 O   0  0  0  0  0  0  0  0  0  0  0  0
   37.0650   30.5770   42.9920 H   0  0  0  0  0  0  0  0  0  0  0  0
   35.3820   30.0270   40.9840 O   0  0  0  0  0  0  0  0  0  0  0  0
   34.4250   29.8550   40.7030 H   0  0  0  0  0  0  0  0  0  0  0  0
  2  3  1  0  0  0  0
  2  1  2  1  0  0  0
  4  3  1  0  0  0  0
  5  7  1  0  0  0  0
  5  2  1  0  0  0  0
  6 11  1  6  0  0  0
  6 10  1  0  0  0  0
  6 17  1  0  0  0  0
  6  7  1  0  0  0  0
  7 12  1  1  0  0  0
  8  7  1  0  0  0  0
  8 14  1  0  0  0  0
  9 10  1  0  0  0  0
  9  8  1  0  0  0  0
 10 16  1  0  0  0  0
 13  8  1  0  0  0  0
 15 10  1  0  0  0  0
 18 19  1  0  0  0  0
 18 17  1  0  0  0  0
 20 18  1  0  0  0  0
 21 23  1  0  0  0  0
 21 18  1  0  0  0  0
 22 21  1  0  0  0  0
 24 21  1  0  0  0  0
 25  2  1  0  0  0  0
 25 30  1  0  0  0  0
 26 34  1  0  0  0  0
 26 27  1  0  0  0  0
 27 32  1  0  0  0  0
 28 27  2  0  0  0  0
 28 33  1  0  0  0  0
 29 28  1  0  0  0  0
 30 31  1  0  0  0  0
 30 29  2  0  0  0  0
 31 26  2  0  0  0  0
 35 36  1  0  0  0  0
 35 42  1  0  0  0  0
 36 34  1  0  0  0  0
 37 38  1  0  0  0  0
 37 36  2  0  0  0  0
 39 37  1  0  0  0  0
 40 39  2  0  0  0  0
 40 41  1  0  0  0  0
 41 35  2  0  0  0  0
 43 42  1  0  0  0  0
 44 41  1  0  0  0  0
 45 44  1  0  0  0  0
M  END
>  <minimizedAffinity>
-5.96016645

$$$$
