
 OpenBabel03252505283D

 26 27  0  0  0  0  0  0  0  0999 V2000
   47.0810   31.5690   48.0770 O   0  0  0  0  0  0  0  0  0  0  0  0
   46.0230   32.0510   47.0810 P   0  0  1  0  0  0  0  0  0  0  0  0
   44.6620   32.6620   47.8600 O   0  0  0  0  0  0  0  0  0  0  0  0
   44.9030   33.4710   48.3930 H   0  0  0  0  0  0  0  0  0  0  0  0
   46.7730   33.2340   46.1370 O   0  0  0  0  0  0  0  0  0  0  0  0
   44.4280   35.5370   44.7860 C   0  0  0  0  0  0  0  0  0  0  0  0
   44.8130   35.6930   43.4300 C   0  0  0  0  0  0  0  0  0  0  0  0
   45.9240   34.9590   43.0170 C   0  0  0  0  0  0  0  0  0  0  0  0
   46.5460   34.1620   43.9250 N   0  0  0  0  0  0  0  0  0  0  0  0
   46.1460   34.0440   45.2050 C   0  0  0  0  0  0  0  0  0  0  0  0
   45.0740   34.7400   45.6370 N   0  0  0  0  0  0  0  0  0  0  0  0
   43.5550   36.1240   45.0780 H   0  0  0  0  0  0  0  0  0  0  0  0
   44.3000   36.3320   42.7380 H   0  0  0  0  0  0  0  0  0  0  0  0
   46.2710   35.0320   41.9970 H   0  0  0  0  0  0  0  0  0  0  0  0
   45.5510   30.6990   46.1860 O   0  0  0  0  0  0  0  0  0  0  0  0
   45.2650   28.4640   45.7020 C   0  0  0  0  0  0  0  0  0  0  0  0
   45.2860   29.4480   46.6740 C   0  0  0  0  0  0  0  0  0  0  0  0
   45.0460   29.0630   47.9760 C   0  0  0  0  0  0  0  0  0  0  0  0
   45.0770   29.8810   48.6970 H   0  0  0  0  0  0  0  0  0  0  0  0
   44.7930   27.7520   48.3170 C   0  0  0  0  0  3  0  0  0  0  0  0
   44.7680   26.7530   47.3520 C   0  0  0  0  0  3  0  0  0  0  0  0
   45.0110   27.1400   46.0310 C   0  0  0  0  0  0  0  0  0  0  0  0
   45.4850   28.6630   44.3340 O   0  0  0  0  0  0  0  0  0  0  0  0
   44.6930   28.8970   43.7320 H   0  0  0  0  0  0  0  0  0  0  0  0
   44.9770   26.1160   45.1040 O   0  0  0  0  0  0  0  0  0  0  0  0
   44.3840   26.1150   44.2860 H   0  0  0  0  0  0  0  0  0  0  0  0
  2  3  1  0  0  0  0
  2  1  2  1  0  0  0
  3  4  1  0  0  0  0
  5  2  1  0  0  0  0
  6 12  1  0  0  0  0
  6 11  1  0  0  0  0
  7  6  2  0  0  0  0
  8  7  1  0  0  0  0
  8  9  2  0  0  0  0
  9 10  1  0  0  0  0
 10 11  2  0  0  0  0
 10  5  1  0  0  0  0
 13  7  1  0  0  0  0
 14  8  1  0  0  0  0
 15 17  1  0  0  0  0
 15  2  1  0  0  0  0
 16 22  2  0  0  0  0
 16 17  1  0  0  0  0
 17 18  2  0  0  0  0
 18 20  1  0  0  0  0
 18 19  1  0  0  0  0
 21 20  2  0  0  0  0
 22 21  1  0  0  0  0
 23 16  1  0  0  0  0
 24 23  1  0  0  0  0
 25 22  1  0  0  0  0
 26 25  1  0  0  0  0
M  END
>  <minimizedAffinity>
-4.45042038

>  <minimizedRMSD>
1.32004011

$$$$
