
 OpenBabel03242516413D

 34 35  0  0  0  0  0  0  0  0999 V2000
   48.7250   33.8090   42.9860 C   0  0  0  0  0  0  0  0  0  0  0  0
   49.1640   34.5750   43.6560 H   0  0  0  0  0  0  0  0  0  0  0  0
   49.5590   33.1100   42.7610 H   0  0  0  0  0  0  0  0  0  0  0  0
   48.2590   34.3880   41.6840 C   0  0  0  0  0  0  0  0  0  0  0  0
   48.4660   33.6770   40.8760 H   0  0  0  0  0  0  0  0  0  0  0  0
   48.8340   35.3340   41.4610 H   0  0  0  0  0  0  0  0  0  0  0  0
   44.5870   34.6630   40.9150 C   0  0  0  0  0  0  0  0  0  0  0  0
   45.9600   34.3070   40.8080 C   0  0  0  0  0  0  0  0  0  0  0  0
   46.8310   34.7580   41.7940 C   0  0  0  0  0  0  0  0  0  0  0  0
   46.3430   35.5070   42.8020 N   0  0  0  0  0  0  0  0  0  0  0  0
   45.0280   35.8280   42.8710 C   0  0  0  0  0  0  0  0  0  0  0  0
   44.1570   35.4090   41.9370 N   0  0  0  0  0  0  0  0  0  0  0  0
   43.6790   34.2210   39.9330 N   0  0  0  0  0  0  0  0  0  0  0  0
   46.3240   33.7030   39.9880 H   0  0  0  0  0  0  0  0  0  0  0  0
   44.6390   36.4310   43.6850 H   0  0  0  0  0  0  0  0  0  0  0  0
   42.7620   34.6610   39.8210 H   0  0  0  0  0  0  0  0  0  0  0  0
   43.9620   33.4230   39.3070 H   0  0  0  0  0  0  0  0  0  0  0  0
   47.7040   33.1040   43.5770 O   0  0  0  0  0  0  0  0  0  0  0  0
   49.3430   31.0720   43.3700 O   0  0  0  0  0  0  0  0  0  0  0  0
   47.8810   31.4290   43.3600 P   0  0  2  0  0  0  0  0  0  0  0  0
   47.1210   31.0320   41.9160 O   0  0  0  0  0  0  0  0  0  0  0  0
   46.2650   30.5850   42.0140 H   0  0  0  0  0  0  0  0  0  0  0  0
   47.0370   30.6320   44.6030 O   0  0  0  0  0  0  0  0  0  0  0  0
   45.9860   32.0310   46.1010 C   0  0  0  0  0  0  0  0  0  0  0  0
   46.9670   31.0530   45.9090 C   0  0  0  0  0  0  0  0  0  0  0  0
   47.7070   30.6560   47.0080 C   0  0  0  0  0  0  0  0  0  0  0  0
   48.4410   29.8990   46.7730 H   0  0  0  0  0  0  0  0  0  0  0  0
   47.4700   31.2160   48.2480 C   0  0  0  0  0  3  0  0  0  0  0  0
   46.5010   32.1810   48.4360 C   0  0  0  0  0  3  0  0  0  0  0  0
   45.7660   32.5810   47.3550 C   0  0  0  0  0  0  0  0  0  0  0  0
   45.1640   32.5310   45.0860 O   0  0  0  0  0  0  0  0  0  0  0  0
   45.4140   32.2580   44.1330 H   0  0  0  0  0  0  0  0  0  0  0  0
   44.7880   33.5600   47.5640 O   0  0  0  0  0  0  0  0  0  0  0  0
   43.9040   33.5130   47.0490 H   0  0  0  0  0  0  0  0  0  0  0  0
  1 18  1  0  0  0  0
  1  2  1  0  0  0  0
  3  1  1  0  0  0  0
  4  9  1  0  0  0  0
  4  1  1  0  0  0  0
  5  4  1  0  0  0  0
  6  4  1  0  0  0  0
  7 12  1  0  0  0  0
  8  7  2  0  0  0  0
  8  9  1  0  0  0  0
  9 10  2  0  0  0  0
 10 11  1  0  0  0  0
 11 15  1  0  0  0  0
 12 11  2  0  0  0  0
 13  7  1  0  0  0  0
 14  8  1  0  0  0  0
 16 13  1  0  0  0  0
 17 13  1  0  0  0  0
 20 19  2  6  0  0  0
 20 18  1  0  0  0  0
 20 23  1  0  0  0  0
 21 22  1  0  0  0  0
 21 20  1  0  0  0  0
 23 25  1  0  0  0  0
 24 30  1  0  0  0  0
 25 24  2  0  0  0  0
 25 26  1  0  0  0  0
 26 28  2  0  0  0  0
 27 26  1  0  0  0  0
 28 29  1  0  0  0  0
 30 33  1  0  0  0  0
 30 29  2  0  0  0  0
 31 24  1  0  0  0  0
 32 31  1  0  0  0  0
 34 33  1  0  0  0  0
M  END
>  <minimizedAffinity>
-4.95260477

>  <minimizedRMSD>
7.31486177

$$$$
