
 OpenBabel03252509273D

 32 34  0  0  1  0  0  0  0  0999 V2000
   46.4650   35.0480   42.0420 C   0  0  1  0  0  0  0  0  0  0  0  0
   48.0020   35.2820   41.9560 C   0  0  0  0  0  0  0  0  0  0  0  0
   47.2180   34.1050   41.3190 C   0  0  2  0  0  0  0  0  0  0  0  0
   45.8800   35.8530   41.5650 H   0  0  0  0  0  0  0  0  0  0  0  0
   48.6140   35.0940   42.8370 H   0  0  0  0  0  0  0  0  0  0  0  0
   48.3020   36.0930   41.2820 H   0  0  0  0  0  0  0  0  0  0  0  0
   47.5600   33.1200   41.7600 H   0  0  0  0  0  0  0  0  0  0  0  0
   44.7680   35.1390   45.3840 C   0  0  0  0  0  0  0  0  0  0  0  0
   45.1220   35.5390   44.0650 C   0  0  0  0  0  0  0  0  0  0  0  0
   46.0530   34.7580   43.4650 C   0  0  0  0  0  0  0  0  0  0  0  0
   46.6080   33.6600   44.0980 N   0  0  0  0  0  0  0  0  0  0  0  0
   46.2350   33.3240   45.3530 C   0  0  0  0  0  0  0  0  0  0  0  0
   45.3080   34.0690   45.9970 N   0  0  0  0  0  0  0  0  0  0  0  0
   44.0290   35.7320   45.8960 H   0  0  0  0  0  0  0  0  0  0  0  0
   46.7580   32.4460   45.7060 H   0  0  0  0  0  0  0  0  0  0  0  0
   44.5730   36.6710   43.4330 N   0  0  0  0  0  0  0  0  0  0  0  0
   43.5480   36.8640   43.5790 H   0  0  0  0  0  0  0  0  0  0  0  0
   45.2100   37.2760   42.8440 H   0  0  0  0  0  0  0  0  0  0  0  0
   47.1250   34.0230   39.8180 C   0  0  0  0  0  0  0  0  0  0  0  0
   46.0990   33.6490   39.5990 H   0  0  0  0  0  0  0  0  0  0  0  0
   47.1540   35.0630   39.4180 H   0  0  0  0  0  0  0  0  0  0  0  0
   48.1530   33.4980   37.7800 C   0  0  0  0  0  0  0  0  0  0  0  0
   48.1620   33.2370   39.1560 C   0  0  0  0  0  0  0  0  0  0  0  0
   49.1010   32.3360   39.6090 C   0  0  0  0  0  0  0  0  0  0  0  0
   49.0460   32.1910   40.6660 H   0  0  0  0  0  0  0  0  0  0  0  0
   49.9930   31.7140   38.7680 C   0  0  0  0  0  3  0  0  0  0  0  0
   49.9750   31.9820   37.4010 C   0  0  0  0  0  3  0  0  0  0  0  0
   49.0490   32.8740   36.9280 C   0  0  0  0  0  0  0  0  0  0  0  0
   47.3000   34.3680   37.0920 O   0  0  0  0  0  0  0  0  0  0  0  0
   47.4200   35.3570   37.2980 H   0  0  0  0  0  0  0  0  0  0  0  0
   49.1130   33.0720   35.5550 O   0  0  0  0  0  0  0  0  0  0  0  0
   48.6030   33.8930   35.2030 H   0  0  0  0  0  0  0  0  0  0  0  0
  1  4  1  6  0  0  0
  1 10  1  0  0  0  0
  2  1  1  0  0  0  0
  2  5  1  0  0  0  0
  3  7  1  1  0  0  0
  3  2  1  0  0  0  0
  3  1  1  0  0  0  0
  6  2  1  0  0  0  0
  8 14  1  0  0  0  0
  8 13  1  0  0  0  0
  9  8  2  0  0  0  0
 10  9  1  0  0  0  0
 10 11  2  0  0  0  0
 11 12  1  0  0  0  0
 12 15  1  0  0  0  0
 12 13  2  0  0  0  0
 16 17  1  0  0  0  0
 16  9  1  0  0  0  0
 18 16  1  0  0  0  0
 19  3  1  0  0  0  0
 20 19  1  0  0  0  0
 21 19  1  0  0  0  0
 22 23  1  0  0  0  0
 23 24  2  0  0  0  0
 23 19  1  0  0  0  0
 24 25  1  0  0  0  0
 26 24  1  0  0  0  0
 27 26  2  0  0  0  0
 28 27  1  0  0  0  0
 28 22  2  0  0  0  0
 29 30  1  0  0  0  0
 29 22  1  0  0  0  0
 31 28  1  0  0  0  0
 32 31  1  0  0  0  0
M  END
>  <minimizedAffinity>
-5.91317844

>  <minimizedRMSD>
0.608652651

$$$$
