
 OpenBabel03242522513D

 28 29  0  0  0  0  0  0  0  0999 V2000
   45.3570   30.8160   47.5500 O   0  0  0  0  0  0  0  0  0  0  0  0
   45.7990   32.0710   48.3500 P   0  0  2  0  0  0  0  0  0  0  0  0
   45.2360   31.8220   49.9150 O   0  0  0  0  0  0  0  0  0  0  0  0
   45.9740   31.8990   50.5690 H   0  0  0  0  0  0  0  0  0  0  0  0
   45.0300   33.4050   47.6550 O   0  0  0  0  0  0  0  0  0  0  0  0
   46.6820   33.5230   44.4190 C   0  0  0  0  0  0  0  0  0  0  0  0
   46.3350   33.1270   45.7330 C   0  0  0  0  0  0  0  0  0  0  0  0
   45.3380   33.8230   46.3770 C   0  0  0  0  0  0  0  0  0  0  0  0
   44.7470   34.8430   45.7240 N   0  0  0  0  0  0  0  0  0  0  0  0
   45.0700   35.2200   44.4840 C   0  0  0  0  0  0  0  0  0  0  0  0
   46.0390   34.5620   43.8270 N   0  0  0  0  0  0  0  0  0  0  0  0
   47.4530   33.0380   43.8320 H   0  0  0  0  0  0  0  0  0  0  0  0
   46.9190   32.3050   46.0560 H   0  0  0  0  0  0  0  0  0  0  0  0
   44.5180   36.0600   44.0630 H   0  0  0  0  0  0  0  0  0  0  0  0
   47.4470   32.2050   48.2910 O   0  0  0  0  0  0  0  0  0  0  0  0
   48.4530   31.4220   48.7230 C   0  0  0  0  0  0  0  0  0  0  0  0
   49.4110   32.1220   49.3010 O   0  0  0  0  0  0  0  0  0  0  0  0
   48.5910   29.0780   47.9530 C   0  0  0  0  0  0  0  0  0  0  0  0
   48.9840   30.0190   48.8310 C   0  0  0  0  0  0  0  0  0  0  0  0
   49.8780   29.6270   49.8420 C   0  0  0  0  0  0  0  0  0  0  0  0
   50.1410   30.4660   50.5130 H   0  0  0  0  0  0  0  0  0  0  0  0
   50.4070   28.3820   50.0440 C   0  0  0  0  0  3  0  0  0  0  0  0
   49.9710   27.4860   49.1280 C   0  0  0  0  0  3  0  0  0  0  0  0
   49.1070   27.7800   48.1160 C   0  0  0  0  0  0  0  0  0  0  0  0
   47.7250   29.2290   46.8830 O   0  0  0  0  0  0  0  0  0  0  0  0
   47.8910   28.8600   45.9550 H   0  0  0  0  0  0  0  0  0  0  0  0
   48.7220   26.7880   47.2270 O   0  0  0  0  0  0  0  0  0  0  0  0
   47.7440   26.7440   46.9590 H   0  0  0  0  0  0  0  0  0  0  0  0
  2  1  2  6  0  0  0
  2  3  1  0  0  0  0
  3  4  1  0  0  0  0
  5  2  1  0  0  0  0
  6  7  1  0  0  0  0
  7 13  1  0  0  0  0
  7  8  2  0  0  0  0
  8  5  1  0  0  0  0
  9  8  1  0  0  0  0
 10  9  2  0  0  0  0
 11  6  2  0  0  0  0
 11 10  1  0  0  0  0
 12  6  1  0  0  0  0
 14 10  1  0  0  0  0
 15  2  1  0  0  0  0
 15 16  1  0  0  0  0
 16 19  1  0  0  0  0
 16 17  2  0  0  0  0
 18 24  2  0  0  0  0
 18 19  1  0  0  0  0
 19 20  2  0  0  0  0
 20 22  1  0  0  0  0
 20 21  1  0  0  0  0
 23 22  2  0  0  0  0
 24 23  1  0  0  0  0
 25 18  1  0  0  0  0
 26 25  1  0  0  0  0
 27 24  1  0  0  0  0
 28 27  1  0  0  0  0
M  END
>  <minimizedAffinity>
-5.02253199

>  <minimizedRMSD>
0.531750321

$$$$
