
 OpenBabel03252506343D

 35 37  0  0  1  0  0  0  0  0999 V2000
   44.4740   35.7580   45.0190 C   0  0  0  0  0  0  0  0  0  0  0  0
   45.1120   35.7080   43.7590 C   0  0  0  0  0  0  0  0  0  0  0  0
   45.9960   34.7040   43.5010 C   0  0  0  0  0  0  0  0  0  0  0  0
   46.2110   33.7990   44.4910 N   0  0  0  0  0  0  0  0  0  0  0  0
   45.6110   33.8510   45.6700 C   0  0  0  0  0  0  0  0  0  0  0  0
   44.7340   34.8310   45.9520 N   0  0  0  0  0  0  0  0  0  0  0  0
   45.9140   32.8540   46.6290 N   0  0  0  0  0  0  0  0  0  0  0  0
   45.1240   32.5710   47.8260 C   0  0  0  0  0  0  0  0  0  0  0  0
   46.2220   32.2750   48.8490 C   0  0  0  0  0  0  0  0  0  0  0  0
   47.5020   32.1310   48.0950 C   0  0  0  0  0  0  0  0  0  0  0  0
   47.0130   31.9200   46.6700 C   0  0  1  0  0  0  0  0  0  0  0  0
   43.7680   36.5490   45.2430 H   0  0  0  0  0  0  0  0  0  0  0  0
   46.4800   34.6710   42.5350 H   0  0  0  0  0  0  0  0  0  0  0  0
   44.5830   31.6350   47.6170 H   0  0  0  0  0  0  0  0  0  0  0  0
   44.4870   33.4020   48.1290 H   0  0  0  0  0  0  0  0  0  0  0  0
   45.9200   31.3650   49.4260 H   0  0  0  0  0  0  0  0  0  0  0  0
   46.2810   33.1120   49.5740 H   0  0  0  0  0  0  0  0  0  0  0  0
   48.1780   31.3610   48.4560 H   0  0  0  0  0  0  0  0  0  0  0  0
   48.0370   33.1240   48.0910 H   0  0  0  0  0  0  0  0  0  0  0  0
   47.8460   32.2090   46.0110 H   0  0  0  0  0  0  0  0  0  0  0  0
   44.7650   36.7480   42.8260 N   0  0  0  0  0  0  0  0  0  0  0  0
   45.6660   37.2880   42.7350 H   0  0  0  0  0  0  0  0  0  0  0  0
   43.8040   36.8200   42.4210 H   0  0  0  0  0  0  0  0  0  0  0  0
   46.4790   30.2200   46.4560 S   0  0  0  0  0  0  0  0  0  0  0  0
   48.0400   27.9780   45.5650 C   0  0  0  0  0  0  0  0  0  0  0  0
   47.6740   29.3010   45.5040 C   0  0  0  0  0  0  0  0  0  0  0  0
   48.2960   30.1270   44.5600 C   0  0  0  0  0  0  0  0  0  0  0  0
   48.1210   31.1950   44.3830 H   0  0  0  0  0  0  0  0  0  0  0  0
   49.2720   29.6160   43.6960 C   0  0  0  0  0  3  0  0  0  0  0  0
   49.6200   28.2840   43.7780 C   0  0  0  0  0  3  0  0  0  0  0  0
   48.9900   27.4870   44.7210 C   0  0  0  0  0  0  0  0  0  0  0  0
   47.3480   27.2840   46.5370 O   0  0  0  0  0  0  0  0  0  0  0  0
   47.8420   26.6540   47.1780 H   0  0  0  0  0  0  0  0  0  0  0  0
   49.2440   26.1170   44.9160 O   0  0  0  0  0  0  0  0  0  0  0  0
   49.7570   25.5800   44.2350 H   0  0  0  0  0  0  0  0  0  0  0  0
  1 12  1  0  0  0  0
  1  6  1  0  0  0  0
  2  1  2  0  0  0  0
  3  2  1  0  0  0  0
  3  4  2  0  0  0  0
  4  5  1  0  0  0  0
  5  6  2  0  0  0  0
  5  7  1  0  0  0  0
  7 11  1  0  0  0  0
  7  8  1  0  0  0  0
  8 15  1  0  0  0  0
  8  9  1  0  0  0  0
  9 16  1  0  0  0  0
  9 17  1  0  0  0  0
 10 18  1  0  0  0  0
 10  9  1  0  0  0  0
 11 20  1  6  0  0  0
 11 10  1  0  0  0  0
 13  3  1  0  0  0  0
 14  8  1  0  0  0  0
 19 10  1  0  0  0  0
 21  2  1  0  0  0  0
 22 21  1  0  0  0  0
 23 21  1  0  0  0  0
 24 11  1  0  0  0  0
 25 32  1  0  0  0  0
 26 25  1  0  0  0  0
 26 24  1  0  0  0  0
 27 26  2  0  0  0  0
 28 27  1  0  0  0  0
 29 30  2  0  0  0  0
 29 27  1  0  0  0  0
 30 31  1  0  0  0  0
 31 34  1  0  0  0  0
 31 25  2  0  0  0  0
 32 33  1  0  0  0  0
 35 34  1  0  0  0  0
M  END
>  <minimizedAffinity>
-5.04791498

>  <minimizedRMSD>
1.28189707

$$$$
