
 OpenBabel03252506343D

 35 37  0  0  1  0  0  0  0  0999 V2000
   44.4360   35.8080   45.0530 C   0  0  0  0  0  0  0  0  0  0  0  0
   45.0580   35.8030   43.7850 C   0  0  0  0  0  0  0  0  0  0  0  0
   45.9530   34.8200   43.4870 C   0  0  0  0  0  0  0  0  0  0  0  0
   46.1930   33.8900   44.4480 N   0  0  0  0  0  0  0  0  0  0  0  0
   45.6070   33.8990   45.6350 C   0  0  0  0  0  0  0  0  0  0  0  0
   44.7200   34.8570   45.9560 N   0  0  0  0  0  0  0  0  0  0  0  0
   45.9350   32.8790   46.5610 N   0  0  0  0  0  0  0  0  0  0  0  0
   45.1640   32.5490   47.7580 C   0  0  0  0  0  0  0  0  0  0  0  0
   46.2780   32.2390   48.7590 C   0  0  0  0  0  0  0  0  0  0  0  0
   47.5510   32.1350   47.9860 C   0  0  0  0  0  0  0  0  0  0  0  0
   47.0470   31.9600   46.5620 C   0  0  1  0  0  0  0  0  0  0  0  0
   43.7210   36.5820   45.3090 H   0  0  0  0  0  0  0  0  0  0  0  0
   46.4270   34.8220   42.5150 H   0  0  0  0  0  0  0  0  0  0  0  0
   44.6330   31.6130   47.5280 H   0  0  0  0  0  0  0  0  0  0  0  0
   44.5200   33.3620   48.0930 H   0  0  0  0  0  0  0  0  0  0  0  0
   45.9960   31.3090   49.3120 H   0  0  0  0  0  0  0  0  0  0  0  0
   46.3340   33.0560   49.5080 H   0  0  0  0  0  0  0  0  0  0  0  0
   48.2420   31.3650   48.3160 H   0  0  0  0  0  0  0  0  0  0  0  0
   48.0720   33.1360   48.0050 H   0  0  0  0  0  0  0  0  0  0  0  0
   47.8680   32.2790   45.9010 H   0  0  0  0  0  0  0  0  0  0  0  0
   44.6860   36.8650   42.8870 N   0  0  0  0  0  0  0  0  0  0  0  0
   45.5780   37.4200   42.8010 H   0  0  0  0  0  0  0  0  0  0  0  0
   43.7190   36.9360   42.4970 H   0  0  0  0  0  0  0  0  0  0  0  0
   46.5350   30.2590   46.3030 S   0  0  0  0  0  0  0  0  0  0  0  0
   49.0240   28.9970   45.6160 C   0  0  0  0  0  0  0  0  0  0  0  0
   47.9290   29.1550   46.4320 C   0  0  0  0  0  0  0  0  0  0  0  0
   47.8250   28.3560   47.5770 C   0  0  0  0  0  0  0  0  0  0  0  0
   47.0220   28.3580   48.3260 H   0  0  0  0  0  0  0  0  0  0  0  0
   48.8130   27.4140   47.8850 C   0  0  0  0  0  3  0  0  0  0  0  0
   49.9000   27.2760   47.0490 C   0  0  0  0  0  3  0  0  0  0  0  0
   49.9820   28.0790   45.9210 C   0  0  0  0  0  0  0  0  0  0  0  0
   48.9980   29.8470   44.5290 O   0  0  0  0  0  0  0  0  0  0  0  0
   49.2080   29.4950   43.5900 H   0  0  0  0  0  0  0  0  0  0  0  0
   51.0310   28.0450   44.9840 O   0  0  0  0  0  0  0  0  0  0  0  0
   51.8990   27.5770   45.1900 H   0  0  0  0  0  0  0  0  0  0  0  0
  1 12  1  0  0  0  0
  1  6  1  0  0  0  0
  2  1  2  0  0  0  0
  3  2  1  0  0  0  0
  3  4  2  0  0  0  0
  4  5  1  0  0  0  0
  5  6  2  0  0  0  0
  5  7  1  0  0  0  0
  7 11  1  0  0  0  0
  7  8  1  0  0  0  0
  8 15  1  0  0  0  0
  8  9  1  0  0  0  0
  9 16  1  0  0  0  0
  9 17  1  0  0  0  0
 10 19  1  0  0  0  0
 10 18  1  0  0  0  0
 10  9  1  0  0  0  0
 11 20  1  6  0  0  0
 11 10  1  0  0  0  0
 13  3  1  0  0  0  0
 14  8  1  0  0  0  0
 21  2  1  0  0  0  0
 22 21  1  0  0  0  0
 23 21  1  0  0  0  0
 24 26  1  0  0  0  0
 24 11  1  0  0  0  0
 25 31  2  0  0  0  0
 25 26  1  0  0  0  0
 26 27  2  0  0  0  0
 27 29  1  0  0  0  0
 27 28  1  0  0  0  0
 30 29  2  0  0  0  0
 31 30  1  0  0  0  0
 32 25  1  0  0  0  0
 33 32  1  0  0  0  0
 34 35  1  0  0  0  0
 34 31  1  0  0  0  0
M  END
>  <minimizedAffinity>
-5.16284847

>  <minimizedRMSD>
0.750065148

$$$$
