
 OpenBabel03252507163D

 31 33  0  0  0  0  0  0  0  0999 V2000
   45.2270   36.1910   43.5350 C   0  0  0  0  0  0  0  0  0  0  0  0
   45.8650   34.9820   43.1620 C   0  0  0  0  0  0  0  0  0  0  0  0
   45.8340   33.9300   44.0770 C   0  0  0  0  0  0  0  0  0  0  0  0
   45.2150   34.0900   45.2570 N   0  0  0  0  0  0  0  0  0  0  0  0
   44.6040   35.2700   45.5930 C   0  0  0  0  0  0  0  0  0  0  0  0
   44.6250   36.2890   44.7290 N   0  0  0  0  0  0  0  0  0  0  0  0
   45.2330   37.0270   42.8490 H   0  0  0  0  0  0  0  0  0  0  0  0
   44.1560   35.2270   46.5780 H   0  0  0  0  0  0  0  0  0  0  0  0
   46.4830   32.6880   43.7030 C   0  0  0  0  0  0  0  0  0  0  0  0
   45.7210   31.5900   43.3470 C   0  0  0  0  0  0  0  0  0  0  0  0
   46.3660   30.4290   42.9990 C   0  0  0  0  0  0  0  0  0  0  0  0
   47.7430   30.2890   42.9830 C   0  0  0  0  0  0  0  0  0  0  0  0
   48.4520   31.4260   43.3490 C   0  0  0  0  0  0  0  0  0  0  0  0
   47.8110   32.5640   43.6900 N   0  0  0  0  0  0  0  0  0  0  0  0
   44.6560   31.5890   43.3260 H   0  0  0  0  0  0  0  0  0  0  0  0
   45.8100   29.5380   42.7110 H   0  0  0  0  0  0  0  0  0  0  0  0
   48.3070   29.4260   42.7240 H   0  0  0  0  0  0  0  0  0  0  0  0
   49.5380   31.4630   43.3820 H   0  0  0  0  0  0  0  0  0  0  0  0
   46.4990   34.8880   41.8960 C   0  0  0  0  0  0  0  0  0  0  0  0
   47.6290   35.4200   41.7540 O   0  0  0  0  0  0  0  0  0  0  0  0
   46.6180   33.4680   39.8570 C   0  0  0  0  0  0  0  0  0  0  0  0
   45.8840   34.1990   40.7660 C   0  0  0  0  0  0  0  0  0  0  0  0
   44.5200   34.2580   40.5680 C   0  0  0  0  0  0  0  0  0  0  0  0
   43.9600   34.8340   41.2890 H   0  0  0  0  0  0  0  0  0  0  0  0
   43.8750   33.6410   39.5390 C   0  0  0  0  0  3  0  0  0  0  0  0
   44.6390   32.9080   38.6320 C   0  0  0  0  0  3  0  0  0  0  0  0
   45.9930   32.8340   38.8050 C   0  0  0  0  0  0  0  0  0  0  0  0
   48.0140   33.3760   40.0140 O   0  0  0  0  0  0  0  0  0  0  0  0
   48.6620   33.4760   39.2490 H   0  0  0  0  0  0  0  0  0  0  0  0
   46.7870   32.1120   37.9230 O   0  0  0  0  0  0  0  0  0  0  0  0
   46.6010   31.1410   37.6950 H   0  0  0  0  0  0  0  0  0  0  0  0
  1  6  1  0  0  0  0
  2  1  2  0  0  0  0
  2  3  1  0  0  0  0
  3  4  2  0  0  0  0
  4  5  1  0  0  0  0
  5  8  1  0  0  0  0
  6  5  2  0  0  0  0
  7  1  1  0  0  0  0
  9  3  1  0  0  0  0
 10  9  2  0  0  0  0
 11 10  1  0  0  0  0
 12 11  2  0  0  0  0
 12 13  1  0  0  0  0
 13 18  1  0  0  0  0
 13 14  2  0  0  0  0
 14  9  1  0  0  0  0
 15 10  1  0  0  0  0
 16 11  1  0  0  0  0
 17 12  1  0  0  0  0
 19  2  1  0  0  0  0
 20 19  2  0  0  0  0
 21 28  1  0  0  0  0
 21 22  1  0  0  0  0
 22 19  1  0  0  0  0
 23 22  2  0  0  0  0
 23 24  1  0  0  0  0
 25 23  1  0  0  0  0
 26 27  1  0  0  0  0
 26 25  2  0  0  0  0
 27 21  2  0  0  0  0
 29 28  1  0  0  0  0
 30 27  1  0  0  0  0
 31 30  1  0  0  0  0
M  END
>  <minimizedAffinity>
-4.81342936

>  <minimizedRMSD>
0.365714192

$$$$
