
 OpenBabel03252506343D

 35 37  0  0  1  0  0  0  0  0999 V2000
   44.4640   35.7320   45.0130 C   0  0  0  0  0  0  0  0  0  0  0  0
   45.1250   35.7070   43.7640 C   0  0  0  0  0  0  0  0  0  0  0  0
   46.0400   34.7280   43.5160 C   0  0  0  0  0  0  0  0  0  0  0  0
   46.2610   33.8220   44.5040 N   0  0  0  0  0  0  0  0  0  0  0  0
   45.6390   33.8510   45.6720 C   0  0  0  0  0  0  0  0  0  0  0  0
   44.7310   34.8050   45.9450 N   0  0  0  0  0  0  0  0  0  0  0  0
   45.9510   32.8560   46.6310 N   0  0  0  0  0  0  0  0  0  0  0  0
   45.1480   32.5430   47.8110 C   0  0  0  0  0  0  0  0  0  0  0  0
   46.2340   32.2700   48.8520 C   0  0  0  0  0  0  0  0  0  0  0  0
   47.5310   32.1640   48.1200 C   0  0  0  0  0  0  0  0  0  0  0  0
   47.0730   31.9510   46.6860 C   0  0  1  0  0  0  0  0  0  0  0  0
   43.7330   36.5030   45.2290 H   0  0  0  0  0  0  0  0  0  0  0  0
   46.5430   34.7140   42.5590 H   0  0  0  0  0  0  0  0  0  0  0  0
   44.6350   31.5960   47.5860 H   0  0  0  0  0  0  0  0  0  0  0  0
   44.4840   33.3550   48.1080 H   0  0  0  0  0  0  0  0  0  0  0  0
   45.9460   31.3480   49.4180 H   0  0  0  0  0  0  0  0  0  0  0  0
   46.2580   33.1030   49.5830 H   0  0  0  0  0  0  0  0  0  0  0  0
   48.2200   31.4100   48.4890 H   0  0  0  0  0  0  0  0  0  0  0  0
   48.0400   33.1710   48.1330 H   0  0  0  0  0  0  0  0  0  0  0  0
   47.9100   32.2650   46.0440 H   0  0  0  0  0  0  0  0  0  0  0  0
   44.7680   36.7440   42.8320 N   0  0  0  0  0  0  0  0  0  0  0  0
   45.6560   37.3070   42.7600 H   0  0  0  0  0  0  0  0  0  0  0  0
   43.8130   36.7940   42.4110 H   0  0  0  0  0  0  0  0  0  0  0  0
   46.5880   30.2390   46.4510 S   0  0  0  0  0  0  0  0  0  0  0  0
   48.5250   29.2050   44.5960 C   0  0  0  0  0  0  0  0  0  0  0  0
   47.2500   29.6010   44.9230 C   0  0  0  0  0  0  0  0  0  0  0  0
   46.2490   29.5130   43.9480 C   0  0  0  0  0  0  0  0  0  0  0  0
   45.1910   29.7860   44.0470 H   0  0  0  0  0  0  0  0  0  0  0  0
   46.5400   29.0330   42.6660 C   0  0  0  0  0  3  0  0  0  0  0  0
   47.8280   28.6430   42.3650 C   0  0  0  0  0  3  0  0  0  0  0  0
   48.8020   28.7390   43.3480 C   0  0  0  0  0  0  0  0  0  0  0  0
   49.4070   29.3440   45.6490 O   0  0  0  0  0  0  0  0  0  0  0  0
   50.3270   29.7720   45.5040 H   0  0  0  0  0  0  0  0  0  0  0  0
   50.1510   28.3780   43.1800 O   0  0  0  0  0  0  0  0  0  0  0  0
   50.4500   27.8270   42.3930 H   0  0  0  0  0  0  0  0  0  0  0  0
  1 12  1  0  0  0  0
  1  6  1  0  0  0  0
  2  1  2  0  0  0  0
  3  2  1  0  0  0  0
  3  4  2  0  0  0  0
  4  5  1  0  0  0  0
  5  6  2  0  0  0  0
  5  7  1  0  0  0  0
  7 11  1  0  0  0  0
  7  8  1  0  0  0  0
  8 15  1  0  0  0  0
  8  9  1  0  0  0  0
  9 16  1  0  0  0  0
  9 17  1  0  0  0  0
 10 19  1  0  0  0  0
 10 18  1  0  0  0  0
 10  9  1  0  0  0  0
 11 20  1  6  0  0  0
 11 10  1  0  0  0  0
 13  3  1  0  0  0  0
 14  8  1  0  0  0  0
 21  2  1  0  0  0  0
 22 21  1  0  0  0  0
 23 21  1  0  0  0  0
 24 11  1  0  0  0  0
 25 26  1  0  0  0  0
 25 32  1  0  0  0  0
 26 24  1  0  0  0  0
 27 28  1  0  0  0  0
 27 26  2  0  0  0  0
 29 27  1  0  0  0  0
 30 29  2  0  0  0  0
 30 31  1  0  0  0  0
 31 25  2  0  0  0  0
 33 32  1  0  0  0  0
 34 31  1  0  0  0  0
 35 34  1  0  0  0  0
M  END
>  <minimizedAffinity>
-4.89048576

>  <minimizedRMSD>
2.12694502

$$$$
