
 OpenBabel03242520133D

 36 38  0  0  0  0  0  0  0  0999 V2000
   46.2070   32.6450   46.7970 C   0  0  0  0  0  0  0  0  0  0  0  0
   45.3390   32.6650   47.8400 C   0  0  0  0  0  0  0  0  0  0  0  0
   45.5680   31.8380   48.9170 C   0  0  0  0  0  0  0  0  0  0  0  0
   46.6710   30.9980   48.9330 C   0  0  0  0  0  0  0  0  0  0  0  0
   47.5360   31.0080   47.8470 C   0  0  0  0  0  0  0  0  0  0  0  0
   47.2770   31.8100   46.8460 N   0  0  0  0  0  0  0  0  0  0  0  0
   44.4740   33.3410   47.7980 H   0  0  0  0  0  0  0  0  0  0  0  0
   44.8640   31.8670   49.7400 H   0  0  0  0  0  0  0  0  0  0  0  0
   46.8660   30.3420   49.7710 H   0  0  0  0  0  0  0  0  0  0  0  0
   44.8800   35.0950   44.4320 C   0  0  0  0  0  0  0  0  0  0  0  0
   45.8280   35.0190   43.3830 C   0  0  0  0  0  0  0  0  0  0  0  0
   46.9220   34.1220   43.4980 C   0  0  0  0  0  0  0  0  0  0  0  0
   46.9530   33.4080   44.6240 N   0  0  0  0  0  0  0  0  0  0  0  0
   46.0590   33.4820   45.6070 C   0  0  0  0  0  0  0  0  0  0  0  0
   45.0200   34.3320   45.5050 N   0  0  0  0  0  0  0  0  0  0  0  0
   43.8000   35.9950   44.3000 N   0  0  0  0  0  0  0  0  0  0  0  0
   45.7180   35.6440   42.5010 H   0  0  0  0  0  0  0  0  0  0  0  0
   47.6550   34.0550   42.7040 H   0  0  0  0  0  0  0  0  0  0  0  0
   43.7910   36.7160   43.5640 H   0  0  0  0  0  0  0  0  0  0  0  0
   42.9990   35.9240   44.9650 H   0  0  0  0  0  0  0  0  0  0  0  0
   48.7080   30.1400   47.8220 C   0  0  0  0  0  3  0  0  0  0  0  0
   49.6980   30.2370   48.7070 C   0  0  0  0  0  3  0  0  0  0  0  0
   49.6920   31.2330   49.7900 C   0  0  0  0  0  0  0  0  0  0  0  0
   48.6270   31.4020   50.0780 H   0  0  0  0  0  0  0  0  0  0  0  0
   50.0140   32.2110   49.3380 H   0  0  0  0  0  0  0  0  0  0  0  0
   50.5330   29.4810   51.1860 C   0  0  0  0  0  0  0  0  0  0  0  0
   50.5240   30.8480   50.9600 C   0  0  0  0  0  0  0  0  0  0  0  0
   51.2190   31.7460   51.7430 C   0  0  0  0  0  0  0  0  0  0  0  0
   51.1600   32.7940   51.5010 H   0  0  0  0  0  0  0  0  0  0  0  0
   51.9610   31.2290   52.8110 C   0  0  0  0  0  3  0  0  0  0  0  0
   51.9580   29.8670   53.0200 C   0  0  0  0  0  3  0  0  0  0  0  0
   51.2700   28.9570   52.2470 C   0  0  0  0  0  0  0  0  0  0  0  0
   49.8420   28.5550   50.4110 O   0  0  0  0  0  0  0  0  0  0  0  0
   50.3150   28.3050   49.5320 H   0  0  0  0  0  0  0  0  0  0  0  0
   51.2880   27.5930   52.4840 O   0  0  0  0  0  0  0  0  0  0  0  0
   51.8320   27.0210   51.8410 H   0  0  0  0  0  0  0  0  0  0  0  0
  1  6  2  0  0  0  0
  1  2  1  0  0  0  0
  2  3  2  0  0  0  0
  3  4  1  0  0  0  0
  3  8  1  0  0  0  0
  4  9  1  0  0  0  0
  5  4  2  0  0  0  0
  6  5  1  0  0  0  0
  7  2  1  0  0  0  0
 10 15  1  0  0  0  0
 11 12  1  0  0  0  0
 11 10  2  0  0  0  0
 12 13  2  0  0  0  0
 13 14  1  0  0  0  0
 14  1  1  0  0  0  0
 15 14  2  0  0  0  0
 16 10  1  0  0  0  0
 16 20  1  0  0  0  0
 17 11  1  0  0  0  0
 18 12  1  0  0  0  0
 19 16  1  0  0  0  0
 21  5  1  0  0  0  0
 21 22  2  0  0  0  0
 22 23  1  0  0  0  0
 23 24  1  0  0  0  0
 23 27  1  0  0  0  0
 25 23  1  0  0  0  0
 26 32  1  0  0  0  0
 27 26  2  0  0  0  0
 27 28  1  0  0  0  0
 28 30  2  0  0  0  0
 29 28  1  0  0  0  0
 30 31  1  0  0  0  0
 32 35  1  0  0  0  0
 32 31  2  0  0  0  0
 33 26  1  0  0  0  0
 34 33  1  0  0  0  0
 36 35  1  0  0  0  0
M  END
>  <minimizedAffinity>
-7.23513222

>  <minimizedRMSD>
0.849910617

$$$$
