
 OpenBabel03252507553D

 46 49  0  0  1  0  0  0  0  0999 V2000
   48.5400   33.2960   41.4280 C   0  0  2  0  0  0  0  0  0  0  0  0
   49.7040   33.8810   42.0740 C   0  0  0  0  0  0  0  0  0  0  0  0
   48.6050   33.2750   42.8890 C   0  0  1  0  0  0  0  0  0  0  0  0
   47.7950   33.9760   40.9750 H   0  0  0  0  0  0  0  0  0  0  0  0
   49.8450   34.9680   42.0810 H   0  0  0  0  0  0  0  0  0  0  0  0
   50.6690   33.3110   42.1340 H   0  0  0  0  0  0  0  0  0  0  0  0
   48.6320   32.2730   43.3290 H   0  0  0  0  0  0  0  0  0  0  0  0
   50.4830   31.1040   39.3310 C   0  0  2  0  0  0  0  0  0  0  0  0
   49.8140   32.1400   38.4250 C   0  0  0  0  0  0  0  0  0  0  0  0
   48.4530   32.1990   39.1510 C   0  0  0  0  0  0  0  0  0  0  0  0
   48.7850   32.0510   40.6050 C   0  0  1  0  0  0  0  0  0  0  0  0
   50.2570   31.7660   40.6630 C   0  0  0  0  0  0  0  0  0  0  0  0
   49.9770   30.1460   39.2180 H   0  0  0  0  0  0  0  0  0  0  0  0
   50.3610   33.0850   38.5110 H   0  0  0  0  0  0  0  0  0  0  0  0
   49.7080   31.7440   37.4120 H   0  0  0  0  0  0  0  0  0  0  0  0
   47.9020   31.3070   38.8140 H   0  0  0  0  0  0  0  0  0  0  0  0
   47.9580   33.1530   38.8870 H   0  0  0  0  0  0  0  0  0  0  0  0
   48.2030   31.2340   41.0800 H   0  0  0  0  0  0  0  0  0  0  0  0
   50.8950   32.6430   40.7760 H   0  0  0  0  0  0  0  0  0  0  0  0
   50.4240   31.0040   41.4600 H   0  0  0  0  0  0  0  0  0  0  0  0
   53.9010   31.4730   37.7910 C   0  0  0  0  0  0  0  0  0  0  0  0
   52.5470   31.7050   38.0090 C   0  0  0  0  0  0  0  0  0  0  0  0
   51.9330   30.9660   39.0150 C   0  0  0  0  0  0  0  0  0  0  0  0
   52.6690   30.0340   39.7610 N   0  0  0  0  0  0  0  0  0  0  0  0
   53.9880   29.8530   39.4990 C   0  0  0  0  0  0  0  0  0  0  0  0
   54.5950   30.5680   38.5230 N   0  0  0  0  0  0  0  0  0  0  0  0
   54.3890   32.0440   37.0110 H   0  0  0  0  0  0  0  0  0  0  0  0
   51.9680   32.4170   37.4460 H   0  0  0  0  0  0  0  0  0  0  0  0
   54.4650   29.1130   40.1280 H   0  0  0  0  0  0  0  0  0  0  0  0
   47.7560   34.1680   43.5890 O   0  0  0  0  0  0  0  0  0  0  0  0
   46.6530   31.8350   43.9610 O   0  0  0  0  0  0  0  0  0  0  0  0
   46.6340   33.2600   44.4500 P   0  0  1  0  0  0  0  0  0  0  0  0
   47.0520   33.2360   46.1140 O   0  0  0  0  0  0  0  0  0  0  0  0
   46.8330   34.1290   46.4710 H   0  0  0  0  0  0  0  0  0  0  0  0
   45.0760   33.8300   44.3550 O   0  0  0  0  0  0  0  0  0  0  0  0
   43.8760   33.3100   42.4780 C   0  0  0  0  0  0  0  0  0  0  0  0
   44.5530   34.2970   43.1680 C   0  0  0  0  0  0  0  0  0  0  0  0
   44.6150   35.5550   42.6100 C   0  0  0  0  0  0  0  0  0  0  0  0
   45.1680   36.2660   43.2230 H   0  0  0  0  0  0  0  0  0  0  0  0
   44.0190   35.8220   41.3990 C   0  0  0  0  0  3  0  0  0  0  0  0
   43.3420   34.8150   40.7190 C   0  0  0  0  0  3  0  0  0  0  0  0
   43.2660   33.5640   41.2500 C   0  0  0  0  0  0  0  0  0  0  0  0
   43.7240   31.9800   42.9130 O   0  0  0  0  0  0  0  0  0  0  0  0
   44.5280   31.4430   43.2160 H   0  0  0  0  0  0  0  0  0  0  0  0
   42.5770   32.6050   40.5240 O   0  0  0  0  0  0  0  0  0  0  0  0
   43.0910   31.9330   39.9860 H   0  0  0  0  0  0  0  0  0  0  0  0
  1  4  1  6  0  0  0
  1  2  1  0  0  0  0
  1  3  1  0  0  0  0
  2  5  1  0  0  0  0
  2  6  1  0  0  0  0
  2  3  1  0  0  0  0
  3  7  1  1  0  0  0
  3 30  1  0  0  0  0
  8 13  1  6  0  0  0
  8 12  1  0  0  0  0
  9 14  1  0  0  0  0
  9 10  1  0  0  0  0
  9  8  1  0  0  0  0
 10 11  1  0  0  0  0
 11 12  1  0  0  0  0
 11 18  1  1  0  0  0
 11  1  1  0  0  0  0
 12 19  1  0  0  0  0
 12 20  1  0  0  0  0
 15  9  1  0  0  0  0
 16 10  1  0  0  0  0
 17 10  1  0  0  0  0
 21 22  2  0  0  0  0
 21 26  1  0  0  0  0
 22 23  1  0  0  0  0
 23  8  1  0  0  0  0
 23 24  2  0  0  0  0
 25 24  1  0  0  0  0
 25 29  1  0  0  0  0
 26 25  2  0  0  0  0
 27 21  1  0  0  0  0
 28 22  1  0  0  0  0
 30 32  1  0  0  0  0
 32 31  2  6  0  0  0
 32 33  1  0  0  0  0
 33 34  1  0  0  0  0
 35 32  1  0  0  0  0
 36 43  1  0  0  0  0
 36 37  1  0  0  0  0
 37 35  1  0  0  0  0
 38 37  2  0  0  0  0
 38 39  1  0  0  0  0
 40 38  1  0  0  0  0
 41 42  1  0  0  0  0
 41 40  2  0  0  0  0
 42 36  2  0  0  0  0
 43 44  1  0  0  0  0
 45 42  1  0  0  0  0
 46 45  1  0  0  0  0
M  END
>  <minimizedAffinity>
-5.10664558

>  <minimizedRMSD>
9.3076458

$$$$
