
 OpenBabel03252505283D

 26 27  0  0  0  0  0  0  0  0999 V2000
   46.7870   31.1200   48.4890 O   0  0  0  0  0  0  0  0  0  0  0  0
   45.8410   31.6570   47.4130 P   0  0  1  0  0  0  0  0  0  0  0  0
   44.3820   32.1850   48.0680 O   0  0  0  0  0  0  0  0  0  0  0  0
   44.5390   32.9560   48.6830 H   0  0  0  0  0  0  0  0  0  0  0  0
   46.6650   32.9210   46.6530 O   0  0  0  0  0  0  0  0  0  0  0  0
   44.5820   35.3030   45.0360 C   0  0  0  0  0  0  0  0  0  0  0  0
   45.0730   35.3710   43.7080 C   0  0  0  0  0  0  0  0  0  0  0  0
   46.1600   34.5500   43.4090 C   0  0  0  0  0  0  0  0  0  0  0  0
   46.6600   33.7580   44.3940 N   0  0  0  0  0  0  0  0  0  0  0  0
   46.1610   33.7250   45.6440 C   0  0  0  0  0  0  0  0  0  0  0  0
   45.1110   34.5070   45.9660 N   0  0  0  0  0  0  0  0  0  0  0  0
   43.7320   35.9580   45.2380 H   0  0  0  0  0  0  0  0  0  0  0  0
   44.6550   36.0090   42.9530 H   0  0  0  0  0  0  0  0  0  0  0  0
   46.5830   34.5540   42.4160 H   0  0  0  0  0  0  0  0  0  0  0  0
   45.5110   30.3690   46.3720 O   0  0  0  0  0  0  0  0  0  0  0  0
   44.0320   28.6780   45.8580 C   0  0  0  0  0  0  0  0  0  0  0  0
   45.0060   29.1450   46.7210 C   0  0  0  0  0  0  0  0  0  0  0  0
   45.3430   28.3480   47.7950 C   0  0  0  0  0  0  0  0  0  0  0  0
   46.1160   28.7680   48.4390 H   0  0  0  0  0  0  0  0  0  0  0  0
   44.7410   27.1280   48.0170 C   0  0  0  0  0  3  0  0  0  0  0  0
   43.7620   26.6470   47.1590 C   0  0  0  0  0  3  0  0  0  0  0  0
   43.4170   27.4520   46.0690 C   0  0  0  0  0  0  0  0  0  0  0  0
   43.5620   29.3440   44.7200 O   0  0  0  0  0  0  0  0  0  0  0  0
   42.7840   30.0000   44.8130 H   0  0  0  0  0  0  0  0  0  0  0  0
   42.4390   26.9340   45.2420 O   0  0  0  0  0  0  0  0  0  0  0  0
   41.5850   27.4190   45.0100 H   0  0  0  0  0  0  0  0  0  0  0  0
  2  3  1  0  0  0  0
  2  1  2  1  0  0  0
  3  4  1  0  0  0  0
  5  2  1  0  0  0  0
  6 12  1  0  0  0  0
  6 11  1  0  0  0  0
  7  6  2  0  0  0  0
  8  7  1  0  0  0  0
  8  9  2  0  0  0  0
  9 10  1  0  0  0  0
 10 11  2  0  0  0  0
 10  5  1  0  0  0  0
 13  7  1  0  0  0  0
 14  8  1  0  0  0  0
 15 17  1  0  0  0  0
 15  2  1  0  0  0  0
 16 22  2  0  0  0  0
 16 17  1  0  0  0  0
 17 18  2  0  0  0  0
 18 20  1  0  0  0  0
 18 19  1  0  0  0  0
 21 20  2  0  0  0  0
 22 21  1  0  0  0  0
 23 24  1  0  0  0  0
 23 16  1  0  0  0  0
 25 22  1  0  0  0  0
 26 25  1  0  0  0  0
M  END
>  <minimizedAffinity>
-4.9861021

>  <minimizedRMSD>
1.40183079

$$$$
