
 OpenBabel03242522513D

 28 29  0  0  0  0  0  0  0  0999 V2000
   45.2340   30.6460   47.6970 O   0  0  0  0  0  0  0  0  0  0  0  0
   45.7860   31.9090   48.4120 P   0  0  2  0  0  0  0  0  0  0  0  0
   45.1860   31.8300   49.9810 O   0  0  0  0  0  0  0  0  0  0  0  0
   45.9210   31.8840   50.6400 H   0  0  0  0  0  0  0  0  0  0  0  0
   45.1560   33.2550   47.6100 O   0  0  0  0  0  0  0  0  0  0  0  0
   47.0290   33.1300   44.4960 C   0  0  0  0  0  0  0  0  0  0  0  0
   46.5910   32.8350   45.8110 C   0  0  0  0  0  0  0  0  0  0  0  0
   45.5530   33.5740   46.3270 C   0  0  0  0  0  0  0  0  0  0  0  0
   45.0080   34.5370   45.5570 N   0  0  0  0  0  0  0  0  0  0  0  0
   45.4180   34.8180   44.3170 C   0  0  0  0  0  0  0  0  0  0  0  0
   46.4300   34.1160   43.7820 N   0  0  0  0  0  0  0  0  0  0  0  0
   47.8390   32.6040   44.0040 H   0  0  0  0  0  0  0  0  0  0  0  0
   47.1520   32.0440   46.2360 H   0  0  0  0  0  0  0  0  0  0  0  0
   44.8970   35.6200   43.7940 H   0  0  0  0  0  0  0  0  0  0  0  0
   47.4400   31.8810   48.3730 O   0  0  0  0  0  0  0  0  0  0  0  0
   48.3530   30.9220   48.6140 C   0  0  0  0  0  0  0  0  0  0  0  0
   48.8000   30.9670   49.8550 O   0  0  0  0  0  0  0  0  0  0  0  0
   50.4660   29.7240   48.1630 C   0  0  0  0  0  0  0  0  0  0  0  0
   49.1260   29.7630   48.0460 C   0  0  0  0  0  0  0  0  0  0  0  0
   48.5050   28.7020   47.3670 C   0  0  0  0  0  0  0  0  0  0  0  0
   47.4070   28.8220   47.3220 H   0  0  0  0  0  0  0  0  0  0  0  0
   49.1090   27.6130   46.7990 C   0  0  0  0  0  3  0  0  0  0  0  0
   50.4540   27.6370   46.9530 C   0  0  0  0  0  3  0  0  0  0  0  0
   51.1370   28.6260   47.5980 C   0  0  0  0  0  0  0  0  0  0  0  0
   51.2880   30.6490   48.7850 O   0  0  0  0  0  0  0  0  0  0  0  0
   52.0450   30.4120   49.4140 H   0  0  0  0  0  0  0  0  0  0  0  0
   52.5180   28.5560   47.7000 O   0  0  0  0  0  0  0  0  0  0  0  0
   53.0500   29.4060   47.5470 H   0  0  0  0  0  0  0  0  0  0  0  0
  2  1  2  6  0  0  0
  2  3  1  0  0  0  0
  3  4  1  0  0  0  0
  5  2  1  0  0  0  0
  6  7  1  0  0  0  0
  7 13  1  0  0  0  0
  7  8  2  0  0  0  0
  8  5  1  0  0  0  0
  9  8  1  0  0  0  0
 10  9  2  0  0  0  0
 11 10  1  0  0  0  0
 11  6  2  0  0  0  0
 12  6  1  0  0  0  0
 14 10  1  0  0  0  0
 15  2  1  0  0  0  0
 15 16  1  0  0  0  0
 16 17  2  0  0  0  0
 18 25  1  0  0  0  0
 19 18  1  0  0  0  0
 19 16  1  0  0  0  0
 20 19  2  0  0  0  0
 21 20  1  0  0  0  0
 22 23  2  0  0  0  0
 22 20  1  0  0  0  0
 23 24  1  0  0  0  0
 24 27  1  0  0  0  0
 24 18  2  0  0  0  0
 25 26  1  0  0  0  0
 28 27  1  0  0  0  0
M  END
>  <minimizedAffinity>
-4.58977747

>  <minimizedRMSD>
0.882589161

$$$$
