
 OpenBabel03252507553D

 46 49  0  0  1  0  0  0  0  0999 V2000
   46.9920   32.2650   42.7350 C   0  0  2  0  0  0  0  0  0  0  0  0
   47.8290   31.8950   43.8650 C   0  0  0  0  0  0  0  0  0  0  0  0
   48.4410   32.2410   42.5440 C   0  0  1  0  0  0  0  0  0  0  0  0
   46.4120   31.4710   42.2300 H   0  0  0  0  0  0  0  0  0  0  0  0
   47.8560   30.8580   44.2180 H   0  0  0  0  0  0  0  0  0  0  0  0
   48.0600   32.6420   44.6710 H   0  0  0  0  0  0  0  0  0  0  0  0
   48.8830   33.2120   42.2950 H   0  0  0  0  0  0  0  0  0  0  0  0
   44.2170   34.4890   42.1560 C   0  0  2  0  0  0  0  0  0  0  0  0
   45.1720   34.6210   40.9680 C   0  0  0  0  0  0  0  0  0  0  0  0
   46.4960   34.5450   41.7600 C   0  0  0  0  0  0  0  0  0  0  0  0
   46.2300   33.5660   42.8630 C   0  0  1  0  0  0  0  0  0  0  0  0
   44.7700   33.2330   42.7730 C   0  0  0  0  0  0  0  0  0  0  0  0
   44.3050   35.3720   42.7880 H   0  0  0  0  0  0  0  0  0  0  0  0
   45.0410   33.7510   40.3150 H   0  0  0  0  0  0  0  0  0  0  0  0
   45.0490   35.5950   40.4900 H   0  0  0  0  0  0  0  0  0  0  0  0
   46.6350   35.5480   42.1930 H   0  0  0  0  0  0  0  0  0  0  0  0
   47.3030   34.2460   41.0630 H   0  0  0  0  0  0  0  0  0  0  0  0
   46.4810   33.9880   43.8580 H   0  0  0  0  0  0  0  0  0  0  0  0
   44.5300   32.3610   42.1640 H   0  0  0  0  0  0  0  0  0  0  0  0
   44.3750   33.1570   43.8130 H   0  0  0  0  0  0  0  0  0  0  0  0
   40.6230   35.0890   41.2010 C   0  0  0  0  0  0  0  0  0  0  0  0
   41.9180   35.3790   41.6180 C   0  0  0  0  0  0  0  0  0  0  0  0
   42.8090   34.3150   41.6990 C   0  0  0  0  0  0  0  0  0  0  0  0
   42.3960   33.0160   41.3690 N   0  0  0  0  0  0  0  0  0  0  0  0
   41.1170   32.7970   40.9690 C   0  0  0  0  0  0  0  0  0  0  0  0
   40.2430   33.8270   40.8860 N   0  0  0  0  0  0  0  0  0  0  0  0
   39.9220   35.9110   41.1330 H   0  0  0  0  0  0  0  0  0  0  0  0
   42.2510   36.3700   41.8750 H   0  0  0  0  0  0  0  0  0  0  0  0
   40.8990   31.7640   40.7380 H   0  0  0  0  0  0  0  0  0  0  0  0
   48.9780   31.1720   41.7840 O   0  0  0  0  0  0  0  0  0  0  0  0
   49.7280   30.8550   39.3070 O   0  0  0  0  0  0  0  0  0  0  0  0
   49.7880   31.8210   40.4630 P   0  0  1  0  0  0  0  0  0  0  0  0
   49.0230   33.2710   39.9590 O   0  0  0  0  0  0  0  0  0  0  0  0
   49.2500   33.9570   40.6310 H   0  0  0  0  0  0  0  0  0  0  0  0
   51.3800   32.1960   40.7550 O   0  0  0  0  0  0  0  0  0  0  0  0
   52.6780   30.4540   41.4740 C   0  0  0  0  0  0  0  0  0  0  0  0
   52.3950   31.3190   40.4360 C   0  0  0  0  0  0  0  0  0  0  0  0
   53.1260   31.2010   39.2730 C   0  0  0  0  0  0  0  0  0  0  0  0
   52.8340   31.9250   38.5100 H   0  0  0  0  0  0  0  0  0  0  0  0
   54.1100   30.2490   39.1490 C   0  0  0  0  0  3  0  0  0  0  0  0
   54.3800   29.3860   40.2070 C   0  0  0  0  0  3  0  0  0  0  0  0
   53.6730   29.4820   41.3660 C   0  0  0  0  0  0  0  0  0  0  0  0
   52.0230   30.4460   42.7200 O   0  0  0  0  0  0  0  0  0  0  0  0
   51.9140   31.3040   43.2490 H   0  0  0  0  0  0  0  0  0  0  0  0
   53.9890   28.5930   42.3810 O   0  0  0  0  0  0  0  0  0  0  0  0
   54.5560   28.9060   43.1470 H   0  0  0  0  0  0  0  0  0  0  0  0
  1  4  1  6  0  0  0
  1 11  1  0  0  0  0
  1  2  1  0  0  0  0
  2  5  1  0  0  0  0
  2  6  1  0  0  0  0
  3  7  1  6  0  0  0
  3  1  1  0  0  0  0
  3  2  1  0  0  0  0
  8 12  1  0  0  0  0
  8 13  1  1  0  0  0
  9 10  1  0  0  0  0
  9  8  1  0  0  0  0
 10 16  1  0  0  0  0
 10 11  1  0  0  0  0
 11 18  1  1  0  0  0
 12 11  1  0  0  0  0
 12 20  1  0  0  0  0
 14  9  1  0  0  0  0
 15  9  1  0  0  0  0
 17 10  1  0  0  0  0
 19 12  1  0  0  0  0
 21 22  1  0  0  0  0
 22 23  2  0  0  0  0
 22 28  1  0  0  0  0
 23  8  1  0  0  0  0
 24 23  1  0  0  0  0
 25 24  2  0  0  0  0
 26 25  1  0  0  0  0
 26 21  2  0  0  0  0
 27 21  1  0  0  0  0
 29 25  1  0  0  0  0
 30  3  1  0  0  0  0
 32 31  2  6  0  0  0
 32 35  1  0  0  0  0
 32 30  1  0  0  0  0
 33 32  1  0  0  0  0
 33 34  1  0  0  0  0
 36 43  1  0  0  0  0
 37 35  1  0  0  0  0
 37 36  2  0  0  0  0
 38 37  1  0  0  0  0
 39 38  1  0  0  0  0
 40 38  2  0  0  0  0
 40 41  1  0  0  0  0
 41 42  2  0  0  0  0
 42 36  1  0  0  0  0
 42 45  1  0  0  0  0
 43 44  1  0  0  0  0
 45 46  1  0  0  0  0
M  END
>  <minimizedAffinity>
-4.44321156

>  <minimizedRMSD>
4.28149748

$$$$
