
 OpenBabel03242514333D

 28 29  0  0  0  0  0  0  0  0999 V2000
   49.5840   35.4240   42.8180 O   0  0  0  0  0  0  0  0  0  0  0  0
   49.0910   34.2280   42.0600 P   0  0  1  0  0  0  0  0  0  0  0  0
   50.4270   33.2970   41.6510 O   0  0  0  0  0  0  0  0  0  0  0  0
   51.2080   33.8960   41.5310 H   0  0  0  0  0  0  0  0  0  0  0  0
   47.9980   33.3290   43.0230 O   0  0  0  0  0  0  0  0  0  0  0  0
   46.3060   35.0160   43.0210 C   0  0  0  0  0  0  0  0  0  0  0  0
   46.9240   33.9530   43.6590 C   0  0  0  0  0  0  0  0  0  0  0  0
   46.4430   33.5570   44.9080 C   0  0  0  0  0  0  0  0  0  0  0  0
   45.3870   34.2400   45.4350 N   0  0  0  0  0  0  0  0  0  0  0  0
   44.8130   35.2610   44.7930 C   0  0  0  0  0  0  0  0  0  0  0  0
   45.2740   35.6370   43.6010 N   0  0  0  0  0  0  0  0  0  0  0  0
   46.6260   35.3820   42.0450 H   0  0  0  0  0  0  0  0  0  0  0  0
   46.9370   32.7170   45.4040 H   0  0  0  0  0  0  0  0  0  0  0  0
   43.9930   35.6860   45.3540 H   0  0  0  0  0  0  0  0  0  0  0  0
   48.3360   34.7470   40.6650 O   0  0  0  0  0  0  0  0  0  0  0  0
   47.7920   33.9820   39.6980 C   0  0  0  0  0  0  0  0  0  0  0  0
   46.5150   33.8450   39.8670 O   0  0  0  0  0  0  0  0  0  0  0  0
   48.4560   31.9120   38.4950 C   0  0  0  0  0  0  0  0  0  0  0  0
   48.1800   33.2320   38.4680 C   0  0  0  0  0  0  0  0  0  0  0  0
   48.2520   33.9400   37.2610 C   0  0  0  0  0  0  0  0  0  0  0  0
   48.0220   35.0160   37.2620 H   0  0  0  0  0  0  0  0  0  0  0  0
   48.5910   33.3740   36.0640 C   0  0  0  0  0  3  0  0  0  0  0  0
   48.8760   32.0330   36.0690 C   0  0  0  0  0  3  0  0  0  0  0  0
   48.8040   31.3460   37.2620 C   0  0  0  0  0  0  0  0  0  0  0  0
   48.4080   31.1490   39.6430 O   0  0  0  0  0  0  0  0  0  0  0  0
   47.5030   30.9080   40.0690 H   0  0  0  0  0  0  0  0  0  0  0  0
   49.0890   29.9700   37.3050 O   0  0  0  0  0  0  0  0  0  0  0  0
   48.4690   29.3770   37.8460 H   0  0  0  0  0  0  0  0  0  0  0  0
  2  1  2  1  0  0  0
  2  5  1  0  0  0  0
  3  2  1  0  0  0  0
  4  3  1  0  0  0  0
  5  7  1  0  0  0  0
  6 11  2  0  0  0  0
  6  7  1  0  0  0  0
  7  8  2  0  0  0  0
  8 13  1  0  0  0  0
  8  9  1  0  0  0  0
 10 14  1  0  0  0  0
 10  9  2  0  0  0  0
 11 10  1  0  0  0  0
 12  6  1  0  0  0  0
 15  2  1  0  0  0  0
 16 17  2  0  0  0  0
 16 15  1  0  0  0  0
 18 25  1  0  0  0  0
 19 18  1  0  0  0  0
 19 16  1  0  0  0  0
 20 21  1  0  0  0  0
 20 19  2  0  0  0  0
 22 23  2  0  0  0  0
 22 20  1  0  0  0  0
 23 24  1  0  0  0  0
 24 27  1  0  0  0  0
 24 18  2  0  0  0  0
 25 26  1  0  0  0  0
 27 28  1  0  0  0  0
M  END
>  <minimizedAffinity>
-4.55051517

>  <minimizedRMSD>
1.26841509

$$$$
