
 OpenBabel03242513443D

 48 51  0  0  0  0  0  0  0  0999 V2000
   47.6990   31.0120   46.0030 C   0  0  0  0  0  0  0  0  0  0  0  0
   46.9780   32.0660   45.5310 C   0  0  0  0  0  0  0  0  0  0  0  0
   45.9820   32.5780   46.3300 C   0  0  0  0  0  0  0  0  0  0  0  0
   45.6820   32.0780   47.5760 C   0  0  0  0  0  0  0  0  0  0  0  0
   44.8040   32.3390   48.5710 N   0  0  0  0  0  0  0  0  0  0  0  0
   44.9970   31.4670   49.6010 C   0  0  0  0  0  0  0  0  0  0  0  0
   46.0070   30.6640   49.2280 N   0  0  0  0  0  0  0  0  0  0  0  0
   46.4270   31.0220   48.0120 C   0  0  0  0  0  0  0  0  0  0  0  0
   47.4310   30.4650   47.2680 C   0  0  0  0  0  0  0  0  0  0  0  0
   48.5080   30.5380   45.4430 H   0  0  0  0  0  0  0  0  0  0  0  0
   45.3800   33.4240   45.9890 H   0  0  0  0  0  0  0  0  0  0  0  0
   44.1030   33.1070   48.5050 H   0  0  0  0  0  0  0  0  0  0  0  0
   44.4220   31.4560   50.5330 H   0  0  0  0  0  0  0  0  0  0  0  0
   47.2020   34.4090   42.7330 C   0  0  0  0  0  0  0  0  0  0  0  0
   47.8080   33.6340   41.7260 C   0  0  0  0  0  0  0  0  0  0  0  0
   48.1230   32.3080   42.0580 C   0  0  0  0  0  0  0  0  0  0  0  0
   47.8390   31.8350   43.2990 N   0  0  0  0  0  0  0  0  0  0  0  0
   47.2600   32.6280   44.2140 C   0  0  0  0  0  0  0  0  0  0  0  0
   46.9370   33.8990   43.9570 N   0  0  0  0  0  0  0  0  0  0  0  0
   46.9390   35.4420   42.5210 H   0  0  0  0  0  0  0  0  0  0  0  0
   48.5920   31.7040   41.2820 H   0  0  0  0  0  0  0  0  0  0  0  0
   48.0700   34.2570   40.4080 C   0  0  0  0  0  0  0  0  0  0  0  0
   48.5630   35.5240   40.7110 F   0  0  0  0  0  0  0  0  0  0  0  0
   46.8780   34.4020   39.7560 F   0  0  0  0  0  0  0  0  0  0  0  0
   48.9780   33.4810   39.7180 F   0  0  0  0  0  0  0  0  0  0  0  0
   48.1640   29.3890   47.7540 O   0  0  0  0  0  0  0  0  0  0  0  0
   49.8200   28.0830   49.2680 O   0  0  0  0  0  0  0  0  0  0  0  0
   49.4640   29.4840   48.8150 P   0  0  2  0  0  0  0  0  0  0  0  0
   48.9120   30.3140   50.2000 O   0  0  0  0  0  0  0  0  0  0  0  0
   48.2770   29.7410   50.6940 H   0  0  0  0  0  0  0  0  0  0  0  0
   50.8030   30.2580   48.1900 O   0  0  0  0  0  0  0  0  0  0  0  0
   51.8520   30.4120   49.0550 C   0  0  0  0  0  0  0  0  0  0  0  0
   52.8180   30.0300   48.7430 H   0  0  0  0  0  0  0  0  0  0  0  0
   51.5820   29.8230   49.9800 H   0  0  0  0  0  0  0  0  0  0  0  0
   51.8840   31.9030   49.4430 C   0  0  0  0  0  0  0  0  0  0  0  0
   50.8340   32.1920   49.7000 H   0  0  0  0  0  0  0  0  0  0  0  0
   52.2540   32.5390   48.6450 H   0  0  0  0  0  0  0  0  0  0  0  0
   52.1080   31.8390   51.8360 C   0  0  0  0  0  0  0  0  0  0  0  0
   52.7780   32.0480   50.6280 C   0  0  0  0  0  0  0  0  0  0  0  0
   54.1200   32.3590   50.5950 C   0  0  0  0  0  0  0  0  0  0  0  0
   54.5670   32.5060   49.6090 H   0  0  0  0  0  0  0  0  0  0  0  0
   54.8290   32.4700   51.7960 C   0  0  0  0  0  3  0  0  0  0  0  0
   54.1590   32.2610   52.9960 C   0  0  0  0  0  3  0  0  0  0  0  0
   52.8170   31.9500   53.0330 C   0  0  0  0  0  0  0  0  0  0  0  0
   50.7770   31.5230   52.0260 O   0  0  0  0  0  0  0  0  0  0  0  0
   50.0820   31.3580   51.3390 H   0  0  0  0  0  0  0  0  0  0  0  0
   52.2240   31.7580   54.2960 O   0  0  0  0  0  0  0  0  0  0  0  0
   51.2240   31.5490   54.3630 H   0  0  0  0  0  0  0  0  0  0  0  0
  1  9  1  0  0  0  0
  2  1  2  0  0  0  0
  2  3  1  0  0  0  0
  3  4  2  0  0  0  0
  4  8  1  0  0  0  0
  4  5  1  0  0  0  0
  5  6  1  0  0  0  0
  6 13  1  0  0  0  0
  7  6  2  0  0  0  0
  8  7  1  0  0  0  0
  9 26  1  0  0  0  0
  9  8  2  0  0  0  0
 10  1  1  0  0  0  0
 11  3  1  0  0  0  0
 12  5  1  0  0  0  0
 14 19  1  0  0  0  0
 15 16  1  0  0  0  0
 15 14  2  0  0  0  0
 16 17  2  0  0  0  0
 17 18  1  0  0  0  0
 18  2  1  0  0  0  0
 19 18  2  0  0  0  0
 20 14  1  0  0  0  0
 21 16  1  0  0  0  0
 22 23  1  0  0  0  0
 22 15  1  0  0  0  0
 24 22  1  0  0  0  0
 25 22  1  0  0  0  0
 26 28  1  0  0  0  0
 28 27  2  1  0  0  0
 28 29  1  0  0  0  0
 29 30  1  0  0  0  0
 31 28  1  0  0  0  0
 31 32  1  0  0  0  0
 32 35  1  0  0  0  0
 32 34  1  0  0  0  0
 33 32  1  0  0  0  0
 35 36  1  0  0  0  0
 35 39  1  0  0  0  0
 37 35  1  0  0  0  0
 38 45  1  0  0  0  0
 38 44  1  0  0  0  0
 39 38  2  0  0  0  0
 40 39  1  0  0  0  0
 40 42  2  0  0  0  0
 41 40  1  0  0  0  0
 42 43  1  0  0  0  0
 43 44  2  0  0  0  0
 44 47  1  0  0  0  0
 46 45  1  0  0  0  0
 47 48  1  0  0  0  0
M  END
>  <minimizedAffinity>
-6.27249241

>  <minimizedRMSD>
0.387913972

$$$$
