
 OpenBabel03252509273D

 32 34  0  0  1  0  0  0  0  0999 V2000
   37.1750   26.7110   42.1580 C   0  0  1  0  0  0  0  0  0  0  0  0
   36.3100   27.2830   43.3190 C   0  0  0  0  0  0  0  0  0  0  0  0
   36.8890   28.0880   42.1270 C   0  0  2  0  0  0  0  0  0  0  0  0
   36.6390   25.9650   41.5470 H   0  0  0  0  0  0  0  0  0  0  0  0
   36.7610   27.3990   44.3040 H   0  0  0  0  0  0  0  0  0  0  0  0
   35.2460   27.0220   43.2650 H   0  0  0  0  0  0  0  0  0  0  0  0
   37.6110   28.8770   42.4970 H   0  0  0  0  0  0  0  0  0  0  0  0
   40.1140   24.5720   43.0800 C   0  0  0  0  0  0  0  0  0  0  0  0
   38.8110   24.9080   42.6140 C   0  0  0  0  0  0  0  0  0  0  0  0
   38.5070   26.2270   42.6780 C   0  0  0  0  0  0  0  0  0  0  0  0
   39.4020   27.1640   43.1620 N   0  0  0  0  0  0  0  0  0  0  0  0
   40.6290   26.7900   43.5920 C   0  0  0  0  0  0  0  0  0  0  0  0
   40.9840   25.4860   43.5480 N   0  0  0  0  0  0  0  0  0  0  0  0
   40.3960   23.5340   43.0430 H   0  0  0  0  0  0  0  0  0  0  0  0
   41.2080   27.6360   43.9380 H   0  0  0  0  0  0  0  0  0  0  0  0
   37.8930   23.9480   42.1450 N   0  0  0  0  0  0  0  0  0  0  0  0
   38.2680   23.1600   41.5570 H   0  0  0  0  0  0  0  0  0  0  0  0
   36.8740   24.0600   42.4040 H   0  0  0  0  0  0  0  0  0  0  0  0
   35.9380   28.6610   41.1090 C   0  0  0  0  0  0  0  0  0  0  0  0
   35.4160   27.7860   40.6570 H   0  0  0  0  0  0  0  0  0  0  0  0
   35.1500   29.2250   41.6590 H   0  0  0  0  0  0  0  0  0  0  0  0
   36.3680   30.8780   40.4890 C   0  0  0  0  0  0  0  0  0  0  0  0
   36.5310   29.5400   40.1060 C   0  0  0  0  0  0  0  0  0  0  0  0
   37.1890   29.3140   38.9170 C   0  0  0  0  0  0  0  0  0  0  0  0
   37.2730   28.2730   38.6930 H   0  0  0  0  0  0  0  0  0  0  0  0
   37.6690   30.3350   38.1320 C   0  0  0  0  0  3  0  0  0  0  0  0
   37.5010   31.6610   38.5240 C   0  0  0  0  0  3  0  0  0  0  0  0
   36.8490   31.9110   39.7030 C   0  0  0  0  0  0  0  0  0  0  0  0
   35.7390   31.3530   41.6450 O   0  0  0  0  0  0  0  0  0  0  0  0
   36.2080   31.1390   42.5220 H   0  0  0  0  0  0  0  0  0  0  0  0
   36.7350   33.2620   40.0020 O   0  0  0  0  0  0  0  0  0  0  0  0
   36.4680   33.4780   40.9730 H   0  0  0  0  0  0  0  0  0  0  0  0
  1  4  1  6  0  0  0
  1 10  1  0  0  0  0
  1  2  1  0  0  0  0
  2  5  1  0  0  0  0
  3  1  1  0  0  0  0
  3  7  1  1  0  0  0
  3  2  1  0  0  0  0
  6  2  1  0  0  0  0
  8 13  1  0  0  0  0
  9 10  1  0  0  0  0
  9  8  2  0  0  0  0
 10 11  2  0  0  0  0
 11 12  1  0  0  0  0
 12 15  1  0  0  0  0
 13 12  2  0  0  0  0
 14  8  1  0  0  0  0
 16 18  1  0  0  0  0
 16  9  1  0  0  0  0
 17 16  1  0  0  0  0
 19 21  1  0  0  0  0
 19  3  1  0  0  0  0
 20 19  1  0  0  0  0
 22 29  1  0  0  0  0
 23 22  1  0  0  0  0
 23 19  1  0  0  0  0
 24 23  2  0  0  0  0
 25 24  1  0  0  0  0
 26 27  2  0  0  0  0
 26 24  1  0  0  0  0
 27 28  1  0  0  0  0
 28 31  1  0  0  0  0
 28 22  2  0  0  0  0
 29 30  1  0  0  0  0
 31 32  1  0  0  0  0
M  END
>  <minimizedAffinity>
-6.46876764

$$$$

 OpenBabel03252509273D

 32 34  0  0  1  0  0  0  0  0999 V2000
   37.5360   27.6730   40.3810 C   0  0  1  0  0  0  0  0  0  0  0  0
   36.6260   26.5360   39.8320 C   0  0  0  0  0  0  0  0  0  0  0  0
   36.1480   27.8200   40.5560 C   0  0  2  0  0  0  0  0  0  0  0  0
   38.1060   28.1890   39.5900 H   0  0  0  0  0  0  0  0  0  0  0  0
   36.5920   25.5850   40.3630 H   0  0  0  0  0  0  0  0  0  0  0  0
   36.5240   26.5210   38.7400 H   0  0  0  0  0  0  0  0  0  0  0  0
   35.6160   27.5550   41.5200 H   0  0  0  0  0  0  0  0  0  0  0  0
   39.3040   27.3050   43.6670 C   0  0  0  0  0  0  0  0  0  0  0  0
   38.5210   27.9060   42.6420 C   0  0  0  0  0  0  0  0  0  0  0  0
   38.3930   27.1650   41.5160 C   0  0  0  0  0  0  0  0  0  0  0  0
   38.9850   25.9220   41.3840 N   0  0  0  0  0  0  0  0  0  0  0  0
   39.7190   25.3960   42.3910 C   0  0  0  0  0  0  0  0  0  0  0  0
   39.8770   26.0940   43.5380 N   0  0  0  0  0  0  0  0  0  0  0  0
   39.4280   27.8610   44.5810 H   0  0  0  0  0  0  0  0  0  0  0  0
   40.1130   24.4220   42.1350 H   0  0  0  0  0  0  0  0  0  0  0  0
   37.9400   29.1830   42.7700 N   0  0  0  0  0  0  0  0  0  0  0  0
   37.5280   29.4420   43.7030 H   0  0  0  0  0  0  0  0  0  0  0  0
   37.9440   29.8230   41.9270 H   0  0  0  0  0  0  0  0  0  0  0  0
   35.3710   28.8470   39.7760 C   0  0  0  0  0  0  0  0  0  0  0  0
   34.7720   28.2730   39.0340 H   0  0  0  0  0  0  0  0  0  0  0  0
   34.6270   29.3080   40.4670 H   0  0  0  0  0  0  0  0  0  0  0  0
   36.2960   30.9820   40.0520 C   0  0  0  0  0  0  0  0  0  0  0  0
   36.1590   29.9110   39.1590 C   0  0  0  0  0  0  0  0  0  0  0  0
   36.7630   30.0510   37.9300 C   0  0  0  0  0  0  0  0  0  0  0  0
   36.6140   29.1960   37.3060 H   0  0  0  0  0  0  0  0  0  0  0  0
   37.4700   31.1760   37.5770 C   0  0  0  0  0  3  0  0  0  0  0  0
   37.6000   32.2330   38.4740 C   0  0  0  0  0  3  0  0  0  0  0  0
   37.0070   32.1170   39.7040 C   0  0  0  0  0  0  0  0  0  0  0  0
   35.7760   31.0700   41.3480 O   0  0  0  0  0  0  0  0  0  0  0  0
   36.1740   30.4260   42.0280 H   0  0  0  0  0  0  0  0  0  0  0  0
   37.1950   33.2230   40.5220 O   0  0  0  0  0  0  0  0  0  0  0  0
   36.9720   33.0800   41.5170 H   0  0  0  0  0  0  0  0  0  0  0  0
  1  4  1  6  0  0  0
  1  3  1  0  0  0  0
  1 10  1  0  0  0  0
  2  5  1  0  0  0  0
  2  1  1  0  0  0  0
  2  3  1  0  0  0  0
  3  7  1  1  0  0  0
  6  2  1  0  0  0  0
  8 14  1  0  0  0  0
  9 16  1  0  0  0  0
  9  8  2  0  0  0  0
 10  9  1  0  0  0  0
 11 10  2  0  0  0  0
 11 12  1  0  0  0  0
 12 13  2  0  0  0  0
 13  8  1  0  0  0  0
 15 12  1  0  0  0  0
 16 17  1  0  0  0  0
 18 16  1  0  0  0  0
 19 21  1  0  0  0  0
 19  3  1  0  0  0  0
 20 19  1  0  0  0  0
 22 29  1  0  0  0  0
 23 19  1  0  0  0  0
 23 22  2  0  0  0  0
 24 23  1  0  0  0  0
 25 24  1  0  0  0  0
 26 24  2  0  0  0  0
 26 27  1  0  0  0  0
 27 28  2  0  0  0  0
 28 22  1  0  0  0  0
 28 31  1  0  0  0  0
 29 30  1  0  0  0  0
 31 32  1  0  0  0  0
M  END
>  <minimizedAffinity>
-5.97751951

$$$$

 OpenBabel03252509273D

 32 34  0  0  1  0  0  0  0  0999 V2000
   39.5440   32.4950   39.5580 C   0  0  1  0  0  0  0  0  0  0  0  0
   39.2760   32.9470   41.0230 C   0  0  0  0  0  0  0  0  0  0  0  0
   38.4750   33.3850   39.7700 C   0  0  2  0  0  0  0  0  0  0  0  0
   39.4100   31.4100   39.4110 H   0  0  0  0  0  0  0  0  0  0  0  0
   39.9600   33.6570   41.4880 H   0  0  0  0  0  0  0  0  0  0  0  0
   38.8140   32.1820   41.6590 H   0  0  0  0  0  0  0  0  0  0  0  0
   38.5630   34.5030   39.6160 H   0  0  0  0  0  0  0  0  0  0  0  0
   42.4270   33.5570   37.4100 C   0  0  0  0  0  0  0  0  0  0  0  0
   41.1680   32.9900   37.7550 C   0  0  0  0  0  0  0  0  0  0  0  0
   40.8770   33.0140   39.0780 C   0  0  0  0  0  0  0  0  0  0  0  0
   41.7470   33.5500   40.0110 N   0  0  0  0  0  0  0  0  0  0  0  0
   42.9320   34.0760   39.6280 C   0  0  0  0  0  0  0  0  0  0  0  0
   43.2710   34.0800   38.3190 N   0  0  0  0  0  0  0  0  0  0  0  0
   42.6950   33.5600   36.3670 H   0  0  0  0  0  0  0  0  0  0  0  0
   43.4960   34.4530   40.4710 H   0  0  0  0  0  0  0  0  0  0  0  0
   40.2950   32.4240   36.8050 N   0  0  0  0  0  0  0  0  0  0  0  0
   40.2020   32.9090   35.8760 H   0  0  0  0  0  0  0  0  0  0  0  0
   39.7760   31.5400   37.0660 H   0  0  0  0  0  0  0  0  0  0  0  0
   37.0460   32.9300   39.6280 C   0  0  0  0  0  0  0  0  0  0  0  0
   36.5750   33.0990   40.6230 H   0  0  0  0  0  0  0  0  0  0  0  0
   36.5330   33.6350   38.9330 H   0  0  0  0  0  0  0  0  0  0  0  0
   36.2210   30.7940   40.1210 C   0  0  0  0  0  0  0  0  0  0  0  0
   36.8550   31.5680   39.1400 C   0  0  0  0  0  0  0  0  0  0  0  0
   37.1620   30.9340   37.9560 C   0  0  0  0  0  0  0  0  0  0  0  0
   37.6420   31.5870   37.2600 H   0  0  0  0  0  0  0  0  0  0  0  0
   36.8700   29.6100   37.7290 C   0  0  0  0  0  3  0  0  0  0  0  0
   36.2400   28.8510   38.7130 C   0  0  0  0  0  3  0  0  0  0  0  0
   35.9240   29.4600   39.8990 C   0  0  0  0  0  0  0  0  0  0  0  0
   35.8140   31.2130   41.3920 O   0  0  0  0  0  0  0  0  0  0  0  0
   35.0570   31.8930   41.4110 H   0  0  0  0  0  0  0  0  0  0  0  0
   35.2990   28.6200   40.8100 O   0  0  0  0  0  0  0  0  0  0  0  0
   34.8430   29.0890   41.6040 H   0  0  0  0  0  0  0  0  0  0  0  0
  1  4  1  6  0  0  0
  1  3  1  0  0  0  0
  1  2  1  0  0  0  0
  2  5  1  0  0  0  0
  2  6  1  0  0  0  0
  3  7  1  6  0  0  0
  3  2  1  0  0  0  0
  8  9  2  0  0  0  0
  8 13  1  0  0  0  0
  9 10  1  0  0  0  0
 10  1  1  0  0  0  0
 10 11  2  0  0  0  0
 12 11  1  0  0  0  0
 12 15  1  0  0  0  0
 13 12  2  0  0  0  0
 14  8  1  0  0  0  0
 16 18  1  0  0  0  0
 16  9  1  0  0  0  0
 17 16  1  0  0  0  0
 19  3  1  0  0  0  0
 19 20  1  0  0  0  0
 21 19  1  0  0  0  0
 22 29  1  0  0  0  0
 23 19  1  0  0  0  0
 23 22  2  0  0  0  0
 24 23  1  0  0  0  0
 25 24  1  0  0  0  0
 26 24  2  0  0  0  0
 26 27  1  0  0  0  0
 27 28  2  0  0  0  0
 28 22  1  0  0  0  0
 28 31  1  0  0  0  0
 29 30  1  0  0  0  0
 31 32  1  0  0  0  0
M  END
>  <minimizedAffinity>
-5.91146898

$$$$

 OpenBabel03252509273D

 32 34  0  0  1  0  0  0  0  0999 V2000
   36.7250   29.5260   40.9590 C   0  0  1  0  0  0  0  0  0  0  0  0
   35.3220   28.9000   40.7100 C   0  0  0  0  0  0  0  0  0  0  0  0
   36.6180   28.1270   41.0630 C   0  0  2  0  0  0  0  0  0  0  0  0
   36.7470   30.1990   41.8330 H   0  0  0  0  0  0  0  0  0  0  0  0
   34.9400   28.8540   39.6900 H   0  0  0  0  0  0  0  0  0  0  0  0
   34.6040   29.0520   41.5240 H   0  0  0  0  0  0  0  0  0  0  0  0
   36.8990   27.4220   40.2220 H   0  0  0  0  0  0  0  0  0  0  0  0
   37.8010   31.9840   38.3410 C   0  0  0  0  0  0  0  0  0  0  0  0
   37.2190   31.4990   39.5460 C   0  0  0  0  0  0  0  0  0  0  0  0
   37.2590   30.1530   39.6940 C   0  0  0  0  0  0  0  0  0  0  0  0
   37.8220   29.3250   38.7400 N   0  0  0  0  0  0  0  0  0  0  0  0
   38.3620   29.8390   37.6120 C   0  0  0  0  0  0  0  0  0  0  0  0
   38.3510   31.1770   37.4140 N   0  0  0  0  0  0  0  0  0  0  0  0
   37.7930   33.0490   38.1850 H   0  0  0  0  0  0  0  0  0  0  0  0
   38.7600   29.0660   36.9680 H   0  0  0  0  0  0  0  0  0  0  0  0
   36.6240   32.3420   40.5040 N   0  0  0  0  0  0  0  0  0  0  0  0
   37.0940   33.2620   40.7050 H   0  0  0  0  0  0  0  0  0  0  0  0
   35.7360   32.0160   40.9770 H   0  0  0  0  0  0  0  0  0  0  0  0
   36.7110   27.4380   42.3990 C   0  0  0  0  0  0  0  0  0  0  0  0
   36.1680   28.0950   43.1160 H   0  0  0  0  0  0  0  0  0  0  0  0
   36.1090   26.5010   42.3400 H   0  0  0  0  0  0  0  0  0  0  0  0
   38.2470   25.7150   42.8000 C   0  0  0  0  0  0  0  0  0  0  0  0
   38.0570   27.1020   42.8530 C   0  0  0  0  0  0  0  0  0  0  0  0
   39.1220   27.8550   43.2970 C   0  0  0  0  0  0  0  0  0  0  0  0
   38.9010   28.9000   43.3090 H   0  0  0  0  0  0  0  0  0  0  0  0
   40.3180   27.2930   43.6740 C   0  0  0  0  0  3  0  0  0  0  0  0
   40.4940   25.9120   43.6170 C   0  0  0  0  0  3  0  0  0  0  0  0
   39.4490   25.1420   43.1780 C   0  0  0  0  0  0  0  0  0  0  0  0
   37.3190   24.7540   42.3860 O   0  0  0  0  0  0  0  0  0  0  0  0
   37.0700   24.7760   41.4000 H   0  0  0  0  0  0  0  0  0  0  0  0
   39.7260   23.7820   43.1580 O   0  0  0  0  0  0  0  0  0  0  0  0
   39.0630   23.2040   42.6230 H   0  0  0  0  0  0  0  0  0  0  0  0
  1  3  1  0  0  0  0
  1  4  1  1  0  0  0
  2  1  1  0  0  0  0
  2  3  1  0  0  0  0
  2  6  1  0  0  0  0
  3  7  1  6  0  0  0
  3 19  1  0  0  0  0
  5  2  1  0  0  0  0
  8  9  1  0  0  0  0
  9 10  2  0  0  0  0
  9 16  1  0  0  0  0
 10  1  1  0  0  0  0
 11 10  1  0  0  0  0
 12 11  2  0  0  0  0
 13 12  1  0  0  0  0
 13  8  2  0  0  0  0
 14  8  1  0  0  0  0
 15 12  1  0  0  0  0
 16 17  1  0  0  0  0
 16 18  1  0  0  0  0
 19 23  1  0  0  0  0
 19 20  1  0  0  0  0
 21 19  1  0  0  0  0
 22 23  2  0  0  0  0
 22 28  1  0  0  0  0
 23 24  1  0  0  0  0
 24 25  1  0  0  0  0
 24 26  2  0  0  0  0
 27 26  1  0  0  0  0
 28 27  2  0  0  0  0
 29 22  1  0  0  0  0
 30 29  1  0  0  0  0
 31 28  1  0  0  0  0
 32 31  1  0  0  0  0
M  END
>  <minimizedAffinity>
-5.79944754

$$$$

 OpenBabel03252509273D

 32 34  0  0  1  0  0  0  0  0999 V2000
   37.8390   29.1650   39.7410 C   0  0  1  0  0  0  0  0  0  0  0  0
   37.6560   28.5440   38.3260 C   0  0  0  0  0  0  0  0  0  0  0  0
   36.8090   29.6890   38.9390 C   0  0  2  0  0  0  0  0  0  0  0  0
   38.8170   29.6590   39.8720 H   0  0  0  0  0  0  0  0  0  0  0  0
   37.2180   27.5500   38.2400 H   0  0  0  0  0  0  0  0  0  0  0  0
   38.4220   28.8360   37.5970 H   0  0  0  0  0  0  0  0  0  0  0  0
   35.7270   29.3700   39.0380 H   0  0  0  0  0  0  0  0  0  0  0  0
   36.6530   27.5060   42.8870 C   0  0  0  0  0  0  0  0  0  0  0  0
   36.9600   28.5540   41.9750 C   0  0  0  0  0  0  0  0  0  0  0  0
   37.5230   28.1490   40.8110 C   0  0  0  0  0  0  0  0  0  0  0  0
   37.7760   26.8150   40.5440 N   0  0  0  0  0  0  0  0  0  0  0  0
   37.4640   25.8580   41.4470 C   0  0  0  0  0  0  0  0  0  0  0  0
   36.8980   26.2090   42.6240 N   0  0  0  0  0  0  0  0  0  0  0  0
   36.2020   27.7860   43.8240 H   0  0  0  0  0  0  0  0  0  0  0  0
   37.7230   24.8700   41.0910 H   0  0  0  0  0  0  0  0  0  0  0  0
   36.7240   29.9130   42.2600 N   0  0  0  0  0  0  0  0  0  0  0  0
   35.8350   30.1590   42.7680 H   0  0  0  0  0  0  0  0  0  0  0  0
   37.4460   30.6230   41.9540 H   0  0  0  0  0  0  0  0  0  0  0  0
   36.9130   31.0680   38.3430 C   0  0  0  0  0  0  0  0  0  0  0  0
   36.7880   30.9330   37.2450 H   0  0  0  0  0  0  0  0  0  0  0  0
   36.0210   31.6500   38.6740 H   0  0  0  0  0  0  0  0  0  0  0  0
   37.8950   32.5770   39.8420 C   0  0  0  0  0  0  0  0  0  0  0  0
   38.1170   31.8210   38.6830 C   0  0  0  0  0  0  0  0  0  0  0  0
   39.3650   31.9210   38.1100 C   0  0  0  0  0  0  0  0  0  0  0  0
   39.4570   31.3180   37.2320 H   0  0  0  0  0  0  0  0  0  0  0  0
   40.3570   32.7160   38.6330 C   0  0  0  0  0  3  0  0  0  0  0  0
   40.1250   33.4620   39.7850 C   0  0  0  0  0  3  0  0  0  0  0  0
   38.8900   33.3790   40.3740 C   0  0  0  0  0  0  0  0  0  0  0  0
   36.7180   32.6380   40.5950 O   0  0  0  0  0  0  0  0  0  0  0  0
   36.4600   31.7810   41.0810 H   0  0  0  0  0  0  0  0  0  0  0  0
   38.7610   34.1590   41.5150 O   0  0  0  0  0  0  0  0  0  0  0  0
   37.9450   33.9460   42.1060 H   0  0  0  0  0  0  0  0  0  0  0  0
  1  4  1  1  0  0  0
  1 10  1  0  0  0  0
  2  3  1  0  0  0  0
  2  1  1  0  0  0  0
  3  7  1  1  0  0  0
  3  1  1  0  0  0  0
  5  2  1  0  0  0  0
  6  2  1  0  0  0  0
  8 14  1  0  0  0  0
  9 16  1  0  0  0  0
  9  8  2  0  0  0  0
 10  9  1  0  0  0  0
 11 10  2  0  0  0  0
 11 12  1  0  0  0  0
 12 13  2  0  0  0  0
 13  8  1  0  0  0  0
 15 12  1  0  0  0  0
 16 17  1  0  0  0  0
 18 16  1  0  0  0  0
 19 21  1  0  0  0  0
 19 23  1  0  0  0  0
 19  3  1  0  0  0  0
 20 19  1  0  0  0  0
 22 28  1  0  0  0  0
 22 29  1  0  0  0  0
 23 22  2  0  0  0  0
 24 26  2  0  0  0  0
 24 23  1  0  0  0  0
 25 24  1  0  0  0  0
 26 27  1  0  0  0  0
 27 28  2  0  0  0  0
 28 31  1  0  0  0  0
 29 30  1  0  0  0  0
 31 32  1  0  0  0  0
M  END
>  <minimizedAffinity>
-5.70506811

$$$$

 OpenBabel03252509273D

 32 34  0  0  1  0  0  0  0  0999 V2000
   38.5270   32.1440   39.5540 C   0  0  1  0  0  0  0  0  0  0  0  0
   37.2960   32.9800   39.0960 C   0  0  0  0  0  0  0  0  0  0  0  0
   37.6350   31.5330   38.6540 C   0  0  2  0  0  0  0  0  0  0  0  0
   38.5300   31.9400   40.6380 H   0  0  0  0  0  0  0  0  0  0  0  0
   37.4480   33.7970   38.3910 H   0  0  0  0  0  0  0  0  0  0  0  0
   36.5120   33.0900   39.8550 H   0  0  0  0  0  0  0  0  0  0  0  0
   37.8160   31.4940   37.5370 H   0  0  0  0  0  0  0  0  0  0  0  0
   41.6760   34.1590   39.2590 C   0  0  0  0  0  0  0  0  0  0  0  0
   40.4510   33.6840   39.8070 C   0  0  0  0  0  0  0  0  0  0  0  0
   39.8070   32.7640   39.0480 C   0  0  0  0  0  0  0  0  0  0  0  0
   40.3110   32.3300   37.8360 N   0  0  0  0  0  0  0  0  0  0  0  0
   41.4810   32.8140   37.3610 C   0  0  0  0  0  0  0  0  0  0  0  0
   42.1650   33.7330   38.0800 N   0  0  0  0  0  0  0  0  0  0  0  0
   42.2200   34.8890   39.8320 H   0  0  0  0  0  0  0  0  0  0  0  0
   41.7390   32.3780   36.4050 H   0  0  0  0  0  0  0  0  0  0  0  0
   39.9270   34.1460   41.0300 N   0  0  0  0  0  0  0  0  0  0  0  0
   40.6040   34.3180   41.8180 H   0  0  0  0  0  0  0  0  0  0  0  0
   38.8840   34.3010   41.1030 H   0  0  0  0  0  0  0  0  0  0  0  0
   36.7340   30.4090   39.0950 C   0  0  0  0  0  0  0  0  0  0  0  0
   35.8260   30.8980   39.5150 H   0  0  0  0  0  0  0  0  0  0  0  0
   36.3880   29.8730   38.1810 H   0  0  0  0  0  0  0  0  0  0  0  0
   36.8280   29.6420   41.3060 C   0  0  0  0  0  0  0  0  0  0  0  0
   37.3250   29.4400   40.0120 C   0  0  0  0  0  0  0  0  0  0  0  0
   38.2320   28.4150   39.8520 C   0  0  0  0  0  0  0  0  0  0  0  0
   38.5640   28.3230   38.8410 H   0  0  0  0  0  0  0  0  0  0  0  0
   38.6400   27.6190   40.8960 C   0  0  0  0  0  3  0  0  0  0  0  0
   38.1380   27.8300   42.1780 C   0  0  0  0  0  3  0  0  0  0  0  0
   37.2340   28.8450   42.3620 C   0  0  0  0  0  0  0  0  0  0  0  0
   35.9050   30.6120   41.7120 O   0  0  0  0  0  0  0  0  0  0  0  0
   34.9620   30.5050   41.3450 H   0  0  0  0  0  0  0  0  0  0  0  0
   36.7960   28.9710   43.6730 O   0  0  0  0  0  0  0  0  0  0  0  0
   35.9580   29.5550   43.8040 H   0  0  0  0  0  0  0  0  0  0  0  0
  1  4  1  1  0  0  0
  2  1  1  0  0  0  0
  2  6  1  0  0  0  0
  3  7  1  6  0  0  0
  3 19  1  0  0  0  0
  3  2  1  0  0  0  0
  3  1  1  0  0  0  0
  5  2  1  0  0  0  0
  8  9  1  0  0  0  0
  8 14  1  0  0  0  0
  9 16  1  0  0  0  0
 10  1  1  0  0  0  0
 10  9  2  0  0  0  0
 11 10  1  0  0  0  0
 12 11  2  0  0  0  0
 12 13  1  0  0  0  0
 13  8  2  0  0  0  0
 15 12  1  0  0  0  0
 16 18  1  0  0  0  0
 16 17  1  0  0  0  0
 19 20  1  0  0  0  0
 19 23  1  0  0  0  0
 21 19  1  0  0  0  0
 22 29  1  0  0  0  0
 22 28  1  0  0  0  0
 23 22  2  0  0  0  0
 24 23  1  0  0  0  0
 24 26  2  0  0  0  0
 25 24  1  0  0  0  0
 26 27  1  0  0  0  0
 27 28  2  0  0  0  0
 28 31  1  0  0  0  0
 30 29  1  0  0  0  0
 31 32  1  0  0  0  0
M  END
>  <minimizedAffinity>
-5.68093967

$$$$

 OpenBabel03252509273D

 32 34  0  0  1  0  0  0  0  0999 V2000
   37.7230   26.5140   41.7470 C   0  0  1  0  0  0  0  0  0  0  0  0
   38.9130   27.2320   41.0470 C   0  0  0  0  0  0  0  0  0  0  0  0
   37.4680   27.7770   41.1810 C   0  0  2  0  0  0  0  0  0  0  0  0
   37.8890   26.3550   42.8260 H   0  0  0  0  0  0  0  0  0  0  0  0
   39.2530   26.8660   40.0790 H   0  0  0  0  0  0  0  0  0  0  0  0
   39.6610   27.6490   41.7330 H   0  0  0  0  0  0  0  0  0  0  0  0
   37.0010   27.9120   40.1580 H   0  0  0  0  0  0  0  0  0  0  0  0
   37.3530   22.9410   40.6750 C   0  0  0  0  0  0  0  0  0  0  0  0
   37.8180   24.0610   41.4190 C   0  0  0  0  0  0  0  0  0  0  0  0
   37.3460   25.2590   40.9980 C   0  0  0  0  0  0  0  0  0  0  0  0
   36.4810   25.3710   39.9240 N   0  0  0  0  0  0  0  0  0  0  0  0
   36.0700   24.2720   39.2510 C   0  0  0  0  0  0  0  0  0  0  0  0
   36.5100   23.0520   39.6310 N   0  0  0  0  0  0  0  0  0  0  0  0
   37.7030   21.9690   40.9790 H   0  0  0  0  0  0  0  0  0  0  0  0
   35.3990   24.5250   38.4410 H   0  0  0  0  0  0  0  0  0  0  0  0
   38.7180   23.9460   42.4970 N   0  0  0  0  0  0  0  0  0  0  0  0
   38.5920   23.1340   43.1540 H   0  0  0  0  0  0  0  0  0  0  0  0
   39.4770   24.6760   42.5970 H   0  0  0  0  0  0  0  0  0  0  0  0
   37.2250   28.9830   42.0500 C   0  0  0  0  0  0  0  0  0  0  0  0
   36.1210   29.1290   42.0610 H   0  0  0  0  0  0  0  0  0  0  0  0
   37.5000   28.7100   43.0950 H   0  0  0  0  0  0  0  0  0  0  0  0
   37.0770   31.0980   41.0530 C   0  0  0  0  0  0  0  0  0  0  0  0
   37.9480   30.1950   41.6760 C   0  0  0  0  0  0  0  0  0  0  0  0
   39.2580   30.5980   41.8160 C   0  0  0  0  0  0  0  0  0  0  0  0
   39.8590   29.8580   42.2990 H   0  0  0  0  0  0  0  0  0  0  0  0
   39.7070   31.8200   41.3750 C   0  0  0  0  0  3  0  0  0  0  0  0
   38.8300   32.7080   40.7570 C   0  0  0  0  0  3  0  0  0  0  0  0
   37.5220   32.3300   40.6060 C   0  0  0  0  0  0  0  0  0  0  0  0
   35.7130   30.9140   40.8010 O   0  0  0  0  0  0  0  0  0  0  0  0
   35.1130   30.8730   41.6220 H   0  0  0  0  0  0  0  0  0  0  0  0
   36.7320   33.2840   39.9800 O   0  0  0  0  0  0  0  0  0  0  0  0
   35.7160   33.1390   40.0590 H   0  0  0  0  0  0  0  0  0  0  0  0
  1  4  1  1  0  0  0
  2  3  1  0  0  0  0
  2  6  1  0  0  0  0
  2  1  1  0  0  0  0
  3  7  1  6  0  0  0
  3  1  1  0  0  0  0
  3 19  1  0  0  0  0
  5  2  1  0  0  0  0
  8 14  1  0  0  0  0
  8  9  1  0  0  0  0
  9 16  1  0  0  0  0
 10  9  2  0  0  0  0
 10  1  1  0  0  0  0
 11 10  1  0  0  0  0
 12 13  1  0  0  0  0
 12 11  2  0  0  0  0
 13  8  2  0  0  0  0
 15 12  1  0  0  0  0
 16 18  1  0  0  0  0
 16 17  1  0  0  0  0
 19 20  1  0  0  0  0
 19 21  1  0  0  0  0
 22 23  1  0  0  0  0
 23 24  2  0  0  0  0
 23 19  1  0  0  0  0
 24 25  1  0  0  0  0
 26 24  1  0  0  0  0
 27 26  2  0  0  0  0
 28 27  1  0  0  0  0
 28 22  2  0  0  0  0
 29 22  1  0  0  0  0
 29 30  1  0  0  0  0
 31 32  1  0  0  0  0
 31 28  1  0  0  0  0
M  END
>  <minimizedAffinity>
-5.34917831

$$$$

 OpenBabel03252509273D

 32 34  0  0  1  0  0  0  0  0999 V2000
   37.7200   30.3790   38.1300 C   0  0  1  0  0  0  0  0  0  0  0  0
   37.8010   31.7760   37.4480 C   0  0  0  0  0  0  0  0  0  0  0  0
   36.9250   31.4050   38.6720 C   0  0  2  0  0  0  0  0  0  0  0  0
   38.6800   30.0580   38.5690 H   0  0  0  0  0  0  0  0  0  0  0  0
   37.3230   31.9170   36.4790 H   0  0  0  0  0  0  0  0  0  0  0  0
   38.7240   32.3310   37.6550 H   0  0  0  0  0  0  0  0  0  0  0  0
   35.8280   31.5320   38.4250 H   0  0  0  0  0  0  0  0  0  0  0  0
   37.2360   27.5830   35.6790 C   0  0  0  0  0  0  0  0  0  0  0  0
   37.9180   28.5350   36.4880 C   0  0  0  0  0  0  0  0  0  0  0  0
   37.1110   29.3650   37.1910 C   0  0  0  0  0  0  0  0  0  0  0  0
   35.7320   29.2840   37.1190 N   0  0  0  0  0  0  0  0  0  0  0  0
   35.1350   28.3590   36.3340 C   0  0  0  0  0  0  0  0  0  0  0  0
   35.8940   27.5040   35.6120 N   0  0  0  0  0  0  0  0  0  0  0  0
   37.8410   26.9020   35.1050 H   0  0  0  0  0  0  0  0  0  0  0  0
   34.0560   28.4240   36.3870 H   0  0  0  0  0  0  0  0  0  0  0  0
   39.3220   28.6310   36.5400 N   0  0  0  0  0  0  0  0  0  0  0  0
   39.8740   27.7350   36.5380 H   0  0  0  0  0  0  0  0  0  0  0  0
   39.7580   29.5940   36.5780 H   0  0  0  0  0  0  0  0  0  0  0  0
   37.2520   32.0160   40.0100 C   0  0  0  0  0  0  0  0  0  0  0  0
   37.8330   32.9390   39.7860 H   0  0  0  0  0  0  0  0  0  0  0  0
   36.2970   32.3690   40.4640 H   0  0  0  0  0  0  0  0  0  0  0  0
   36.9970   30.3020   41.5860 C   0  0  0  0  0  0  0  0  0  0  0  0
   37.9290   31.1420   40.9630 C   0  0  0  0  0  0  0  0  0  0  0  0
   39.2450   30.9940   41.3430 C   0  0  0  0  0  0  0  0  0  0  0  0
   39.8930   31.6670   40.8260 H   0  0  0  0  0  0  0  0  0  0  0  0
   39.6430   30.0740   42.2830 C   0  0  0  0  0  3  0  0  0  0  0  0
   38.7070   29.2450   42.8950 C   0  0  0  0  0  3  0  0  0  0  0  0
   37.3910   29.3730   42.5340 C   0  0  0  0  0  0  0  0  0  0  0  0
   35.6160   30.2670   41.3660 O   0  0  0  0  0  0  0  0  0  0  0  0
   35.3230   29.9420   40.4470 H   0  0  0  0  0  0  0  0  0  0  0  0
   36.5410   28.5020   43.1990 O   0  0  0  0  0  0  0  0  0  0  0  0
   35.6000   28.4070   42.7930 H   0  0  0  0  0  0  0  0  0  0  0  0
  1  4  1  1  0  0  0
  1  3  1  0  0  0  0
  2  6  1  0  0  0  0
  2  1  1  0  0  0  0
  2  3  1  0  0  0  0
  3  7  1  6  0  0  0
  3 19  1  0  0  0  0
  5  2  1  0  0  0  0
  8  9  1  0  0  0  0
  9 16  1  0  0  0  0
  9 10  2  0  0  0  0
 10  1  1  0  0  0  0
 11 10  1  0  0  0  0
 12 15  1  0  0  0  0
 12 11  2  0  0  0  0
 13  8  2  0  0  0  0
 13 12  1  0  0  0  0
 14  8  1  0  0  0  0
 16 18  1  0  0  0  0
 17 16  1  0  0  0  0
 19 21  1  0  0  0  0
 19 23  1  0  0  0  0
 20 19  1  0  0  0  0
 22 28  1  0  0  0  0
 23 24  1  0  0  0  0
 23 22  2  0  0  0  0
 24 26  2  0  0  0  0
 25 24  1  0  0  0  0
 26 27  1  0  0  0  0
 28 27  2  0  0  0  0
 28 31  1  0  0  0  0
 29 22  1  0  0  0  0
 30 29  1  0  0  0  0
 32 31  1  0  0  0  0
M  END
>  <minimizedAffinity>
-5.32630157

$$$$

 OpenBabel03252509273D

 32 34  0  0  1  0  0  0  0  0999 V2000
   38.4410   30.7020   41.6790 C   0  0  1  0  0  0  0  0  0  0  0  0
   36.9710   30.3220   41.3390 C   0  0  0  0  0  0  0  0  0  0  0  0
   38.1060   29.3360   41.7150 C   0  0  2  0  0  0  0  0  0  0  0  0
   38.5260   31.3290   42.5830 H   0  0  0  0  0  0  0  0  0  0  0  0
   36.6390   30.3770   40.3030 H   0  0  0  0  0  0  0  0  0  0  0  0
   36.2450   30.5580   42.1270 H   0  0  0  0  0  0  0  0  0  0  0  0
   38.3130   28.6270   40.8560 H   0  0  0  0  0  0  0  0  0  0  0  0
   40.0480   33.0460   39.2350 C   0  0  0  0  0  0  0  0  0  0  0  0
   39.3370   32.6180   40.3900 C   0  0  0  0  0  0  0  0  0  0  0  0
   39.1330   31.2810   40.4690 C   0  0  0  0  0  0  0  0  0  0  0  0
   39.5860   30.4110   39.4940 N   0  0  0  0  0  0  0  0  0  0  0  0
   40.2580   30.8720   38.4150 C   0  0  0  0  0  0  0  0  0  0  0  0
   40.4900   32.1980   38.2880 N   0  0  0  0  0  0  0  0  0  0  0  0
   40.2330   34.1020   39.1350 H   0  0  0  0  0  0  0  0  0  0  0  0
   40.5430   30.0700   37.7470 H   0  0  0  0  0  0  0  0  0  0  0  0
   38.8550   33.5090   41.3700 N   0  0  0  0  0  0  0  0  0  0  0  0
   39.4690   34.3220   41.6350 H   0  0  0  0  0  0  0  0  0  0  0  0
   37.9040   33.3240   41.7920 H   0  0  0  0  0  0  0  0  0  0  0  0
   38.0180   28.5910   43.0210 C   0  0  0  0  0  0  0  0  0  0  0  0
   38.1740   29.3550   43.8160 H   0  0  0  0  0  0  0  0  0  0  0  0
   36.9650   28.2450   43.1440 H   0  0  0  0  0  0  0  0  0  0  0  0
   38.2560   26.2770   42.7380 C   0  0  0  0  0  0  0  0  0  0  0  0
   38.9080   27.4430   43.1620 C   0  0  0  0  0  0  0  0  0  0  0  0
   40.2040   27.2970   43.6080 C   0  0  0  0  0  0  0  0  0  0  0  0
   40.6330   28.2270   43.9130 H   0  0  0  0  0  0  0  0  0  0  0  0
   40.8410   26.0800   43.6430 C   0  0  0  0  0  3  0  0  0  0  0  0
   40.1810   24.9290   43.2190 C   0  0  0  0  0  3  0  0  0  0  0  0
   38.8920   25.0480   42.7700 C   0  0  0  0  0  0  0  0  0  0  0  0
   36.9500   26.1750   42.2470 O   0  0  0  0  0  0  0  0  0  0  0  0
   36.7790   26.6200   41.3480 H   0  0  0  0  0  0  0  0  0  0  0  0
   38.3260   23.8460   42.3710 O   0  0  0  0  0  0  0  0  0  0  0  0
   37.4610   23.9270   41.8180 H   0  0  0  0  0  0  0  0  0  0  0  0
  1  3  1  0  0  0  0
  1  4  1  1  0  0  0
  2  1  1  0  0  0  0
  2  3  1  0  0  0  0
  2  6  1  0  0  0  0
  3  7  1  6  0  0  0
  3 19  1  0  0  0  0
  5  2  1  0  0  0  0
  8  9  1  0  0  0  0
  9 10  2  0  0  0  0
  9 16  1  0  0  0  0
 10  1  1  0  0  0  0
 11 10  1  0  0  0  0
 12 11  2  0  0  0  0
 13 12  1  0  0  0  0
 13  8  2  0  0  0  0
 14  8  1  0  0  0  0
 15 12  1  0  0  0  0
 16 17  1  0  0  0  0
 16 18  1  0  0  0  0
 19 21  1  0  0  0  0
 19 23  1  0  0  0  0
 19 20  1  0  0  0  0
 22 28  2  0  0  0  0
 22 23  1  0  0  0  0
 23 24  2  0  0  0  0
 24 26  1  0  0  0  0
 24 25  1  0  0  0  0
 27 26  2  0  0  0  0
 28 27  1  0  0  0  0
 29 22  1  0  0  0  0
 30 29  1  0  0  0  0
 31 28  1  0  0  0  0
 32 31  1  0  0  0  0
M  END
>  <minimizedAffinity>
-5.28219366

$$$$
