
 OpenBabel03252507163D

 31 33  0  0  0  0  0  0  0  0999 V2000
   44.9780   36.0030   43.9160 C   0  0  0  0  0  0  0  0  0  0  0  0
   45.6700   34.8780   43.4030 C   0  0  0  0  0  0  0  0  0  0  0  0
   45.8350   33.7820   44.2520 C   0  0  0  0  0  0  0  0  0  0  0  0
   45.3440   33.8260   45.5000 N   0  0  0  0  0  0  0  0  0  0  0  0
   44.6770   34.9270   45.9710 C   0  0  0  0  0  0  0  0  0  0  0  0
   44.5100   35.9850   45.1730 N   0  0  0  0  0  0  0  0  0  0  0  0
   44.8330   36.8680   43.2840 H   0  0  0  0  0  0  0  0  0  0  0  0
   44.3500   34.7940   46.9960 H   0  0  0  0  0  0  0  0  0  0  0  0
   46.5420   32.6260   43.7360 C   0  0  0  0  0  0  0  0  0  0  0  0
   45.8370   31.4950   43.3640 C   0  0  0  0  0  0  0  0  0  0  0  0
   46.5360   30.4170   42.8800 C   0  0  0  0  0  0  0  0  0  0  0  0
   47.9120   30.3920   42.7390 C   0  0  0  0  0  0  0  0  0  0  0  0
   48.5620   31.5570   43.1280 C   0  0  0  0  0  0  0  0  0  0  0  0
   47.8690   32.6130   43.6040 N   0  0  0  0  0  0  0  0  0  0  0  0
   44.7780   31.4080   43.4310 H   0  0  0  0  0  0  0  0  0  0  0  0
   46.0260   29.5040   42.5740 H   0  0  0  0  0  0  0  0  0  0  0  0
   48.5150   29.5980   42.3730 H   0  0  0  0  0  0  0  0  0  0  0  0
   49.6410   31.6810   43.0740 H   0  0  0  0  0  0  0  0  0  0  0  0
   46.1610   34.9050   42.0720 C   0  0  0  0  0  0  0  0  0  0  0  0
   47.2720   35.4510   41.8570 O   0  0  0  0  0  0  0  0  0  0  0  0
   45.9820   33.4080   40.0950 C   0  0  0  0  0  0  0  0  0  0  0  0
   45.4200   34.3240   40.9570 C   0  0  0  0  0  0  0  0  0  0  0  0
   44.1080   34.6790   40.7270 C   0  0  0  0  0  0  0  0  0  0  0  0
   43.6830   35.3970   41.4110 H   0  0  0  0  0  0  0  0  0  0  0  0
   43.3530   34.1800   39.7080 C   0  0  0  0  0  3  0  0  0  0  0  0
   43.9430   33.2550   38.8490 C   0  0  0  0  0  3  0  0  0  0  0  0
   45.2430   32.8850   39.0540 C   0  0  0  0  0  0  0  0  0  0  0  0
   47.3200   33.0100   40.2860 O   0  0  0  0  0  0  0  0  0  0  0  0
   47.9830   32.9300   39.5310 H   0  0  0  0  0  0  0  0  0  0  0  0
   45.8640   31.9670   38.2180 O   0  0  0  0  0  0  0  0  0  0  0  0
   45.4670   31.0530   38.0250 H   0  0  0  0  0  0  0  0  0  0  0  0
  1  6  1  0  0  0  0
  2  1  2  0  0  0  0
  2  3  1  0  0  0  0
  3  4  2  0  0  0  0
  4  5  1  0  0  0  0
  5  8  1  0  0  0  0
  6  5  2  0  0  0  0
  7  1  1  0  0  0  0
  9  3  1  0  0  0  0
 10 15  1  0  0  0  0
 10  9  2  0  0  0  0
 11 10  1  0  0  0  0
 12 11  2  0  0  0  0
 12 13  1  0  0  0  0
 13 14  2  0  0  0  0
 14  9  1  0  0  0  0
 16 11  1  0  0  0  0
 17 12  1  0  0  0  0
 18 13  1  0  0  0  0
 19  2  1  0  0  0  0
 20 19  2  0  0  0  0
 21 28  1  0  0  0  0
 21 22  1  0  0  0  0
 22 19  1  0  0  0  0
 23 22  2  0  0  0  0
 23 24  1  0  0  0  0
 25 23  1  0  0  0  0
 26 27  1  0  0  0  0
 26 25  2  0  0  0  0
 27 21  2  0  0  0  0
 29 28  1  0  0  0  0
 30 27  1  0  0  0  0
 31 30  1  0  0  0  0
M  END
>  <minimizedAffinity>
-4.71615601

>  <minimizedRMSD>
1.02764094

$$$$
