
 OpenBabel03242514333D

 28 29  0  0  0  0  0  0  0  0999 V2000
   49.2360   35.0680   42.8100 O   0  0  0  0  0  0  0  0  0  0  0  0
   48.5480   33.9700   42.0560 P   0  0  1  0  0  0  0  0  0  0  0  0
   49.6950   32.7970   41.7010 O   0  0  0  0  0  0  0  0  0  0  0  0
   50.5770   33.2370   41.5950 H   0  0  0  0  0  0  0  0  0  0  0  0
   47.2810   33.3110   43.0000 O   0  0  0  0  0  0  0  0  0  0  0  0
   45.9160   35.2720   42.9840 C   0  0  0  0  0  0  0  0  0  0  0  0
   46.3640   34.1410   43.6460 C   0  0  0  0  0  0  0  0  0  0  0  0
   45.8750   33.8860   44.9290 C   0  0  0  0  0  0  0  0  0  0  0  0
   44.9810   34.7660   45.4620 N   0  0  0  0  0  0  0  0  0  0  0  0
   44.5690   35.8470   44.7960 C   0  0  0  0  0  0  0  0  0  0  0  0
   45.0370   36.0900   43.5720 N   0  0  0  0  0  0  0  0  0  0  0  0
   46.2520   35.5370   41.9820 H   0  0  0  0  0  0  0  0  0  0  0  0
   46.2330   32.9910   45.4440 H   0  0  0  0  0  0  0  0  0  0  0  0
   43.8630   36.4330   45.3660 H   0  0  0  0  0  0  0  0  0  0  0  0
   47.9390   34.5920   40.6320 O   0  0  0  0  0  0  0  0  0  0  0  0
   47.2780   33.9250   39.6660 C   0  0  0  0  0  0  0  0  0  0  0  0
   46.0130   33.8410   39.9300 O   0  0  0  0  0  0  0  0  0  0  0  0
   47.0290   32.0170   38.0930 C   0  0  0  0  0  0  0  0  0  0  0  0
   47.5250   33.2430   38.3620 C   0  0  0  0  0  0  0  0  0  0  0  0
   48.2950   33.9150   37.4040 C   0  0  0  0  0  0  0  0  0  0  0  0
   48.6890   34.9130   37.6450 H   0  0  0  0  0  0  0  0  0  0  0  0
   48.5930   33.4050   36.1720 C   0  0  0  0  0  3  0  0  0  0  0  0
   48.0990   32.1610   35.8770 C   0  0  0  0  0  3  0  0  0  0  0  0
   47.3420   31.5070   36.8260 C   0  0  0  0  0  0  0  0  0  0  0  0
   46.2630   31.2940   38.9840 O   0  0  0  0  0  0  0  0  0  0  0  0
   45.2950   31.5780   39.1850 H   0  0  0  0  0  0  0  0  0  0  0  0
   46.8190   30.2310   36.5600 O   0  0  0  0  0  0  0  0  0  0  0  0
   45.8580   30.0500   36.8260 H   0  0  0  0  0  0  0  0  0  0  0  0
  2  1  2  1  0  0  0
  2  5  1  0  0  0  0
  3  2  1  0  0  0  0
  4  3  1  0  0  0  0
  5  7  1  0  0  0  0
  6 11  2  0  0  0  0
  6  7  1  0  0  0  0
  7  8  2  0  0  0  0
  8 13  1  0  0  0  0
  8  9  1  0  0  0  0
 10 14  1  0  0  0  0
 10  9  2  0  0  0  0
 11 10  1  0  0  0  0
 12  6  1  0  0  0  0
 15  2  1  0  0  0  0
 16 17  2  0  0  0  0
 16 15  1  0  0  0  0
 18 19  1  0  0  0  0
 18 25  1  0  0  0  0
 19 16  1  0  0  0  0
 20 21  1  0  0  0  0
 20 19  2  0  0  0  0
 22 20  1  0  0  0  0
 23 22  2  0  0  0  0
 23 24  1  0  0  0  0
 24 18  2  0  0  0  0
 25 26  1  0  0  0  0
 27 28  1  0  0  0  0
 27 24  1  0  0  0  0
M  END
>  <minimizedAffinity>
-4.46039963

>  <minimizedRMSD>
1.39635575

$$$$
