
 OpenBabel03242522513D

 28 29  0  0  0  0  0  0  0  0999 V2000
   45.2190   30.6570   47.6710 O   0  0  0  0  0  0  0  0  0  0  0  0
   45.7800   31.9120   48.3930 P   0  0  2  0  0  0  0  0  0  0  0  0
   45.1860   31.8240   49.9640 O   0  0  0  0  0  0  0  0  0  0  0  0
   45.9250   31.8700   50.6200 H   0  0  0  0  0  0  0  0  0  0  0  0
   45.1540   33.2670   47.6030 O   0  0  0  0  0  0  0  0  0  0  0  0
   47.0210   33.1640   44.4860 C   0  0  0  0  0  0  0  0  0  0  0  0
   46.5870   32.8620   45.7990 C   0  0  0  0  0  0  0  0  0  0  0  0
   45.5460   33.5940   46.3220 C   0  0  0  0  0  0  0  0  0  0  0  0
   44.9960   34.5580   45.5570 N   0  0  0  0  0  0  0  0  0  0  0  0
   45.4010   34.8460   44.3180 C   0  0  0  0  0  0  0  0  0  0  0  0
   46.4150   34.1520   43.7770 N   0  0  0  0  0  0  0  0  0  0  0  0
   47.8320   32.6450   43.9900 H   0  0  0  0  0  0  0  0  0  0  0  0
   47.1520   32.0710   46.2210 H   0  0  0  0  0  0  0  0  0  0  0  0
   44.8760   35.6490   43.8000 H   0  0  0  0  0  0  0  0  0  0  0  0
   47.4340   31.8760   48.3460 O   0  0  0  0  0  0  0  0  0  0  0  0
   48.3440   30.9170   48.5960 C   0  0  0  0  0  0  0  0  0  0  0  0
   48.7780   30.9610   49.8430 O   0  0  0  0  0  0  0  0  0  0  0  0
   50.4620   29.7220   48.1620 C   0  0  0  0  0  0  0  0  0  0  0  0
   49.1230   29.7590   48.0360 C   0  0  0  0  0  0  0  0  0  0  0  0
   48.5080   28.6950   47.3560 C   0  0  0  0  0  0  0  0  0  0  0  0
   47.4100   28.8130   47.3020 H   0  0  0  0  0  0  0  0  0  0  0  0
   49.1180   27.6060   46.7930 C   0  0  0  0  0  3  0  0  0  0  0  0
   50.4620   27.6330   46.9570 C   0  0  0  0  0  3  0  0  0  0  0  0
   51.1380   28.6240   47.6030 C   0  0  0  0  0  0  0  0  0  0  0  0
   51.2780   30.6500   48.7880 O   0  0  0  0  0  0  0  0  0  0  0  0
   52.0320   30.4150   49.4230 H   0  0  0  0  0  0  0  0  0  0  0  0
   52.5190   28.5560   47.7160 O   0  0  0  0  0  0  0  0  0  0  0  0
   53.0500   29.4080   47.5640 H   0  0  0  0  0  0  0  0  0  0  0  0
  2  1  2  6  0  0  0
  2  3  1  0  0  0  0
  3  4  1  0  0  0  0
  5  2  1  0  0  0  0
  6  7  1  0  0  0  0
  7 13  1  0  0  0  0
  7  8  2  0  0  0  0
  8  5  1  0  0  0  0
  9  8  1  0  0  0  0
 10  9  2  0  0  0  0
 11 10  1  0  0  0  0
 11  6  2  0  0  0  0
 12  6  1  0  0  0  0
 14 10  1  0  0  0  0
 15  2  1  0  0  0  0
 15 16  1  0  0  0  0
 16 17  2  0  0  0  0
 18 25  1  0  0  0  0
 19 18  1  0  0  0  0
 19 16  1  0  0  0  0
 20 19  2  0  0  0  0
 21 20  1  0  0  0  0
 22 23  2  0  0  0  0
 22 20  1  0  0  0  0
 23 24  1  0  0  0  0
 24 27  1  0  0  0  0
 24 18  2  0  0  0  0
 25 26  1  0  0  0  0
 28 27  1  0  0  0  0
M  END
>  <minimizedAffinity>
-4.59015989

>  <minimizedRMSD>
0.654674292

$$$$
