
 OpenBabel03252501563D

 23 24  0  0  0  0  0  0  0  0999 V2000
   44.6020   35.4880   45.1330 C   0  0  0  0  0  0  0  0  0  0  0  0
   45.2490   35.4200   43.8890 C   0  0  0  0  0  0  0  0  0  0  0  0
   46.1440   34.3830   43.6860 C   0  0  0  0  0  0  0  0  0  0  0  0
   46.3410   33.5220   44.6750 N   0  0  0  0  0  0  0  0  0  0  0  0
   45.7260   33.5830   45.8630 C   0  0  0  0  0  0  0  0  0  0  0  0
   44.8390   34.5750   46.1190 N   0  0  0  0  0  0  0  0  0  0  0  0
   43.8900   36.2670   45.3470 H   0  0  0  0  0  0  0  0  0  0  0  0
   45.9670   32.8200   46.6080 H   0  0  0  0  0  0  0  0  0  0  0  0
   46.3540   33.9530   41.1770 C   0  0  0  0  0  0  0  0  0  0  0  0
   46.7640   34.4170   42.3890 C   0  0  0  0  0  0  0  0  0  0  0  0
   47.9990   35.0920   42.4180 C   0  0  0  0  0  0  0  0  0  0  0  0
   48.4740   35.5050   43.3030 H   0  0  0  0  0  0  0  0  0  0  0  0
   48.7630   35.2830   41.2990 C   0  0  0  0  0  3  0  0  0  0  0  0
   48.2790   34.7820   40.0870 C   0  0  0  0  0  3  0  0  0  0  0  0
   47.0830   34.1120   39.9900 C   0  0  0  0  0  0  0  0  0  0  0  0
   45.1170   33.2950   41.2460 O   0  0  0  0  0  0  0  0  0  0  0  0
   44.9160   32.6100   41.9800 H   0  0  0  0  0  0  0  0  0  0  0  0
   46.4930   33.5690   38.8640 O   0  0  0  0  0  0  0  0  0  0  0  0
   46.6590   32.6010   38.5570 H   0  0  0  0  0  0  0  0  0  0  0  0
   44.8980   36.5270   42.9450 C   0  0  0  0  0  0  0  0  0  0  0  0
   45.4780   37.4310   43.3220 H   0  0  0  0  0  0  0  0  0  0  0  0
   45.1280   36.3420   41.9050 H   0  0  0  0  0  0  0  0  0  0  0  0
   43.8380   36.8050   43.1270 H   0  0  0  0  0  0  0  0  0  0  0  0
  1  7  1  0  0  0  0
  1  6  1  0  0  0  0
  2  1  2  0  0  0  0
  3  2  1  0  0  0  0
  3  4  2  0  0  0  0
  4  5  1  0  0  0  0
  5  6  2  0  0  0  0
  5  8  1  0  0  0  0
  9 16  1  0  0  0  0
  9 10  1  0  0  0  0
 10 11  2  0  0  0  0
 10  3  1  0  0  0  0
 11 12  1  0  0  0  0
 13 11  1  0  0  0  0
 14 13  2  0  0  0  0
 15 14  1  0  0  0  0
 15  9  2  0  0  0  0
 16 17  1  0  0  0  0
 18 15  1  0  0  0  0
 19 18  1  0  0  0  0
 20 23  1  0  0  0  0
 20 21  1  0  0  0  0
 20  2  1  0  0  0  0
 22 20  1  0  0  0  0
M  END
>  <minimizedAffinity>
-5.30262756

>  <minimizedRMSD>
2.11742115

$$$$
