
 OpenBabel03252500523D

 37 39  0  0  0  0  0  0  0  0999 V2000
   38.3870   27.6530   42.0670 C   0  0  0  0  0  0  0  0  0  0  0  0
   38.9690   26.8490   42.8230 O   0  0  0  0  0  0  0  0  0  0  0  0
   39.7440   29.0700   40.6160 C   0  0  0  0  0  0  0  0  0  0  0  0
   39.0310   28.9240   41.7800 C   0  0  0  0  0  0  0  0  0  0  0  0
   38.9120   29.9870   42.7030 C   0  0  0  0  0  0  0  0  0  0  0  0
   39.5470   31.1560   42.3620 N   0  0  0  0  0  0  0  0  0  0  0  0
   40.2350   31.2870   41.2330 C   0  0  0  0  0  0  0  0  0  0  0  0
   40.3310   30.2530   40.3700 N   0  0  0  0  0  0  0  0  0  0  0  0
   39.8740   28.3150   39.8780 H   0  0  0  0  0  0  0  0  0  0  0  0
   38.3590   29.8940   43.6190 H   0  0  0  0  0  0  0  0  0  0  0  0
   40.8950   32.5430   40.9100 C   0  0  0  0  0  0  0  0  0  0  0  0
   42.1880   32.7980   41.2410 C   0  0  0  0  0  0  0  0  0  0  0  0
   42.8220   33.9740   40.9440 C   0  0  0  0  0  0  0  0  0  0  0  0
   42.1000   34.9100   40.2900 N   0  0  0  0  0  0  0  0  0  0  0  0
   40.8320   34.6570   39.9700 C   0  0  0  0  0  0  0  0  0  0  0  0
   40.1880   33.5150   40.2470 N   0  0  0  0  0  0  0  0  0  0  0  0
   42.7700   32.0510   41.7630 H   0  0  0  0  0  0  0  0  0  0  0  0
   43.8500   34.1900   41.1990 H   0  0  0  0  0  0  0  0  0  0  0  0
   40.2330   35.3980   39.4440 H   0  0  0  0  0  0  0  0  0  0  0  0
   37.2070   27.0900   41.6770 O   0  0  0  0  0  0  0  0  0  0  0  0
   36.5940   27.3430   40.4770 C   0  0  0  0  0  0  0  0  0  0  0  0
   37.4050   27.7510   39.7980 H   0  0  0  0  0  0  0  0  0  0  0  0
   36.2110   26.4820   39.8960 H   0  0  0  0  0  0  0  0  0  0  0  0
   35.5870   28.4860   40.5180 C   0  0  0  0  0  0  0  0  0  0  0  0
   35.3760   28.8130   41.5400 H   0  0  0  0  0  0  0  0  0  0  0  0
   34.7130   28.1740   39.9330 H   0  0  0  0  0  0  0  0  0  0  0  0
   36.2810   30.9070   40.3320 C   0  0  0  0  0  0  0  0  0  0  0  0
   36.2260   29.6310   39.7950 C   0  0  0  0  0  0  0  0  0  0  0  0
   36.7970   29.4460   38.5390 C   0  0  0  0  0  0  0  0  0  0  0  0
   36.7420   28.4400   38.1410 H   0  0  0  0  0  0  0  0  0  0  0  0
   37.4070   30.4600   37.8120 C   0  0  0  0  0  3  0  0  0  0  0  0
   37.4420   31.7230   38.3830 C   0  0  0  0  0  3  0  0  0  0  0  0
   36.8890   31.9360   39.6160 C   0  0  0  0  0  0  0  0  0  0  0  0
   35.7320   31.1520   41.5740 O   0  0  0  0  0  0  0  0  0  0  0  0
   35.4820   32.0790   41.8980 H   0  0  0  0  0  0  0  0  0  0  0  0
   36.9690   33.2300   40.1110 O   0  0  0  0  0  0  0  0  0  0  0  0
   37.7650   33.8380   39.9100 H   0  0  0  0  0  0  0  0  0  0  0  0
  1  2  2  0  0  0  0
  3  4  1  0  0  0  0
  4  1  1  0  0  0  0
  4  5  2  0  0  0  0
  5 10  1  0  0  0  0
  6  5  1  0  0  0  0
  7  6  2  0  0  0  0
  8  3  2  0  0  0  0
  8  7  1  0  0  0  0
  9  3  1  0  0  0  0
 11  7  1  0  0  0  0
 11 12  1  0  0  0  0
 12 17  1  0  0  0  0
 13 18  1  0  0  0  0
 13 12  2  0  0  0  0
 14 13  1  0  0  0  0
 15 16  1  0  0  0  0
 15 14  2  0  0  0  0
 16 11  2  0  0  0  0
 19 15  1  0  0  0  0
 20  1  1  0  0  0  0
 21 24  1  0  0  0  0
 21 20  1  0  0  0  0
 22 21  1  0  0  0  0
 23 21  1  0  0  0  0
 24 25  1  0  0  0  0
 26 24  1  0  0  0  0
 27 34  1  0  0  0  0
 28 27  1  0  0  0  0
 28 24  1  0  0  0  0
 29 28  2  0  0  0  0
 30 29  1  0  0  0  0
 31 32  2  0  0  0  0
 31 29  1  0  0  0  0
 32 33  1  0  0  0  0
 33 36  1  0  0  0  0
 33 27  2  0  0  0  0
 34 35  1  0  0  0  0
 37 36  1  0  0  0  0
M  END
>  <minimizedAffinity>
-5.9986167

$$$$

 OpenBabel03252500523D

 37 39  0  0  0  0  0  0  0  0999 V2000
   37.3830   28.4320   42.6080 C   0  0  0  0  0  0  0  0  0  0  0  0
   37.0580   28.3810   43.8120 O   0  0  0  0  0  0  0  0  0  0  0  0
   37.2570   26.0000   42.4500 C   0  0  0  0  0  0  0  0  0  0  0  0
   37.6940   27.1890   41.9220 C   0  0  0  0  0  0  0  0  0  0  0  0
   38.4400   27.2250   40.7220 C   0  0  0  0  0  0  0  0  0  0  0  0
   38.6940   26.0120   40.1320 N   0  0  0  0  0  0  0  0  0  0  0  0
   38.2660   24.8660   40.6520 C   0  0  0  0  0  0  0  0  0  0  0  0
   37.5550   24.8630   41.8000 N   0  0  0  0  0  0  0  0  0  0  0  0
   36.6920   25.8990   43.3460 H   0  0  0  0  0  0  0  0  0  0  0  0
   38.7910   28.1440   40.2920 H   0  0  0  0  0  0  0  0  0  0  0  0
   38.5580   23.6010   39.9950 C   0  0  0  0  0  0  0  0  0  0  0  0
   37.9920   22.4270   40.3810 C   0  0  0  0  0  0  0  0  0  0  0  0
   38.2550   21.2300   39.7730 C   0  0  0  0  0  0  0  0  0  0  0  0
   39.1280   21.2470   38.7420 N   0  0  0  0  0  0  0  0  0  0  0  0
   39.6810   22.3990   38.3680 C   0  0  0  0  0  0  0  0  0  0  0  0
   39.4400   23.5840   38.9440 N   0  0  0  0  0  0  0  0  0  0  0  0
   37.2920   22.4090   41.2060 H   0  0  0  0  0  0  0  0  0  0  0  0
   37.8130   20.2890   40.0680 H   0  0  0  0  0  0  0  0  0  0  0  0
   40.3860   22.4340   37.5390 H   0  0  0  0  0  0  0  0  0  0  0  0
   37.3620   29.7390   42.2180 O   0  0  0  0  0  0  0  0  0  0  0  0
   36.4080   30.2810   41.3960 C   0  0  0  0  0  0  0  0  0  0  0  0
   36.2840   29.5440   40.5430 H   0  0  0  0  0  0  0  0  0  0  0  0
   35.3750   30.3670   41.7840 H   0  0  0  0  0  0  0  0  0  0  0  0
   36.8480   31.5510   40.6780 C   0  0  0  0  0  0  0  0  0  0  0  0
   37.8330   31.8910   41.0080 H   0  0  0  0  0  0  0  0  0  0  0  0
   36.0380   32.2840   40.7830 H   0  0  0  0  0  0  0  0  0  0  0  0
   37.6370   31.9870   38.3190 C   0  0  0  0  0  0  0  0  0  0  0  0
   36.9490   31.1970   39.2270 C   0  0  0  0  0  0  0  0  0  0  0  0
   36.3460   30.0440   38.7350 C   0  0  0  0  0  0  0  0  0  0  0  0
   35.8140   29.4440   39.4650 H   0  0  0  0  0  0  0  0  0  0  0  0
   36.3980   29.6530   37.4040 C   0  0  0  0  0  3  0  0  0  0  0  0
   37.0970   30.4690   36.5260 C   0  0  0  0  0  3  0  0  0  0  0  0
   37.7000   31.6090   36.9800 C   0  0  0  0  0  0  0  0  0  0  0  0
   38.2550   33.1430   38.7480 O   0  0  0  0  0  0  0  0  0  0  0  0
   38.5210   33.8960   38.1230 H   0  0  0  0  0  0  0  0  0  0  0  0
   38.3760   32.3660   36.0330 O   0  0  0  0  0  0  0  0  0  0  0  0
   38.8580   31.9370   35.2410 H   0  0  0  0  0  0  0  0  0  0  0  0
  1  2  2  0  0  0  0
  3  9  1  0  0  0  0
  4  3  1  0  0  0  0
  4  1  1  0  0  0  0
  5  4  2  0  0  0  0
  6  7  2  0  0  0  0
  6  5  1  0  0  0  0
  7  8  1  0  0  0  0
  8  3  2  0  0  0  0
 10  5  1  0  0  0  0
 11 12  1  0  0  0  0
 11  7  1  0  0  0  0
 12 17  1  0  0  0  0
 13 18  1  0  0  0  0
 13 12  2  0  0  0  0
 14 13  1  0  0  0  0
 15 14  2  0  0  0  0
 15 16  1  0  0  0  0
 16 11  2  0  0  0  0
 19 15  1  0  0  0  0
 20  1  1  0  0  0  0
 21 23  1  0  0  0  0
 21 20  1  0  0  0  0
 22 21  1  0  0  0  0
 24 26  1  0  0  0  0
 24 25  1  0  0  0  0
 24 21  1  0  0  0  0
 27 34  1  0  0  0  0
 27 28  1  0  0  0  0
 28 24  1  0  0  0  0
 29 28  2  0  0  0  0
 29 30  1  0  0  0  0
 31 29  1  0  0  0  0
 32 33  1  0  0  0  0
 32 31  2  0  0  0  0
 33 27  2  0  0  0  0
 35 34  1  0  0  0  0
 36 33  1  0  0  0  0
 37 36  1  0  0  0  0
M  END
>  <minimizedAffinity>
-5.79145908

$$$$

 OpenBabel03252500523D

 37 39  0  0  0  0  0  0  0  0999 V2000
   37.2780   27.5050   42.9550 C   0  0  0  0  0  0  0  0  0  0  0  0
   36.2060   27.5130   43.5950 O   0  0  0  0  0  0  0  0  0  0  0  0
   39.0420   29.1840   42.8150 C   0  0  0  0  0  0  0  0  0  0  0  0
   37.7880   28.7660   42.4460 C   0  0  0  0  0  0  0  0  0  0  0  0
   36.9870   29.5410   41.5780 C   0  0  0  0  0  0  0  0  0  0  0  0
   37.5380   30.7190   41.1370 N   0  0  0  0  0  0  0  0  0  0  0  0
   38.7530   31.1140   41.5020 C   0  0  0  0  0  0  0  0  0  0  0  0
   39.4960   30.3530   42.3330 N   0  0  0  0  0  0  0  0  0  0  0  0
   39.6990   28.6530   43.4630 H   0  0  0  0  0  0  0  0  0  0  0  0
   36.0030   29.2330   41.2750 H   0  0  0  0  0  0  0  0  0  0  0  0
   39.2990   32.3710   41.0130 C   0  0  0  0  0  0  0  0  0  0  0  0
   38.5170   33.4370   40.6960 C   0  0  0  0  0  0  0  0  0  0  0  0
   39.0150   34.6250   40.2360 C   0  0  0  0  0  0  0  0  0  0  0  0
   40.3570   34.7130   40.0990 N   0  0  0  0  0  0  0  0  0  0  0  0
   41.1200   33.6660   40.4090 C   0  0  0  0  0  0  0  0  0  0  0  0
   40.6580   32.4930   40.8620 N   0  0  0  0  0  0  0  0  0  0  0  0
   37.4420   33.3710   40.8050 H   0  0  0  0  0  0  0  0  0  0  0  0
   38.4070   35.4810   39.9810 H   0  0  0  0  0  0  0  0  0  0  0  0
   42.2020   33.7170   40.3060 H   0  0  0  0  0  0  0  0  0  0  0  0
   37.7260   26.2170   42.8940 O   0  0  0  0  0  0  0  0  0  0  0  0
   37.0670   25.2050   42.2460 C   0  0  0  0  0  0  0  0  0  0  0  0
   36.9460   24.3780   43.0130 H   0  0  0  0  0  0  0  0  0  0  0  0
   36.0230   25.3840   41.9270 H   0  0  0  0  0  0  0  0  0  0  0  0
   37.8820   24.5280   41.1510 C   0  0  0  0  0  0  0  0  0  0  0  0
   37.5140   24.7760   40.1510 H   0  0  0  0  0  0  0  0  0  0  0  0
   37.9210   23.4570   41.3860 H   0  0  0  0  0  0  0  0  0  0  0  0
   40.1540   24.6270   42.2480 C   0  0  0  0  0  0  0  0  0  0  0  0
   39.2730   25.0660   41.2730 C   0  0  0  0  0  0  0  0  0  0  0  0
   39.7360   26.0420   40.3940 C   0  0  0  0  0  0  0  0  0  0  0  0
   39.0280   26.3680   39.6400 H   0  0  0  0  0  0  0  0  0  0  0  0
   41.0120   26.5850   40.4470 C   0  0  0  0  0  3  0  0  0  0  0  0
   41.8640   26.1190   41.4370 C   0  0  0  0  0  3  0  0  0  0  0  0
   41.4380   25.1620   42.3160 C   0  0  0  0  0  0  0  0  0  0  0  0
   39.7520   23.6610   43.1480 O   0  0  0  0  0  0  0  0  0  0  0  0
   40.2160   23.5010   44.0350 H   0  0  0  0  0  0  0  0  0  0  0  0
   42.3560   24.7540   43.2730 O   0  0  0  0  0  0  0  0  0  0  0  0
   43.3580   24.7140   43.0810 H   0  0  0  0  0  0  0  0  0  0  0  0
  1  2  2  0  0  0  0
  3  9  1  0  0  0  0
  4  3  1  0  0  0  0
  4  1  1  0  0  0  0
  5  4  2  0  0  0  0
  6  7  2  0  0  0  0
  6  5  1  0  0  0  0
  7  8  1  0  0  0  0
  8  3  2  0  0  0  0
 10  5  1  0  0  0  0
 11  7  1  0  0  0  0
 12 17  1  0  0  0  0
 12 11  2  0  0  0  0
 13 12  1  0  0  0  0
 14 13  2  0  0  0  0
 14 15  1  0  0  0  0
 15 16  2  0  0  0  0
 16 11  1  0  0  0  0
 18 13  1  0  0  0  0
 19 15  1  0  0  0  0
 20  1  1  0  0  0  0
 21 20  1  0  0  0  0
 21 22  1  0  0  0  0
 23 21  1  0  0  0  0
 24 28  1  0  0  0  0
 24 26  1  0  0  0  0
 24 21  1  0  0  0  0
 25 24  1  0  0  0  0
 27 33  1  0  0  0  0
 27 34  1  0  0  0  0
 28 27  2  0  0  0  0
 29 31  2  0  0  0  0
 29 28  1  0  0  0  0
 30 29  1  0  0  0  0
 31 32  1  0  0  0  0
 32 33  2  0  0  0  0
 33 36  1  0  0  0  0
 34 35  1  0  0  0  0
 37 36  1  0  0  0  0
M  END
>  <minimizedAffinity>
-5.78086805

$$$$

 OpenBabel03252500523D

 37 39  0  0  0  0  0  0  0  0999 V2000
   38.8120   27.9530   40.9380 C   0  0  0  0  0  0  0  0  0  0  0  0
   39.3530   26.8720   40.6260 O   0  0  0  0  0  0  0  0  0  0  0  0
   40.0370   29.5390   42.3300 C   0  0  0  0  0  0  0  0  0  0  0  0
   39.6510   29.1320   41.0780 C   0  0  0  0  0  0  0  0  0  0  0  0
   40.0570   29.8370   39.9220 C   0  0  0  0  0  0  0  0  0  0  0  0
   40.8480   30.9390   40.1350 N   0  0  0  0  0  0  0  0  0  0  0  0
   41.2160   31.3250   41.3520 C   0  0  0  0  0  0  0  0  0  0  0  0
   40.8120   30.6310   42.4370 N   0  0  0  0  0  0  0  0  0  0  0  0
   39.7700   29.0580   43.2400 H   0  0  0  0  0  0  0  0  0  0  0  0
   39.7670   29.5350   38.9330 H   0  0  0  0  0  0  0  0  0  0  0  0
   42.0550   32.5000   41.5330 C   0  0  0  0  0  0  0  0  0  0  0  0
   43.1110   32.5220   42.3870 C   0  0  0  0  0  0  0  0  0  0  0  0
   43.9100   33.6180   42.5690 C   0  0  0  0  0  0  0  0  0  0  0  0
   43.6060   34.7210   41.8490 N   0  0  0  0  0  0  0  0  0  0  0  0
   42.5690   34.6960   41.0140 C   0  0  0  0  0  0  0  0  0  0  0  0
   41.7730   33.6370   40.8170 N   0  0  0  0  0  0  0  0  0  0  0  0
   43.3580   31.6410   42.9650 H   0  0  0  0  0  0  0  0  0  0  0  0
   44.7530   33.6500   43.2430 H   0  0  0  0  0  0  0  0  0  0  0  0
   42.3080   35.5740   40.4250 H   0  0  0  0  0  0  0  0  0  0  0  0
   37.4730   27.7330   41.0790 O   0  0  0  0  0  0  0  0  0  0  0  0
   36.6110   27.5450   40.0310 C   0  0  0  0  0  0  0  0  0  0  0  0
   37.2260   27.7100   39.0930 H   0  0  0  0  0  0  0  0  0  0  0  0
   36.2030   26.5290   39.8690 H   0  0  0  0  0  0  0  0  0  0  0  0
   35.5280   28.6100   39.9120 C   0  0  0  0  0  0  0  0  0  0  0  0
   35.0810   28.8530   40.8800 H   0  0  0  0  0  0  0  0  0  0  0  0
   34.8250   28.2790   39.1380 H   0  0  0  0  0  0  0  0  0  0  0  0
   36.3120   30.9980   40.1590 C   0  0  0  0  0  0  0  0  0  0  0  0
   36.2100   29.8420   39.4010 C   0  0  0  0  0  0  0  0  0  0  0  0
   36.7730   29.8650   38.1290 C   0  0  0  0  0  0  0  0  0  0  0  0
   36.6800   28.9490   37.5570 H   0  0  0  0  0  0  0  0  0  0  0  0
   37.4200   30.9700   37.5920 C   0  0  0  0  0  3  0  0  0  0  0  0
   37.5030   32.1080   38.3810 C   0  0  0  0  0  3  0  0  0  0  0  0
   36.9590   32.1160   39.6350 C   0  0  0  0  0  0  0  0  0  0  0  0
   35.7740   31.0350   41.4280 O   0  0  0  0  0  0  0  0  0  0  0  0
   35.5590   31.8980   41.9160 H   0  0  0  0  0  0  0  0  0  0  0  0
   37.0870   33.2950   40.3540 O   0  0  0  0  0  0  0  0  0  0  0  0
   37.9060   33.9000   40.2600 H   0  0  0  0  0  0  0  0  0  0  0  0
  1  4  1  0  0  0  0
  1 20  1  0  0  0  0
  2  1  2  0  0  0  0
  3  8  1  0  0  0  0
  3  9  1  0  0  0  0
  4  3  2  0  0  0  0
  5  6  2  0  0  0  0
  5  4  1  0  0  0  0
  6  7  1  0  0  0  0
  7 11  1  0  0  0  0
  7  8  2  0  0  0  0
 10  5  1  0  0  0  0
 11 12  1  0  0  0  0
 12 13  2  0  0  0  0
 12 17  1  0  0  0  0
 13 18  1  0  0  0  0
 14 13  1  0  0  0  0
 15 14  2  0  0  0  0
 16 15  1  0  0  0  0
 16 11  2  0  0  0  0
 19 15  1  0  0  0  0
 21 20  1  0  0  0  0
 22 21  1  0  0  0  0
 23 21  1  0  0  0  0
 24 21  1  0  0  0  0
 24 25  1  0  0  0  0
 26 24  1  0  0  0  0
 27 34  1  0  0  0  0
 28 24  1  0  0  0  0
 28 27  2  0  0  0  0
 29 28  1  0  0  0  0
 30 29  1  0  0  0  0
 31 29  2  0  0  0  0
 31 32  1  0  0  0  0
 32 33  2  0  0  0  0
 33 27  1  0  0  0  0
 33 36  1  0  0  0  0
 34 35  1  0  0  0  0
 37 36  1  0  0  0  0
M  END
>  <minimizedAffinity>
-5.67697906

$$$$

 OpenBabel03252500523D

 37 39  0  0  0  0  0  0  0  0999 V2000
   40.0480   32.0020   41.1970 C   0  0  0  0  0  0  0  0  0  0  0  0
   41.2440   32.2950   41.4030 O   0  0  0  0  0  0  0  0  0  0  0  0
   39.8580   29.7250   40.3420 C   0  0  0  0  0  0  0  0  0  0  0  0
   39.6370   30.6180   41.3600 C   0  0  0  0  0  0  0  0  0  0  0  0
   39.0170   30.2140   42.5640 C   0  0  0  0  0  0  0  0  0  0  0  0
   38.6570   28.8910   42.6440 N   0  0  0  0  0  0  0  0  0  0  0  0
   38.8760   28.0350   41.6520 C   0  0  0  0  0  0  0  0  0  0  0  0
   39.4710   28.4500   40.5130 N   0  0  0  0  0  0  0  0  0  0  0  0
   40.3190   29.9580   39.4120 H   0  0  0  0  0  0  0  0  0  0  0  0
   38.8350   30.8960   43.3740 H   0  0  0  0  0  0  0  0  0  0  0  0
   38.4780   26.6410   41.7770 C   0  0  0  0  0  0  0  0  0  0  0  0
   39.2490   25.7120   42.4010 C   0  0  0  0  0  0  0  0  0  0  0  0
   38.8880   24.3980   42.5270 C   0  0  0  0  0  0  0  0  0  0  0  0
   37.7010   24.0350   41.9920 N   0  0  0  0  0  0  0  0  0  0  0  0
   36.9500   24.9490   41.3800 C   0  0  0  0  0  0  0  0  0  0  0  0
   37.2780   26.2400   41.2440 N   0  0  0  0  0  0  0  0  0  0  0  0
   40.1990   25.9980   42.8310 H   0  0  0  0  0  0  0  0  0  0  0  0
   39.4890   23.6480   43.0210 H   0  0  0  0  0  0  0  0  0  0  0  0
   35.9910   24.6770   40.9430 H   0  0  0  0  0  0  0  0  0  0  0  0
   39.3870   33.1420   40.8450 O   0  0  0  0  0  0  0  0  0  0  0  0
   38.7210   33.3080   39.6580 C   0  0  0  0  0  0  0  0  0  0  0  0
   38.8100   34.4100   39.4080 H   0  0  0  0  0  0  0  0  0  0  0  0
   39.1410   32.8270   38.7540 H   0  0  0  0  0  0  0  0  0  0  0  0
   37.2130   33.1080   39.7530 C   0  0  0  0  0  0  0  0  0  0  0  0
   36.6660   33.7810   39.0880 H   0  0  0  0  0  0  0  0  0  0  0  0
   36.9400   33.1690   40.8130 H   0  0  0  0  0  0  0  0  0  0  0  0
   36.2750   30.7880   40.0920 C   0  0  0  0  0  0  0  0  0  0  0  0
   36.9500   31.7050   39.3020 C   0  0  0  0  0  0  0  0  0  0  0  0
   37.3800   31.2690   38.0520 C   0  0  0  0  0  0  0  0  0  0  0  0
   37.9040   32.0050   37.4530 H   0  0  0  0  0  0  0  0  0  0  0  0
   37.1700   29.9850   37.5680 C   0  0  0  0  0  3  0  0  0  0  0  0
   36.4910   29.0970   38.3880 C   0  0  0  0  0  3  0  0  0  0  0  0
   36.0560   29.4950   39.6220 C   0  0  0  0  0  0  0  0  0  0  0  0
   35.8240   31.1610   41.3410 O   0  0  0  0  0  0  0  0  0  0  0  0
   35.5890   30.4960   42.0690 H   0  0  0  0  0  0  0  0  0  0  0  0
   35.3860   28.5420   40.3750 O   0  0  0  0  0  0  0  0  0  0  0  0
   34.7940   27.8290   39.9440 H   0  0  0  0  0  0  0  0  0  0  0  0
  1  4  1  0  0  0  0
  1  2  2  0  0  0  0
  3  8  2  0  0  0  0
  3  4  1  0  0  0  0
  4  5  2  0  0  0  0
  5  6  1  0  0  0  0
  5 10  1  0  0  0  0
  7 11  1  0  0  0  0
  7  6  2  0  0  0  0
  8  7  1  0  0  0  0
  9  3  1  0  0  0  0
 11 12  1  0  0  0  0
 12 13  2  0  0  0  0
 12 17  1  0  0  0  0
 13 18  1  0  0  0  0
 14 13  1  0  0  0  0
 15 14  2  0  0  0  0
 16 15  1  0  0  0  0
 16 11  2  0  0  0  0
 19 15  1  0  0  0  0
 20  1  1  0  0  0  0
 21 24  1  0  0  0  0
 21 20  1  0  0  0  0
 22 21  1  0  0  0  0
 23 21  1  0  0  0  0
 24 26  1  0  0  0  0
 25 24  1  0  0  0  0
 27 34  1  0  0  0  0
 28 24  1  0  0  0  0
 28 27  2  0  0  0  0
 29 28  1  0  0  0  0
 30 29  1  0  0  0  0
 31 29  2  0  0  0  0
 31 32  1  0  0  0  0
 32 33  2  0  0  0  0
 33 27  1  0  0  0  0
 33 36  1  0  0  0  0
 34 35  1  0  0  0  0
 37 36  1  0  0  0  0
M  END
>  <minimizedAffinity>
-5.65954065

$$$$

 OpenBabel03252500523D

 37 39  0  0  0  0  0  0  0  0999 V2000
   36.9040   29.5790   36.7290 C   0  0  0  0  0  0  0  0  0  0  0  0
   37.3550   28.8920   35.7900 O   0  0  0  0  0  0  0  0  0  0  0  0
   39.1190   29.9520   37.6850 C   0  0  0  0  0  0  0  0  0  0  0  0
   37.8320   30.3910   37.4990 C   0  0  0  0  0  0  0  0  0  0  0  0
   37.3940   31.6200   38.0410 C   0  0  0  0  0  0  0  0  0  0  0  0
   38.3270   32.3320   38.7550 N   0  0  0  0  0  0  0  0  0  0  0  0
   39.5710   31.8960   38.9290 C   0  0  0  0  0  0  0  0  0  0  0  0
   39.9600   30.7170   38.3980 N   0  0  0  0  0  0  0  0  0  0  0  0
   39.5150   29.0400   37.3050 H   0  0  0  0  0  0  0  0  0  0  0  0
   36.3930   31.9830   37.9080 H   0  0  0  0  0  0  0  0  0  0  0  0
   40.5280   32.6810   39.6940 C   0  0  0  0  0  0  0  0  0  0  0  0
   40.5570   34.0390   39.6600 C   0  0  0  0  0  0  0  0  0  0  0  0
   41.4510   34.7910   40.3730 C   0  0  0  0  0  0  0  0  0  0  0  0
   42.3390   34.1200   41.1400 N   0  0  0  0  0  0  0  0  0  0  0  0
   42.3080   32.7890   41.1690 C   0  0  0  0  0  0  0  0  0  0  0  0
   41.4440   32.0300   40.4820 N   0  0  0  0  0  0  0  0  0  0  0  0
   39.8480   34.5800   39.0470 H   0  0  0  0  0  0  0  0  0  0  0  0
   41.4860   35.8700   40.3570 H   0  0  0  0  0  0  0  0  0  0  0  0
   43.0150   32.2300   41.7800 H   0  0  0  0  0  0  0  0  0  0  0  0
   35.5570   29.3740   36.7980 O   0  0  0  0  0  0  0  0  0  0  0  0
   34.9530   28.5350   37.6970 C   0  0  0  0  0  0  0  0  0  0  0  0
   33.9320   28.3010   37.2610 H   0  0  0  0  0  0  0  0  0  0  0  0
   35.3840   27.5260   37.8380 H   0  0  0  0  0  0  0  0  0  0  0  0
   34.6050   29.1890   39.0280 C   0  0  0  0  0  0  0  0  0  0  0  0
   33.6150   28.8950   39.3860 H   0  0  0  0  0  0  0  0  0  0  0  0
   34.7630   30.2690   38.9140 H   0  0  0  0  0  0  0  0  0  0  0  0
   36.0130   29.4390   41.1100 C   0  0  0  0  0  0  0  0  0  0  0  0
   35.6140   28.6890   40.0150 C   0  0  0  0  0  0  0  0  0  0  0  0
   36.1940   27.4330   39.8620 C   0  0  0  0  0  0  0  0  0  0  0  0
   35.8660   26.8670   38.9980 H   0  0  0  0  0  0  0  0  0  0  0  0
   37.1340   26.9060   40.7370 C   0  0  0  0  0  3  0  0  0  0  0  0
   37.5070   27.6860   41.8210 C   0  0  0  0  0  3  0  0  0  0  0  0
   36.9550   28.9240   41.9980 C   0  0  0  0  0  0  0  0  0  0  0  0
   35.4730   30.6920   41.3150 O   0  0  0  0  0  0  0  0  0  0  0  0
   35.9060   31.3940   41.9040 H   0  0  0  0  0  0  0  0  0  0  0  0
   37.3850   29.6360   43.1090 O   0  0  0  0  0  0  0  0  0  0  0  0
   37.6380   29.1730   43.9840 H   0  0  0  0  0  0  0  0  0  0  0  0
  1 20  1  0  0  0  0
  1  4  1  0  0  0  0
  2  1  2  0  0  0  0
  3  8  1  0  0  0  0
  4  3  2  0  0  0  0
  4  5  1  0  0  0  0
  5  6  2  0  0  0  0
  6  7  1  0  0  0  0
  7 11  1  0  0  0  0
  8  7  2  0  0  0  0
  9  3  1  0  0  0  0
 10  5  1  0  0  0  0
 11 16  1  0  0  0  0
 12 11  2  0  0  0  0
 12 13  1  0  0  0  0
 13 14  2  0  0  0  0
 14 15  1  0  0  0  0
 15 19  1  0  0  0  0
 16 15  2  0  0  0  0
 17 12  1  0  0  0  0
 18 13  1  0  0  0  0
 20 21  1  0  0  0  0
 21 23  1  0  0  0  0
 21 24  1  0  0  0  0
 22 21  1  0  0  0  0
 24 25  1  0  0  0  0
 24 28  1  0  0  0  0
 26 24  1  0  0  0  0
 27 34  1  0  0  0  0
 27 33  1  0  0  0  0
 28 27  2  0  0  0  0
 29 28  1  0  0  0  0
 29 31  2  0  0  0  0
 30 29  1  0  0  0  0
 31 32  1  0  0  0  0
 32 33  2  0  0  0  0
 33 36  1  0  0  0  0
 34 35  1  0  0  0  0
 36 37  1  0  0  0  0
M  END
>  <minimizedAffinity>
-5.61787081

$$$$

 OpenBabel03252500523D

 37 39  0  0  0  0  0  0  0  0999 V2000
   36.9010   30.2890   40.5880 C   0  0  0  0  0  0  0  0  0  0  0  0
   36.0960   30.9200   41.3040 O   0  0  0  0  0  0  0  0  0  0  0  0
   38.7420   31.8340   41.0120 C   0  0  0  0  0  0  0  0  0  0  0  0
   38.1170   30.9590   40.1590 C   0  0  0  0  0  0  0  0  0  0  0  0
   38.6370   30.6990   38.8710 C   0  0  0  0  0  0  0  0  0  0  0  0
   39.7880   31.3680   38.5380 N   0  0  0  0  0  0  0  0  0  0  0  0
   40.3850   32.2130   39.3720 C   0  0  0  0  0  0  0  0  0  0  0  0
   39.8650   32.4420   40.5970 N   0  0  0  0  0  0  0  0  0  0  0  0
   38.4080   32.0760   41.9930 H   0  0  0  0  0  0  0  0  0  0  0  0
   38.1650   30.0180   38.1880 H   0  0  0  0  0  0  0  0  0  0  0  0
   41.6040   32.9040   38.9790 C   0  0  0  0  0  0  0  0  0  0  0  0
   42.7210   32.9170   39.7520 C   0  0  0  0  0  0  0  0  0  0  0  0
   43.8740   33.5620   39.3970 C   0  0  0  0  0  0  0  0  0  0  0  0
   43.8720   34.2100   38.2110 N   0  0  0  0  0  0  0  0  0  0  0  0
   42.7750   34.1960   37.4560 C   0  0  0  0  0  0  0  0  0  0  0  0
   41.6340   33.5720   37.7800 N   0  0  0  0  0  0  0  0  0  0  0  0
   42.7270   32.3990   40.7020 H   0  0  0  0  0  0  0  0  0  0  0  0
   44.7700   33.5810   40.0000 H   0  0  0  0  0  0  0  0  0  0  0  0
   42.7520   34.7110   36.4980 H   0  0  0  0  0  0  0  0  0  0  0  0
   36.3930   29.0410   40.3760 O   0  0  0  0  0  0  0  0  0  0  0  0
   37.0210   27.8820   40.7500 C   0  0  0  0  0  0  0  0  0  0  0  0
   36.5200   27.0550   40.1570 H   0  0  0  0  0  0  0  0  0  0  0  0
   38.0860   27.7550   40.4760 H   0  0  0  0  0  0  0  0  0  0  0  0
   36.7580   27.4640   42.1920 C   0  0  0  0  0  0  0  0  0  0  0  0
   35.9850   26.6940   42.2630 H   0  0  0  0  0  0  0  0  0  0  0  0
   36.5680   28.3770   42.7690 H   0  0  0  0  0  0  0  0  0  0  0  0
   38.2830   25.5080   42.6690 C   0  0  0  0  0  0  0  0  0  0  0  0
   38.0390   26.8720   42.6950 C   0  0  0  0  0  0  0  0  0  0  0  0
   39.0420   27.6870   43.2120 C   0  0  0  0  0  0  0  0  0  0  0  0
   38.8260   28.7490   43.2200 H   0  0  0  0  0  0  0  0  0  0  0  0
   40.2520   27.2080   43.6940 C   0  0  0  0  0  3  0  0  0  0  0  0
   40.4600   25.8380   43.6510 C   0  0  0  0  0  3  0  0  0  0  0  0
   39.4930   25.0120   43.1490 C   0  0  0  0  0  0  0  0  0  0  0  0
   37.3270   24.6500   42.1680 O   0  0  0  0  0  0  0  0  0  0  0  0
   37.3090   23.6570   42.3720 H   0  0  0  0  0  0  0  0  0  0  0  0
   39.7850   23.6550   43.1440 O   0  0  0  0  0  0  0  0  0  0  0  0
   40.7350   23.3060   43.0010 H   0  0  0  0  0  0  0  0  0  0  0  0
  1  2  2  0  0  0  0
  3  9  1  0  0  0  0
  4  1  1  0  0  0  0
  4  3  2  0  0  0  0
  5  4  1  0  0  0  0
  6  5  2  0  0  0  0
  6  7  1  0  0  0  0
  7  8  2  0  0  0  0
  8  3  1  0  0  0  0
 10  5  1  0  0  0  0
 11  7  1  0  0  0  0
 11 12  1  0  0  0  0
 12 17  1  0  0  0  0
 13 12  2  0  0  0  0
 13 18  1  0  0  0  0
 14 13  1  0  0  0  0
 15 16  1  0  0  0  0
 15 14  2  0  0  0  0
 16 11  2  0  0  0  0
 19 15  1  0  0  0  0
 20  1  1  0  0  0  0
 20 21  1  0  0  0  0
 21 24  1  0  0  0  0
 22 21  1  0  0  0  0
 23 21  1  0  0  0  0
 24 25  1  0  0  0  0
 24 28  1  0  0  0  0
 24 26  1  0  0  0  0
 27 28  2  0  0  0  0
 27 33  1  0  0  0  0
 28 29  1  0  0  0  0
 29 30  1  0  0  0  0
 29 31  2  0  0  0  0
 32 31  1  0  0  0  0
 33 32  2  0  0  0  0
 34 35  1  0  0  0  0
 34 27  1  0  0  0  0
 36 33  1  0  0  0  0
 37 36  1  0  0  0  0
M  END
>  <minimizedAffinity>
-5.58975744

$$$$

 OpenBabel03252500523D

 37 39  0  0  0  0  0  0  0  0999 V2000
   37.5650   30.9360   40.9170 C   0  0  0  0  0  0  0  0  0  0  0  0
   37.7260   32.1700   40.8170 O   0  0  0  0  0  0  0  0  0  0  0  0
   35.5070   29.6800   40.5420 C   0  0  0  0  0  0  0  0  0  0  0  0
   36.6230   30.2870   40.0210 C   0  0  0  0  0  0  0  0  0  0  0  0
   36.8710   30.2900   38.6310 C   0  0  0  0  0  0  0  0  0  0  0  0
   35.9370   29.6570   37.8490 N   0  0  0  0  0  0  0  0  0  0  0  0
   34.8600   29.0730   38.3630 C   0  0  0  0  0  0  0  0  0  0  0  0
   34.6490   29.0850   39.6970 N   0  0  0  0  0  0  0  0  0  0  0  0
   35.2570   29.6400   41.5750 H   0  0  0  0  0  0  0  0  0  0  0  0
   37.7380   30.7590   38.2030 H   0  0  0  0  0  0  0  0  0  0  0  0
   33.8940   28.4110   37.4990 C   0  0  0  0  0  0  0  0  0  0  0  0
   34.0040   27.1040   37.1420 C   0  0  0  0  0  0  0  0  0  0  0  0
   33.1040   26.4680   36.3310 C   0  0  0  0  0  0  0  0  0  0  0  0
   32.0650   27.2020   35.8760 N   0  0  0  0  0  0  0  0  0  0  0  0
   31.9610   28.4830   36.2270 C   0  0  0  0  0  0  0  0  0  0  0  0
   32.8270   29.1290   37.0200 N   0  0  0  0  0  0  0  0  0  0  0  0
   34.8350   26.5130   37.5030 H   0  0  0  0  0  0  0  0  0  0  0  0
   33.1780   25.4300   36.0390 H   0  0  0  0  0  0  0  0  0  0  0  0
   31.1320   29.0910   35.8720 H   0  0  0  0  0  0  0  0  0  0  0  0
   38.3740   30.4830   41.9180 O   0  0  0  0  0  0  0  0  0  0  0  0
   38.8590   29.2030   41.9930 C   0  0  0  0  0  0  0  0  0  0  0  0
   38.3860   28.6440   41.1280 H   0  0  0  0  0  0  0  0  0  0  0  0
   39.9400   29.0450   41.8120 H   0  0  0  0  0  0  0  0  0  0  0  0
   38.3710   28.4190   43.2050 C   0  0  0  0  0  0  0  0  0  0  0  0
   37.3840   28.7490   43.5390 H   0  0  0  0  0  0  0  0  0  0  0  0
   39.1630   28.4600   43.9630 H   0  0  0  0  0  0  0  0  0  0  0  0
   39.0750   25.9930   43.2470 C   0  0  0  0  0  0  0  0  0  0  0  0
   38.2500   26.9950   42.7580 C   0  0  0  0  0  0  0  0  0  0  0  0
   37.2880   26.6240   41.8230 C   0  0  0  0  0  0  0  0  0  0  0  0
   36.6560   27.4250   41.4570 H   0  0  0  0  0  0  0  0  0  0  0  0
   37.1190   25.3250   41.3640 C   0  0  0  0  0  3  0  0  0  0  0  0
   37.9620   24.3510   41.8770 C   0  0  0  0  0  3  0  0  0  0  0  0
   38.9170   24.6840   42.7970 C   0  0  0  0  0  0  0  0  0  0  0  0
   40.0470   26.3000   44.1760 O   0  0  0  0  0  0  0  0  0  0  0  0
   40.8480   25.7060   44.3590 H   0  0  0  0  0  0  0  0  0  0  0  0
   39.7170   23.6480   43.2560 O   0  0  0  0  0  0  0  0  0  0  0  0
   39.3620   22.6960   43.3640 H   0  0  0  0  0  0  0  0  0  0  0  0
  1 20  1  0  0  0  0
  2  1  2  0  0  0  0
  3  9  1  0  0  0  0
  4  3  1  0  0  0  0
  4  1  1  0  0  0  0
  5  4  2  0  0  0  0
  6  7  2  0  0  0  0
  6  5  1  0  0  0  0
  7  8  1  0  0  0  0
  8  3  2  0  0  0  0
 10  5  1  0  0  0  0
 11  7  1  0  0  0  0
 12 11  1  0  0  0  0
 12 17  1  0  0  0  0
 13 12  2  0  0  0  0
 14 15  2  0  0  0  0
 14 13  1  0  0  0  0
 15 16  1  0  0  0  0
 16 11  2  0  0  0  0
 18 13  1  0  0  0  0
 19 15  1  0  0  0  0
 20 21  1  0  0  0  0
 21 24  1  0  0  0  0
 22 21  1  0  0  0  0
 23 21  1  0  0  0  0
 24 25  1  0  0  0  0
 24 26  1  0  0  0  0
 27 34  1  0  0  0  0
 28 24  1  0  0  0  0
 28 27  2  0  0  0  0
 29 28  1  0  0  0  0
 30 29  1  0  0  0  0
 31 29  2  0  0  0  0
 31 32  1  0  0  0  0
 32 33  2  0  0  0  0
 33 27  1  0  0  0  0
 33 36  1  0  0  0  0
 34 35  1  0  0  0  0
 36 37  1  0  0  0  0
M  END
>  <minimizedAffinity>
-5.57765007

$$$$

 OpenBabel03252500523D

 37 39  0  0  0  0  0  0  0  0999 V2000
   36.8440   30.7510   40.8170 C   0  0  0  0  0  0  0  0  0  0  0  0
   37.0900   31.9730   40.7620 O   0  0  0  0  0  0  0  0  0  0  0  0
   36.6260   30.3130   38.4270 C   0  0  0  0  0  0  0  0  0  0  0  0
   36.1480   30.1340   39.7000 C   0  0  0  0  0  0  0  0  0  0  0  0
   34.9920   29.3590   39.9440 C   0  0  0  0  0  0  0  0  0  0  0  0
   34.3900   28.8080   38.8400 N   0  0  0  0  0  0  0  0  0  0  0  0
   34.8610   28.9880   37.6110 C   0  0  0  0  0  0  0  0  0  0  0  0
   35.9680   29.7340   37.4080 N   0  0  0  0  0  0  0  0  0  0  0  0
   37.4880   30.8810   38.1700 H   0  0  0  0  0  0  0  0  0  0  0  0
   34.6010   29.2060   40.9330 H   0  0  0  0  0  0  0  0  0  0  0  0
   34.1920   28.3880   36.4670 C   0  0  0  0  0  0  0  0  0  0  0  0
   33.1430   28.9790   35.8370 C   0  0  0  0  0  0  0  0  0  0  0  0
   32.5040   28.4270   34.7610 C   0  0  0  0  0  0  0  0  0  0  0  0
   32.9600   27.2320   34.3250 N   0  0  0  0  0  0  0  0  0  0  0  0
   33.9870   26.6550   34.9460 C   0  0  0  0  0  0  0  0  0  0  0  0
   34.6310   27.1740   36.0000 N   0  0  0  0  0  0  0  0  0  0  0  0
   32.7750   29.9360   36.1820 H   0  0  0  0  0  0  0  0  0  0  0  0
   31.6700   28.8860   34.2490 H   0  0  0  0  0  0  0  0  0  0  0  0
   34.3700   25.6930   34.6110 H   0  0  0  0  0  0  0  0  0  0  0  0
   37.3260   30.2740   42.0010 O   0  0  0  0  0  0  0  0  0  0  0  0
   38.1670   29.1980   42.1110 C   0  0  0  0  0  0  0  0  0  0  0  0
   37.9100   28.5180   41.2400 H   0  0  0  0  0  0  0  0  0  0  0  0
   39.2510   29.3670   41.9650 H   0  0  0  0  0  0  0  0  0  0  0  0
   37.8950   28.3100   43.3190 C   0  0  0  0  0  0  0  0  0  0  0  0
   36.8940   28.4700   43.7300 H   0  0  0  0  0  0  0  0  0  0  0  0
   38.7220   28.4540   44.0250 H   0  0  0  0  0  0  0  0  0  0  0  0
   38.9120   25.9990   43.2900 C   0  0  0  0  0  0  0  0  0  0  0  0
   37.9650   26.8990   42.8250 C   0  0  0  0  0  0  0  0  0  0  0  0
   37.0670   26.4370   41.8670 C   0  0  0  0  0  0  0  0  0  0  0  0
   36.3380   27.1600   41.5200 H   0  0  0  0  0  0  0  0  0  0  0  0
   37.0740   25.1430   41.3640 C   0  0  0  0  0  3  0  0  0  0  0  0
   38.0350   24.2720   41.8540 C   0  0  0  0  0  3  0  0  0  0  0  0
   38.9310   24.6970   42.7950 C   0  0  0  0  0  0  0  0  0  0  0  0
   39.8280   26.3990   44.2390 O   0  0  0  0  0  0  0  0  0  0  0  0
   40.6990   25.9100   44.4120 H   0  0  0  0  0  0  0  0  0  0  0  0
   39.8580   23.7590   43.2290 O   0  0  0  0  0  0  0  0  0  0  0  0
   39.6300   22.7660   43.3020 H   0  0  0  0  0  0  0  0  0  0  0  0
  1 20  1  0  0  0  0
  2  1  2  0  0  0  0
  3  4  1  0  0  0  0
  4  5  2  0  0  0  0
  4  1  1  0  0  0  0
  5 10  1  0  0  0  0
  6  5  1  0  0  0  0
  7  6  2  0  0  0  0
  8  7  1  0  0  0  0
  8  3  2  0  0  0  0
  9  3  1  0  0  0  0
 11  7  1  0  0  0  0
 12 17  1  0  0  0  0
 12 11  2  0  0  0  0
 13 12  1  0  0  0  0
 14 13  2  0  0  0  0
 14 15  1  0  0  0  0
 15 16  2  0  0  0  0
 16 11  1  0  0  0  0
 18 13  1  0  0  0  0
 19 15  1  0  0  0  0
 20 21  1  0  0  0  0
 21 24  1  0  0  0  0
 22 21  1  0  0  0  0
 23 21  1  0  0  0  0
 24 25  1  0  0  0  0
 24 26  1  0  0  0  0
 27 34  1  0  0  0  0
 28 27  1  0  0  0  0
 28 24  1  0  0  0  0
 29 28  2  0  0  0  0
 30 29  1  0  0  0  0
 31 32  2  0  0  0  0
 31 29  1  0  0  0  0
 32 33  1  0  0  0  0
 33 36  1  0  0  0  0
 33 27  2  0  0  0  0
 34 35  1  0  0  0  0
 36 37  1  0  0  0  0
M  END
>  <minimizedAffinity>
-5.50575495

$$$$
