
 OpenBabel03252501383D

 37 39  0  0  0  0  0  0  0  0999 V2000
   42.6680   32.9520   38.2110 Cl  0  0  0  0  0  0  0  0  0  0  0  0
   41.6560   33.3620   39.5690 C   0  0  0  0  0  0  0  0  0  0  0  0
   41.9590   34.3870   40.4700 C   0  0  0  0  0  0  0  0  0  0  0  0
   41.1120   34.6480   41.5100 C   0  0  0  0  0  0  0  0  0  0  0  0
   39.9490   33.9610   41.7500 C   0  0  0  0  0  0  0  0  0  0  0  0
   39.6220   32.9340   40.8680 C   0  0  0  0  0  0  0  0  0  0  0  0
   38.1540   31.9790   41.0680 Cl  0  0  0  0  0  0  0  0  0  0  0  0
   40.4910   32.6800   39.8150 C   0  0  0  0  0  0  0  0  0  0  0  0
   41.4160   35.4620   42.1700 H   0  0  0  0  0  0  0  0  0  0  0  0
   39.2930   34.1790   42.5740 H   0  0  0  0  0  0  0  0  0  0  0  0
   39.3440   31.6920   37.7640 C   0  0  0  0  0  0  0  0  0  0  0  0
   40.1510   31.5990   38.8820 C   0  0  0  0  0  0  0  0  0  0  0  0
   40.7540   30.3910   39.2480 C   0  0  0  0  0  0  0  0  0  0  0  0
   41.3910   30.2420   40.0990 H   0  0  0  0  0  0  0  0  0  0  0  0
   40.5280   29.2630   38.4590 C   0  0  0  0  0  3  0  0  0  0  0  0
   39.7310   29.3540   37.3550 C   0  0  0  0  0  3  0  0  0  0  0  0
   39.1470   30.5530   37.0120 C   0  0  0  0  0  0  0  0  0  0  0  0
   38.8140   32.9500   37.5220 O   0  0  0  0  0  0  0  0  0  0  0  0
   38.0430   33.1370   36.8990 H   0  0  0  0  0  0  0  0  0  0  0  0
   38.3270   30.6960   35.8940 O   0  0  0  0  0  0  0  0  0  0  0  0
   38.7100   30.4230   34.9860 H   0  0  0  0  0  0  0  0  0  0  0  0
   43.1470   35.0740   40.2080 O   0  0  0  0  0  0  0  0  0  0  0  0
   44.3000   34.6860   40.9000 C   0  0  0  0  0  0  0  0  0  0  0  0
   45.0300   33.6760   40.6340 O   0  0  0  0  0  0  0  0  0  0  0  0
   44.7740   35.4300   42.0200 N   0  0  0  0  0  0  0  0  0  0  0  0
   44.2940   36.2720   42.3480 H   0  0  0  0  0  0  0  0  0  0  0  0
   45.9740   34.7810   42.5330 C   0  0  0  0  0  0  0  0  0  0  0  0
   45.9810   33.7640   43.4610 C   0  0  0  0  0  0  0  0  0  0  0  0
   47.2170   33.2750   43.8250 C   0  0  0  0  0  0  0  0  0  0  0  0
   48.3050   33.8150   43.2570 N   0  0  0  0  0  0  0  0  0  0  0  0
   48.2610   34.8100   42.3510 C   0  0  0  0  0  0  0  0  0  0  0  0
   47.0560   35.3160   41.9700 N   0  0  0  0  0  0  0  0  0  0  0  0
   47.2250   32.4770   44.5530 H   0  0  0  0  0  0  0  0  0  0  0  0
   49.2030   35.1660   41.9610 H   0  0  0  0  0  0  0  0  0  0  0  0
   44.7280   33.3230   43.9490 N   0  0  0  0  0  0  0  0  0  0  0  0
   44.6920   33.2460   44.9850 H   0  0  0  0  0  0  0  0  0  0  0  0
   44.0000   33.1320   43.2250 H   0  0  0  0  0  0  0  0  0  0  0  0
  1  2  1  0  0  0  0
  2  8  2  0  0  0  0
  2  3  1  0  0  0  0
  3  4  2  0  0  0  0
  4  5  1  0  0  0  0
  4  9  1  0  0  0  0
  5 10  1  0  0  0  0
  6  7  1  0  0  0  0
  6  5  2  0  0  0  0
  8  6  1  0  0  0  0
 11 12  1  0  0  0  0
 12 13  2  0  0  0  0
 12  8  1  0  0  0  0
 13 14  1  0  0  0  0
 15 13  1  0  0  0  0
 16 15  2  0  0  0  0
 17 16  1  0  0  0  0
 17 11  2  0  0  0  0
 18 11  1  0  0  0  0
 19 18  1  0  0  0  0
 20 17  1  0  0  0  0
 21 20  1  0  0  0  0
 22  3  1  0  0  0  0
 22 23  1  0  0  0  0
 23 25  1  0  0  0  0
 24 23  2  0  0  0  0
 25 26  1  0  0  0  0
 25 27  1  0  0  0  0
 27 28  1  0  0  0  0
 28 29  2  0  0  0  0
 28 35  1  0  0  0  0
 29 33  1  0  0  0  0
 30 29  1  0  0  0  0
 31 30  2  0  0  0  0
 32 31  1  0  0  0  0
 32 27  2  0  0  0  0
 34 31  1  0  0  0  0
 35 36  1  0  0  0  0
 37 35  1  0  0  0  0
M  END
>  <minimizedAffinity>
-5.64779902

>  <minimizedRMSD>
1.96340334

$$$$
