
 OpenBabel03252503413D

 23 24  0  0  0  0  0  0  0  0999 V2000
   44.8400   34.9740   45.1040 C   0  0  0  0  0  0  0  0  0  0  0  0
   45.0510   34.6460   43.7620 C   0  0  0  0  0  0  0  0  0  0  0  0
   45.7370   33.4710   43.4860 C   0  0  0  0  0  0  0  0  0  0  0  0
   46.1630   32.7080   44.5280 N   0  0  0  0  0  0  0  0  0  0  0  0
   45.9460   33.0460   45.8070 C   0  0  0  0  0  0  0  0  0  0  0  0
   45.2840   34.1790   46.1110 N   0  0  0  0  0  0  0  0  0  0  0  0
   44.3180   35.8630   45.4760 H   0  0  0  0  0  0  0  0  0  0  0  0
   45.8650   33.2800   42.4450 H   0  0  0  0  0  0  0  0  0  0  0  0
   45.8970   30.9470   47.0950 C   0  0  0  0  0  0  0  0  0  0  0  0
   46.4230   32.1930   46.8910 C   0  0  0  0  0  0  0  0  0  0  0  0
   47.4160   32.6070   47.7440 C   0  0  0  0  0  0  0  0  0  0  0  0
   47.8850   33.5650   47.6570 H   0  0  0  0  0  0  0  0  0  0  0  0
   47.8500   31.7750   48.7650 C   0  0  0  0  0  3  0  0  0  0  0  0
   47.3000   30.5200   48.9500 C   0  0  0  0  0  3  0  0  0  0  0  0
   46.2980   30.0900   48.0980 C   0  0  0  0  0  0  0  0  0  0  0  0
   44.8790   30.5340   46.2150 O   0  0  0  0  0  0  0  0  0  0  0  0
   45.0640   30.0100   45.3790 H   0  0  0  0  0  0  0  0  0  0  0  0
   45.6690   28.8400   48.1900 O   0  0  0  0  0  0  0  0  0  0  0  0
   45.3880   28.3430   47.3470 H   0  0  0  0  0  0  0  0  0  0  0  0
   44.5000   35.6240   42.7980 C   0  0  0  0  0  0  0  0  0  0  0  0
   43.3920   35.5490   42.7230 H   0  0  0  0  0  0  0  0  0  0  0  0
   44.9690   35.4120   41.8160 H   0  0  0  0  0  0  0  0  0  0  0  0
   44.7000   36.6450   43.1770 H   0  0  0  0  0  0  0  0  0  0  0  0
  1  7  1  0  0  0  0
  1  6  1  0  0  0  0
  2  1  2  0  0  0  0
  3  2  1  0  0  0  0
  3  4  2  0  0  0  0
  4  5  1  0  0  0  0
  5  6  2  0  0  0  0
  5 10  1  0  0  0  0
  8  3  1  0  0  0  0
  9 15  1  0  0  0  0
 10  9  2  0  0  0  0
 10 11  1  0  0  0  0
 11 13  2  0  0  0  0
 12 11  1  0  0  0  0
 13 14  1  0  0  0  0
 15 18  1  0  0  0  0
 15 14  2  0  0  0  0
 16  9  1  0  0  0  0
 17 16  1  0  0  0  0
 19 18  1  0  0  0  0
 20 23  1  0  0  0  0
 20  2  1  0  0  0  0
 21 20  1  0  0  0  0
 22 20  1  0  0  0  0
M  END
>  <minimizedAffinity>
-4.72090435

>  <minimizedRMSD>
2.01966739

$$$$
