
 OpenBabel03252505313D

 29 30  0  0  0  0  0  0  0  0999 V2000
   45.3210   30.6880   46.9230 O   0  0  0  0  0  0  0  0  0  0  0  0
   45.1320   29.8900   48.0130 C   0  0  0  0  0  0  0  0  0  0  0  0
   44.0470   29.8740   48.3050 H   0  0  0  0  0  0  0  0  0  0  0  0
   45.6420   30.3070   48.9220 H   0  0  0  0  0  0  0  0  0  0  0  0
   46.6930   28.0540   47.2530 C   0  0  0  0  0  0  0  0  0  0  0  0
   45.5090   28.4680   47.8210 C   0  0  0  0  0  0  0  0  0  0  0  0
   44.6140   27.4920   48.2360 C   0  0  0  0  0  0  0  0  0  0  0  0
   43.6680   27.7410   48.6870 H   0  0  0  0  0  0  0  0  0  0  0  0
   44.8350   26.1280   48.1150 C   0  0  0  0  0  3  0  0  0  0  0  0
   46.0330   25.7320   47.5400 C   0  0  0  0  0  3  0  0  0  0  0  0
   46.9270   26.7180   47.1250 C   0  0  0  0  0  0  0  0  0  0  0  0
   47.5860   29.0310   46.8400 O   0  0  0  0  0  0  0  0  0  0  0  0
   47.7240   29.3370   45.8890 H   0  0  0  0  0  0  0  0  0  0  0  0
   48.1250   26.3330   46.5490 O   0  0  0  0  0  0  0  0  0  0  0  0
   48.9450   26.3330   47.1410 H   0  0  0  0  0  0  0  0  0  0  0  0
   46.7920   31.9570   48.6300 O   0  0  0  0  0  0  0  0  0  0  0  0
   45.8310   32.2110   47.4690 P   0  0  2  0  0  0  0  0  0  0  0  0
   44.4560   33.0510   47.9690 O   0  0  0  0  0  0  0  0  0  0  0  0
   44.7140   33.5060   48.8330 H   0  0  0  0  0  0  0  0  0  0  0  0
   46.6700   33.0740   46.2990 O   0  0  0  0  0  0  0  0  0  0  0  0
   44.5210   35.4900   44.8590 C   0  0  0  0  0  0  0  0  0  0  0  0
   44.9490   35.6250   43.5160 C   0  0  0  0  0  0  0  0  0  0  0  0
   46.0440   34.8110   43.1430 C   0  0  0  0  0  0  0  0  0  0  0  0
   46.5920   33.9770   44.0890 N   0  0  0  0  0  0  0  0  0  0  0  0
   46.1340   33.9030   45.3380 C   0  0  0  0  0  0  0  0  0  0  0  0
   45.1090   34.6550   45.7110 N   0  0  0  0  0  0  0  0  0  0  0  0
   43.6720   36.1370   45.1010 H   0  0  0  0  0  0  0  0  0  0  0  0
   44.4820   36.2960   42.8080 H   0  0  0  0  0  0  0  0  0  0  0  0
   46.4270   34.8570   42.1350 H   0  0  0  0  0  0  0  0  0  0  0  0
  1 17  1  0  0  0  0
  1  2  1  0  0  0  0
  2  3  1  0  0  0  0
  2  4  1  0  0  0  0
  5  6  1  0  0  0  0
  6  2  1  0  0  0  0
  6  7  2  0  0  0  0
  7  8  1  0  0  0  0
  9  7  1  0  0  0  0
 10  9  2  0  0  0  0
 11  5  2  0  0  0  0
 11 10  1  0  0  0  0
 12  5  1  0  0  0  0
 13 12  1  0  0  0  0
 14 11  1  0  0  0  0
 14 15  1  0  0  0  0
 17 18  1  0  0  0  0
 17 16  2  1  0  0  0
 18 19  1  0  0  0  0
 20 17  1  0  0  0  0
 21 27  1  0  0  0  0
 21 26  1  0  0  0  0
 22 21  2  0  0  0  0
 23 22  1  0  0  0  0
 23 24  2  0  0  0  0
 24 25  1  0  0  0  0
 25 26  2  0  0  0  0
 25 20  1  0  0  0  0
 28 22  1  0  0  0  0
 29 23  1  0  0  0  0
M  END
>  <minimizedAffinity>
-4.70899439

>  <minimizedRMSD>
1.42606604

$$$$
