
 OpenBabel03242518363D

 37 40  0  0  1  0  0  0  0  0999 V2000
   47.3720   33.8600   39.7100 C   0  0  0  0  0  0  0  0  0  0  0  0
   48.3770   34.6310   39.1280 C   0  0  0  0  0  0  0  0  0  0  0  0
   48.3630   34.4210   37.7570 C   0  0  0  0  0  0  0  0  0  0  0  0
   47.3400   33.5260   37.5750 C   0  0  0  0  0  0  0  0  0  0  0  0
   46.7690   33.2040   38.7150 O   0  0  0  0  0  0  0  0  0  0  0  0
   49.0190   35.2650   39.7470 H   0  0  0  0  0  0  0  0  0  0  0  0
   49.0390   34.8960   37.0610 H   0  0  0  0  0  0  0  0  0  0  0  0
   46.9270   32.9940   36.2650 C   0  0  2  0  0  0  0  0  0  0  0  0
   46.3290   31.6450   36.1810 C   0  0  0  0  0  0  0  0  0  0  0  0
   47.7660   31.7870   35.7910 C   0  0  1  0  0  0  0  0  0  0  0  0
   46.7890   33.7930   35.5070 H   0  0  0  0  0  0  0  0  0  0  0  0
   46.1100   31.0870   37.0990 H   0  0  0  0  0  0  0  0  0  0  0  0
   45.5430   31.5010   35.3880 H   0  0  0  0  0  0  0  0  0  0  0  0
   48.5290   31.3810   36.4940 H   0  0  0  0  0  0  0  0  0  0  0  0
   47.7550   30.7060   33.5770 C   0  0  0  0  0  0  0  0  0  0  0  0
   48.0700   31.8110   34.3400 C   0  0  0  0  0  0  0  0  0  0  0  0
   48.6540   32.8800   33.6930 C   0  0  0  0  0  0  0  0  0  0  0  0
   48.9110   33.7610   34.2650 H   0  0  0  0  0  0  0  0  0  0  0  0
   48.9060   32.8300   32.3370 C   0  0  0  0  0  3  0  0  0  0  0  0
   48.5950   31.7320   31.5650 C   0  0  0  0  0  3  0  0  0  0  0  0
   48.0110   30.6550   32.2020 C   0  0  0  0  0  0  0  0  0  0  0  0
   47.1650   29.6120   34.2050 O   0  0  0  0  0  0  0  0  0  0  0  0
   47.0560   28.7520   33.7000 H   0  0  0  0  0  0  0  0  0  0  0  0
   47.6830   29.5260   31.4550 O   0  0  0  0  0  0  0  0  0  0  0  0
   48.4580   28.8730   31.3210 H   0  0  0  0  0  0  0  0  0  0  0  0
   46.9740   33.7180   41.0530 O   0  0  0  0  0  0  0  0  0  0  0  0
   47.2350   34.7530   41.9730 C   0  0  0  0  0  0  0  0  0  0  0  0
   48.1990   35.5110   41.6810 O   0  0  0  0  0  0  0  0  0  0  0  0
   46.3880   34.8200   43.1120 C   0  0  0  0  0  0  0  0  0  0  0  0
   45.5080   35.8670   43.1140 C   0  0  0  0  0  0  0  0  0  0  0  0
   44.6470   35.9950   44.2020 C   0  0  0  0  0  0  0  0  0  0  0  0
   44.7260   35.0850   45.1870 N   0  0  0  0  0  0  0  0  0  0  0  0
   45.5970   34.0730   45.1560 C   0  0  0  0  0  0  0  0  0  0  0  0
   46.4290   33.9520   44.1030 N   0  0  0  0  0  0  0  0  0  0  0  0
   45.3760   36.6500   42.3590 H   0  0  0  0  0  0  0  0  0  0  0  0
   43.9240   36.8040   44.2660 H   0  0  0  0  0  0  0  0  0  0  0  0
   45.5830   33.3870   46.0050 H   0  0  0  0  0  0  0  0  0  0  0  0
  1 26  1  0  0  0  0
  2  1  2  0  0  0  0
  2  6  1  0  0  0  0
  3  2  1  0  0  0  0
  4  3  2  0  0  0  0
  4  5  1  0  0  0  0
  5  1  1  0  0  0  0
  7  3  1  0  0  0  0
  8 11  1  6  0  0  0
  8  4  1  0  0  0  0
  9  8  1  0  0  0  0
  9 12  1  0  0  0  0
 10  9  1  0  0  0  0
 10  8  1  0  0  0  0
 10 14  1  1  0  0  0
 13  9  1  0  0  0  0
 15 22  1  0  0  0  0
 15 16  1  0  0  0  0
 16 10  1  0  0  0  0
 17 18  1  0  0  0  0
 17 16  2  0  0  0  0
 19 17  1  0  0  0  0
 20 21  1  0  0  0  0
 20 19  2  0  0  0  0
 21 15  2  0  0  0  0
 23 22  1  0  0  0  0
 24 21  1  0  0  0  0
 25 24  1  0  0  0  0
 26 27  1  0  0  0  0
 27 29  1  0  0  0  0
 28 27  2  0  0  0  0
 29 30  2  0  0  0  0
 29 34  1  0  0  0  0
 30 31  1  0  0  0  0
 31 36  1  0  0  0  0
 31 32  2  0  0  0  0
 33 32  1  0  0  0  0
 33 37  1  0  0  0  0
 34 33  2  0  0  0  0
 35 30  1  0  0  0  0
M  END
>  <minimizedAffinity>
-5.87465143

>  <minimizedRMSD>
1.47411442

$$$$
