
 OpenBabel03252500513D

 37 39  0  0  0  0  0  0  0  0999 V2000
   44.8280   34.9490   42.0880 C   0  0  0  0  0  0  0  0  0  0  0  0
   45.6000   34.7760   41.1220 O   0  0  0  0  0  0  0  0  0  0  0  0
   44.9540   35.0060   44.5240 C   0  0  0  0  0  0  0  0  0  0  0  0
   45.1500   34.3140   43.3550 C   0  0  0  0  0  0  0  0  0  0  0  0
   45.6600   32.9970   43.3620 C   0  0  0  0  0  0  0  0  0  0  0  0
   45.9400   32.4640   44.5960 N   0  0  0  0  0  0  0  0  0  0  0  0
   45.7460   33.1420   45.7220 C   0  0  0  0  0  0  0  0  0  0  0  0
   45.2570   34.4010   45.6840 N   0  0  0  0  0  0  0  0  0  0  0  0
   44.5740   35.9970   44.5930 H   0  0  0  0  0  0  0  0  0  0  0  0
   45.8210   32.4380   42.4590 H   0  0  0  0  0  0  0  0  0  0  0  0
   46.0570   32.5410   47.0100 C   0  0  0  0  0  0  0  0  0  0  0  0
   47.3270   32.2440   47.3930 C   0  0  0  0  0  0  0  0  0  0  0  0
   47.6350   31.6790   48.6000 C   0  0  0  0  0  0  0  0  0  0  0  0
   46.6040   31.4140   49.4330 N   0  0  0  0  0  0  0  0  0  0  0  0
   45.3620   31.7060   49.0540 C   0  0  0  0  0  0  0  0  0  0  0  0
   45.0320   32.2590   47.8790 N   0  0  0  0  0  0  0  0  0  0  0  0
   48.1550   32.4540   46.7290 H   0  0  0  0  0  0  0  0  0  0  0  0
   48.6390   31.4370   48.9190 H   0  0  0  0  0  0  0  0  0  0  0  0
   44.5180   31.5010   49.7090 H   0  0  0  0  0  0  0  0  0  0  0  0
   43.8030   35.7490   41.6730 O   0  0  0  0  0  0  0  0  0  0  0  0
   42.7380   35.3090   40.9310 C   0  0  0  0  0  0  0  0  0  0  0  0
   42.7900   35.8780   39.9520 H   0  0  0  0  0  0  0  0  0  0  0  0
   42.7400   34.2560   40.5910 H   0  0  0  0  0  0  0  0  0  0  0  0
   41.3780   35.7200   41.4830 C   0  0  0  0  0  0  0  0  0  0  0  0
   41.1720   36.7820   41.3230 H   0  0  0  0  0  0  0  0  0  0  0  0
   41.3330   35.3840   42.5260 H   0  0  0  0  0  0  0  0  0  0  0  0
   39.5880   33.9480   41.3040 C   0  0  0  0  0  0  0  0  0  0  0  0
   40.3610   34.9350   40.7140 C   0  0  0  0  0  0  0  0  0  0  0  0
   40.1560   35.1760   39.3590 C   0  0  0  0  0  0  0  0  0  0  0  0
   40.7730   35.9520   38.9210 H   0  0  0  0  0  0  0  0  0  0  0  0
   39.2320   34.4890   38.5850 C   0  0  0  0  0  3  0  0  0  0  0  0
   38.4760   33.5090   39.2110 C   0  0  0  0  0  3  0  0  0  0  0  0
   38.6550   33.2490   40.5410 C   0  0  0  0  0  0  0  0  0  0  0  0
   39.7460   33.6650   42.6440 O   0  0  0  0  0  0  0  0  0  0  0  0
   39.4390   32.7950   43.0680 H   0  0  0  0  0  0  0  0  0  0  0  0
   37.8580   32.2520   41.0850 O   0  0  0  0  0  0  0  0  0  0  0  0
   36.9020   32.0870   40.7630 H   0  0  0  0  0  0  0  0  0  0  0  0
  1  4  1  0  0  0  0
  2  1  2  0  0  0  0
  3  9  1  0  0  0  0
  3  8  1  0  0  0  0
  4  5  1  0  0  0  0
  4  3  2  0  0  0  0
  5  6  2  0  0  0  0
  6  7  1  0  0  0  0
  7 11  1  0  0  0  0
  8  7  2  0  0  0  0
 10  5  1  0  0  0  0
 11 12  2  0  0  0  0
 11 16  1  0  0  0  0
 12 13  1  0  0  0  0
 13 18  1  0  0  0  0
 13 14  2  0  0  0  0
 15 14  1  0  0  0  0
 15 19  1  0  0  0  0
 16 15  2  0  0  0  0
 17 12  1  0  0  0  0
 20  1  1  0  0  0  0
 21 24  1  0  0  0  0
 21 20  1  0  0  0  0
 22 21  1  0  0  0  0
 23 21  1  0  0  0  0
 24 26  1  0  0  0  0
 25 24  1  0  0  0  0
 27 34  1  0  0  0  0
 28 27  1  0  0  0  0
 28 24  1  0  0  0  0
 29 28  2  0  0  0  0
 30 29  1  0  0  0  0
 31 32  2  0  0  0  0
 31 29  1  0  0  0  0
 32 33  1  0  0  0  0
 33 36  1  0  0  0  0
 33 27  2  0  0  0  0
 34 35  1  0  0  0  0
 37 36  1  0  0  0  0
M  END
>  <minimizedAffinity>
-7.33188057

>  <minimizedRMSD>
0.439060718

$$$$
