
 OpenBabel03242523283D

 23 24  0  0  0  0  0  0  0  0999 V2000
   46.9660   31.6760   44.8200 C   0  0  0  0  0  0  0  0  0  0  0  0
   48.0330   31.9660   44.9770 H   0  0  0  0  0  0  0  0  0  0  0  0
   47.0020   30.7320   44.2090 H   0  0  0  0  0  0  0  0  0  0  0  0
   45.9640   34.9410   43.3360 C   0  0  0  0  0  0  0  0  0  0  0  0
   44.8190   34.5830   42.6210 C   0  0  0  0  0  0  0  0  0  0  0  0
   44.4240   33.2470   42.6640 C   0  0  0  0  0  0  0  0  0  0  0  0
   45.1440   32.3500   43.3840 N   0  0  0  0  0  0  0  0  0  0  0  0
   46.2630   32.7480   44.0720 C   0  0  0  0  0  0  0  0  0  0  0  0
   46.6400   34.0310   44.0280 N   0  0  0  0  0  0  0  0  0  0  0  0
   46.3910   35.9450   43.3920 H   0  0  0  0  0  0  0  0  0  0  0  0
   44.3190   35.3660   42.0850 H   0  0  0  0  0  0  0  0  0  0  0  0
   43.5320   32.9700   42.1070 H   0  0  0  0  0  0  0  0  0  0  0  0
   46.3660   32.2500   47.1930 C   0  0  0  0  0  0  0  0  0  0  0  0
   46.3080   31.4010   46.1110 C   0  0  0  0  0  0  0  0  0  0  0  0
   45.5860   30.2310   46.2650 C   0  0  0  0  0  0  0  0  0  0  0  0
   45.5350   29.5550   45.4160 H   0  0  0  0  0  0  0  0  0  0  0  0
   44.9240   29.8650   47.4360 C   0  0  0  0  0  0  0  0  0  0  0  0
   45.0010   30.7400   48.5090 C   0  0  0  0  0  0  0  0  0  0  0  0
   45.7180   31.9100   48.3670 C   0  0  0  0  0  0  0  0  0  0  0  0
   47.0710   33.4280   47.0950 O   0  0  0  0  0  0  0  0  0  0  0  0
   47.4470   33.8150   47.9710 H   0  0  0  0  0  0  0  0  0  0  0  0
   45.7810   32.7680   49.4510 O   0  0  0  0  0  0  0  0  0  0  0  0
   44.9950   32.9480   50.0730 H   0  0  0  0  0  0  0  0  0  0  0  0
  1  2  1  0  0  0  0
  1 14  1  0  0  0  0
  3  1  1  0  0  0  0
  4 10  1  0  0  0  0
  4  9  1  0  0  0  0
  5  6  1  0  0  0  0
  5  4  2  0  0  0  0
  6  7  2  0  0  0  0
  7  8  1  0  0  0  0
  8  1  1  0  0  0  0
  9  8  2  0  0  0  0
 11  5  1  0  0  0  0
 12  6  1  0  0  0  0
 13 19  1  0  0  0  0
 14 15  1  0  0  0  0
 14 13  2  0  0  0  0
 15 17  2  0  0  0  0
 16 15  1  0  0  0  0
 17 18  1  0  0  0  0
 19 18  2  0  0  0  0
 19 22  1  0  0  0  0
 20 13  1  0  0  0  0
 20 21  1  0  0  0  0
 22 23  1  0  0  0  0
M  END
>  <minimizedAffinity>
-4.69169712

>  <minimizedRMSD>
3.03546453

$$$$
