
 OpenBabel03242523073D

 47 51  0  0  1  0  0  0  0  0999 V2000
   46.4010   32.0130   45.4790 C   0  0  0  0  0  0  0  0  0  0  0  0
   46.7730   32.7820   44.3460 C   0  0  0  0  0  0  0  0  0  0  0  0
   47.7630   32.1320   43.6240 C   0  0  0  0  0  0  0  0  0  0  0  0
   48.3350   30.9260   43.9110 C   0  0  0  0  0  0  0  0  0  0  0  0
   47.9160   30.2540   45.0170 C   0  0  0  0  0  0  0  0  0  0  0  0
   46.9450   30.7910   45.8150 C   0  0  0  0  0  0  0  0  0  0  0  0
   48.6590   29.0890   45.0390 O   0  0  0  0  0  0  0  0  0  0  0  0
   49.6130   29.1060   44.0070 C   0  0  1  0  0  0  0  0  0  0  0  0
   49.3200   30.2480   43.2250 O   0  0  0  0  0  0  0  0  0  0  0  0
   45.6570   32.2280   46.2560 H   0  0  0  0  0  0  0  0  0  0  0  0
   48.0440   32.7040   42.7970 H   0  0  0  0  0  0  0  0  0  0  0  0
   46.6920   30.1890   46.6510 H   0  0  0  0  0  0  0  0  0  0  0  0
   49.5060   28.1710   43.4100 H   0  0  0  0  0  0  0  0  0  0  0  0
   45.1810   36.0470   43.4400 C   0  0  0  0  0  0  0  0  0  0  0  0
   45.9670   34.9130   43.2270 C   0  0  0  0  0  0  0  0  0  0  0  0
   46.0520   33.9850   44.2200 C   0  0  0  0  0  0  0  0  0  0  0  0
   45.3660   34.2070   45.3560 N   0  0  0  0  0  0  0  0  0  0  0  0
   44.6070   35.2990   45.5630 C   0  0  0  0  0  0  0  0  0  0  0  0
   44.5220   36.2050   44.6120 N   0  0  0  0  0  0  0  0  0  0  0  0
   45.1120   36.8010   42.6450 H   0  0  0  0  0  0  0  0  0  0  0  0
   44.0360   35.5300   46.4530 H   0  0  0  0  0  0  0  0  0  0  0  0
   46.5760   34.7700   41.9680 N   0  0  0  0  0  0  0  0  0  0  0  0
   47.8540   35.1910   41.6710 C   0  0  0  0  0  0  0  0  0  0  0  0
   48.3560   34.7980   40.2980 C   0  0  0  0  0  0  0  0  0  0  0  0
   47.9990   33.5160   39.8780 N   0  0  0  0  0  0  0  0  0  0  0  0
   46.7020   33.0760   40.1550 C   0  0  0  0  0  0  0  0  0  0  0  0
   45.8980   34.1570   40.8380 C   0  0  0  0  0  0  0  0  0  0  0  0
   48.6540   34.9150   42.4130 H   0  0  0  0  0  0  0  0  0  0  0  0
   47.8870   36.3220   41.6860 H   0  0  0  0  0  0  0  0  0  0  0  0
   49.4560   34.9450   40.3000 H   0  0  0  0  0  0  0  0  0  0  0  0
   47.9630   35.5600   39.5630 H   0  0  0  0  0  0  0  0  0  0  0  0
   48.6110   32.9550   39.3160 H   0  0  0  0  0  0  0  0  0  0  0  0
   46.1870   32.9290   39.1580 H   0  0  0  0  0  0  0  0  0  0  0  0
   46.5720   32.1090   40.6620 H   0  0  0  0  0  0  0  0  0  0  0  0
   45.7280   34.9590   40.0790 H   0  0  0  0  0  0  0  0  0  0  0  0
   44.9170   33.8030   41.1970 H   0  0  0  0  0  0  0  0  0  0  0  0
   52.0470   29.5290   43.6780 C   0  0  0  0  0  0  0  0  0  0  0  0
   51.0000   29.2250   44.5110 C   0  0  0  0  0  0  0  0  0  0  0  0
   51.2430   29.0220   45.8640 C   0  0  0  0  0  0  0  0  0  0  0  0
   50.4570   28.7790   46.5700 H   0  0  0  0  0  0  0  0  0  0  0  0
   52.5370   29.1340   46.3230 C   0  0  0  0  0  0  0  0  0  0  0  0
   53.6090   29.4390   45.5120 C   0  0  0  0  0  0  0  0  0  0  0  0
   53.3450   29.6350   44.1780 C   0  0  0  0  0  0  0  0  0  0  0  0
   51.8500   29.7400   42.3190 O   0  0  0  0  0  0  0  0  0  0  0  0
   51.8770   30.6910   41.9260 H   0  0  0  0  0  0  0  0  0  0  0  0
   54.3930   29.9460   43.3100 O   0  0  0  0  0  0  0  0  0  0  0  0
   54.5020   29.4720   42.4160 H   0  0  0  0  0  0  0  0  0  0  0  0
  1  6  1  0  0  0  0
  1 10  1  0  0  0  0
  2  1  2  0  0  0  0
  3  4  2  0  0  0  0
  3  2  1  0  0  0  0
  4  5  1  0  0  0  0
  5  7  1  0  0  0  0
  5  6  2  0  0  0  0
  6 12  1  0  0  0  0
  8 13  1  6  0  0  0
  8 38  1  0  0  0  0
  8  7  1  0  0  0  0
  9  4  1  0  0  0  0
  9  8  1  0  0  0  0
 11  3  1  0  0  0  0
 14 19  1  0  0  0  0
 15 14  2  0  0  0  0
 15 16  1  0  0  0  0
 16  2  1  0  0  0  0
 16 17  2  0  0  0  0
 17 18  1  0  0  0  0
 18 21  1  0  0  0  0
 19 18  2  0  0  0  0
 20 14  1  0  0  0  0
 22 15  1  0  0  0  0
 23 29  1  0  0  0  0
 23 22  1  0  0  0  0
 23 28  1  0  0  0  0
 24 30  1  0  0  0  0
 24 23  1  0  0  0  0
 25 26  1  0  0  0  0
 25 24  1  0  0  0  0
 26 34  1  0  0  0  0
 26 27  1  0  0  0  0
 27 36  1  0  0  0  0
 27 22  1  0  0  0  0
 31 24  1  0  0  0  0
 32 25  1  0  0  0  0
 33 26  1  0  0  0  0
 35 27  1  0  0  0  0
 37 43  2  0  0  0  0
 37 38  1  0  0  0  0
 38 39  2  0  0  0  0
 39 41  1  0  0  0  0
 39 40  1  0  0  0  0
 42 41  2  0  0  0  0
 43 42  1  0  0  0  0
 44 37  1  0  0  0  0
 45 44  1  0  0  0  0
 46 43  1  0  0  0  0
 47 46  1  0  0  0  0
M  END
>  <minimizedAffinity>
-5.81028843

>  <minimizedRMSD>
0.247900963

$$$$
