
 OpenBabel03252503243D

 49 54  0  0  1  0  0  0  0  0999 V2000
   45.6370   33.4840   45.0930 C   0  0  0  0  0  0  0  0  0  0  0  0
   46.7050   32.9010   44.3220 C   0  0  0  0  0  0  0  0  0  0  0  0
   47.6160   32.1130   44.9740 C   0  0  0  0  0  0  0  0  0  0  0  0
   47.4560   31.9280   46.3130 N   0  0  0  0  0  0  0  0  0  0  0  0
   46.4420   32.4860   47.0250 C   0  0  0  0  0  0  0  0  0  0  0  0
   45.5350   33.2620   46.4130 N   0  0  0  0  0  0  0  0  0  0  0  0
   44.9210   34.1050   44.5740 H   0  0  0  0  0  0  0  0  0  0  0  0
   48.4250   31.6610   44.4300 H   0  0  0  0  0  0  0  0  0  0  0  0
   46.7680   33.1930   42.8580 C   0  0  1  0  0  0  0  0  0  0  0  0
   46.8090   34.5690   42.3800 C   0  0  0  0  0  0  0  0  0  0  0  0
   48.0690   33.7890   42.3460 C   0  0  2  0  0  0  0  0  0  0  0  0
   46.3590   32.3630   42.2540 H   0  0  0  0  0  0  0  0  0  0  0  0
   46.7980   35.3620   43.1840 H   0  0  0  0  0  0  0  0  0  0  0  0
   46.1770   34.8270   41.5480 H   0  0  0  0  0  0  0  0  0  0  0  0
   48.8830   33.9090   43.0830 H   0  0  0  0  0  0  0  0  0  0  0  0
   48.5000   33.2560   41.0240 C   0  0  0  0  0  0  0  0  0  0  0  0
   49.4040   32.2290   40.8600 C   0  0  0  0  0  0  0  0  0  0  0  0
   49.7610   31.7890   39.5970 C   0  0  0  0  0  0  0  0  0  0  0  0
   49.2180   32.3730   38.4720 C   0  0  0  0  0  0  0  0  0  0  0  0
   49.5460   31.9610   37.2240 N   0  0  0  0  0  0  0  0  0  0  0  0
   48.9900   32.5530   36.1390 C   0  0  0  0  0  0  0  0  0  0  0  0
   48.0560   33.6140   36.2130 C   0  0  0  0  0  0  0  0  0  0  0  0
   47.7160   34.0400   37.4740 C   0  0  0  0  0  0  0  0  0  0  0  0
   48.2950   33.4200   38.5870 C   0  0  0  0  0  0  0  0  0  0  0  0
   47.9700   33.8240   39.8650 C   0  0  0  0  0  0  0  0  0  0  0  0
   49.8260   31.7770   41.7480 H   0  0  0  0  0  0  0  0  0  0  0  0
   50.4770   30.9770   39.4880 H   0  0  0  0  0  0  0  0  0  0  0  0
   49.3090   32.1610   35.1960 H   0  0  0  0  0  0  0  0  0  0  0  0
   47.6620   34.0300   35.2950 H   0  0  0  0  0  0  0  0  0  0  0  0
   47.0080   34.8460   37.5890 H   0  0  0  0  0  0  0  0  0  0  0  0
   47.2590   34.6390   39.8720 H   0  0  0  0  0  0  0  0  0  0  0  0
   46.3720   32.1990   48.4850 C   0  0  2  0  0  0  0  0  0  0  0  0
   47.4120   31.4500   49.1670 C   0  0  0  0  0  0  0  0  0  0  0  0
   46.1760   30.6870   48.8140 C   0  0  2  0  0  0  0  0  0  0  0  0
   45.6130   32.8420   49.0120 H   0  0  0  0  0  0  0  0  0  0  0  0
   48.3660   31.3360   48.6530 H   0  0  0  0  0  0  0  0  0  0  0  0
   47.5550   31.7220   50.2560 H   0  0  0  0  0  0  0  0  0  0  0  0
   45.5030   30.4610   49.6590 H   0  0  0  0  0  0  0  0  0  0  0  0
   45.2720   29.3750   46.7500 C   0  0  0  0  0  0  0  0  0  0  0  0
   46.2120   29.7560   47.6810 C   0  0  0  0  0  0  0  0  0  0  0  0
   47.4800   29.1670   47.5820 C   0  0  0  0  0  0  0  0  0  0  0  0
   48.3530   29.3450   48.2310 H   0  0  0  0  0  0  0  0  0  0  0  0
   47.7710   28.2350   46.5800 C   0  0  0  0  0  3  0  0  0  0  0  0
   46.8120   27.8700   45.6620 C   0  0  0  0  0  3  0  0  0  0  0  0
   45.5800   28.4550   45.7720 C   0  0  0  0  0  0  0  0  0  0  0  0
   44.0570   30.0180   46.9410 O   0  0  0  0  0  0  0  0  0  0  0  0
   43.8030   30.8810   46.4820 H   0  0  0  0  0  0  0  0  0  0  0  0
   44.5560   28.1560   44.9010 O   0  0  0  0  0  0  0  0  0  0  0  0
   43.9500   28.9010   44.5470 H   0  0  0  0  0  0  0  0  0  0  0  0
  1  6  1  0  0  0  0
  2  3  1  0  0  0  0
  2  1  2  0  0  0  0
  3  4  2  0  0  0  0
  4  5  1  0  0  0  0
  5 32  1  0  0  0  0
  6  5  2  0  0  0  0
  7  1  1  0  0  0  0
  8  3  1  0  0  0  0
  9 12  1  6  0  0  0
  9  2  1  0  0  0  0
 10  9  1  0  0  0  0
 10 13  1  0  0  0  0
 11 10  1  0  0  0  0
 11  9  1  0  0  0  0
 11 15  1  1  0  0  0
 14 10  1  0  0  0  0
 16 11  1  0  0  0  0
 17 16  1  0  0  0  0
 17 26  1  0  0  0  0
 18 17  2  0  0  0  0
 19 24  1  0  0  0  0
 19 18  1  0  0  0  0
 20 19  2  0  0  0  0
 21 22  2  0  0  0  0
 21 20  1  0  0  0  0
 22 23  1  0  0  0  0
 23 30  1  0  0  0  0
 23 24  2  0  0  0  0
 24 25  1  0  0  0  0
 25 31  1  0  0  0  0
 25 16  2  0  0  0  0
 27 18  1  0  0  0  0
 28 21  1  0  0  0  0
 29 22  1  0  0  0  0
 32 34  1  0  0  0  0
 32 35  1  1  0  0  0
 32 33  1  0  0  0  0
 33 37  1  0  0  0  0
 34 33  1  0  0  0  0
 34 38  1  1  0  0  0
 36 33  1  0  0  0  0
 39 46  1  0  0  0  0
 39 40  1  0  0  0  0
 40 34  1  0  0  0  0
 41 40  2  0  0  0  0
 41 42  1  0  0  0  0
 43 41  1  0  0  0  0
 44 45  1  0  0  0  0
 44 43  2  0  0  0  0
 45 39  2  0  0  0  0
 47 46  1  0  0  0  0
 48 45  1  0  0  0  0
 49 48  1  0  0  0  0
M  END
>  <minimizedAffinity>
-5.61435986

>  <minimizedRMSD>
1.585168

$$$$
