
 OpenBabel03252503023D

 35 36  0  0  0  0  0  0  0  0999 V2000
   41.0000   32.0310   40.7300 C   0  0  0  0  0  0  0  0  0  0  0  0
   40.1530   32.8360   40.0010 C   0  0  0  0  0  0  0  0  0  0  0  0
   40.4610   34.1690   39.7620 C   0  0  0  0  0  0  0  0  0  0  0  0
   41.6230   34.6320   40.2780 N   0  0  0  0  0  0  0  0  0  0  0  0
   42.4430   33.8270   40.9930 C   0  0  0  0  0  0  0  0  0  0  0  0
   42.1440   32.5470   41.2190 N   0  0  0  0  0  0  0  0  0  0  0  0
   40.7490   30.9990   40.9070 H   0  0  0  0  0  0  0  0  0  0  0  0
   39.7890   34.8050   39.1840 H   0  0  0  0  0  0  0  0  0  0  0  0
   43.6640   35.2960   42.5600 C   0  0  0  0  0  0  0  0  0  0  0  0
   43.6850   34.3800   41.5270 C   0  0  0  0  0  0  0  0  0  0  0  0
   44.9180   33.9850   40.9920 C   0  0  0  0  0  0  0  0  0  0  0  0
   44.9830   33.2720   40.1840 H   0  0  0  0  0  0  0  0  0  0  0  0
   46.1120   34.5090   41.4990 C   0  0  0  0  0  0  0  0  0  0  0  0
   45.9990   35.4180   42.5320 C   0  0  0  0  0  0  0  0  0  0  0  0
   44.8210   35.8530   43.1070 C   0  0  0  0  0  0  0  0  0  0  0  0
   42.4480   35.7050   43.1100 O   0  0  0  0  0  0  0  0  0  0  0  0
   41.9850   35.0960   43.7610 H   0  0  0  0  0  0  0  0  0  0  0  0
   44.8050   36.7720   44.1440 O   0  0  0  0  0  0  0  0  0  0  0  0
   44.4120   36.4840   45.0310 H   0  0  0  0  0  0  0  0  0  0  0  0
   38.6120   32.1730   39.3320 S   0  0  0  0  0  0  0  0  0  0  0  0
   38.7450   32.0190   37.5520 C   0  0  0  0  0  0  0  0  0  0  0  0
   39.3520   32.8230   37.1000 H   0  0  0  0  0  0  0  0  0  0  0  0
   37.7480   32.0470   37.0640 H   0  0  0  0  0  0  0  0  0  0  0  0
   39.3700   30.7330   37.2830 N   0  0  0  0  0  0  0  0  0  0  0  0
   40.3840   30.7840   37.1090 H   0  0  0  0  0  0  0  0  0  0  0  0
   38.6870   29.9390   35.9240 S   0  0  0  0  0  0  0  0  0  0  0  0
   37.8430   30.8530   35.1120 O   0  0  0  0  0  0  0  0  0  0  0  0
   37.8570   31.0340   34.1560 H   0  0  0  0  0  0  0  0  0  0  0  0
   39.8410   29.4320   35.1040 O   0  0  0  0  0  0  0  0  0  0  0  0
   39.8810   28.6010   34.5830 H   0  0  0  0  0  0  0  0  0  0  0  0
   37.8240   28.6060   36.4170 O   0  0  0  0  0  0  0  0  0  0  0  0
   37.8010   28.4600   37.7940 C   0  0  0  0  0  0  0  0  0  0  0  0
   36.8490   28.7910   38.2440 H   0  0  0  0  0  0  0  0  0  0  0  0
   37.9200   27.3630   37.9910 H   0  0  0  0  0  0  0  0  0  0  0  0
   38.7010   28.9170   38.2840 H   0  0  0  0  0  0  0  0  0  0  0  0
  1  7  1  0  0  0  0
  1  6  1  0  0  0  0
  2  1  2  0  0  0  0
  3  2  1  0  0  0  0
  3  4  2  0  0  0  0
  4  5  1  0  0  0  0
  5  6  2  0  0  0  0
  5 10  1  0  0  0  0
  8  3  1  0  0  0  0
  9 15  1  0  0  0  0
  9 16  1  0  0  0  0
 10  9  2  0  0  0  0
 11 13  2  0  0  0  0
 11 10  1  0  0  0  0
 12 11  1  0  0  0  0
 13 14  1  0  0  0  0
 14 15  2  0  0  0  0
 15 18  1  0  0  0  0
 16 17  1  0  0  0  0
 18 19  1  0  0  0  0
 20  2  1  0  0  0  0
 21 20  1  0  0  0  0
 22 21  1  0  0  0  0
 23 21  1  0  0  0  0
 24 21  1  0  0  0  0
 25 24  1  0  0  0  0
 26 31  1  0  0  0  0
 26 24  1  0  0  0  0
 27 26  1  0  0  0  0
 28 27  1  0  0  0  0
 29 26  1  0  0  0  0
 30 29  1  0  0  0  0
 31 32  1  0  0  0  0
 32 34  1  0  0  0  0
 32 33  1  0  0  0  0
 32 35  1  0  0  0  0
M  END
>  <minimizedAffinity>
-4.70313549

>  <minimizedRMSD>
9.00068092

$$$$
