
 OpenBabel03252501563D

 23 24  0  0  0  0  0  0  0  0999 V2000
   36.9770   26.9490   41.5320 C   0  0  0  0  0  0  0  0  0  0  0  0
   37.3270   28.1850   40.9670 C   0  0  0  0  0  0  0  0  0  0  0  0
   37.6370   29.2220   41.8310 C   0  0  0  0  0  0  0  0  0  0  0  0
   37.5810   28.9890   43.1350 N   0  0  0  0  0  0  0  0  0  0  0  0
   37.2460   27.8110   43.6790 C   0  0  0  0  0  0  0  0  0  0  0  0
   36.9340   26.7610   42.8820 N   0  0  0  0  0  0  0  0  0  0  0  0
   36.7320   26.1040   40.9100 H   0  0  0  0  0  0  0  0  0  0  0  0
   37.2290   27.7320   44.7690 H   0  0  0  0  0  0  0  0  0  0  0  0
   37.1940   31.5020   40.7690 C   0  0  0  0  0  0  0  0  0  0  0  0
   37.9640   30.4470   41.1520 C   0  0  0  0  0  0  0  0  0  0  0  0
   39.3430   30.5450   40.8900 C   0  0  0  0  0  0  0  0  0  0  0  0
   40.0870   29.7880   41.1150 H   0  0  0  0  0  0  0  0  0  0  0  0
   39.9020   31.6380   40.2810 C   0  0  0  0  0  3  0  0  0  0  0  0
   39.0520   32.6860   39.9150 C   0  0  0  0  0  3  0  0  0  0  0  0
   37.6970   32.6520   40.1410 C   0  0  0  0  0  0  0  0  0  0  0  0
   35.8380   31.3130   41.0700 O   0  0  0  0  0  0  0  0  0  0  0  0
   35.3620   30.4290   40.8660 H   0  0  0  0  0  0  0  0  0  0  0  0
   36.7510   33.6110   39.8320 O   0  0  0  0  0  0  0  0  0  0  0  0
   36.2470   33.6300   38.9360 H   0  0  0  0  0  0  0  0  0  0  0  0
   37.2810   28.2210   39.4710 C   0  0  0  0  0  0  0  0  0  0  0  0
   36.1750   28.2920   39.2120 H   0  0  0  0  0  0  0  0  0  0  0  0
   37.8260   29.0320   39.0090 H   0  0  0  0  0  0  0  0  0  0  0  0
   37.5720   27.2160   39.0990 H   0  0  0  0  0  0  0  0  0  0  0  0
  1  6  1  0  0  0  0
  2  1  2  0  0  0  0
  2  3  1  0  0  0  0
  3  4  2  0  0  0  0
  4  5  1  0  0  0  0
  5  8  1  0  0  0  0
  6  5  2  0  0  0  0
  7  1  1  0  0  0  0
  9 16  1  0  0  0  0
  9 10  1  0  0  0  0
 10  3  1  0  0  0  0
 11 12  1  0  0  0  0
 11 10  2  0  0  0  0
 13 11  1  0  0  0  0
 14 15  1  0  0  0  0
 14 13  2  0  0  0  0
 15  9  2  0  0  0  0
 17 16  1  0  0  0  0
 18 15  1  0  0  0  0
 19 18  1  0  0  0  0
 20  2  1  0  0  0  0
 21 20  1  0  0  0  0
 22 20  1  0  0  0  0
 23 20  1  0  0  0  0
M  END
>  <minimizedAffinity>
-5.21045732

$$$$

 OpenBabel03252501563D

 23 24  0  0  0  0  0  0  0  0999 V2000
   38.6480   24.7750   42.0600 C   0  0  0  0  0  0  0  0  0  0  0  0
   38.2250   26.0030   41.5280 C   0  0  0  0  0  0  0  0  0  0  0  0
   38.6960   27.1590   42.1270 C   0  0  0  0  0  0  0  0  0  0  0  0
   39.5110   27.0390   43.1660 N   0  0  0  0  0  0  0  0  0  0  0  0
   39.9160   25.8700   43.6780 C   0  0  0  0  0  0  0  0  0  0  0  0
   39.4890   24.7060   43.1320 N   0  0  0  0  0  0  0  0  0  0  0  0
   38.3210   23.8430   41.6320 H   0  0  0  0  0  0  0  0  0  0  0  0
   40.5880   25.8880   44.5400 H   0  0  0  0  0  0  0  0  0  0  0  0
   37.0860   29.1120   41.7820 C   0  0  0  0  0  0  0  0  0  0  0  0
   38.1890   28.3600   41.5190 C   0  0  0  0  0  0  0  0  0  0  0  0
   39.0380   28.8230   40.4960 C   0  0  0  0  0  0  0  0  0  0  0  0
   39.9430   28.3340   40.1520 H   0  0  0  0  0  0  0  0  0  0  0  0
   38.7850   29.9700   39.7900 C   0  0  0  0  0  3  0  0  0  0  0  0
   37.6340   30.6940   40.1150 C   0  0  0  0  0  3  0  0  0  0  0  0
   36.7640   30.2960   41.1010 C   0  0  0  0  0  0  0  0  0  0  0  0
   36.3040   28.5720   42.8130 O   0  0  0  0  0  0  0  0  0  0  0  0
   36.0730   27.5740   42.8430 H   0  0  0  0  0  0  0  0  0  0  0  0
   35.6000   30.9130   41.5190 O   0  0  0  0  0  0  0  0  0  0  0  0
   34.6800   30.7060   41.1100 H   0  0  0  0  0  0  0  0  0  0  0  0
   37.2720   25.8890   40.3800 C   0  0  0  0  0  0  0  0  0  0  0  0
   36.2710   25.6230   40.8520 H   0  0  0  0  0  0  0  0  0  0  0  0
   37.1740   26.7740   39.7670 H   0  0  0  0  0  0  0  0  0  0  0  0
   37.5390   24.9750   39.8070 H   0  0  0  0  0  0  0  0  0  0  0  0
  1  6  1  0  0  0  0
  2  1  2  0  0  0  0
  2  3  1  0  0  0  0
  3  4  2  0  0  0  0
  4  5  1  0  0  0  0
  5  8  1  0  0  0  0
  6  5  2  0  0  0  0
  7  1  1  0  0  0  0
  9 16  1  0  0  0  0
 10  9  1  0  0  0  0
 10  3  1  0  0  0  0
 11 10  2  0  0  0  0
 12 11  1  0  0  0  0
 13 14  2  0  0  0  0
 13 11  1  0  0  0  0
 14 15  1  0  0  0  0
 15 18  1  0  0  0  0
 15  9  2  0  0  0  0
 16 17  1  0  0  0  0
 19 18  1  0  0  0  0
 20 21  1  0  0  0  0
 20  2  1  0  0  0  0
 22 20  1  0  0  0  0
 23 20  1  0  0  0  0
M  END
>  <minimizedAffinity>
-4.87053347

$$$$

 OpenBabel03252501563D

 23 24  0  0  0  0  0  0  0  0999 V2000
   37.4600   27.1580   42.5730 C   0  0  0  0  0  0  0  0  0  0  0  0
   37.7590   28.4460   42.1030 C   0  0  0  0  0  0  0  0  0  0  0  0
   37.5320   28.7090   40.7620 C   0  0  0  0  0  0  0  0  0  0  0  0
   37.0530   27.7330   40.0040 N   0  0  0  0  0  0  0  0  0  0  0  0
   36.7670   26.5020   40.4490 C   0  0  0  0  0  0  0  0  0  0  0  0
   36.9680   26.1870   41.7510 N   0  0  0  0  0  0  0  0  0  0  0  0
   37.6090   26.8960   43.6070 H   0  0  0  0  0  0  0  0  0  0  0  0
   36.3780   25.7720   39.7340 H   0  0  0  0  0  0  0  0  0  0  0  0
   37.1820   31.2130   40.3960 C   0  0  0  0  0  0  0  0  0  0  0  0
   37.8880   30.0490   40.3800 C   0  0  0  0  0  0  0  0  0  0  0  0
   39.2270   30.1300   39.9520 C   0  0  0  0  0  0  0  0  0  0  0  0
   39.9160   29.2970   39.8640 H   0  0  0  0  0  0  0  0  0  0  0  0
   39.8080   31.3100   39.5680 C   0  0  0  0  0  3  0  0  0  0  0  0
   39.0250   32.4670   39.6120 C   0  0  0  0  0  3  0  0  0  0  0  0
   37.7120   32.4560   40.0180 C   0  0  0  0  0  0  0  0  0  0  0  0
   35.8630   31.0330   40.8350 O   0  0  0  0  0  0  0  0  0  0  0  0
   35.2820   30.2670   40.4830 H   0  0  0  0  0  0  0  0  0  0  0  0
   36.8330   33.5180   40.1070 O   0  0  0  0  0  0  0  0  0  0  0  0
   36.2250   33.8070   39.3290 H   0  0  0  0  0  0  0  0  0  0  0  0
   38.3300   29.3680   43.1340 C   0  0  0  0  0  0  0  0  0  0  0  0
   39.4130   29.0410   43.2560 H   0  0  0  0  0  0  0  0  0  0  0  0
   38.2810   30.4210   42.8940 H   0  0  0  0  0  0  0  0  0  0  0  0
   37.8690   29.1100   44.1120 H   0  0  0  0  0  0  0  0  0  0  0  0
  1  7  1  0  0  0  0
  2  1  1  0  0  0  0
  2 20  1  0  0  0  0
  3  2  2  0  0  0  0
  4  5  2  0  0  0  0
  4  3  1  0  0  0  0
  5  6  1  0  0  0  0
  6  1  2  0  0  0  0
  8  5  1  0  0  0  0
  9 16  1  0  0  0  0
 10  9  1  0  0  0  0
 10  3  1  0  0  0  0
 11 10  2  0  0  0  0
 12 11  1  0  0  0  0
 13 14  2  0  0  0  0
 13 11  1  0  0  0  0
 14 15  1  0  0  0  0
 15 18  1  0  0  0  0
 15  9  2  0  0  0  0
 17 16  1  0  0  0  0
 19 18  1  0  0  0  0
 20 21  1  0  0  0  0
 20 23  1  0  0  0  0
 22 20  1  0  0  0  0
M  END
>  <minimizedAffinity>
-4.76245832

$$$$

 OpenBabel03252501563D

 23 24  0  0  0  0  0  0  0  0999 V2000
   36.2170   29.4460   36.8360 C   0  0  0  0  0  0  0  0  0  0  0  0
   36.6270   29.0290   38.1120 C   0  0  0  0  0  0  0  0  0  0  0  0
   35.6750   28.4550   38.9370 C   0  0  0  0  0  0  0  0  0  0  0  0
   34.4370   28.3370   38.4780 N   0  0  0  0  0  0  0  0  0  0  0  0
   34.0410   28.7340   37.2620 C   0  0  0  0  0  0  0  0  0  0  0  0
   34.9290   29.3020   36.4110 N   0  0  0  0  0  0  0  0  0  0  0  0
   36.9140   29.8930   36.1470 H   0  0  0  0  0  0  0  0  0  0  0  0
   32.9920   28.5910   36.9880 H   0  0  0  0  0  0  0  0  0  0  0  0
   36.2680   28.7600   41.4030 C   0  0  0  0  0  0  0  0  0  0  0  0
   36.1940   28.0810   40.2260 C   0  0  0  0  0  0  0  0  0  0  0  0
   36.6650   26.7540   40.2320 C   0  0  0  0  0  0  0  0  0  0  0  0
   36.6930   26.0870   39.3770 H   0  0  0  0  0  0  0  0  0  0  0  0
   37.1760   26.1580   41.3550 C   0  0  0  0  0  3  0  0  0  0  0  0
   37.2210   26.9140   42.5300 C   0  0  0  0  0  3  0  0  0  0  0  0
   36.7790   28.2140   42.5910 C   0  0  0  0  0  0  0  0  0  0  0  0
   35.7780   30.0690   41.2980 O   0  0  0  0  0  0  0  0  0  0  0  0
   36.0390   30.6770   40.5170 H   0  0  0  0  0  0  0  0  0  0  0  0
   36.7660   29.0660   43.6780 O   0  0  0  0  0  0  0  0  0  0  0  0
   37.5510   29.6910   43.9070 H   0  0  0  0  0  0  0  0  0  0  0  0
   38.0650   29.3030   38.4230 C   0  0  0  0  0  0  0  0  0  0  0  0
   38.1110   30.4170   38.6510 H   0  0  0  0  0  0  0  0  0  0  0  0
   38.4800   28.7350   39.2450 H   0  0  0  0  0  0  0  0  0  0  0  0
   38.6410   29.2080   37.4780 H   0  0  0  0  0  0  0  0  0  0  0  0
  1  2  1  0  0  0  0
  2 20  1  0  0  0  0
  2  3  2  0  0  0  0
  3 10  1  0  0  0  0
  4  3  1  0  0  0  0
  5  4  2  0  0  0  0
  6  1  2  0  0  0  0
  6  5  1  0  0  0  0
  7  1  1  0  0  0  0
  8  5  1  0  0  0  0
  9 15  1  0  0  0  0
 10 11  1  0  0  0  0
 10  9  2  0  0  0  0
 11 13  2  0  0  0  0
 12 11  1  0  0  0  0
 13 14  1  0  0  0  0
 14 15  2  0  0  0  0
 15 18  1  0  0  0  0
 16  9  1  0  0  0  0
 17 16  1  0  0  0  0
 18 19  1  0  0  0  0
 20 21  1  0  0  0  0
 20 22  1  0  0  0  0
 23 20  1  0  0  0  0
M  END
>  <minimizedAffinity>
-4.68720579

$$$$

 OpenBabel03252501563D

 23 24  0  0  0  0  0  0  0  0999 V2000
   38.4870   29.7960   39.9280 C   0  0  0  0  0  0  0  0  0  0  0  0
   39.5900   30.5910   39.5800 C   0  0  0  0  0  0  0  0  0  0  0  0
   39.4270   31.9660   39.6130 C   0  0  0  0  0  0  0  0  0  0  0  0
   38.2430   32.4490   39.9640 N   0  0  0  0  0  0  0  0  0  0  0  0
   37.1870   31.6940   40.2950 C   0  0  0  0  0  0  0  0  0  0  0  0
   37.2880   30.3430   40.2830 N   0  0  0  0  0  0  0  0  0  0  0  0
   38.5550   28.7210   39.9280 H   0  0  0  0  0  0  0  0  0  0  0  0
   36.2560   32.1990   40.5660 H   0  0  0  0  0  0  0  0  0  0  0  0
   41.0720   33.0730   38.0010 C   0  0  0  0  0  0  0  0  0  0  0  0
   40.6090   32.6860   39.2220 C   0  0  0  0  0  0  0  0  0  0  0  0
   41.3770   33.0700   40.3370 C   0  0  0  0  0  0  0  0  0  0  0  0
   41.1590   32.8270   41.3720 H   0  0  0  0  0  0  0  0  0  0  0  0
   42.5340   33.7960   40.2220 C   0  0  0  0  0  3  0  0  0  0  0  0
   42.9480   34.1610   38.9380 C   0  0  0  0  0  3  0  0  0  0  0  0
   42.2460   33.8170   37.8090 C   0  0  0  0  0  0  0  0  0  0  0  0
   40.2430   32.6450   36.9550 O   0  0  0  0  0  0  0  0  0  0  0  0
   39.8830   31.6870   36.9140 H   0  0  0  0  0  0  0  0  0  0  0  0
   42.5420   34.1100   36.4910 O   0  0  0  0  0  0  0  0  0  0  0  0
   43.1150   33.4970   35.8970 H   0  0  0  0  0  0  0  0  0  0  0  0
   40.8090   29.8220   39.1790 C   0  0  0  0  0  0  0  0  0  0  0  0
   40.5950   29.4610   38.1200 H   0  0  0  0  0  0  0  0  0  0  0  0
   41.7380   30.3750   39.2050 H   0  0  0  0  0  0  0  0  0  0  0  0
   40.8290   28.8830   39.7730 H   0  0  0  0  0  0  0  0  0  0  0  0
  1  6  1  0  0  0  0
  2  3  1  0  0  0  0
  2  1  2  0  0  0  0
  3  4  2  0  0  0  0
  4  5  1  0  0  0  0
  5  8  1  0  0  0  0
  6  5  2  0  0  0  0
  7  1  1  0  0  0  0
  9 10  1  0  0  0  0
 10  3  1  0  0  0  0
 10 11  2  0  0  0  0
 11 12  1  0  0  0  0
 13 11  1  0  0  0  0
 14 13  2  0  0  0  0
 15  9  2  0  0  0  0
 15 14  1  0  0  0  0
 16  9  1  0  0  0  0
 17 16  1  0  0  0  0
 18 15  1  0  0  0  0
 19 18  1  0  0  0  0
 20 22  1  0  0  0  0
 20  2  1  0  0  0  0
 20 23  1  0  0  0  0
 21 20  1  0  0  0  0
M  END
>  <minimizedAffinity>
-4.6742754

$$$$

 OpenBabel03252501563D

 23 24  0  0  0  0  0  0  0  0999 V2000
   39.3750   33.0480   40.6050 C   0  0  0  0  0  0  0  0  0  0  0  0
   38.2800   32.3360   40.0920 C   0  0  0  0  0  0  0  0  0  0  0  0
   38.3190   30.9540   40.1700 C   0  0  0  0  0  0  0  0  0  0  0  0
   39.3850   30.3870   40.7170 N   0  0  0  0  0  0  0  0  0  0  0  0
   40.4330   31.0630   41.2070 C   0  0  0  0  0  0  0  0  0  0  0  0
   40.4490   32.4170   41.1600 N   0  0  0  0  0  0  0  0  0  0  0  0
   39.3990   34.1250   40.5790 H   0  0  0  0  0  0  0  0  0  0  0  0
   41.2610   30.4920   41.6350 H   0  0  0  0  0  0  0  0  0  0  0  0
   35.9290   30.0530   40.1170 C   0  0  0  0  0  0  0  0  0  0  0  0
   37.1590   30.3220   39.6000 C   0  0  0  0  0  0  0  0  0  0  0  0
   37.3690   29.9660   38.2540 C   0  0  0  0  0  0  0  0  0  0  0  0
   38.2930   30.0950   37.7010 H   0  0  0  0  0  0  0  0  0  0  0  0
   36.3980   29.3790   37.4870 C   0  0  0  0  0  3  0  0  0  0  0  0
   35.1570   29.1340   38.0820 C   0  0  0  0  0  3  0  0  0  0  0  0
   34.8880   29.4550   39.3910 C   0  0  0  0  0  0  0  0  0  0  0  0
   35.8160   30.4410   41.4600 O   0  0  0  0  0  0  0  0  0  0  0  0
   36.5470   30.2230   42.1430 H   0  0  0  0  0  0  0  0  0  0  0  0
   33.7150   29.2680   40.0960 O   0  0  0  0  0  0  0  0  0  0  0  0
   33.5150   28.4120   40.6320 H   0  0  0  0  0  0  0  0  0  0  0  0
   37.2120   33.1900   39.4840 C   0  0  0  0  0  0  0  0  0  0  0  0
   37.6250   33.5030   38.4710 H   0  0  0  0  0  0  0  0  0  0  0  0
   36.2480   32.7150   39.3660 H   0  0  0  0  0  0  0  0  0  0  0  0
   37.1740   34.1430   40.0540 H   0  0  0  0  0  0  0  0  0  0  0  0
  1  6  1  0  0  0  0
  2  3  1  0  0  0  0
  2  1  2  0  0  0  0
  3  4  2  0  0  0  0
  4  5  1  0  0  0  0
  5  8  1  0  0  0  0
  6  5  2  0  0  0  0
  7  1  1  0  0  0  0
  9 16  1  0  0  0  0
 10  9  1  0  0  0  0
 10  3  1  0  0  0  0
 11 10  2  0  0  0  0
 12 11  1  0  0  0  0
 13 14  2  0  0  0  0
 13 11  1  0  0  0  0
 14 15  1  0  0  0  0
 15 18  1  0  0  0  0
 15  9  2  0  0  0  0
 16 17  1  0  0  0  0
 18 19  1  0  0  0  0
 20 23  1  0  0  0  0
 20  2  1  0  0  0  0
 21 20  1  0  0  0  0
 22 20  1  0  0  0  0
M  END
>  <minimizedAffinity>
-4.66326714

$$$$

 OpenBabel03252501563D

 23 24  0  0  0  0  0  0  0  0999 V2000
   39.2490   27.3410   41.6660 C   0  0  0  0  0  0  0  0  0  0  0  0
   39.1290   28.6530   41.1810 C   0  0  0  0  0  0  0  0  0  0  0  0
   38.3880   29.5500   41.9320 C   0  0  0  0  0  0  0  0  0  0  0  0
   37.8350   29.1190   43.0570 N   0  0  0  0  0  0  0  0  0  0  0  0
   37.9470   27.8680   43.5230 C   0  0  0  0  0  0  0  0  0  0  0  0
   38.6600   26.9470   42.8320 N   0  0  0  0  0  0  0  0  0  0  0  0
   39.8190   26.6010   41.1290 H   0  0  0  0  0  0  0  0  0  0  0  0
   37.4460   27.6210   44.4630 H   0  0  0  0  0  0  0  0  0  0  0  0
   39.1150   31.9510   41.4500 C   0  0  0  0  0  0  0  0  0  0  0  0
   38.3120   30.8580   41.3380 C   0  0  0  0  0  0  0  0  0  0  0  0
   37.2130   30.9700   40.4650 C   0  0  0  0  0  0  0  0  0  0  0  0
   36.4710   30.2010   40.2780 H   0  0  0  0  0  0  0  0  0  0  0  0
   36.9490   32.1110   39.7550 C   0  0  0  0  0  3  0  0  0  0  0  0
   37.8170   33.1940   39.9160 C   0  0  0  0  0  3  0  0  0  0  0  0
   38.9060   33.1510   40.7540 C   0  0  0  0  0  0  0  0  0  0  0  0
   40.1790   31.7450   42.3400 O   0  0  0  0  0  0  0  0  0  0  0  0
   40.0330   31.3120   43.2570 H   0  0  0  0  0  0  0  0  0  0  0  0
   39.8350   34.1420   41.0040 O   0  0  0  0  0  0  0  0  0  0  0  0
   39.7250   34.8350   41.7570 H   0  0  0  0  0  0  0  0  0  0  0  0
   39.8050   28.8950   39.8680 C   0  0  0  0  0  0  0  0  0  0  0  0
   39.1180   28.4260   39.0910 H   0  0  0  0  0  0  0  0  0  0  0  0
   39.9930   29.9320   39.6260 H   0  0  0  0  0  0  0  0  0  0  0  0
   40.7130   28.2550   39.8310 H   0  0  0  0  0  0  0  0  0  0  0  0
  1  6  1  0  0  0  0
  2  1  2  0  0  0  0
  2  3  1  0  0  0  0
  3  4  2  0  0  0  0
  4  5  1  0  0  0  0
  5  8  1  0  0  0  0
  6  5  2  0  0  0  0
  7  1  1  0  0  0  0
  9 16  1  0  0  0  0
 10  9  1  0  0  0  0
 10  3  1  0  0  0  0
 11 10  2  0  0  0  0
 12 11  1  0  0  0  0
 13 14  2  0  0  0  0
 13 11  1  0  0  0  0
 14 15  1  0  0  0  0
 15 18  1  0  0  0  0
 15  9  2  0  0  0  0
 16 17  1  0  0  0  0
 18 19  1  0  0  0  0
 20  2  1  0  0  0  0
 21 20  1  0  0  0  0
 22 20  1  0  0  0  0
 23 20  1  0  0  0  0
M  END
>  <minimizedAffinity>
-4.57632589

$$$$

 OpenBabel03252501563D

 23 24  0  0  0  0  0  0  0  0999 V2000
   36.0630   29.6270   37.1260 C   0  0  0  0  0  0  0  0  0  0  0  0
   37.0010   30.4080   37.8190 C   0  0  0  0  0  0  0  0  0  0  0  0
   37.1680   30.1610   39.1710 C   0  0  0  0  0  0  0  0  0  0  0  0
   36.4330   29.2090   39.7300 N   0  0  0  0  0  0  0  0  0  0  0  0
   35.5370   28.4620   39.0730 C   0  0  0  0  0  0  0  0  0  0  0  0
   35.3320   28.6580   37.7480 N   0  0  0  0  0  0  0  0  0  0  0  0
   35.8950   29.7680   36.0710 H   0  0  0  0  0  0  0  0  0  0  0  0
   34.9840   27.7050   39.6350 H   0  0  0  0  0  0  0  0  0  0  0  0
   38.0110   32.2460   40.3840 C   0  0  0  0  0  0  0  0  0  0  0  0
   38.1360   31.0270   39.7900 C   0  0  0  0  0  0  0  0  0  0  0  0
   39.4220   30.4550   39.7890 C   0  0  0  0  0  0  0  0  0  0  0  0
   39.6920   29.5040   39.3440 H   0  0  0  0  0  0  0  0  0  0  0  0
   40.5060   31.0760   40.3530 C   0  0  0  0  0  3  0  0  0  0  0  0
   40.3040   32.3240   40.9480 C   0  0  0  0  0  3  0  0  0  0  0  0
   39.0760   32.9390   40.9810 C   0  0  0  0  0  0  0  0  0  0  0  0
   36.6970   32.7330   40.3350 O   0  0  0  0  0  0  0  0  0  0  0  0
   36.1450   32.6970   39.4730 H   0  0  0  0  0  0  0  0  0  0  0  0
   38.7410   34.1610   41.5310 O   0  0  0  0  0  0  0  0  0  0  0  0
   38.7770   35.0420   41.0000 H   0  0  0  0  0  0  0  0  0  0  0  0
   37.6800   31.4500   36.9870 C   0  0  0  0  0  0  0  0  0  0  0  0
   36.9110   32.2810   36.8670 H   0  0  0  0  0  0  0  0  0  0  0  0
   38.5990   31.8460   37.3960 H   0  0  0  0  0  0  0  0  0  0  0  0
   37.7860   31.0450   35.9570 H   0  0  0  0  0  0  0  0  0  0  0  0
  1  6  2  0  0  0  0
  1  2  1  0  0  0  0
  2  3  2  0  0  0  0
  3  4  1  0  0  0  0
  3 10  1  0  0  0  0
  5  8  1  0  0  0  0
  5  4  2  0  0  0  0
  6  5  1  0  0  0  0
  7  1  1  0  0  0  0
  9 15  1  0  0  0  0
 10  9  2  0  0  0  0
 11 10  1  0  0  0  0
 11 13  2  0  0  0  0
 12 11  1  0  0  0  0
 13 14  1  0  0  0  0
 14 15  2  0  0  0  0
 15 18  1  0  0  0  0
 16  9  1  0  0  0  0
 17 16  1  0  0  0  0
 19 18  1  0  0  0  0
 20 22  1  0  0  0  0
 20  2  1  0  0  0  0
 21 20  1  0  0  0  0
 23 20  1  0  0  0  0
M  END
>  <minimizedAffinity>
-4.55830812

$$$$

 OpenBabel03252501563D

 23 24  0  0  0  0  0  0  0  0999 V2000
   37.5640   31.1510   37.9210 C   0  0  0  0  0  0  0  0  0  0  0  0
   37.6730   30.3070   39.0380 C   0  0  0  0  0  0  0  0  0  0  0  0
   37.5740   30.8860   40.2920 C   0  0  0  0  0  0  0  0  0  0  0  0
   37.3890   32.1970   40.3640 N   0  0  0  0  0  0  0  0  0  0  0  0
   37.2860   33.0060   39.3020 C   0  0  0  0  0  0  0  0  0  0  0  0
   37.3720   32.4950   38.0500 N   0  0  0  0  0  0  0  0  0  0  0  0
   37.6250   30.7570   36.9200 H   0  0  0  0  0  0  0  0  0  0  0  0
   37.1360   34.0740   39.4790 H   0  0  0  0  0  0  0  0  0  0  0  0
   36.8110   29.1500   42.0030 C   0  0  0  0  0  0  0  0  0  0  0  0
   37.7180   29.9400   41.3660 C   0  0  0  0  0  0  0  0  0  0  0  0
   39.0590   29.8150   41.7730 C   0  0  0  0  0  0  0  0  0  0  0  0
   39.8970   30.3820   41.3810 H   0  0  0  0  0  0  0  0  0  0  0  0
   39.4530   28.9480   42.7590 C   0  0  0  0  0  3  0  0  0  0  0  0
   38.4690   28.1660   43.3700 C   0  0  0  0  0  3  0  0  0  0  0  0
   37.1420   28.2410   43.0200 C   0  0  0  0  0  0  0  0  0  0  0  0
   35.5050   29.3450   41.5310 O   0  0  0  0  0  0  0  0  0  0  0  0
   35.1230   30.2830   41.3860 H   0  0  0  0  0  0  0  0  0  0  0  0
   36.0760   27.5310   43.5390 O   0  0  0  0  0  0  0  0  0  0  0  0
   35.5220   27.8610   44.3400 H   0  0  0  0  0  0  0  0  0  0  0  0
   37.9220   28.8690   38.7090 C   0  0  0  0  0  0  0  0  0  0  0  0
   39.0230   28.8170   38.4240 H   0  0  0  0  0  0  0  0  0  0  0  0
   37.7070   28.1660   39.5030 H   0  0  0  0  0  0  0  0  0  0  0  0
   37.3960   28.6430   37.7570 H   0  0  0  0  0  0  0  0  0  0  0  0
  1  6  2  0  0  0  0
  1  2  1  0  0  0  0
  2  3  2  0  0  0  0
  3  4  1  0  0  0  0
  3 10  1  0  0  0  0
  5  8  1  0  0  0  0
  5  4  2  0  0  0  0
  6  5  1  0  0  0  0
  7  1  1  0  0  0  0
  9 15  1  0  0  0  0
 10 11  1  0  0  0  0
 10  9  2  0  0  0  0
 11 13  2  0  0  0  0
 12 11  1  0  0  0  0
 13 14  1  0  0  0  0
 15 14  2  0  0  0  0
 15 18  1  0  0  0  0
 16  9  1  0  0  0  0
 17 16  1  0  0  0  0
 18 19  1  0  0  0  0
 20  2  1  0  0  0  0
 20 22  1  0  0  0  0
 21 20  1  0  0  0  0
 23 20  1  0  0  0  0
M  END
>  <minimizedAffinity>
-4.54459715

$$$$
