
 OpenBabel03252508153D

 39 42  0  0  1  0  0  0  0  0999 V2000
   45.7010   33.0930   46.1760 C   0  0  0  0  0  3  0  0  0  0  0  0
   46.0630   31.9530   45.7330 C   0  0  0  0  0  3  0  0  0  0  0  0
   44.5200   36.1990   44.5890 C   0  0  0  0  0  0  0  0  0  0  0  0
   45.1320   36.1490   43.3430 C   0  0  0  0  0  0  0  0  0  0  0  0
   45.9380   35.0890   43.0770 C   0  0  0  0  0  0  0  0  0  0  0  0
   46.0870   34.1540   44.0480 N   0  0  0  0  0  0  0  0  0  0  0  0
   45.5060   34.1870   45.2450 C   0  0  0  0  0  0  0  0  0  0  0  0
   44.7170   35.2400   45.4890 N   0  0  0  0  0  0  0  0  0  0  0  0
   43.8650   37.0270   44.8580 H   0  0  0  0  0  0  0  0  0  0  0  0
   44.9850   36.9090   42.6090 H   0  0  0  0  0  0  0  0  0  0  0  0
   46.3080   34.0390   40.7960 C   0  0  0  0  0  0  0  0  0  0  0  0
   46.6780   34.8240   41.8540 C   0  0  0  0  0  0  0  0  0  0  0  0
   47.9210   35.4040   41.6660 C   0  0  0  0  0  0  0  0  0  0  0  0
   48.3790   36.0700   42.4170 H   0  0  0  0  0  0  0  0  0  0  0  0
   48.6950   35.2140   40.5430 C   0  0  0  0  0  3  0  0  0  0  0  0
   48.2560   34.4090   39.5160 C   0  0  0  0  0  3  0  0  0  0  0  0
   47.0300   33.8110   39.6580 C   0  0  0  0  0  0  0  0  0  0  0  0
   45.0950   33.4100   40.8670 O   0  0  0  0  0  0  0  0  0  0  0  0
   44.3110   33.8470   40.3810 H   0  0  0  0  0  0  0  0  0  0  0  0
   46.5810   33.0060   38.6430 O   0  0  0  0  0  0  0  0  0  0  0  0
   46.2020   33.4760   37.8180 H   0  0  0  0  0  0  0  0  0  0  0  0
   46.2170   30.8660   46.7860 C   0  0  0  0  0  0  0  0  0  0  0  0
   45.3620   30.1730   46.5540 H   0  0  0  0  0  0  0  0  0  0  0  0
   47.1560   30.3220   46.6610 H   0  0  0  0  0  0  0  0  0  0  0  0
   45.9560   31.4310   48.1410 C   0  0  1  0  0  0  0  0  0  0  0  0
   45.7190   30.4590   49.2490 C   0  0  0  0  0  0  0  0  0  0  0  0
   46.9480   31.2290   49.2300 C   0  0  1  0  0  0  0  0  0  0  0  0
   45.3540   32.3800   48.1870 H   0  0  0  0  0  0  0  0  0  0  0  0
   45.7730   29.3740   48.9920 H   0  0  0  0  0  0  0  0  0  0  0  0
   44.9030   30.6750   49.9610 H   0  0  0  0  0  0  0  0  0  0  0  0
   46.9950   32.0600   49.9980 H   0  0  0  0  0  0  0  0  0  0  0  0
   48.2840   30.7150   48.8600 C   0  0  0  0  0  0  0  0  0  0  0  0
   49.2070   30.4230   50.0720 C   0  0  0  0  0  0  0  0  0  0  0  0
   49.4850   31.6140   49.2200 C   0  0  0  0  0  0  0  0  0  0  0  0
   48.4070   30.0160   48.0090 H   0  0  0  0  0  0  0  0  0  0  0  0
   49.8520   29.5450   49.9990 H   0  0  0  0  0  0  0  0  0  0  0  0
   48.8180   30.6600   51.0810 H   0  0  0  0  0  0  0  0  0  0  0  0
   50.3670   31.5190   48.5650 H   0  0  0  0  0  0  0  0  0  0  0  0
   49.2250   32.6250   49.5460 H   0  0  0  0  0  0  0  0  0  0  0  0
  2  1  2  0  0  0  0
  2 22  1  0  0  0  0
  3  9  1  0  0  0  0
  3  8  1  0  0  0  0
  4  3  2  0  0  0  0
  5  4  1  0  0  0  0
  5  6  2  0  0  0  0
  6  7  1  0  0  0  0
  7  8  2  0  0  0  0
  7  1  1  0  0  0  0
 10  4  1  0  0  0  0
 11 18  1  0  0  0  0
 11 12  1  0  0  0  0
 12  5  1  0  0  0  0
 13 12  2  0  0  0  0
 13 14  1  0  0  0  0
 15 13  1  0  0  0  0
 16 17  1  0  0  0  0
 16 15  2  0  0  0  0
 17 11  2  0  0  0  0
 19 18  1  0  0  0  0
 20 17  1  0  0  0  0
 21 20  1  0  0  0  0
 22 25  1  0  0  0  0
 23 22  1  0  0  0  0
 24 22  1  0  0  0  0
 25 28  1  1  0  0  0
 25 27  1  0  0  0  0
 25 26  1  0  0  0  0
 26 30  1  0  0  0  0
 27 26  1  0  0  0  0
 27 31  1  1  0  0  0
 29 26  1  0  0  0  0
 32 34  1  0  0  0  0
 32 27  1  0  0  0  0
 32 33  1  0  0  0  0
 33 37  1  0  0  0  0
 34 39  1  0  0  0  0
 34 33  1  0  0  0  0
 35 32  1  0  0  0  0
 36 33  1  0  0  0  0
 38 34  1  0  0  0  0
M  END
>  <minimizedAffinity>
-6.42313576

>  <minimizedRMSD>
0.756965756

$$$$
