
 OpenBabel03242523293D

 23 24  0  0  0  0  0  0  0  0999 V2000
   35.9240   28.4740   40.2270 C   0  0  0  0  0  0  0  0  0  0  0  0
   34.9520   28.6860   40.7360 H   0  0  0  0  0  0  0  0  0  0  0  0
   35.6820   27.7230   39.4250 H   0  0  0  0  0  0  0  0  0  0  0  0
   38.7370   26.6210   41.8150 C   0  0  0  0  0  0  0  0  0  0  0  0
   38.5450   26.9270   43.1650 C   0  0  0  0  0  0  0  0  0  0  0  0
   37.4710   27.7520   43.4920 C   0  0  0  0  0  0  0  0  0  0  0  0
   36.6560   28.2240   42.5160 N   0  0  0  0  0  0  0  0  0  0  0  0
   36.8810   27.8960   41.2030 C   0  0  0  0  0  0  0  0  0  0  0  0
   37.9150   27.1050   40.8910 N   0  0  0  0  0  0  0  0  0  0  0  0
   39.5340   25.9930   41.4130 H   0  0  0  0  0  0  0  0  0  0  0  0
   39.2430   26.5030   43.8610 H   0  0  0  0  0  0  0  0  0  0  0  0
   37.3230   27.9890   44.5440 H   0  0  0  0  0  0  0  0  0  0  0  0
   36.3880   30.9450   40.1890 C   0  0  0  0  0  0  0  0  0  0  0  0
   36.4620   29.6990   39.6070 C   0  0  0  0  0  0  0  0  0  0  0  0
   37.0820   29.6150   38.3730 C   0  0  0  0  0  0  0  0  0  0  0  0
   37.1450   28.6350   37.9060 H   0  0  0  0  0  0  0  0  0  0  0  0
   37.6260   30.7020   37.6920 C   0  0  0  0  0  3  0  0  0  0  0  0
   37.5360   31.9440   38.3020 C   0  0  0  0  0  3  0  0  0  0  0  0
   36.9200   32.0400   39.5330 C   0  0  0  0  0  0  0  0  0  0  0  0
   35.7820   31.0860   41.4160 O   0  0  0  0  0  0  0  0  0  0  0  0
   35.3720   32.0060   41.6250 H   0  0  0  0  0  0  0  0  0  0  0  0
   36.8410   33.2900   40.1230 O   0  0  0  0  0  0  0  0  0  0  0  0
   37.5900   33.9780   40.0850 H   0  0  0  0  0  0  0  0  0  0  0  0
  1  2  1  0  0  0  0
  1  8  1  0  0  0  0
  3  1  1  0  0  0  0
  4  5  1  0  0  0  0
  5  6  2  0  0  0  0
  5 11  1  0  0  0  0
  6 12  1  0  0  0  0
  7  6  1  0  0  0  0
  8  7  2  0  0  0  0
  9  8  1  0  0  0  0
  9  4  2  0  0  0  0
 10  4  1  0  0  0  0
 13 20  1  0  0  0  0
 14 13  1  0  0  0  0
 14  1  1  0  0  0  0
 15 14  2  0  0  0  0
 16 15  1  0  0  0  0
 17 18  2  0  0  0  0
 17 15  1  0  0  0  0
 18 19  1  0  0  0  0
 19 22  1  0  0  0  0
 19 13  2  0  0  0  0
 20 21  1  0  0  0  0
 23 22  1  0  0  0  0
M  END
>  <minimizedAffinity>
-5.42561769

$$$$

 OpenBabel03242523293D

 23 24  0  0  0  0  0  0  0  0999 V2000
   37.4620   26.6280   42.3910 C   0  0  0  0  0  0  0  0  0  0  0  0
   37.1080   26.7710   43.4410 H   0  0  0  0  0  0  0  0  0  0  0  0
   37.1310   25.5910   42.1050 H   0  0  0  0  0  0  0  0  0  0  0  0
   41.0520   26.2210   41.4880 C   0  0  0  0  0  0  0  0  0  0  0  0
   41.6710   27.0490   42.4280 C   0  0  0  0  0  0  0  0  0  0  0  0
   40.8530   27.7180   43.3350 C   0  0  0  0  0  0  0  0  0  0  0  0
   39.5070   27.5510   43.2860 N   0  0  0  0  0  0  0  0  0  0  0  0
   38.9420   26.7270   42.3460 C   0  0  0  0  0  0  0  0  0  0  0  0
   39.7310   26.0860   41.4740 N   0  0  0  0  0  0  0  0  0  0  0  0
   41.5630   25.6390   40.7190 H   0  0  0  0  0  0  0  0  0  0  0  0
   42.7410   27.1120   42.3850 H   0  0  0  0  0  0  0  0  0  0  0  0
   41.3370   28.3620   44.0660 H   0  0  0  0  0  0  0  0  0  0  0  0
   36.5510   28.9090   41.8570 C   0  0  0  0  0  0  0  0  0  0  0  0
   36.8300   27.6100   41.4920 C   0  0  0  0  0  0  0  0  0  0  0  0
   36.4900   27.2290   40.2070 C   0  0  0  0  0  0  0  0  0  0  0  0
   36.7070   26.2060   39.9100 H   0  0  0  0  0  0  0  0  0  0  0  0
   35.8900   28.0690   39.2710 C   0  0  0  0  0  3  0  0  0  0  0  0
   35.6200   29.3710   39.6660 C   0  0  0  0  0  3  0  0  0  0  0  0
   35.9540   29.7630   40.9470 C   0  0  0  0  0  0  0  0  0  0  0  0
   36.8670   29.3410   43.1240 O   0  0  0  0  0  0  0  0  0  0  0  0
   36.3020   30.1140   43.5020 H   0  0  0  0  0  0  0  0  0  0  0  0
   35.6750   31.0660   41.3190 O   0  0  0  0  0  0  0  0  0  0  0  0
   35.7910   31.8660   40.7000 H   0  0  0  0  0  0  0  0  0  0  0  0
  1  2  1  0  0  0  0
  3  1  1  0  0  0  0
  4  5  1  0  0  0  0
  5  6  2  0  0  0  0
  6 12  1  0  0  0  0
  7  6  1  0  0  0  0
  8  1  1  0  0  0  0
  8  7  2  0  0  0  0
  9  4  2  0  0  0  0
  9  8  1  0  0  0  0
 10  4  1  0  0  0  0
 11  5  1  0  0  0  0
 13 20  1  0  0  0  0
 14 13  1  0  0  0  0
 14  1  1  0  0  0  0
 15 14  2  0  0  0  0
 16 15  1  0  0  0  0
 17 18  2  0  0  0  0
 17 15  1  0  0  0  0
 18 19  1  0  0  0  0
 19 22  1  0  0  0  0
 19 13  2  0  0  0  0
 20 21  1  0  0  0  0
 23 22  1  0  0  0  0
M  END
>  <minimizedAffinity>
-4.92448139

$$$$

 OpenBabel03242523293D

 23 24  0  0  0  0  0  0  0  0999 V2000
   39.2840   29.3970   40.4480 C   0  0  0  0  0  0  0  0  0  0  0  0
   39.2910   28.7980   39.5050 H   0  0  0  0  0  0  0  0  0  0  0  0
   40.3640   29.4880   40.7490 H   0  0  0  0  0  0  0  0  0  0  0  0
   36.5680   27.8180   42.4460 C   0  0  0  0  0  0  0  0  0  0  0  0
   37.2830   27.3010   43.5290 C   0  0  0  0  0  0  0  0  0  0  0  0
   38.6610   27.5030   43.5460 C   0  0  0  0  0  0  0  0  0  0  0  0
   39.2600   28.1830   42.5360 N   0  0  0  0  0  0  0  0  0  0  0  0
   38.5170   28.6740   41.4920 C   0  0  0  0  0  0  0  0  0  0  0  0
   37.1930   28.4770   41.4780 N   0  0  0  0  0  0  0  0  0  0  0  0
   35.4890   27.7350   42.2990 H   0  0  0  0  0  0  0  0  0  0  0  0
   36.7170   26.7810   44.2780 H   0  0  0  0  0  0  0  0  0  0  0  0
   39.2170   27.1000   44.3910 H   0  0  0  0  0  0  0  0  0  0  0  0
   39.0150   31.8380   40.9860 C   0  0  0  0  0  0  0  0  0  0  0  0
   38.7270   30.7400   40.2050 C   0  0  0  0  0  0  0  0  0  0  0  0
   37.8670   30.9330   39.1390 C   0  0  0  0  0  0  0  0  0  0  0  0
   37.6350   30.0720   38.5170 H   0  0  0  0  0  0  0  0  0  0  0  0
   37.2800   32.1540   38.8130 C   0  0  0  0  0  3  0  0  0  0  0  0
   37.5880   33.2410   39.6180 C   0  0  0  0  0  3  0  0  0  0  0  0
   38.4450   33.0620   40.6840 C   0  0  0  0  0  0  0  0  0  0  0  0
   39.8640   31.7030   42.0600 O   0  0  0  0  0  0  0  0  0  0  0  0
   39.7370   32.3680   42.8340 H   0  0  0  0  0  0  0  0  0  0  0  0
   38.7370   34.1610   41.4730 O   0  0  0  0  0  0  0  0  0  0  0  0
   38.8800   35.0980   41.1030 H   0  0  0  0  0  0  0  0  0  0  0  0
  1  3  1  0  0  0  0
  1  8  1  0  0  0  0
  2  1  1  0  0  0  0
  4  5  1  0  0  0  0
  5  6  2  0  0  0  0
  5 11  1  0  0  0  0
  6 12  1  0  0  0  0
  7  6  1  0  0  0  0
  8  7  2  0  0  0  0
  9  8  1  0  0  0  0
  9  4  2  0  0  0  0
 10  4  1  0  0  0  0
 13 20  1  0  0  0  0
 14  1  1  0  0  0  0
 14 13  2  0  0  0  0
 15 14  1  0  0  0  0
 16 15  1  0  0  0  0
 17 15  2  0  0  0  0
 17 18  1  0  0  0  0
 18 19  2  0  0  0  0
 19 13  1  0  0  0  0
 19 22  1  0  0  0  0
 20 21  1  0  0  0  0
 23 22  1  0  0  0  0
M  END
>  <minimizedAffinity>
-4.82137823

$$$$

 OpenBabel03242523293D

 23 24  0  0  0  0  0  0  0  0999 V2000
   39.5330   33.5140   40.3880 C   0  0  0  0  0  0  0  0  0  0  0  0
   38.8020   34.3020   40.0830 H   0  0  0  0  0  0  0  0  0  0  0  0
   40.1190   33.9640   41.2360 H   0  0  0  0  0  0  0  0  0  0  0  0
   40.9920   32.1360   37.2510 C   0  0  0  0  0  0  0  0  0  0  0  0
   42.2430   32.7580   37.2280 C   0  0  0  0  0  0  0  0  0  0  0  0
   42.5500   33.6240   38.2760 C   0  0  0  0  0  0  0  0  0  0  0  0
   41.6490   33.8350   39.2680 N   0  0  0  0  0  0  0  0  0  0  0  0
   40.4330   33.2010   39.2490 C   0  0  0  0  0  0  0  0  0  0  0  0
   40.1400   32.3710   38.2410 N   0  0  0  0  0  0  0  0  0  0  0  0
   40.6160   31.4380   36.5000 H   0  0  0  0  0  0  0  0  0  0  0  0
   42.8840   32.5240   36.4010 H   0  0  0  0  0  0  0  0  0  0  0  0
   43.5250   34.1070   38.2560 H   0  0  0  0  0  0  0  0  0  0  0  0
   37.4750   32.1060   40.7080 C   0  0  0  0  0  0  0  0  0  0  0  0
   38.8290   32.3090   40.8620 C   0  0  0  0  0  0  0  0  0  0  0  0
   39.5470   31.3130   41.5010 C   0  0  0  0  0  0  0  0  0  0  0  0
   40.6160   31.4650   41.6270 H   0  0  0  0  0  0  0  0  0  0  0  0
   38.9900   30.1340   41.9910 C   0  0  0  0  0  3  0  0  0  0  0  0
   37.6250   29.9570   41.8210 C   0  0  0  0  0  3  0  0  0  0  0  0
   36.8980   30.9430   41.1860 C   0  0  0  0  0  0  0  0  0  0  0  0
   36.7130   33.0630   40.0810 O   0  0  0  0  0  0  0  0  0  0  0  0
   35.7180   33.1020   40.3390 H   0  0  0  0  0  0  0  0  0  0  0  0
   35.5370   30.7450   41.0280 O   0  0  0  0  0  0  0  0  0  0  0  0
   35.1220   29.8440   40.8000 H   0  0  0  0  0  0  0  0  0  0  0  0
  1 14  1  0  0  0  0
  1  3  1  0  0  0  0
  2  1  1  0  0  0  0
  4  9  1  0  0  0  0
  5  4  2  0  0  0  0
  5  6  1  0  0  0  0
  6  7  2  0  0  0  0
  8  7  1  0  0  0  0
  8  1  1  0  0  0  0
  9  8  2  0  0  0  0
 10  4  1  0  0  0  0
 11  5  1  0  0  0  0
 12  6  1  0  0  0  0
 13 14  2  0  0  0  0
 13 19  1  0  0  0  0
 14 15  1  0  0  0  0
 15 16  1  0  0  0  0
 15 17  2  0  0  0  0
 18 17  1  0  0  0  0
 19 18  2  0  0  0  0
 20 21  1  0  0  0  0
 20 13  1  0  0  0  0
 22 19  1  0  0  0  0
 23 22  1  0  0  0  0
M  END
>  <minimizedAffinity>
-4.79721022

$$$$

 OpenBabel03242523293D

 23 24  0  0  0  0  0  0  0  0999 V2000
   36.2070   30.7710   40.7790 C   0  0  0  0  0  0  0  0  0  0  0  0
   36.3480   31.8230   41.1280 H   0  0  0  0  0  0  0  0  0  0  0  0
   35.1140   30.5520   40.9330 H   0  0  0  0  0  0  0  0  0  0  0  0
   37.4530   27.8750   42.7590 C   0  0  0  0  0  0  0  0  0  0  0  0
   38.7310   28.3120   43.1180 C   0  0  0  0  0  0  0  0  0  0  0  0
   39.1280   29.5720   42.6770 C   0  0  0  0  0  0  0  0  0  0  0  0
   38.2840   30.3260   41.9290 N   0  0  0  0  0  0  0  0  0  0  0  0
   37.0370   29.8570   41.6010 C   0  0  0  0  0  0  0  0  0  0  0  0
   36.6590   28.6450   42.0250 N   0  0  0  0  0  0  0  0  0  0  0  0
   37.0110   26.9140   43.0310 H   0  0  0  0  0  0  0  0  0  0  0  0
   39.3220   27.6420   43.7130 H   0  0  0  0  0  0  0  0  0  0  0  0
   40.1240   29.9110   42.9570 H   0  0  0  0  0  0  0  0  0  0  0  0
   37.4430   31.4610   38.7010 C   0  0  0  0  0  0  0  0  0  0  0  0
   36.5340   30.6520   39.3460 C   0  0  0  0  0  0  0  0  0  0  0  0
   35.9050   29.6800   38.5880 C   0  0  0  0  0  0  0  0  0  0  0  0
   35.1860   29.0370   39.0880 H   0  0  0  0  0  0  0  0  0  0  0  0
   36.1330   29.4750   37.2290 C   0  0  0  0  0  3  0  0  0  0  0  0
   37.0550   30.3040   36.6060 C   0  0  0  0  0  3  0  0  0  0  0  0
   37.6880   31.2770   37.3520 C   0  0  0  0  0  0  0  0  0  0  0  0
   38.0970   32.4440   39.4070 O   0  0  0  0  0  0  0  0  0  0  0  0
   38.4180   33.2610   38.8710 H   0  0  0  0  0  0  0  0  0  0  0  0
   38.6020   32.0940   36.7100 O   0  0  0  0  0  0  0  0  0  0  0  0
   39.2520   31.7620   36.0000 H   0  0  0  0  0  0  0  0  0  0  0  0
  1  3  1  0  0  0  0
  1  2  1  0  0  0  0
  1  8  1  0  0  0  0
  4 10  1  0  0  0  0
  4  5  1  0  0  0  0
  5 11  1  0  0  0  0
  6 12  1  0  0  0  0
  6  5  2  0  0  0  0
  7  6  1  0  0  0  0
  8  7  2  0  0  0  0
  8  9  1  0  0  0  0
  9  4  2  0  0  0  0
 13 14  1  0  0  0  0
 13 20  1  0  0  0  0
 14  1  1  0  0  0  0
 15 16  1  0  0  0  0
 15 14  2  0  0  0  0
 17 15  1  0  0  0  0
 18 17  2  0  0  0  0
 18 19  1  0  0  0  0
 19 13  2  0  0  0  0
 21 20  1  0  0  0  0
 22 19  1  0  0  0  0
 23 22  1  0  0  0  0
M  END
>  <minimizedAffinity>
-4.77408743

$$$$

 OpenBabel03242523293D

 23 24  0  0  0  0  0  0  0  0999 V2000
   35.5240   29.7820   40.5660 C   0  0  0  0  0  0  0  0  0  0  0  0
   34.6800   29.5240   39.8810 H   0  0  0  0  0  0  0  0  0  0  0  0
   35.0410   30.2350   41.4750 H   0  0  0  0  0  0  0  0  0  0  0  0
   37.4860   31.7320   38.0730 C   0  0  0  0  0  0  0  0  0  0  0  0
   38.0970   32.6890   38.8860 C   0  0  0  0  0  0  0  0  0  0  0  0
   37.8240   32.6430   40.2520 C   0  0  0  0  0  0  0  0  0  0  0  0
   36.9920   31.6910   40.7460 N   0  0  0  0  0  0  0  0  0  0  0  0
   36.4150   30.7700   39.9090 C   0  0  0  0  0  0  0  0  0  0  0  0
   36.6780   30.8180   38.5970 N   0  0  0  0  0  0  0  0  0  0  0  0
   37.6050   31.6480   36.9910 H   0  0  0  0  0  0  0  0  0  0  0  0
   38.7390   33.3980   38.4000 H   0  0  0  0  0  0  0  0  0  0  0  0
   38.3010   33.3900   40.8840 H   0  0  0  0  0  0  0  0  0  0  0  0
   36.9070   28.4240   42.1670 C   0  0  0  0  0  0  0  0  0  0  0  0
   36.2640   28.5680   40.9570 C   0  0  0  0  0  0  0  0  0  0  0  0
   36.3290   27.5030   40.0770 C   0  0  0  0  0  0  0  0  0  0  0  0
   35.8240   27.6080   39.1200 H   0  0  0  0  0  0  0  0  0  0  0  0
   36.9980   26.3080   40.3370 C   0  0  0  0  0  3  0  0  0  0  0  0
   37.6360   26.1910   41.5630 C   0  0  0  0  0  3  0  0  0  0  0  0
   37.5780   27.2470   42.4500 C   0  0  0  0  0  0  0  0  0  0  0  0
   36.8750   29.4520   43.0790 O   0  0  0  0  0  0  0  0  0  0  0  0
   37.6610   29.5050   43.7420 H   0  0  0  0  0  0  0  0  0  0  0  0
   38.2230   27.1080   43.6660 O   0  0  0  0  0  0  0  0  0  0  0  0
   38.2360   26.2430   44.2010 H   0  0  0  0  0  0  0  0  0  0  0  0
  1 14  1  0  0  0  0
  1  3  1  0  0  0  0
  2  1  1  0  0  0  0
  4  9  2  0  0  0  0
  4  5  1  0  0  0  0
  5  6  2  0  0  0  0
  6  7  1  0  0  0  0
  6 12  1  0  0  0  0
  8  1  1  0  0  0  0
  8  7  2  0  0  0  0
  9  8  1  0  0  0  0
 10  4  1  0  0  0  0
 11  5  1  0  0  0  0
 13 19  1  0  0  0  0
 13 20  1  0  0  0  0
 14 13  2  0  0  0  0
 15 17  2  0  0  0  0
 15 14  1  0  0  0  0
 16 15  1  0  0  0  0
 17 18  1  0  0  0  0
 18 19  2  0  0  0  0
 19 22  1  0  0  0  0
 20 21  1  0  0  0  0
 22 23  1  0  0  0  0
M  END
>  <minimizedAffinity>
-4.74473143

$$$$

 OpenBabel03242523293D

 23 24  0  0  0  0  0  0  0  0999 V2000
   36.8690   27.5730   43.2350 C   0  0  0  0  0  0  0  0  0  0  0  0
   35.9000   27.0410   43.3990 H   0  0  0  0  0  0  0  0  0  0  0  0
   37.0210   28.2010   44.1570 H   0  0  0  0  0  0  0  0  0  0  0  0
   36.1430   28.9070   39.8350 C   0  0  0  0  0  0  0  0  0  0  0  0
   36.6730   30.1960   39.9220 C   0  0  0  0  0  0  0  0  0  0  0  0
   37.2580   30.5720   41.1300 C   0  0  0  0  0  0  0  0  0  0  0  0
   37.2990   29.6960   42.1650 N   0  0  0  0  0  0  0  0  0  0  0  0
   36.7660   28.4390   42.0340 C   0  0  0  0  0  0  0  0  0  0  0  0
   36.2030   28.0810   40.8730 N   0  0  0  0  0  0  0  0  0  0  0  0
   35.6550   28.4780   38.9570 H   0  0  0  0  0  0  0  0  0  0  0  0
   36.5930   30.8120   39.0480 H   0  0  0  0  0  0  0  0  0  0  0  0
   37.6710   31.5770   41.1960 H   0  0  0  0  0  0  0  0  0  0  0  0
   37.8690   25.4060   42.4470 C   0  0  0  0  0  0  0  0  0  0  0  0
   37.9770   26.6090   43.1090 C   0  0  0  0  0  0  0  0  0  0  0  0
   39.2010   26.9080   43.6800 C   0  0  0  0  0  0  0  0  0  0  0  0
   39.2950   27.8550   44.2040 H   0  0  0  0  0  0  0  0  0  0  0  0
   40.3170   26.0750   43.6260 C   0  0  0  0  0  3  0  0  0  0  0  0
   40.1790   24.8700   42.9520 C   0  0  0  0  0  3  0  0  0  0  0  0
   38.9630   24.5610   42.3790 C   0  0  0  0  0  0  0  0  0  0  0  0
   36.6740   25.0580   41.8620 O   0  0  0  0  0  0  0  0  0  0  0  0
   36.4870   24.0510   41.7590 H   0  0  0  0  0  0  0  0  0  0  0  0
   38.8480   23.3540   41.7130 O   0  0  0  0  0  0  0  0  0  0  0  0
   39.5850   22.9600   41.1320 H   0  0  0  0  0  0  0  0  0  0  0  0
  1  2  1  0  0  0  0
  1  3  1  0  0  0  0
  4  5  2  0  0  0  0
  4  9  1  0  0  0  0
  5  6  1  0  0  0  0
  6 12  1  0  0  0  0
  6  7  2  0  0  0  0
  8  7  1  0  0  0  0
  8  1  1  0  0  0  0
  9  8  2  0  0  0  0
 10  4  1  0  0  0  0
 11  5  1  0  0  0  0
 13 14  1  0  0  0  0
 14  1  1  0  0  0  0
 14 15  2  0  0  0  0
 15 16  1  0  0  0  0
 17 15  1  0  0  0  0
 18 17  2  0  0  0  0
 19 13  2  0  0  0  0
 19 18  1  0  0  0  0
 20 13  1  0  0  0  0
 21 20  1  0  0  0  0
 22 19  1  0  0  0  0
 23 22  1  0  0  0  0
M  END
>  <minimizedAffinity>
-4.67258501

$$$$

 OpenBabel03242523293D

 23 24  0  0  0  0  0  0  0  0999 V2000
   37.8450   28.4950   43.6420 C   0  0  0  0  0  0  0  0  0  0  0  0
   38.4800   28.6370   44.5500 H   0  0  0  0  0  0  0  0  0  0  0  0
   36.7840   28.5490   44.0110 H   0  0  0  0  0  0  0  0  0  0  0  0
   39.4850   25.3610   42.4780 C   0  0  0  0  0  0  0  0  0  0  0  0
   38.4110   24.6860   41.8920 C   0  0  0  0  0  0  0  0  0  0  0  0
   37.1670   25.3140   41.9120 C   0  0  0  0  0  0  0  0  0  0  0  0
   37.0340   26.5360   42.4840 N   0  0  0  0  0  0  0  0  0  0  0  0
   38.1170   27.1630   43.0460 C   0  0  0  0  0  0  0  0  0  0  0  0
   39.3100   26.5570   43.0270 N   0  0  0  0  0  0  0  0  0  0  0  0
   40.5110   24.9930   42.5370 H   0  0  0  0  0  0  0  0  0  0  0  0
   38.6200   23.7240   41.4650 H   0  0  0  0  0  0  0  0  0  0  0  0
   36.3320   24.7860   41.4560 H   0  0  0  0  0  0  0  0  0  0  0  0
   37.1380   30.0090   41.7640 C   0  0  0  0  0  0  0  0  0  0  0  0
   38.0820   29.5770   42.6690 C   0  0  0  0  0  0  0  0  0  0  0  0
   39.3120   30.2090   42.6460 C   0  0  0  0  0  0  0  0  0  0  0  0
   40.0630   29.8750   43.3580 H   0  0  0  0  0  0  0  0  0  0  0  0
   39.6500   31.2410   41.7730 C   0  0  0  0  0  3  0  0  0  0  0  0
   38.6790   31.6550   40.8730 C   0  0  0  0  0  3  0  0  0  0  0  0
   37.4480   31.0320   40.8860 C   0  0  0  0  0  0  0  0  0  0  0  0
   35.8970   29.4150   41.7420 O   0  0  0  0  0  0  0  0  0  0  0  0
   35.3900   29.4380   40.8460 H   0  0  0  0  0  0  0  0  0  0  0  0
   36.4950   31.4610   39.9780 O   0  0  0  0  0  0  0  0  0  0  0  0
   36.3570   32.4370   39.7250 H   0  0  0  0  0  0  0  0  0  0  0  0
  1  3  1  0  0  0  0
  1  2  1  0  0  0  0
  4 10  1  0  0  0  0
  4  9  1  0  0  0  0
  5  6  1  0  0  0  0
  5  4  2  0  0  0  0
  6  7  2  0  0  0  0
  7  8  1  0  0  0  0
  8  1  1  0  0  0  0
  9  8  2  0  0  0  0
 11  5  1  0  0  0  0
 12  6  1  0  0  0  0
 13 14  1  0  0  0  0
 14  1  1  0  0  0  0
 15 14  2  0  0  0  0
 15 16  1  0  0  0  0
 17 15  1  0  0  0  0
 18 19  1  0  0  0  0
 18 17  2  0  0  0  0
 19 13  2  0  0  0  0
 20 13  1  0  0  0  0
 21 20  1  0  0  0  0
 22 19  1  0  0  0  0
 23 22  1  0  0  0  0
M  END
>  <minimizedAffinity>
-4.60050917

$$$$

 OpenBabel03242523293D

 23 24  0  0  0  0  0  0  0  0999 V2000
   35.2730   29.2700   40.3510 C   0  0  0  0  0  0  0  0  0  0  0  0
   34.6290   29.6980   41.1580 H   0  0  0  0  0  0  0  0  0  0  0  0
   34.5580   28.8950   39.5680 H   0  0  0  0  0  0  0  0  0  0  0  0
   37.2280   27.0200   42.5820 C   0  0  0  0  0  0  0  0  0  0  0  0
   37.5510   25.9760   41.7120 C   0  0  0  0  0  0  0  0  0  0  0  0
   37.0960   26.0680   40.3980 C   0  0  0  0  0  0  0  0  0  0  0  0
   36.3680   27.1450   40.0070 N   0  0  0  0  0  0  0  0  0  0  0  0
   36.0760   28.1470   40.8970 C   0  0  0  0  0  0  0  0  0  0  0  0
   36.5140   28.0550   42.1580 N   0  0  0  0  0  0  0  0  0  0  0  0
   37.5140   27.0810   43.6340 H   0  0  0  0  0  0  0  0  0  0  0  0
   38.1320   25.1700   42.1170 H   0  0  0  0  0  0  0  0  0  0  0  0
   37.3480   25.2540   39.7220 H   0  0  0  0  0  0  0  0  0  0  0  0
   36.5510   30.3150   38.4550 C   0  0  0  0  0  0  0  0  0  0  0  0
   36.1360   30.3140   39.7680 C   0  0  0  0  0  0  0  0  0  0  0  0
   36.5630   31.3600   40.5650 C   0  0  0  0  0  0  0  0  0  0  0  0
   36.2400   31.3680   41.6030 H   0  0  0  0  0  0  0  0  0  0  0  0
   37.3790   32.4010   40.1250 C   0  0  0  0  0  3  0  0  0  0  0  0
   37.7820   32.3750   38.7980 C   0  0  0  0  0  3  0  0  0  0  0  0
   37.3610   31.3360   37.9930 C   0  0  0  0  0  0  0  0  0  0  0  0
   36.1560   29.2970   37.6180 O   0  0  0  0  0  0  0  0  0  0  0  0
   36.7760   29.0850   36.8250 H   0  0  0  0  0  0  0  0  0  0  0  0
   37.7760   31.3310   36.6730 O   0  0  0  0  0  0  0  0  0  0  0  0
   37.8460   32.1700   36.1010 H   0  0  0  0  0  0  0  0  0  0  0  0
  1  8  1  0  0  0  0
  1  2  1  0  0  0  0
  3  1  1  0  0  0  0
  4 10  1  0  0  0  0
  5 11  1  0  0  0  0
  5  4  2  0  0  0  0
  6  5  1  0  0  0  0
  7  6  2  0  0  0  0
  7  8  1  0  0  0  0
  8  9  2  0  0  0  0
  9  4  1  0  0  0  0
 12  6  1  0  0  0  0
 13 14  1  0  0  0  0
 14  1  1  0  0  0  0
 14 15  2  0  0  0  0
 15 16  1  0  0  0  0
 17 15  1  0  0  0  0
 18 17  2  0  0  0  0
 19 13  2  0  0  0  0
 19 18  1  0  0  0  0
 20 13  1  0  0  0  0
 21 20  1  0  0  0  0
 22 19  1  0  0  0  0
 23 22  1  0  0  0  0
M  END
>  <minimizedAffinity>
-4.59839153

$$$$
