
 OpenBabel03252503243D

 49 54  0  0  1  0  0  0  0  0999 V2000
   45.6300   33.4840   45.0860 C   0  0  0  0  0  0  0  0  0  0  0  0
   46.7010   32.9050   44.3170 C   0  0  0  0  0  0  0  0  0  0  0  0
   47.6150   32.1210   44.9700 C   0  0  0  0  0  0  0  0  0  0  0  0
   47.4530   31.9360   46.3100 N   0  0  0  0  0  0  0  0  0  0  0  0
   46.4360   32.4900   47.0200 C   0  0  0  0  0  0  0  0  0  0  0  0
   45.5260   33.2630   46.4070 N   0  0  0  0  0  0  0  0  0  0  0  0
   44.9120   34.1010   44.5660 H   0  0  0  0  0  0  0  0  0  0  0  0
   48.4260   31.6720   44.4280 H   0  0  0  0  0  0  0  0  0  0  0  0
   46.7640   33.1960   42.8530 C   0  0  1  0  0  0  0  0  0  0  0  0
   46.8060   34.5720   42.3740 C   0  0  0  0  0  0  0  0  0  0  0  0
   48.0660   33.7910   42.3410 C   0  0  2  0  0  0  0  0  0  0  0  0
   46.3550   32.3650   42.2490 H   0  0  0  0  0  0  0  0  0  0  0  0
   46.7950   35.3650   43.1780 H   0  0  0  0  0  0  0  0  0  0  0  0
   46.1740   34.8290   41.5420 H   0  0  0  0  0  0  0  0  0  0  0  0
   48.8790   33.9120   43.0790 H   0  0  0  0  0  0  0  0  0  0  0  0
   48.4970   33.2580   41.0200 C   0  0  0  0  0  0  0  0  0  0  0  0
   49.4010   32.2310   40.8570 C   0  0  0  0  0  0  0  0  0  0  0  0
   49.7590   31.7910   39.5940 C   0  0  0  0  0  0  0  0  0  0  0  0
   49.2170   32.3740   38.4690 C   0  0  0  0  0  0  0  0  0  0  0  0
   49.5450   31.9620   37.2210 N   0  0  0  0  0  0  0  0  0  0  0  0
   48.9900   32.5530   36.1360 C   0  0  0  0  0  0  0  0  0  0  0  0
   48.0560   33.6140   36.2090 C   0  0  0  0  0  0  0  0  0  0  0  0
   47.7150   34.0410   37.4690 C   0  0  0  0  0  0  0  0  0  0  0  0
   48.2940   33.4210   38.5830 C   0  0  0  0  0  0  0  0  0  0  0  0
   47.9680   33.8260   39.8600 C   0  0  0  0  0  0  0  0  0  0  0  0
   49.8230   31.7790   41.7450 H   0  0  0  0  0  0  0  0  0  0  0  0
   50.4750   30.9780   39.4860 H   0  0  0  0  0  0  0  0  0  0  0  0
   49.3090   32.1600   35.1920 H   0  0  0  0  0  0  0  0  0  0  0  0
   47.6630   34.0290   35.2900 H   0  0  0  0  0  0  0  0  0  0  0  0
   47.0070   34.8460   37.5840 H   0  0  0  0  0  0  0  0  0  0  0  0
   47.2570   34.6400   39.8660 H   0  0  0  0  0  0  0  0  0  0  0  0
   46.3650   32.2040   48.4800 C   0  0  2  0  0  0  0  0  0  0  0  0
   47.4060   31.4580   49.1640 C   0  0  0  0  0  0  0  0  0  0  0  0
   46.1720   30.6920   48.8090 C   0  0  2  0  0  0  0  0  0  0  0  0
   45.6040   32.8460   49.0060 H   0  0  0  0  0  0  0  0  0  0  0  0
   48.3610   31.3460   48.6510 H   0  0  0  0  0  0  0  0  0  0  0  0
   47.5470   31.7310   50.2530 H   0  0  0  0  0  0  0  0  0  0  0  0
   45.4990   30.4660   49.6540 H   0  0  0  0  0  0  0  0  0  0  0  0
   45.2720   29.3770   46.7470 C   0  0  0  0  0  0  0  0  0  0  0  0
   46.2110   29.7600   47.6780 C   0  0  0  0  0  0  0  0  0  0  0  0
   47.4810   29.1750   47.5800 C   0  0  0  0  0  0  0  0  0  0  0  0
   48.3530   29.3560   48.2280 H   0  0  0  0  0  0  0  0  0  0  0  0
   47.7740   28.2430   46.5770 C   0  0  0  0  0  3  0  0  0  0  0  0
   46.8170   27.8770   45.6600 C   0  0  0  0  0  3  0  0  0  0  0  0
   45.5830   28.4570   45.7700 C   0  0  0  0  0  0  0  0  0  0  0  0
   44.0560   30.0150   46.9370 O   0  0  0  0  0  0  0  0  0  0  0  0
   43.7980   30.8780   46.4790 H   0  0  0  0  0  0  0  0  0  0  0  0
   44.5600   28.1540   44.8980 O   0  0  0  0  0  0  0  0  0  0  0  0
   43.9520   28.8970   44.5440 H   0  0  0  0  0  0  0  0  0  0  0  0
  1  6  1  0  0  0  0
  2  3  1  0  0  0  0
  2  1  2  0  0  0  0
  3  4  2  0  0  0  0
  4  5  1  0  0  0  0
  5 32  1  0  0  0  0
  6  5  2  0  0  0  0
  7  1  1  0  0  0  0
  8  3  1  0  0  0  0
  9 12  1  6  0  0  0
  9  2  1  0  0  0  0
 10  9  1  0  0  0  0
 10 13  1  0  0  0  0
 11 10  1  0  0  0  0
 11  9  1  0  0  0  0
 11 15  1  1  0  0  0
 14 10  1  0  0  0  0
 16 11  1  0  0  0  0
 17 16  1  0  0  0  0
 17 26  1  0  0  0  0
 18 17  2  0  0  0  0
 19 24  1  0  0  0  0
 19 18  1  0  0  0  0
 20 19  2  0  0  0  0
 21 22  2  0  0  0  0
 21 20  1  0  0  0  0
 22 23  1  0  0  0  0
 23 30  1  0  0  0  0
 23 24  2  0  0  0  0
 24 25  1  0  0  0  0
 25 31  1  0  0  0  0
 25 16  2  0  0  0  0
 27 18  1  0  0  0  0
 28 21  1  0  0  0  0
 29 22  1  0  0  0  0
 32 34  1  0  0  0  0
 32 35  1  1  0  0  0
 32 33  1  0  0  0  0
 33 37  1  0  0  0  0
 34 33  1  0  0  0  0
 34 38  1  1  0  0  0
 36 33  1  0  0  0  0
 39 46  1  0  0  0  0
 39 40  1  0  0  0  0
 40 34  1  0  0  0  0
 41 40  2  0  0  0  0
 41 42  1  0  0  0  0
 43 41  1  0  0  0  0
 44 45  1  0  0  0  0
 44 43  2  0  0  0  0
 45 39  2  0  0  0  0
 47 46  1  0  0  0  0
 48 45  1  0  0  0  0
 49 48  1  0  0  0  0
M  END
>  <minimizedAffinity>
-5.60452414

>  <minimizedRMSD>
1.45105147

$$$$
