
 OpenBabel03252503413D

 23 24  0  0  0  0  0  0  0  0999 V2000
   44.6650   35.4280   45.0780 C   0  0  0  0  0  0  0  0  0  0  0  0
   45.3590   35.3120   43.8710 C   0  0  0  0  0  0  0  0  0  0  0  0
   46.2390   34.2470   43.7340 C   0  0  0  0  0  0  0  0  0  0  0  0
   46.3760   33.3800   44.7730 N   0  0  0  0  0  0  0  0  0  0  0  0
   45.6960   33.5140   45.9200 C   0  0  0  0  0  0  0  0  0  0  0  0
   44.8340   34.5360   46.0880 N   0  0  0  0  0  0  0  0  0  0  0  0
   43.9410   36.2110   45.3330 H   0  0  0  0  0  0  0  0  0  0  0  0
   46.7370   34.2160   42.7920 H   0  0  0  0  0  0  0  0  0  0  0  0
   46.7140   31.4830   46.8710 C   0  0  0  0  0  0  0  0  0  0  0  0
   45.8770   32.5570   47.0070 C   0  0  0  0  0  0  0  0  0  0  0  0
   45.2190   32.6960   48.2030 C   0  0  0  0  0  0  0  0  0  0  0  0
   44.5450   33.5060   48.3950 H   0  0  0  0  0  0  0  0  0  0  0  0
   45.4100   31.7720   49.2180 C   0  0  0  0  0  3  0  0  0  0  0  0
   46.2620   30.6940   49.0550 C   0  0  0  0  0  3  0  0  0  0  0  0
   46.9330   30.5420   47.8540 C   0  0  0  0  0  0  0  0  0  0  0  0
   47.3850   31.3510   45.6410 O   0  0  0  0  0  0  0  0  0  0  0  0
   48.3010   31.7270   45.4790 H   0  0  0  0  0  0  0  0  0  0  0  0
   47.8190   29.4910   47.5760 O   0  0  0  0  0  0  0  0  0  0  0  0
   48.6480   29.6540   47.0080 H   0  0  0  0  0  0  0  0  0  0  0  0
   45.0530   36.3700   42.8830 C   0  0  0  0  0  0  0  0  0  0  0  0
   44.0560   36.2180   42.4140 H   0  0  0  0  0  0  0  0  0  0  0  0
   45.8510   36.3380   42.1140 H   0  0  0  0  0  0  0  0  0  0  0  0
   44.9830   37.3400   43.4140 H   0  0  0  0  0  0  0  0  0  0  0  0
  1  7  1  0  0  0  0
  1  6  1  0  0  0  0
  2  1  2  0  0  0  0
  3  2  1  0  0  0  0
  3  4  2  0  0  0  0
  4  5  1  0  0  0  0
  5  6  2  0  0  0  0
  5 10  1  0  0  0  0
  8  3  1  0  0  0  0
  9 10  2  0  0  0  0
  9 15  1  0  0  0  0
 10 11  1  0  0  0  0
 11 12  1  0  0  0  0
 11 13  2  0  0  0  0
 14 13  1  0  0  0  0
 15 14  2  0  0  0  0
 16  9  1  0  0  0  0
 17 16  1  0  0  0  0
 18 15  1  0  0  0  0
 19 18  1  0  0  0  0
 20 23  1  0  0  0  0
 20  2  1  0  0  0  0
 21 20  1  0  0  0  0
 22 20  1  0  0  0  0
M  END
>  <minimizedAffinity>
-4.99281406

>  <minimizedRMSD>
1.35702372

$$$$
