
 OpenBabel03252503413D

 23 24  0  0  0  0  0  0  0  0999 V2000
   44.9110   35.2640   44.5560 C   0  0  0  0  0  0  0  0  0  0  0  0
   44.7570   34.7060   43.2850 C   0  0  0  0  0  0  0  0  0  0  0  0
   45.0910   33.3680   43.1250 C   0  0  0  0  0  0  0  0  0  0  0  0
   45.5450   32.6780   44.2050 N   0  0  0  0  0  0  0  0  0  0  0  0
   45.6830   33.2380   45.4150 C   0  0  0  0  0  0  0  0  0  0  0  0
   45.3680   34.5340   45.6070 N   0  0  0  0  0  0  0  0  0  0  0  0
   44.6900   36.3010   44.8370 H   0  0  0  0  0  0  0  0  0  0  0  0
   44.9520   33.0040   42.1320 H   0  0  0  0  0  0  0  0  0  0  0  0
   45.5850   32.5420   47.7750 C   0  0  0  0  0  0  0  0  0  0  0  0
   46.1750   32.4560   46.5440 C   0  0  0  0  0  0  0  0  0  0  0  0
   47.2450   31.6060   46.4140 C   0  0  0  0  0  0  0  0  0  0  0  0
   47.7660   31.4770   45.4880 H   0  0  0  0  0  0  0  0  0  0  0  0
   47.6920   30.8750   47.5040 C   0  0  0  0  0  3  0  0  0  0  0  0
   47.0780   30.9800   48.7390 C   0  0  0  0  0  3  0  0  0  0  0  0
   45.9970   31.8330   48.8830 C   0  0  0  0  0  0  0  0  0  0  0  0
   44.4880   33.4160   47.8960 O   0  0  0  0  0  0  0  0  0  0  0  0
   43.5390   33.1150   47.7740 H   0  0  0  0  0  0  0  0  0  0  0  0
   45.2980   32.0190   50.0850 O   0  0  0  0  0  0  0  0  0  0  0  0
   44.2910   32.1680   50.0740 H   0  0  0  0  0  0  0  0  0  0  0  0
   44.2470   35.6440   42.2610 C   0  0  0  0  0  0  0  0  0  0  0  0
   43.1600   35.8440   42.3900 H   0  0  0  0  0  0  0  0  0  0  0  0
   44.4410   35.1820   41.2720 H   0  0  0  0  0  0  0  0  0  0  0  0
   44.7440   36.6240   42.4010 H   0  0  0  0  0  0  0  0  0  0  0  0
  1  7  1  0  0  0  0
  1  6  1  0  0  0  0
  2  1  2  0  0  0  0
  3  2  1  0  0  0  0
  3  4  2  0  0  0  0
  4  5  1  0  0  0  0
  5  6  2  0  0  0  0
  5 10  1  0  0  0  0
  8  3  1  0  0  0  0
  9 16  1  0  0  0  0
  9 15  1  0  0  0  0
 10  9  2  0  0  0  0
 11 10  1  0  0  0  0
 11 13  2  0  0  0  0
 12 11  1  0  0  0  0
 13 14  1  0  0  0  0
 14 15  2  0  0  0  0
 15 18  1  0  0  0  0
 17 16  1  0  0  0  0
 19 18  1  0  0  0  0
 20 21  1  0  0  0  0
 20 23  1  0  0  0  0
 20  2  1  0  0  0  0
 22 20  1  0  0  0  0
M  END
>  <minimizedAffinity>
-5.70583963

>  <minimizedRMSD>
1.52649319

$$$$
