
 OpenBabel03242516153D

 43 46  0  0  0  0  0  0  0  0999 V2000
   38.9190   29.2640   38.6380 C   0  0  0  0  0  0  0  0  0  0  0  0
   40.0260   29.1330   37.5930 C   0  0  0  0  0  0  0  0  0  0  0  0
   40.0070   28.3150   38.8140 C   0  0  0  0  0  0  0  0  0  0  0  0
   40.7230   29.9820   37.5210 H   0  0  0  0  0  0  0  0  0  0  0  0
   39.8060   28.6490   36.6490 H   0  0  0  0  0  0  0  0  0  0  0  0
   39.7140   27.2220   38.7570 H   0  0  0  0  0  0  0  0  0  0  0  0
   40.9060   28.4300   39.4420 H   0  0  0  0  0  0  0  0  0  0  0  0
   37.5900   28.7450   38.1680 C   0  0  0  0  0  0  0  0  0  0  0  0
   36.4440   29.7290   38.2820 C   0  0  0  0  0  0  0  0  0  0  0  0
   35.2550   29.0280   37.6190 C   0  0  0  0  0  0  0  0  0  0  0  0
   34.8120   28.0580   38.5250 O   0  0  0  0  0  0  0  0  0  0  0  0
   35.8130   27.0570   38.4310 C   0  0  0  0  0  0  0  0  0  0  0  0
   37.1070   27.5790   39.0490 C   0  0  0  0  0  0  0  0  0  0  0  0
   37.6790   28.3890   37.1320 H   0  0  0  0  0  0  0  0  0  0  0  0
   36.6020   30.6380   37.6710 H   0  0  0  0  0  0  0  0  0  0  0  0
   36.2090   29.9040   39.3350 H   0  0  0  0  0  0  0  0  0  0  0  0
   35.5340   28.5770   36.6690 H   0  0  0  0  0  0  0  0  0  0  0  0
   34.4220   29.7700   37.5730 H   0  0  0  0  0  0  0  0  0  0  0  0
   35.5190   26.1220   38.9380 H   0  0  0  0  0  0  0  0  0  0  0  0
   35.9800   26.9220   37.3240 H   0  0  0  0  0  0  0  0  0  0  0  0
   36.9180   27.9180   40.0670 H   0  0  0  0  0  0  0  0  0  0  0  0
   37.8230   26.7410   38.9850 H   0  0  0  0  0  0  0  0  0  0  0  0
   38.9440   31.7620   38.7790 C   0  0  0  0  0  0  0  0  0  0  0  0
   38.9260   30.5340   39.4200 C   0  0  0  0  0  0  0  0  0  0  0  0
   38.8830   30.5670   40.8200 C   0  0  0  0  0  0  0  0  0  0  0  0
   38.8570   31.7320   41.4860 N   0  0  0  0  0  0  0  0  0  0  0  0
   38.8760   32.8940   40.7980 C   0  0  0  0  0  0  0  0  0  0  0  0
   38.9180   32.9250   39.4790 N   0  0  0  0  0  0  0  0  0  0  0  0
   38.8540   34.1610   41.4280 N   0  0  0  0  0  0  0  0  0  0  0  0
   38.9790   31.7210   37.6770 H   0  0  0  0  0  0  0  0  0  0  0  0
   37.8920   34.4400   41.7330 H   0  0  0  0  0  0  0  0  0  0  0  0
   39.7110   34.7410   41.5690 H   0  0  0  0  0  0  0  0  0  0  0  0
   37.5420   29.1540   42.2350 C   0  0  0  0  0  0  0  0  0  0  0  0
   38.8210   29.4530   41.7360 C   0  0  0  0  0  0  0  0  0  0  0  0
   39.8330   28.6850   42.2630 C   0  0  0  0  0  0  0  0  0  0  0  0
   40.8200   28.8960   41.9240 H   0  0  0  0  0  0  0  0  0  0  0  0
   39.6950   27.6990   43.1900 C   0  0  0  0  0  3  0  0  0  0  0  0
   38.4600   27.4050   43.6770 C   0  0  0  0  0  3  0  0  0  0  0  0
   37.3810   28.1430   43.1900 C   0  0  0  0  0  0  0  0  0  0  0  0
   36.4250   29.8470   41.7910 O   0  0  0  0  0  0  0  0  0  0  0  0
   36.0620   30.6020   42.3370 H   0  0  0  0  0  0  0  0  0  0  0  0
   36.0910   27.8780   43.6600 O   0  0  0  0  0  0  0  0  0  0  0  0
   35.6360   27.0440   43.2540 H   0  0  0  0  0  0  0  0  0  0  0  0
  1  3  1  0  0  0  0
  1 24  1  0  0  0  0
  2  1  1  0  0  0  0
  2  3  1  0  0  0  0
  3  7  1  0  0  0  0
  4  2  1  0  0  0  0
  5  2  1  0  0  0  0
  6  3  1  0  0  0  0
  8  9  1  0  0  0  0
  8  1  1  0  0  0  0
  8 13  1  0  0  0  0
  9 16  1  0  0  0  0
 10  9  1  0  0  0  0
 10 11  1  0  0  0  0
 12 11  1  0  0  0  0
 12 19  1  0  0  0  0
 12 13  1  0  0  0  0
 13 21  1  0  0  0  0
 14  8  1  0  0  0  0
 15  9  1  0  0  0  0
 17 10  1  0  0  0  0
 18 10  1  0  0  0  0
 20 12  1  0  0  0  0
 22 13  1  0  0  0  0
 23 24  2  0  0  0  0
 23 28  1  0  0  0  0
 24 25  1  0  0  0  0
 25 26  2  0  0  0  0
 25 34  1  0  0  0  0
 27 29  1  0  0  0  0
 27 26  1  0  0  0  0
 28 27  2  0  0  0  0
 29 32  1  0  0  0  0
 29 31  1  0  0  0  0
 30 23  1  0  0  0  0
 33 39  1  0  0  0  0
 34 33  2  0  0  0  0
 34 35  1  0  0  0  0
 35 37  2  0  0  0  0
 36 35  1  0  0  0  0
 37 38  1  0  0  0  0
 39 42  1  0  0  0  0
 39 38  2  0  0  0  0
 40 33  1  0  0  0  0
 40 41  1  0  0  0  0
 43 42  1  0  0  0  0
M  END
>  <minimizedAffinity>
-6.23148203

$$$$

 OpenBabel03242516153D

 43 46  0  0  0  0  0  0  0  0999 V2000
   39.5170   28.6800   40.2290 C   0  0  0  0  0  0  0  0  0  0  0  0
   40.0210   28.3670   38.8200 C   0  0  0  0  0  0  0  0  0  0  0  0
   40.8840   28.2370   40.0040 C   0  0  0  0  0  0  0  0  0  0  0  0
   40.1470   29.2310   38.1520 H   0  0  0  0  0  0  0  0  0  0  0  0
   39.6860   27.4620   38.3290 H   0  0  0  0  0  0  0  0  0  0  0  0
   41.1350   27.2090   40.4080 H   0  0  0  0  0  0  0  0  0  0  0  0
   41.7950   28.8560   39.9620 H   0  0  0  0  0  0  0  0  0  0  0  0
   38.5190   27.6810   40.7410 C   0  0  0  0  0  0  0  0  0  0  0  0
   38.0680   27.9060   42.1700 C   0  0  0  0  0  0  0  0  0  0  0  0
   36.9680   26.8670   42.4030 C   0  0  0  0  0  0  0  0  0  0  0  0
   37.6130   25.6360   42.5610 O   0  0  0  0  0  0  0  0  0  0  0  0
   38.0180   25.3190   41.2390 C   0  0  0  0  0  0  0  0  0  0  0  0
   39.1330   26.2710   40.8120 C   0  0  0  0  0  0  0  0  0  0  0  0
   37.6490   27.6520   40.0700 H   0  0  0  0  0  0  0  0  0  0  0  0
   37.5580   28.8790   42.3060 H   0  0  0  0  0  0  0  0  0  0  0  0
   38.8940   27.7060   42.8550 H   0  0  0  0  0  0  0  0  0  0  0  0
   36.2630   26.8350   41.5750 H   0  0  0  0  0  0  0  0  0  0  0  0
   36.5230   27.0800   43.4050 H   0  0  0  0  0  0  0  0  0  0  0  0
   38.3750   24.2780   41.1480 H   0  0  0  0  0  0  0  0  0  0  0  0
   37.1110   25.5300   40.6020 H   0  0  0  0  0  0  0  0  0  0  0  0
   39.9420   26.2400   41.5400 H   0  0  0  0  0  0  0  0  0  0  0  0
   39.4300   25.9420   39.8010 H   0  0  0  0  0  0  0  0  0  0  0  0
   40.1690   30.8840   41.2160 C   0  0  0  0  0  0  0  0  0  0  0  0
   39.2550   30.1220   40.5080 C   0  0  0  0  0  0  0  0  0  0  0  0
   38.1120   30.7900   40.0530 C   0  0  0  0  0  0  0  0  0  0  0  0
   37.9290   32.0980   40.2950 N   0  0  0  0  0  0  0  0  0  0  0  0
   38.8610   32.7830   40.9930 C   0  0  0  0  0  0  0  0  0  0  0  0
   39.9580   32.2050   41.4480 N   0  0  0  0  0  0  0  0  0  0  0  0
   38.7400   34.1610   41.2920 N   0  0  0  0  0  0  0  0  0  0  0  0
   41.0650   30.3450   41.5690 H   0  0  0  0  0  0  0  0  0  0  0  0
   39.0010   34.7710   40.4830 H   0  0  0  0  0  0  0  0  0  0  0  0
   38.4200   34.5150   42.2220 H   0  0  0  0  0  0  0  0  0  0  0  0
   35.8280   30.0300   39.9710 C   0  0  0  0  0  0  0  0  0  0  0  0
   37.0220   30.2600   39.2670 C   0  0  0  0  0  0  0  0  0  0  0  0
   36.9930   29.8670   37.9500 C   0  0  0  0  0  0  0  0  0  0  0  0
   37.8860   30.0060   37.3890 H   0  0  0  0  0  0  0  0  0  0  0  0
   35.9390   29.2980   37.3050 C   0  0  0  0  0  3  0  0  0  0  0  0
   34.7800   29.0720   37.9800 C   0  0  0  0  0  3  0  0  0  0  0  0
   34.7340   29.4450   39.3230 C   0  0  0  0  0  0  0  0  0  0  0  0
   35.7120   30.3810   41.3090 O   0  0  0  0  0  0  0  0  0  0  0  0
   35.8350   29.6840   42.0150 H   0  0  0  0  0  0  0  0  0  0  0  0
   33.5650   29.2350   40.0610 O   0  0  0  0  0  0  0  0  0  0  0  0
   32.8110   29.9220   39.8990 H   0  0  0  0  0  0  0  0  0  0  0  0
  1 24  1  0  0  0  0
  1  8  1  0  0  0  0
  2  3  1  0  0  0  0
  2  1  1  0  0  0  0
  3  1  1  0  0  0  0
  3  6  1  0  0  0  0
  4  2  1  0  0  0  0
  5  2  1  0  0  0  0
  7  3  1  0  0  0  0
  8 13  1  0  0  0  0
  8  9  1  0  0  0  0
  9 15  1  0  0  0  0
  9 10  1  0  0  0  0
  9 16  1  0  0  0  0
 10 11  1  0  0  0  0
 10 18  1  0  0  0  0
 12 11  1  0  0  0  0
 13 12  1  0  0  0  0
 13 21  1  0  0  0  0
 14  8  1  0  0  0  0
 17 10  1  0  0  0  0
 19 12  1  0  0  0  0
 20 12  1  0  0  0  0
 22 13  1  0  0  0  0
 23 28  1  0  0  0  0
 23 30  1  0  0  0  0
 24 23  2  0  0  0  0
 25 26  2  0  0  0  0
 25 24  1  0  0  0  0
 26 27  1  0  0  0  0
 27 29  1  0  0  0  0
 27 28  2  0  0  0  0
 29 32  1  0  0  0  0
 31 29  1  0  0  0  0
 33 40  1  0  0  0  0
 34 33  2  0  0  0  0
 34 25  1  0  0  0  0
 35 34  1  0  0  0  0
 36 35  1  0  0  0  0
 37 35  2  0  0  0  0
 37 38  1  0  0  0  0
 38 39  2  0  0  0  0
 39 33  1  0  0  0  0
 39 42  1  0  0  0  0
 40 41  1  0  0  0  0
 43 42  1  0  0  0  0
M  END
>  <minimizedAffinity>
-6.01767063

$$$$

 OpenBabel03242516153D

 43 46  0  0  0  0  0  0  0  0999 V2000
   37.6090   27.9380   42.3520 C   0  0  0  0  0  0  0  0  0  0  0  0
   38.3670   27.9490   43.6800 C   0  0  0  0  0  0  0  0  0  0  0  0
   36.9210   27.6950   43.6110 C   0  0  0  0  0  0  0  0  0  0  0  0
   38.7280   28.9320   44.0180 H   0  0  0  0  0  0  0  0  0  0  0  0
   39.0230   27.1210   43.9200 H   0  0  0  0  0  0  0  0  0  0  0  0
   36.5270   26.6430   43.7550 H   0  0  0  0  0  0  0  0  0  0  0  0
   36.3150   28.4060   44.1950 H   0  0  0  0  0  0  0  0  0  0  0  0
   37.9440   26.7590   41.4840 C   0  0  0  0  0  0  0  0  0  0  0  0
   37.5950   26.9250   40.0200 C   0  0  0  0  0  0  0  0  0  0  0  0
   38.1550   25.6750   39.3370 C   0  0  0  0  0  0  0  0  0  0  0  0
   37.2870   24.6260   39.6580 O   0  0  0  0  0  0  0  0  0  0  0  0
   37.5970   24.3630   41.0170 C   0  0  0  0  0  0  0  0  0  0  0  0
   37.1110   25.5250   41.8790 C   0  0  0  0  0  0  0  0  0  0  0  0
   39.0100   26.5120   41.5930 H   0  0  0  0  0  0  0  0  0  0  0  0
   38.1410   27.7630   39.5460 H   0  0  0  0  0  0  0  0  0  0  0  0
   36.5100   26.9400   39.8960 H   0  0  0  0  0  0  0  0  0  0  0  0
   39.1690   25.4570   39.6660 H   0  0  0  0  0  0  0  0  0  0  0  0
   38.0270   25.8180   38.2360 H   0  0  0  0  0  0  0  0  0  0  0  0
   37.1380   23.4260   41.3780 H   0  0  0  0  0  0  0  0  0  0  0  0
   38.7240   24.3430   41.0550 H   0  0  0  0  0  0  0  0  0  0  0  0
   36.0520   25.7020   41.6960 H   0  0  0  0  0  0  0  0  0  0  0  0
   37.3410   25.2370   42.9190 H   0  0  0  0  0  0  0  0  0  0  0  0
   36.2120   29.7750   41.3890 C   0  0  0  0  0  0  0  0  0  0  0  0
   37.4650   29.2650   41.6880 C   0  0  0  0  0  0  0  0  0  0  0  0
   38.5580   30.0770   41.3610 C   0  0  0  0  0  0  0  0  0  0  0  0
   38.3850   31.2810   40.7950 N   0  0  0  0  0  0  0  0  0  0  0  0
   37.1340   31.7190   40.5300 C   0  0  0  0  0  0  0  0  0  0  0  0
   36.0660   30.9970   40.8130 N   0  0  0  0  0  0  0  0  0  0  0  0
   36.8690   32.9740   39.9310 N   0  0  0  0  0  0  0  0  0  0  0  0
   35.3600   29.1260   41.6500 H   0  0  0  0  0  0  0  0  0  0  0  0
   36.9240   33.7640   40.6150 H   0  0  0  0  0  0  0  0  0  0  0  0
   36.6480   33.0840   38.9160 H   0  0  0  0  0  0  0  0  0  0  0  0
   40.5880   30.6700   42.5140 C   0  0  0  0  0  0  0  0  0  0  0  0
   39.9610   29.8180   41.5900 C   0  0  0  0  0  0  0  0  0  0  0  0
   40.8020   28.9160   40.9810 C   0  0  0  0  0  0  0  0  0  0  0  0
   40.3670   28.2670   40.2590 H   0  0  0  0  0  0  0  0  0  0  0  0
   42.1390   28.7920   41.2000 C   0  0  0  0  0  3  0  0  0  0  0  0
   42.7530   29.6140   42.0940 C   0  0  0  0  0  3  0  0  0  0  0  0
   41.9630   30.5560   42.7510 C   0  0  0  0  0  0  0  0  0  0  0  0
   39.8600   31.6270   43.2070 O   0  0  0  0  0  0  0  0  0  0  0  0
   39.8600   32.5750   42.8870 H   0  0  0  0  0  0  0  0  0  0  0  0
   42.5460   31.4230   43.6800 O   0  0  0  0  0  0  0  0  0  0  0  0
   42.7370   31.0130   44.6080 H   0  0  0  0  0  0  0  0  0  0  0  0
  1  3  1  0  0  0  0
  1  2  1  0  0  0  0
  2  5  1  0  0  0  0
  2  4  1  0  0  0  0
  3  2  1  0  0  0  0
  3  6  1  0  0  0  0
  3  7  1  0  0  0  0
  8 14  1  0  0  0  0
  8 13  1  0  0  0  0
  8  1  1  0  0  0  0
  9  8  1  0  0  0  0
 10 11  1  0  0  0  0
 10 17  1  0  0  0  0
 10  9  1  0  0  0  0
 11 12  1  0  0  0  0
 12 20  1  0  0  0  0
 12 19  1  0  0  0  0
 12 13  1  0  0  0  0
 13 22  1  0  0  0  0
 15  9  1  0  0  0  0
 16  9  1  0  0  0  0
 18 10  1  0  0  0  0
 21 13  1  0  0  0  0
 23 30  1  0  0  0  0
 23 24  1  0  0  0  0
 24  1  1  0  0  0  0
 25 34  1  0  0  0  0
 25 24  2  0  0  0  0
 26 25  1  0  0  0  0
 27 26  2  0  0  0  0
 27 28  1  0  0  0  0
 28 23  2  0  0  0  0
 29 27  1  0  0  0  0
 29 31  1  0  0  0  0
 32 29  1  0  0  0  0
 33 39  1  0  0  0  0
 33 40  1  0  0  0  0
 34 33  2  0  0  0  0
 35 37  2  0  0  0  0
 35 34  1  0  0  0  0
 36 35  1  0  0  0  0
 37 38  1  0  0  0  0
 38 39  2  0  0  0  0
 39 42  1  0  0  0  0
 41 40  1  0  0  0  0
 42 43  1  0  0  0  0
M  END
>  <minimizedAffinity>
-6.01163149

$$$$

 OpenBabel03242516153D

 43 46  0  0  0  0  0  0  0  0999 V2000
   36.1040   29.1220   40.3310 C   0  0  0  0  0  0  0  0  0  0  0  0
   34.5950   29.3120   40.1750 C   0  0  0  0  0  0  0  0  0  0  0  0
   35.3730   28.4730   39.2530 C   0  0  0  0  0  0  0  0  0  0  0  0
   34.2680   30.3120   39.8520 H   0  0  0  0  0  0  0  0  0  0  0  0
   33.9270   28.8230   40.8730 H   0  0  0  0  0  0  0  0  0  0  0  0
   35.3030   27.3450   39.3220 H   0  0  0  0  0  0  0  0  0  0  0  0
   35.3070   28.7890   38.1980 H   0  0  0  0  0  0  0  0  0  0  0  0
   36.4810   28.3000   41.5300 C   0  0  0  0  0  0  0  0  0  0  0  0
   37.6610   28.8280   42.3200 C   0  0  0  0  0  0  0  0  0  0  0  0
   37.7520   27.9180   43.5470 C   0  0  0  0  0  0  0  0  0  0  0  0
   38.3000   26.7090   43.1040 O   0  0  0  0  0  0  0  0  0  0  0  0
   37.2230   26.1150   42.3970 C   0  0  0  0  0  0  0  0  0  0  0  0
   36.9680   26.9010   41.1130 C   0  0  0  0  0  0  0  0  0  0  0  0
   35.6070   28.1860   42.1880 H   0  0  0  0  0  0  0  0  0  0  0  0
   37.4740   29.8350   42.7400 H   0  0  0  0  0  0  0  0  0  0  0  0
   38.5760   28.7240   41.7330 H   0  0  0  0  0  0  0  0  0  0  0  0
   36.7780   27.7610   44.0050 H   0  0  0  0  0  0  0  0  0  0  0  0
   38.5340   28.3500   44.2180 H   0  0  0  0  0  0  0  0  0  0  0  0
   37.4200   25.0590   42.1430 H   0  0  0  0  0  0  0  0  0  0  0  0
   36.3300   26.2440   43.0730 H   0  0  0  0  0  0  0  0  0  0  0  0
   37.8890   26.9710   40.5350 H   0  0  0  0  0  0  0  0  0  0  0  0
   36.1560   26.3620   40.5940 H   0  0  0  0  0  0  0  0  0  0  0  0
   36.7750   31.4950   40.7490 C   0  0  0  0  0  0  0  0  0  0  0  0
   36.9340   30.3230   40.0280 C   0  0  0  0  0  0  0  0  0  0  0  0
   37.9280   30.3330   39.0420 C   0  0  0  0  0  0  0  0  0  0  0  0
   38.6780   31.4250   38.8230 N   0  0  0  0  0  0  0  0  0  0  0  0
   38.4700   32.5360   39.5630 C   0  0  0  0  0  0  0  0  0  0  0  0
   37.5470   32.5850   40.5050 N   0  0  0  0  0  0  0  0  0  0  0  0
   39.2160   33.7260   39.3900 N   0  0  0  0  0  0  0  0  0  0  0  0
   35.9880   31.4730   41.5230 H   0  0  0  0  0  0  0  0  0  0  0  0
   40.1550   33.6810   39.8510 H   0  0  0  0  0  0  0  0  0  0  0  0
   38.8580   34.5490   38.8560 H   0  0  0  0  0  0  0  0  0  0  0  0
   37.7920   29.2890   36.8770 C   0  0  0  0  0  0  0  0  0  0  0  0
   38.3330   29.2530   38.1720 C   0  0  0  0  0  0  0  0  0  0  0  0
   39.1040   28.1460   38.4400 C   0  0  0  0  0  0  0  0  0  0  0  0
   39.5140   28.0740   39.4190 H   0  0  0  0  0  0  0  0  0  0  0  0
   39.3720   27.1270   37.5790 C   0  0  0  0  0  3  0  0  0  0  0  0
   38.8510   27.1550   36.3230 C   0  0  0  0  0  3  0  0  0  0  0  0
   38.0570   28.2480   35.9780 C   0  0  0  0  0  0  0  0  0  0  0  0
   36.9960   30.3490   36.4660 O   0  0  0  0  0  0  0  0  0  0  0  0
   36.0010   30.2560   36.4840 H   0  0  0  0  0  0  0  0  0  0  0  0
   37.4990   28.3240   34.6980 O   0  0  0  0  0  0  0  0  0  0  0  0
   38.1460   28.6250   33.9520 H   0  0  0  0  0  0  0  0  0  0  0  0
  1  8  1  0  0  0  0
  2  1  1  0  0  0  0
  2  5  1  0  0  0  0
  3  6  1  0  0  0  0
  3  2  1  0  0  0  0
  3  1  1  0  0  0  0
  4  2  1  0  0  0  0
  7  3  1  0  0  0  0
  8 14  1  0  0  0  0
  8  9  1  0  0  0  0
  9 15  1  0  0  0  0
  9 10  1  0  0  0  0
 10 17  1  0  0  0  0
 10 18  1  0  0  0  0
 11 10  1  0  0  0  0
 12 20  1  0  0  0  0
 12 11  1  0  0  0  0
 13  8  1  0  0  0  0
 13 12  1  0  0  0  0
 16  9  1  0  0  0  0
 19 12  1  0  0  0  0
 21 13  1  0  0  0  0
 22 13  1  0  0  0  0
 23 30  1  0  0  0  0
 24  1  1  0  0  0  0
 24 23  2  0  0  0  0
 25 24  1  0  0  0  0
 26 25  2  0  0  0  0
 26 27  1  0  0  0  0
 27 28  2  0  0  0  0
 28 23  1  0  0  0  0
 29 27  1  0  0  0  0
 29 31  1  0  0  0  0
 32 29  1  0  0  0  0
 33 34  1  0  0  0  0
 34 35  2  0  0  0  0
 34 25  1  0  0  0  0
 35 36  1  0  0  0  0
 37 35  1  0  0  0  0
 38 37  2  0  0  0  0
 39 38  1  0  0  0  0
 39 33  2  0  0  0  0
 40 41  1  0  0  0  0
 40 33  1  0  0  0  0
 42 39  1  0  0  0  0
 43 42  1  0  0  0  0
M  END
>  <minimizedAffinity>
-5.99947166

$$$$

 OpenBabel03242516153D

 43 46  0  0  0  0  0  0  0  0999 V2000
   37.8680   27.8670   42.5280 C   0  0  0  0  0  0  0  0  0  0  0  0
   36.6220   27.3690   43.2590 C   0  0  0  0  0  0  0  0  0  0  0  0
   37.3390   28.5820   43.6790 C   0  0  0  0  0  0  0  0  0  0  0  0
   36.7420   26.4410   43.8380 H   0  0  0  0  0  0  0  0  0  0  0  0
   35.6530   27.4850   42.7880 H   0  0  0  0  0  0  0  0  0  0  0  0
   36.8990   29.6020   43.4590 H   0  0  0  0  0  0  0  0  0  0  0  0
   37.7030   28.5470   44.7200 H   0  0  0  0  0  0  0  0  0  0  0  0
   37.5800   28.4110   41.1580 C   0  0  0  0  0  0  0  0  0  0  0  0
   38.8040   28.7900   40.3510 C   0  0  0  0  0  0  0  0  0  0  0  0
   38.2630   29.1710   38.9700 C   0  0  0  0  0  0  0  0  0  0  0  0
   37.6830   30.4370   39.1080 O   0  0  0  0  0  0  0  0  0  0  0  0
   36.4820   30.1590   39.8100 C   0  0  0  0  0  0  0  0  0  0  0  0
   36.8180   29.7470   41.2410 C   0  0  0  0  0  0  0  0  0  0  0  0
   36.9660   27.6910   40.5980 H   0  0  0  0  0  0  0  0  0  0  0  0
   39.4680   27.9260   40.1560 H   0  0  0  0  0  0  0  0  0  0  0  0
   39.2860   29.6630   40.7960 H   0  0  0  0  0  0  0  0  0  0  0  0
   37.5380   28.4460   38.6090 H   0  0  0  0  0  0  0  0  0  0  0  0
   39.1470   29.3390   38.3080 H   0  0  0  0  0  0  0  0  0  0  0  0
   35.8000   31.0270   39.8330 H   0  0  0  0  0  0  0  0  0  0  0  0
   36.0400   29.2670   39.2800 H   0  0  0  0  0  0  0  0  0  0  0  0
   37.4350   30.5120   41.7090 H   0  0  0  0  0  0  0  0  0  0  0  0
   35.8450   29.5920   41.7390 H   0  0  0  0  0  0  0  0  0  0  0  0
   40.1450   27.4480   43.4750 C   0  0  0  0  0  0  0  0  0  0  0  0
   39.0860   27.0210   42.6920 C   0  0  0  0  0  0  0  0  0  0  0  0
   39.2190   25.7560   42.1070 C   0  0  0  0  0  0  0  0  0  0  0  0
   40.3170   25.0100   42.3060 N   0  0  0  0  0  0  0  0  0  0  0  0
   41.3140   25.4870   43.0830 C   0  0  0  0  0  0  0  0  0  0  0  0
   41.2450   26.6730   43.6590 N   0  0  0  0  0  0  0  0  0  0  0  0
   42.5030   24.7640   43.3380 N   0  0  0  0  0  0  0  0  0  0  0  0
   40.0270   28.4460   43.9300 H   0  0  0  0  0  0  0  0  0  0  0  0
   42.3760   24.0310   44.0750 H   0  0  0  0  0  0  0  0  0  0  0  0
   43.4000   24.9490   42.8360 H   0  0  0  0  0  0  0  0  0  0  0  0
   38.5500   25.0490   39.9040 C   0  0  0  0  0  0  0  0  0  0  0  0
   38.2670   25.0510   41.2800 C   0  0  0  0  0  0  0  0  0  0  0  0
   37.0780   24.4490   41.6200 C   0  0  0  0  0  0  0  0  0  0  0  0
   36.8190   24.4490   42.6520 H   0  0  0  0  0  0  0  0  0  0  0  0
   36.1950   23.8730   40.7600 C   0  0  0  0  0  3  0  0  0  0  0  0
   36.4630   23.8670   39.4270 C   0  0  0  0  0  3  0  0  0  0  0  0
   37.6510   24.4620   39.0050 C   0  0  0  0  0  0  0  0  0  0  0  0
   39.7170   25.6190   39.4160 O   0  0  0  0  0  0  0  0  0  0  0  0
   39.6940   26.5450   39.0390 H   0  0  0  0  0  0  0  0  0  0  0  0
   37.9730   24.4810   37.6440 O   0  0  0  0  0  0  0  0  0  0  0  0
   38.3430   23.5940   37.2660 H   0  0  0  0  0  0  0  0  0  0  0  0
  1 24  1  0  0  0  0
  1  2  1  0  0  0  0
  1  3  1  0  0  0  0
  2  3  1  0  0  0  0
  2  4  1  0  0  0  0
  3  7  1  0  0  0  0
  5  2  1  0  0  0  0
  6  3  1  0  0  0  0
  8 13  1  0  0  0  0
  8  1  1  0  0  0  0
  9 16  1  0  0  0  0
  9  8  1  0  0  0  0
 10 11  1  0  0  0  0
 10  9  1  0  0  0  0
 11 12  1  0  0  0  0
 12 19  1  0  0  0  0
 12 13  1  0  0  0  0
 13 21  1  0  0  0  0
 13 22  1  0  0  0  0
 14  8  1  0  0  0  0
 15  9  1  0  0  0  0
 17 10  1  0  0  0  0
 18 10  1  0  0  0  0
 20 12  1  0  0  0  0
 23 28  1  0  0  0  0
 23 30  1  0  0  0  0
 24 23  2  0  0  0  0
 25 26  2  0  0  0  0
 25 24  1  0  0  0  0
 26 27  1  0  0  0  0
 27 29  1  0  0  0  0
 27 28  2  0  0  0  0
 29 31  1  0  0  0  0
 32 29  1  0  0  0  0
 33 34  1  0  0  0  0
 34 35  2  0  0  0  0
 34 25  1  0  0  0  0
 35 36  1  0  0  0  0
 37 35  1  0  0  0  0
 38 37  2  0  0  0  0
 39 38  1  0  0  0  0
 39 33  2  0  0  0  0
 40 33  1  0  0  0  0
 41 40  1  0  0  0  0
 42 39  1  0  0  0  0
 43 42  1  0  0  0  0
M  END
>  <minimizedAffinity>
-5.99826622

$$$$

 OpenBabel03242516153D

 43 46  0  0  0  0  0  0  0  0999 V2000
   38.0790   27.4160   39.5750 C   0  0  0  0  0  0  0  0  0  0  0  0
   39.1590   26.4620   39.0660 C   0  0  0  0  0  0  0  0  0  0  0  0
   39.2830   27.9200   38.9320 C   0  0  0  0  0  0  0  0  0  0  0  0
   38.8910   25.8580   38.1860 H   0  0  0  0  0  0  0  0  0  0  0  0
   39.7960   25.9570   39.7820 H   0  0  0  0  0  0  0  0  0  0  0  0
   39.9930   28.4900   39.6060 H   0  0  0  0  0  0  0  0  0  0  0  0
   39.3980   28.2640   37.8910 H   0  0  0  0  0  0  0  0  0  0  0  0
   37.9930   27.4770   41.0730 C   0  0  0  0  0  0  0  0  0  0  0  0
   36.5980   27.6870   41.6240 C   0  0  0  0  0  0  0  0  0  0  0  0
   36.7520   27.5680   43.1430 C   0  0  0  0  0  0  0  0  0  0  0  0
   37.3480   28.7580   43.5740 O   0  0  0  0  0  0  0  0  0  0  0  0
   38.6930   28.6130   43.1460 C   0  0  0  0  0  0  0  0  0  0  0  0
   38.7490   28.7000   41.6230 C   0  0  0  0  0  0  0  0  0  0  0  0
   38.4360   26.5670   41.5040 H   0  0  0  0  0  0  0  0  0  0  0  0
   35.9070   26.8660   41.3540 H   0  0  0  0  0  0  0  0  0  0  0  0
   36.2520   28.6940   41.3810 H   0  0  0  0  0  0  0  0  0  0  0  0
   37.3560   26.7070   43.4190 H   0  0  0  0  0  0  0  0  0  0  0  0
   35.7250   27.5950   43.5790 H   0  0  0  0  0  0  0  0  0  0  0  0
   39.3560   29.3820   43.5790 H   0  0  0  0  0  0  0  0  0  0  0  0
   38.9780   27.5650   43.4500 H   0  0  0  0  0  0  0  0  0  0  0  0
   38.2780   29.6240   41.2900 H   0  0  0  0  0  0  0  0  0  0  0  0
   39.8190   28.6260   41.3630 H   0  0  0  0  0  0  0  0  0  0  0  0
   36.1460   26.2050   38.5490 C   0  0  0  0  0  0  0  0  0  0  0  0
   36.7990   27.3980   38.8100 C   0  0  0  0  0  0  0  0  0  0  0  0
   36.1720   28.5620   38.3470 C   0  0  0  0  0  0  0  0  0  0  0  0
   35.0020   28.5060   37.6910 N   0  0  0  0  0  0  0  0  0  0  0  0
   34.4180   27.3080   37.4710 C   0  0  0  0  0  0  0  0  0  0  0  0
   34.9620   26.1780   37.8820 N   0  0  0  0  0  0  0  0  0  0  0  0
   33.1880   27.1670   36.7850 N   0  0  0  0  0  0  0  0  0  0  0  0
   36.6500   25.2970   38.9190 H   0  0  0  0  0  0  0  0  0  0  0  0
   32.3630   27.3760   37.3950 H   0  0  0  0  0  0  0  0  0  0  0  0
   33.1250   26.8870   35.7810 H   0  0  0  0  0  0  0  0  0  0  0  0
   37.2840   30.4790   37.4070 C   0  0  0  0  0  0  0  0  0  0  0  0
   36.6030   29.9310   38.5060 C   0  0  0  0  0  0  0  0  0  0  0  0
   36.5230   30.7600   39.6000 C   0  0  0  0  0  0  0  0  0  0  0  0
   36.0320   30.3720   40.4600 H   0  0  0  0  0  0  0  0  0  0  0  0
   37.0310   32.0190   39.6920 C   0  0  0  0  0  3  0  0  0  0  0  0
   37.6910   32.5560   38.6320 C   0  0  0  0  0  3  0  0  0  0  0  0
   37.8140   31.7730   37.4840 C   0  0  0  0  0  0  0  0  0  0  0  0
   37.4380   29.7570   36.2320 O   0  0  0  0  0  0  0  0  0  0  0  0
   38.2970   29.2740   36.0580 H   0  0  0  0  0  0  0  0  0  0  0  0
   38.4830   32.2800   36.3670 O   0  0  0  0  0  0  0  0  0  0  0  0
   37.9410   32.9450   35.7920 H   0  0  0  0  0  0  0  0  0  0  0  0
  1  8  1  0  0  0  0
  2  1  1  0  0  0  0
  2  5  1  0  0  0  0
  3  2  1  0  0  0  0
  3  1  1  0  0  0  0
  3  6  1  0  0  0  0
  4  2  1  0  0  0  0
  7  3  1  0  0  0  0
  8 14  1  0  0  0  0
  8 13  1  0  0  0  0
  8  9  1  0  0  0  0
  9 10  1  0  0  0  0
 10 17  1  0  0  0  0
 10 11  1  0  0  0  0
 10 18  1  0  0  0  0
 12 20  1  0  0  0  0
 12 11  1  0  0  0  0
 12 19  1  0  0  0  0
 13 12  1  0  0  0  0
 15  9  1  0  0  0  0
 16  9  1  0  0  0  0
 21 13  1  0  0  0  0
 22 13  1  0  0  0  0
 23 24  1  0  0  0  0
 23 30  1  0  0  0  0
 24  1  1  0  0  0  0
 25 34  1  0  0  0  0
 25 24  2  0  0  0  0
 26 25  1  0  0  0  0
 27 26  2  0  0  0  0
 27 28  1  0  0  0  0
 28 23  2  0  0  0  0
 29 31  1  0  0  0  0
 29 27  1  0  0  0  0
 32 29  1  0  0  0  0
 33 39  2  0  0  0  0
 33 34  1  0  0  0  0
 34 35  2  0  0  0  0
 35 37  1  0  0  0  0
 35 36  1  0  0  0  0
 38 37  2  0  0  0  0
 39 38  1  0  0  0  0
 40 33  1  0  0  0  0
 41 40  1  0  0  0  0
 42 39  1  0  0  0  0
 43 42  1  0  0  0  0
M  END
>  <minimizedAffinity>
-5.99531126

$$$$

 OpenBabel03242516153D

 43 46  0  0  0  0  0  0  0  0999 V2000
   37.4580   29.6210   38.2210 C   0  0  0  0  0  0  0  0  0  0  0  0
   36.0690   29.0440   38.4890 C   0  0  0  0  0  0  0  0  0  0  0  0
   36.3850   29.7680   37.2490 C   0  0  0  0  0  0  0  0  0  0  0  0
   35.4830   29.5460   39.2740 H   0  0  0  0  0  0  0  0  0  0  0  0
   35.9230   27.9720   38.4340 H   0  0  0  0  0  0  0  0  0  0  0  0
   36.5230   29.1950   36.2820 H   0  0  0  0  0  0  0  0  0  0  0  0
   35.7510   30.6520   37.0750 H   0  0  0  0  0  0  0  0  0  0  0  0
   38.5030   28.5720   37.9740 C   0  0  0  0  0  0  0  0  0  0  0  0
   39.9180   29.0970   37.8450 C   0  0  0  0  0  0  0  0  0  0  0  0
   40.7960   27.8470   37.7460 C   0  0  0  0  0  0  0  0  0  0  0  0
   40.6230   27.3430   36.4520 O   0  0  0  0  0  0  0  0  0  0  0  0
   39.3260   26.7680   36.5070 C   0  0  0  0  0  0  0  0  0  0  0  0
   38.2870   27.8810   36.6150 C   0  0  0  0  0  0  0  0  0  0  0  0
   38.4550   27.8100   38.7660 H   0  0  0  0  0  0  0  0  0  0  0  0
   40.2680   29.6050   38.7630 H   0  0  0  0  0  0  0  0  0  0  0  0
   40.0170   29.6720   36.9210 H   0  0  0  0  0  0  0  0  0  0  0  0
   40.5240   27.1050   38.4940 H   0  0  0  0  0  0  0  0  0  0  0  0
   41.8580   28.1900   37.7730 H   0  0  0  0  0  0  0  0  0  0  0  0
   39.1050   26.1480   35.6220 H   0  0  0  0  0  0  0  0  0  0  0  0
   39.3140   26.1800   37.4700 H   0  0  0  0  0  0  0  0  0  0  0  0
   38.4200   28.5900   35.7990 H   0  0  0  0  0  0  0  0  0  0  0  0
   37.3080   27.3720   36.6070 H   0  0  0  0  0  0  0  0  0  0  0  0
   37.8110   32.0750   38.5530 C   0  0  0  0  0  0  0  0  0  0  0  0
   37.8390   30.7890   39.0660 C   0  0  0  0  0  0  0  0  0  0  0  0
   38.2090   30.6670   40.4120 C   0  0  0  0  0  0  0  0  0  0  0  0
   38.5120   31.7470   41.1500 N   0  0  0  0  0  0  0  0  0  0  0  0
   38.4640   32.9740   40.5860 C   0  0  0  0  0  0  0  0  0  0  0  0
   38.1240   33.1500   39.3230 N   0  0  0  0  0  0  0  0  0  0  0  0
   38.7720   34.1580   41.2960 N   0  0  0  0  0  0  0  0  0  0  0  0
   37.5190   32.1570   37.4930 H   0  0  0  0  0  0  0  0  0  0  0  0
   37.9800   34.4820   41.8990 H   0  0  0  0  0  0  0  0  0  0  0  0
   39.6940   34.6430   41.2200 H   0  0  0  0  0  0  0  0  0  0  0  0
   37.1420   29.1670   41.9640 C   0  0  0  0  0  0  0  0  0  0  0  0
   38.2880   29.4650   41.2090 C   0  0  0  0  0  0  0  0  0  0  0  0
   39.3440   28.6070   41.4090 C   0  0  0  0  0  0  0  0  0  0  0  0
   40.2370   28.8120   40.8700 H   0  0  0  0  0  0  0  0  0  0  0  0
   39.3590   27.5350   42.2470 C   0  0  0  0  0  3  0  0  0  0  0  0
   38.2530   27.2400   42.9810 C   0  0  0  0  0  3  0  0  0  0  0  0
   37.1410   28.0680   42.8320 C   0  0  0  0  0  0  0  0  0  0  0  0
   35.9990   29.9470   41.8610 O   0  0  0  0  0  0  0  0  0  0  0  0
   35.8200   30.6540   42.5450 H   0  0  0  0  0  0  0  0  0  0  0  0
   35.9780   27.8070   43.5640 O   0  0  0  0  0  0  0  0  0  0  0  0
   35.3910   27.0400   43.2000 H   0  0  0  0  0  0  0  0  0  0  0  0
  1  2  1  0  0  0  0
  1 24  1  0  0  0  0
  2  4  1  0  0  0  0
  3  1  1  0  0  0  0
  3  2  1  0  0  0  0
  5  2  1  0  0  0  0
  6  3  1  0  0  0  0
  7  3  1  0  0  0  0
  8  1  1  0  0  0  0
  8 14  1  0  0  0  0
  9  8  1  0  0  0  0
  9 15  1  0  0  0  0
 10 18  1  0  0  0  0
 10  9  1  0  0  0  0
 10 17  1  0  0  0  0
 11 12  1  0  0  0  0
 11 10  1  0  0  0  0
 12 13  1  0  0  0  0
 12 20  1  0  0  0  0
 13  8  1  0  0  0  0
 16  9  1  0  0  0  0
 19 12  1  0  0  0  0
 21 13  1  0  0  0  0
 22 13  1  0  0  0  0
 23 24  2  0  0  0  0
 23 28  1  0  0  0  0
 24 25  1  0  0  0  0
 25 26  2  0  0  0  0
 25 34  1  0  0  0  0
 27 26  1  0  0  0  0
 27 29  1  0  0  0  0
 28 27  2  0  0  0  0
 29 31  1  0  0  0  0
 30 23  1  0  0  0  0
 32 29  1  0  0  0  0
 33 39  1  0  0  0  0
 34 35  1  0  0  0  0
 34 33  2  0  0  0  0
 35 37  2  0  0  0  0
 36 35  1  0  0  0  0
 37 38  1  0  0  0  0
 39 38  2  0  0  0  0
 39 42  1  0  0  0  0
 40 33  1  0  0  0  0
 40 41  1  0  0  0  0
 43 42  1  0  0  0  0
M  END
>  <minimizedAffinity>
-5.9750576

$$$$

 OpenBabel03242516153D

 43 46  0  0  0  0  0  0  0  0999 V2000
   38.3260   27.7720   42.2270 C   0  0  0  0  0  0  0  0  0  0  0  0
   37.9360   27.4980   43.6790 C   0  0  0  0  0  0  0  0  0  0  0  0
   36.9620   27.4090   42.5820 C   0  0  0  0  0  0  0  0  0  0  0  0
   37.9210   28.3730   44.3460 H   0  0  0  0  0  0  0  0  0  0  0  0
   38.2630   26.5780   44.1490 H   0  0  0  0  0  0  0  0  0  0  0  0
   36.6170   26.3950   42.2140 H   0  0  0  0  0  0  0  0  0  0  0  0
   36.0960   28.0810   42.6990 H   0  0  0  0  0  0  0  0  0  0  0  0
   39.2140   26.7130   41.6380 C   0  0  0  0  0  0  0  0  0  0  0  0
   40.3010   27.2310   40.7190 C   0  0  0  0  0  0  0  0  0  0  0  0
   41.1420   26.0000   40.3710 C   0  0  0  0  0  0  0  0  0  0  0  0
   40.3980   25.2610   39.4460 O   0  0  0  0  0  0  0  0  0  0  0  0
   39.3800   24.6840   40.2470 C   0  0  0  0  0  0  0  0  0  0  0  0
   38.4190   25.7780   40.7070 C   0  0  0  0  0  0  0  0  0  0  0  0
   39.6560   26.1120   42.4450 H   0  0  0  0  0  0  0  0  0  0  0  0
   41.0070   27.9080   41.2370 H   0  0  0  0  0  0  0  0  0  0  0  0
   39.8560   27.6260   39.8030 H   0  0  0  0  0  0  0  0  0  0  0  0
   41.3690   25.4060   41.2540 H   0  0  0  0  0  0  0  0  0  0  0  0
   42.0280   26.3620   39.7940 H   0  0  0  0  0  0  0  0  0  0  0  0
   38.8120   23.9060   39.7080 H   0  0  0  0  0  0  0  0  0  0  0  0
   39.9200   24.2850   41.1540 H   0  0  0  0  0  0  0  0  0  0  0  0
   38.0430   26.3240   39.8440 H   0  0  0  0  0  0  0  0  0  0  0  0
   37.6340   25.2580   41.2830 H   0  0  0  0  0  0  0  0  0  0  0  0
   39.5720   29.8980   42.6550 C   0  0  0  0  0  0  0  0  0  0  0  0
   38.6420   29.1940   41.9080 C   0  0  0  0  0  0  0  0  0  0  0  0
   38.0580   29.8820   40.8380 C   0  0  0  0  0  0  0  0  0  0  0  0
   38.3940   31.1520   40.5620 N   0  0  0  0  0  0  0  0  0  0  0  0
   39.3100   31.7810   41.3310 C   0  0  0  0  0  0  0  0  0  0  0  0
   39.8930   31.1830   42.3540 N   0  0  0  0  0  0  0  0  0  0  0  0
   39.7140   33.1180   41.1070 N   0  0  0  0  0  0  0  0  0  0  0  0
   40.0240   29.3440   43.4950 H   0  0  0  0  0  0  0  0  0  0  0  0
   40.4130   33.2010   40.3330 H   0  0  0  0  0  0  0  0  0  0  0  0
   39.3450   33.9240   41.6600 H   0  0  0  0  0  0  0  0  0  0  0  0
   35.7490   29.6360   40.1990 C   0  0  0  0  0  0  0  0  0  0  0  0
   37.0950   29.3900   39.8800 C   0  0  0  0  0  0  0  0  0  0  0  0
   37.2850   28.6440   38.7410 C   0  0  0  0  0  0  0  0  0  0  0  0
   38.2910   28.4190   38.4780 H   0  0  0  0  0  0  0  0  0  0  0  0
   36.3090   28.1500   37.9330 C   0  0  0  0  0  3  0  0  0  0  0  0
   35.0040   28.3840   38.2350 C   0  0  0  0  0  3  0  0  0  0  0  0
   34.7320   29.1340   39.3790 C   0  0  0  0  0  0  0  0  0  0  0  0
   35.4070   30.3800   41.3200 O   0  0  0  0  0  0  0  0  0  0  0  0
   35.1410   29.9100   42.1620 H   0  0  0  0  0  0  0  0  0  0  0  0
   33.4060   29.4030   39.7330 O   0  0  0  0  0  0  0  0  0  0  0  0
   32.9500   30.1570   39.1930 H   0  0  0  0  0  0  0  0  0  0  0  0
  1  3  1  0  0  0  0
  1  2  1  0  0  0  0
  2  5  1  0  0  0  0
  2  4  1  0  0  0  0
  3  7  1  0  0  0  0
  3  2  1  0  0  0  0
  6  3  1  0  0  0  0
  8  1  1  0  0  0  0
  8 14  1  0  0  0  0
  9 15  1  0  0  0  0
  9  8  1  0  0  0  0
 10  9  1  0  0  0  0
 10 17  1  0  0  0  0
 11 12  1  0  0  0  0
 11 10  1  0  0  0  0
 12 13  1  0  0  0  0
 12 20  1  0  0  0  0
 13 22  1  0  0  0  0
 13  8  1  0  0  0  0
 16  9  1  0  0  0  0
 18 10  1  0  0  0  0
 19 12  1  0  0  0  0
 21 13  1  0  0  0  0
 23 30  1  0  0  0  0
 24  1  1  0  0  0  0
 24 23  2  0  0  0  0
 25 24  1  0  0  0  0
 26 25  2  0  0  0  0
 26 27  1  0  0  0  0
 27 28  2  0  0  0  0
 28 23  1  0  0  0  0
 29 27  1  0  0  0  0
 29 32  1  0  0  0  0
 31 29  1  0  0  0  0
 33 40  1  0  0  0  0
 34 33  1  0  0  0  0
 34 25  1  0  0  0  0
 35 34  2  0  0  0  0
 36 35  1  0  0  0  0
 37 38  2  0  0  0  0
 37 35  1  0  0  0  0
 38 39  1  0  0  0  0
 39 42  1  0  0  0  0
 39 33  2  0  0  0  0
 40 41  1  0  0  0  0
 43 42  1  0  0  0  0
M  END
>  <minimizedAffinity>
-5.9355278

$$$$

 OpenBabel03242516153D

 43 46  0  0  0  0  0  0  0  0999 V2000
   37.4600   27.1860   42.3520 C   0  0  0  0  0  0  0  0  0  0  0  0
   36.6000   27.4110   43.5960 C   0  0  0  0  0  0  0  0  0  0  0  0
   36.3230   28.0930   42.3230 C   0  0  0  0  0  0  0  0  0  0  0  0
   37.0770   27.9690   44.4150 H   0  0  0  0  0  0  0  0  0  0  0  0
   35.9220   26.6300   43.9170 H   0  0  0  0  0  0  0  0  0  0  0  0
   35.4500   27.7590   41.6830 H   0  0  0  0  0  0  0  0  0  0  0  0
   36.3360   29.1930   42.3940 H   0  0  0  0  0  0  0  0  0  0  0  0
   37.2960   25.8190   41.7530 C   0  0  0  0  0  0  0  0  0  0  0  0
   38.5870   25.0540   41.5460 C   0  0  0  0  0  0  0  0  0  0  0  0
   38.1500   23.6650   41.0700 C   0  0  0  0  0  0  0  0  0  0  0  0
   37.7570   23.8100   39.7360 O   0  0  0  0  0  0  0  0  0  0  0  0
   36.5070   24.4720   39.8440 C   0  0  0  0  0  0  0  0  0  0  0  0
   36.7350   25.9040   40.3210 C   0  0  0  0  0  0  0  0  0  0  0  0
   36.6010   25.2280   42.3670 H   0  0  0  0  0  0  0  0  0  0  0  0
   39.1230   24.8620   42.4950 H   0  0  0  0  0  0  0  0  0  0  0  0
   39.1770   25.5280   40.7590 H   0  0  0  0  0  0  0  0  0  0  0  0
   37.3380   23.2700   41.6760 H   0  0  0  0  0  0  0  0  0  0  0  0
   39.0690   23.0310   41.0250 H   0  0  0  0  0  0  0  0  0  0  0  0
   35.9580   24.4920   38.8860 H   0  0  0  0  0  0  0  0  0  0  0  0
   35.9560   23.9140   40.6550 H   0  0  0  0  0  0  0  0  0  0  0  0
   37.4420   26.4040   39.6610 H   0  0  0  0  0  0  0  0  0  0  0  0
   35.7350   26.3720   40.3390 H   0  0  0  0  0  0  0  0  0  0  0  0
   39.7690   27.2440   43.3120 C   0  0  0  0  0  0  0  0  0  0  0  0
   38.8390   27.7490   42.4190 C   0  0  0  0  0  0  0  0  0  0  0  0
   39.2830   28.7790   41.5800 C   0  0  0  0  0  0  0  0  0  0  0  0
   40.5430   29.2360   41.6480 N   0  0  0  0  0  0  0  0  0  0  0  0
   41.4000   28.6970   42.5430 C   0  0  0  0  0  0  0  0  0  0  0  0
   41.0380   27.7260   43.3600 N   0  0  0  0  0  0  0  0  0  0  0  0
   42.7420   29.1270   42.6770 N   0  0  0  0  0  0  0  0  0  0  0  0
   39.4060   26.4340   43.9680 H   0  0  0  0  0  0  0  0  0  0  0  0
   43.3680   28.7220   41.9430 H   0  0  0  0  0  0  0  0  0  0  0  0
   43.0580   29.7780   43.4310 H   0  0  0  0  0  0  0  0  0  0  0  0
   38.1300   30.7650   40.8560 C   0  0  0  0  0  0  0  0  0  0  0  0
   38.5480   29.4620   40.5410 C   0  0  0  0  0  0  0  0  0  0  0  0
   38.1210   29.0050   39.3160 C   0  0  0  0  0  0  0  0  0  0  0  0
   38.4010   28.0130   39.0500 H   0  0  0  0  0  0  0  0  0  0  0  0
   37.3580   29.6930   38.4240 C   0  0  0  0  0  3  0  0  0  0  0  0
   36.9490   30.9550   38.7230 C   0  0  0  0  0  3  0  0  0  0  0  0
   37.3430   31.4870   39.9500 C   0  0  0  0  0  0  0  0  0  0  0  0
   38.4900   31.3570   42.0590 O   0  0  0  0  0  0  0  0  0  0  0  0
   37.8430   31.3570   42.8220 H   0  0  0  0  0  0  0  0  0  0  0  0
   36.9500   32.7810   40.3040 O   0  0  0  0  0  0  0  0  0  0  0  0
   37.4880   33.5430   39.8600 H   0  0  0  0  0  0  0  0  0  0  0  0
  1 24  1  0  0  0  0
  1  2  1  0  0  0  0
  2  5  1  0  0  0  0
  2  4  1  0  0  0  0
  3  1  1  0  0  0  0
  3  7  1  0  0  0  0
  3  2  1  0  0  0  0
  6  3  1  0  0  0  0
  8  1  1  0  0  0  0
  8 14  1  0  0  0  0
  9  8  1  0  0  0  0
  9 15  1  0  0  0  0
 10  9  1  0  0  0  0
 10 17  1  0  0  0  0
 11 12  1  0  0  0  0
 11 10  1  0  0  0  0
 12 13  1  0  0  0  0
 12 20  1  0  0  0  0
 13 22  1  0  0  0  0
 13  8  1  0  0  0  0
 16  9  1  0  0  0  0
 18 10  1  0  0  0  0
 19 12  1  0  0  0  0
 21 13  1  0  0  0  0
 23 28  1  0  0  0  0
 23 30  1  0  0  0  0
 24 23  2  0  0  0  0
 25 26  2  0  0  0  0
 25 24  1  0  0  0  0
 26 27  1  0  0  0  0
 27 29  1  0  0  0  0
 27 28  2  0  0  0  0
 29 32  1  0  0  0  0
 31 29  1  0  0  0  0
 33 40  1  0  0  0  0
 34 33  1  0  0  0  0
 34 25  1  0  0  0  0
 35 34  2  0  0  0  0
 36 35  1  0  0  0  0
 37 38  2  0  0  0  0
 37 35  1  0  0  0  0
 38 39  1  0  0  0  0
 39 42  1  0  0  0  0
 39 33  2  0  0  0  0
 40 41  1  0  0  0  0
 43 42  1  0  0  0  0
M  END
>  <minimizedAffinity>
-5.76033926

$$$$
