
 OpenBabel03242513273D

 32 34  0  0  0  0  0  0  0  0999 V2000
   46.4250   34.1000   41.1810 C   0  0  0  0  0  0  0  0  0  0  0  0
   46.9020   34.8370   42.2500 C   0  0  0  0  0  0  0  0  0  0  0  0
   48.1020   35.4770   42.0720 C   0  0  0  0  0  0  0  0  0  0  0  0
   48.8120   35.3980   40.8880 C   0  0  0  0  0  0  0  0  0  0  0  0
   48.3350   34.6740   39.8500 C   0  0  0  0  0  0  0  0  0  0  0  0
   47.1150   33.9950   39.9640 C   0  0  0  0  0  0  0  0  0  0  0  0
   48.5120   36.0640   42.8810 H   0  0  0  0  0  0  0  0  0  0  0  0
   49.7540   35.9230   40.8030 H   0  0  0  0  0  0  0  0  0  0  0  0
   48.8770   34.6160   38.9310 H   0  0  0  0  0  0  0  0  0  0  0  0
   44.4560   35.9460   44.8850 C   0  0  0  0  0  0  0  0  0  0  0  0
   45.2080   35.9140   43.7010 C   0  0  0  0  0  0  0  0  0  0  0  0
   46.1240   34.8860   43.4540 C   0  0  0  0  0  0  0  0  0  0  0  0
   46.2170   33.9590   44.4240 N   0  0  0  0  0  0  0  0  0  0  0  0
   45.4920   33.9890   45.5660 C   0  0  0  0  0  0  0  0  0  0  0  0
   44.6210   34.9740   45.7920 N   0  0  0  0  0  0  0  0  0  0  0  0
   43.8030   36.8120   44.8980 H   0  0  0  0  0  0  0  0  0  0  0  0
   45.1420   36.6580   42.9080 H   0  0  0  0  0  0  0  0  0  0  0  0
   45.5770   33.2360   46.3380 H   0  0  0  0  0  0  0  0  0  0  0  0
   45.2160   33.4360   41.3170 O   0  0  0  0  0  0  0  0  0  0  0  0
   44.9750   32.8910   42.1390 H   0  0  0  0  0  0  0  0  0  0  0  0
   46.5420   33.2320   38.9730 O   0  0  0  0  0  0  0  0  0  0  0  0
   47.7380   33.3220   36.7710 C   0  0  0  0  0  0  0  0  0  0  0  0
   47.2450   32.7250   37.9040 C   0  0  0  0  0  0  0  0  0  0  0  0
   47.4640   31.3530   38.0560 C   0  0  0  0  0  0  0  0  0  0  0  0
   47.1350   30.7360   38.8980 H   0  0  0  0  0  0  0  0  0  0  0  0
   48.1510   30.6100   37.1090 C   0  0  0  0  0  0  0  0  0  0  0  0
   48.6370   31.2470   35.9740 C   0  0  0  0  0  0  0  0  0  0  0  0
   48.4120   32.5810   35.8470 C   0  0  0  0  0  0  0  0  0  0  0  0
   47.4750   34.6850   36.7050 O   0  0  0  0  0  0  0  0  0  0  0  0
   47.6290   35.2080   35.8560 H   0  0  0  0  0  0  0  0  0  0  0  0
   48.8830   33.2480   34.7280 O   0  0  0  0  0  0  0  0  0  0  0  0
   49.5810   32.8590   34.1090 H   0  0  0  0  0  0  0  0  0  0  0  0
  1 19  1  0  0  0  0
  1  2  1  0  0  0  0
  2 12  1  0  0  0  0
  3  2  2  0  0  0  0
  3  7  1  0  0  0  0
  4  3  1  0  0  0  0
  5  6  1  0  0  0  0
  5  4  2  0  0  0  0
  6  1  2  0  0  0  0
  8  4  1  0  0  0  0
  9  5  1  0  0  0  0
 10 16  1  0  0  0  0
 10 15  1  0  0  0  0
 11 10  2  0  0  0  0
 12 11  1  0  0  0  0
 12 13  2  0  0  0  0
 13 14  1  0  0  0  0
 14 15  2  0  0  0  0
 14 18  1  0  0  0  0
 17 11  1  0  0  0  0
 19 20  1  0  0  0  0
 21  6  1  0  0  0  0
 22 23  1  0  0  0  0
 23 24  2  0  0  0  0
 23 21  1  0  0  0  0
 24 25  1  0  0  0  0
 26 24  1  0  0  0  0
 27 26  2  0  0  0  0
 28 27  1  0  0  0  0
 28 22  2  0  0  0  0
 29 22  1  0  0  0  0
 30 29  1  0  0  0  0
 31 28  1  0  0  0  0
 32 31  1  0  0  0  0
M  END
>  <minimizedAffinity>
-6.47361374

>  <minimizedRMSD>
0.75343442

$$$$
