
 OpenBabel03242522593D

 33 35  0  0  0  0  0  0  0  0999 V2000
   45.1180   33.7160   46.9170 C   0  0  0  0  0  0  0  0  0  0  0  0
   45.4100   34.1500   45.6250 C   0  0  0  0  0  0  0  0  0  0  0  0
   46.1280   33.3950   44.7250 C   0  0  0  0  0  0  0  0  0  0  0  0
   46.5320   32.1910   45.1870 N   0  0  0  0  0  0  0  0  0  0  0  0
   46.2640   31.7480   46.4300 C   0  0  0  0  0  0  0  0  0  0  0  0
   45.5590   32.5090   47.2900 N   0  0  0  0  0  0  0  0  0  0  0  0
   44.5490   34.3710   47.5650 H   0  0  0  0  0  0  0  0  0  0  0  0
   45.0610   35.1300   45.3020 H   0  0  0  0  0  0  0  0  0  0  0  0
   44.1430   32.6030   42.6580 Cl  0  0  0  0  0  0  0  0  0  0  0  0
   45.6010   33.5160   42.3660 C   0  0  0  0  0  0  0  0  0  0  0  0
   46.4440   33.8300   43.3680 C   0  0  0  0  0  0  0  0  0  0  0  0
   47.5750   34.5570   43.0360 C   0  0  0  0  0  0  0  0  0  0  0  0
   47.8370   34.9460   41.7620 C   0  0  0  0  0  0  0  0  0  0  0  0
   46.9730   34.6210   40.7490 C   0  0  0  0  0  0  0  0  0  0  0  0
   45.8500   33.9010   41.0670 C   0  0  0  0  0  0  0  0  0  0  0  0
   48.2700   34.8240   43.8220 H   0  0  0  0  0  0  0  0  0  0  0  0
   47.1450   34.9140   39.7070 H   0  0  0  0  0  0  0  0  0  0  0  0
   45.1630   33.6430   40.2690 H   0  0  0  0  0  0  0  0  0  0  0  0
   49.0500   35.7270   41.4000 C   0  0  0  0  0  0  0  0  0  0  0  0
   50.1520   35.0080   41.7810 F   0  0  0  0  0  0  0  0  0  0  0  0
   49.0280   36.9870   41.9810 F   0  0  0  0  0  0  0  0  0  0  0  0
   49.0530   35.9030   40.0240 F   0  0  0  0  0  0  0  0  0  0  0  0
   45.8020   29.4830   47.2690 C   0  0  0  0  0  0  0  0  0  0  0  0
   46.7330   30.4310   46.8660 C   0  0  0  0  0  0  0  0  0  0  0  0
   48.0810   30.1320   46.8780 C   0  0  0  0  0  0  0  0  0  0  0  0
   48.8210   30.8660   46.5640 H   0  0  0  0  0  0  0  0  0  0  0  0
   48.5700   28.8870   47.2870 C   0  0  0  0  0  3  0  0  0  0  0  0
   47.5850   27.9990   47.6720 C   0  0  0  0  0  3  0  0  0  0  0  0
   46.2270   28.2260   47.6870 C   0  0  0  0  0  0  0  0  0  0  0  0
   44.4510   29.7920   47.2540 O   0  0  0  0  0  0  0  0  0  0  0  0
   43.9480   30.1260   48.0720 H   0  0  0  0  0  0  0  0  0  0  0  0
   45.3350   27.2430   48.1000 O   0  0  0  0  0  0  0  0  0  0  0  0
   44.3740   27.2310   47.7320 H   0  0  0  0  0  0  0  0  0  0  0  0
  1  6  1  0  0  0  0
  1  7  1  0  0  0  0
  2  1  2  0  0  0  0
  3  4  2  0  0  0  0
  3  2  1  0  0  0  0
  4  5  1  0  0  0  0
  5 24  1  0  0  0  0
  5  6  2  0  0  0  0
  8  2  1  0  0  0  0
 10  9  1  0  0  0  0
 10 11  1  0  0  0  0
 11  3  1  0  0  0  0
 12 11  2  0  0  0  0
 12 16  1  0  0  0  0
 13 12  1  0  0  0  0
 14 15  1  0  0  0  0
 14 13  2  0  0  0  0
 15 10  2  0  0  0  0
 17 14  1  0  0  0  0
 18 15  1  0  0  0  0
 19 13  1  0  0  0  0
 19 20  1  0  0  0  0
 19 21  1  0  0  0  0
 22 19  1  0  0  0  0
 23 29  1  0  0  0  0
 24 25  1  0  0  0  0
 24 23  2  0  0  0  0
 25 27  2  0  0  0  0
 26 25  1  0  0  0  0
 27 28  1  0  0  0  0
 28 29  2  0  0  0  0
 29 32  1  0  0  0  0
 30 23  1  0  0  0  0
 30 31  1  0  0  0  0
 33 32  1  0  0  0  0
M  END
>  <minimizedAffinity>
-6.26806355

>  <minimizedRMSD>
1.08398068

$$$$
