
 OpenBabel03242511553D

 36 38  0  0  1  0  0  0  0  0999 V2000
   36.3980   29.6230   40.6050 C   0  0  2  0  0  0  0  0  0  0  0  0
   35.0710   29.1220   40.2010 C   0  0  0  0  0  0  0  0  0  0  0  0
   35.0010   28.6710   38.7770 C   0  0  0  0  0  0  0  0  0  0  0  0
   35.4790   29.7080   37.7790 C   0  0  0  0  0  0  0  0  0  0  0  0
   36.6750   30.4990   38.2720 C   0  0  0  0  0  0  0  0  0  0  0  0
   37.3370   29.8330   39.4380 C   0  0  1  0  0  0  0  0  0  0  0  0
   36.2610   30.6020   41.1580 H   0  0  0  0  0  0  0  0  0  0  0  0
   34.2830   29.9230   40.3280 H   0  0  0  0  0  0  0  0  0  0  0  0
   34.7180   28.2990   40.8340 H   0  0  0  0  0  0  0  0  0  0  0  0
   35.3850   27.6790   38.5550 H   0  0  0  0  0  0  0  0  0  0  0  0
   33.8920   28.6000   38.5550 H   0  0  0  0  0  0  0  0  0  0  0  0
   35.8060   29.1370   36.8730 H   0  0  0  0  0  0  0  0  0  0  0  0
   34.6730   30.3760   37.4190 H   0  0  0  0  0  0  0  0  0  0  0  0
   37.4520   30.5560   37.4700 H   0  0  0  0  0  0  0  0  0  0  0  0
   36.3270   31.5170   38.4370 H   0  0  0  0  0  0  0  0  0  0  0  0
   37.7170   28.8480   39.1060 H   0  0  0  0  0  0  0  0  0  0  0  0
   37.0680   28.7380   41.5740 C   0  0  0  0  0  0  0  0  0  0  0  0
   37.4550   27.4760   41.0910 C   0  0  0  0  0  0  0  0  0  0  0  0
   38.0970   26.5700   41.9410 C   0  0  0  0  0  0  0  0  0  0  0  0
   38.3120   26.9900   43.2290 N   0  0  0  0  0  0  0  0  0  0  0  0
   37.9300   28.2140   43.6730 C   0  0  0  0  0  0  0  0  0  0  0  0
   37.3080   29.0840   42.8390 N   0  0  0  0  0  0  0  0  0  0  0  0
   37.3250   27.0680   40.1000 H   0  0  0  0  0  0  0  0  0  0  0  0
   38.4240   25.5910   41.6540 H   0  0  0  0  0  0  0  0  0  0  0  0
   38.1210   28.5000   44.6950 H   0  0  0  0  0  0  0  0  0  0  0  0
   38.0070   31.9710   40.3820 C   0  0  0  0  0  0  0  0  0  0  0  0
   38.4240   30.7270   39.8900 C   0  0  0  0  0  0  0  0  0  0  0  0
   39.7810   30.5040   39.8880 C   0  0  0  0  0  0  0  0  0  0  0  0
   40.0910   29.5510   39.5100 H   0  0  0  0  0  0  0  0  0  0  0  0
   40.6940   31.4170   40.3320 C   0  0  0  0  0  3  0  0  0  0  0  0
   40.2640   32.6360   40.8110 C   0  0  0  0  0  3  0  0  0  0  0  0
   38.8960   32.9210   40.8380 C   0  0  0  0  0  0  0  0  0  0  0  0
   36.6810   32.4350   40.4870 O   0  0  0  0  0  0  0  0  0  0  0  0
   36.1750   32.3090   41.3470 H   0  0  0  0  0  0  0  0  0  0  0  0
   38.5900   34.1540   41.3320 O   0  0  0  0  0  0  0  0  0  0  0  0
   38.6020   34.3970   42.3250 H   0  0  0  0  0  0  0  0  0  0  0  0
  1  7  1  1  0  0  0
  1 17  1  0  0  0  0
  2  8  1  0  0  0  0
  2  1  1  0  0  0  0
  2  9  1  0  0  0  0
  3  2  1  0  0  0  0
  4  5  1  0  0  0  0
  4  3  1  0  0  0  0
  5 15  1  0  0  0  0
  5  6  1  0  0  0  0
  6 16  1  6  0  0  0
  6 27  1  0  0  0  0
  6  1  1  0  0  0  0
 10  3  1  0  0  0  0
 11  3  1  0  0  0  0
 12  4  1  0  0  0  0
 13  4  1  0  0  0  0
 14  5  1  0  0  0  0
 17 22  1  0  0  0  0
 18 17  2  0  0  0  0
 18 19  1  0  0  0  0
 19 20  2  0  0  0  0
 20 21  1  0  0  0  0
 21 25  1  0  0  0  0
 22 21  2  0  0  0  0
 23 18  1  0  0  0  0
 24 19  1  0  0  0  0
 26 33  1  0  0  0  0
 26 32  1  0  0  0  0
 27 26  2  0  0  0  0
 28 27  1  0  0  0  0
 28 30  2  0  0  0  0
 29 28  1  0  0  0  0
 30 31  1  0  0  0  0
 31 32  2  0  0  0  0
 32 35  1  0  0  0  0
 33 34  1  0  0  0  0
 35 36  1  0  0  0  0
M  END
>  <minimizedAffinity>
-6.21251583

$$$$

 OpenBabel03242511553D

 36 38  0  0  1  0  0  0  0  0999 V2000
   37.5260   28.1010   40.7320 C   0  0  2  0  0  0  0  0  0  0  0  0
   37.3150   26.7800   41.3540 C   0  0  0  0  0  0  0  0  0  0  0  0
   36.8100   26.8460   42.7600 C   0  0  0  0  0  0  0  0  0  0  0  0
   37.6550   27.7110   43.6760 C   0  0  0  0  0  0  0  0  0  0  0  0
   38.1830   28.9570   42.9940 C   0  0  0  0  0  0  0  0  0  0  0  0
   37.4530   29.2440   41.7200 C   0  0  1  0  0  0  0  0  0  0  0  0
   38.5400   28.1030   40.2290 H   0  0  0  0  0  0  0  0  0  0  0  0
   38.2780   26.1890   41.3810 H   0  0  0  0  0  0  0  0  0  0  0  0
   36.6290   26.1460   40.7790 H   0  0  0  0  0  0  0  0  0  0  0  0
   35.7470   27.0210   42.8950 H   0  0  0  0  0  0  0  0  0  0  0  0
   36.9780   25.8030   43.1720 H   0  0  0  0  0  0  0  0  0  0  0  0
   36.9740   28.0430   44.5010 H   0  0  0  0  0  0  0  0  0  0  0  0
   38.4650   27.1520   44.1830 H   0  0  0  0  0  0  0  0  0  0  0  0
   38.0190   29.8490   43.6490 H   0  0  0  0  0  0  0  0  0  0  0  0
   39.2610   28.8320   42.9100 H   0  0  0  0  0  0  0  0  0  0  0  0
   36.3900   29.4360   41.9630 H   0  0  0  0  0  0  0  0  0  0  0  0
   36.5690   28.3770   39.6450 C   0  0  0  0  0  0  0  0  0  0  0  0
   37.0930   28.3480   38.3410 C   0  0  0  0  0  0  0  0  0  0  0  0
   36.2580   28.5980   37.2480 C   0  0  0  0  0  0  0  0  0  0  0  0
   34.9430   28.8630   37.5350 N   0  0  0  0  0  0  0  0  0  0  0  0
   34.4590   28.8850   38.8020 C   0  0  0  0  0  0  0  0  0  0  0  0
   35.2790   28.6410   39.8540 N   0  0  0  0  0  0  0  0  0  0  0  0
   38.1080   28.1500   38.0300 H   0  0  0  0  0  0  0  0  0  0  0  0
   36.5750   28.5960   36.2250 H   0  0  0  0  0  0  0  0  0  0  0  0
   33.4160   29.0980   38.9770 H   0  0  0  0  0  0  0  0  0  0  0  0
   37.2440   31.4760   40.7800 C   0  0  0  0  0  0  0  0  0  0  0  0
   38.1040   30.4170   41.0990 C   0  0  0  0  0  0  0  0  0  0  0  0
   39.4310   30.6040   40.7900 C   0  0  0  0  0  0  0  0  0  0  0  0
   40.0810   29.7890   41.0360 H   0  0  0  0  0  0  0  0  0  0  0  0
   39.9160   31.7400   40.2090 C   0  0  0  0  0  3  0  0  0  0  0  0
   39.0530   32.7720   39.9020 C   0  0  0  0  0  3  0  0  0  0  0  0
   37.6930   32.6410   40.1920 C   0  0  0  0  0  0  0  0  0  0  0  0
   35.8530   31.5280   40.9960 O   0  0  0  0  0  0  0  0  0  0  0  0
   35.4940   31.9410   41.8390 H   0  0  0  0  0  0  0  0  0  0  0  0
   36.9390   33.7210   39.8450 O   0  0  0  0  0  0  0  0  0  0  0  0
   36.9080   34.5970   40.3730 H   0  0  0  0  0  0  0  0  0  0  0  0
  1  7  1  6  0  0  0
  1  2  1  0  0  0  0
  1  6  1  0  0  0  0
  2  8  1  0  0  0  0
  2  3  1  0  0  0  0
  3 10  1  0  0  0  0
  3 11  1  0  0  0  0
  3  4  1  0  0  0  0
  4 13  1  0  0  0  0
  4 12  1  0  0  0  0
  5 14  1  0  0  0  0
  5  4  1  0  0  0  0
  6 16  1  1  0  0  0
  6  5  1  0  0  0  0
  9  2  1  0  0  0  0
 15  5  1  0  0  0  0
 17 22  1  0  0  0  0
 17  1  1  0  0  0  0
 18 17  2  0  0  0  0
 19 20  2  0  0  0  0
 19 18  1  0  0  0  0
 20 21  1  0  0  0  0
 21 25  1  0  0  0  0
 21 22  2  0  0  0  0
 23 18  1  0  0  0  0
 24 19  1  0  0  0  0
 26 33  1  0  0  0  0
 26 27  1  0  0  0  0
 27  6  1  0  0  0  0
 28 29  1  0  0  0  0
 28 27  2  0  0  0  0
 30 28  1  0  0  0  0
 31 32  1  0  0  0  0
 31 30  2  0  0  0  0
 32 26  2  0  0  0  0
 33 34  1  0  0  0  0
 35 32  1  0  0  0  0
 35 36  1  0  0  0  0
M  END
>  <minimizedAffinity>
-6.12268591

$$$$

 OpenBabel03242511553D

 36 38  0  0  1  0  0  0  0  0999 V2000
   39.3130   30.6530   40.2270 C   0  0  2  0  0  0  0  0  0  0  0  0
   40.5080   31.4610   40.5320 C   0  0  0  0  0  0  0  0  0  0  0  0
   40.2060   32.8910   40.8510 C   0  0  0  0  0  0  0  0  0  0  0  0
   39.3720   33.5930   39.7970 C   0  0  0  0  0  0  0  0  0  0  0  0
   38.3020   32.7020   39.1960 C   0  0  0  0  0  0  0  0  0  0  0  0
   38.0640   31.4830   40.0310 C   0  0  1  0  0  0  0  0  0  0  0  0
   39.5150   30.0510   39.2890 H   0  0  0  0  0  0  0  0  0  0  0  0
   41.2240   31.4670   39.6580 H   0  0  0  0  0  0  0  0  0  0  0  0
   41.0990   31.0490   41.3590 H   0  0  0  0  0  0  0  0  0  0  0  0
   39.8650   33.1110   41.8580 H   0  0  0  0  0  0  0  0  0  0  0  0
   41.2070   33.4170   40.7720 H   0  0  0  0  0  0  0  0  0  0  0  0
   38.8510   34.4330   40.3240 H   0  0  0  0  0  0  0  0  0  0  0  0
   39.9780   34.0830   39.0110 H   0  0  0  0  0  0  0  0  0  0  0  0
   37.3260   33.2460   39.1630 H   0  0  0  0  0  0  0  0  0  0  0  0
   38.5910   32.5250   38.1620 H   0  0  0  0  0  0  0  0  0  0  0  0
   37.6940   31.8070   41.0230 H   0  0  0  0  0  0  0  0  0  0  0  0
   39.0300   29.6430   41.2630 C   0  0  0  0  0  0  0  0  0  0  0  0
   39.4040   28.3240   40.9570 C   0  0  0  0  0  0  0  0  0  0  0  0
   39.1740   27.3000   41.8820 C   0  0  0  0  0  0  0  0  0  0  0  0
   38.5800   27.6680   43.0620 N   0  0  0  0  0  0  0  0  0  0  0  0
   38.2280   28.9500   43.3360 C   0  0  0  0  0  0  0  0  0  0  0  0
   38.4560   29.9330   42.4310 N   0  0  0  0  0  0  0  0  0  0  0  0
   39.8730   27.9510   40.0590 H   0  0  0  0  0  0  0  0  0  0  0  0
   39.4280   26.2710   41.7270 H   0  0  0  0  0  0  0  0  0  0  0  0
   37.7630   29.1900   44.2800 H   0  0  0  0  0  0  0  0  0  0  0  0
   35.9090   30.3590   40.0280 C   0  0  0  0  0  0  0  0  0  0  0  0
   37.0770   30.6490   39.3120 C   0  0  0  0  0  0  0  0  0  0  0  0
   37.1550   30.1190   38.0460 C   0  0  0  0  0  0  0  0  0  0  0  0
   38.0530   30.3450   37.5060 H   0  0  0  0  0  0  0  0  0  0  0  0
   36.1720   29.3540   37.4880 C   0  0  0  0  0  3  0  0  0  0  0  0
   35.0290   29.0790   38.2090 C   0  0  0  0  0  3  0  0  0  0  0  0
   34.8920   29.5890   39.5020 C   0  0  0  0  0  0  0  0  0  0  0  0
   35.5920   30.7810   41.3340 O   0  0  0  0  0  0  0  0  0  0  0  0
   35.0580   31.6220   41.4710 H   0  0  0  0  0  0  0  0  0  0  0  0
   33.7230   29.2520   40.1160 O   0  0  0  0  0  0  0  0  0  0  0  0
   32.8180   29.6830   39.9120 H   0  0  0  0  0  0  0  0  0  0  0  0
  1  7  1  6  0  0  0
  1  2  1  0  0  0  0
  1 17  1  0  0  0  0
  2  3  1  0  0  0  0
  2  9  1  0  0  0  0
  3 10  1  0  0  0  0
  4 12  1  0  0  0  0
  4  3  1  0  0  0  0
  5  4  1  0  0  0  0
  5  6  1  0  0  0  0
  6  1  1  0  0  0  0
  6 16  1  1  0  0  0
  8  2  1  0  0  0  0
 11  3  1  0  0  0  0
 13  4  1  0  0  0  0
 14  5  1  0  0  0  0
 15  5  1  0  0  0  0
 17 22  1  0  0  0  0
 18 17  2  0  0  0  0
 18 19  1  0  0  0  0
 19 20  2  0  0  0  0
 20 21  1  0  0  0  0
 21 25  1  0  0  0  0
 22 21  2  0  0  0  0
 23 18  1  0  0  0  0
 24 19  1  0  0  0  0
 26 33  1  0  0  0  0
 27 26  2  0  0  0  0
 27  6  1  0  0  0  0
 28 27  1  0  0  0  0
 29 28  1  0  0  0  0
 30 28  2  0  0  0  0
 30 31  1  0  0  0  0
 31 32  2  0  0  0  0
 32 26  1  0  0  0  0
 32 35  1  0  0  0  0
 33 34  1  0  0  0  0
 36 35  1  0  0  0  0
M  END
>  <minimizedAffinity>
-5.63679075

$$$$

 OpenBabel03242511553D

 36 38  0  0  1  0  0  0  0  0999 V2000
   37.0110   29.1520   37.9380 C   0  0  2  0  0  0  0  0  0  0  0  0
   36.5600   29.3200   36.5440 C   0  0  0  0  0  0  0  0  0  0  0  0
   35.0750   29.2650   36.3760 C   0  0  0  0  0  0  0  0  0  0  0  0
   34.4340   28.0260   36.9720 C   0  0  0  0  0  0  0  0  0  0  0  0
   35.0730   27.5990   38.2790 C   0  0  0  0  0  0  0  0  0  0  0  0
   35.9120   28.6890   38.8680 C   0  0  1  0  0  0  0  0  0  0  0  0
   37.8580   28.4010   37.9540 H   0  0  0  0  0  0  0  0  0  0  0  0
   36.9920   28.5140   35.8800 H   0  0  0  0  0  0  0  0  0  0  0  0
   36.9160   30.2550   36.0930 H   0  0  0  0  0  0  0  0  0  0  0  0
   34.5180   30.1680   36.6100 H   0  0  0  0  0  0  0  0  0  0  0  0
   34.9190   29.1190   35.2630 H   0  0  0  0  0  0  0  0  0  0  0  0
   33.3720   28.3030   37.1930 H   0  0  0  0  0  0  0  0  0  0  0  0
   34.3660   27.1810   36.2600 H   0  0  0  0  0  0  0  0  0  0  0  0
   34.2800   27.3790   39.0370 H   0  0  0  0  0  0  0  0  0  0  0  0
   35.5810   26.6570   38.0830 H   0  0  0  0  0  0  0  0  0  0  0  0
   35.2540   29.5490   39.0970 H   0  0  0  0  0  0  0  0  0  0  0  0
   37.5930   30.3840   38.4990 C   0  0  0  0  0  0  0  0  0  0  0  0
   38.9810   30.3630   38.7230 C   0  0  0  0  0  0  0  0  0  0  0  0
   39.6190   31.4880   39.2530 C   0  0  0  0  0  0  0  0  0  0  0  0
   38.8200   32.5690   39.5270 N   0  0  0  0  0  0  0  0  0  0  0  0
   37.4820   32.5660   39.3030 C   0  0  0  0  0  0  0  0  0  0  0  0
   36.8750   31.4690   38.7880 N   0  0  0  0  0  0  0  0  0  0  0  0
   39.6780   29.5600   38.5360 H   0  0  0  0  0  0  0  0  0  0  0  0
   40.6690   31.5550   39.4530 H   0  0  0  0  0  0  0  0  0  0  0  0
   36.8960   33.4410   39.5340 H   0  0  0  0  0  0  0  0  0  0  0  0
   36.3920   28.9070   41.2420 C   0  0  0  0  0  0  0  0  0  0  0  0
   36.5530   28.1380   40.0820 C   0  0  0  0  0  0  0  0  0  0  0  0
   37.2840   26.9820   40.2210 C   0  0  0  0  0  0  0  0  0  0  0  0
   37.4040   26.4010   39.3290 H   0  0  0  0  0  0  0  0  0  0  0  0
   37.8340   26.5770   41.4030 C   0  0  0  0  0  3  0  0  0  0  0  0
   37.6650   27.3480   42.5340 C   0  0  0  0  0  3  0  0  0  0  0  0
   36.9310   28.5350   42.4560 C   0  0  0  0  0  0  0  0  0  0  0  0
   35.6900   30.1230   41.3580 O   0  0  0  0  0  0  0  0  0  0  0  0
   34.7250   30.1160   41.6400 H   0  0  0  0  0  0  0  0  0  0  0  0
   36.8310   29.2110   43.6340 O   0  0  0  0  0  0  0  0  0  0  0  0
   36.2100   28.9450   44.4020 H   0  0  0  0  0  0  0  0  0  0  0  0
  1  7  1  1  0  0  0
  1 17  1  0  0  0  0
  1  6  1  0  0  0  0
  2  1  1  0  0  0  0
  3  2  1  0  0  0  0
  3 10  1  0  0  0  0
  3  4  1  0  0  0  0
  4 12  1  0  0  0  0
  4  5  1  0  0  0  0
  5  6  1  0  0  0  0
  5 14  1  0  0  0  0
  6 16  1  1  0  0  0
  6 27  1  0  0  0  0
  8  2  1  0  0  0  0
  9  2  1  0  0  0  0
 11  3  1  0  0  0  0
 13  4  1  0  0  0  0
 15  5  1  0  0  0  0
 17 18  2  0  0  0  0
 17 22  1  0  0  0  0
 18 19  1  0  0  0  0
 19 24  1  0  0  0  0
 19 20  2  0  0  0  0
 21 20  1  0  0  0  0
 21 25  1  0  0  0  0
 22 21  2  0  0  0  0
 23 18  1  0  0  0  0
 26 33  1  0  0  0  0
 26 32  1  0  0  0  0
 27 28  1  0  0  0  0
 27 26  2  0  0  0  0
 28 30  2  0  0  0  0
 29 28  1  0  0  0  0
 30 31  1  0  0  0  0
 32 31  2  0  0  0  0
 32 35  1  0  0  0  0
 33 34  1  0  0  0  0
 35 36  1  0  0  0  0
M  END
>  <minimizedAffinity>
-5.60286236

$$$$

 OpenBabel03242511553D

 36 38  0  0  1  0  0  0  0  0999 V2000
   38.5530   30.7630   39.9260 C   0  0  2  0  0  0  0  0  0  0  0  0
   39.4210   31.8000   40.5140 C   0  0  0  0  0  0  0  0  0  0  0  0
   38.6950   33.0480   40.9050 C   0  0  0  0  0  0  0  0  0  0  0  0
   37.8650   33.6520   39.7890 C   0  0  0  0  0  0  0  0  0  0  0  0
   37.1820   32.6090   38.9260 C   0  0  0  0  0  0  0  0  0  0  0  0
   37.1670   31.2660   39.5880 C   0  0  1  0  0  0  0  0  0  0  0  0
   39.0490   30.3680   38.9880 H   0  0  0  0  0  0  0  0  0  0  0  0
   40.2300   32.1090   39.7870 H   0  0  0  0  0  0  0  0  0  0  0  0
   39.9740   31.4430   41.3920 H   0  0  0  0  0  0  0  0  0  0  0  0
   38.1620   33.0320   41.8510 H   0  0  0  0  0  0  0  0  0  0  0  0
   39.5130   33.8180   41.0560 H   0  0  0  0  0  0  0  0  0  0  0  0
   37.0620   34.2500   40.2900 H   0  0  0  0  0  0  0  0  0  0  0  0
   38.4230   34.3840   39.1730 H   0  0  0  0  0  0  0  0  0  0  0  0
   36.1100   32.8850   38.7700 H   0  0  0  0  0  0  0  0  0  0  0  0
   37.6580   32.6550   37.9490 H   0  0  0  0  0  0  0  0  0  0  0  0
   36.5800   31.3460   40.5230 H   0  0  0  0  0  0  0  0  0  0  0  0
   38.4080   29.5830   40.7960 C   0  0  0  0  0  0  0  0  0  0  0  0
   37.7240   29.7900   42.0060 C   0  0  0  0  0  0  0  0  0  0  0  0
   37.5390   28.7260   42.8950 C   0  0  0  0  0  0  0  0  0  0  0  0
   38.0560   27.5150   42.5110 N   0  0  0  0  0  0  0  0  0  0  0  0
   38.7130   27.3390   41.3360 C   0  0  0  0  0  0  0  0  0  0  0  0
   38.8860   28.3780   40.4830 N   0  0  0  0  0  0  0  0  0  0  0  0
   37.2880   30.7030   42.3830 H   0  0  0  0  0  0  0  0  0  0  0  0
   37.0310   28.7980   43.8350 H   0  0  0  0  0  0  0  0  0  0  0  0
   39.1020   26.3660   41.0780 H   0  0  0  0  0  0  0  0  0  0  0  0
   37.2250   30.2110   37.3990 C   0  0  0  0  0  0  0  0  0  0  0  0
   36.5650   30.3150   38.6290 C   0  0  0  0  0  0  0  0  0  0  0  0
   35.4470   29.5290   38.7820 C   0  0  0  0  0  0  0  0  0  0  0  0
   34.9480   29.6150   39.7260 H   0  0  0  0  0  0  0  0  0  0  0  0
   34.9820   28.6850   37.8150 C   0  0  0  0  0  3  0  0  0  0  0  0
   35.6460   28.5970   36.6090 C   0  0  0  0  0  3  0  0  0  0  0  0
   36.7880   29.3730   36.3940 C   0  0  0  0  0  0  0  0  0  0  0  0
   38.3840   30.9070   37.0010 O   0  0  0  0  0  0  0  0  0  0  0  0
   39.2870   30.4870   37.1330 H   0  0  0  0  0  0  0  0  0  0  0  0
   37.3590   29.2020   35.1680 O   0  0  0  0  0  0  0  0  0  0  0  0
   37.9270   28.3940   34.9030 H   0  0  0  0  0  0  0  0  0  0  0  0
  1  7  1  6  0  0  0
  1  2  1  0  0  0  0
  1 17  1  0  0  0  0
  2  3  1  0  0  0  0
  2  9  1  0  0  0  0
  3 11  1  0  0  0  0
  3 10  1  0  0  0  0
  4 12  1  0  0  0  0
  4  3  1  0  0  0  0
  5  6  1  0  0  0  0
  5  4  1  0  0  0  0
  6  1  1  0  0  0  0
  6 16  1  1  0  0  0
  8  2  1  0  0  0  0
 13  4  1  0  0  0  0
 14  5  1  0  0  0  0
 15  5  1  0  0  0  0
 17 18  1  0  0  0  0
 18 23  1  0  0  0  0
 18 19  2  0  0  0  0
 19 24  1  0  0  0  0
 20 19  1  0  0  0  0
 21 20  2  0  0  0  0
 22 17  2  0  0  0  0
 22 21  1  0  0  0  0
 25 21  1  0  0  0  0
 26 27  1  0  0  0  0
 27 28  2  0  0  0  0
 27  6  1  0  0  0  0
 28 29  1  0  0  0  0
 30 28  1  0  0  0  0
 31 30  2  0  0  0  0
 32 31  1  0  0  0  0
 32 26  2  0  0  0  0
 33 34  1  0  0  0  0
 33 26  1  0  0  0  0
 35 32  1  0  0  0  0
 36 35  1  0  0  0  0
M  END
>  <minimizedAffinity>
-5.5899148

$$$$

 OpenBabel03242511553D

 36 38  0  0  1  0  0  0  0  0999 V2000
   39.0000   27.5170   42.3450 C   0  0  2  0  0  0  0  0  0  0  0  0
   39.1770   26.4040   43.2970 C   0  0  0  0  0  0  0  0  0  0  0  0
   38.9010   25.0560   42.7110 C   0  0  0  0  0  0  0  0  0  0  0  0
   37.5450   24.9420   42.0410 C   0  0  0  0  0  0  0  0  0  0  0  0
   37.1470   26.1970   41.2910 C   0  0  0  0  0  0  0  0  0  0  0  0
   38.3190   27.1000   41.0600 C   0  0  1  0  0  0  0  0  0  0  0  0
   38.3900   28.3270   42.8480 H   0  0  0  0  0  0  0  0  0  0  0  0
   38.4880   26.5200   44.1850 H   0  0  0  0  0  0  0  0  0  0  0  0
   40.1810   26.3800   43.7390 H   0  0  0  0  0  0  0  0  0  0  0  0
   39.6920   24.6050   42.1180 H   0  0  0  0  0  0  0  0  0  0  0  0
   38.7980   24.3710   43.6080 H   0  0  0  0  0  0  0  0  0  0  0  0
   37.6410   24.1180   41.2890 H   0  0  0  0  0  0  0  0  0  0  0  0
   36.7430   24.6090   42.7280 H   0  0  0  0  0  0  0  0  0  0  0  0
   36.7630   25.9300   40.2750 H   0  0  0  0  0  0  0  0  0  0  0  0
   36.3090   26.6300   41.8320 H   0  0  0  0  0  0  0  0  0  0  0  0
   39.0510   26.5650   40.4270 H   0  0  0  0  0  0  0  0  0  0  0  0
   40.2730   28.1710   41.9930 C   0  0  0  0  0  0  0  0  0  0  0  0
   40.4940   29.4360   42.5650 C   0  0  0  0  0  0  0  0  0  0  0  0
   41.6750   30.1300   42.2880 C   0  0  0  0  0  0  0  0  0  0  0  0
   42.5640   29.5090   41.4480 N   0  0  0  0  0  0  0  0  0  0  0  0
   42.3290   28.2870   40.9070 C   0  0  0  0  0  0  0  0  0  0  0  0
   41.1800   27.6230   41.1840 N   0  0  0  0  0  0  0  0  0  0  0  0
   39.8520   29.9920   43.2320 H   0  0  0  0  0  0  0  0  0  0  0  0
   41.9210   31.0960   42.6810 H   0  0  0  0  0  0  0  0  0  0  0  0
   43.0590   27.8390   40.2520 H   0  0  0  0  0  0  0  0  0  0  0  0
   36.9620   29.1120   41.2000 C   0  0  0  0  0  0  0  0  0  0  0  0
   37.8040   28.3230   40.4070 C   0  0  0  0  0  0  0  0  0  0  0  0
   38.0370   28.7830   39.1330 C   0  0  0  0  0  0  0  0  0  0  0  0
   38.6810   28.1720   38.5320 H   0  0  0  0  0  0  0  0  0  0  0  0
   37.4970   29.9340   38.6370 C   0  0  0  0  0  3  0  0  0  0  0  0
   36.6690   30.6980   39.4330 C   0  0  0  0  0  3  0  0  0  0  0  0
   36.3950   30.2820   40.7390 C   0  0  0  0  0  0  0  0  0  0  0  0
   36.5730   28.8590   42.5300 O   0  0  0  0  0  0  0  0  0  0  0  0
   37.0960   29.2610   43.2880 H   0  0  0  0  0  0  0  0  0  0  0  0
   35.5660   31.1150   41.4300 O   0  0  0  0  0  0  0  0  0  0  0  0
   35.8530   32.0090   41.8360 H   0  0  0  0  0  0  0  0  0  0  0  0
  1  7  1  1  0  0  0
  1  2  1  0  0  0  0
  2  9  1  0  0  0  0
  2  8  1  0  0  0  0
  3  2  1  0  0  0  0
  3 11  1  0  0  0  0
  4  3  1  0  0  0  0
  4 13  1  0  0  0  0
  5 15  1  0  0  0  0
  5  4  1  0  0  0  0
  6 16  1  6  0  0  0
  6  5  1  0  0  0  0
  6  1  1  0  0  0  0
 10  3  1  0  0  0  0
 12  4  1  0  0  0  0
 14  5  1  0  0  0  0
 17  1  1  0  0  0  0
 17 18  1  0  0  0  0
 18 23  1  0  0  0  0
 19 18  2  0  0  0  0
 19 24  1  0  0  0  0
 20 19  1  0  0  0  0
 21 22  1  0  0  0  0
 21 20  2  0  0  0  0
 22 17  2  0  0  0  0
 25 21  1  0  0  0  0
 26 33  1  0  0  0  0
 27  6  1  0  0  0  0
 27 26  2  0  0  0  0
 28 27  1  0  0  0  0
 29 28  1  0  0  0  0
 30 28  2  0  0  0  0
 30 31  1  0  0  0  0
 31 32  2  0  0  0  0
 32 26  1  0  0  0  0
 32 35  1  0  0  0  0
 33 34  1  0  0  0  0
 35 36  1  0  0  0  0
M  END
>  <minimizedAffinity>
-5.4675169

$$$$

 OpenBabel03242511553D

 36 38  0  0  1  0  0  0  0  0999 V2000
   37.9930   28.0720   40.8720 C   0  0  2  0  0  0  0  0  0  0  0  0
   38.0050   26.7240   41.4710 C   0  0  0  0  0  0  0  0  0  0  0  0
   37.0200   26.5470   42.5830 C   0  0  0  0  0  0  0  0  0  0  0  0
   37.1330   27.5920   43.6760 C   0  0  0  0  0  0  0  0  0  0  0  0
   37.4440   28.9770   43.1440 C   0  0  0  0  0  0  0  0  0  0  0  0
   37.1910   29.0740   41.6710 C   0  0  1  0  0  0  0  0  0  0  0  0
   39.0620   28.4330   40.7790 H   0  0  0  0  0  0  0  0  0  0  0  0
   39.0230   26.4810   41.8970 H   0  0  0  0  0  0  0  0  0  0  0  0
   37.8270   25.9310   40.7340 H   0  0  0  0  0  0  0  0  0  0  0  0
   35.9880   26.3570   42.3020 H   0  0  0  0  0  0  0  0  0  0  0  0
   37.3490   25.5970   43.1060 H   0  0  0  0  0  0  0  0  0  0  0  0
   36.1260   27.6390   44.1640 H   0  0  0  0  0  0  0  0  0  0  0  0
   37.8290   27.3050   44.4880 H   0  0  0  0  0  0  0  0  0  0  0  0
   36.7680   29.7300   43.6200 H   0  0  0  0  0  0  0  0  0  0  0  0
   38.4530   29.2170   43.4730 H   0  0  0  0  0  0  0  0  0  0  0  0
   36.1140   28.8930   41.4910 H   0  0  0  0  0  0  0  0  0  0  0  0
   37.4770   28.0750   39.4910 C   0  0  0  0  0  0  0  0  0  0  0  0
   36.1200   27.7420   39.3390 C   0  0  0  0  0  0  0  0  0  0  0  0
   35.5450   27.7200   38.0650 C   0  0  0  0  0  0  0  0  0  0  0  0
   36.3730   28.0340   37.0180 N   0  0  0  0  0  0  0  0  0  0  0  0
   37.6810   28.3530   37.1880 C   0  0  0  0  0  0  0  0  0  0  0  0
   38.2270   28.3710   38.4290 N   0  0  0  0  0  0  0  0  0  0  0  0
   35.4030   27.4850   40.1040 H   0  0  0  0  0  0  0  0  0  0  0  0
   34.5210   27.4780   37.8630 H   0  0  0  0  0  0  0  0  0  0  0  0
   38.2920   28.5930   36.3320 H   0  0  0  0  0  0  0  0  0  0  0  0
   38.9150   30.7870   41.6050 C   0  0  0  0  0  0  0  0  0  0  0  0
   37.6100   30.4270   41.2460 C   0  0  0  0  0  0  0  0  0  0  0  0
   36.8920   31.3740   40.5550 C   0  0  0  0  0  0  0  0  0  0  0  0
   35.8940   31.0910   40.2850 H   0  0  0  0  0  0  0  0  0  0  0  0
   37.3890   32.6000   40.2210 C   0  0  0  0  0  3  0  0  0  0  0  0
   38.6760   32.9370   40.5840 C   0  0  0  0  0  3  0  0  0  0  0  0
   39.4560   32.0160   41.2890 C   0  0  0  0  0  0  0  0  0  0  0  0
   39.8440   29.9980   42.3110 O   0  0  0  0  0  0  0  0  0  0  0  0
   40.5050   29.4340   41.8060 H   0  0  0  0  0  0  0  0  0  0  0  0
   40.7090   32.4580   41.5920 O   0  0  0  0  0  0  0  0  0  0  0  0
   41.4800   32.5120   40.9220 H   0  0  0  0  0  0  0  0  0  0  0  0
  1  7  1  6  0  0  0
  1  2  1  0  0  0  0
  1  6  1  0  0  0  0
  2  8  1  0  0  0  0
  2  3  1  0  0  0  0
  3 11  1  0  0  0  0
  3  4  1  0  0  0  0
  4 12  1  0  0  0  0
  4 13  1  0  0  0  0
  5 15  1  0  0  0  0
  5 14  1  0  0  0  0
  5  4  1  0  0  0  0
  6 16  1  6  0  0  0
  6  5  1  0  0  0  0
  9  2  1  0  0  0  0
 10  3  1  0  0  0  0
 17  1  1  0  0  0  0
 18 17  1  0  0  0  0
 18 23  1  0  0  0  0
 19 18  2  0  0  0  0
 20 21  2  0  0  0  0
 20 19  1  0  0  0  0
 21 22  1  0  0  0  0
 22 17  2  0  0  0  0
 24 19  1  0  0  0  0
 25 21  1  0  0  0  0
 26 33  1  0  0  0  0
 27 26  2  0  0  0  0
 27  6  1  0  0  0  0
 28 27  1  0  0  0  0
 29 28  1  0  0  0  0
 30 28  2  0  0  0  0
 30 31  1  0  0  0  0
 31 32  2  0  0  0  0
 32 35  1  0  0  0  0
 32 26  1  0  0  0  0
 34 33  1  0  0  0  0
 36 35  1  0  0  0  0
M  END
>  <minimizedAffinity>
-5.43244791

$$$$

 OpenBabel03242511553D

 36 38  0  0  1  0  0  0  0  0999 V2000
   40.3270   27.8210   41.3890 C   0  0  2  0  0  0  0  0  0  0  0  0
   41.5050   27.1230   41.9370 C   0  0  0  0  0  0  0  0  0  0  0  0
   41.9350   27.6240   43.2800 C   0  0  0  0  0  0  0  0  0  0  0  0
   42.1610   29.1220   43.3330 C   0  0  0  0  0  0  0  0  0  0  0  0
   41.1540   29.9040   42.5130 C   0  0  0  0  0  0  0  0  0  0  0  0
   39.9620   29.0710   42.1580 C   0  0  1  0  0  0  0  0  0  0  0  0
   40.5410   28.0930   40.3100 H   0  0  0  0  0  0  0  0  0  0  0  0
   42.3950   27.2320   41.2490 H   0  0  0  0  0  0  0  0  0  0  0  0
   41.3580   26.0390   42.0130 H   0  0  0  0  0  0  0  0  0  0  0  0
   41.3830   27.2600   44.1410 H   0  0  0  0  0  0  0  0  0  0  0  0
   42.9800   27.2060   43.4170 H   0  0  0  0  0  0  0  0  0  0  0  0
   42.0220   29.4170   44.4040 H   0  0  0  0  0  0  0  0  0  0  0  0
   43.1990   29.4190   43.0890 H   0  0  0  0  0  0  0  0  0  0  0  0
   40.7600   30.7640   43.1100 H   0  0  0  0  0  0  0  0  0  0  0  0
   41.7010   30.3350   41.6770 H   0  0  0  0  0  0  0  0  0  0  0  0
   39.4530   28.7750   43.0960 H   0  0  0  0  0  0  0  0  0  0  0  0
   39.1330   26.9590   41.3270 C   0  0  0  0  0  0  0  0  0  0  0  0
   38.7680   26.5030   40.0490 C   0  0  0  0  0  0  0  0  0  0  0  0
   37.6480   25.6800   39.8960 C   0  0  0  0  0  0  0  0  0  0  0  0
   36.9620   25.3650   41.0410 N   0  0  0  0  0  0  0  0  0  0  0  0
   37.3350   25.8170   42.2650 C   0  0  0  0  0  0  0  0  0  0  0  0
   38.4220   26.6140   42.4010 N   0  0  0  0  0  0  0  0  0  0  0  0
   39.2490   26.7020   39.1030 H   0  0  0  0  0  0  0  0  0  0  0  0
   37.3020   25.2900   38.9600 H   0  0  0  0  0  0  0  0  0  0  0  0
   36.7630   25.5410   43.1370 H   0  0  0  0  0  0  0  0  0  0  0  0
   37.7810   30.0620   41.7450 C   0  0  0  0  0  0  0  0  0  0  0  0
   39.0950   29.8970   41.2900 C   0  0  0  0  0  0  0  0  0  0  0  0
   39.4040   30.5150   40.1020 C   0  0  0  0  0  0  0  0  0  0  0  0
   40.4110   30.3820   39.7610 H   0  0  0  0  0  0  0  0  0  0  0  0
   38.5100   31.2540   39.3830 C   0  0  0  0  0  3  0  0  0  0  0  0
   37.2200   31.4050   39.8470 C   0  0  0  0  0  3  0  0  0  0  0  0
   36.8460   30.8000   41.0490 C   0  0  0  0  0  0  0  0  0  0  0  0
   37.2230   29.5330   42.9260 O   0  0  0  0  0  0  0  0  0  0  0  0
   37.2210   30.0840   43.7670 H   0  0  0  0  0  0  0  0  0  0  0  0
   35.5490   31.0180   41.4070 O   0  0  0  0  0  0  0  0  0  0  0  0
   35.2000   31.8930   41.8050 H   0  0  0  0  0  0  0  0  0  0  0  0
  1  7  1  6  0  0  0
  1  2  1  0  0  0  0
  1  6  1  0  0  0  0
  2  9  1  0  0  0  0
  2  3  1  0  0  0  0
  3  4  1  0  0  0  0
  3 11  1  0  0  0  0
  3 10  1  0  0  0  0
  4 12  1  0  0  0  0
  5 14  1  0  0  0  0
  5  4  1  0  0  0  0
  6  5  1  0  0  0  0
  6 16  1  1  0  0  0
  8  2  1  0  0  0  0
 13  4  1  0  0  0  0
 15  5  1  0  0  0  0
 17  1  1  0  0  0  0
 17 22  1  0  0  0  0
 18 17  2  0  0  0  0
 19 18  1  0  0  0  0
 19 20  2  0  0  0  0
 20 21  1  0  0  0  0
 21 22  2  0  0  0  0
 21 25  1  0  0  0  0
 23 18  1  0  0  0  0
 24 19  1  0  0  0  0
 26 33  1  0  0  0  0
 27 26  1  0  0  0  0
 27  6  1  0  0  0  0
 28 27  2  0  0  0  0
 29 28  1  0  0  0  0
 30 31  2  0  0  0  0
 30 28  1  0  0  0  0
 31 32  1  0  0  0  0
 32 35  1  0  0  0  0
 32 26  2  0  0  0  0
 33 34  1  0  0  0  0
 35 36  1  0  0  0  0
M  END
>  <minimizedAffinity>
-5.40391588

$$$$

 OpenBabel03242511553D

 36 38  0  0  1  0  0  0  0  0999 V2000
   37.3200   29.6330   41.4310 C   0  0  2  0  0  0  0  0  0  0  0  0
   37.8120   29.4580   42.8110 C   0  0  0  0  0  0  0  0  0  0  0  0
   38.6020   28.2040   43.0180 C   0  0  0  0  0  0  0  0  0  0  0  0
   37.8850   26.9450   42.5690 C   0  0  0  0  0  0  0  0  0  0  0  0
   37.0810   27.1410   41.2990 C   0  0  0  0  0  0  0  0  0  0  0  0
   37.4770   28.3930   40.5800 C   0  0  1  0  0  0  0  0  0  0  0  0
   36.2270   29.9240   41.4740 H   0  0  0  0  0  0  0  0  0  0  0  0
   36.9530   29.4260   43.5440 H   0  0  0  0  0  0  0  0  0  0  0  0
   38.4240   30.3020   43.1530 H   0  0  0  0  0  0  0  0  0  0  0  0
   39.6420   28.2190   42.7050 H   0  0  0  0  0  0  0  0  0  0  0  0
   38.6490   28.0810   44.1440 H   0  0  0  0  0  0  0  0  0  0  0  0
   38.6870   26.1970   42.3460 H   0  0  0  0  0  0  0  0  0  0  0  0
   37.2750   26.4800   43.3670 H   0  0  0  0  0  0  0  0  0  0  0  0
   37.2820   26.3020   40.5870 H   0  0  0  0  0  0  0  0  0  0  0  0
   36.0330   27.0620   41.5800 H   0  0  0  0  0  0  0  0  0  0  0  0
   38.5380   28.3000   40.2790 H   0  0  0  0  0  0  0  0  0  0  0  0
   37.9780   30.7510   40.7310 C   0  0  0  0  0  0  0  0  0  0  0  0
   37.1920   31.8990   40.5300 C   0  0  0  0  0  0  0  0  0  0  0  0
   37.7340   33.0090   39.8750 C   0  0  0  0  0  0  0  0  0  0  0  0
   39.0370   32.8960   39.4600 N   0  0  0  0  0  0  0  0  0  0  0  0
   39.7760   31.7770   39.6660 C   0  0  0  0  0  0  0  0  0  0  0  0
   39.2400   30.7070   40.3030 N   0  0  0  0  0  0  0  0  0  0  0  0
   36.1670   32.0700   40.8220 H   0  0  0  0  0  0  0  0  0  0  0  0
   37.2060   33.9200   39.6810 H   0  0  0  0  0  0  0  0  0  0  0  0
   40.7980   31.7360   39.3220 H   0  0  0  0  0  0  0  0  0  0  0  0
   35.2420   28.8220   39.7260 C   0  0  0  0  0  0  0  0  0  0  0  0
   36.5760   28.5290   39.4150 C   0  0  0  0  0  0  0  0  0  0  0  0
   36.8700   28.4030   38.0790 C   0  0  0  0  0  0  0  0  0  0  0  0
   37.8920   28.1780   37.8500 H   0  0  0  0  0  0  0  0  0  0  0  0
   35.9430   28.5490   37.0870 C   0  0  0  0  0  3  0  0  0  0  0  0
   34.6340   28.8370   37.4130 C   0  0  0  0  0  3  0  0  0  0  0  0
   34.2740   28.9760   38.7550 C   0  0  0  0  0  0  0  0  0  0  0  0
   34.6940   28.9990   41.0120 O   0  0  0  0  0  0  0  0  0  0  0  0
   34.6300   29.9220   41.4040 H   0  0  0  0  0  0  0  0  0  0  0  0
   32.9560   29.2600   38.9560 O   0  0  0  0  0  0  0  0  0  0  0  0
   32.5340   30.1800   38.8060 H   0  0  0  0  0  0  0  0  0  0  0  0
  1  7  1  1  0  0  0
  1  2  1  0  0  0  0
  2  3  1  0  0  0  0
  2  9  1  0  0  0  0
  2  8  1  0  0  0  0
  3 11  1  0  0  0  0
  4  3  1  0  0  0  0
  4 13  1  0  0  0  0
  5 15  1  0  0  0  0
  5  4  1  0  0  0  0
  6 16  1  6  0  0  0
  6  5  1  0  0  0  0
  6  1  1  0  0  0  0
 10  3  1  0  0  0  0
 12  4  1  0  0  0  0
 14  5  1  0  0  0  0
 17  1  1  0  0  0  0
 18 17  1  0  0  0  0
 18 23  1  0  0  0  0
 19 18  2  0  0  0  0
 20 21  2  0  0  0  0
 20 19  1  0  0  0  0
 21 22  1  0  0  0  0
 22 17  2  0  0  0  0
 24 19  1  0  0  0  0
 25 21  1  0  0  0  0
 26 33  1  0  0  0  0
 27 26  1  0  0  0  0
 27  6  1  0  0  0  0
 28 27  2  0  0  0  0
 29 28  1  0  0  0  0
 30 31  2  0  0  0  0
 30 28  1  0  0  0  0
 31 32  1  0  0  0  0
 32 35  1  0  0  0  0
 32 26  2  0  0  0  0
 33 34  1  0  0  0  0
 36 35  1  0  0  0  0
M  END
>  <minimizedAffinity>
-5.39469147

$$$$
