
 OpenBabel03242511553D

 36 38  0  0  1  0  0  0  0  0999 V2000
   47.5740   33.1930   42.5110 C   0  0  2  0  0  0  0  0  0  0  0  0
   49.0150   32.9070   42.3730 C   0  0  0  0  0  0  0  0  0  0  0  0
   49.8980   34.0680   42.7040 C   0  0  0  0  0  0  0  0  0  0  0  0
   49.5550   35.3360   41.9460 C   0  0  0  0  0  0  0  0  0  0  0  0
   48.0630   35.5370   41.7680 C   0  0  0  0  0  0  0  0  0  0  0  0
   47.2730   34.6640   42.6920 C   0  0  1  0  0  0  0  0  0  0  0  0
   47.0420   32.8110   41.5880 H   0  0  0  0  0  0  0  0  0  0  0  0
   49.2650   32.5990   41.3140 H   0  0  0  0  0  0  0  0  0  0  0  0
   49.3380   32.0530   42.9820 H   0  0  0  0  0  0  0  0  0  0  0  0
   50.0900   34.2570   43.7560 H   0  0  0  0  0  0  0  0  0  0  0  0
   50.9100   33.7860   42.2790 H   0  0  0  0  0  0  0  0  0  0  0  0
   49.9350   36.1830   42.5730 H   0  0  0  0  0  0  0  0  0  0  0  0
   50.0940   35.4310   40.9830 H   0  0  0  0  0  0  0  0  0  0  0  0
   47.7850   36.5890   42.0280 H   0  0  0  0  0  0  0  0  0  0  0  0
   47.8580   35.4180   40.7060 H   0  0  0  0  0  0  0  0  0  0  0  0
   47.5150   34.9510   43.7340 H   0  0  0  0  0  0  0  0  0  0  0  0
   46.9550   32.4600   43.6300 C   0  0  0  0  0  0  0  0  0  0  0  0
   47.1230   33.0260   44.9050 C   0  0  0  0  0  0  0  0  0  0  0  0
   46.5690   32.4000   46.0260 C   0  0  0  0  0  0  0  0  0  0  0  0
   45.8780   31.2380   45.7940 N   0  0  0  0  0  0  0  0  0  0  0  0
   45.7280   30.7100   44.5530 C   0  0  0  0  0  0  0  0  0  0  0  0
   46.2700   31.3270   43.4740 N   0  0  0  0  0  0  0  0  0  0  0  0
   47.6480   33.9310   45.1740 H   0  0  0  0  0  0  0  0  0  0  0  0
   46.6500   32.7630   47.0300 H   0  0  0  0  0  0  0  0  0  0  0  0
   45.1750   29.7940   44.4210 H   0  0  0  0  0  0  0  0  0  0  0  0
   45.4690   34.5280   41.0690 C   0  0  0  0  0  0  0  0  0  0  0  0
   45.8440   34.8730   42.3740 C   0  0  0  0  0  0  0  0  0  0  0  0
   44.8440   35.3610   43.1800 C   0  0  0  0  0  0  0  0  0  0  0  0
   45.1400   35.6230   44.1760 H   0  0  0  0  0  0  0  0  0  0  0  0
   43.5510   35.5140   42.7670 C   0  0  0  0  0  0  0  0  0  0  0  0
   43.2010   35.1700   41.4790 C   0  0  0  0  0  0  0  0  0  0  0  0
   44.1750   34.6680   40.6110 C   0  0  0  0  0  0  0  0  0  0  0  0
   46.3030   34.0100   40.0590 O   0  0  0  0  0  0  0  0  0  0  0  0
   46.3760   33.0150   39.9350 H   0  0  0  0  0  0  0  0  0  0  0  0
   43.7130   34.3630   39.3660 O   0  0  0  0  0  0  0  0  0  0  0  0
   43.1650   33.5290   39.1410 H   0  0  0  0  0  0  0  0  0  0  0  0
  1  7  1  6  0  0  0
  1  6  1  0  0  0  0
  1 17  1  0  0  0  0
  2  1  1  0  0  0  0
  2  3  1  0  0  0  0
  2  9  1  0  0  0  0
  3 10  1  0  0  0  0
  4 12  1  0  0  0  0
  4  3  1  0  0  0  0
  5  4  1  0  0  0  0
  5 14  1  0  0  0  0
  5  6  1  0  0  0  0
  6 16  1  1  0  0  0
  8  2  1  0  0  0  0
 11  3  1  0  0  0  0
 13  4  1  0  0  0  0
 15  5  1  0  0  0  0
 17 18  1  0  0  0  0
 18 23  1  0  0  0  0
 18 19  2  0  0  0  0
 19 24  1  0  0  0  0
 20 19  1  0  0  0  0
 21 20  2  0  0  0  0
 22 17  2  0  0  0  0
 22 21  1  0  0  0  0
 25 21  1  0  0  0  0
 26 27  1  0  0  0  0
 27  6  1  0  0  0  0
 27 28  2  0  0  0  0
 28 29  1  0  0  0  0
 30 28  1  0  0  0  0
 31 30  2  0  0  0  0
 32 26  2  0  0  0  0
 32 31  1  0  0  0  0
 33 26  1  0  0  0  0
 34 33  1  0  0  0  0
 35 32  1  0  0  0  0
 36 35  1  0  0  0  0
M  END
>  <minimizedAffinity>
-5.58105183

>  <minimizedRMSD>
5.21537495

$$$$
