
 OpenBabel03252505313D

 29 30  0  0  0  0  0  0  0  0999 V2000
   45.5090   30.6800   46.5040 O   0  0  0  0  0  0  0  0  0  0  0  0
   44.8110   29.9110   47.3870 C   0  0  0  0  0  0  0  0  0  0  0  0
   43.7060   29.9950   47.1960 H   0  0  0  0  0  0  0  0  0  0  0  0
   44.9240   30.2870   48.4390 H   0  0  0  0  0  0  0  0  0  0  0  0
   46.3370   27.9120   47.6300 C   0  0  0  0  0  0  0  0  0  0  0  0
   45.1100   28.4590   47.3270 C   0  0  0  0  0  0  0  0  0  0  0  0
   44.0960   27.5970   46.9390 C   0  0  0  0  0  0  0  0  0  0  0  0
   43.1100   27.9530   46.6840 H   0  0  0  0  0  0  0  0  0  0  0  0
   44.2360   26.2210   46.8350 C   0  0  0  0  0  3  0  0  0  0  0  0
   45.4790   25.6900   47.1440 C   0  0  0  0  0  3  0  0  0  0  0  0
   46.4940   26.5620   47.5330 C   0  0  0  0  0  0  0  0  0  0  0  0
   47.3490   28.7750   48.0180 O   0  0  0  0  0  0  0  0  0  0  0  0
   48.1070   29.0930   47.4330 H   0  0  0  0  0  0  0  0  0  0  0  0
   47.7390   26.0410   47.8440 O   0  0  0  0  0  0  0  0  0  0  0  0
   47.9560   25.9110   48.8210 H   0  0  0  0  0  0  0  0  0  0  0  0
   46.9280   31.7360   48.3890 O   0  0  0  0  0  0  0  0  0  0  0  0
   45.9400   32.1210   47.2880 P   0  0  2  0  0  0  0  0  0  0  0  0
   44.5280   32.7900   47.9220 O   0  0  0  0  0  0  0  0  0  0  0  0
   44.7710   33.1130   48.8480 H   0  0  0  0  0  0  0  0  0  0  0  0
   46.7160   33.2080   46.2710 O   0  0  0  0  0  0  0  0  0  0  0  0
   44.4620   35.5130   44.8110 C   0  0  0  0  0  0  0  0  0  0  0  0
   44.8590   35.6260   43.4570 C   0  0  0  0  0  0  0  0  0  0  0  0
   45.9730   34.8380   43.0840 C   0  0  0  0  0  0  0  0  0  0  0  0
   46.5660   34.0480   44.0400 N   0  0  0  0  0  0  0  0  0  0  0  0
   46.1350   33.9920   45.2990 C   0  0  0  0  0  0  0  0  0  0  0  0
   45.0920   34.7210   45.6740 N   0  0  0  0  0  0  0  0  0  0  0  0
   43.5960   36.1390   45.0540 H   0  0  0  0  0  0  0  0  0  0  0  0
   44.3560   36.2620   42.7410 H   0  0  0  0  0  0  0  0  0  0  0  0
   46.3340   34.8700   42.0670 H   0  0  0  0  0  0  0  0  0  0  0  0
  1 17  1  0  0  0  0
  1  2  1  0  0  0  0
  2  4  1  0  0  0  0
  3  2  1  0  0  0  0
  5 12  1  0  0  0  0
  6  2  1  0  0  0  0
  6  5  2  0  0  0  0
  7  6  1  0  0  0  0
  8  7  1  0  0  0  0
  9  7  2  0  0  0  0
  9 10  1  0  0  0  0
 10 11  2  0  0  0  0
 11  5  1  0  0  0  0
 11 14  1  0  0  0  0
 13 12  1  0  0  0  0
 14 15  1  0  0  0  0
 17 18  1  0  0  0  0
 17 16  2  1  0  0  0
 18 19  1  0  0  0  0
 20 17  1  0  0  0  0
 21 27  1  0  0  0  0
 21 26  1  0  0  0  0
 22 21  2  0  0  0  0
 23 22  1  0  0  0  0
 23 24  2  0  0  0  0
 24 25  1  0  0  0  0
 25 26  2  0  0  0  0
 25 20  1  0  0  0  0
 28 22  1  0  0  0  0
 29 23  1  0  0  0  0
M  END
>  <minimizedAffinity>
-4.77270746

>  <minimizedRMSD>
1.23767209

$$$$
