
 OpenBabel03252505113D

 46 49  0  0  1  0  0  0  0  0999 V2000
   44.6850   35.3140   44.7750 C   0  0  0  0  0  0  0  0  0  0  0  0
   45.3820   35.3950   43.5510 C   0  0  0  0  0  0  0  0  0  0  0  0
   46.5010   34.5120   43.3590 C   0  0  0  0  0  0  0  0  0  0  0  0
   46.8220   33.6600   44.3520 N   0  0  0  0  0  0  0  0  0  0  0  0
   46.1370   33.6130   45.4980 C   0  0  0  0  0  0  0  0  0  0  0  0
   45.0590   34.4380   45.7270 N   0  0  0  0  0  0  0  0  0  0  0  0
   43.8370   35.9600   44.9620 H   0  0  0  0  0  0  0  0  0  0  0  0
   45.0770   36.0910   42.8070 H   0  0  0  0  0  0  0  0  0  0  0  0
   46.5390   32.6570   46.5630 C   0  0  2  0  0  0  0  0  0  0  0  0
   46.9790   31.4130   45.8200 C   0  0  0  0  0  0  0  0  0  0  0  0
   46.0440   30.2780   45.8390 C   0  0  0  0  0  0  0  0  0  0  0  0
   45.7960   29.9980   47.3220 C   0  0  0  0  0  0  0  0  0  0  0  0
   45.0860   31.0880   47.9840 C   0  0  0  0  0  0  0  0  0  0  0  0
   45.5160   32.4460   47.5460 C   0  0  0  0  0  0  0  0  0  0  0  0
   47.4330   33.1320   47.0430 H   0  0  0  0  0  0  0  0  0  0  0  0
   47.9300   31.0760   46.2880 H   0  0  0  0  0  0  0  0  0  0  0  0
   47.2550   31.6150   44.7590 H   0  0  0  0  0  0  0  0  0  0  0  0
   45.1010   30.5020   45.3270 H   0  0  0  0  0  0  0  0  0  0  0  0
   46.5490   29.3950   45.4540 H   0  0  0  0  0  0  0  0  0  0  0  0
   46.7390   29.7100   47.7840 H   0  0  0  0  0  0  0  0  0  0  0  0
   45.0980   29.1360   47.3230 H   0  0  0  0  0  0  0  0  0  0  0  0
   44.3050   31.1010   48.7310 H   0  0  0  0  0  0  0  0  0  0  0  0
   44.9080   33.6090   48.1040 N   0  0  0  0  0  0  0  0  0  0  0  0
   45.5770   34.0100   48.7750 H   0  0  0  0  0  0  0  0  0  0  0  0
   43.9450   33.8510   47.7650 H   0  0  0  0  0  0  0  0  0  0  0  0
   47.2340   34.5710   42.1100 C   0  0  0  0  0  0  0  0  0  0  0  0
   48.1170   35.5730   41.9170 C   0  0  0  0  0  0  0  0  0  0  0  0
   48.7880   35.5880   40.6880 C   0  0  0  0  0  0  0  0  0  0  0  0
   48.4800   34.5770   39.7940 C   0  0  0  0  0  0  0  0  0  0  0  0
   47.5790   33.5560   39.9940 C   0  0  0  0  0  0  0  0  0  0  0  0
   46.9610   33.5960   41.2060 N   0  0  0  0  0  0  0  0  0  0  0  0
   48.3150   36.3360   42.6550 H   0  0  0  0  0  0  0  0  0  0  0  0
   49.5050   36.3700   40.4860 H   0  0  0  0  0  0  0  0  0  0  0  0
   49.0390   34.6640   38.8720 H   0  0  0  0  0  0  0  0  0  0  0  0
   47.3280   32.5970   39.0580 O   0  0  0  0  0  0  0  0  0  0  0  0
   49.1720   31.9340   37.5790 C   0  0  0  0  0  0  0  0  0  0  0  0
   47.9200   32.3730   37.8730 C   0  0  0  0  0  0  0  0  0  0  0  0
   47.0890   32.6440   36.7780 C   0  0  0  0  0  0  0  0  0  0  0  0
   46.0520   33.0050   36.8680 H   0  0  0  0  0  0  0  0  0  0  0  0
   47.4980   32.4810   35.4680 C   0  0  0  0  0  3  0  0  0  0  0  0
   48.7870   32.0300   35.2380 C   0  0  0  0  0  3  0  0  0  0  0  0
   49.6330   31.7530   36.2900 C   0  0  0  0  0  0  0  0  0  0  0  0
   49.9810   31.6700   38.6800 O   0  0  0  0  0  0  0  0  0  0  0  0
   50.9750   31.8230   38.5520 H   0  0  0  0  0  0  0  0  0  0  0  0
   50.9320   31.3000   36.1250 O   0  0  0  0  0  0  0  0  0  0  0  0
   51.6780   31.9530   36.3710 H   0  0  0  0  0  0  0  0  0  0  0  0
  1  7  1  0  0  0  0
  1  6  1  0  0  0  0
  2  1  2  0  0  0  0
  3  2  1  0  0  0  0
  3  4  2  0  0  0  0
  4  5  1  0  0  0  0
  5  6  2  0  0  0  0
  5  9  1  0  0  0  0
  8  2  1  0  0  0  0
  9 15  1  1  0  0  0
  9 14  1  0  0  0  0
 10 11  1  0  0  0  0
 10 16  1  0  0  0  0
 10  9  1  0  0  0  0
 11 12  1  0  0  0  0
 12 21  1  0  0  0  0
 12 20  1  0  0  0  0
 12 13  1  0  0  0  0
 13 22  1  0  0  0  0
 14 13  2  0  0  0  0
 14 23  1  0  0  0  0
 17 10  1  0  0  0  0
 18 11  1  0  0  0  0
 19 11  1  0  0  0  0
 23 24  1  0  0  0  0
 25 23  1  0  0  0  0
 26  3  1  0  0  0  0
 27 26  1  0  0  0  0
 27 32  1  0  0  0  0
 28 27  2  0  0  0  0
 29 30  2  0  0  0  0
 29 28  1  0  0  0  0
 30 31  1  0  0  0  0
 31 26  2  0  0  0  0
 33 28  1  0  0  0  0
 34 29  1  0  0  0  0
 35 30  1  0  0  0  0
 36 37  1  0  0  0  0
 36 43  1  0  0  0  0
 37 35  1  0  0  0  0
 38 39  1  0  0  0  0
 38 37  2  0  0  0  0
 40 38  1  0  0  0  0
 41 40  2  0  0  0  0
 41 42  1  0  0  0  0
 42 36  2  0  0  0  0
 44 43  1  0  0  0  0
 45 42  1  0  0  0  0
 45 46  1  0  0  0  0
M  END
>  <minimizedAffinity>
-7.25292015

>  <minimizedRMSD>
1.04419959

$$$$
