
 OpenBabel03252505193D

 36 39  0  0  0  0  0  0  0  0999 V2000
   46.2520   32.6200   46.9310 C   0  0  0  0  0  0  0  0  0  0  0  0
   45.2180   32.5850   47.8590 C   0  0  0  0  0  0  0  0  0  0  0  0
   45.3390   31.7570   48.9570 C   0  0  0  0  0  0  0  0  0  0  0  0
   46.4910   31.0040   49.0720 C   0  0  0  0  0  0  0  0  0  0  0  0
   47.4930   31.0780   48.1180 C   0  0  0  0  0  0  0  0  0  0  0  0
   47.3680   31.8970   47.0360 N   0  0  0  0  0  0  0  0  0  0  0  0
   44.3490   33.2050   47.6960 H   0  0  0  0  0  0  0  0  0  0  0  0
   44.5350   31.7300   49.6790 H   0  0  0  0  0  0  0  0  0  0  0  0
   46.5530   30.3780   49.9310 H   0  0  0  0  0  0  0  0  0  0  0  0
   44.9170   35.1470   44.5860 C   0  0  0  0  0  0  0  0  0  0  0  0
   45.8120   35.0830   43.5020 C   0  0  0  0  0  0  0  0  0  0  0  0
   46.8480   34.1800   43.6210 C   0  0  0  0  0  0  0  0  0  0  0  0
   46.9830   33.3930   44.7440 N   0  0  0  0  0  0  0  0  0  0  0  0
   46.0880   33.4910   45.7700 C   0  0  0  0  0  0  0  0  0  0  0  0
   45.0660   34.3710   45.6700 N   0  0  0  0  0  0  0  0  0  0  0  0
   44.0870   35.8420   44.5390 H   0  0  0  0  0  0  0  0  0  0  0  0
   45.7150   35.6900   42.6260 H   0  0  0  0  0  0  0  0  0  0  0  0
   47.8380   34.0050   42.5120 C   0  0  0  0  0  0  0  0  0  0  0  0
   48.1300   35.2990   41.7520 C   0  0  0  0  0  0  0  0  0  0  0  0
   49.1630   34.5420   42.6540 C   0  0  0  0  0  0  0  0  0  0  0  0
   47.5790   33.1250   41.8750 H   0  0  0  0  0  0  0  0  0  0  0  0
   48.2440   35.1650   40.6780 H   0  0  0  0  0  0  0  0  0  0  0  0
   47.7870   36.2570   42.1460 H   0  0  0  0  0  0  0  0  0  0  0  0
   49.4740   35.0520   43.5780 H   0  0  0  0  0  0  0  0  0  0  0  0
   49.9750   34.0480   42.0650 H   0  0  0  0  0  0  0  0  0  0  0  0
   49.6710   30.5840   49.1760 C   0  0  0  0  0  0  0  0  0  0  0  0
   48.7100   30.2880   48.2330 C   0  0  0  0  0  0  0  0  0  0  0  0
   49.0170   29.2030   47.4420 C   0  0  0  0  0  0  0  0  0  0  0  0
   48.3200   28.8990   46.6770 H   0  0  0  0  0  0  0  0  0  0  0  0
   50.1760   28.4670   47.5680 C   0  0  0  0  0  3  0  0  0  0  0  0
   51.1010   28.8170   48.5350 C   0  0  0  0  0  3  0  0  0  0  0  0
   50.8440   29.8790   49.3400 C   0  0  0  0  0  0  0  0  0  0  0  0
   49.4800   31.6560   50.0350 O   0  0  0  0  0  0  0  0  0  0  0  0
   49.8410   32.5700   49.7910 H   0  0  0  0  0  0  0  0  0  0  0  0
   51.7720   30.2440   50.3230 O   0  0  0  0  0  0  0  0  0  0  0  0
   52.7470   30.3560   50.0900 H   0  0  0  0  0  0  0  0  0  0  0  0
  1  6  2  0  0  0  0
  1  2  1  0  0  0  0
  2  3  2  0  0  0  0
  3  4  1  0  0  0  0
  3  8  1  0  0  0  0
  4  9  1  0  0  0  0
  5 27  1  0  0  0  0
  5  4  2  0  0  0  0
  6  5  1  0  0  0  0
  7  2  1  0  0  0  0
 10 15  1  0  0  0  0
 11 12  1  0  0  0  0
 11 10  2  0  0  0  0
 12 13  2  0  0  0  0
 13 14  1  0  0  0  0
 14  1  1  0  0  0  0
 15 14  2  0  0  0  0
 16 10  1  0  0  0  0
 17 11  1  0  0  0  0
 18 20  1  0  0  0  0
 18 12  1  0  0  0  0
 19 23  1  0  0  0  0
 19 18  1  0  0  0  0
 19 20  1  0  0  0  0
 20 24  1  0  0  0  0
 21 18  1  0  0  0  0
 22 19  1  0  0  0  0
 25 20  1  0  0  0  0
 26 32  1  0  0  0  0
 26 33  1  0  0  0  0
 27 26  2  0  0  0  0
 28 30  2  0  0  0  0
 28 27  1  0  0  0  0
 29 28  1  0  0  0  0
 30 31  1  0  0  0  0
 31 32  2  0  0  0  0
 32 35  1  0  0  0  0
 34 33  1  0  0  0  0
 36 35  1  0  0  0  0
M  END
>  <minimizedAffinity>
-6.52579117

>  <minimizedRMSD>
1.13152158

$$$$
