
 OpenBabel03242522033D

 37 39  0  0  1  0  0  0  0  0999 V2000
   44.4910   35.3420   45.6330 C   0  0  0  0  0  0  0  0  0  0  0  0
   45.1500   35.1860   44.4030 C   0  0  0  0  0  0  0  0  0  0  0  0
   45.9900   34.0910   44.2320 C   0  0  0  0  0  0  0  0  0  0  0  0
   46.1220   33.2310   45.2740 N   0  0  0  0  0  0  0  0  0  0  0  0
   45.4760   33.4040   46.4500 C   0  0  0  0  0  0  0  0  0  0  0  0
   44.6550   34.4650   46.6300 N   0  0  0  0  0  0  0  0  0  0  0  0
   43.8380   36.2000   45.7540 H   0  0  0  0  0  0  0  0  0  0  0  0
   45.0400   35.8720   43.5790 H   0  0  0  0  0  0  0  0  0  0  0  0
   46.7150   33.8210   43.0310 N   0  0  0  0  0  0  0  0  0  0  0  0
   46.0120   33.4470   41.8120 C   0  0  0  0  0  0  0  0  0  0  0  0
   46.9100   32.7220   40.8600 C   0  0  0  0  0  0  0  0  0  0  0  0
   48.1460   33.3660   40.5990 N   0  0  0  0  0  0  0  0  0  0  0  0
   48.7550   34.0500   41.6780 C   0  0  2  0  0  0  0  0  0  0  0  0
   48.1400   33.9160   43.0130 C   0  0  0  0  0  0  0  0  0  0  0  0
   45.6580   34.4020   41.3320 H   0  0  0  0  0  0  0  0  0  0  0  0
   45.1100   32.8420   41.9910 H   0  0  0  0  0  0  0  0  0  0  0  0
   47.1120   31.7180   41.2940 H   0  0  0  0  0  0  0  0  0  0  0  0
   46.3540   32.5450   39.9210 H   0  0  0  0  0  0  0  0  0  0  0  0
   48.0080   33.9840   39.7530 H   0  0  0  0  0  0  0  0  0  0  0  0
   49.8100   33.6870   41.7600 H   0  0  0  0  0  0  0  0  0  0  0  0
   48.5480   32.9790   43.4900 H   0  0  0  0  0  0  0  0  0  0  0  0
   48.5120   34.7370   43.6650 H   0  0  0  0  0  0  0  0  0  0  0  0
   48.8000   35.5280   41.3410 C   0  0  0  0  0  0  0  0  0  0  0  0
   49.9180   36.1310   41.9110 F   0  0  0  0  0  0  0  0  0  0  0  0
   47.7130   36.1080   41.9830 F   0  0  0  0  0  0  0  0  0  0  0  0
   48.8100   35.7890   40.0030 F   0  0  0  0  0  0  0  0  0  0  0  0
   46.9090   32.2950   48.1410 C   0  0  0  0  0  0  0  0  0  0  0  0
   45.7030   32.4170   47.4810 C   0  0  0  0  0  0  0  0  0  0  0  0
   44.6870   31.5650   47.8250 C   0  0  0  0  0  0  0  0  0  0  0  0
   43.7070   31.5920   47.3550 H   0  0  0  0  0  0  0  0  0  0  0  0
   44.8240   30.5860   48.8070 C   0  0  0  0  0  0  0  0  0  0  0  0
   46.0380   30.4760   49.4600 C   0  0  0  0  0  0  0  0  0  0  0  0
   47.0740   31.3310   49.1230 C   0  0  0  0  0  0  0  0  0  0  0  0
   47.9240   33.1740   47.7730 O   0  0  0  0  0  0  0  0  0  0  0  0
   47.8510   34.1500   48.0440 H   0  0  0  0  0  0  0  0  0  0  0  0
   48.2930   31.2210   49.7780 O   0  0  0  0  0  0  0  0  0  0  0  0
   48.5360   31.8540   50.5300 H   0  0  0  0  0  0  0  0  0  0  0  0
  1  7  1  0  0  0  0
  1  6  1  0  0  0  0
  2  1  2  0  0  0  0
  3  2  1  0  0  0  0
  3  4  2  0  0  0  0
  4  5  1  0  0  0  0
  5  6  2  0  0  0  0
  5 28  1  0  0  0  0
  8  2  1  0  0  0  0
  9  3  1  0  0  0  0
 10 16  1  0  0  0  0
 10  9  1  0  0  0  0
 11 17  1  0  0  0  0
 11 10  1  0  0  0  0
 12 11  1  0  0  0  0
 12 13  1  0  0  0  0
 13 20  1  1  0  0  0
 13 14  1  0  0  0  0
 14  9  1  0  0  0  0
 14 21  1  0  0  0  0
 14 22  1  0  0  0  0
 15 10  1  0  0  0  0
 18 11  1  0  0  0  0
 19 12  1  0  0  0  0
 23 13  1  0  0  0  0
 23 24  1  0  0  0  0
 23 25  1  0  0  0  0
 26 23  1  0  0  0  0
 27 33  1  0  0  0  0
 28 29  1  0  0  0  0
 28 27  2  0  0  0  0
 29 31  2  0  0  0  0
 30 29  1  0  0  0  0
 31 32  1  0  0  0  0
 33 32  2  0  0  0  0
 33 36  1  0  0  0  0
 34 35  1  0  0  0  0
 34 27  1  0  0  0  0
 36 37  1  0  0  0  0
M  END
>  <minimizedAffinity>
-6.83376789

>  <minimizedRMSD>
1.26084995

$$$$
