
 OpenBabel03242518363D

 37 40  0  0  1  0  0  0  0  0999 V2000
   48.0710   33.8610   40.9630 C   0  0  0  0  0  0  0  0  0  0  0  0
   49.2380   34.1130   41.6820 C   0  0  0  0  0  0  0  0  0  0  0  0
   49.3560   33.1640   42.6860 C   0  0  0  0  0  0  0  0  0  0  0  0
   48.2450   32.3770   42.5240 C   0  0  0  0  0  0  0  0  0  0  0  0
   47.5020   32.7880   41.5200 O   0  0  0  0  0  0  0  0  0  0  0  0
   49.8850   34.9530   41.4120 H   0  0  0  0  0  0  0  0  0  0  0  0
   50.1720   33.1250   43.3940 H   0  0  0  0  0  0  0  0  0  0  0  0
   47.9240   31.2110   43.3650 C   0  0  2  0  0  0  0  0  0  0  0  0
   46.5110   30.8400   43.5890 C   0  0  0  0  0  0  0  0  0  0  0  0
   47.2120   31.5750   44.6870 C   0  0  1  0  0  0  0  0  0  0  0  0
   48.7830   30.5170   43.4740 H   0  0  0  0  0  0  0  0  0  0  0  0
   45.7160   31.3740   43.0560 H   0  0  0  0  0  0  0  0  0  0  0  0
   46.3000   29.7400   43.6960 H   0  0  0  0  0  0  0  0  0  0  0  0
   46.9340   32.6420   44.8470 H   0  0  0  0  0  0  0  0  0  0  0  0
   47.3020   31.1650   47.1160 C   0  0  0  0  0  0  0  0  0  0  0  0
   47.6720   30.7730   45.8470 C   0  0  0  0  0  0  0  0  0  0  0  0
   48.4580   29.6430   45.7380 C   0  0  0  0  0  0  0  0  0  0  0  0
   48.7630   29.3120   44.7550 H   0  0  0  0  0  0  0  0  0  0  0  0
   48.8470   28.9470   46.8640 C   0  0  0  0  0  3  0  0  0  0  0  0
   48.4840   29.3300   48.1360 C   0  0  0  0  0  3  0  0  0  0  0  0
   47.6980   30.4590   48.2570 C   0  0  0  0  0  0  0  0  0  0  0  0
   46.5090   32.3020   47.2540 O   0  0  0  0  0  0  0  0  0  0  0  0
   46.3460   32.6820   48.1670 H   0  0  0  0  0  0  0  0  0  0  0  0
   47.3090   30.8770   49.5280 O   0  0  0  0  0  0  0  0  0  0  0  0
   48.0030   31.4550   50.0080 H   0  0  0  0  0  0  0  0  0  0  0  0
   47.5020   34.5230   39.8580 O   0  0  0  0  0  0  0  0  0  0  0  0
   47.8140   34.0990   38.5510 C   0  0  0  0  0  0  0  0  0  0  0  0
   48.6990   34.7720   37.9570 O   0  0  0  0  0  0  0  0  0  0  0  0
   47.1000   32.9730   38.0600 C   0  0  0  0  0  0  0  0  0  0  0  0
   47.8640   32.0530   37.3950 C   0  0  0  0  0  0  0  0  0  0  0  0
   47.2280   30.9220   36.8850 C   0  0  0  0  0  0  0  0  0  0  0  0
   45.9040   30.7970   37.0740 N   0  0  0  0  0  0  0  0  0  0  0  0
   45.1860   31.7130   37.7290 C   0  0  0  0  0  0  0  0  0  0  0  0
   45.8030   32.8050   38.2200 N   0  0  0  0  0  0  0  0  0  0  0  0
   48.9410   32.0740   37.1960 H   0  0  0  0  0  0  0  0  0  0  0  0
   47.7760   30.1540   36.3470 H   0  0  0  0  0  0  0  0  0  0  0  0
   44.1160   31.5190   37.8290 H   0  0  0  0  0  0  0  0  0  0  0  0
  1  5  1  0  0  0  0
  1  2  2  0  0  0  0
  2  3  1  0  0  0  0
  3  7  1  0  0  0  0
  4  3  2  0  0  0  0
  4  8  1  0  0  0  0
  5  4  1  0  0  0  0
  6  2  1  0  0  0  0
  8 11  1  1  0  0  0
  8  9  1  0  0  0  0
  8 10  1  0  0  0  0
  9 13  1  0  0  0  0
  9 10  1  0  0  0  0
 10 14  1  1  0  0  0
 10 16  1  0  0  0  0
 12  9  1  0  0  0  0
 15 22  1  0  0  0  0
 15 21  1  0  0  0  0
 16 15  2  0  0  0  0
 17 16  1  0  0  0  0
 17 19  2  0  0  0  0
 18 17  1  0  0  0  0
 19 20  1  0  0  0  0
 20 21  2  0  0  0  0
 21 24  1  0  0  0  0
 22 23  1  0  0  0  0
 24 25  1  0  0  0  0
 26  1  1  0  0  0  0
 27 26  1  0  0  0  0
 28 27  2  0  0  0  0
 29 34  1  0  0  0  0
 29 27  1  0  0  0  0
 30 29  2  0  0  0  0
 31 32  2  0  0  0  0
 31 30  1  0  0  0  0
 32 33  1  0  0  0  0
 33 37  1  0  0  0  0
 33 34  2  0  0  0  0
 35 30  1  0  0  0  0
 36 31  1  0  0  0  0
M  END
>  <minimizedAffinity>
-4.37229395

>  <minimizedRMSD>
9.61649513

$$$$
