
 OpenBabel03252508153D

 39 42  0  0  1  0  0  0  0  0999 V2000
   45.7530   33.0810   46.2060 C   0  0  0  0  0  3  0  0  0  0  0  0
   46.0820   31.9370   45.7490 C   0  0  0  0  0  3  0  0  0  0  0  0
   44.4740   36.1600   44.6420 C   0  0  0  0  0  0  0  0  0  0  0  0
   45.0830   36.1350   43.3930 C   0  0  0  0  0  0  0  0  0  0  0  0
   45.9190   35.1010   43.1180 C   0  0  0  0  0  0  0  0  0  0  0  0
   46.0990   34.1660   44.0830 N   0  0  0  0  0  0  0  0  0  0  0  0
   45.5220   34.1740   45.2820 C   0  0  0  0  0  0  0  0  0  0  0  0
   44.7030   35.2020   45.5350 N   0  0  0  0  0  0  0  0  0  0  0  0
   43.7960   36.9670   44.9180 H   0  0  0  0  0  0  0  0  0  0  0  0
   44.9100   36.8940   42.6640 H   0  0  0  0  0  0  0  0  0  0  0  0
   46.2390   34.2280   40.7560 C   0  0  0  0  0  0  0  0  0  0  0  0
   46.6610   34.8650   41.8900 C   0  0  0  0  0  0  0  0  0  0  0  0
   47.9670   35.3150   41.7840 C   0  0  0  0  0  0  0  0  0  0  0  0
   48.4730   35.8520   42.6030 H   0  0  0  0  0  0  0  0  0  0  0  0
   48.7500   35.1410   40.6630 C   0  0  0  0  0  3  0  0  0  0  0  0
   48.2540   34.4880   39.5560 C   0  0  0  0  0  3  0  0  0  0  0  0
   46.9650   34.0240   39.6160 C   0  0  0  0  0  0  0  0  0  0  0  0
   44.9610   33.7380   40.7420 O   0  0  0  0  0  0  0  0  0  0  0  0
   44.2480   34.3040   40.2840 H   0  0  0  0  0  0  0  0  0  0  0  0
   46.4610   33.3730   38.5220 O   0  0  0  0  0  0  0  0  0  0  0  0
   46.1620   33.9560   37.7360 H   0  0  0  0  0  0  0  0  0  0  0  0
   46.2790   30.8520   46.7970 C   0  0  0  0  0  0  0  0  0  0  0  0
   45.4490   30.1300   46.5650 H   0  0  0  0  0  0  0  0  0  0  0  0
   47.2370   30.3430   46.6670 H   0  0  0  0  0  0  0  0  0  0  0  0
   46.0030   31.4010   48.1560 C   0  0  1  0  0  0  0  0  0  0  0  0
   45.7590   30.4160   49.2510 C   0  0  0  0  0  0  0  0  0  0  0  0
   46.9850   31.1920   49.2520 C   0  0  1  0  0  0  0  0  0  0  0  0
   45.3960   32.3470   48.2050 H   0  0  0  0  0  0  0  0  0  0  0  0
   45.8210   29.3340   48.9840 H   0  0  0  0  0  0  0  0  0  0  0  0
   44.9350   30.6210   49.9580 H   0  0  0  0  0  0  0  0  0  0  0  0
   47.0210   32.0150   50.0290 H   0  0  0  0  0  0  0  0  0  0  0  0
   48.3270   30.6880   48.8890 C   0  0  0  0  0  0  0  0  0  0  0  0
   49.2530   30.4250   50.1060 C   0  0  0  0  0  0  0  0  0  0  0  0
   49.5170   31.6060   49.2350 C   0  0  0  0  0  0  0  0  0  0  0  0
   48.4580   29.9770   48.0500 H   0  0  0  0  0  0  0  0  0  0  0  0
   49.9080   29.5530   50.0460 H   0  0  0  0  0  0  0  0  0  0  0  0
   48.8620   30.6730   51.1110 H   0  0  0  0  0  0  0  0  0  0  0  0
   50.4000   31.5100   48.5810 H   0  0  0  0  0  0  0  0  0  0  0  0
   49.2460   32.6180   49.5450 H   0  0  0  0  0  0  0  0  0  0  0  0
  2  1  2  0  0  0  0
  2 22  1  0  0  0  0
  3  9  1  0  0  0  0
  3  8  1  0  0  0  0
  4  3  2  0  0  0  0
  5  4  1  0  0  0  0
  5  6  2  0  0  0  0
  6  7  1  0  0  0  0
  7  8  2  0  0  0  0
  7  1  1  0  0  0  0
 10  4  1  0  0  0  0
 11 12  1  0  0  0  0
 12  5  1  0  0  0  0
 13 12  2  0  0  0  0
 13 14  1  0  0  0  0
 15 13  1  0  0  0  0
 16 17  1  0  0  0  0
 16 15  2  0  0  0  0
 17 11  2  0  0  0  0
 18 11  1  0  0  0  0
 19 18  1  0  0  0  0
 20 17  1  0  0  0  0
 21 20  1  0  0  0  0
 22 25  1  0  0  0  0
 23 22  1  0  0  0  0
 24 22  1  0  0  0  0
 25 28  1  1  0  0  0
 25 26  1  0  0  0  0
 25 27  1  0  0  0  0
 26 27  1  0  0  0  0
 26 30  1  0  0  0  0
 27 31  1  1  0  0  0
 29 26  1  0  0  0  0
 32 34  1  0  0  0  0
 32 27  1  0  0  0  0
 32 33  1  0  0  0  0
 33 37  1  0  0  0  0
 34 39  1  0  0  0  0
 34 33  1  0  0  0  0
 35 32  1  0  0  0  0
 36 33  1  0  0  0  0
 38 34  1  0  0  0  0
M  END
>  <minimizedAffinity>
-6.4492898

>  <minimizedRMSD>
0.779671133

$$$$
