
 OpenBabel03252500513D

 37 39  0  0  0  0  0  0  0  0999 V2000
   44.8450   35.0770   42.4470 C   0  0  0  0  0  0  0  0  0  0  0  0
   45.7640   35.2740   41.6250 O   0  0  0  0  0  0  0  0  0  0  0  0
   44.9060   34.9640   44.8840 C   0  0  0  0  0  0  0  0  0  0  0  0
   45.1570   34.3650   43.6750 C   0  0  0  0  0  0  0  0  0  0  0  0
   45.7130   33.0680   43.6040 C   0  0  0  0  0  0  0  0  0  0  0  0
   45.9800   32.4590   44.8060 N   0  0  0  0  0  0  0  0  0  0  0  0
   45.7330   33.0480   45.9710 C   0  0  0  0  0  0  0  0  0  0  0  0
   45.2010   34.2890   46.0070 N   0  0  0  0  0  0  0  0  0  0  0  0
   44.4890   35.9350   45.0110 H   0  0  0  0  0  0  0  0  0  0  0  0
   45.9170   32.5800   42.6690 H   0  0  0  0  0  0  0  0  0  0  0  0
   46.0320   32.3690   47.2220 C   0  0  0  0  0  0  0  0  0  0  0  0
   47.2970   32.0340   47.5900 C   0  0  0  0  0  0  0  0  0  0  0  0
   47.5940   31.3950   48.7630 C   0  0  0  0  0  0  0  0  0  0  0  0
   46.5570   31.0930   49.5750 N   0  0  0  0  0  0  0  0  0  0  0  0
   45.3190   31.4220   49.2100 C   0  0  0  0  0  0  0  0  0  0  0  0
   45.0010   32.0480   48.0690 N   0  0  0  0  0  0  0  0  0  0  0  0
   48.1300   32.2730   46.9430 H   0  0  0  0  0  0  0  0  0  0  0  0
   48.5940   31.1230   49.0700 H   0  0  0  0  0  0  0  0  0  0  0  0
   44.4700   31.1880   49.8490 H   0  0  0  0  0  0  0  0  0  0  0  0
   43.7000   35.6190   41.9420 O   0  0  0  0  0  0  0  0  0  0  0  0
   42.6440   34.8840   41.4700 C   0  0  0  0  0  0  0  0  0  0  0  0
   42.7850   34.8320   40.3460 H   0  0  0  0  0  0  0  0  0  0  0  0
   42.5890   33.8140   41.7490 H   0  0  0  0  0  0  0  0  0  0  0  0
   41.2910   35.5710   41.6050 C   0  0  0  0  0  0  0  0  0  0  0  0
   41.2890   36.5690   41.1590 H   0  0  0  0  0  0  0  0  0  0  0  0
   41.0070   35.5280   42.6640 H   0  0  0  0  0  0  0  0  0  0  0  0
   40.0480   34.9380   39.5010 C   0  0  0  0  0  0  0  0  0  0  0  0
   40.3170   34.7270   40.8430 C   0  0  0  0  0  0  0  0  0  0  0  0
   39.6390   33.6860   41.4700 C   0  0  0  0  0  0  0  0  0  0  0  0
   39.8670   33.5410   42.5190 H   0  0  0  0  0  0  0  0  0  0  0  0
   38.7230   32.8640   40.8260 C   0  0  0  0  0  3  0  0  0  0  0  0
   38.4810   33.1060   39.4830 C   0  0  0  0  0  3  0  0  0  0  0  0
   39.1310   34.1220   38.8400 C   0  0  0  0  0  0  0  0  0  0  0  0
   40.6890   35.9560   38.8260 O   0  0  0  0  0  0  0  0  0  0  0  0
   40.3480   36.3470   37.9540 H   0  0  0  0  0  0  0  0  0  0  0  0
   38.8290   34.2940   37.4960 O   0  0  0  0  0  0  0  0  0  0  0  0
   38.6020   33.5050   36.8880 H   0  0  0  0  0  0  0  0  0  0  0  0
  1  4  1  0  0  0  0
  2  1  2  0  0  0  0
  3  9  1  0  0  0  0
  3  8  1  0  0  0  0
  4  3  2  0  0  0  0
  5  4  1  0  0  0  0
  5  6  2  0  0  0  0
  6  7  1  0  0  0  0
  7  8  2  0  0  0  0
  7 11  1  0  0  0  0
 10  5  1  0  0  0  0
 11 12  2  0  0  0  0
 11 16  1  0  0  0  0
 12 13  1  0  0  0  0
 13 18  1  0  0  0  0
 13 14  2  0  0  0  0
 15 14  1  0  0  0  0
 15 19  1  0  0  0  0
 16 15  2  0  0  0  0
 17 12  1  0  0  0  0
 20  1  1  0  0  0  0
 21 24  1  0  0  0  0
 21 23  1  0  0  0  0
 21 20  1  0  0  0  0
 22 21  1  0  0  0  0
 24 26  1  0  0  0  0
 25 24  1  0  0  0  0
 27 28  1  0  0  0  0
 28 29  2  0  0  0  0
 28 24  1  0  0  0  0
 29 30  1  0  0  0  0
 31 29  1  0  0  0  0
 32 31  2  0  0  0  0
 33 32  1  0  0  0  0
 33 27  2  0  0  0  0
 34 27  1  0  0  0  0
 35 34  1  0  0  0  0
 36 33  1  0  0  0  0
 37 36  1  0  0  0  0
M  END
>  <minimizedAffinity>
-6.22878265

>  <minimizedRMSD>
0.789338291

$$$$
