
 OpenBabel03252502533D

 33 35  0  0  0  0  0  0  0  0999 V2000
   46.5470   29.6610   44.5960 Br  0  0  0  0  0  0  0  0  0  0  0  0
   45.9420   30.5940   46.1790 C   0  0  0  0  0  0  0  0  0  0  0  0
   46.2410   31.9270   46.2480 C   0  0  0  0  0  0  0  0  0  0  0  0
   45.7840   32.5480   47.4060 C   0  0  0  0  0  0  0  0  0  0  0  0
   45.0940   31.9100   48.4040 C   0  0  0  0  0  0  0  0  0  0  0  0
   44.8350   30.5780   48.2600 C   0  0  0  0  0  0  0  0  0  0  0  0
   45.2510   29.8830   47.1450 C   0  0  0  0  0  0  0  0  0  0  0  0
   45.9690   33.6150   47.5630 H   0  0  0  0  0  0  0  0  0  0  0  0
   44.7540   32.4300   49.2910 H   0  0  0  0  0  0  0  0  0  0  0  0
   44.3020   30.0080   48.9950 H   0  0  0  0  0  0  0  0  0  0  0  0
   43.8430   28.2180   46.2210 C   0  0  0  0  0  0  0  0  0  0  0  0
   44.9880   28.4430   46.9580 C   0  0  0  0  0  0  0  0  0  0  0  0
   45.7320   27.3760   47.4200 C   0  0  0  0  0  0  0  0  0  0  0  0
   46.6030   27.6650   47.9830 H   0  0  0  0  0  0  0  0  0  0  0  0
   45.2970   26.1010   47.1260 C   0  0  0  0  0  3  0  0  0  0  0  0
   44.1540   25.8710   46.3900 C   0  0  0  0  0  3  0  0  0  0  0  0
   43.4080   26.9590   45.9270 C   0  0  0  0  0  0  0  0  0  0  0  0
   43.0120   29.2240   45.7030 O   0  0  0  0  0  0  0  0  0  0  0  0
   43.0700   30.1790   46.0520 H   0  0  0  0  0  0  0  0  0  0  0  0
   42.2790   26.6070   45.1990 O   0  0  0  0  0  0  0  0  0  0  0  0
   41.3980   26.5830   45.7350 H   0  0  0  0  0  0  0  0  0  0  0  0
   46.9690   32.7210   45.2530 C   0  0  0  0  0  0  0  0  0  0  0  0
   47.9060   33.0980   45.7090 H   0  0  0  0  0  0  0  0  0  0  0  0
   47.2730   32.0430   44.4180 H   0  0  0  0  0  0  0  0  0  0  0  0
   44.5390   35.5200   44.8840 C   0  0  0  0  0  0  0  0  0  0  0  0
   44.8480   35.9950   43.6020 C   0  0  0  0  0  0  0  0  0  0  0  0
   45.8660   35.3580   42.9010 C   0  0  0  0  0  0  0  0  0  0  0  0
   46.5200   34.3100   43.4710 N   0  0  0  0  0  0  0  0  0  0  0  0
   46.1930   33.8710   44.7270 C   0  0  0  0  0  0  0  0  0  0  0  0
   45.2060   34.4900   45.4030 N   0  0  0  0  0  0  0  0  0  0  0  0
   43.7410   36.0470   45.3910 H   0  0  0  0  0  0  0  0  0  0  0  0
   44.3320   36.8310   43.1390 H   0  0  0  0  0  0  0  0  0  0  0  0
   46.1790   35.6490   41.9070 H   0  0  0  0  0  0  0  0  0  0  0  0
  1  2  1  0  0  0  0
  2  3  2  0  0  0  0
  2  7  1  0  0  0  0
  3  4  1  0  0  0  0
  4  8  1  0  0  0  0
  4  5  2  0  0  0  0
  5  9  1  0  0  0  0
  6  5  1  0  0  0  0
  6 10  1  0  0  0  0
  7  6  2  0  0  0  0
 11 12  1  0  0  0  0
 12  7  1  0  0  0  0
 12 13  2  0  0  0  0
 13 14  1  0  0  0  0
 15 13  1  0  0  0  0
 16 15  2  0  0  0  0
 17 11  2  0  0  0  0
 17 16  1  0  0  0  0
 18 19  1  0  0  0  0
 18 11  1  0  0  0  0
 20 21  1  0  0  0  0
 20 17  1  0  0  0  0
 22 23  1  0  0  0  0
 22  3  1  0  0  0  0
 24 22  1  0  0  0  0
 25 31  1  0  0  0  0
 25 30  1  0  0  0  0
 26 25  2  0  0  0  0
 27 28  2  0  0  0  0
 27 26  1  0  0  0  0
 28 29  1  0  0  0  0
 29 22  1  0  0  0  0
 29 30  2  0  0  0  0
 32 26  1  0  0  0  0
 33 27  1  0  0  0  0
M  END
>  <minimizedAffinity>
-5.64329863

>  <minimizedRMSD>
1.09767091

$$$$
