
 OpenBabel03242522593D

 33 35  0  0  0  0  0  0  0  0999 V2000
   45.1710   33.6940   47.0380 C   0  0  0  0  0  0  0  0  0  0  0  0
   45.5060   34.1020   45.7480 C   0  0  0  0  0  0  0  0  0  0  0  0
   45.9610   33.2330   44.7810 C   0  0  0  0  0  0  0  0  0  0  0  0
   46.0590   31.9440   45.1750 N   0  0  0  0  0  0  0  0  0  0  0  0
   45.7420   31.5240   46.4140 C   0  0  0  0  0  0  0  0  0  0  0  0
   45.3000   32.3960   47.3400 N   0  0  0  0  0  0  0  0  0  0  0  0
   44.8220   34.4400   47.7400 H   0  0  0  0  0  0  0  0  0  0  0  0
   45.4090   35.1540   45.4810 H   0  0  0  0  0  0  0  0  0  0  0  0
   44.0690   32.3410   42.6670 Cl  0  0  0  0  0  0  0  0  0  0  0  0
   45.5160   33.2800   42.4020 C   0  0  0  0  0  0  0  0  0  0  0  0
   46.3160   33.6390   43.4250 C   0  0  0  0  0  0  0  0  0  0  0  0
   47.4420   34.3830   43.1130 C   0  0  0  0  0  0  0  0  0  0  0  0
   47.7410   34.7440   41.8400 C   0  0  0  0  0  0  0  0  0  0  0  0
   46.9220   34.3730   40.8060 C   0  0  0  0  0  0  0  0  0  0  0  0
   45.8040   33.6360   41.1030 C   0  0  0  0  0  0  0  0  0  0  0  0
   48.1020   34.6860   43.9160 H   0  0  0  0  0  0  0  0  0  0  0  0
   47.1250   34.6420   39.7620 H   0  0  0  0  0  0  0  0  0  0  0  0
   45.1520   33.3410   40.2880 H   0  0  0  0  0  0  0  0  0  0  0  0
   48.9490   35.5420   41.5000 C   0  0  0  0  0  0  0  0  0  0  0  0
   50.0570   34.8100   41.8390 F   0  0  0  0  0  0  0  0  0  0  0  0
   48.9300   36.7760   42.1350 F   0  0  0  0  0  0  0  0  0  0  0  0
   48.9390   35.7770   40.1330 F   0  0  0  0  0  0  0  0  0  0  0  0
   47.1400   29.5830   46.9850 C   0  0  0  0  0  0  0  0  0  0  0  0
   45.8720   30.1100   46.7740 C   0  0  0  0  0  0  0  0  0  0  0  0
   44.7560   29.3100   46.9040 C   0  0  0  0  0  0  0  0  0  0  0  0
   43.7560   29.7120   46.7410 H   0  0  0  0  0  0  0  0  0  0  0  0
   44.8370   27.9570   47.2470 C   0  0  0  0  0  3  0  0  0  0  0  0
   46.1280   27.5070   47.4390 C   0  0  0  0  0  3  0  0  0  0  0  0
   47.2870   28.2430   47.3280 C   0  0  0  0  0  0  0  0  0  0  0  0
   48.2560   30.3930   46.8530 O   0  0  0  0  0  0  0  0  0  0  0  0
   48.8030   30.4520   45.9980 H   0  0  0  0  0  0  0  0  0  0  0  0
   48.5310   27.6670   47.5500 O   0  0  0  0  0  0  0  0  0  0  0  0
   49.3160   28.2460   47.8810 H   0  0  0  0  0  0  0  0  0  0  0  0
  1  6  1  0  0  0  0
  1  7  1  0  0  0  0
  2  1  2  0  0  0  0
  3  4  2  0  0  0  0
  3  2  1  0  0  0  0
  4  5  1  0  0  0  0
  5 24  1  0  0  0  0
  5  6  2  0  0  0  0
  8  2  1  0  0  0  0
 10  9  1  0  0  0  0
 10 11  1  0  0  0  0
 11  3  1  0  0  0  0
 12 11  2  0  0  0  0
 12 16  1  0  0  0  0
 13 12  1  0  0  0  0
 14 15  1  0  0  0  0
 14 13  2  0  0  0  0
 15 10  2  0  0  0  0
 17 14  1  0  0  0  0
 18 15  1  0  0  0  0
 19 20  1  0  0  0  0
 19 13  1  0  0  0  0
 19 21  1  0  0  0  0
 22 19  1  0  0  0  0
 23 29  1  0  0  0  0
 24 25  1  0  0  0  0
 24 23  2  0  0  0  0
 25 27  2  0  0  0  0
 26 25  1  0  0  0  0
 27 28  1  0  0  0  0
 29 28  2  0  0  0  0
 29 32  1  0  0  0  0
 30 23  1  0  0  0  0
 31 30  1  0  0  0  0
 32 33  1  0  0  0  0
M  END
>  <minimizedAffinity>
-6.15682793

>  <minimizedRMSD>
1.07120955

$$$$
