
 OpenBabel03252502543D

 33 35  0  0  0  0  0  0  0  0999 V2000
   45.6170   29.8660   44.6230 Br  0  0  0  0  0  0  0  0  0  0  0  0
   45.6220   30.3740   46.4890 C   0  0  0  0  0  0  0  0  0  0  0  0
   46.3220   31.5060   46.8070 C   0  0  0  0  0  0  0  0  0  0  0  0
   46.2930   31.8260   48.1610 C   0  0  0  0  0  0  0  0  0  0  0  0
   45.6320   31.0930   49.1130 C   0  0  0  0  0  0  0  0  0  0  0  0
   44.9570   29.9770   48.7150 C   0  0  0  0  0  0  0  0  0  0  0  0
   44.9320   29.5860   47.3940 C   0  0  0  0  0  0  0  0  0  0  0  0
   46.8200   32.7130   48.5240 H   0  0  0  0  0  0  0  0  0  0  0  0
   45.6340   31.3770   50.1590 H   0  0  0  0  0  0  0  0  0  0  0  0
   44.4170   29.3520   49.3990 H   0  0  0  0  0  0  0  0  0  0  0  0
   44.6170   27.2470   47.6010 C   0  0  0  0  0  0  0  0  0  0  0  0
   44.2120   28.3840   46.9300 C   0  0  0  0  0  0  0  0  0  0  0  0
   43.2390   28.3000   45.9560 C   0  0  0  0  0  0  0  0  0  0  0  0
   43.0010   29.2440   45.4980 H   0  0  0  0  0  0  0  0  0  0  0  0
   42.6960   27.0620   45.6810 C   0  0  0  0  0  3  0  0  0  0  0  0
   43.0970   25.9240   46.3470 C   0  0  0  0  0  3  0  0  0  0  0  0
   44.0840   26.0210   47.3330 C   0  0  0  0  0  0  0  0  0  0  0  0
   45.5960   27.2150   48.6080 O   0  0  0  0  0  0  0  0  0  0  0  0
   46.2440   27.9910   48.7280 H   0  0  0  0  0  0  0  0  0  0  0  0
   44.4070   24.8120   47.9360 O   0  0  0  0  0  0  0  0  0  0  0  0
   45.2310   24.3300   47.5460 H   0  0  0  0  0  0  0  0  0  0  0  0
   47.0660   32.3720   45.8860 C   0  0  0  0  0  0  0  0  0  0  0  0
   47.9510   32.7820   46.4130 H   0  0  0  0  0  0  0  0  0  0  0  0
   47.4590   31.7410   45.0520 H   0  0  0  0  0  0  0  0  0  0  0  0
   44.6240   35.1600   45.5150 C   0  0  0  0  0  0  0  0  0  0  0  0
   44.8580   35.5660   44.1940 C   0  0  0  0  0  0  0  0  0  0  0  0
   45.8310   34.8880   43.4680 C   0  0  0  0  0  0  0  0  0  0  0  0
   46.5150   33.8680   44.0530 N   0  0  0  0  0  0  0  0  0  0  0  0
   46.2620   33.4970   45.3470 C   0  0  0  0  0  0  0  0  0  0  0  0
   45.3190   34.1550   46.0470 N   0  0  0  0  0  0  0  0  0  0  0  0
   43.8580   35.7170   46.0400 H   0  0  0  0  0  0  0  0  0  0  0  0
   44.3160   36.3790   43.7180 H   0  0  0  0  0  0  0  0  0  0  0  0
   46.0860   35.1250   42.4430 H   0  0  0  0  0  0  0  0  0  0  0  0
  1  2  1  0  0  0  0
  2  3  2  0  0  0  0
  2  7  1  0  0  0  0
  3  4  1  0  0  0  0
  4  8  1  0  0  0  0
  4  5  2  0  0  0  0
  5  9  1  0  0  0  0
  6  5  1  0  0  0  0
  6 10  1  0  0  0  0
  7  6  2  0  0  0  0
 11 18  1  0  0  0  0
 12  7  1  0  0  0  0
 12 11  2  0  0  0  0
 13 12  1  0  0  0  0
 14 13  1  0  0  0  0
 15 13  2  0  0  0  0
 15 16  1  0  0  0  0
 16 17  2  0  0  0  0
 17 11  1  0  0  0  0
 17 20  1  0  0  0  0
 18 19  1  0  0  0  0
 21 20  1  0  0  0  0
 22 23  1  0  0  0  0
 22  3  1  0  0  0  0
 24 22  1  0  0  0  0
 25 31  1  0  0  0  0
 25 30  1  0  0  0  0
 26 25  2  0  0  0  0
 27 28  2  0  0  0  0
 27 26  1  0  0  0  0
 28 29  1  0  0  0  0
 29 22  1  0  0  0  0
 29 30  2  0  0  0  0
 32 26  1  0  0  0  0
 33 27  1  0  0  0  0
M  END
>  <minimizedAffinity>
-5.76757812

>  <minimizedRMSD>
0.876993537

$$$$
