
 OpenBabel03252502533D

 33 35  0  0  0  0  0  0  0  0999 V2000
   46.0700   29.9880   44.5420 Br  0  0  0  0  0  0  0  0  0  0  0  0
   45.8030   30.6520   46.3400 C   0  0  0  0  0  0  0  0  0  0  0  0
   46.3200   31.8890   46.6110 C   0  0  0  0  0  0  0  0  0  0  0  0
   46.1000   32.3180   47.9170 C   0  0  0  0  0  0  0  0  0  0  0  0
   45.4300   31.5900   48.8660 C   0  0  0  0  0  0  0  0  0  0  0  0
   44.9450   30.3640   48.5150 C   0  0  0  0  0  0  0  0  0  0  0  0
   45.1160   29.8610   47.2440 C   0  0  0  0  0  0  0  0  0  0  0  0
   46.4720   33.2950   48.2410 H   0  0  0  0  0  0  0  0  0  0  0  0
   45.2800   31.9600   49.8730 H   0  0  0  0  0  0  0  0  0  0  0  0
   44.4110   29.7350   49.2000 H   0  0  0  0  0  0  0  0  0  0  0  0
   45.4330   27.5140   47.2410 C   0  0  0  0  0  0  0  0  0  0  0  0
   44.6040   28.5390   46.8320 C   0  0  0  0  0  0  0  0  0  0  0  0
   43.4530   28.2570   46.1260 C   0  0  0  0  0  0  0  0  0  0  0  0
   42.8840   29.1300   45.8580 H   0  0  0  0  0  0  0  0  0  0  0  0
   43.1650   26.9370   45.8480 C   0  0  0  0  0  3  0  0  0  0  0  0
   43.9900   25.9080   46.2540 C   0  0  0  0  0  3  0  0  0  0  0  0
   45.1530   26.2060   46.9690 C   0  0  0  0  0  0  0  0  0  0  0  0
   46.6250   27.6830   47.9640 O   0  0  0  0  0  0  0  0  0  0  0  0
   47.0780   28.5950   48.0120 H   0  0  0  0  0  0  0  0  0  0  0  0
   45.9030   25.0930   47.3250 O   0  0  0  0  0  0  0  0  0  0  0  0
   46.6820   24.8640   46.6890 H   0  0  0  0  0  0  0  0  0  0  0  0
   47.0520   32.7620   45.6880 C   0  0  0  0  0  0  0  0  0  0  0  0
   47.8940   33.2360   46.2330 H   0  0  0  0  0  0  0  0  0  0  0  0
   47.5090   32.1260   44.8920 H   0  0  0  0  0  0  0  0  0  0  0  0
   44.5000   35.4200   45.1390 C   0  0  0  0  0  0  0  0  0  0  0  0
   44.7450   35.7740   43.8060 C   0  0  0  0  0  0  0  0  0  0  0  0
   45.7620   35.1080   43.1320 C   0  0  0  0  0  0  0  0  0  0  0  0
   46.4770   34.1470   43.7770 N   0  0  0  0  0  0  0  0  0  0  0  0
   46.2130   33.8250   45.0820 C   0  0  0  0  0  0  0  0  0  0  0  0
   45.2270   34.4720   45.7310 N   0  0  0  0  0  0  0  0  0  0  0  0
   43.7000   35.9650   45.6230 H   0  0  0  0  0  0  0  0  0  0  0  0
   44.1790   36.5400   43.2820 H   0  0  0  0  0  0  0  0  0  0  0  0
   46.0280   35.3090   42.1020 H   0  0  0  0  0  0  0  0  0  0  0  0
  1  2  1  0  0  0  0
  2  3  2  0  0  0  0
  2  7  1  0  0  0  0
  3  4  1  0  0  0  0
  4  8  1  0  0  0  0
  4  5  2  0  0  0  0
  5  9  1  0  0  0  0
  6  5  1  0  0  0  0
  6 10  1  0  0  0  0
  7  6  2  0  0  0  0
 11 18  1  0  0  0  0
 12 11  2  0  0  0  0
 12  7  1  0  0  0  0
 13 12  1  0  0  0  0
 14 13  1  0  0  0  0
 15 13  2  0  0  0  0
 15 16  1  0  0  0  0
 16 17  2  0  0  0  0
 17 11  1  0  0  0  0
 17 20  1  0  0  0  0
 18 19  1  0  0  0  0
 21 20  1  0  0  0  0
 22 23  1  0  0  0  0
 22  3  1  0  0  0  0
 24 22  1  0  0  0  0
 25 31  1  0  0  0  0
 25 30  1  0  0  0  0
 26 25  2  0  0  0  0
 27 28  2  0  0  0  0
 27 26  1  0  0  0  0
 28 29  1  0  0  0  0
 29 22  1  0  0  0  0
 29 30  2  0  0  0  0
 32 26  1  0  0  0  0
 33 27  1  0  0  0  0
M  END
>  <minimizedAffinity>
-5.55552721

>  <minimizedRMSD>
0.83253336

$$$$
