
 OpenBabel03242511153D

 46 50  0  0  1  0  0  0  0  0999 V2000
   37.9550   31.8720   39.1030 C   0  0  1  0  0  0  0  0  0  0  0  0
   38.5080   30.9340   38.0600 C   0  0  0  0  0  0  0  0  0  0  0  0
   38.3870   30.5490   39.5550 C   0  0  2  0  0  0  0  0  0  0  0  0
   36.8810   32.0400   39.0490 H   0  0  0  0  0  0  0  0  0  0  0  0
   39.5310   31.2130   37.7100 H   0  0  0  0  0  0  0  0  0  0  0  0
   37.8150   30.4420   37.3540 H   0  0  0  0  0  0  0  0  0  0  0  0
   39.3350   30.4300   40.1190 H   0  0  0  0  0  0  0  0  0  0  0  0
   38.7960   35.2740   40.2900 C   0  0  0  0  0  0  0  0  0  0  0  0
   40.2290   35.2850   40.1480 C   0  0  0  0  0  0  0  0  0  0  0  0
   40.8480   34.1260   39.6530 C   0  0  0  0  0  0  0  0  0  0  0  0
   40.1010   33.0710   39.3380 N   0  0  0  0  0  0  0  0  0  0  0  0
   38.7560   33.0910   39.4810 C   0  0  0  0  0  0  0  0  0  0  0  0
   38.0730   34.1940   39.9620 N   0  0  0  0  0  0  0  0  0  0  0  0
   38.3050   36.1690   40.6730 H   0  0  0  0  0  0  0  0  0  0  0  0
   40.7710   36.1540   40.4160 H   0  0  0  0  0  0  0  0  0  0  0  0
   42.8350   33.9410   38.2240 C   0  0  0  0  0  0  0  0  0  0  0  0
   42.2910   34.0660   39.4850 C   0  0  0  0  0  0  0  0  0  0  0  0
   43.2100   34.1250   40.5060 C   0  0  0  0  0  0  0  0  0  0  0  0
   42.8550   34.2230   41.5190 H   0  0  0  0  0  0  0  0  0  0  0  0
   44.5620   34.0700   40.3630 C   0  0  0  0  0  3  0  0  0  0  0  0
   45.0780   33.9450   39.0830 C   0  0  0  0  0  3  0  0  0  0  0  0
   44.2080   33.8810   38.0150 C   0  0  0  0  0  0  0  0  0  0  0  0
   41.9400   33.8770   37.1490 O   0  0  0  0  0  0  0  0  0  0  0  0
   41.5520   34.7690   36.8510 H   0  0  0  0  0  0  0  0  0  0  0  0
   44.6040   33.7540   36.6810 O   0  0  0  0  0  0  0  0  0  0  0  0
   44.6920   32.8320   36.2530 H   0  0  0  0  0  0  0  0  0  0  0  0
   37.3830   29.5780   39.8870 N   0  0  0  0  0  0  0  0  0  0  0  0
   36.6930   29.6430   39.1140 H   0  0  0  0  0  0  0  0  0  0  0  0
   37.4520   28.8080   41.0590 C   0  0  0  0  0  0  0  0  0  0  0  0
   37.6810   29.4300   42.2610 C   0  0  0  0  0  0  0  0  0  0  0  0
   37.6920   28.7480   43.4690 C   0  0  0  0  0  0  0  0  0  0  0  0
   37.4700   27.3890   43.5140 C   0  0  0  0  0  0  0  0  0  0  0  0
   37.2380   26.7400   42.3160 C   0  0  0  0  0  0  0  0  0  0  0  0
   37.0020   25.3810   42.3440 C   0  0  0  0  0  0  0  0  0  0  0  0
   36.7610   24.6810   41.2030 C   0  0  0  0  0  0  0  0  0  0  0  0
   36.7620   25.3930   40.0110 C   0  0  0  0  0  0  0  0  0  0  0  0
   36.9970   26.7390   40.0000 C   0  0  0  0  0  0  0  0  0  0  0  0
   37.2350   27.4490   41.1350 C   0  0  0  0  0  0  0  0  0  0  0  0
   37.8670   30.4960   42.3330 H   0  0  0  0  0  0  0  0  0  0  0  0
   37.8720   29.2360   44.4100 H   0  0  0  0  0  0  0  0  0  0  0  0
   37.4790   26.8670   44.4620 H   0  0  0  0  0  0  0  0  0  0  0  0
   37.0090   24.8510   43.2880 H   0  0  0  0  0  0  0  0  0  0  0  0
   36.5690   23.6090   41.1860 H   0  0  0  0  0  0  0  0  0  0  0  0
   36.5700   24.8390   39.0880 H   0  0  0  0  0  0  0  0  0  0  0  0
   36.9960   27.3960   38.7920 O   0  0  0  0  0  0  0  0  0  0  0  0
   37.3530   27.0540   37.9310 H   0  0  0  0  0  0  0  0  0  0  0  0
  1  4  1  6  0  0  0
  1 12  1  0  0  0  0
  1  3  1  0  0  0  0
  2  1  1  0  0  0  0
  2  3  1  0  0  0  0
  3 27  1  0  0  0  0
  3  7  1  1  0  0  0
  5  2  1  0  0  0  0
  6  2  1  0  0  0  0
  8 14  1  0  0  0  0
  9  8  1  0  0  0  0
  9 15  1  0  0  0  0
 10  9  2  0  0  0  0
 11 12  2  0  0  0  0
 11 10  1  0  0  0  0
 12 13  1  0  0  0  0
 13  8  2  0  0  0  0
 16 17  1  0  0  0  0
 17 10  1  0  0  0  0
 17 18  2  0  0  0  0
 18 19  1  0  0  0  0
 20 18  1  0  0  0  0
 21 20  2  0  0  0  0
 22 16  2  0  0  0  0
 22 21  1  0  0  0  0
 23 16  1  0  0  0  0
 24 23  1  0  0  0  0
 25 22  1  0  0  0  0
 26 25  1  0  0  0  0
 27 29  1  0  0  0  0
 28 27  1  0  0  0  0
 29 38  2  0  0  0  0
 29 30  1  0  0  0  0
 30 39  1  0  0  0  0
 30 31  2  0  0  0  0
 31 32  1  0  0  0  0
 31 40  1  0  0  0  0
 32 41  1  0  0  0  0
 33 34  1  0  0  0  0
 33 32  2  0  0  0  0
 34 42  1  0  0  0  0
 35 34  2  0  0  0  0
 36 35  1  0  0  0  0
 37 36  2  0  0  0  0
 37 38  1  0  0  0  0
 38 33  1  0  0  0  0
 43 35  1  0  0  0  0
 44 36  1  0  0  0  0
 45 37  1  0  0  0  0
 46 45  1  0  0  0  0
M  END
>  <minimizedAffinity>
-7.82683992

$$$$

 OpenBabel03242511153D

 46 50  0  0  1  0  0  0  0  0999 V2000
   35.8680   28.7480   39.1370 C   0  0  1  0  0  0  0  0  0  0  0  0
   35.6830   29.9240   40.0620 C   0  0  0  0  0  0  0  0  0  0  0  0
   35.7470   28.4610   40.5660 C   0  0  2  0  0  0  0  0  0  0  0  0
   36.8630   28.6540   38.7050 H   0  0  0  0  0  0  0  0  0  0  0  0
   34.6640   30.3760   40.0070 H   0  0  0  0  0  0  0  0  0  0  0  0
   36.5470   30.5750   40.2880 H   0  0  0  0  0  0  0  0  0  0  0  0
   34.8090   28.0330   40.9760 H   0  0  0  0  0  0  0  0  0  0  0  0
   33.7850   26.8160   36.7660 C   0  0  0  0  0  0  0  0  0  0  0  0
   32.7120   27.7390   36.5040 C   0  0  0  0  0  0  0  0  0  0  0  0
   32.7450   28.9850   37.1510 C   0  0  0  0  0  0  0  0  0  0  0  0
   33.7520   29.2660   37.9740 N   0  0  0  0  0  0  0  0  0  0  0  0
   34.7470   28.3780   38.2000 C   0  0  0  0  0  0  0  0  0  0  0  0
   34.7860   27.1320   37.6010 N   0  0  0  0  0  0  0  0  0  0  0  0
   33.7700   25.8470   36.2680 H   0  0  0  0  0  0  0  0  0  0  0  0
   31.9370   27.4590   35.8390 H   0  0  0  0  0  0  0  0  0  0  0  0
   30.8740   30.3410   37.9770 C   0  0  0  0  0  0  0  0  0  0  0  0
   31.6930   29.9660   36.9340 C   0  0  0  0  0  0  0  0  0  0  0  0
   31.4230   30.5840   35.7370 C   0  0  0  0  0  0  0  0  0  0  0  0
   32.0250   30.3380   34.8780 H   0  0  0  0  0  0  0  0  0  0  0  0
   30.4430   31.5030   35.5200 C   0  0  0  0  0  3  0  0  0  0  0  0
   29.6360   31.8610   36.5890 C   0  0  0  0  0  3  0  0  0  0  0  0
   29.8570   31.2760   37.8180 C   0  0  0  0  0  0  0  0  0  0  0  0
   31.1090   29.7390   39.2190 O   0  0  0  0  0  0  0  0  0  0  0  0
   31.8910   30.1200   39.7480 H   0  0  0  0  0  0  0  0  0  0  0  0
   29.1120   31.5510   38.9680 O   0  0  0  0  0  0  0  0  0  0  0  0
   28.2960   30.9860   39.2030 H   0  0  0  0  0  0  0  0  0  0  0  0
   36.9280   28.0840   41.2900 N   0  0  0  0  0  0  0  0  0  0  0  0
   37.3470   28.9850   41.5900 H   0  0  0  0  0  0  0  0  0  0  0  0
   37.3080   26.7410   41.4440 C   0  0  0  0  0  0  0  0  0  0  0  0
   36.6670   25.7710   40.7150 C   0  0  0  0  0  0  0  0  0  0  0  0
   37.0320   24.4340   40.7580 C   0  0  0  0  0  0  0  0  0  0  0  0
   38.0760   24.0140   41.5510 C   0  0  0  0  0  0  0  0  0  0  0  0
   38.7380   24.9720   42.2960 C   0  0  0  0  0  0  0  0  0  0  0  0
   39.7940   24.5700   43.0870 C   0  0  0  0  0  0  0  0  0  0  0  0
   40.4930   25.4600   43.8410 C   0  0  0  0  0  0  0  0  0  0  0  0
   40.0980   26.7900   43.7800 C   0  0  0  0  0  0  0  0  0  0  0  0
   39.0500   27.1730   42.9900 C   0  0  0  0  0  0  0  0  0  0  0  0
   38.3470   26.2910   42.2300 C   0  0  0  0  0  0  0  0  0  0  0  0
   35.8310   25.9990   40.0600 H   0  0  0  0  0  0  0  0  0  0  0  0
   36.5270   23.6760   40.1870 H   0  0  0  0  0  0  0  0  0  0  0  0
   38.3550   22.9680   41.5770 H   0  0  0  0  0  0  0  0  0  0  0  0
   40.0800   23.5260   43.1180 H   0  0  0  0  0  0  0  0  0  0  0  0
   41.3330   25.1810   44.4760 H   0  0  0  0  0  0  0  0  0  0  0  0
   40.6530   27.5140   44.3820 H   0  0  0  0  0  0  0  0  0  0  0  0
   38.6930   28.5000   42.9710 O   0  0  0  0  0  0  0  0  0  0  0  0
   38.6890   29.1240   43.7430 H   0  0  0  0  0  0  0  0  0  0  0  0
  1  4  1  6  0  0  0
  1  2  1  0  0  0  0
  1  3  1  0  0  0  0
  2  6  1  0  0  0  0
  2  3  1  0  0  0  0
  3  7  1  1  0  0  0
  3 27  1  0  0  0  0
  5  2  1  0  0  0  0
  8 13  1  0  0  0  0
  9  8  2  0  0  0  0
  9 10  1  0  0  0  0
 10 11  2  0  0  0  0
 11 12  1  0  0  0  0
 12  1  1  0  0  0  0
 13 12  2  0  0  0  0
 14  8  1  0  0  0  0
 15  9  1  0  0  0  0
 16 23  1  0  0  0  0
 17 10  1  0  0  0  0
 17 16  2  0  0  0  0
 18 17  1  0  0  0  0
 19 18  1  0  0  0  0
 20 18  2  0  0  0  0
 20 21  1  0  0  0  0
 21 22  2  0  0  0  0
 22 16  1  0  0  0  0
 22 25  1  0  0  0  0
 23 24  1  0  0  0  0
 25 26  1  0  0  0  0
 27 29  1  0  0  0  0
 27 28  1  0  0  0  0
 29 38  1  0  0  0  0
 30 31  1  0  0  0  0
 30 29  2  0  0  0  0
 31 32  2  0  0  0  0
 32 41  1  0  0  0  0
 32 33  1  0  0  0  0
 33 34  1  0  0  0  0
 34 42  1  0  0  0  0
 34 35  2  0  0  0  0
 35 43  1  0  0  0  0
 36 35  1  0  0  0  0
 36 44  1  0  0  0  0
 37 36  2  0  0  0  0
 38 33  2  0  0  0  0
 38 37  1  0  0  0  0
 39 30  1  0  0  0  0
 40 31  1  0  0  0  0
 45 37  1  0  0  0  0
 45 46  1  0  0  0  0
M  END
>  <minimizedAffinity>
-7.35457325

$$$$

 OpenBabel03242511153D

 46 50  0  0  1  0  0  0  0  0999 V2000
   37.5670   31.4750   37.7900 C   0  0  1  0  0  0  0  0  0  0  0  0
   37.3240   32.6790   38.6650 C   0  0  0  0  0  0  0  0  0  0  0  0
   38.6910   31.9530   38.5960 C   0  0  2  0  0  0  0  0  0  0  0  0
   37.6120   31.6840   36.7220 H   0  0  0  0  0  0  0  0  0  0  0  0
   36.7000   32.4560   39.5630 H   0  0  0  0  0  0  0  0  0  0  0  0
   37.2610   33.6800   38.2010 H   0  0  0  0  0  0  0  0  0  0  0  0
   39.0080   31.3970   39.5030 H   0  0  0  0  0  0  0  0  0  0  0  0
   35.4070   28.4800   37.5530 C   0  0  0  0  0  0  0  0  0  0  0  0
   35.6790   27.8260   38.8070 C   0  0  0  0  0  0  0  0  0  0  0  0
   36.5930   28.4380   39.6810 C   0  0  0  0  0  0  0  0  0  0  0  0
   37.1680   29.5840   39.3260 N   0  0  0  0  0  0  0  0  0  0  0  0
   36.8920   30.1750   38.1410 C   0  0  0  0  0  0  0  0  0  0  0  0
   36.0050   29.6350   37.2270 N   0  0  0  0  0  0  0  0  0  0  0  0
   34.7000   28.0150   36.8670 H   0  0  0  0  0  0  0  0  0  0  0  0
   35.1900   26.9150   39.0340 H   0  0  0  0  0  0  0  0  0  0  0  0
   36.8090   28.5720   42.1220 C   0  0  0  0  0  0  0  0  0  0  0  0
   36.9160   27.8330   40.9630 C   0  0  0  0  0  0  0  0  0  0  0  0
   37.3360   26.5370   41.1430 C   0  0  0  0  0  0  0  0  0  0  0  0
   37.4420   25.9010   40.2800 H   0  0  0  0  0  0  0  0  0  0  0  0
   37.6410   25.9580   42.3370 C   0  0  0  0  0  3  0  0  0  0  0  0
   37.5230   26.7270   43.4840 C   0  0  0  0  0  3  0  0  0  0  0  0
   37.1060   28.0370   43.3700 C   0  0  0  0  0  0  0  0  0  0  0  0
   36.3840   29.9000   41.9920 O   0  0  0  0  0  0  0  0  0  0  0  0
   35.3830   30.0270   41.8650 H   0  0  0  0  0  0  0  0  0  0  0  0
   36.9490   28.9110   44.4490 O   0  0  0  0  0  0  0  0  0  0  0  0
   37.7170   29.5170   44.7380 H   0  0  0  0  0  0  0  0  0  0  0  0
   39.7560   32.6530   37.9370 N   0  0  0  0  0  0  0  0  0  0  0  0
   39.4970   32.6330   36.9320 H   0  0  0  0  0  0  0  0  0  0  0  0
   40.8550   33.1690   38.6430 C   0  0  0  0  0  0  0  0  0  0  0  0
   40.6390   34.0130   39.7030 C   0  0  0  0  0  0  0  0  0  0  0  0
   41.6670   34.5060   40.4930 C   0  0  0  0  0  0  0  0  0  0  0  0
   42.9760   34.1620   40.2410 C   0  0  0  0  0  0  0  0  0  0  0  0
   43.2210   33.3130   39.1780 C   0  0  0  0  0  0  0  0  0  0  0  0
   44.5260   32.9490   38.9180 C   0  0  0  0  0  0  0  0  0  0  0  0
   44.8360   32.1130   37.8920 C   0  0  0  0  0  0  0  0  0  0  0  0
   43.7840   31.6420   37.1170 C   0  0  0  0  0  0  0  0  0  0  0  0
   42.4970   32.0110   37.3880 C   0  0  0  0  0  0  0  0  0  0  0  0
   42.1750   32.8440   38.4140 C   0  0  0  0  0  0  0  0  0  0  0  0
   39.6440   34.3440   39.9830 H   0  0  0  0  0  0  0  0  0  0  0  0
   41.4950   35.1680   41.3230 H   0  0  0  0  0  0  0  0  0  0  0  0
   43.7710   34.5510   40.8640 H   0  0  0  0  0  0  0  0  0  0  0  0
   45.3260   33.3330   39.5370 H   0  0  0  0  0  0  0  0  0  0  0  0
   45.8540   31.8020   37.6570 H   0  0  0  0  0  0  0  0  0  0  0  0
   44.0240   30.9690   36.2890 H   0  0  0  0  0  0  0  0  0  0  0  0
   41.4920   31.5240   36.5850 O   0  0  0  0  0  0  0  0  0  0  0  0
   41.5320   31.3880   35.6030 H   0  0  0  0  0  0  0  0  0  0  0  0
  1  4  1  6  0  0  0
  1 12  1  0  0  0  0
  1  3  1  0  0  0  0
  1  2  1  0  0  0  0
  2  5  1  0  0  0  0
  3  2  1  0  0  0  0
  3  7  1  1  0  0  0
  6  2  1  0  0  0  0
  8  9  1  0  0  0  0
  9 15  1  0  0  0  0
  9 10  2  0  0  0  0
 10 17  1  0  0  0  0
 11 10  1  0  0  0  0
 12 11  2  0  0  0  0
 13  8  2  0  0  0  0
 13 12  1  0  0  0  0
 14  8  1  0  0  0  0
 16 22  1  0  0  0  0
 17 18  1  0  0  0  0
 17 16  2  0  0  0  0
 18 20  2  0  0  0  0
 19 18  1  0  0  0  0
 20 21  1  0  0  0  0
 22 21  2  0  0  0  0
 22 25  1  0  0  0  0
 23 16  1  0  0  0  0
 24 23  1  0  0  0  0
 25 26  1  0  0  0  0
 27  3  1  0  0  0  0
 27 29  1  0  0  0  0
 28 27  1  0  0  0  0
 29 30  1  0  0  0  0
 30 39  1  0  0  0  0
 30 31  2  0  0  0  0
 31 40  1  0  0  0  0
 32 31  1  0  0  0  0
 32 41  1  0  0  0  0
 33 32  2  0  0  0  0
 34 33  1  0  0  0  0
 34 42  1  0  0  0  0
 35 34  2  0  0  0  0
 36 37  2  0  0  0  0
 36 35  1  0  0  0  0
 37 38  1  0  0  0  0
 38 29  2  0  0  0  0
 38 33  1  0  0  0  0
 43 35  1  0  0  0  0
 44 36  1  0  0  0  0
 45 37  1  0  0  0  0
 46 45  1  0  0  0  0
M  END
>  <minimizedAffinity>
-7.22847462

$$$$

 OpenBabel03242511153D

 46 50  0  0  1  0  0  0  0  0999 V2000
   37.3210   31.9600   39.5950 C   0  0  1  0  0  0  0  0  0  0  0  0
   37.3120   31.3470   38.2180 C   0  0  0  0  0  0  0  0  0  0  0  0
   37.7230   30.5570   39.4860 C   0  0  2  0  0  0  0  0  0  0  0  0
   36.3370   32.1520   40.0210 H   0  0  0  0  0  0  0  0  0  0  0  0
   38.1500   31.6980   37.5700 H   0  0  0  0  0  0  0  0  0  0  0  0
   36.3450   31.0830   37.7500 H   0  0  0  0  0  0  0  0  0  0  0  0
   38.7920   30.2710   39.5700 H   0  0  0  0  0  0  0  0  0  0  0  0
   38.8710   35.2600   40.2300 C   0  0  0  0  0  0  0  0  0  0  0  0
   40.2390   34.8930   40.4850 C   0  0  0  0  0  0  0  0  0  0  0  0
   40.5750   33.5310   40.4310 C   0  0  0  0  0  0  0  0  0  0  0  0
   39.6290   32.6370   40.1510 N   0  0  0  0  0  0  0  0  0  0  0  0
   38.3510   33.0120   39.9140 C   0  0  0  0  0  0  0  0  0  0  0  0
   37.9430   34.3330   39.9490 N   0  0  0  0  0  0  0  0  0  0  0  0
   38.5990   36.3140   40.2690 H   0  0  0  0  0  0  0  0  0  0  0  0
   40.9470   35.6500   40.7040 H   0  0  0  0  0  0  0  0  0  0  0  0
   42.2080   32.2460   41.7360 C   0  0  0  0  0  0  0  0  0  0  0  0
   41.9370   33.0880   40.6790 C   0  0  0  0  0  0  0  0  0  0  0  0
   43.0340   33.4440   39.9300 C   0  0  0  0  0  0  0  0  0  0  0  0
   42.8960   34.1010   39.0870 H   0  0  0  0  0  0  0  0  0  0  0  0
   44.3140   33.0370   40.1500 C   0  0  0  0  0  3  0  0  0  0  0  0
   44.5540   32.1900   41.2210 C   0  0  0  0  0  3  0  0  0  0  0  0
   43.4940   31.7960   42.0120 C   0  0  0  0  0  0  0  0  0  0  0  0
   41.1240   31.8550   42.5310 O   0  0  0  0  0  0  0  0  0  0  0  0
   40.5420   31.1160   42.1420 H   0  0  0  0  0  0  0  0  0  0  0  0
   43.6080   30.9480   43.1170 O   0  0  0  0  0  0  0  0  0  0  0  0
   43.7480   31.3320   44.0510 H   0  0  0  0  0  0  0  0  0  0  0  0
   36.8080   29.5470   39.9360 N   0  0  0  0  0  0  0  0  0  0  0  0
   36.0150   29.5980   39.2680 H   0  0  0  0  0  0  0  0  0  0  0  0
   37.0670   28.7630   41.0710 C   0  0  0  0  0  0  0  0  0  0  0  0
   37.3510   29.3790   42.2650 C   0  0  0  0  0  0  0  0  0  0  0  0
   37.5480   28.6770   43.4440 C   0  0  0  0  0  0  0  0  0  0  0  0
   37.4640   27.3020   43.4690 C   0  0  0  0  0  0  0  0  0  0  0  0
   37.1790   26.6580   42.2790 C   0  0  0  0  0  0  0  0  0  0  0  0
   37.0810   25.2820   42.2880 C   0  0  0  0  0  0  0  0  0  0  0  0
   36.7970   24.5860   41.1550 C   0  0  0  0  0  0  0  0  0  0  0  0
   36.6120   25.3190   39.9900 C   0  0  0  0  0  0  0  0  0  0  0  0
   36.7130   26.6810   39.9980 C   0  0  0  0  0  0  0  0  0  0  0  0
   36.9920   27.3870   41.1260 C   0  0  0  0  0  0  0  0  0  0  0  0
   37.4400   30.4570   42.3510 H   0  0  0  0  0  0  0  0  0  0  0  0
   37.7710   29.1610   44.3780 H   0  0  0  0  0  0  0  0  0  0  0  0
   37.6170   26.7630   44.3950 H   0  0  0  0  0  0  0  0  0  0  0  0
   37.2320   24.7360   43.2110 H   0  0  0  0  0  0  0  0  0  0  0  0
   36.7100   23.5000   41.1240 H   0  0  0  0  0  0  0  0  0  0  0  0
   36.3850   24.7680   39.0740 H   0  0  0  0  0  0  0  0  0  0  0  0
   36.5290   27.3600   38.8160 O   0  0  0  0  0  0  0  0  0  0  0  0
   36.8320   27.0730   37.9160 H   0  0  0  0  0  0  0  0  0  0  0  0
  1 12  1  0  0  0  0
  1  4  1  1  0  0  0
  2  3  1  0  0  0  0
  2  1  1  0  0  0  0
  3  7  1  1  0  0  0
  3  1  1  0  0  0  0
  3 27  1  0  0  0  0
  5  2  1  0  0  0  0
  6  2  1  0  0  0  0
  8 14  1  0  0  0  0
  8  9  1  0  0  0  0
  9 15  1  0  0  0  0
 10  9  2  0  0  0  0
 10 17  1  0  0  0  0
 11 10  1  0  0  0  0
 12 13  1  0  0  0  0
 12 11  2  0  0  0  0
 13  8  2  0  0  0  0
 16 22  1  0  0  0  0
 16 23  1  0  0  0  0
 17 16  2  0  0  0  0
 18 20  2  0  0  0  0
 18 17  1  0  0  0  0
 19 18  1  0  0  0  0
 20 21  1  0  0  0  0
 21 22  2  0  0  0  0
 22 25  1  0  0  0  0
 24 23  1  0  0  0  0
 25 26  1  0  0  0  0
 27 29  1  0  0  0  0
 28 27  1  0  0  0  0
 29 38  2  0  0  0  0
 29 30  1  0  0  0  0
 30 39  1  0  0  0  0
 30 31  2  0  0  0  0
 31 32  1  0  0  0  0
 31 40  1  0  0  0  0
 32 41  1  0  0  0  0
 33 34  1  0  0  0  0
 33 32  2  0  0  0  0
 34 42  1  0  0  0  0
 35 34  2  0  0  0  0
 36 37  2  0  0  0  0
 36 35  1  0  0  0  0
 37 38  1  0  0  0  0
 38 33  1  0  0  0  0
 43 35  1  0  0  0  0
 44 36  1  0  0  0  0
 45 37  1  0  0  0  0
 46 45  1  0  0  0  0
M  END
>  <minimizedAffinity>
-7.11656141

$$$$

 OpenBabel03242511153D

 46 50  0  0  1  0  0  0  0  0999 V2000
   37.9730   32.6710   38.7390 C   0  0  1  0  0  0  0  0  0  0  0  0
   37.4200   33.6830   39.7100 C   0  0  0  0  0  0  0  0  0  0  0  0
   38.8960   33.2120   39.7370 C   0  0  2  0  0  0  0  0  0  0  0  0
   38.0960   33.0310   37.7190 H   0  0  0  0  0  0  0  0  0  0  0  0
   36.7520   33.2360   40.4850 H   0  0  0  0  0  0  0  0  0  0  0  0
   37.2260   34.7150   39.3640 H   0  0  0  0  0  0  0  0  0  0  0  0
   39.2080   32.5960   40.6060 H   0  0  0  0  0  0  0  0  0  0  0  0
   36.5060   29.3960   37.8380 C   0  0  0  0  0  0  0  0  0  0  0  0
   36.6830   28.6530   39.0580 C   0  0  0  0  0  0  0  0  0  0  0  0
   37.2990   29.3050   40.1390 C   0  0  0  0  0  0  0  0  0  0  0  0
   37.6940   30.5680   40.0010 N   0  0  0  0  0  0  0  0  0  0  0  0
   37.5130   31.2400   38.8410 C   0  0  0  0  0  0  0  0  0  0  0  0
   36.9150   30.6690   37.7320 N   0  0  0  0  0  0  0  0  0  0  0  0
   36.0280   28.9010   36.9920 H   0  0  0  0  0  0  0  0  0  0  0  0
   36.3480   27.6500   39.1090 H   0  0  0  0  0  0  0  0  0  0  0  0
   38.7860   28.4820   41.9100 C   0  0  0  0  0  0  0  0  0  0  0  0
   37.5110   28.6150   41.4020 C   0  0  0  0  0  0  0  0  0  0  0  0
   36.5210   28.0560   42.1740 C   0  0  0  0  0  0  0  0  0  0  0  0
   35.5000   28.1220   41.8370 H   0  0  0  0  0  0  0  0  0  0  0  0
   36.7050   27.4080   43.3570 C   0  0  0  0  0  3  0  0  0  0  0  0
   37.9980   27.2920   43.8430 C   0  0  0  0  0  3  0  0  0  0  0  0
   39.0370   27.8320   43.1130 C   0  0  0  0  0  0  0  0  0  0  0  0
   39.8310   29.0350   41.1600 O   0  0  0  0  0  0  0  0  0  0  0  0
   39.9430   30.0430   41.2450 H   0  0  0  0  0  0  0  0  0  0  0  0
   40.3800   27.7790   43.4960 O   0  0  0  0  0  0  0  0  0  0  0  0
   40.9780   27.0160   43.1790 H   0  0  0  0  0  0  0  0  0  0  0  0
   39.8810   34.1660   39.3130 N   0  0  0  0  0  0  0  0  0  0  0  0
   39.3770   35.0740   39.3080 H   0  0  0  0  0  0  0  0  0  0  0  0
   41.1910   33.7850   38.9840 C   0  0  0  0  0  0  0  0  0  0  0  0
   41.4300   33.1530   37.7900 C   0  0  0  0  0  0  0  0  0  0  0  0
   42.7040   32.8090   37.3630 C   0  0  0  0  0  0  0  0  0  0  0  0
   43.8080   33.0950   38.1360 C   0  0  0  0  0  0  0  0  0  0  0  0
   43.5940   33.7300   39.3450 C   0  0  0  0  0  0  0  0  0  0  0  0
   44.6890   34.0330   40.1260 C   0  0  0  0  0  0  0  0  0  0  0  0
   44.5510   34.6640   41.3240 C   0  0  0  0  0  0  0  0  0  0  0  0
   43.2610   34.9880   41.7240 C   0  0  0  0  0  0  0  0  0  0  0  0
   42.1870   34.6820   40.9380 C   0  0  0  0  0  0  0  0  0  0  0  0
   42.3140   34.0550   39.7370 C   0  0  0  0  0  0  0  0  0  0  0  0
   40.6280   32.8840   37.1090 H   0  0  0  0  0  0  0  0  0  0  0  0
   42.8890   32.3130   36.4270 H   0  0  0  0  0  0  0  0  0  0  0  0
   44.7980   32.8240   37.7930 H   0  0  0  0  0  0  0  0  0  0  0  0
   45.6830   33.7670   39.7900 H   0  0  0  0  0  0  0  0  0  0  0  0
   45.3910   34.9210   41.9670 H   0  0  0  0  0  0  0  0  0  0  0  0
   43.1400   35.4950   42.6850 H   0  0  0  0  0  0  0  0  0  0  0  0
   40.9300   35.0170   41.3840 O   0  0  0  0  0  0  0  0  0  0  0  0
   40.6010   34.9680   42.3190 H   0  0  0  0  0  0  0  0  0  0  0  0
  1  4  1  6  0  0  0
  1 12  1  0  0  0  0
  1  2  1  0  0  0  0
  1  3  1  0  0  0  0
  2  3  1  0  0  0  0
  2  5  1  0  0  0  0
  3  7  1  1  0  0  0
  6  2  1  0  0  0  0
  8  9  1  0  0  0  0
  9 15  1  0  0  0  0
  9 10  2  0  0  0  0
 10 17  1  0  0  0  0
 11 10  1  0  0  0  0
 12 11  2  0  0  0  0
 13  8  2  0  0  0  0
 13 12  1  0  0  0  0
 14  8  1  0  0  0  0
 16 22  1  0  0  0  0
 17 16  2  0  0  0  0
 17 18  1  0  0  0  0
 18 20  2  0  0  0  0
 19 18  1  0  0  0  0
 20 21  1  0  0  0  0
 22 25  1  0  0  0  0
 22 21  2  0  0  0  0
 23 24  1  0  0  0  0
 23 16  1  0  0  0  0
 26 25  1  0  0  0  0
 27  3  1  0  0  0  0
 28 27  1  0  0  0  0
 29 27  1  0  0  0  0
 29 38  1  0  0  0  0
 30 29  2  0  0  0  0
 31 30  1  0  0  0  0
 31 32  2  0  0  0  0
 32 33  1  0  0  0  0
 33 38  2  0  0  0  0
 33 34  1  0  0  0  0
 34 35  2  0  0  0  0
 35 36  1  0  0  0  0
 35 43  1  0  0  0  0
 36 44  1  0  0  0  0
 37 45  1  0  0  0  0
 37 36  2  0  0  0  0
 38 37  1  0  0  0  0
 39 30  1  0  0  0  0
 40 31  1  0  0  0  0
 41 32  1  0  0  0  0
 42 34  1  0  0  0  0
 45 46  1  0  0  0  0
M  END
>  <minimizedAffinity>
-7.09292126

$$$$

 OpenBabel03242511153D

 46 50  0  0  1  0  0  0  0  0999 V2000
   35.6490   28.7320   38.9210 C   0  0  1  0  0  0  0  0  0  0  0  0
   36.9640   28.0230   38.7150 C   0  0  0  0  0  0  0  0  0  0  0  0
   36.7700   29.5330   38.4290 C   0  0  2  0  0  0  0  0  0  0  0  0
   35.3650   28.8820   39.9610 H   0  0  0  0  0  0  0  0  0  0  0  0
   36.9730   27.3550   37.8210 H   0  0  0  0  0  0  0  0  0  0  0  0
   37.5740   27.7500   39.5960 H   0  0  0  0  0  0  0  0  0  0  0  0
   36.8110   29.8490   37.3660 H   0  0  0  0  0  0  0  0  0  0  0  0
   33.4700   26.9060   36.5520 C   0  0  0  0  0  0  0  0  0  0  0  0
   32.4100   27.8580   36.3410 C   0  0  0  0  0  0  0  0  0  0  0  0
   32.4850   29.0850   37.0200 C   0  0  0  0  0  0  0  0  0  0  0  0
   33.5180   29.3230   37.8250 N   0  0  0  0  0  0  0  0  0  0  0  0
   34.4990   28.4090   38.0030 C   0  0  0  0  0  0  0  0  0  0  0  0
   34.4970   27.1790   37.3700 N   0  0  0  0  0  0  0  0  0  0  0  0
   33.4220   25.9510   36.0310 H   0  0  0  0  0  0  0  0  0  0  0  0
   31.6140   27.6110   35.6880 H   0  0  0  0  0  0  0  0  0  0  0  0
   30.6640   30.4570   37.9260 C   0  0  0  0  0  0  0  0  0  0  0  0
   31.4500   30.0920   36.8540 C   0  0  0  0  0  0  0  0  0  0  0  0
   31.1640   30.7480   35.6800 C   0  0  0  0  0  0  0  0  0  0  0  0
   31.7400   30.5130   34.8010 H   0  0  0  0  0  0  0  0  0  0  0  0
   30.1980   31.6920   35.5110 C   0  0  0  0  0  3  0  0  0  0  0  0
   29.4250   32.0380   36.6090 C   0  0  0  0  0  3  0  0  0  0  0  0
   29.6630   31.4150   37.8160 C   0  0  0  0  0  0  0  0  0  0  0  0
   30.9150   29.8170   39.1460 O   0  0  0  0  0  0  0  0  0  0  0  0
   31.7170   30.1670   39.6650 H   0  0  0  0  0  0  0  0  0  0  0  0
   28.9510   31.6760   38.9910 O   0  0  0  0  0  0  0  0  0  0  0  0
   28.1300   31.1210   39.2310 H   0  0  0  0  0  0  0  0  0  0  0  0
   37.4100   30.4440   39.3350 N   0  0  0  0  0  0  0  0  0  0  0  0
   36.7490   30.5240   40.1320 H   0  0  0  0  0  0  0  0  0  0  0  0
   38.6490   31.0350   39.0440 C   0  0  0  0  0  0  0  0  0  0  0  0
   39.5620   30.3460   38.2850 C   0  0  0  0  0  0  0  0  0  0  0  0
   40.7780   30.8890   37.8960 C   0  0  0  0  0  0  0  0  0  0  0  0
   41.1270   32.1700   38.2610 C   0  0  0  0  0  0  0  0  0  0  0  0
   40.2240   32.8850   39.0260 C   0  0  0  0  0  0  0  0  0  0  0  0
   40.5540   34.1740   39.3910 C   0  0  0  0  0  0  0  0  0  0  0  0
   39.7090   34.9360   40.1370 C   0  0  0  0  0  0  0  0  0  0  0  0
   38.5030   34.3600   40.5160 C   0  0  0  0  0  0  0  0  0  0  0  0
   38.1920   33.0820   40.1450 C   0  0  0  0  0  0  0  0  0  0  0  0
   39.0270   32.3140   39.3960 C   0  0  0  0  0  0  0  0  0  0  0  0
   39.3830   29.3300   37.9480 H   0  0  0  0  0  0  0  0  0  0  0  0
   41.4920   30.3470   37.3030 H   0  0  0  0  0  0  0  0  0  0  0  0
   42.0770   32.5860   37.9500 H   0  0  0  0  0  0  0  0  0  0  0  0
   41.5010   34.5970   39.0830 H   0  0  0  0  0  0  0  0  0  0  0  0
   39.9340   35.9570   40.4430 H   0  0  0  0  0  0  0  0  0  0  0  0
   37.8180   34.9640   41.1160 H   0  0  0  0  0  0  0  0  0  0  0  0
   36.9890   32.5550   40.5530 O   0  0  0  0  0  0  0  0  0  0  0  0
   36.5480   32.6950   41.4310 H   0  0  0  0  0  0  0  0  0  0  0  0
  1  4  1  1  0  0  0
  2  1  1  0  0  0  0
  2  6  1  0  0  0  0
  3  7  1  6  0  0  0
  3  2  1  0  0  0  0
  3  1  1  0  0  0  0
  3 27  1  0  0  0  0
  5  2  1  0  0  0  0
  8 13  1  0  0  0  0
  9  8  2  0  0  0  0
  9 10  1  0  0  0  0
 10 11  2  0  0  0  0
 11 12  1  0  0  0  0
 12  1  1  0  0  0  0
 13 12  2  0  0  0  0
 14  8  1  0  0  0  0
 15  9  1  0  0  0  0
 16 23  1  0  0  0  0
 17 10  1  0  0  0  0
 17 16  2  0  0  0  0
 18 17  1  0  0  0  0
 19 18  1  0  0  0  0
 20 18  2  0  0  0  0
 20 21  1  0  0  0  0
 21 22  2  0  0  0  0
 22 16  1  0  0  0  0
 22 25  1  0  0  0  0
 23 24  1  0  0  0  0
 25 26  1  0  0  0  0
 27 28  1  0  0  0  0
 29 27  1  0  0  0  0
 29 38  1  0  0  0  0
 30 29  2  0  0  0  0
 31 32  2  0  0  0  0
 31 30  1  0  0  0  0
 32 33  1  0  0  0  0
 33 34  2  0  0  0  0
 33 38  1  0  0  0  0
 34 35  1  0  0  0  0
 35 43  1  0  0  0  0
 35 36  2  0  0  0  0
 36 44  1  0  0  0  0
 37 36  1  0  0  0  0
 37 45  1  0  0  0  0
 38 37  2  0  0  0  0
 39 30  1  0  0  0  0
 40 31  1  0  0  0  0
 41 32  1  0  0  0  0
 42 34  1  0  0  0  0
 45 46  1  0  0  0  0
M  END
>  <minimizedAffinity>
-7.07177305

$$$$

 OpenBabel03242511153D

 46 50  0  0  1  0  0  0  0  0999 V2000
   36.4400   29.2980   39.4100 C   0  0  1  0  0  0  0  0  0  0  0  0
   36.5600   30.7930   39.2580 C   0  0  0  0  0  0  0  0  0  0  0  0
   35.9030   30.1250   40.4920 C   0  0  2  0  0  0  0  0  0  0  0  0
   37.3750   28.7790   39.6140 H   0  0  0  0  0  0  0  0  0  0  0  0
   35.8570   31.2200   38.5040 H   0  0  0  0  0  0  0  0  0  0  0  0
   37.5440   31.2740   39.4090 H   0  0  0  0  0  0  0  0  0  0  0  0
   34.8070   30.2570   40.6060 H   0  0  0  0  0  0  0  0  0  0  0  0
   34.8520   26.5340   37.5300 C   0  0  0  0  0  0  0  0  0  0  0  0
   33.7890   27.2230   36.8450 C   0  0  0  0  0  0  0  0  0  0  0  0
   33.6590   28.6050   37.0560 C   0  0  0  0  0  0  0  0  0  0  0  0
   34.5100   29.2230   37.8720 N   0  0  0  0  0  0  0  0  0  0  0  0
   35.4990   28.5490   38.5020 C   0  0  0  0  0  0  0  0  0  0  0  0
   35.6920   27.1880   38.3450 N   0  0  0  0  0  0  0  0  0  0  0  0
   34.9620   25.4620   37.3740 H   0  0  0  0  0  0  0  0  0  0  0  0
   33.1430   26.6770   36.2080 H   0  0  0  0  0  0  0  0  0  0  0  0
   31.5290   29.8210   37.1230 C   0  0  0  0  0  0  0  0  0  0  0  0
   32.6080   29.3640   36.3980 C   0  0  0  0  0  0  0  0  0  0  0  0
   32.5820   29.6850   35.0610 C   0  0  0  0  0  0  0  0  0  0  0  0
   33.3950   29.3590   34.4340 H   0  0  0  0  0  0  0  0  0  0  0  0
   31.6060   30.3950   34.4320 C   0  0  0  0  0  3  0  0  0  0  0  0
   30.5340   30.8420   35.1890 C   0  0  0  0  0  3  0  0  0  0  0  0
   30.5010   30.5520   36.5370 C   0  0  0  0  0  0  0  0  0  0  0  0
   31.5080   29.5200   38.4900 O   0  0  0  0  0  0  0  0  0  0  0  0
   32.1000   30.1050   39.0760 H   0  0  0  0  0  0  0  0  0  0  0  0
   29.4770   30.9450   37.4040 O   0  0  0  0  0  0  0  0  0  0  0  0
   28.6830   30.3290   37.5780 H   0  0  0  0  0  0  0  0  0  0  0  0
   36.6340   30.1970   41.7240 N   0  0  0  0  0  0  0  0  0  0  0  0
   36.5500   31.1880   42.0190 H   0  0  0  0  0  0  0  0  0  0  0  0
   37.2900   29.0790   42.2660 C   0  0  0  0  0  0  0  0  0  0  0  0
   36.5720   27.9420   42.5360 C   0  0  0  0  0  0  0  0  0  0  0  0
   37.1600   26.7760   43.0040 C   0  0  0  0  0  0  0  0  0  0  0  0
   38.5180   26.7090   43.2210 C   0  0  0  0  0  0  0  0  0  0  0  0
   39.2640   27.8420   42.9570 C   0  0  0  0  0  0  0  0  0  0  0  0
   40.6270   27.7890   43.1590 C   0  0  0  0  0  0  0  0  0  0  0  0
   41.4220   28.8660   42.9130 C   0  0  0  0  0  0  0  0  0  0  0  0
   40.8010   30.0190   42.4510 C   0  0  0  0  0  0  0  0  0  0  0  0
   39.4490   30.0550   42.2560 C   0  0  0  0  0  0  0  0  0  0  0  0
   38.6470   28.9830   42.4950 C   0  0  0  0  0  0  0  0  0  0  0  0
   35.4970   27.8920   42.3990 H   0  0  0  0  0  0  0  0  0  0  0  0
   36.5950   25.8860   43.2160 H   0  0  0  0  0  0  0  0  0  0  0  0
   38.9670   25.7930   43.5850 H   0  0  0  0  0  0  0  0  0  0  0  0
   41.0850   26.8780   43.5210 H   0  0  0  0  0  0  0  0  0  0  0  0
   42.5010   28.8610   43.0590 H   0  0  0  0  0  0  0  0  0  0  0  0
   41.4310   30.8900   42.2520 H   0  0  0  0  0  0  0  0  0  0  0  0
   38.8820   31.2240   41.8060 O   0  0  0  0  0  0  0  0  0  0  0  0
   39.1410   32.1470   42.0650 H   0  0  0  0  0  0  0  0  0  0  0  0
  1  4  1  1  0  0  0
  1  3  1  0  0  0  0
  2  6  1  0  0  0  0
  2  1  1  0  0  0  0
  2  3  1  0  0  0  0
  3  7  1  1  0  0  0
  3 27  1  0  0  0  0
  5  2  1  0  0  0  0
  8 13  1  0  0  0  0
  9 10  1  0  0  0  0
  9  8  2  0  0  0  0
 10 11  2  0  0  0  0
 11 12  1  0  0  0  0
 12  1  1  0  0  0  0
 13 12  2  0  0  0  0
 14  8  1  0  0  0  0
 15  9  1  0  0  0  0
 16 23  1  0  0  0  0
 17 10  1  0  0  0  0
 17 16  2  0  0  0  0
 18 17  1  0  0  0  0
 19 18  1  0  0  0  0
 20 18  2  0  0  0  0
 20 21  1  0  0  0  0
 21 22  2  0  0  0  0
 22 16  1  0  0  0  0
 22 25  1  0  0  0  0
 23 24  1  0  0  0  0
 25 26  1  0  0  0  0
 27 28  1  0  0  0  0
 27 29  1  0  0  0  0
 29 38  2  0  0  0  0
 29 30  1  0  0  0  0
 30 31  2  0  0  0  0
 31 40  1  0  0  0  0
 31 32  1  0  0  0  0
 32 41  1  0  0  0  0
 33 34  1  0  0  0  0
 33 32  2  0  0  0  0
 34 42  1  0  0  0  0
 35 43  1  0  0  0  0
 35 34  2  0  0  0  0
 36 35  1  0  0  0  0
 37 36  2  0  0  0  0
 37 38  1  0  0  0  0
 38 33  1  0  0  0  0
 39 30  1  0  0  0  0
 44 36  1  0  0  0  0
 45 46  1  0  0  0  0
 45 37  1  0  0  0  0
M  END
>  <minimizedAffinity>
-7.0591116

$$$$

 OpenBabel03242511153D

 46 50  0  0  1  0  0  0  0  0999 V2000
   39.1170   33.3400   39.5210 C   0  0  1  0  0  0  0  0  0  0  0  0
   38.8810   34.0310   40.8400 C   0  0  0  0  0  0  0  0  0  0  0  0
   40.2880   33.5910   40.3620 C   0  0  2  0  0  0  0  0  0  0  0  0
   39.0060   33.9740   38.6430 H   0  0  0  0  0  0  0  0  0  0  0  0
   38.3990   33.3750   41.6040 H   0  0  0  0  0  0  0  0  0  0  0  0
   38.6690   35.1150   40.8520 H   0  0  0  0  0  0  0  0  0  0  0  0
   40.7670   32.7590   40.9200 H   0  0  0  0  0  0  0  0  0  0  0  0
   37.6640   30.3220   37.9490 C   0  0  0  0  0  0  0  0  0  0  0  0
   37.6990   29.3820   39.0390 C   0  0  0  0  0  0  0  0  0  0  0  0
   38.2200   29.8200   40.2670 C   0  0  0  0  0  0  0  0  0  0  0  0
   38.6600   31.0710   40.3800 N   0  0  0  0  0  0  0  0  0  0  0  0
   38.6130   31.9330   39.3380 C   0  0  0  0  0  0  0  0  0  0  0  0
   38.1140   31.5760   38.0980 N   0  0  0  0  0  0  0  0  0  0  0  0
   37.2610   29.9930   36.9920 H   0  0  0  0  0  0  0  0  0  0  0  0
   37.3350   28.3990   38.8890 H   0  0  0  0  0  0  0  0  0  0  0  0
   37.4360   29.1040   42.4790 C   0  0  0  0  0  0  0  0  0  0  0  0
   38.2870   28.9240   41.4110 C   0  0  0  0  0  0  0  0  0  0  0  0
   39.1560   27.8660   41.5370 C   0  0  0  0  0  0  0  0  0  0  0  0
   39.8510   27.6670   40.7380 H   0  0  0  0  0  0  0  0  0  0  0  0
   39.2290   27.0200   42.6000 C   0  0  0  0  0  3  0  0  0  0  0  0
   38.3590   27.2260   43.6590 C   0  0  0  0  0  3  0  0  0  0  0  0
   37.4620   28.2720   43.5930 C   0  0  0  0  0  0  0  0  0  0  0  0
   36.5310   30.1690   42.3990 O   0  0  0  0  0  0  0  0  0  0  0  0
   35.7090   30.0020   41.8230 H   0  0  0  0  0  0  0  0  0  0  0  0
   36.5380   28.5830   44.5940 O   0  0  0  0  0  0  0  0  0  0  0  0
   36.7740   29.2520   45.3260 H   0  0  0  0  0  0  0  0  0  0  0  0
   41.1920   34.6380   39.9820 N   0  0  0  0  0  0  0  0  0  0  0  0
   40.6220   35.2710   39.3890 H   0  0  0  0  0  0  0  0  0  0  0  0
   42.5370   34.6420   40.3870 C   0  0  0  0  0  0  0  0  0  0  0  0
   42.8520   34.9950   41.6750 C   0  0  0  0  0  0  0  0  0  0  0  0
   44.1470   34.9560   42.1690 C   0  0  0  0  0  0  0  0  0  0  0  0
   45.1940   34.5500   41.3720 C   0  0  0  0  0  0  0  0  0  0  0  0
   44.9030   34.1890   40.0690 C   0  0  0  0  0  0  0  0  0  0  0  0
   45.9380   33.7700   39.2600 C   0  0  0  0  0  0  0  0  0  0  0  0
   45.7210   33.3950   37.9710 C   0  0  0  0  0  0  0  0  0  0  0  0
   44.4140   33.4520   37.5050 C   0  0  0  0  0  0  0  0  0  0  0  0
   43.3990   33.8690   38.3200 C   0  0  0  0  0  0  0  0  0  0  0  0
   43.6050   34.2430   39.6120 C   0  0  0  0  0  0  0  0  0  0  0  0
   42.0990   35.3300   42.3820 H   0  0  0  0  0  0  0  0  0  0  0  0
   44.3920   35.2340   43.1780 H   0  0  0  0  0  0  0  0  0  0  0  0
   46.2010   34.5210   41.7680 H   0  0  0  0  0  0  0  0  0  0  0  0
   46.9480   33.7360   39.6490 H   0  0  0  0  0  0  0  0  0  0  0  0
   46.5120   33.0570   37.3030 H   0  0  0  0  0  0  0  0  0  0  0  0
   44.2290   33.1530   36.4700 H   0  0  0  0  0  0  0  0  0  0  0  0
   42.1240   33.9160   37.8090 O   0  0  0  0  0  0  0  0  0  0  0  0
   41.8630   34.1930   36.8920 H   0  0  0  0  0  0  0  0  0  0  0  0
  1  4  1  6  0  0  0
  1  3  1  0  0  0  0
  1  2  1  0  0  0  0
  2  6  1  0  0  0  0
  2  5  1  0  0  0  0
  3  2  1  0  0  0  0
  3  7  1  1  0  0  0
  8 13  2  0  0  0  0
  8  9  1  0  0  0  0
  9 10  2  0  0  0  0
 10 11  1  0  0  0  0
 10 17  1  0  0  0  0
 12  1  1  0  0  0  0
 12 11  2  0  0  0  0
 13 12  1  0  0  0  0
 14  8  1  0  0  0  0
 15  9  1  0  0  0  0
 16 22  1  0  0  0  0
 17 18  1  0  0  0  0
 17 16  2  0  0  0  0
 18 20  2  0  0  0  0
 19 18  1  0  0  0  0
 20 21  1  0  0  0  0
 22 21  2  0  0  0  0
 22 25  1  0  0  0  0
 23 16  1  0  0  0  0
 24 23  1  0  0  0  0
 25 26  1  0  0  0  0
 27  3  1  0  0  0  0
 27 29  1  0  0  0  0
 28 27  1  0  0  0  0
 29 30  1  0  0  0  0
 30 31  2  0  0  0  0
 30 39  1  0  0  0  0
 31 40  1  0  0  0  0
 32 41  1  0  0  0  0
 32 31  1  0  0  0  0
 33 32  2  0  0  0  0
 34 42  1  0  0  0  0
 34 33  1  0  0  0  0
 35 34  2  0  0  0  0
 36 35  1  0  0  0  0
 36 37  2  0  0  0  0
 37 38  1  0  0  0  0
 38 33  1  0  0  0  0
 38 29  2  0  0  0  0
 43 35  1  0  0  0  0
 44 36  1  0  0  0  0
 45 37  1  0  0  0  0
 46 45  1  0  0  0  0
M  END
>  <minimizedAffinity>
-7.04112005

$$$$

 OpenBabel03242511153D

 46 50  0  0  1  0  0  0  0  0999 V2000
   37.9400   31.2620   37.5470 C   0  0  1  0  0  0  0  0  0  0  0  0
   38.4000   32.2410   38.5970 C   0  0  0  0  0  0  0  0  0  0  0  0
   39.3460   31.2010   37.9460 C   0  0  2  0  0  0  0  0  0  0  0  0
   37.7310   31.6980   36.5710 H   0  0  0  0  0  0  0  0  0  0  0  0
   38.0380   31.9940   39.6230 H   0  0  0  0  0  0  0  0  0  0  0  0
   38.5480   33.3010   38.3200 H   0  0  0  0  0  0  0  0  0  0  0  0
   39.7100   30.3800   38.5980 H   0  0  0  0  0  0  0  0  0  0  0  0
   35.1180   28.8700   37.4660 C   0  0  0  0  0  0  0  0  0  0  0  0
   35.3060   28.1590   38.7030 C   0  0  0  0  0  0  0  0  0  0  0  0
   36.3920   28.5270   39.5140 C   0  0  0  0  0  0  0  0  0  0  0  0
   37.2000   29.5060   39.1160 N   0  0  0  0  0  0  0  0  0  0  0  0
   36.9990   30.1570   37.9470 C   0  0  0  0  0  0  0  0  0  0  0  0
   35.9520   29.8530   37.0950 N   0  0  0  0  0  0  0  0  0  0  0  0
   34.2780   28.5930   36.8290 H   0  0  0  0  0  0  0  0  0  0  0  0
   34.6290   27.3880   38.9670 H   0  0  0  0  0  0  0  0  0  0  0  0
   36.6420   28.5660   41.9540 C   0  0  0  0  0  0  0  0  0  0  0  0
   36.6420   27.8500   40.7760 C   0  0  0  0  0  0  0  0  0  0  0  0
   36.8890   26.5050   40.9180 C   0  0  0  0  0  0  0  0  0  0  0  0
   36.9040   25.8850   40.0380 H   0  0  0  0  0  0  0  0  0  0  0  0
   37.1240   25.8590   42.0930 C   0  0  0  0  0  3  0  0  0  0  0  0
   37.1180   26.6060   43.2610 C   0  0  0  0  0  3  0  0  0  0  0  0
   36.8750   27.9620   43.1850 C   0  0  0  0  0  0  0  0  0  0  0  0
   36.3950   29.9410   41.8640 O   0  0  0  0  0  0  0  0  0  0  0  0
   35.4180   30.2020   41.7510 H   0  0  0  0  0  0  0  0  0  0  0  0
   36.8440   28.8200   44.2880 O   0  0  0  0  0  0  0  0  0  0  0  0
   37.6860   29.3110   44.5850 H   0  0  0  0  0  0  0  0  0  0  0  0
   40.3370   31.7140   37.0420 N   0  0  0  0  0  0  0  0  0  0  0  0
   39.8390   32.4450   36.4990 H   0  0  0  0  0  0  0  0  0  0  0  0
   41.6450   31.2050   37.0070 C   0  0  0  0  0  0  0  0  0  0  0  0
   41.8450   29.8780   36.7200 C   0  0  0  0  0  0  0  0  0  0  0  0
   43.1070   29.3180   36.5980 C   0  0  0  0  0  0  0  0  0  0  0  0
   44.2390   30.0860   36.7620 C   0  0  0  0  0  0  0  0  0  0  0  0
   44.0640   31.4260   37.0530 C   0  0  0  0  0  0  0  0  0  0  0  0
   45.1870   32.2120   37.2100 C   0  0  0  0  0  0  0  0  0  0  0  0
   45.0880   33.5390   37.4910 C   0  0  0  0  0  0  0  0  0  0  0  0
   43.8090   34.0670   37.6130 C   0  0  0  0  0  0  0  0  0  0  0  0
   42.7070   33.2750   37.4540 C   0  0  0  0  0  0  0  0  0  0  0  0
   42.7950   31.9480   37.1690 C   0  0  0  0  0  0  0  0  0  0  0  0
   41.0190   29.1890   36.5730 H   0  0  0  0  0  0  0  0  0  0  0  0
   43.2620   28.2770   36.3740 H   0  0  0  0  0  0  0  0  0  0  0  0
   45.2200   29.6390   36.6630 H   0  0  0  0  0  0  0  0  0  0  0  0
   46.1710   31.7730   37.1110 H   0  0  0  0  0  0  0  0  0  0  0  0
   45.9500   34.1910   37.6210 H   0  0  0  0  0  0  0  0  0  0  0  0
   43.7190   35.1330   37.8400 H   0  0  0  0  0  0  0  0  0  0  0  0
   41.4630   33.8450   37.5930 O   0  0  0  0  0  0  0  0  0  0  0  0
   41.2010   34.5410   38.2500 H   0  0  0  0  0  0  0  0  0  0  0  0
  1  4  1  6  0  0  0
  1  3  1  0  0  0  0
  1 12  1  0  0  0  0
  1  2  1  0  0  0  0
  2  5  1  0  0  0  0
  3  2  1  0  0  0  0
  3  7  1  1  0  0  0
  6  2  1  0  0  0  0
  8  9  1  0  0  0  0
  9 15  1  0  0  0  0
  9 10  2  0  0  0  0
 10 17  1  0  0  0  0
 11 10  1  0  0  0  0
 12 11  2  0  0  0  0
 13  8  2  0  0  0  0
 13 12  1  0  0  0  0
 14  8  1  0  0  0  0
 16 22  1  0  0  0  0
 17 18  1  0  0  0  0
 17 16  2  0  0  0  0
 18 20  2  0  0  0  0
 19 18  1  0  0  0  0
 20 21  1  0  0  0  0
 22 21  2  0  0  0  0
 22 25  1  0  0  0  0
 23 16  1  0  0  0  0
 24 23  1  0  0  0  0
 25 26  1  0  0  0  0
 27  3  1  0  0  0  0
 28 27  1  0  0  0  0
 29 27  1  0  0  0  0
 29 38  1  0  0  0  0
 30 29  2  0  0  0  0
 31 30  1  0  0  0  0
 31 32  2  0  0  0  0
 32 33  1  0  0  0  0
 33 38  2  0  0  0  0
 33 34  1  0  0  0  0
 34 35  2  0  0  0  0
 35 36  1  0  0  0  0
 35 43  1  0  0  0  0
 36 44  1  0  0  0  0
 37 45  1  0  0  0  0
 37 36  2  0  0  0  0
 38 37  1  0  0  0  0
 39 30  1  0  0  0  0
 40 31  1  0  0  0  0
 41 32  1  0  0  0  0
 42 34  1  0  0  0  0
 45 46  1  0  0  0  0
M  END
>  <minimizedAffinity>
-7.02735806

$$$$
