
 OpenBabel03252505303D

 29 30  0  0  0  0  0  0  0  0999 V2000
   45.3700   30.5560   46.8340 O   0  0  0  0  0  0  0  0  0  0  0  0
   45.1080   29.6680   47.8350 C   0  0  0  0  0  0  0  0  0  0  0  0
   44.1560   29.9430   48.3660 H   0  0  0  0  0  0  0  0  0  0  0  0
   45.8840   29.7190   48.6450 H   0  0  0  0  0  0  0  0  0  0  0  0
   44.6520   27.2170   48.2480 C   0  0  0  0  0  0  0  0  0  0  0  0
   44.9200   28.2630   47.3940 C   0  0  0  0  0  0  0  0  0  0  0  0
   45.0250   27.9830   46.0400 C   0  0  0  0  0  0  0  0  0  0  0  0
   45.2360   28.7510   45.3130 H   0  0  0  0  0  0  0  0  0  0  0  0
   44.8770   26.7180   45.4910 C   0  0  0  0  0  3  0  0  0  0  0  0
   44.6070   25.6790   46.3670 C   0  0  0  0  0  3  0  0  0  0  0  0
   44.5020   25.9680   47.7270 C   0  0  0  0  0  0  0  0  0  0  0  0
   44.5460   27.5000   49.6020 O   0  0  0  0  0  0  0  0  0  0  0  0
   45.2580   27.3300   50.2950 H   0  0  0  0  0  0  0  0  0  0  0  0
   44.2330   24.9360   48.6100 O   0  0  0  0  0  0  0  0  0  0  0  0
   43.2770   24.8270   48.9180 H   0  0  0  0  0  0  0  0  0  0  0  0
   46.7360   31.6930   48.7120 O   0  0  0  0  0  0  0  0  0  0  0  0
   45.8110   32.0320   47.5440 P   0  0  2  0  0  0  0  0  0  0  0  0
   44.3930   32.7810   48.0670 O   0  0  0  0  0  0  0  0  0  0  0  0
   44.6040   33.1560   48.9810 H   0  0  0  0  0  0  0  0  0  0  0  0
   46.6650   33.0280   46.4960 O   0  0  0  0  0  0  0  0  0  0  0  0
   44.5410   35.4050   44.9560 C   0  0  0  0  0  0  0  0  0  0  0  0
   44.9830   35.4940   43.6140 C   0  0  0  0  0  0  0  0  0  0  0  0
   46.0780   34.6630   43.2790 C   0  0  0  0  0  0  0  0  0  0  0  0
   46.6120   33.8590   44.2570 N   0  0  0  0  0  0  0  0  0  0  0  0
   46.1420   33.8270   45.5030 C   0  0  0  0  0  0  0  0  0  0  0  0
   45.1160   34.5960   45.8420 N   0  0  0  0  0  0  0  0  0  0  0  0
   43.6930   36.0640   45.1690 H   0  0  0  0  0  0  0  0  0  0  0  0
   44.5260   36.1440   42.8800 H   0  0  0  0  0  0  0  0  0  0  0  0
   46.4710   34.6750   42.2730 H   0  0  0  0  0  0  0  0  0  0  0  0
  1 17  1  0  0  0  0
  1  2  1  0  0  0  0
  2  3  1  0  0  0  0
  2  4  1  0  0  0  0
  5 12  1  0  0  0  0
  6  2  1  0  0  0  0
  6  5  2  0  0  0  0
  7  6  1  0  0  0  0
  8  7  1  0  0  0  0
  9  7  2  0  0  0  0
  9 10  1  0  0  0  0
 10 11  2  0  0  0  0
 11  5  1  0  0  0  0
 11 14  1  0  0  0  0
 12 13  1  0  0  0  0
 14 15  1  0  0  0  0
 17 18  1  0  0  0  0
 17 16  2  1  0  0  0
 18 19  1  0  0  0  0
 20 17  1  0  0  0  0
 21 27  1  0  0  0  0
 21 26  1  0  0  0  0
 22 21  2  0  0  0  0
 23 22  1  0  0  0  0
 23 24  2  0  0  0  0
 24 25  1  0  0  0  0
 25 26  2  0  0  0  0
 25 20  1  0  0  0  0
 28 22  1  0  0  0  0
 29 23  1  0  0  0  0
M  END
>  <minimizedAffinity>
-5.1053381

>  <minimizedRMSD>
1.16641867

$$$$
