
 OpenBabel03242518363D

 37 40  0  0  1  0  0  0  0  0999 V2000
   49.5250   33.2670   42.4560 C   0  0  0  0  0  0  0  0  0  0  0  0
   50.3040   32.3820   41.7120 C   0  0  0  0  0  0  0  0  0  0  0  0
   50.0150   31.0870   42.1150 C   0  0  0  0  0  0  0  0  0  0  0  0
   49.0670   31.2530   43.0920 C   0  0  0  0  0  0  0  0  0  0  0  0
   48.7880   32.5230   43.2850 O   0  0  0  0  0  0  0  0  0  0  0  0
   51.0010   32.7560   40.9560 H   0  0  0  0  0  0  0  0  0  0  0  0
   50.4780   30.2030   41.7010 H   0  0  0  0  0  0  0  0  0  0  0  0
   48.4350   30.1460   43.8310 C   0  0  2  0  0  0  0  0  0  0  0  0
   47.7170   29.0900   43.0880 C   0  0  0  0  0  0  0  0  0  0  0  0
   46.8920   30.1470   43.7520 C   0  0  1  0  0  0  0  0  0  0  0  0
   48.8500   30.0280   44.8530 H   0  0  0  0  0  0  0  0  0  0  0  0
   47.7370   29.0830   41.9930 H   0  0  0  0  0  0  0  0  0  0  0  0
   47.7650   28.0550   43.5300 H   0  0  0  0  0  0  0  0  0  0  0  0
   46.4090   30.9050   43.0950 H   0  0  0  0  0  0  0  0  0  0  0  0
   45.0970   29.0050   44.9940 C   0  0  0  0  0  0  0  0  0  0  0  0
   46.2350   29.7830   45.0310 C   0  0  0  0  0  0  0  0  0  0  0  0
   46.6930   30.1760   46.2710 C   0  0  0  0  0  0  0  0  0  0  0  0
   47.5830   30.7860   46.3320 H   0  0  0  0  0  0  0  0  0  0  0  0
   46.0260   29.7970   47.4190 C   0  0  0  0  0  3  0  0  0  0  0  0
   44.8880   29.0200   47.3950 C   0  0  0  0  0  3  0  0  0  0  0  0
   44.4210   28.6220   46.1580 C   0  0  0  0  0  0  0  0  0  0  0  0
   44.6130   28.5950   43.7550 O   0  0  0  0  0  0  0  0  0  0  0  0
   43.7150   28.1490   43.6970 H   0  0  0  0  0  0  0  0  0  0  0  0
   43.2730   27.8350   46.0920 O   0  0  0  0  0  0  0  0  0  0  0  0
   42.4000   28.3670   46.1180 H   0  0  0  0  0  0  0  0  0  0  0  0
   49.4400   34.6720   42.4310 O   0  0  0  0  0  0  0  0  0  0  0  0
   48.5480   35.3030   41.5430 C   0  0  0  0  0  0  0  0  0  0  0  0
   49.0760   36.0710   40.6940 O   0  0  0  0  0  0  0  0  0  0  0  0
   47.1680   35.0040   41.7070 C   0  0  0  0  0  0  0  0  0  0  0  0
   46.6170   34.2630   40.6980 C   0  0  0  0  0  0  0  0  0  0  0  0
   45.2660   33.9330   40.7930 C   0  0  0  0  0  0  0  0  0  0  0  0
   44.5800   34.3580   41.8670 N   0  0  0  0  0  0  0  0  0  0  0  0
   45.1480   35.0810   42.8360 C   0  0  0  0  0  0  0  0  0  0  0  0
   46.4540   35.3990   42.7420 N   0  0  0  0  0  0  0  0  0  0  0  0
   47.0970   33.8760   39.7930 H   0  0  0  0  0  0  0  0  0  0  0  0
   44.7660   33.3470   40.0260 H   0  0  0  0  0  0  0  0  0  0  0  0
   44.5060   35.3790   43.6680 H   0  0  0  0  0  0  0  0  0  0  0  0
  1  5  1  0  0  0  0
  2  3  1  0  0  0  0
  2  1  2  0  0  0  0
  3  4  2  0  0  0  0
  4  5  1  0  0  0  0
  4  8  1  0  0  0  0
  6  2  1  0  0  0  0
  7  3  1  0  0  0  0
  8 11  1  1  0  0  0
  9 13  1  0  0  0  0
  9 10  1  0  0  0  0
  9  8  1  0  0  0  0
 10 14  1  6  0  0  0
 10  8  1  0  0  0  0
 10 16  1  0  0  0  0
 12  9  1  0  0  0  0
 15 16  2  0  0  0  0
 15 21  1  0  0  0  0
 16 17  1  0  0  0  0
 17 18  1  0  0  0  0
 17 19  2  0  0  0  0
 20 19  1  0  0  0  0
 21 20  2  0  0  0  0
 22 15  1  0  0  0  0
 23 22  1  0  0  0  0
 24 25  1  0  0  0  0
 24 21  1  0  0  0  0
 26  1  1  0  0  0  0
 27 29  1  0  0  0  0
 27 26  1  0  0  0  0
 28 27  2  0  0  0  0
 29 34  1  0  0  0  0
 30 31  1  0  0  0  0
 30 29  2  0  0  0  0
 31 32  2  0  0  0  0
 32 33  1  0  0  0  0
 33 37  1  0  0  0  0
 34 33  2  0  0  0  0
 35 30  1  0  0  0  0
 36 31  1  0  0  0  0
M  END
>  <minimizedAffinity>
-4.36005878

>  <minimizedRMSD>
8.22193432

$$$$
