
 OpenBabel03252503413D

 23 24  0  0  0  0  0  0  0  0999 V2000
   45.5880   34.5280   44.1130 C   0  0  0  0  0  0  0  0  0  0  0  0
   46.4910   34.2650   43.0800 C   0  0  0  0  0  0  0  0  0  0  0  0
   47.4250   33.2570   43.2830 C   0  0  0  0  0  0  0  0  0  0  0  0
   47.4100   32.5870   44.4660 N   0  0  0  0  0  0  0  0  0  0  0  0
   46.5300   32.8600   45.4400 C   0  0  0  0  0  0  0  0  0  0  0  0
   45.6100   33.8300   45.2770 N   0  0  0  0  0  0  0  0  0  0  0  0
   44.7970   35.2880   44.1000 H   0  0  0  0  0  0  0  0  0  0  0  0
   48.0840   33.1080   42.4590 H   0  0  0  0  0  0  0  0  0  0  0  0
   45.7980   30.9840   46.8590 C   0  0  0  0  0  0  0  0  0  0  0  0
   46.5540   32.1120   46.6930 C   0  0  0  0  0  0  0  0  0  0  0  0
   47.3350   32.5080   47.7500 C   0  0  0  0  0  0  0  0  0  0  0  0
   47.9590   33.3770   47.7080 H   0  0  0  0  0  0  0  0  0  0  0  0
   47.3390   31.7780   48.9280 C   0  0  0  0  0  3  0  0  0  0  0  0
   46.5630   30.6410   49.0700 C   0  0  0  0  0  3  0  0  0  0  0  0
   45.7720   30.2300   48.0120 C   0  0  0  0  0  0  0  0  0  0  0  0
   45.0000   30.5880   45.7680 O   0  0  0  0  0  0  0  0  0  0  0  0
   45.3160   29.9330   45.0760 H   0  0  0  0  0  0  0  0  0  0  0  0
   44.9460   29.0960   48.0410 O   0  0  0  0  0  0  0  0  0  0  0  0
   44.8260   28.5270   47.2050 H   0  0  0  0  0  0  0  0  0  0  0  0
   46.3220   35.1190   41.8840 C   0  0  0  0  0  0  0  0  0  0  0  0
   45.4320   34.8200   41.2870 H   0  0  0  0  0  0  0  0  0  0  0  0
   47.2460   35.0180   41.2790 H   0  0  0  0  0  0  0  0  0  0  0  0
   46.1170   36.1560   42.2170 H   0  0  0  0  0  0  0  0  0  0  0  0
  1  6  1  0  0  0  0
  2  3  1  0  0  0  0
  2  1  2  0  0  0  0
  3  4  2  0  0  0  0
  4  5  1  0  0  0  0
  5 10  1  0  0  0  0
  6  5  2  0  0  0  0
  7  1  1  0  0  0  0
  8  3  1  0  0  0  0
  9 15  1  0  0  0  0
 10  9  2  0  0  0  0
 10 11  1  0  0  0  0
 11 13  2  0  0  0  0
 12 11  1  0  0  0  0
 13 14  1  0  0  0  0
 15 18  1  0  0  0  0
 15 14  2  0  0  0  0
 16  9  1  0  0  0  0
 17 16  1  0  0  0  0
 19 18  1  0  0  0  0
 20 23  1  0  0  0  0
 20  2  1  0  0  0  0
 21 20  1  0  0  0  0
 22 20  1  0  0  0  0
M  END
>  <minimizedAffinity>
-4.4381032

>  <minimizedRMSD>
2.41795921

$$$$
