
 OpenBabel03242518363D

 37 40  0  0  1  0  0  0  0  0999 V2000
   47.9790   32.5420   40.8100 C   0  0  0  0  0  0  0  0  0  0  0  0
   49.1610   32.3140   40.1090 C   0  0  0  0  0  0  0  0  0  0  0  0
   48.8860   32.3440   38.7500 C   0  0  0  0  0  0  0  0  0  0  0  0
   47.5380   32.5920   38.6960 C   0  0  0  0  0  0  0  0  0  0  0  0
   47.0180   32.7050   39.8970 O   0  0  0  0  0  0  0  0  0  0  0  0
   50.1010   32.1490   40.6440 H   0  0  0  0  0  0  0  0  0  0  0  0
   49.6250   32.1970   37.9750 H   0  0  0  0  0  0  0  0  0  0  0  0
   46.7680   32.7200   37.4470 C   0  0  2  0  0  0  0  0  0  0  0  0
   45.3660   33.1830   37.4990 C   0  0  0  0  0  0  0  0  0  0  0  0
   45.6000   31.7160   37.3290 C   0  0  1  0  0  0  0  0  0  0  0  0
   47.4200   32.7830   36.5510 H   0  0  0  0  0  0  0  0  0  0  0  0
   44.9360   33.5170   38.4500 H   0  0  0  0  0  0  0  0  0  0  0  0
   45.0160   33.8010   36.6250 H   0  0  0  0  0  0  0  0  0  0  0  0
   45.3930   31.0600   38.2060 H   0  0  0  0  0  0  0  0  0  0  0  0
   44.1580   30.9930   35.4680 C   0  0  0  0  0  0  0  0  0  0  0  0
   45.4320   31.1600   35.9640 C   0  0  0  0  0  0  0  0  0  0  0  0
   46.4830   30.7950   35.1470 C   0  0  0  0  0  0  0  0  0  0  0  0
   47.4940   30.9140   35.5100 H   0  0  0  0  0  0  0  0  0  0  0  0
   46.2470   30.2840   33.8880 C   0  0  0  0  0  3  0  0  0  0  0  0
   44.9780   30.1110   33.3810 C   0  0  0  0  0  3  0  0  0  0  0  0
   43.9200   30.4740   34.1900 C   0  0  0  0  0  0  0  0  0  0  0  0
   43.0790   31.3530   36.2730 O   0  0  0  0  0  0  0  0  0  0  0  0
   42.1480   31.1120   35.9880 H   0  0  0  0  0  0  0  0  0  0  0  0
   42.6210   30.3150   33.7130 O   0  0  0  0  0  0  0  0  0  0  0  0
   42.2400   29.3740   33.8400 H   0  0  0  0  0  0  0  0  0  0  0  0
   47.7210   32.6120   42.1930 O   0  0  0  0  0  0  0  0  0  0  0  0
   47.8820   33.8360   42.8730 C   0  0  0  0  0  0  0  0  0  0  0  0
   49.0520   34.3040   42.8810 O   0  0  0  0  0  0  0  0  0  0  0  0
   46.7170   34.3920   43.4670 C   0  0  0  0  0  0  0  0  0  0  0  0
   46.1180   35.3820   42.7380 C   0  0  0  0  0  0  0  0  0  0  0  0
   44.9690   35.9740   43.2610 C   0  0  0  0  0  0  0  0  0  0  0  0
   44.5130   35.5410   44.4480 N   0  0  0  0  0  0  0  0  0  0  0  0
   45.1210   34.5710   45.1350 C   0  0  0  0  0  0  0  0  0  0  0  0
   46.2320   34.0010   44.6280 N   0  0  0  0  0  0  0  0  0  0  0  0
   46.4180   35.7950   41.7690 H   0  0  0  0  0  0  0  0  0  0  0  0
   44.4440   36.7660   42.7330 H   0  0  0  0  0  0  0  0  0  0  0  0
   44.6730   34.2900   46.0900 H   0  0  0  0  0  0  0  0  0  0  0  0
  1 26  1  0  0  0  0
  2  6  1  0  0  0  0
  2  1  2  0  0  0  0
  3  2  1  0  0  0  0
  4  3  2  0  0  0  0
  4  5  1  0  0  0  0
  5  1  1  0  0  0  0
  7  3  1  0  0  0  0
  8 11  1  6  0  0  0
  8  9  1  0  0  0  0
  8  4  1  0  0  0  0
  9 12  1  0  0  0  0
 10  8  1  0  0  0  0
 10  9  1  0  0  0  0
 10 14  1  1  0  0  0
 13  9  1  0  0  0  0
 15 16  1  0  0  0  0
 15 22  1  0  0  0  0
 16 10  1  0  0  0  0
 17 18  1  0  0  0  0
 17 16  2  0  0  0  0
 19 17  1  0  0  0  0
 20 19  2  0  0  0  0
 20 21  1  0  0  0  0
 21 15  2  0  0  0  0
 23 22  1  0  0  0  0
 24 25  1  0  0  0  0
 24 21  1  0  0  0  0
 26 27  1  0  0  0  0
 27 28  2  0  0  0  0
 27 29  1  0  0  0  0
 29 34  1  0  0  0  0
 30 31  1  0  0  0  0
 30 29  2  0  0  0  0
 31 32  2  0  0  0  0
 32 33  1  0  0  0  0
 33 37  1  0  0  0  0
 34 33  2  0  0  0  0
 35 30  1  0  0  0  0
 36 31  1  0  0  0  0
M  END
>  <minimizedAffinity>
-5.12646294

>  <minimizedRMSD>
1.52877772

$$$$
