
 OpenBabel03242521403D

 23 24  0  0  0  0  0  0  0  0999 V2000
   42.2510   33.8070   40.2720 C   0  0  0  0  0  0  0  0  0  0  0  0
   41.9330   32.7950   39.3700 C   0  0  0  0  0  0  0  0  0  0  0  0
   40.8150   31.9950   39.6220 C   0  0  0  0  0  0  0  0  0  0  0  0
   40.1060   32.2580   40.7380 N   0  0  0  0  0  0  0  0  0  0  0  0
   40.4380   33.2470   41.5940 C   0  0  0  0  0  0  0  0  0  0  0  0
   41.5170   34.0230   41.3570 N   0  0  0  0  0  0  0  0  0  0  0  0
   42.5470   32.6580   38.5160 H   0  0  0  0  0  0  0  0  0  0  0  0
   39.8280   33.4150   42.4830 H   0  0  0  0  0  0  0  0  0  0  0  0
   40.4390   29.6320   39.1830 C   0  0  0  0  0  0  0  0  0  0  0  0
   40.4360   30.9350   38.7290 C   0  0  0  0  0  0  0  0  0  0  0  0
   40.0540   31.0830   37.4120 C   0  0  0  0  0  0  0  0  0  0  0  0
   40.0330   32.0810   37.0010 H   0  0  0  0  0  0  0  0  0  0  0  0
   39.6990   30.0140   36.5980 C   0  0  0  0  0  3  0  0  0  0  0  0
   39.7120   28.7240   37.0830 C   0  0  0  0  0  3  0  0  0  0  0  0
   40.0910   28.5510   38.3990 C   0  0  0  0  0  0  0  0  0  0  0  0
   40.8030   29.3010   40.5020 O   0  0  0  0  0  0  0  0  0  0  0  0
   40.1240   29.6080   41.2070 H   0  0  0  0  0  0  0  0  0  0  0  0
   40.1040   27.2370   38.8900 O   0  0  0  0  0  0  0  0  0  0  0  0
   39.2810   26.8630   39.3590 H   0  0  0  0  0  0  0  0  0  0  0  0
   43.4530   34.6440   39.9720 C   0  0  0  0  0  0  0  0  0  0  0  0
   44.2740   34.2120   40.6130 H   0  0  0  0  0  0  0  0  0  0  0  0
   43.7440   34.5590   38.9060 H   0  0  0  0  0  0  0  0  0  0  0  0
   43.3350   35.6970   40.2650 H   0  0  0  0  0  0  0  0  0  0  0  0
  1  6  1  0  0  0  0
  2  3  1  0  0  0  0
  2  1  2  0  0  0  0
  3  4  2  0  0  0  0
  4  5  1  0  0  0  0
  5  8  1  0  0  0  0
  6  5  2  0  0  0  0
  7  2  1  0  0  0  0
  9 16  1  0  0  0  0
 10  9  1  0  0  0  0
 10  3  1  0  0  0  0
 11 10  2  0  0  0  0
 12 11  1  0  0  0  0
 13 14  2  0  0  0  0
 13 11  1  0  0  0  0
 14 15  1  0  0  0  0
 15 18  1  0  0  0  0
 15  9  2  0  0  0  0
 16 17  1  0  0  0  0
 18 19  1  0  0  0  0
 20 23  1  0  0  0  0
 20  1  1  0  0  0  0
 20 21  1  0  0  0  0
 22 20  1  0  0  0  0
M  END
>  <minimizedAffinity>
-2.45808864

>  <minimizedRMSD>
8.80029392

$$$$
