
 OpenBabel03252503243D

 49 54  0  0  1  0  0  0  0  0999 V2000
   45.6380   33.4840   45.0930 C   0  0  0  0  0  0  0  0  0  0  0  0
   46.7050   32.9010   44.3220 C   0  0  0  0  0  0  0  0  0  0  0  0
   47.6170   32.1120   44.9730 C   0  0  0  0  0  0  0  0  0  0  0  0
   47.4570   31.9270   46.3120 N   0  0  0  0  0  0  0  0  0  0  0  0
   46.4430   32.4850   47.0250 C   0  0  0  0  0  0  0  0  0  0  0  0
   45.5360   33.2620   46.4130 N   0  0  0  0  0  0  0  0  0  0  0  0
   44.9220   34.1040   44.5750 H   0  0  0  0  0  0  0  0  0  0  0  0
   48.4260   31.6610   44.4290 H   0  0  0  0  0  0  0  0  0  0  0  0
   46.7680   33.1930   42.8580 C   0  0  1  0  0  0  0  0  0  0  0  0
   46.8090   34.5690   42.3800 C   0  0  0  0  0  0  0  0  0  0  0  0
   48.0690   33.7890   42.3450 C   0  0  2  0  0  0  0  0  0  0  0  0
   46.3590   32.3620   42.2530 H   0  0  0  0  0  0  0  0  0  0  0  0
   46.7980   35.3620   43.1840 H   0  0  0  0  0  0  0  0  0  0  0  0
   46.1760   34.8260   41.5480 H   0  0  0  0  0  0  0  0  0  0  0  0
   48.8830   33.9090   43.0820 H   0  0  0  0  0  0  0  0  0  0  0  0
   48.5000   33.2560   41.0240 C   0  0  0  0  0  0  0  0  0  0  0  0
   49.4040   32.2290   40.8590 C   0  0  0  0  0  0  0  0  0  0  0  0
   49.7610   31.7900   39.5960 C   0  0  0  0  0  0  0  0  0  0  0  0
   49.2170   32.3730   38.4710 C   0  0  0  0  0  0  0  0  0  0  0  0
   49.5450   31.9620   37.2230 N   0  0  0  0  0  0  0  0  0  0  0  0
   48.9890   32.5540   36.1380 C   0  0  0  0  0  0  0  0  0  0  0  0
   48.0550   33.6140   36.2130 C   0  0  0  0  0  0  0  0  0  0  0  0
   47.7150   34.0410   37.4730 C   0  0  0  0  0  0  0  0  0  0  0  0
   48.2940   33.4210   38.5860 C   0  0  0  0  0  0  0  0  0  0  0  0
   47.9690   33.8240   39.8650 C   0  0  0  0  0  0  0  0  0  0  0  0
   49.8270   31.7770   41.7470 H   0  0  0  0  0  0  0  0  0  0  0  0
   50.4770   30.9770   39.4870 H   0  0  0  0  0  0  0  0  0  0  0  0
   49.3080   32.1610   35.1950 H   0  0  0  0  0  0  0  0  0  0  0  0
   47.6610   34.0300   35.2950 H   0  0  0  0  0  0  0  0  0  0  0  0
   47.0070   34.8460   37.5890 H   0  0  0  0  0  0  0  0  0  0  0  0
   47.2590   34.6390   39.8710 H   0  0  0  0  0  0  0  0  0  0  0  0
   46.3730   32.1990   48.4850 C   0  0  2  0  0  0  0  0  0  0  0  0
   47.4140   31.4480   49.1670 C   0  0  0  0  0  0  0  0  0  0  0  0
   46.1770   30.6860   48.8130 C   0  0  2  0  0  0  0  0  0  0  0  0
   45.6150   32.8410   49.0120 H   0  0  0  0  0  0  0  0  0  0  0  0
   48.3670   31.3340   48.6520 H   0  0  0  0  0  0  0  0  0  0  0  0
   47.5570   31.7200   50.2560 H   0  0  0  0  0  0  0  0  0  0  0  0
   45.5040   30.4610   49.6590 H   0  0  0  0  0  0  0  0  0  0  0  0
   45.2700   29.3760   46.7500 C   0  0  0  0  0  0  0  0  0  0  0  0
   46.2120   29.7560   47.6810 C   0  0  0  0  0  0  0  0  0  0  0  0
   47.4790   29.1660   47.5820 C   0  0  0  0  0  0  0  0  0  0  0  0
   48.3530   29.3430   48.2300 H   0  0  0  0  0  0  0  0  0  0  0  0
   47.7690   28.2330   46.5790 C   0  0  0  0  0  3  0  0  0  0  0  0
   46.8090   27.8700   45.6600 C   0  0  0  0  0  3  0  0  0  0  0  0
   45.5770   28.4560   45.7720 C   0  0  0  0  0  0  0  0  0  0  0  0
   44.0570   30.0190   46.9420 O   0  0  0  0  0  0  0  0  0  0  0  0
   43.8020   30.8830   46.4840 H   0  0  0  0  0  0  0  0  0  0  0  0
   44.5530   28.1570   44.9010 O   0  0  0  0  0  0  0  0  0  0  0  0
   43.9480   28.9030   44.5470 H   0  0  0  0  0  0  0  0  0  0  0  0
  1  6  1  0  0  0  0
  2  3  1  0  0  0  0
  2  1  2  0  0  0  0
  3  4  2  0  0  0  0
  4  5  1  0  0  0  0
  5 32  1  0  0  0  0
  6  5  2  0  0  0  0
  7  1  1  0  0  0  0
  8  3  1  0  0  0  0
  9 12  1  6  0  0  0
  9  2  1  0  0  0  0
 10  9  1  0  0  0  0
 10 13  1  0  0  0  0
 11 10  1  0  0  0  0
 11  9  1  0  0  0  0
 11 15  1  1  0  0  0
 14 10  1  0  0  0  0
 16 11  1  0  0  0  0
 17 16  1  0  0  0  0
 17 26  1  0  0  0  0
 18 17  2  0  0  0  0
 19 24  1  0  0  0  0
 19 18  1  0  0  0  0
 20 19  2  0  0  0  0
 21 22  2  0  0  0  0
 21 20  1  0  0  0  0
 22 23  1  0  0  0  0
 23 30  1  0  0  0  0
 23 24  2  0  0  0  0
 24 25  1  0  0  0  0
 25 31  1  0  0  0  0
 25 16  2  0  0  0  0
 27 18  1  0  0  0  0
 28 21  1  0  0  0  0
 29 22  1  0  0  0  0
 32 34  1  0  0  0  0
 32 35  1  1  0  0  0
 32 33  1  0  0  0  0
 33 37  1  0  0  0  0
 34 33  1  0  0  0  0
 34 38  1  1  0  0  0
 36 33  1  0  0  0  0
 39 46  1  0  0  0  0
 39 40  1  0  0  0  0
 40 34  1  0  0  0  0
 41 40  2  0  0  0  0
 41 42  1  0  0  0  0
 43 41  1  0  0  0  0
 44 45  1  0  0  0  0
 44 43  2  0  0  0  0
 45 39  2  0  0  0  0
 47 46  1  0  0  0  0
 48 45  1  0  0  0  0
 49 48  1  0  0  0  0
M  END
>  <minimizedAffinity>
-5.61387396

>  <minimizedRMSD>
1.44848776

$$$$
