
 OpenBabel03252506323D

 34 36  0  0  1  0  0  0  0  0999 V2000
   44.6170   35.7950   44.7170 C   0  0  0  0  0  0  0  0  0  0  0  0
   44.5290   35.3960   43.3650 C   0  0  0  0  0  0  0  0  0  0  0  0
   44.8180   34.0750   43.0310 C   0  0  0  0  0  0  0  0  0  0  0  0
   45.1700   33.2520   44.0440 N   0  0  0  0  0  0  0  0  0  0  0  0
   45.2480   33.6470   45.3150 C   0  0  0  0  0  0  0  0  0  0  0  0
   44.9760   34.9120   45.6740 N   0  0  0  0  0  0  0  0  0  0  0  0
   45.6420   32.6780   46.2820 N   0  0  0  0  0  0  0  0  0  0  0  0
   45.4690   32.8410   47.7340 C   0  0  0  0  0  0  0  0  0  0  0  0
   46.7310   32.2060   48.2530 C   0  0  0  0  0  0  0  0  0  0  0  0
   47.3680   31.4660   47.1090 C   0  0  0  0  0  0  0  0  0  0  0  0
   46.2550   31.4020   46.1130 C   0  0  2  0  0  0  0  0  0  0  0  0
   44.3930   36.8280   44.9900 H   0  0  0  0  0  0  0  0  0  0  0  0
   44.7410   33.8060   41.9870 H   0  0  0  0  0  0  0  0  0  0  0  0
   45.3620   33.8910   48.0280 H   0  0  0  0  0  0  0  0  0  0  0  0
   44.6190   32.1910   48.0030 H   0  0  0  0  0  0  0  0  0  0  0  0
   47.3600   33.0250   48.6560 H   0  0  0  0  0  0  0  0  0  0  0  0
   46.5300   31.4970   49.0790 H   0  0  0  0  0  0  0  0  0  0  0  0
   47.7350   30.4640   47.3940 H   0  0  0  0  0  0  0  0  0  0  0  0
   48.2280   32.0940   46.7550 H   0  0  0  0  0  0  0  0  0  0  0  0
   45.5180   30.6540   46.5510 H   0  0  0  0  0  0  0  0  0  0  0  0
   45.7980   30.3380   43.9250 C   0  0  0  0  0  0  0  0  0  0  0  0
   46.6800   31.0140   44.7780 C   0  0  0  0  0  0  0  0  0  0  0  0
   47.9110   31.2090   44.2230 C   0  0  0  0  0  0  0  0  0  0  0  0
   48.6710   31.7120   44.8100 H   0  0  0  0  0  0  0  0  0  0  0  0
   48.3190   30.8180   42.9750 C   0  0  0  0  0  3  0  0  0  0  0  0
   47.4080   30.1550   42.1770 C   0  0  0  0  0  3  0  0  0  0  0  0
   46.1430   29.9130   42.6510 C   0  0  0  0  0  0  0  0  0  0  0  0
   44.5040   30.0610   44.3450 O   0  0  0  0  0  0  0  0  0  0  0  0
   43.7790   30.7870   44.3600 H   0  0  0  0  0  0  0  0  0  0  0  0
   45.2040   29.2440   41.8610 O   0  0  0  0  0  0  0  0  0  0  0  0
   45.2930   29.2700   40.8540 H   0  0  0  0  0  0  0  0  0  0  0  0
   44.1420   36.4110   42.4360 N   0  0  0  0  0  0  0  0  0  0  0  0
   44.4300   37.3810   42.5900 H   0  0  0  0  0  0  0  0  0  0  0  0
   43.5630   36.1270   41.6060 H   0  0  0  0  0  0  0  0  0  0  0  0
  1 12  1  0  0  0  0
  1  6  1  0  0  0  0
  2  1  2  0  0  0  0
  3  2  1  0  0  0  0
  3  4  2  0  0  0  0
  4  5  1  0  0  0  0
  5  6  2  0  0  0  0
  5  7  1  0  0  0  0
  7  8  1  0  0  0  0
  8 15  1  0  0  0  0
  8 14  1  0  0  0  0
  8  9  1  0  0  0  0
  9 16  1  0  0  0  0
  9 17  1  0  0  0  0
 10 18  1  0  0  0  0
 10  9  1  0  0  0  0
 11  7  1  0  0  0  0
 11 20  1  1  0  0  0
 11 10  1  0  0  0  0
 13  3  1  0  0  0  0
 19 10  1  0  0  0  0
 21 28  1  0  0  0  0
 21 22  1  0  0  0  0
 22 11  1  0  0  0  0
 23 22  2  0  0  0  0
 23 24  1  0  0  0  0
 25 23  1  0  0  0  0
 26 27  1  0  0  0  0
 26 25  2  0  0  0  0
 27 21  2  0  0  0  0
 28 29  1  0  0  0  0
 30 27  1  0  0  0  0
 31 30  1  0  0  0  0
 32 33  1  0  0  0  0
 32  2  1  0  0  0  0
 34 32  1  0  0  0  0
M  END
>  <minimizedAffinity>
-4.74293613

>  <minimizedRMSD>
2.38292646

$$$$
