
 OpenBabel03242522333D

 23 24  0  0  0  0  0  0  0  0999 V2000
   46.9270   32.6280   46.0270 C   0  0  0  0  0  0  0  0  0  0  0  0
   47.2780   32.9940   47.0220 H   0  0  0  0  0  0  0  0  0  0  0  0
   47.8640   32.3870   45.4520 H   0  0  0  0  0  0  0  0  0  0  0  0
   44.5390   35.3700   45.2270 C   0  0  0  0  0  0  0  0  0  0  0  0
   44.8720   35.6520   43.8990 C   0  0  0  0  0  0  0  0  0  0  0  0
   45.8950   34.9040   43.3200 C   0  0  0  0  0  0  0  0  0  0  0  0
   46.5250   33.9430   44.0410 N   0  0  0  0  0  0  0  0  0  0  0  0
   46.1640   33.7010   45.3420 C   0  0  0  0  0  0  0  0  0  0  0  0
   45.1820   34.4210   45.8970 N   0  0  0  0  0  0  0  0  0  0  0  0
   43.7630   35.8740   45.8080 H   0  0  0  0  0  0  0  0  0  0  0  0
   44.3130   36.4290   43.4150 H   0  0  0  0  0  0  0  0  0  0  0  0
   46.1530   35.1250   42.2860 H   0  0  0  0  0  0  0  0  0  0  0  0
   45.8300   30.5460   45.1420 C   0  0  0  0  0  0  0  0  0  0  0  0
   46.1170   31.4060   46.1790 C   0  0  0  0  0  0  0  0  0  0  0  0
   45.6060   31.0840   47.4250 C   0  0  0  0  0  0  0  0  0  0  0  0
   45.8280   31.7570   48.2490 H   0  0  0  0  0  0  0  0  0  0  0  0
   44.8300   29.9580   47.6880 C   0  0  0  0  0  3  0  0  0  0  0  0
   44.5560   29.1100   46.6240 C   0  0  0  0  0  3  0  0  0  0  0  0
   45.0610   29.4200   45.3780 C   0  0  0  0  0  0  0  0  0  0  0  0
   46.3120   30.8180   43.8820 O   0  0  0  0  0  0  0  0  0  0  0  0
   45.7720   30.4410   43.0910 H   0  0  0  0  0  0  0  0  0  0  0  0
   44.7750   28.5610   44.3320 O   0  0  0  0  0  0  0  0  0  0  0  0
   44.7550   27.5490   44.4250 H   0  0  0  0  0  0  0  0  0  0  0  0
  1 14  1  0  0  0  0
  1  2  1  0  0  0  0
  3  1  1  0  0  0  0
  4 10  1  0  0  0  0
  4  9  1  0  0  0  0
  5  4  2  0  0  0  0
  6  5  1  0  0  0  0
  6  7  2  0  0  0  0
  7  8  1  0  0  0  0
  8  9  2  0  0  0  0
  8  1  1  0  0  0  0
 11  5  1  0  0  0  0
 12  6  1  0  0  0  0
 13 19  2  0  0  0  0
 13 14  1  0  0  0  0
 14 15  2  0  0  0  0
 15 17  1  0  0  0  0
 15 16  1  0  0  0  0
 18 17  2  0  0  0  0
 19 18  1  0  0  0  0
 20 13  1  0  0  0  0
 21 20  1  0  0  0  0
 22 23  1  0  0  0  0
 22 19  1  0  0  0  0
M  END
>  <minimizedAffinity>
-4.0305233

>  <minimizedRMSD>
1.40143073

$$$$
