
 OpenBabel03242518183D

 25 26  0  0  0  0  0  0  0  0999 V2000
   46.7240   33.1490   45.8380 C   0  0  0  0  0  0  0  0  0  0  0  0
   47.6220   32.8000   45.2520 H   0  0  0  0  0  0  0  0  0  0  0  0
   47.0320   33.8670   46.6350 H   0  0  0  0  0  0  0  0  0  0  0  0
   44.3050   35.5310   44.4890 C   0  0  0  0  0  0  0  0  0  0  0  0
   43.9920   35.0280   43.2200 C   0  0  0  0  0  0  0  0  0  0  0  0
   44.6270   33.8550   42.8330 C   0  0  0  0  0  0  0  0  0  0  0  0
   45.4910   33.2750   43.6840 N   0  0  0  0  0  0  0  0  0  0  0  0
   45.7710   33.7840   44.8960 C   0  0  0  0  0  0  0  0  0  0  0  0
   45.1710   34.9320   45.3140 N   0  0  0  0  0  0  0  0  0  0  0  0
   43.8490   36.4480   44.8660 H   0  0  0  0  0  0  0  0  0  0  0  0
   44.3770   33.4760   41.8520 H   0  0  0  0  0  0  0  0  0  0  0  0
   43.0590   35.7630   42.4570 N   0  0  0  0  0  0  0  0  0  0  0  0
   42.0650   35.8990   42.7560 H   0  0  0  0  0  0  0  0  0  0  0  0
   43.2930   36.2260   41.5370 H   0  0  0  0  0  0  0  0  0  0  0  0
   45.5240   32.1920   47.6650 C   0  0  0  0  0  0  0  0  0  0  0  0
   46.1660   31.9250   46.4530 C   0  0  0  0  0  0  0  0  0  0  0  0
   46.2170   30.6390   45.9730 C   0  0  0  0  0  0  0  0  0  0  0  0
   46.7290   30.5220   45.0370 H   0  0  0  0  0  0  0  0  0  0  0  0
   45.6230   29.6420   46.7180 C   0  0  0  0  0  0  0  0  0  0  0  0
   44.9800   29.8680   47.9170 C   0  0  0  0  0  0  0  0  0  0  0  0
   44.9330   31.1680   48.3960 C   0  0  0  0  0  0  0  0  0  0  0  0
   45.4140   33.4600   48.2430 O   0  0  0  0  0  0  0  0  0  0  0  0
   46.2430   33.8050   48.7140 H   0  0  0  0  0  0  0  0  0  0  0  0
   44.2820   31.3720   49.6050 O   0  0  0  0  0  0  0  0  0  0  0  0
   43.2540   31.3670   49.5680 H   0  0  0  0  0  0  0  0  0  0  0  0
  1 16  1  0  0  0  0
  1  3  1  0  0  0  0
  2  1  1  0  0  0  0
  4 10  1  0  0  0  0
  4  9  1  0  0  0  0
  5  4  2  0  0  0  0
  6  5  1  0  0  0  0
  6  7  2  0  0  0  0
  7  8  1  0  0  0  0
  8  9  2  0  0  0  0
  8  1  1  0  0  0  0
 11  6  1  0  0  0  0
 12 13  1  0  0  0  0
 12  5  1  0  0  0  0
 14 12  1  0  0  0  0
 15 22  1  0  0  0  0
 15 21  1  0  0  0  0
 16 15  2  0  0  0  0
 17 16  1  0  0  0  0
 17 19  2  0  0  0  0
 18 17  1  0  0  0  0
 19 20  1  0  0  0  0
 20 21  2  0  0  0  0
 21 24  1  0  0  0  0
 22 23  1  0  0  0  0
 25 24  1  0  0  0  0
M  END
>  <minimizedAffinity>
-5.04782677

>  <minimizedRMSD>
1.31866264

$$$$
