
 OpenBabel03252505113D

 46 49  0  0  1  0  0  0  0  0999 V2000
   44.6050   35.4810   44.5970 C   0  0  0  0  0  0  0  0  0  0  0  0
   45.3240   35.5070   43.3840 C   0  0  0  0  0  0  0  0  0  0  0  0
   46.4500   34.6220   43.2530 C   0  0  0  0  0  0  0  0  0  0  0  0
   46.7550   33.8180   44.2900 N   0  0  0  0  0  0  0  0  0  0  0  0
   46.0500   33.8200   45.4250 C   0  0  0  0  0  0  0  0  0  0  0  0
   44.9650   34.6510   45.5950 N   0  0  0  0  0  0  0  0  0  0  0  0
   43.7520   36.1300   44.7380 H   0  0  0  0  0  0  0  0  0  0  0  0
   45.0310   36.1670   42.6030 H   0  0  0  0  0  0  0  0  0  0  0  0
   46.4340   32.9160   46.5390 C   0  0  2  0  0  0  0  0  0  0  0  0
   46.9600   31.6680   45.8620 C   0  0  0  0  0  0  0  0  0  0  0  0
   46.0690   30.4980   45.8740 C   0  0  0  0  0  0  0  0  0  0  0  0
   45.7600   30.2560   47.3520 C   0  0  0  0  0  0  0  0  0  0  0  0
   44.9750   31.3370   47.9410 C   0  0  0  0  0  0  0  0  0  0  0  0
   45.3730   32.6950   47.4780 C   0  0  0  0  0  0  0  0  0  0  0  0
   47.2850   33.4430   47.0460 H   0  0  0  0  0  0  0  0  0  0  0  0
   47.8980   31.3850   46.3870 H   0  0  0  0  0  0  0  0  0  0  0  0
   47.2790   31.8470   44.8090 H   0  0  0  0  0  0  0  0  0  0  0  0
   45.1460   30.6660   45.3090 H   0  0  0  0  0  0  0  0  0  0  0  0
   46.6270   29.6230   45.5440 H   0  0  0  0  0  0  0  0  0  0  0  0
   46.6890   30.0210   47.8680 H   0  0  0  0  0  0  0  0  0  0  0  0
   45.0960   29.3660   47.3480 H   0  0  0  0  0  0  0  0  0  0  0  0
   44.1580   31.3410   48.6480 H   0  0  0  0  0  0  0  0  0  0  0  0
   44.6930   33.8500   47.9670 N   0  0  0  0  0  0  0  0  0  0  0  0
   45.3120   34.2990   48.6550 H   0  0  0  0  0  0  0  0  0  0  0  0
   43.7400   34.0420   47.5730 H   0  0  0  0  0  0  0  0  0  0  0  0
   47.2060   34.6260   42.0160 C   0  0  0  0  0  0  0  0  0  0  0  0
   48.1090   35.6060   41.8070 C   0  0  0  0  0  0  0  0  0  0  0  0
   48.8020   35.5680   40.5900 C   0  0  0  0  0  0  0  0  0  0  0  0
   48.4920   34.5330   39.7250 C   0  0  0  0  0  0  0  0  0  0  0  0
   47.5700   33.5350   39.9420 C   0  0  0  0  0  0  0  0  0  0  0  0
   46.9320   33.6260   41.1410 N   0  0  0  0  0  0  0  0  0  0  0  0
   48.3080   36.3890   42.5220 H   0  0  0  0  0  0  0  0  0  0  0  0
   49.5360   36.3310   40.3750 H   0  0  0  0  0  0  0  0  0  0  0  0
   49.0690   34.5790   38.8100 H   0  0  0  0  0  0  0  0  0  0  0  0
   47.3180   32.5490   39.0340 O   0  0  0  0  0  0  0  0  0  0  0  0
   49.1260   31.9110   37.5000 C   0  0  0  0  0  0  0  0  0  0  0  0
   47.8740   32.3220   37.8320 C   0  0  0  0  0  0  0  0  0  0  0  0
   46.9970   32.5540   36.7630 C   0  0  0  0  0  0  0  0  0  0  0  0
   45.9560   32.8890   36.8860 H   0  0  0  0  0  0  0  0  0  0  0  0
   47.3640   32.3810   35.4430 C   0  0  0  0  0  3  0  0  0  0  0  0
   48.6560   31.9610   35.1730 C   0  0  0  0  0  3  0  0  0  0  0  0
   49.5460   31.7220   36.1970 C   0  0  0  0  0  0  0  0  0  0  0  0
   49.9790   31.6860   38.5740 O   0  0  0  0  0  0  0  0  0  0  0  0
   50.9640   31.8620   38.4080 H   0  0  0  0  0  0  0  0  0  0  0  0
   50.8490   31.3010   35.9920 O   0  0  0  0  0  0  0  0  0  0  0  0
   51.5860   31.9760   36.2020 H   0  0  0  0  0  0  0  0  0  0  0  0
  1  7  1  0  0  0  0
  1  6  1  0  0  0  0
  2  1  2  0  0  0  0
  3  2  1  0  0  0  0
  3  4  2  0  0  0  0
  4  5  1  0  0  0  0
  5  6  2  0  0  0  0
  5  9  1  0  0  0  0
  8  2  1  0  0  0  0
  9 15  1  1  0  0  0
  9 14  1  0  0  0  0
 10 11  1  0  0  0  0
 10 16  1  0  0  0  0
 10  9  1  0  0  0  0
 11 12  1  0  0  0  0
 12 20  1  0  0  0  0
 12 13  1  0  0  0  0
 13 22  1  0  0  0  0
 14 13  2  0  0  0  0
 14 23  1  0  0  0  0
 17 10  1  0  0  0  0
 18 11  1  0  0  0  0
 19 11  1  0  0  0  0
 21 12  1  0  0  0  0
 23 24  1  0  0  0  0
 25 23  1  0  0  0  0
 26  3  1  0  0  0  0
 27 26  1  0  0  0  0
 27 32  1  0  0  0  0
 28 27  2  0  0  0  0
 29 30  2  0  0  0  0
 29 28  1  0  0  0  0
 30 31  1  0  0  0  0
 31 26  2  0  0  0  0
 33 28  1  0  0  0  0
 34 29  1  0  0  0  0
 35 30  1  0  0  0  0
 36 37  1  0  0  0  0
 36 43  1  0  0  0  0
 37 35  1  0  0  0  0
 38 39  1  0  0  0  0
 38 37  2  0  0  0  0
 40 38  1  0  0  0  0
 41 40  2  0  0  0  0
 41 42  1  0  0  0  0
 42 36  2  0  0  0  0
 44 43  1  0  0  0  0
 45 42  1  0  0  0  0
 45 46  1  0  0  0  0
M  END
>  <minimizedAffinity>
-7.27441025

>  <minimizedRMSD>
0.81679374

$$$$
