
 OpenBabel03252505313D

 29 30  0  0  0  0  0  0  0  0999 V2000
   45.2680   30.7430   46.8370 O   0  0  0  0  0  0  0  0  0  0  0  0
   45.0920   29.9240   47.9130 C   0  0  0  0  0  0  0  0  0  0  0  0
   43.9970   29.7910   48.1320 H   0  0  0  0  0  0  0  0  0  0  0  0
   45.4920   30.3880   48.8540 H   0  0  0  0  0  0  0  0  0  0  0  0
   46.9320   28.2690   47.4020 C   0  0  0  0  0  0  0  0  0  0  0  0
   45.6290   28.5510   47.7500 C   0  0  0  0  0  0  0  0  0  0  0  0
   44.7700   27.4820   47.9560 C   0  0  0  0  0  0  0  0  0  0  0  0
   43.7360   27.6260   48.2280 H   0  0  0  0  0  0  0  0  0  0  0  0
   45.1360   26.1510   47.8350 C   0  0  0  0  0  3  0  0  0  0  0  0
   46.4510   25.8880   47.4840 C   0  0  0  0  0  3  0  0  0  0  0  0
   47.3100   26.9670   47.2780 C   0  0  0  0  0  0  0  0  0  0  0  0
   47.7900   29.3390   47.1990 O   0  0  0  0  0  0  0  0  0  0  0  0
   48.0730   29.7020   46.3010 H   0  0  0  0  0  0  0  0  0  0  0  0
   48.6250   26.7150   46.9280 O   0  0  0  0  0  0  0  0  0  0  0  0
   49.3170   26.7560   47.6620 H   0  0  0  0  0  0  0  0  0  0  0  0
   46.7980   31.9470   48.5400 O   0  0  0  0  0  0  0  0  0  0  0  0
   45.8180   32.2440   47.4050 P   0  0  2  0  0  0  0  0  0  0  0  0
   44.4700   33.0990   47.9510 O   0  0  0  0  0  0  0  0  0  0  0  0
   44.7550   33.5300   48.8190 H   0  0  0  0  0  0  0  0  0  0  0  0
   46.6500   33.1160   46.2360 O   0  0  0  0  0  0  0  0  0  0  0  0
   44.4900   35.5450   44.8330 C   0  0  0  0  0  0  0  0  0  0  0  0
   44.9100   35.6950   43.4900 C   0  0  0  0  0  0  0  0  0  0  0  0
   46.0040   34.8850   43.1020 C   0  0  0  0  0  0  0  0  0  0  0  0
   46.5570   34.0420   44.0360 N   0  0  0  0  0  0  0  0  0  0  0  0
   46.1070   33.9540   45.2860 C   0  0  0  0  0  0  0  0  0  0  0  0
   45.0830   34.7030   45.6740 N   0  0  0  0  0  0  0  0  0  0  0  0
   43.6420   36.1900   45.0880 H   0  0  0  0  0  0  0  0  0  0  0  0
   44.4390   36.3730   42.7910 H   0  0  0  0  0  0  0  0  0  0  0  0
   46.3800   34.9420   42.0920 H   0  0  0  0  0  0  0  0  0  0  0  0
  1 17  1  0  0  0  0
  1  2  1  0  0  0  0
  2  3  1  0  0  0  0
  2  4  1  0  0  0  0
  5  6  1  0  0  0  0
  6  2  1  0  0  0  0
  6  7  2  0  0  0  0
  7  8  1  0  0  0  0
  9  7  1  0  0  0  0
 10  9  2  0  0  0  0
 11  5  2  0  0  0  0
 11 10  1  0  0  0  0
 12  5  1  0  0  0  0
 13 12  1  0  0  0  0
 14 11  1  0  0  0  0
 14 15  1  0  0  0  0
 17 18  1  0  0  0  0
 17 16  2  1  0  0  0
 18 19  1  0  0  0  0
 20 17  1  0  0  0  0
 21 27  1  0  0  0  0
 21 26  1  0  0  0  0
 22 21  2  0  0  0  0
 23 22  1  0  0  0  0
 23 24  2  0  0  0  0
 24 25  1  0  0  0  0
 25 26  2  0  0  0  0
 25 20  1  0  0  0  0
 28 22  1  0  0  0  0
 29 23  1  0  0  0  0
M  END
>  <minimizedAffinity>
-4.71290112

>  <minimizedRMSD>
1.57427716

$$$$
