
 OpenBabel03242521403D

 23 24  0  0  0  0  0  0  0  0999 V2000
   37.1110   26.6110   41.6850 C   0  0  0  0  0  0  0  0  0  0  0  0
   37.5660   27.7230   40.9810 C   0  0  0  0  0  0  0  0  0  0  0  0
   37.6940   28.9410   41.6520 C   0  0  0  0  0  0  0  0  0  0  0  0
   37.3640   28.9630   42.9600 N   0  0  0  0  0  0  0  0  0  0  0  0
   36.9260   27.8690   43.6180 C   0  0  0  0  0  0  0  0  0  0  0  0
   36.8000   26.6890   42.9730 N   0  0  0  0  0  0  0  0  0  0  0  0
   37.8030   27.6150   39.9520 H   0  0  0  0  0  0  0  0  0  0  0  0
   36.6730   27.9450   44.6760 H   0  0  0  0  0  0  0  0  0  0  0  0
   37.2960   31.1860   40.8040 C   0  0  0  0  0  0  0  0  0  0  0  0
   38.1580   30.1230   40.9790 C   0  0  0  0  0  0  0  0  0  0  0  0
   39.4230   30.3200   40.4680 C   0  0  0  0  0  0  0  0  0  0  0  0
   40.1430   29.5210   40.5760 H   0  0  0  0  0  0  0  0  0  0  0  0
   39.8120   31.4890   39.8270 C   0  0  0  0  0  3  0  0  0  0  0  0
   38.9270   32.5330   39.6680 C   0  0  0  0  0  3  0  0  0  0  0  0
   37.6540   32.3610   40.1710 C   0  0  0  0  0  0  0  0  0  0  0  0
   35.9660   31.1530   41.2660 O   0  0  0  0  0  0  0  0  0  0  0  0
   35.8830   31.1790   42.2870 H   0  0  0  0  0  0  0  0  0  0  0  0
   36.7530   33.4240   40.0090 O   0  0  0  0  0  0  0  0  0  0  0  0
   36.6570   34.1230   40.7420 H   0  0  0  0  0  0  0  0  0  0  0  0
   36.9860   25.3240   40.9360 C   0  0  0  0  0  0  0  0  0  0  0  0
   35.8910   25.2450   40.6760 H   0  0  0  0  0  0  0  0  0  0  0  0
   37.5790   25.3470   40.0000 H   0  0  0  0  0  0  0  0  0  0  0  0
   37.2380   24.4420   41.5400 H   0  0  0  0  0  0  0  0  0  0  0  0
  1  6  1  0  0  0  0
  2  3  1  0  0  0  0
  2  1  2  0  0  0  0
  3  4  2  0  0  0  0
  4  5  1  0  0  0  0
  5  8  1  0  0  0  0
  6  5  2  0  0  0  0
  7  2  1  0  0  0  0
  9 10  1  0  0  0  0
  9 16  1  0  0  0  0
 10  3  1  0  0  0  0
 11 12  1  0  0  0  0
 11 10  2  0  0  0  0
 13 11  1  0  0  0  0
 14 13  2  0  0  0  0
 14 15  1  0  0  0  0
 15  9  2  0  0  0  0
 16 17  1  0  0  0  0
 18 15  1  0  0  0  0
 18 19  1  0  0  0  0
 20 23  1  0  0  0  0
 20  1  1  0  0  0  0
 21 20  1  0  0  0  0
 22 20  1  0  0  0  0
M  END
>  <minimizedAffinity>
-5.21630621

$$$$

 OpenBabel03242521403D

 23 24  0  0  0  0  0  0  0  0999 V2000
   38.8710   25.2340   42.3420 C   0  0  0  0  0  0  0  0  0  0  0  0
   38.2940   26.2210   41.5480 C   0  0  0  0  0  0  0  0  0  0  0  0
   38.5470   27.5620   41.8490 C   0  0  0  0  0  0  0  0  0  0  0  0
   39.3460   27.8180   42.9050 N   0  0  0  0  0  0  0  0  0  0  0  0
   39.8930   26.8390   43.6560 C   0  0  0  0  0  0  0  0  0  0  0  0
   39.6520   25.5420   43.3700 N   0  0  0  0  0  0  0  0  0  0  0  0
   37.6760   25.9300   40.7360 H   0  0  0  0  0  0  0  0  0  0  0  0
   40.5330   27.1040   44.4990 H   0  0  0  0  0  0  0  0  0  0  0  0
   37.0990   29.5090   41.6610 C   0  0  0  0  0  0  0  0  0  0  0  0
   37.9790   28.6260   41.0680 C   0  0  0  0  0  0  0  0  0  0  0  0
   38.2270   28.8730   39.7340 C   0  0  0  0  0  0  0  0  0  0  0  0
   38.9100   28.2150   39.2160 H   0  0  0  0  0  0  0  0  0  0  0  0
   37.6460   29.9220   39.0330 C   0  0  0  0  0  3  0  0  0  0  0  0
   36.7710   30.7850   39.6540 C   0  0  0  0  0  3  0  0  0  0  0  0
   36.5060   30.5600   40.9890 C   0  0  0  0  0  0  0  0  0  0  0  0
   36.7350   29.4020   43.0160 O   0  0  0  0  0  0  0  0  0  0  0  0
   37.4930   29.6300   43.6670 H   0  0  0  0  0  0  0  0  0  0  0  0
   35.6150   31.4400   41.6210 O   0  0  0  0  0  0  0  0  0  0  0  0
   35.9720   32.2590   42.1090 H   0  0  0  0  0  0  0  0  0  0  0  0
   38.5800   23.8100   41.9910 C   0  0  0  0  0  0  0  0  0  0  0  0
   37.7630   23.4980   42.7040 H   0  0  0  0  0  0  0  0  0  0  0  0
   38.2050   23.7230   40.9520 H   0  0  0  0  0  0  0  0  0  0  0  0
   39.4310   23.1370   42.1600 H   0  0  0  0  0  0  0  0  0  0  0  0
  1  6  1  0  0  0  0
  2  3  1  0  0  0  0
  2  1  2  0  0  0  0
  3  4  2  0  0  0  0
  4  5  1  0  0  0  0
  5  8  1  0  0  0  0
  6  5  2  0  0  0  0
  7  2  1  0  0  0  0
  9 16  1  0  0  0  0
 10  9  1  0  0  0  0
 10  3  1  0  0  0  0
 11 10  2  0  0  0  0
 12 11  1  0  0  0  0
 13 14  2  0  0  0  0
 13 11  1  0  0  0  0
 14 15  1  0  0  0  0
 15 18  1  0  0  0  0
 15  9  2  0  0  0  0
 16 17  1  0  0  0  0
 18 19  1  0  0  0  0
 20 23  1  0  0  0  0
 20  1  1  0  0  0  0
 20 21  1  0  0  0  0
 22 20  1  0  0  0  0
M  END
>  <minimizedAffinity>
-5.00889015

$$$$

 OpenBabel03242521403D

 23 24  0  0  0  0  0  0  0  0999 V2000
   36.7550   24.0570   40.3280 C   0  0  0  0  0  0  0  0  0  0  0  0
   36.5360   25.3340   39.8170 C   0  0  0  0  0  0  0  0  0  0  0  0
   37.0270   26.4350   40.5230 C   0  0  0  0  0  0  0  0  0  0  0  0
   37.6920   26.1870   41.6690 N   0  0  0  0  0  0  0  0  0  0  0  0
   37.8900   24.9380   42.1400 C   0  0  0  0  0  0  0  0  0  0  0  0
   37.4170   23.8700   41.4620 N   0  0  0  0  0  0  0  0  0  0  0  0
   36.0000   25.4370   38.9070 H   0  0  0  0  0  0  0  0  0  0  0  0
   38.4360   24.7970   43.0740 H   0  0  0  0  0  0  0  0  0  0  0  0
   36.3270   28.7340   40.9050 C   0  0  0  0  0  0  0  0  0  0  0  0
   36.8320   27.7770   40.0480 C   0  0  0  0  0  0  0  0  0  0  0  0
   37.1050   28.2340   38.7760 C   0  0  0  0  0  0  0  0  0  0  0  0
   37.5030   27.5290   38.0600 H   0  0  0  0  0  0  0  0  0  0  0  0
   36.8950   29.5470   38.3770 C   0  0  0  0  0  3  0  0  0  0  0  0
   36.3900   30.4790   39.2570 C   0  0  0  0  0  3  0  0  0  0  0  0
   36.1080   30.0470   40.5370 C   0  0  0  0  0  0  0  0  0  0  0  0
   35.9930   28.4380   42.2400 O   0  0  0  0  0  0  0  0  0  0  0  0
   36.8050   28.2490   42.8370 H   0  0  0  0  0  0  0  0  0  0  0  0
   35.5930   30.9960   41.4330 O   0  0  0  0  0  0  0  0  0  0  0  0
   36.2250   31.5160   42.0380 H   0  0  0  0  0  0  0  0  0  0  0  0
   36.2160   22.9010   39.5480 C   0  0  0  0  0  0  0  0  0  0  0  0
   35.2510   22.6270   40.0650 H   0  0  0  0  0  0  0  0  0  0  0  0
   35.9940   23.1930   38.5020 H   0  0  0  0  0  0  0  0  0  0  0  0
   36.8630   22.0140   39.5800 H   0  0  0  0  0  0  0  0  0  0  0  0
  1  6  1  0  0  0  0
  2  1  2  0  0  0  0
  2  3  1  0  0  0  0
  3  4  2  0  0  0  0
  4  5  1  0  0  0  0
  5  8  1  0  0  0  0
  6  5  2  0  0  0  0
  7  2  1  0  0  0  0
  9 16  1  0  0  0  0
 10  3  1  0  0  0  0
 10  9  2  0  0  0  0
 11 10  1  0  0  0  0
 12 11  1  0  0  0  0
 13 11  2  0  0  0  0
 13 14  1  0  0  0  0
 14 15  2  0  0  0  0
 15  9  1  0  0  0  0
 15 18  1  0  0  0  0
 16 17  1  0  0  0  0
 18 19  1  0  0  0  0
 20 23  1  0  0  0  0
 20 21  1  0  0  0  0
 20  1  1  0  0  0  0
 22 20  1  0  0  0  0
M  END
>  <minimizedAffinity>
-4.88944292

$$$$

 OpenBabel03242521403D

 23 24  0  0  0  0  0  0  0  0999 V2000
   37.4410   32.5070   39.2740 C   0  0  0  0  0  0  0  0  0  0  0  0
   37.6880   31.7230   40.3980 C   0  0  0  0  0  0  0  0  0  0  0  0
   37.7730   30.3360   40.2470 C   0  0  0  0  0  0  0  0  0  0  0  0
   37.6080   29.8390   39.0050 N   0  0  0  0  0  0  0  0  0  0  0  0
   37.3700   30.6240   37.9330 C   0  0  0  0  0  0  0  0  0  0  0  0
   37.2870   31.9640   38.0720 N   0  0  0  0  0  0  0  0  0  0  0  0
   37.8050   32.1990   41.3390 H   0  0  0  0  0  0  0  0  0  0  0  0
   37.2450   30.1660   36.9500 H   0  0  0  0  0  0  0  0  0  0  0  0
   36.9680   28.8400   41.9890 C   0  0  0  0  0  0  0  0  0  0  0  0
   38.0250   29.4740   41.3690 C   0  0  0  0  0  0  0  0  0  0  0  0
   39.2600   29.1990   41.9170 C   0  0  0  0  0  0  0  0  0  0  0  0
   40.1270   29.6680   41.4730 H   0  0  0  0  0  0  0  0  0  0  0  0
   39.4390   28.3540   43.0050 C   0  0  0  0  0  3  0  0  0  0  0  0
   38.3620   27.7360   43.6020 C   0  0  0  0  0  3  0  0  0  0  0  0
   37.1150   27.9950   43.0710 C   0  0  0  0  0  0  0  0  0  0  0  0
   35.6390   29.0100   41.5570 O   0  0  0  0  0  0  0  0  0  0  0  0
   35.4410   28.5780   40.6490 H   0  0  0  0  0  0  0  0  0  0  0  0
   36.0190   27.3650   43.6790 O   0  0  0  0  0  0  0  0  0  0  0  0
   35.6860   26.4710   43.3240 H   0  0  0  0  0  0  0  0  0  0  0  0
   37.3560   33.9860   39.4710 C   0  0  0  0  0  0  0  0  0  0  0  0
   36.2520   34.2100   39.5120 H   0  0  0  0  0  0  0  0  0  0  0  0
   37.8220   34.2890   40.4290 H   0  0  0  0  0  0  0  0  0  0  0  0
   37.7710   34.5620   38.6320 H   0  0  0  0  0  0  0  0  0  0  0  0
  1 20  1  0  0  0  0
  1  2  1  0  0  0  0
  2  7  1  0  0  0  0
  3  2  2  0  0  0  0
  3 10  1  0  0  0  0
  4  3  1  0  0  0  0
  5  6  1  0  0  0  0
  5  4  2  0  0  0  0
  6  1  2  0  0  0  0
  8  5  1  0  0  0  0
  9 15  1  0  0  0  0
 10 11  1  0  0  0  0
 10  9  2  0  0  0  0
 11 13  2  0  0  0  0
 12 11  1  0  0  0  0
 13 14  1  0  0  0  0
 15 14  2  0  0  0  0
 15 18  1  0  0  0  0
 16  9  1  0  0  0  0
 17 16  1  0  0  0  0
 19 18  1  0  0  0  0
 20 21  1  0  0  0  0
 20 22  1  0  0  0  0
 23 20  1  0  0  0  0
M  END
>  <minimizedAffinity>
-4.87150192

$$$$

 OpenBabel03242521403D

 23 24  0  0  0  0  0  0  0  0999 V2000
   40.2610   32.8730   39.6690 C   0  0  0  0  0  0  0  0  0  0  0  0
   39.4100   31.8600   39.2350 C   0  0  0  0  0  0  0  0  0  0  0  0
   38.0300   32.0360   39.3650 C   0  0  0  0  0  0  0  0  0  0  0  0
   37.6040   33.1940   39.9100 N   0  0  0  0  0  0  0  0  0  0  0  0
   38.4530   34.1590   40.3210 C   0  0  0  0  0  0  0  0  0  0  0  0
   39.7870   33.9940   40.1980 N   0  0  0  0  0  0  0  0  0  0  0  0
   39.8320   30.9800   38.8180 H   0  0  0  0  0  0  0  0  0  0  0  0
   38.0520   35.0770   40.7560 H   0  0  0  0  0  0  0  0  0  0  0  0
   36.1000   30.6180   39.7940 C   0  0  0  0  0  0  0  0  0  0  0  0
   37.1010   31.0260   38.9370 C   0  0  0  0  0  0  0  0  0  0  0  0
   37.1000   30.3950   37.7120 C   0  0  0  0  0  0  0  0  0  0  0  0
   37.8610   30.6740   36.9970 H   0  0  0  0  0  0  0  0  0  0  0  0
   36.1730   29.4240   37.3560 C   0  0  0  0  0  3  0  0  0  0  0  0
   35.1850   29.0380   38.2350 C   0  0  0  0  0  3  0  0  0  0  0  0
   35.1640   29.6560   39.4690 C   0  0  0  0  0  0  0  0  0  0  0  0
   35.9560   31.1600   41.0860 O   0  0  0  0  0  0  0  0  0  0  0  0
   35.6420   32.1350   41.0910 H   0  0  0  0  0  0  0  0  0  0  0  0
   34.1580   29.2620   40.3640 O   0  0  0  0  0  0  0  0  0  0  0  0
   33.2780   29.7730   40.3950 H   0  0  0  0  0  0  0  0  0  0  0  0
   41.7310   32.6510   39.5140 C   0  0  0  0  0  0  0  0  0  0  0  0
   42.0820   32.3180   40.5330 H   0  0  0  0  0  0  0  0  0  0  0  0
   41.9390   31.8480   38.7800 H   0  0  0  0  0  0  0  0  0  0  0  0
   42.2860   33.5660   39.2650 H   0  0  0  0  0  0  0  0  0  0  0  0
  1  6  1  0  0  0  0
  2  3  1  0  0  0  0
  2  1  2  0  0  0  0
  3  4  2  0  0  0  0
  4  5  1  0  0  0  0
  5  8  1  0  0  0  0
  6  5  2  0  0  0  0
  7  2  1  0  0  0  0
  9 16  1  0  0  0  0
 10  3  1  0  0  0  0
 10  9  2  0  0  0  0
 11 10  1  0  0  0  0
 12 11  1  0  0  0  0
 13 11  2  0  0  0  0
 13 14  1  0  0  0  0
 14 15  2  0  0  0  0
 15  9  1  0  0  0  0
 15 18  1  0  0  0  0
 16 17  1  0  0  0  0
 18 19  1  0  0  0  0
 20  1  1  0  0  0  0
 20 21  1  0  0  0  0
 22 20  1  0  0  0  0
 23 20  1  0  0  0  0
M  END
>  <minimizedAffinity>
-4.83220434

$$$$

 OpenBabel03242521403D

 23 24  0  0  0  0  0  0  0  0999 V2000
   39.7150   31.7870   39.0160 C   0  0  0  0  0  0  0  0  0  0  0  0
   39.6150   30.6540   39.8200 C   0  0  0  0  0  0  0  0  0  0  0  0
   39.0060   30.7660   41.0720 C   0  0  0  0  0  0  0  0  0  0  0  0
   38.5460   31.9830   41.4270 N   0  0  0  0  0  0  0  0  0  0  0  0
   38.6550   33.0640   40.6270 C   0  0  0  0  0  0  0  0  0  0  0  0
   39.2440   32.9610   39.4160 N   0  0  0  0  0  0  0  0  0  0  0  0
   40.0060   29.7350   39.4600 H   0  0  0  0  0  0  0  0  0  0  0  0
   38.2650   34.0250   40.9670 H   0  0  0  0  0  0  0  0  0  0  0  0
   37.6210   29.2540   42.3810 C   0  0  0  0  0  0  0  0  0  0  0  0
   38.8740   29.6340   41.9460 C   0  0  0  0  0  0  0  0  0  0  0  0
   39.9060   28.8510   42.4180 C   0  0  0  0  0  0  0  0  0  0  0  0
   40.9120   29.1000   42.1110 H   0  0  0  0  0  0  0  0  0  0  0  0
   39.7140   27.7650   43.2630 C   0  0  0  0  0  3  0  0  0  0  0  0
   38.4490   27.4130   43.6800 C   0  0  0  0  0  3  0  0  0  0  0  0
   37.3980   28.1800   43.2210 C   0  0  0  0  0  0  0  0  0  0  0  0
   36.4560   29.9440   41.9950 O   0  0  0  0  0  0  0  0  0  0  0  0
   36.2130   29.8240   41.0060 H   0  0  0  0  0  0  0  0  0  0  0  0
   36.1110   27.8200   43.6450 O   0  0  0  0  0  0  0  0  0  0  0  0
   35.5460   27.1920   43.0760 H   0  0  0  0  0  0  0  0  0  0  0  0
   40.3720   31.6300   37.6830 C   0  0  0  0  0  0  0  0  0  0  0  0
   41.4270   32.0010   37.8350 H   0  0  0  0  0  0  0  0  0  0  0  0
   40.4040   30.5660   37.3760 H   0  0  0  0  0  0  0  0  0  0  0  0
   39.9210   32.2540   36.8990 H   0  0  0  0  0  0  0  0  0  0  0  0
  1  6  2  0  0  0  0
  1  2  1  0  0  0  0
  2  3  2  0  0  0  0
  3  4  1  0  0  0  0
  3 10  1  0  0  0  0
  5  8  1  0  0  0  0
  5  4  2  0  0  0  0
  6  5  1  0  0  0  0
  7  2  1  0  0  0  0
  9 15  1  0  0  0  0
 10  9  2  0  0  0  0
 10 11  1  0  0  0  0
 11 13  2  0  0  0  0
 12 11  1  0  0  0  0
 13 14  1  0  0  0  0
 15 18  1  0  0  0  0
 15 14  2  0  0  0  0
 16  9  1  0  0  0  0
 17 16  1  0  0  0  0
 19 18  1  0  0  0  0
 20 21  1  0  0  0  0
 20  1  1  0  0  0  0
 22 20  1  0  0  0  0
 23 20  1  0  0  0  0
M  END
>  <minimizedAffinity>
-4.83050919

$$$$

 OpenBabel03242521403D

 23 24  0  0  0  0  0  0  0  0999 V2000
   37.2380   27.1020   41.5580 C   0  0  0  0  0  0  0  0  0  0  0  0
   37.3770   28.3210   40.8980 C   0  0  0  0  0  0  0  0  0  0  0  0
   37.5760   29.4780   41.6550 C   0  0  0  0  0  0  0  0  0  0  0  0
   37.6220   29.3400   42.9950 N   0  0  0  0  0  0  0  0  0  0  0  0
   37.4850   28.1450   43.6080 C   0  0  0  0  0  0  0  0  0  0  0  0
   37.2910   27.0230   42.8820 N   0  0  0  0  0  0  0  0  0  0  0  0
   37.3280   28.3390   39.8380 H   0  0  0  0  0  0  0  0  0  0  0  0
   37.5300   28.0920   44.6970 H   0  0  0  0  0  0  0  0  0  0  0  0
   38.8170   31.5490   41.3480 C   0  0  0  0  0  0  0  0  0  0  0  0
   37.7260   30.7650   41.0320 C   0  0  0  0  0  0  0  0  0  0  0  0
   36.8640   31.3260   40.1150 C   0  0  0  0  0  0  0  0  0  0  0  0
   35.9900   30.7580   39.8280 H   0  0  0  0  0  0  0  0  0  0  0  0
   37.0640   32.5770   39.5460 C   0  0  0  0  0  3  0  0  0  0  0  0
   38.1640   33.3350   39.8830 C   0  0  0  0  0  3  0  0  0  0  0  0
   39.0440   32.7960   40.7990 C   0  0  0  0  0  0  0  0  0  0  0  0
   39.7980   31.1280   42.2670 O   0  0  0  0  0  0  0  0  0  0  0  0
   40.3780   30.3550   41.9270 H   0  0  0  0  0  0  0  0  0  0  0  0
   40.1640   33.5680   41.1410 O   0  0  0  0  0  0  0  0  0  0  0  0
   41.0380   33.4450   40.6350 H   0  0  0  0  0  0  0  0  0  0  0  0
   37.0260   25.8850   40.7180 C   0  0  0  0  0  0  0  0  0  0  0  0
   35.9140   25.6990   40.7510 H   0  0  0  0  0  0  0  0  0  0  0  0
   37.3310   26.0650   39.6680 H   0  0  0  0  0  0  0  0  0  0  0  0
   37.5150   24.9870   41.1210 H   0  0  0  0  0  0  0  0  0  0  0  0
  1  6  1  0  0  0  0
  2  1  2  0  0  0  0
  2  3  1  0  0  0  0
  3  4  2  0  0  0  0
  4  5  1  0  0  0  0
  5  8  1  0  0  0  0
  6  5  2  0  0  0  0
  7  2  1  0  0  0  0
  9 16  1  0  0  0  0
 10  9  1  0  0  0  0
 10  3  1  0  0  0  0
 11 10  2  0  0  0  0
 12 11  1  0  0  0  0
 13 14  2  0  0  0  0
 13 11  1  0  0  0  0
 14 15  1  0  0  0  0
 15 18  1  0  0  0  0
 15  9  2  0  0  0  0
 17 16  1  0  0  0  0
 19 18  1  0  0  0  0
 20 21  1  0  0  0  0
 20 23  1  0  0  0  0
 20  1  1  0  0  0  0
 22 20  1  0  0  0  0
M  END
>  <minimizedAffinity>
-4.82762575

$$$$

 OpenBabel03242521403D

 23 24  0  0  0  0  0  0  0  0999 V2000
   38.0190   30.5720   41.1050 C   0  0  0  0  0  0  0  0  0  0  0  0
   39.2590   31.1450   40.8360 C   0  0  0  0  0  0  0  0  0  0  0  0
   39.3160   32.2810   40.0250 C   0  0  0  0  0  0  0  0  0  0  0  0
   38.1480   32.7590   39.5490 N   0  0  0  0  0  0  0  0  0  0  0  0
   36.9600   32.1840   39.8280 C   0  0  0  0  0  0  0  0  0  0  0  0
   36.8990   31.0850   40.6100 N   0  0  0  0  0  0  0  0  0  0  0  0
   40.1290   30.7020   41.2520 H   0  0  0  0  0  0  0  0  0  0  0  0
   36.0460   32.6140   39.4150 H   0  0  0  0  0  0  0  0  0  0  0  0
   40.9150   33.1110   38.3900 C   0  0  0  0  0  0  0  0  0  0  0  0
   40.5660   32.9170   39.7110 C   0  0  0  0  0  0  0  0  0  0  0  0
   41.4950   33.3730   40.6230 C   0  0  0  0  0  0  0  0  0  0  0  0
   41.2750   33.2480   41.6740 H   0  0  0  0  0  0  0  0  0  0  0  0
   42.6880   33.9800   40.2550 C   0  0  0  0  0  3  0  0  0  0  0  0
   43.0070   34.1600   38.9270 C   0  0  0  0  0  3  0  0  0  0  0  0
   42.0940   33.7120   37.9940 C   0  0  0  0  0  0  0  0  0  0  0  0
   40.0820   32.7050   37.3300 O   0  0  0  0  0  0  0  0  0  0  0  0
   39.2230   33.2580   37.2450 H   0  0  0  0  0  0  0  0  0  0  0  0
   42.4200   33.8950   36.6420 O   0  0  0  0  0  0  0  0  0  0  0  0
   42.1040   34.7290   36.1530 H   0  0  0  0  0  0  0  0  0  0  0  0
   37.9950   29.3570   41.9750 C   0  0  0  0  0  0  0  0  0  0  0  0
   37.9140   28.4890   41.2590 H   0  0  0  0  0  0  0  0  0  0  0  0
   38.9340   29.2620   42.5540 H   0  0  0  0  0  0  0  0  0  0  0  0
   37.1180   29.3120   42.6360 H   0  0  0  0  0  0  0  0  0  0  0  0
  1 20  1  0  0  0  0
  2  1  1  0  0  0  0
  2  7  1  0  0  0  0
  3  2  2  0  0  0  0
  4  5  2  0  0  0  0
  4  3  1  0  0  0  0
  5  6  1  0  0  0  0
  6  1  2  0  0  0  0
  8  5  1  0  0  0  0
  9 10  1  0  0  0  0
 10  3  1  0  0  0  0
 10 11  2  0  0  0  0
 11 12  1  0  0  0  0
 13 11  1  0  0  0  0
 14 13  2  0  0  0  0
 15  9  2  0  0  0  0
 15 14  1  0  0  0  0
 16  9  1  0  0  0  0
 17 16  1  0  0  0  0
 18 15  1  0  0  0  0
 19 18  1  0  0  0  0
 20 22  1  0  0  0  0
 20 23  1  0  0  0  0
 21 20  1  0  0  0  0
M  END
>  <minimizedAffinity>
-4.70783615

$$$$

 OpenBabel03242521403D

 23 24  0  0  0  0  0  0  0  0999 V2000
   34.5780   28.9260   37.2980 C   0  0  0  0  0  0  0  0  0  0  0  0
   34.8790   28.4050   38.5530 C   0  0  0  0  0  0  0  0  0  0  0  0
   36.2070   28.4200   38.9890 C   0  0  0  0  0  0  0  0  0  0  0  0
   37.1250   28.9460   38.1530 N   0  0  0  0  0  0  0  0  0  0  0  0
   36.8030   29.4450   36.9410 C   0  0  0  0  0  0  0  0  0  0  0  0
   35.5220   29.4320   36.5150 N   0  0  0  0  0  0  0  0  0  0  0  0
   34.0930   28.0090   39.1470 H   0  0  0  0  0  0  0  0  0  0  0  0
   37.5880   29.8590   36.3050 H   0  0  0  0  0  0  0  0  0  0  0  0
   36.7270   28.7590   41.3410 C   0  0  0  0  0  0  0  0  0  0  0  0
   36.5810   27.8970   40.2740 C   0  0  0  0  0  0  0  0  0  0  0  0
   36.8190   26.5720   40.5710 C   0  0  0  0  0  0  0  0  0  0  0  0
   36.7200   25.8490   39.7730 H   0  0  0  0  0  0  0  0  0  0  0  0
   37.1780   26.1270   41.8360 C   0  0  0  0  0  3  0  0  0  0  0  0
   37.3160   27.0140   42.8810 C   0  0  0  0  0  3  0  0  0  0  0  0
   37.0820   28.3470   42.6100 C   0  0  0  0  0  0  0  0  0  0  0  0
   36.5210   30.1460   41.2140 O   0  0  0  0  0  0  0  0  0  0  0  0
   35.5410   30.4060   41.0630 H   0  0  0  0  0  0  0  0  0  0  0  0
   37.2230   29.2490   43.6750 O   0  0  0  0  0  0  0  0  0  0  0  0
   36.4120   29.5010   44.2370 H   0  0  0  0  0  0  0  0  0  0  0  0
   33.1480   28.8930   36.8640 C   0  0  0  0  0  0  0  0  0  0  0  0
   33.0700   27.9930   36.1880 H   0  0  0  0  0  0  0  0  0  0  0  0
   32.4710   28.7550   37.7290 H   0  0  0  0  0  0  0  0  0  0  0  0
   32.8530   29.7690   36.2690 H   0  0  0  0  0  0  0  0  0  0  0  0
  1  2  1  0  0  0  0
  2  3  2  0  0  0  0
  2  7  1  0  0  0  0
  3 10  1  0  0  0  0
  4  3  1  0  0  0  0
  5  4  2  0  0  0  0
  6  5  1  0  0  0  0
  6  1  2  0  0  0  0
  8  5  1  0  0  0  0
  9 15  1  0  0  0  0
 10 11  1  0  0  0  0
 10  9  2  0  0  0  0
 11 13  2  0  0  0  0
 12 11  1  0  0  0  0
 13 14  1  0  0  0  0
 15 14  2  0  0  0  0
 15 18  1  0  0  0  0
 16  9  1  0  0  0  0
 17 16  1  0  0  0  0
 18 19  1  0  0  0  0
 20  1  1  0  0  0  0
 20 22  1  0  0  0  0
 21 20  1  0  0  0  0
 23 20  1  0  0  0  0
M  END
>  <minimizedAffinity>
-4.63228655

$$$$
