
 OpenBabel03252503413D

 23 24  0  0  0  0  0  0  0  0999 V2000
   45.1780   34.6350   44.1740 C   0  0  0  0  0  0  0  0  0  0  0  0
   44.8130   35.6560   43.2940 C   0  0  0  0  0  0  0  0  0  0  0  0
   44.3560   35.2880   42.0350 C   0  0  0  0  0  0  0  0  0  0  0  0
   44.2890   33.9640   41.7300 N   0  0  0  0  0  0  0  0  0  0  0  0
   44.6450   33.0050   42.5960 C   0  0  0  0  0  0  0  0  0  0  0  0
   45.0930   33.3260   43.8250 N   0  0  0  0  0  0  0  0  0  0  0  0
   45.5540   34.7690   45.1960 H   0  0  0  0  0  0  0  0  0  0  0  0
   44.0950   36.1130   41.4120 H   0  0  0  0  0  0  0  0  0  0  0  0
   45.4120   31.0520   41.3040 C   0  0  0  0  0  0  0  0  0  0  0  0
   44.5550   31.5970   42.2220 C   0  0  0  0  0  0  0  0  0  0  0  0
   43.6110   30.7690   42.7720 C   0  0  0  0  0  0  0  0  0  0  0  0
   42.9000   31.1100   43.4960 H   0  0  0  0  0  0  0  0  0  0  0  0
   43.5470   29.4340   42.3980 C   0  0  0  0  0  3  0  0  0  0  0  0
   44.4260   28.9080   41.4680 C   0  0  0  0  0  3  0  0  0  0  0  0
   45.3840   29.7330   40.9040 C   0  0  0  0  0  0  0  0  0  0  0  0
   46.3770   31.9120   40.7460 O   0  0  0  0  0  0  0  0  0  0  0  0
   47.2990   32.0140   41.1290 H   0  0  0  0  0  0  0  0  0  0  0  0
   46.3250   29.3110   39.9550 O   0  0  0  0  0  0  0  0  0  0  0  0
   47.2700   29.6910   39.9630 H   0  0  0  0  0  0  0  0  0  0  0  0
   44.9690   37.0230   43.8390 C   0  0  0  0  0  0  0  0  0  0  0  0
   44.1700   37.2660   44.5750 H   0  0  0  0  0  0  0  0  0  0  0  0
   44.9290   37.7230   42.9800 H   0  0  0  0  0  0  0  0  0  0  0  0
   45.9170   37.0690   44.4100 H   0  0  0  0  0  0  0  0  0  0  0  0
  1  7  1  0  0  0  0
  2 20  1  0  0  0  0
  2  1  2  0  0  0  0
  3  2  1  0  0  0  0
  4  3  2  0  0  0  0
  4  5  1  0  0  0  0
  5  6  2  0  0  0  0
  6  1  1  0  0  0  0
  8  3  1  0  0  0  0
  9 10  1  0  0  0  0
 10  5  1  0  0  0  0
 10 11  2  0  0  0  0
 11 12  1  0  0  0  0
 13 11  1  0  0  0  0
 14 13  2  0  0  0  0
 15  9  2  0  0  0  0
 15 14  1  0  0  0  0
 16 17  1  0  0  0  0
 16  9  1  0  0  0  0
 18 19  1  0  0  0  0
 18 15  1  0  0  0  0
 20 23  1  0  0  0  0
 20 21  1  0  0  0  0
 22 20  1  0  0  0  0
M  END
>  <minimizedAffinity>
-2.49569321

>  <minimizedRMSD>
5.94748974

$$$$
