
 OpenBabel03242518323D

 30 32  0  0  0  0  0  0  0  0999 V2000
   46.9990   33.9760   39.9750 C   0  0  0  0  0  0  0  0  0  0  0  0
   48.2090   34.4720   39.5520 C   0  0  0  0  0  0  0  0  0  0  0  0
   48.4090   34.0480   38.2540 C   0  0  0  0  0  0  0  0  0  0  0  0
   47.2980   33.3040   37.9410 C   0  0  0  0  0  0  0  0  0  0  0  0
   46.4790   33.2720   38.9620 O   0  0  0  0  0  0  0  0  0  0  0  0
   48.8110   35.0770   40.2170 H   0  0  0  0  0  0  0  0  0  0  0  0
   49.2840   34.2930   37.6740 H   0  0  0  0  0  0  0  0  0  0  0  0
   45.9590   32.9040   35.8920 C   0  0  0  0  0  0  0  0  0  0  0  0
   47.0720   32.6520   36.6620 C   0  0  0  0  0  0  0  0  0  0  0  0
   47.9630   31.7410   36.1470 C   0  0  0  0  0  0  0  0  0  0  0  0
   48.8540   31.5330   36.7510 H   0  0  0  0  0  0  0  0  0  0  0  0
   47.8500   31.0660   34.9480 C   0  0  0  0  0  0  0  0  0  0  0  0
   46.7220   31.3420   34.2010 C   0  0  0  0  0  0  0  0  0  0  0  0
   45.7730   32.2590   34.6640 C   0  0  0  0  0  0  0  0  0  0  0  0
   44.9950   33.8120   36.3270 O   0  0  0  0  0  0  0  0  0  0  0  0
   44.0580   33.4960   36.5690 H   0  0  0  0  0  0  0  0  0  0  0  0
   44.6560   32.5090   33.8860 O   0  0  0  0  0  0  0  0  0  0  0  0
   44.7110   32.3600   32.8880 H   0  0  0  0  0  0  0  0  0  0  0  0
   46.3280   34.1110   41.2040 O   0  0  0  0  0  0  0  0  0  0  0  0
   46.8570   34.8840   42.2310 C   0  0  0  0  0  0  0  0  0  0  0  0
   47.8970   35.5070   41.9620 O   0  0  0  0  0  0  0  0  0  0  0  0
   46.1300   34.8570   43.4650 C   0  0  0  0  0  0  0  0  0  0  0  0
   45.2270   35.8930   43.5930 C   0  0  0  0  0  0  0  0  0  0  0  0
   44.4720   35.9430   44.7710 C   0  0  0  0  0  0  0  0  0  0  0  0
   44.6590   34.9920   45.7110 N   0  0  0  0  0  0  0  0  0  0  0  0
   45.5650   33.9960   45.5270 C   0  0  0  0  0  0  0  0  0  0  0  0
   46.3060   33.9260   44.3990 N   0  0  0  0  0  0  0  0  0  0  0  0
   45.0520   36.6670   42.8660 H   0  0  0  0  0  0  0  0  0  0  0  0
   43.7430   36.7450   44.9190 H   0  0  0  0  0  0  0  0  0  0  0  0
   45.6700   33.2600   46.3180 H   0  0  0  0  0  0  0  0  0  0  0  0
  1 19  1  0  0  0  0
  2  1  2  0  0  0  0
  2  6  1  0  0  0  0
  3  2  1  0  0  0  0
  4  3  2  0  0  0  0
  4  5  1  0  0  0  0
  5  1  1  0  0  0  0
  7  3  1  0  0  0  0
  8 15  1  0  0  0  0
  8  9  1  0  0  0  0
  9  4  1  0  0  0  0
 10  9  2  0  0  0  0
 10 11  1  0  0  0  0
 12 10  1  0  0  0  0
 13 14  1  0  0  0  0
 13 12  2  0  0  0  0
 14  8  2  0  0  0  0
 15 16  1  0  0  0  0
 17 14  1  0  0  0  0
 18 17  1  0  0  0  0
 19 20  1  0  0  0  0
 20 22  1  0  0  0  0
 21 20  2  0  0  0  0
 22 23  2  0  0  0  0
 22 27  1  0  0  0  0
 23 24  1  0  0  0  0
 24 29  1  0  0  0  0
 24 25  2  0  0  0  0
 26 25  1  0  0  0  0
 26 30  1  0  0  0  0
 27 26  2  0  0  0  0
 28 23  1  0  0  0  0
M  END
>  <minimizedAffinity>
-6.36758566

>  <minimizedRMSD>
1.15572321

$$$$
