
 OpenBabel03252508153D

 39 42  0  0  1  0  0  0  0  0999 V2000
   45.7070   33.0930   46.1780 C   0  0  0  0  0  3  0  0  0  0  0  0
   46.0620   31.9520   45.7340 C   0  0  0  0  0  3  0  0  0  0  0  0
   44.5190   36.1960   44.5890 C   0  0  0  0  0  0  0  0  0  0  0  0
   45.1300   36.1470   43.3430 C   0  0  0  0  0  0  0  0  0  0  0  0
   45.9380   35.0880   43.0770 C   0  0  0  0  0  0  0  0  0  0  0  0
   46.0890   34.1540   44.0480 N   0  0  0  0  0  0  0  0  0  0  0  0
   45.5090   34.1860   45.2460 C   0  0  0  0  0  0  0  0  0  0  0  0
   44.7180   35.2380   45.4890 N   0  0  0  0  0  0  0  0  0  0  0  0
   43.8620   37.0230   44.8580 H   0  0  0  0  0  0  0  0  0  0  0  0
   44.9810   36.9050   42.6090 H   0  0  0  0  0  0  0  0  0  0  0  0
   46.3080   34.0380   40.7960 C   0  0  0  0  0  0  0  0  0  0  0  0
   46.6780   34.8230   41.8540 C   0  0  0  0  0  0  0  0  0  0  0  0
   47.9210   35.4040   41.6670 C   0  0  0  0  0  0  0  0  0  0  0  0
   48.3790   36.0690   42.4170 H   0  0  0  0  0  0  0  0  0  0  0  0
   48.6950   35.2150   40.5420 C   0  0  0  0  0  3  0  0  0  0  0  0
   48.2560   34.4090   39.5160 C   0  0  0  0  0  3  0  0  0  0  0  0
   47.0290   33.8120   39.6570 C   0  0  0  0  0  0  0  0  0  0  0  0
   45.0950   33.4090   40.8660 O   0  0  0  0  0  0  0  0  0  0  0  0
   44.3120   33.8460   40.3810 H   0  0  0  0  0  0  0  0  0  0  0  0
   46.5800   33.0070   38.6430 O   0  0  0  0  0  0  0  0  0  0  0  0
   46.2020   33.4770   37.8160 H   0  0  0  0  0  0  0  0  0  0  0  0
   46.2200   30.8670   46.7880 C   0  0  0  0  0  0  0  0  0  0  0  0
   45.3670   30.1710   46.5580 H   0  0  0  0  0  0  0  0  0  0  0  0
   47.1610   30.3250   46.6630 H   0  0  0  0  0  0  0  0  0  0  0  0
   45.9590   31.4320   48.1430 C   0  0  1  0  0  0  0  0  0  0  0  0
   45.7160   30.4600   49.2510 C   0  0  0  0  0  0  0  0  0  0  0  0
   46.9480   31.2260   49.2340 C   0  0  1  0  0  0  0  0  0  0  0  0
   45.3610   32.3830   48.1880 H   0  0  0  0  0  0  0  0  0  0  0  0
   45.7660   29.3750   48.9930 H   0  0  0  0  0  0  0  0  0  0  0  0
   44.8990   30.6800   49.9610 H   0  0  0  0  0  0  0  0  0  0  0  0
   46.9970   32.0560   50.0020 H   0  0  0  0  0  0  0  0  0  0  0  0
   48.2830   30.7060   48.8660 C   0  0  0  0  0  0  0  0  0  0  0  0
   49.2080   30.4260   50.0800 C   0  0  0  0  0  0  0  0  0  0  0  0
   49.4850   31.6070   49.2140 C   0  0  0  0  0  0  0  0  0  0  0  0
   48.4030   29.9970   48.0230 H   0  0  0  0  0  0  0  0  0  0  0  0
   49.8510   29.5470   50.0150 H   0  0  0  0  0  0  0  0  0  0  0  0
   48.8220   30.6740   51.0870 H   0  0  0  0  0  0  0  0  0  0  0  0
   50.3650   31.5040   48.5580 H   0  0  0  0  0  0  0  0  0  0  0  0
   49.2270   32.6220   49.5290 H   0  0  0  0  0  0  0  0  0  0  0  0
  2  1  2  0  0  0  0
  2 22  1  0  0  0  0
  3  9  1  0  0  0  0
  3  8  1  0  0  0  0
  4  3  2  0  0  0  0
  5  4  1  0  0  0  0
  5  6  2  0  0  0  0
  6  7  1  0  0  0  0
  7  8  2  0  0  0  0
  7  1  1  0  0  0  0
 10  4  1  0  0  0  0
 11 18  1  0  0  0  0
 11 12  1  0  0  0  0
 12  5  1  0  0  0  0
 13 12  2  0  0  0  0
 13 14  1  0  0  0  0
 15 13  1  0  0  0  0
 16 17  1  0  0  0  0
 16 15  2  0  0  0  0
 17 11  2  0  0  0  0
 19 18  1  0  0  0  0
 20 17  1  0  0  0  0
 21 20  1  0  0  0  0
 22 25  1  0  0  0  0
 23 22  1  0  0  0  0
 24 22  1  0  0  0  0
 25 28  1  1  0  0  0
 25 27  1  0  0  0  0
 25 26  1  0  0  0  0
 26 30  1  0  0  0  0
 27 26  1  0  0  0  0
 27 31  1  1  0  0  0
 29 26  1  0  0  0  0
 32 34  1  0  0  0  0
 32 27  1  0  0  0  0
 32 33  1  0  0  0  0
 33 37  1  0  0  0  0
 34 39  1  0  0  0  0
 34 33  1  0  0  0  0
 35 32  1  0  0  0  0
 36 33  1  0  0  0  0
 38 34  1  0  0  0  0
M  END
>  <minimizedAffinity>
-6.42250538

>  <minimizedRMSD>
0.620335639

$$$$
