
 OpenBabel03252507133D

 44 46  0  0  1  0  0  0  0  0999 V2000
   45.8670   31.2390   42.2950 C   0  0  2  0  0  0  0  0  0  0  0  0
   44.6990   30.3470   42.0980 C   0  0  0  0  0  0  0  0  0  0  0  0
   43.4370   31.0870   42.4410 C   0  0  0  0  0  0  0  0  0  0  0  0
   43.1480   32.0980   41.5300 O   0  0  0  0  0  0  0  0  0  0  0  0
   44.3000   32.5960   40.9620 C   0  0  0  0  0  0  0  0  0  0  0  0
   45.4320   32.6510   41.9630 C   0  0  1  0  0  0  0  0  0  0  0  0
   46.1310   31.1830   43.3870 H   0  0  0  0  0  0  0  0  0  0  0  0
   44.6000   29.9540   41.0640 H   0  0  0  0  0  0  0  0  0  0  0  0
   44.7380   29.4290   42.7490 H   0  0  0  0  0  0  0  0  0  0  0  0
   43.3210   31.3510   43.4890 H   0  0  0  0  0  0  0  0  0  0  0  0
   42.6150   30.2950   42.2850 H   0  0  0  0  0  0  0  0  0  0  0  0
   44.0740   33.5780   40.5210 H   0  0  0  0  0  0  0  0  0  0  0  0
   44.6140   31.9220   40.1310 H   0  0  0  0  0  0  0  0  0  0  0  0
   46.3010   33.0360   41.3310 H   0  0  0  0  0  0  0  0  0  0  0  0
   45.0780   34.9460   42.5580 C   0  0  0  0  0  0  0  0  0  0  0  0
   45.2480   33.6150   42.9940 C   0  0  0  0  0  0  0  0  0  0  0  0
   45.2200   33.5350   44.3700 C   0  0  0  0  0  0  0  0  0  0  0  0
   45.3540   32.5630   44.7670 H   0  0  0  0  0  0  0  0  0  0  0  0
   45.0510   34.5660   45.2630 C   0  0  0  0  0  3  0  0  0  0  0  0
   44.8920   35.8350   44.7520 C   0  0  0  0  0  3  0  0  0  0  0  0
   44.9090   35.9980   43.4030 C   0  0  0  0  0  0  0  0  0  0  0  0
   45.0740   35.2710   41.1850 O   0  0  0  0  0  0  0  0  0  0  0  0
   45.4730   36.1070   40.8280 H   0  0  0  0  0  0  0  0  0  0  0  0
   44.7450   37.2990   42.9470 O   0  0  0  0  0  0  0  0  0  0  0  0
   43.8840   37.7010   42.6480 H   0  0  0  0  0  0  0  0  0  0  0  0
   46.9960   30.8990   41.6510 O   0  0  0  0  0  0  0  0  0  0  0  0
   49.1260   29.6340   42.5180 O   0  0  0  0  0  0  0  0  0  0  0  0
   48.4270   30.9360   42.4730 P   0  0  2  0  0  0  0  0  0  0  0  0
   48.1030   31.3870   44.0840 O   0  0  0  0  0  0  0  0  0  0  0  0
   48.7450   32.0600   44.4220 H   0  0  0  0  0  0  0  0  0  0  0  0
   49.4610   32.1500   41.8160 O   0  0  0  0  0  0  0  0  0  0  0  0
   49.4390   32.0720   39.4600 C   0  0  0  0  0  0  0  0  0  0  0  0
   50.1450   31.9540   40.6350 C   0  0  0  0  0  0  0  0  0  0  0  0
   51.5270   31.6390   40.5810 C   0  0  0  0  0  0  0  0  0  0  0  0
   52.0710   31.4750   39.3490 N   0  0  0  0  0  0  0  0  0  0  0  0
   51.3580   31.5960   38.2350 C   0  0  0  0  0  0  0  0  0  0  0  0
   50.0370   31.8970   38.3080 N   0  0  0  0  0  0  0  0  0  0  0  0
   47.5830   33.7040   39.1680 C   0  0  0  0  0  0  0  0  0  0  0  0
   48.2230   34.6600   39.7260 O   0  0  0  0  0  0  0  0  0  0  0  0
   48.1270   32.3500   38.9980 N   0  0  0  0  0  0  0  0  0  0  0  0
   52.0620   31.5520   41.5260 H   0  0  0  0  0  0  0  0  0  0  0  0
   51.7870   31.4660   37.2450 H   0  0  0  0  0  0  0  0  0  0  0  0
   46.5770   33.9460   38.8110 H   0  0  0  0  0  0  0  0  0  0  0  0
   47.4650   31.6970   38.5370 H   0  0  0  0  0  0  0  0  0  0  0  0
  1  7  1  1  0  0  0
  2  1  1  0  0  0  0
  2  3  1  0  0  0  0
  2  9  1  0  0  0  0
  3 10  1  0  0  0  0
  4  3  1  0  0  0  0
  5  4  1  0  0  0  0
  5  6  1  0  0  0  0
  6 14  1  6  0  0  0
  6  1  1  0  0  0  0
  6 16  1  0  0  0  0
  8  2  1  0  0  0  0
 11  3  1  0  0  0  0
 12  5  1  0  0  0  0
 13  5  1  0  0  0  0
 15 16  2  0  0  0  0
 15 21  1  0  0  0  0
 16 17  1  0  0  0  0
 17 18  1  0  0  0  0
 17 19  2  0  0  0  0
 20 19  1  0  0  0  0
 21 20  2  0  0  0  0
 22 15  1  0  0  0  0
 23 22  1  0  0  0  0
 24 21  1  0  0  0  0
 25 24  1  0  0  0  0
 26  1  1  0  0  0  0
 26 28  1  0  0  0  0
 28 27  2  6  0  0  0
 28 29  1  0  0  0  0
 29 30  1  0  0  0  0
 31 28  1  0  0  0  0
 32 33  1  0  0  0  0
 33 31  1  0  0  0  0
 34 33  2  0  0  0  0
 34 41  1  0  0  0  0
 35 34  1  0  0  0  0
 36 37  1  0  0  0  0
 36 35  2  0  0  0  0
 37 32  2  0  0  0  0
 38 39  2  0  0  0  0
 40 38  1  0  0  0  0
 40 32  1  0  0  0  0
 42 36  1  0  0  0  0
 43 38  1  0  0  0  0
 44 40  1  0  0  0  0
M  END
>  <minimizedAffinity>
-4.80525398

>  <minimizedRMSD>
4.38345623

$$$$
