
 OpenBabel03242521533D

 38 41  0  0  0  0  0  0  0  0999 V2000
   39.6300   30.3350   40.7450 C   0  0  0  0  0  0  0  0  0  0  0  0
   40.9420   30.2990   41.1970 C   0  0  0  0  0  0  0  0  0  0  0  0
   41.7070   31.4500   41.4270 C   0  0  0  0  0  0  0  0  0  0  0  0
   41.1700   32.7010   41.2070 C   0  0  0  0  0  0  0  0  0  0  0  0
   39.8490   32.7720   40.7440 C   0  0  0  0  0  0  0  0  0  0  0  0
   39.3650   34.0200   40.4700 C   0  0  0  0  0  0  0  0  0  0  0  0
   38.0870   34.1200   39.9150 C   0  0  0  0  0  0  0  0  0  0  0  0
   37.3630   32.9080   39.6560 C   0  0  0  0  0  0  0  0  0  0  0  0
   37.9630   31.7210   39.9790 C   0  0  0  0  0  0  0  0  0  0  0  0
   39.1720   31.5810   40.5360 C   0  0  0  0  0  0  0  0  0  0  0  0
   41.3580   29.3010   41.3690 H   0  0  0  0  0  0  0  0  0  0  0  0
   42.7090   31.2760   41.7750 H   0  0  0  0  0  0  0  0  0  0  0  0
   41.7330   33.5760   41.3820 H   0  0  0  0  0  0  0  0  0  0  0  0
   39.9850   34.8830   40.6900 H   0  0  0  0  0  0  0  0  0  0  0  0
   37.8240   35.1820   39.7630 H   0  0  0  0  0  0  0  0  0  0  0  0
   36.4450   33.3120   39.2370 H   0  0  0  0  0  0  0  0  0  0  0  0
   37.8180   27.1320   40.2040 C   0  0  0  0  0  0  0  0  0  0  0  0
   37.1280   27.0330   41.4230 C   0  0  0  0  0  0  0  0  0  0  0  0
   37.2930   28.0710   42.3200 C   0  0  0  0  0  0  0  0  0  0  0  0
   38.1000   29.0520   41.9200 N   0  0  0  0  0  0  0  0  0  0  0  0
   38.7560   29.1820   40.8020 C   0  0  0  0  0  0  0  0  0  0  0  0
   38.5870   28.1830   39.9500 N   0  0  0  0  0  0  0  0  0  0  0  0
   37.7140   26.3310   39.4670 H   0  0  0  0  0  0  0  0  0  0  0  0
   36.4950   26.2060   41.6750 H   0  0  0  0  0  0  0  0  0  0  0  0
   36.5830   28.1560   43.5570 N   0  0  0  0  0  0  0  0  0  0  0  0
   35.6050   27.8600   43.7760 H   0  0  0  0  0  0  0  0  0  0  0  0
   37.1280   28.5690   44.3220 H   0  0  0  0  0  0  0  0  0  0  0  0
   35.9600   30.5200   39.9660 C   0  0  0  0  0  0  0  0  0  0  0  0
   37.0660   30.9290   39.1680 C   0  0  0  0  0  0  0  0  0  0  0  0
   37.0420   30.3190   37.9660 C   0  0  0  0  0  0  0  0  0  0  0  0
   37.9450   30.6480   37.4350 H   0  0  0  0  0  0  0  0  0  0  0  0
   36.0970   29.4240   37.5280 C   0  0  0  0  0  3  0  0  0  0  0  0
   35.0420   29.0530   38.3210 C   0  0  0  0  0  3  0  0  0  0  0  0
   34.9910   29.6260   39.5670 C   0  0  0  0  0  0  0  0  0  0  0  0
   35.6770   30.9550   41.2810 O   0  0  0  0  0  0  0  0  0  0  0  0
   36.3420   30.6520   41.9860 H   0  0  0  0  0  0  0  0  0  0  0  0
   33.9020   29.2090   40.3210 O   0  0  0  0  0  0  0  0  0  0  0  0
   34.1100   28.7630   41.2230 H   0  0  0  0  0  0  0  0  0  0  0  0
  1 21  1  0  0  0  0
  1  2  1  0  0  0  0
  2 11  1  0  0  0  0
  2  3  2  0  0  0  0
  3 12  1  0  0  0  0
  4 13  1  0  0  0  0
  4  3  1  0  0  0  0
  5  4  2  0  0  0  0
  6 14  1  0  0  0  0
  6  5  1  0  0  0  0
  7  6  2  0  0  0  0
  8  7  1  0  0  0  0
  8  9  2  0  0  0  0
  9 10  1  0  0  0  0
 10  5  1  0  0  0  0
 10  1  2  0  0  0  0
 15  7  1  0  0  0  0
 16  8  1  0  0  0  0
 17 18  1  0  0  0  0
 18 24  1  0  0  0  0
 18 19  2  0  0  0  0
 19 25  1  0  0  0  0
 20 19  1  0  0  0  0
 21 20  2  0  0  0  0
 22 17  2  0  0  0  0
 22 21  1  0  0  0  0
 23 17  1  0  0  0  0
 25 26  1  0  0  0  0
 25 27  1  0  0  0  0
 28 35  1  0  0  0  0
 29 28  2  0  0  0  0
 29  9  1  0  0  0  0
 30 29  1  0  0  0  0
 31 30  1  0  0  0  0
 32 30  2  0  0  0  0
 32 33  1  0  0  0  0
 33 34  2  0  0  0  0
 34 28  1  0  0  0  0
 34 37  1  0  0  0  0
 35 36  1  0  0  0  0
 37 38  1  0  0  0  0
M  END
>  <minimizedAffinity>
-7.20914507

$$$$

 OpenBabel03242521533D

 38 41  0  0  0  0  0  0  0  0999 V2000
   36.8310   26.8160   39.8550 C   0  0  0  0  0  0  0  0  0  0  0  0
   36.5570   25.4630   39.7190 C   0  0  0  0  0  0  0  0  0  0  0  0
   36.5750   24.5640   40.7940 C   0  0  0  0  0  0  0  0  0  0  0  0
   36.8740   25.0020   42.0670 C   0  0  0  0  0  0  0  0  0  0  0  0
   37.1630   26.3630   42.2370 C   0  0  0  0  0  0  0  0  0  0  0  0
   37.5220   26.7580   43.4940 C   0  0  0  0  0  0  0  0  0  0  0  0
   37.9100   28.0880   43.6790 C   0  0  0  0  0  0  0  0  0  0  0  0
   37.9170   28.9570   42.5360 C   0  0  0  0  0  0  0  0  0  0  0  0
   37.5330   28.4350   41.3310 C   0  0  0  0  0  0  0  0  0  0  0  0
   37.1300   27.1770   41.1150 C   0  0  0  0  0  0  0  0  0  0  0  0
   36.3200   25.1260   38.7050 H   0  0  0  0  0  0  0  0  0  0  0  0
   36.3450   23.5440   40.5450 H   0  0  0  0  0  0  0  0  0  0  0  0
   36.8860   24.3380   42.8860 H   0  0  0  0  0  0  0  0  0  0  0  0
   37.4950   26.0320   44.3000 H   0  0  0  0  0  0  0  0  0  0  0  0
   38.1550   28.2660   44.7410 H   0  0  0  0  0  0  0  0  0  0  0  0
   38.2570   29.8820   42.9940 H   0  0  0  0  0  0  0  0  0  0  0  0
   35.5260   29.6310   37.8030 C   0  0  0  0  0  0  0  0  0  0  0  0
   36.4080   29.5680   36.7130 C   0  0  0  0  0  0  0  0  0  0  0  0
   37.3510   28.5590   36.7300 C   0  0  0  0  0  0  0  0  0  0  0  0
   37.3150   27.7580   37.7940 N   0  0  0  0  0  0  0  0  0  0  0  0
   36.5160   27.7810   38.8230 C   0  0  0  0  0  0  0  0  0  0  0  0
   35.6150   28.7510   38.7920 N   0  0  0  0  0  0  0  0  0  0  0  0
   34.7640   30.4150   37.8270 H   0  0  0  0  0  0  0  0  0  0  0  0
   36.3760   30.2540   35.8900 H   0  0  0  0  0  0  0  0  0  0  0  0
   38.2510   28.3110   35.6490 N   0  0  0  0  0  0  0  0  0  0  0  0
   38.0900   28.4110   34.6220 H   0  0  0  0  0  0  0  0  0  0  0  0
   39.1800   27.9890   35.9460 H   0  0  0  0  0  0  0  0  0  0  0  0
   37.2560   30.6470   40.6370 C   0  0  0  0  0  0  0  0  0  0  0  0
   38.1140   29.5130   40.5630 C   0  0  0  0  0  0  0  0  0  0  0  0
   39.1020   29.7170   39.6690 C   0  0  0  0  0  0  0  0  0  0  0  0
   39.6850   28.7870   39.6370 H   0  0  0  0  0  0  0  0  0  0  0  0
   39.2970   30.8490   38.9170 C   0  0  0  0  0  3  0  0  0  0  0  0
   38.4530   31.9260   39.0140 C   0  0  0  0  0  3  0  0  0  0  0  0
   37.4140   31.8010   39.9020 C   0  0  0  0  0  0  0  0  0  0  0  0
   36.1170   30.7760   41.4650 O   0  0  0  0  0  0  0  0  0  0  0  0
   35.3430   30.1640   41.2280 H   0  0  0  0  0  0  0  0  0  0  0  0
   36.5960   32.9220   39.9530 O   0  0  0  0  0  0  0  0  0  0  0  0
   35.6020   32.7790   39.7360 H   0  0  0  0  0  0  0  0  0  0  0  0
  1 10  1  0  0  0  0
  2  1  2  0  0  0  0
  2  3  1  0  0  0  0
  3  4  2  0  0  0  0
  4  5  1  0  0  0  0
  4 13  1  0  0  0  0
  5  6  1  0  0  0  0
  6  7  2  0  0  0  0
  6 14  1  0  0  0  0
  7 15  1  0  0  0  0
  8 16  1  0  0  0  0
  8  7  1  0  0  0  0
  9  8  2  0  0  0  0
 10  9  1  0  0  0  0
 10  5  2  0  0  0  0
 11  2  1  0  0  0  0
 12  3  1  0  0  0  0
 17 23  1  0  0  0  0
 17 22  1  0  0  0  0
 18 19  1  0  0  0  0
 18 17  2  0  0  0  0
 19 20  2  0  0  0  0
 20 21  1  0  0  0  0
 21  1  1  0  0  0  0
 22 21  2  0  0  0  0
 24 18  1  0  0  0  0
 25 27  1  0  0  0  0
 25 19  1  0  0  0  0
 26 25  1  0  0  0  0
 28 35  1  0  0  0  0
 29 28  1  0  0  0  0
 29  9  1  0  0  0  0
 30 29  2  0  0  0  0
 31 30  1  0  0  0  0
 32 33  2  0  0  0  0
 32 30  1  0  0  0  0
 33 34  1  0  0  0  0
 34 37  1  0  0  0  0
 34 28  2  0  0  0  0
 36 35  1  0  0  0  0
 38 37  1  0  0  0  0
M  END
>  <minimizedAffinity>
-7.19616985

$$$$

 OpenBabel03242521533D

 38 41  0  0  0  0  0  0  0  0999 V2000
   37.6310   30.4830   40.3270 C   0  0  0  0  0  0  0  0  0  0  0  0
   36.3420   30.3240   39.8370 C   0  0  0  0  0  0  0  0  0  0  0  0
   35.4460   29.3660   40.3280 C   0  0  0  0  0  0  0  0  0  0  0  0
   35.8190   28.5190   41.3500 C   0  0  0  0  0  0  0  0  0  0  0  0
   37.1170   28.6480   41.8640 C   0  0  0  0  0  0  0  0  0  0  0  0
   37.4840   27.7530   42.8270 C   0  0  0  0  0  0  0  0  0  0  0  0
   38.8010   27.7920   43.2920 C   0  0  0  0  0  0  0  0  0  0  0  0
   39.6930   28.7630   42.7230 C   0  0  0  0  0  0  0  0  0  0  0  0
   39.1970   29.6040   41.7630 C   0  0  0  0  0  0  0  0  0  0  0  0
   37.9380   29.6180   41.3100 C   0  0  0  0  0  0  0  0  0  0  0  0
   36.0560   31.0020   39.0260 H   0  0  0  0  0  0  0  0  0  0  0  0
   34.4810   29.3520   39.8550 H   0  0  0  0  0  0  0  0  0  0  0  0
   35.1530   27.7960   41.7330 H   0  0  0  0  0  0  0  0  0  0  0  0
   36.7470   27.0470   43.1960 H   0  0  0  0  0  0  0  0  0  0  0  0
   38.9480   27.0260   44.0750 H   0  0  0  0  0  0  0  0  0  0  0  0
   40.6040   28.5390   43.2710 H   0  0  0  0  0  0  0  0  0  0  0  0
   39.6130   33.6280   40.4180 C   0  0  0  0  0  0  0  0  0  0  0  0
   40.2060   33.5800   39.1470 C   0  0  0  0  0  0  0  0  0  0  0  0
   39.8650   32.5130   38.3380 C   0  0  0  0  0  0  0  0  0  0  0  0
   39.0060   31.6430   38.8680 N   0  0  0  0  0  0  0  0  0  0  0  0
   38.4340   31.6520   40.0390 C   0  0  0  0  0  0  0  0  0  0  0  0
   38.7670   32.6820   40.8020 N   0  0  0  0  0  0  0  0  0  0  0  0
   39.8580   34.4580   41.0880 H   0  0  0  0  0  0  0  0  0  0  0  0
   40.8950   34.3200   38.7900 H   0  0  0  0  0  0  0  0  0  0  0  0
   40.3120   32.3790   36.9880 N   0  0  0  0  0  0  0  0  0  0  0  0
   40.4770   33.1230   36.2730 H   0  0  0  0  0  0  0  0  0  0  0  0
   40.4890   31.4090   36.7020 H   0  0  0  0  0  0  0  0  0  0  0  0
   40.9900   31.0600   42.1070 C   0  0  0  0  0  0  0  0  0  0  0  0
   40.5040   30.0000   41.2900 C   0  0  0  0  0  0  0  0  0  0  0  0
   41.3100   29.8060   40.2270 C   0  0  0  0  0  0  0  0  0  0  0  0
   40.8440   29.0120   39.6290 H   0  0  0  0  0  0  0  0  0  0  0  0
   42.4550   30.5050   39.9370 C   0  0  0  0  0  3  0  0  0  0  0  0
   42.8980   31.5200   40.7470 C   0  0  0  0  0  3  0  0  0  0  0  0
   42.1310   31.7880   41.8540 C   0  0  0  0  0  0  0  0  0  0  0  0
   40.3900   31.5360   43.2960 O   0  0  0  0  0  0  0  0  0  0  0  0
   39.4950   31.9980   43.1700 H   0  0  0  0  0  0  0  0  0  0  0  0
   42.6300   32.8240   42.6310 O   0  0  0  0  0  0  0  0  0  0  0  0
   42.0080   33.6290   42.7810 H   0  0  0  0  0  0  0  0  0  0  0  0
  1 10  1  0  0  0  0
  2  1  2  0  0  0  0
  2  3  1  0  0  0  0
  3  4  2  0  0  0  0
  4 13  1  0  0  0  0
  4  5  1  0  0  0  0
  5  6  1  0  0  0  0
  6 14  1  0  0  0  0
  6  7  2  0  0  0  0
  7 15  1  0  0  0  0
  8 16  1  0  0  0  0
  8  7  1  0  0  0  0
  9  8  2  0  0  0  0
 10  9  1  0  0  0  0
 10  5  2  0  0  0  0
 11  2  1  0  0  0  0
 12  3  1  0  0  0  0
 17 22  1  0  0  0  0
 17 23  1  0  0  0  0
 18 17  2  0  0  0  0
 19 20  2  0  0  0  0
 19 18  1  0  0  0  0
 20 21  1  0  0  0  0
 21  1  1  0  0  0  0
 21 22  2  0  0  0  0
 24 18  1  0  0  0  0
 25 19  1  0  0  0  0
 26 25  1  0  0  0  0
 27 25  1  0  0  0  0
 28 35  1  0  0  0  0
 29  9  1  0  0  0  0
 29 28  2  0  0  0  0
 30 29  1  0  0  0  0
 31 30  1  0  0  0  0
 32 30  2  0  0  0  0
 32 33  1  0  0  0  0
 33 34  2  0  0  0  0
 34 28  1  0  0  0  0
 34 37  1  0  0  0  0
 36 35  1  0  0  0  0
 37 38  1  0  0  0  0
M  END
>  <minimizedAffinity>
-6.80158901

$$$$

 OpenBabel03242521533D

 38 41  0  0  0  0  0  0  0  0999 V2000
   36.6210   26.8530   39.7080 C   0  0  0  0  0  0  0  0  0  0  0  0
   36.6470   25.4660   39.7470 C   0  0  0  0  0  0  0  0  0  0  0  0
   36.8820   24.7360   40.9190 C   0  0  0  0  0  0  0  0  0  0  0  0
   37.1020   25.3850   42.1150 C   0  0  0  0  0  0  0  0  0  0  0  0
   37.0890   26.7870   42.1090 C   0  0  0  0  0  0  0  0  0  0  0  0
   37.3770   27.4050   43.2920 C   0  0  0  0  0  0  0  0  0  0  0  0
   37.4680   28.8000   43.2990 C   0  0  0  0  0  0  0  0  0  0  0  0
   37.2640   29.4980   42.0620 C   0  0  0  0  0  0  0  0  0  0  0  0
   36.9800   28.7580   40.9460 C   0  0  0  0  0  0  0  0  0  0  0  0
   36.8570   27.4260   40.9010 C   0  0  0  0  0  0  0  0  0  0  0  0
   36.4700   24.9610   38.7920 H   0  0  0  0  0  0  0  0  0  0  0  0
   36.8760   23.6670   40.8050 H   0  0  0  0  0  0  0  0  0  0  0  0
   37.2740   24.8470   43.0070 H   0  0  0  0  0  0  0  0  0  0  0  0
   37.5250   26.7980   44.1790 H   0  0  0  0  0  0  0  0  0  0  0  0
   37.6890   29.1590   44.3200 H   0  0  0  0  0  0  0  0  0  0  0  0
   37.4020   30.5250   42.3890 H   0  0  0  0  0  0  0  0  0  0  0  0
   34.6220   28.9430   37.3680 C   0  0  0  0  0  0  0  0  0  0  0  0
   35.5480   29.0930   36.3230 C   0  0  0  0  0  0  0  0  0  0  0  0
   36.7610   28.4480   36.4660 C   0  0  0  0  0  0  0  0  0  0  0  0
   36.9130   27.7550   37.5930 N   0  0  0  0  0  0  0  0  0  0  0  0
   36.0830   27.5900   38.5830 C   0  0  0  0  0  0  0  0  0  0  0  0
   34.9230   28.2100   38.4320 N   0  0  0  0  0  0  0  0  0  0  0  0
   33.6500   29.4380   37.2920 H   0  0  0  0  0  0  0  0  0  0  0  0
   35.3530   29.6730   35.4430 H   0  0  0  0  0  0  0  0  0  0  0  0
   37.7630   28.4290   35.4470 N   0  0  0  0  0  0  0  0  0  0  0  0
   37.6450   28.4000   34.4100 H   0  0  0  0  0  0  0  0  0  0  0  0
   38.7230   28.4480   35.8080 H   0  0  0  0  0  0  0  0  0  0  0  0
   38.6870   29.7850   39.7270 C   0  0  0  0  0  0  0  0  0  0  0  0
   37.2960   29.8300   40.0290 C   0  0  0  0  0  0  0  0  0  0  0  0
   36.7320   30.9440   39.5230 C   0  0  0  0  0  0  0  0  0  0  0  0
   35.6800   30.9260   39.8380 H   0  0  0  0  0  0  0  0  0  0  0  0
   37.3700   31.9250   38.8050 C   0  0  0  0  0  3  0  0  0  0  0  0
   38.7120   31.8510   38.5300 C   0  0  0  0  0  3  0  0  0  0  0  0
   39.3670   30.7460   39.0120 C   0  0  0  0  0  0  0  0  0  0  0  0
   39.5890   28.7640   40.1070 O   0  0  0  0  0  0  0  0  0  0  0  0
   39.7680   28.6990   41.1050 H   0  0  0  0  0  0  0  0  0  0  0  0
   40.7200   30.7300   38.7020 O   0  0  0  0  0  0  0  0  0  0  0  0
   41.3750   30.6870   39.4930 H   0  0  0  0  0  0  0  0  0  0  0  0
  1  2  2  0  0  0  0
  1 10  1  0  0  0  0
  2  3  1  0  0  0  0
  3  4  2  0  0  0  0
  4 13  1  0  0  0  0
  5  4  1  0  0  0  0
  5  6  1  0  0  0  0
  6  7  2  0  0  0  0
  6 14  1  0  0  0  0
  7 15  1  0  0  0  0
  8 16  1  0  0  0  0
  8  7  1  0  0  0  0
  9  8  2  0  0  0  0
 10  9  1  0  0  0  0
 10  5  2  0  0  0  0
 11  2  1  0  0  0  0
 12  3  1  0  0  0  0
 17 22  1  0  0  0  0
 18 19  1  0  0  0  0
 18 17  2  0  0  0  0
 19 20  2  0  0  0  0
 20 21  1  0  0  0  0
 21  1  1  0  0  0  0
 22 21  2  0  0  0  0
 23 17  1  0  0  0  0
 24 18  1  0  0  0  0
 25 27  1  0  0  0  0
 25 19  1  0  0  0  0
 26 25  1  0  0  0  0
 28 29  1  0  0  0  0
 28 35  1  0  0  0  0
 29  9  1  0  0  0  0
 30 31  1  0  0  0  0
 30 29  2  0  0  0  0
 32 30  1  0  0  0  0
 33 32  2  0  0  0  0
 33 34  1  0  0  0  0
 34 28  2  0  0  0  0
 35 36  1  0  0  0  0
 37 34  1  0  0  0  0
 37 38  1  0  0  0  0
M  END
>  <minimizedAffinity>
-6.79420185

$$$$

 OpenBabel03242521533D

 38 41  0  0  0  0  0  0  0  0999 V2000
   37.2610   28.9750   41.3330 C   0  0  0  0  0  0  0  0  0  0  0  0
   37.4940   29.2980   42.6620 C   0  0  0  0  0  0  0  0  0  0  0  0
   37.5940   28.3390   43.6790 C   0  0  0  0  0  0  0  0  0  0  0  0
   37.4610   26.9970   43.3900 C   0  0  0  0  0  0  0  0  0  0  0  0
   37.2180   26.6380   42.0570 C   0  0  0  0  0  0  0  0  0  0  0  0
   37.0230   25.3090   41.8090 C   0  0  0  0  0  0  0  0  0  0  0  0
   36.6830   24.9260   40.5090 C   0  0  0  0  0  0  0  0  0  0  0  0
   36.5480   25.9520   39.5140 C   0  0  0  0  0  0  0  0  0  0  0  0
   36.7720   27.2480   39.8940 C   0  0  0  0  0  0  0  0  0  0  0  0
   37.1260   27.6550   41.1190 C   0  0  0  0  0  0  0  0  0  0  0  0
   37.5990   30.3650   42.8800 H   0  0  0  0  0  0  0  0  0  0  0  0
   37.7750   28.7290   44.6640 H   0  0  0  0  0  0  0  0  0  0  0  0
   37.5400   26.2640   44.1450 H   0  0  0  0  0  0  0  0  0  0  0  0
   37.1380   24.6010   42.6240 H   0  0  0  0  0  0  0  0  0  0  0  0
   36.5720   23.8290   40.4550 H   0  0  0  0  0  0  0  0  0  0  0  0
   36.2820   25.3540   38.6480 H   0  0  0  0  0  0  0  0  0  0  0  0
   37.0310   31.7150   38.8280 C   0  0  0  0  0  0  0  0  0  0  0  0
   38.3440   31.7000   38.3290 C   0  0  0  0  0  0  0  0  0  0  0  0
   39.1970   30.7440   38.8440 C   0  0  0  0  0  0  0  0  0  0  0  0
   38.6690   29.9420   39.7680 N   0  0  0  0  0  0  0  0  0  0  0  0
   37.4620   29.9210   40.2560 C   0  0  0  0  0  0  0  0  0  0  0  0
   36.6530   30.8410   39.7510 N   0  0  0  0  0  0  0  0  0  0  0  0
   36.3250   32.4570   38.4450 H   0  0  0  0  0  0  0  0  0  0  0  0
   38.6970   32.3840   37.5830 H   0  0  0  0  0  0  0  0  0  0  0  0
   40.5290   30.5460   38.3680 N   0  0  0  0  0  0  0  0  0  0  0  0
   40.9010   30.6370   37.3960 H   0  0  0  0  0  0  0  0  0  0  0  0
   41.1970   30.2750   39.0990 H   0  0  0  0  0  0  0  0  0  0  0  0
   37.0830   27.9870   37.7010 C   0  0  0  0  0  0  0  0  0  0  0  0
   36.1180   27.8100   38.7330 C   0  0  0  0  0  0  0  0  0  0  0  0
   34.9430   28.3740   38.3930 C   0  0  0  0  0  0  0  0  0  0  0  0
   34.2750   28.2360   39.2540 H   0  0  0  0  0  0  0  0  0  0  0  0
   34.6670   29.0330   37.2210 C   0  0  0  0  0  3  0  0  0  0  0  0
   35.6180   29.1850   36.2450 C   0  0  0  0  0  3  0  0  0  0  0  0
   36.8500   28.6410   36.5120 C   0  0  0  0  0  0  0  0  0  0  0  0
   38.4210   27.5290   37.7240 O   0  0  0  0  0  0  0  0  0  0  0  0
   39.0180   27.9840   38.4070 H   0  0  0  0  0  0  0  0  0  0  0  0
   37.7670   28.8290   35.4870 O   0  0  0  0  0  0  0  0  0  0  0  0
   38.6330   29.3290   35.7290 H   0  0  0  0  0  0  0  0  0  0  0  0
  1  2  1  0  0  0  0
  2 11  1  0  0  0  0
  2  3  2  0  0  0  0
  3 12  1  0  0  0  0
  4  3  1  0  0  0  0
  4 13  1  0  0  0  0
  5  4  2  0  0  0  0
  6  5  1  0  0  0  0
  6 14  1  0  0  0  0
  7  6  2  0  0  0  0
  8  9  2  0  0  0  0
  8  7  1  0  0  0  0
  9 10  1  0  0  0  0
 10  1  2  0  0  0  0
 10  5  1  0  0  0  0
 15  7  1  0  0  0  0
 16  8  1  0  0  0  0
 17 22  1  0  0  0  0
 18 17  2  0  0  0  0
 18 19  1  0  0  0  0
 19 20  2  0  0  0  0
 20 21  1  0  0  0  0
 21  1  1  0  0  0  0
 22 21  2  0  0  0  0
 23 17  1  0  0  0  0
 24 18  1  0  0  0  0
 25 19  1  0  0  0  0
 25 27  1  0  0  0  0
 26 25  1  0  0  0  0
 28 35  1  0  0  0  0
 28 29  1  0  0  0  0
 29  9  1  0  0  0  0
 30 29  2  0  0  0  0
 30 31  1  0  0  0  0
 32 30  1  0  0  0  0
 33 34  1  0  0  0  0
 33 32  2  0  0  0  0
 34 28  2  0  0  0  0
 35 36  1  0  0  0  0
 37 38  1  0  0  0  0
 37 34  1  0  0  0  0
M  END
>  <minimizedAffinity>
-6.66204405

$$$$

 OpenBabel03242521533D

 38 41  0  0  0  0  0  0  0  0999 V2000
   39.3910   29.9330   40.6340 C   0  0  0  0  0  0  0  0  0  0  0  0
   40.6920   29.9910   41.1150 C   0  0  0  0  0  0  0  0  0  0  0  0
   41.3800   31.1930   41.3270 C   0  0  0  0  0  0  0  0  0  0  0  0
   40.7730   32.4020   41.0600 C   0  0  0  0  0  0  0  0  0  0  0  0
   39.4610   32.3790   40.5660 C   0  0  0  0  0  0  0  0  0  0  0  0
   38.9080   33.5860   40.2450 C   0  0  0  0  0  0  0  0  0  0  0  0
   37.6390   33.5920   39.6600 C   0  0  0  0  0  0  0  0  0  0  0  0
   36.9960   32.3310   39.4220 C   0  0  0  0  0  0  0  0  0  0  0  0
   37.6600   31.1920   39.7920 C   0  0  0  0  0  0  0  0  0  0  0  0
   38.8620   31.1420   40.3790 C   0  0  0  0  0  0  0  0  0  0  0  0
   41.1640   29.0250   41.3250 H   0  0  0  0  0  0  0  0  0  0  0  0
   42.3820   31.0900   41.7010 H   0  0  0  0  0  0  0  0  0  0  0  0
   41.2770   33.3150   41.2210 H   0  0  0  0  0  0  0  0  0  0  0  0
   39.4690   34.4910   40.4530 H   0  0  0  0  0  0  0  0  0  0  0  0
   37.3160   34.6310   39.4720 H   0  0  0  0  0  0  0  0  0  0  0  0
   36.0660   32.6650   38.9720 H   0  0  0  0  0  0  0  0  0  0  0  0
   37.8220   26.5920   40.1780 C   0  0  0  0  0  0  0  0  0  0  0  0
   37.0560   26.5200   41.3520 C   0  0  0  0  0  0  0  0  0  0  0  0
   37.0940   27.6170   42.1910 C   0  0  0  0  0  0  0  0  0  0  0  0
   37.8650   28.6240   41.7840 N   0  0  0  0  0  0  0  0  0  0  0  0
   38.5880   28.7310   40.7060 C   0  0  0  0  0  0  0  0  0  0  0  0
   38.5400   27.6740   39.9090 N   0  0  0  0  0  0  0  0  0  0  0  0
   37.8190   25.7440   39.4880 H   0  0  0  0  0  0  0  0  0  0  0  0
   36.4590   25.6690   41.6140 H   0  0  0  0  0  0  0  0  0  0  0  0
   36.2950   27.7280   43.3700 N   0  0  0  0  0  0  0  0  0  0  0  0
   35.3250   27.3810   43.5430 H   0  0  0  0  0  0  0  0  0  0  0  0
   36.7590   28.2200   44.1420 H   0  0  0  0  0  0  0  0  0  0  0  0
   37.3430   30.3040   37.6560 C   0  0  0  0  0  0  0  0  0  0  0  0
   36.8330   30.3240   38.9850 C   0  0  0  0  0  0  0  0  0  0  0  0
   35.6480   29.6850   39.0540 C   0  0  0  0  0  0  0  0  0  0  0  0
   35.3040   29.7860   40.0910 H   0  0  0  0  0  0  0  0  0  0  0  0
   34.9900   29.0780   38.0130 C   0  0  0  0  0  3  0  0  0  0  0  0
   35.5100   29.0750   36.7430 C   0  0  0  0  0  3  0  0  0  0  0  0
   36.7170   29.7090   36.5830 C   0  0  0  0  0  0  0  0  0  0  0  0
   38.5570   30.8840   37.2210 O   0  0  0  0  0  0  0  0  0  0  0  0
   38.5840   31.8980   37.2530 H   0  0  0  0  0  0  0  0  0  0  0  0
   37.1890   29.6720   35.2780 O   0  0  0  0  0  0  0  0  0  0  0  0
   37.3640   30.5770   34.8240 H   0  0  0  0  0  0  0  0  0  0  0  0
  1 21  1  0  0  0  0
  1  2  1  0  0  0  0
  2 11  1  0  0  0  0
  2  3  2  0  0  0  0
  3 12  1  0  0  0  0
  4 13  1  0  0  0  0
  4  3  1  0  0  0  0
  5  4  2  0  0  0  0
  6 14  1  0  0  0  0
  6  5  1  0  0  0  0
  7  6  2  0  0  0  0
  8  7  1  0  0  0  0
  8  9  2  0  0  0  0
  9 10  1  0  0  0  0
 10  5  1  0  0  0  0
 10  1  2  0  0  0  0
 15  7  1  0  0  0  0
 16  8  1  0  0  0  0
 17 18  1  0  0  0  0
 18 24  1  0  0  0  0
 18 19  2  0  0  0  0
 19 25  1  0  0  0  0
 20 19  1  0  0  0  0
 21 20  2  0  0  0  0
 22 17  2  0  0  0  0
 22 21  1  0  0  0  0
 23 17  1  0  0  0  0
 25 26  1  0  0  0  0
 25 27  1  0  0  0  0
 28 29  1  0  0  0  0
 29 30  2  0  0  0  0
 29  9  1  0  0  0  0
 30 31  1  0  0  0  0
 32 30  1  0  0  0  0
 33 32  2  0  0  0  0
 34 33  1  0  0  0  0
 34 28  2  0  0  0  0
 35 36  1  0  0  0  0
 35 28  1  0  0  0  0
 37 34  1  0  0  0  0
 38 37  1  0  0  0  0
M  END
>  <minimizedAffinity>
-6.62337685

$$$$

 OpenBabel03242521533D

 38 41  0  0  0  0  0  0  0  0999 V2000
   37.6040   26.5420   40.0310 C   0  0  0  0  0  0  0  0  0  0  0  0
   37.3860   25.2010   39.7450 C   0  0  0  0  0  0  0  0  0  0  0  0
   37.7160   24.1640   40.6270 C   0  0  0  0  0  0  0  0  0  0  0  0
   38.2870   24.4430   41.8510 C   0  0  0  0  0  0  0  0  0  0  0  0
   38.5270   25.7870   42.1680 C   0  0  0  0  0  0  0  0  0  0  0  0
   39.1550   26.0310   43.3570 C   0  0  0  0  0  0  0  0  0  0  0  0
   39.4960   27.3510   43.6600 C   0  0  0  0  0  0  0  0  0  0  0  0
   39.1760   28.3710   42.7020 C   0  0  0  0  0  0  0  0  0  0  0  0
   38.5440   27.9920   41.5480 C   0  0  0  0  0  0  0  0  0  0  0  0
   38.1760   26.7460   41.2300 C   0  0  0  0  0  0  0  0  0  0  0  0
   36.9310   24.9920   38.7710 H   0  0  0  0  0  0  0  0  0  0  0  0
   37.4940   23.1730   40.2760 H   0  0  0  0  0  0  0  0  0  0  0  0
   38.5350   23.6720   42.5270 H   0  0  0  0  0  0  0  0  0  0  0  0
   39.3660   25.1970   44.0190 H   0  0  0  0  0  0  0  0  0  0  0  0
   39.9800   27.3980   44.6520 H   0  0  0  0  0  0  0  0  0  0  0  0
   39.5610   29.2490   43.2120 H   0  0  0  0  0  0  0  0  0  0  0  0
   36.6230   29.0810   37.4970 C   0  0  0  0  0  0  0  0  0  0  0  0
   35.3830   29.4820   38.0200 C   0  0  0  0  0  0  0  0  0  0  0  0
   34.9880   28.8970   39.2070 C   0  0  0  0  0  0  0  0  0  0  0  0
   35.8370   28.0080   39.7190 N   0  0  0  0  0  0  0  0  0  0  0  0
   36.9920   27.6090   39.2680 C   0  0  0  0  0  0  0  0  0  0  0  0
   37.3610   28.1800   38.1320 N   0  0  0  0  0  0  0  0  0  0  0  0
   36.9710   29.5210   36.5580 H   0  0  0  0  0  0  0  0  0  0  0  0
   34.7510   30.2060   37.5460 H   0  0  0  0  0  0  0  0  0  0  0  0
   33.8010   29.2730   39.9080 N   0  0  0  0  0  0  0  0  0  0  0  0
   33.3600   30.2160   39.9970 H   0  0  0  0  0  0  0  0  0  0  0  0
   33.3330   28.4920   40.3820 H   0  0  0  0  0  0  0  0  0  0  0  0
   37.8110   30.1590   41.0780 C   0  0  0  0  0  0  0  0  0  0  0  0
   38.8570   29.2200   40.8520 C   0  0  0  0  0  0  0  0  0  0  0  0
   39.7230   29.6800   39.9280 C   0  0  0  0  0  0  0  0  0  0  0  0
   40.4650   28.8850   39.7780 H   0  0  0  0  0  0  0  0  0  0  0  0
   39.6500   30.8850   39.2740 C   0  0  0  0  0  3  0  0  0  0  0  0
   38.6290   31.7690   39.5160 C   0  0  0  0  0  3  0  0  0  0  0  0
   37.6980   31.3770   40.4440 C   0  0  0  0  0  0  0  0  0  0  0  0
   36.7300   30.0000   41.9750 O   0  0  0  0  0  0  0  0  0  0  0  0
   36.0680   29.2710   41.7260 H   0  0  0  0  0  0  0  0  0  0  0  0
   36.6920   32.3120   40.6440 O   0  0  0  0  0  0  0  0  0  0  0  0
   35.7290   31.9990   40.4690 H   0  0  0  0  0  0  0  0  0  0  0  0
  1 10  1  0  0  0  0
  2  1  2  0  0  0  0
  2  3  1  0  0  0  0
  3  4  2  0  0  0  0
  4  5  1  0  0  0  0
  4 13  1  0  0  0  0
  5  6  1  0  0  0  0
  6  7  2  0  0  0  0
  6 14  1  0  0  0  0
  7 15  1  0  0  0  0
  8 16  1  0  0  0  0
  8  7  1  0  0  0  0
  9  8  2  0  0  0  0
 10  9  1  0  0  0  0
 10  5  2  0  0  0  0
 11  2  1  0  0  0  0
 12  3  1  0  0  0  0
 17 18  2  0  0  0  0
 17 22  1  0  0  0  0
 18 19  1  0  0  0  0
 19 20  2  0  0  0  0
 19 25  1  0  0  0  0
 21 20  1  0  0  0  0
 21  1  1  0  0  0  0
 22 21  2  0  0  0  0
 23 17  1  0  0  0  0
 24 18  1  0  0  0  0
 25 26  1  0  0  0  0
 25 27  1  0  0  0  0
 28 35  1  0  0  0  0
 29 28  1  0  0  0  0
 29  9  1  0  0  0  0
 30 29  2  0  0  0  0
 31 30  1  0  0  0  0
 32 33  2  0  0  0  0
 32 30  1  0  0  0  0
 33 34  1  0  0  0  0
 34 37  1  0  0  0  0
 34 28  2  0  0  0  0
 36 35  1  0  0  0  0
 38 37  1  0  0  0  0
M  END
>  <minimizedAffinity>
-6.58327532

$$$$

 OpenBabel03242521533D

 38 41  0  0  0  0  0  0  0  0999 V2000
   37.7490   31.6460   40.4750 C   0  0  0  0  0  0  0  0  0  0  0  0
   37.5200   32.9360   40.0170 C   0  0  0  0  0  0  0  0  0  0  0  0
   38.4960   33.9420   40.0360 C   0  0  0  0  0  0  0  0  0  0  0  0
   39.7590   33.6810   40.5220 C   0  0  0  0  0  0  0  0  0  0  0  0
   40.0210   32.3890   40.9980 C   0  0  0  0  0  0  0  0  0  0  0  0
   41.2580   32.1760   41.5370 C   0  0  0  0  0  0  0  0  0  0  0  0
   41.5190   30.9270   42.1080 C   0  0  0  0  0  0  0  0  0  0  0  0
   40.4700   29.9470   42.1040 C   0  0  0  0  0  0  0  0  0  0  0  0
   39.2750   30.2880   41.5300 C   0  0  0  0  0  0  0  0  0  0  0  0
   38.9920   31.4600   40.9490 C   0  0  0  0  0  0  0  0  0  0  0  0
   36.5140   33.1320   39.6320 H   0  0  0  0  0  0  0  0  0  0  0  0
   38.1810   34.8960   39.6530 H   0  0  0  0  0  0  0  0  0  0  0  0
   40.5050   34.4270   40.5370 H   0  0  0  0  0  0  0  0  0  0  0  0
   41.9900   32.9760   41.5040 H   0  0  0  0  0  0  0  0  0  0  0  0
   42.5560   30.8950   42.4860 H   0  0  0  0  0  0  0  0  0  0  0  0
   40.9690   29.1230   42.6060 H   0  0  0  0  0  0  0  0  0  0  0  0
   34.9910   29.1540   40.3340 C   0  0  0  0  0  0  0  0  0  0  0  0
   35.2940   28.5230   39.1170 C   0  0  0  0  0  0  0  0  0  0  0  0
   36.4260   28.9560   38.4540 C   0  0  0  0  0  0  0  0  0  0  0  0
   37.1010   29.9360   39.0510 N   0  0  0  0  0  0  0  0  0  0  0  0
   36.8560   30.5460   40.1760 C   0  0  0  0  0  0  0  0  0  0  0  0
   35.7710   30.1180   40.8040 N   0  0  0  0  0  0  0  0  0  0  0  0
   34.1040   28.8390   40.8900 H   0  0  0  0  0  0  0  0  0  0  0  0
   34.6970   27.7380   38.6960 H   0  0  0  0  0  0  0  0  0  0  0  0
   36.9120   28.3470   37.2570 N   0  0  0  0  0  0  0  0  0  0  0  0
   36.8930   27.3410   36.9760 H   0  0  0  0  0  0  0  0  0  0  0  0
   37.3370   29.0070   36.5960 H   0  0  0  0  0  0  0  0  0  0  0  0
   38.5640   28.0770   41.2930 C   0  0  0  0  0  0  0  0  0  0  0  0
   38.5480   29.2080   42.1580 C   0  0  0  0  0  0  0  0  0  0  0  0
   37.7230   29.0010   43.2040 C   0  0  0  0  0  0  0  0  0  0  0  0
   37.7310   29.9290   43.7900 H   0  0  0  0  0  0  0  0  0  0  0  0
   36.9860   27.8680   43.4450 C   0  0  0  0  0  3  0  0  0  0  0  0
   37.0260   26.7940   42.5930 C   0  0  0  0  0  3  0  0  0  0  0  0
   37.8410   26.9220   41.4960 C   0  0  0  0  0  0  0  0  0  0  0  0
   39.3130   27.9520   40.1000 O   0  0  0  0  0  0  0  0  0  0  0  0
   39.0240   28.5670   39.3460 H   0  0  0  0  0  0  0  0  0  0  0  0
   37.8360   25.8040   40.6740 O   0  0  0  0  0  0  0  0  0  0  0  0
   37.5520   25.9510   39.6970 H   0  0  0  0  0  0  0  0  0  0  0  0
  1 10  1  0  0  0  0
  2  3  1  0  0  0  0
  2  1  2  0  0  0  0
  3  4  2  0  0  0  0
  4 13  1  0  0  0  0
  4  5  1  0  0  0  0
  5  6  1  0  0  0  0
  6  7  2  0  0  0  0
  7 15  1  0  0  0  0
  8  7  1  0  0  0  0
  8 16  1  0  0  0  0
  9  8  2  0  0  0  0
  9 29  1  0  0  0  0
 10  5  2  0  0  0  0
 10  9  1  0  0  0  0
 11  2  1  0  0  0  0
 12  3  1  0  0  0  0
 14  6  1  0  0  0  0
 17 22  1  0  0  0  0
 17 23  1  0  0  0  0
 18 17  2  0  0  0  0
 19 20  2  0  0  0  0
 19 18  1  0  0  0  0
 20 21  1  0  0  0  0
 21  1  1  0  0  0  0
 21 22  2  0  0  0  0
 24 18  1  0  0  0  0
 25 19  1  0  0  0  0
 26 25  1  0  0  0  0
 27 25  1  0  0  0  0
 28 34  2  0  0  0  0
 28 29  1  0  0  0  0
 29 30  2  0  0  0  0
 30 32  1  0  0  0  0
 30 31  1  0  0  0  0
 33 32  2  0  0  0  0
 34 33  1  0  0  0  0
 35 28  1  0  0  0  0
 36 35  1  0  0  0  0
 37 34  1  0  0  0  0
 38 37  1  0  0  0  0
M  END
>  <minimizedAffinity>
-6.49697495

$$$$

 OpenBabel03242521533D

 38 41  0  0  0  0  0  0  0  0999 V2000
   36.8910   27.1340   38.7420 C   0  0  0  0  0  0  0  0  0  0  0  0
   36.2080   26.8450   37.5690 C   0  0  0  0  0  0  0  0  0  0  0  0
   35.5340   25.6360   37.3510 C   0  0  0  0  0  0  0  0  0  0  0  0
   35.5220   24.6570   38.3220 C   0  0  0  0  0  0  0  0  0  0  0  0
   36.2090   24.9150   39.5160 C   0  0  0  0  0  0  0  0  0  0  0  0
   36.2380   23.9040   40.4340 C   0  0  0  0  0  0  0  0  0  0  0  0
   36.9950   24.0910   41.5940 C   0  0  0  0  0  0  0  0  0  0  0  0
   37.7030   25.3300   41.7480 C   0  0  0  0  0  0  0  0  0  0  0  0
   37.5890   26.2630   40.7530 C   0  0  0  0  0  0  0  0  0  0  0  0
   36.8550   26.1360   39.6410 C   0  0  0  0  0  0  0  0  0  0  0  0
   36.2230   27.6290   36.8050 H   0  0  0  0  0  0  0  0  0  0  0  0
   35.0480   25.5450   36.3960 H   0  0  0  0  0  0  0  0  0  0  0  0
   35.0140   23.7450   38.1730 H   0  0  0  0  0  0  0  0  0  0  0  0
   35.6780   22.9960   40.2330 H   0  0  0  0  0  0  0  0  0  0  0  0
   36.9130   23.2030   42.2450 H   0  0  0  0  0  0  0  0  0  0  0  0
   38.1790   25.1670   42.7100 H   0  0  0  0  0  0  0  0  0  0  0  0
   38.5420   30.4580   38.9900 C   0  0  0  0  0  0  0  0  0  0  0  0
   37.6300   31.1210   39.8270 C   0  0  0  0  0  0  0  0  0  0  0  0
   36.5490   30.3890   40.2780 C   0  0  0  0  0  0  0  0  0  0  0  0
   36.4950   29.1270   39.8560 N   0  0  0  0  0  0  0  0  0  0  0  0
   37.3170   28.4750   39.0830 C   0  0  0  0  0  0  0  0  0  0  0  0
   38.3510   29.1870   38.6620 N   0  0  0  0  0  0  0  0  0  0  0  0
   39.4110   31.0030   38.6130 H   0  0  0  0  0  0  0  0  0  0  0  0
   37.7400   32.1460   40.1220 H   0  0  0  0  0  0  0  0  0  0  0  0
   35.5920   30.8980   41.2090 N   0  0  0  0  0  0  0  0  0  0  0  0
   35.7390   31.5470   42.0140 H   0  0  0  0  0  0  0  0  0  0  0  0
   34.6350   30.5650   41.0450 H   0  0  0  0  0  0  0  0  0  0  0  0
   38.3220   28.0280   42.0950 C   0  0  0  0  0  0  0  0  0  0  0  0
   38.7440   27.0170   41.1850 C   0  0  0  0  0  0  0  0  0  0  0  0
   40.0430   27.1740   40.8630 C   0  0  0  0  0  0  0  0  0  0  0  0
   40.2750   26.3910   40.1290 H   0  0  0  0  0  0  0  0  0  0  0  0
   40.8830   28.1540   41.3290 C   0  0  0  0  0  3  0  0  0  0  0  0
   40.4460   29.1130   42.2070 C   0  0  0  0  0  3  0  0  0  0  0  0
   39.1290   29.0300   42.5860 C   0  0  0  0  0  0  0  0  0  0  0  0
   37.0230   28.1720   42.6360 O   0  0  0  0  0  0  0  0  0  0  0  0
   36.3040   28.4260   41.9650 H   0  0  0  0  0  0  0  0  0  0  0  0
   38.7480   30.0280   43.4730 O   0  0  0  0  0  0  0  0  0  0  0  0
   37.9730   30.6350   43.1780 H   0  0  0  0  0  0  0  0  0  0  0  0
  1 21  1  0  0  0  0
  1 10  1  0  0  0  0
  2  1  2  0  0  0  0
  3  2  1  0  0  0  0
  3  4  2  0  0  0  0
  4  5  1  0  0  0  0
  5 10  2  0  0  0  0
  5  6  1  0  0  0  0
  6  7  2  0  0  0  0
  7  8  1  0  0  0  0
  7 15  1  0  0  0  0
  8 16  1  0  0  0  0
  9 29  1  0  0  0  0
  9  8  2  0  0  0  0
 10  9  1  0  0  0  0
 11  2  1  0  0  0  0
 12  3  1  0  0  0  0
 13  4  1  0  0  0  0
 14  6  1  0  0  0  0
 17 18  1  0  0  0  0
 18 24  1  0  0  0  0
 18 19  2  0  0  0  0
 19 25  1  0  0  0  0
 20 19  1  0  0  0  0
 21 20  2  0  0  0  0
 22 17  2  0  0  0  0
 22 21  1  0  0  0  0
 23 17  1  0  0  0  0
 25 26  1  0  0  0  0
 27 25  1  0  0  0  0
 28 34  1  0  0  0  0
 28 35  1  0  0  0  0
 29 28  2  0  0  0  0
 30 29  1  0  0  0  0
 30 32  2  0  0  0  0
 31 30  1  0  0  0  0
 32 33  1  0  0  0  0
 33 34  2  0  0  0  0
 34 37  1  0  0  0  0
 36 35  1  0  0  0  0
 38 37  1  0  0  0  0
M  END
>  <minimizedAffinity>
-6.32443905

$$$$
