
 OpenBabel03252501383D

 37 39  0  0  0  0  0  0  0  0999 V2000
   42.6250   32.9450   38.2120 Cl  0  0  0  0  0  0  0  0  0  0  0  0
   41.6330   33.3620   39.5830 C   0  0  0  0  0  0  0  0  0  0  0  0
   41.9550   34.3840   40.4810 C   0  0  0  0  0  0  0  0  0  0  0  0
   41.1240   34.6510   41.5320 C   0  0  0  0  0  0  0  0  0  0  0  0
   39.9580   33.9730   41.7850 C   0  0  0  0  0  0  0  0  0  0  0  0
   39.6120   32.9500   40.9070 C   0  0  0  0  0  0  0  0  0  0  0  0
   38.1390   32.0060   41.1250 Cl  0  0  0  0  0  0  0  0  0  0  0  0
   40.4660   32.6890   39.8430 C   0  0  0  0  0  0  0  0  0  0  0  0
   41.4430   35.4620   42.1890 H   0  0  0  0  0  0  0  0  0  0  0  0
   39.3150   34.1960   42.6180 H   0  0  0  0  0  0  0  0  0  0  0  0
   40.5300   30.2970   38.9640 C   0  0  0  0  0  0  0  0  0  0  0  0
   40.1050   31.6120   38.9140 C   0  0  0  0  0  0  0  0  0  0  0  0
   39.2400   32.0610   37.9110 C   0  0  0  0  0  0  0  0  0  0  0  0
   38.8690   33.0620   37.8080 H   0  0  0  0  0  0  0  0  0  0  0  0
   38.8030   31.1530   36.9460 C   0  0  0  0  0  3  0  0  0  0  0  0
   39.2220   29.8550   36.9950 C   0  0  0  0  0  3  0  0  0  0  0  0
   40.0750   29.4320   37.9920 C   0  0  0  0  0  0  0  0  0  0  0  0
   41.3860   29.9940   40.0140 O   0  0  0  0  0  0  0  0  0  0  0  0
   41.9560   29.1640   40.0650 H   0  0  0  0  0  0  0  0  0  0  0  0
   40.5310   28.1190   38.0830 O   0  0  0  0  0  0  0  0  0  0  0  0
   39.8300   27.3760   38.1290 H   0  0  0  0  0  0  0  0  0  0  0  0
   43.1460   35.0620   40.2040 O   0  0  0  0  0  0  0  0  0  0  0  0
   44.2990   34.6770   40.8960 C   0  0  0  0  0  0  0  0  0  0  0  0
   45.0320   33.6690   40.6290 O   0  0  0  0  0  0  0  0  0  0  0  0
   44.7730   35.4230   42.0150 N   0  0  0  0  0  0  0  0  0  0  0  0
   44.2910   36.2640   42.3430 H   0  0  0  0  0  0  0  0  0  0  0  0
   45.9750   34.7760   42.5270 C   0  0  0  0  0  0  0  0  0  0  0  0
   45.9850   33.7600   43.4550 C   0  0  0  0  0  0  0  0  0  0  0  0
   47.2220   33.2740   43.8180 C   0  0  0  0  0  0  0  0  0  0  0  0
   48.3090   33.8170   43.2500 N   0  0  0  0  0  0  0  0  0  0  0  0
   48.2620   34.8120   42.3440 C   0  0  0  0  0  0  0  0  0  0  0  0
   47.0560   35.3150   41.9640 N   0  0  0  0  0  0  0  0  0  0  0  0
   47.2330   32.4750   44.5460 H   0  0  0  0  0  0  0  0  0  0  0  0
   49.2020   35.1700   41.9540 H   0  0  0  0  0  0  0  0  0  0  0  0
   44.7330   33.3150   43.9440 N   0  0  0  0  0  0  0  0  0  0  0  0
   44.6980   33.2370   44.9800 H   0  0  0  0  0  0  0  0  0  0  0  0
   44.0060   33.1220   43.2200 H   0  0  0  0  0  0  0  0  0  0  0  0
  1  2  1  0  0  0  0
  2  8  2  0  0  0  0
  2  3  1  0  0  0  0
  3  4  2  0  0  0  0
  4  5  1  0  0  0  0
  4  9  1  0  0  0  0
  5 10  1  0  0  0  0
  6  7  1  0  0  0  0
  6  5  2  0  0  0  0
  8  6  1  0  0  0  0
 11 18  1  0  0  0  0
 12 11  1  0  0  0  0
 12  8  1  0  0  0  0
 13 12  2  0  0  0  0
 14 13  1  0  0  0  0
 15 16  2  0  0  0  0
 15 13  1  0  0  0  0
 16 17  1  0  0  0  0
 17 20  1  0  0  0  0
 17 11  2  0  0  0  0
 18 19  1  0  0  0  0
 20 21  1  0  0  0  0
 22  3  1  0  0  0  0
 22 23  1  0  0  0  0
 23 25  1  0  0  0  0
 24 23  2  0  0  0  0
 25 26  1  0  0  0  0
 25 27  1  0  0  0  0
 27 28  1  0  0  0  0
 28 29  2  0  0  0  0
 28 35  1  0  0  0  0
 29 33  1  0  0  0  0
 30 29  1  0  0  0  0
 31 30  2  0  0  0  0
 32 31  1  0  0  0  0
 32 27  2  0  0  0  0
 34 31  1  0  0  0  0
 35 36  1  0  0  0  0
 37 35  1  0  0  0  0
M  END
>  <minimizedAffinity>
-5.58507872

>  <minimizedRMSD>
1.99065971

$$$$
