
 OpenBabel03242521143D

 30 32  0  0  0  0  0  0  0  0999 V2000
   44.5740   35.7670   44.7280 C   0  0  0  0  0  0  0  0  0  0  0  0
   45.1970   35.7350   43.4520 C   0  0  0  0  0  0  0  0  0  0  0  0
   46.1190   34.7070   43.2220 C   0  0  0  0  0  0  0  0  0  0  0  0
   46.3430   33.8280   44.2300 N   0  0  0  0  0  0  0  0  0  0  0  0
   45.7440   33.8820   45.4180 C   0  0  0  0  0  0  0  0  0  0  0  0
   44.8460   34.8600   45.6820 N   0  0  0  0  0  0  0  0  0  0  0  0
   43.8790   36.5890   44.8220 H   0  0  0  0  0  0  0  0  0  0  0  0
   44.9760   36.4640   42.6900 H   0  0  0  0  0  0  0  0  0  0  0  0
   46.7580   34.6530   41.9480 N   0  0  0  0  0  0  0  0  0  0  0  0
   47.9630   35.2240   41.8240 C   0  0  0  0  0  0  0  0  0  0  0  0
   48.5850   35.1680   40.5770 C   0  0  0  0  0  0  0  0  0  0  0  0
   47.9340   34.5370   39.5550 C   0  0  0  0  0  0  0  0  0  0  0  0
   48.5130   34.4910   38.4100 O   0  0  0  0  0  0  0  0  0  0  0  0
   46.7140   33.9530   39.6630 N   0  0  0  0  0  0  0  0  0  0  0  0
   46.1660   34.0450   40.9050 C   0  0  0  0  0  0  0  0  0  0  0  0
   45.0400   33.5400   41.1200 O   0  0  0  0  0  0  0  0  0  0  0  0
   48.4690   35.7180   42.6310 H   0  0  0  0  0  0  0  0  0  0  0  0
   49.5400   35.5980   40.4010 H   0  0  0  0  0  0  0  0  0  0  0  0
   46.2170   33.4770   38.9020 H   0  0  0  0  0  0  0  0  0  0  0  0
   45.4880   32.8920   47.6820 C   0  0  0  0  0  0  0  0  0  0  0  0
   46.0790   32.8700   46.4140 C   0  0  0  0  0  0  0  0  0  0  0  0
   46.9920   31.9000   46.0650 C   0  0  0  0  0  0  0  0  0  0  0  0
   47.4800   31.8330   45.1010 H   0  0  0  0  0  0  0  0  0  0  0  0
   47.3130   30.9400   47.0040 C   0  0  0  0  0  0  0  0  0  0  0  0
   46.7280   30.9640   48.2540 C   0  0  0  0  0  0  0  0  0  0  0  0
   45.8090   31.9230   48.6350 C   0  0  0  0  0  0  0  0  0  0  0  0
   44.5710   33.9220   47.9370 O   0  0  0  0  0  0  0  0  0  0  0  0
   43.5940   33.7910   47.6520 H   0  0  0  0  0  0  0  0  0  0  0  0
   45.2050   31.9740   49.8820 O   0  0  0  0  0  0  0  0  0  0  0  0
   44.3740   31.3850   50.0060 H   0  0  0  0  0  0  0  0  0  0  0  0
  1  7  1  0  0  0  0
  1  6  1  0  0  0  0
  2  1  2  0  0  0  0
  3  2  1  0  0  0  0
  3  4  2  0  0  0  0
  4  5  1  0  0  0  0
  5  6  2  0  0  0  0
  5 21  1  0  0  0  0
  8  2  1  0  0  0  0
  9  3  1  0  0  0  0
 10  9  1  0  0  0  0
 10 17  1  0  0  0  0
 11 10  2  0  0  0  0
 12 14  1  0  0  0  0
 12 11  1  0  0  0  0
 13 12  2  0  0  0  0
 14 15  1  0  0  0  0
 15 16  2  0  0  0  0
 15  9  1  0  0  0  0
 18 11  1  0  0  0  0
 19 14  1  0  0  0  0
 20 27  1  0  0  0  0
 20 26  1  0  0  0  0
 21 20  2  0  0  0  0
 22 21  1  0  0  0  0
 22 24  2  0  0  0  0
 23 22  1  0  0  0  0
 24 25  1  0  0  0  0
 25 26  2  0  0  0  0
 26 29  1  0  0  0  0
 28 27  1  0  0  0  0
 29 30  1  0  0  0  0
M  END
>  <minimizedAffinity>
-7.98839045

>  <minimizedRMSD>
0.60035634

$$$$
