
 OpenBabel03242510203D

 38 41  0  0  1  0  0  0  0  0999 V2000
   47.2980   32.9230   42.3830 N   0  0  0  0  0  0  0  0  0  0  0  0
   48.5330   33.4980   42.1510 C   0  0  0  0  0  0  0  0  0  0  0  0
   49.4420   33.8430   42.9560 O   0  0  0  0  0  0  0  0  0  0  0  0
   46.4850   33.3370   41.8470 H   0  0  0  0  0  0  0  0  0  0  0  0
   46.0300   32.0240   44.3120 C   0  0  1  0  0  0  0  0  0  0  0  0
   45.7000   31.1920   43.2120 C   0  0  0  0  0  0  0  0  0  0  0  0
   47.0980   31.8350   43.2850 C   0  0  1  0  0  0  0  0  0  0  0  0
   46.2660   31.6190   45.3100 H   0  0  0  0  0  0  0  0  0  0  0  0
   45.1530   31.4550   42.3020 H   0  0  0  0  0  0  0  0  0  0  0  0
   45.6520   30.0890   43.3940 H   0  0  0  0  0  0  0  0  0  0  0  0
   47.8770   31.0460   43.2960 H   0  0  0  0  0  0  0  0  0  0  0  0
   44.8760   34.0760   43.2350 C   0  0  0  0  0  0  0  0  0  0  0  0
   45.3920   33.4110   44.3840 C   0  0  0  0  0  0  0  0  0  0  0  0
   45.3230   34.0650   45.5920 C   0  0  0  0  0  0  0  0  0  0  0  0
   44.7710   35.3030   45.6350 N   0  0  0  0  0  0  0  0  0  0  0  0
   44.2830   35.9290   44.5430 C   0  0  0  0  0  0  0  0  0  0  0  0
   44.3400   35.2890   43.3010 N   0  0  0  0  0  0  0  0  0  0  0  0
   44.9380   33.5520   42.3110 H   0  0  0  0  0  0  0  0  0  0  0  0
   45.6970   33.6110   46.4910 H   0  0  0  0  0  0  0  0  0  0  0  0
   43.8470   36.9140   44.5930 H   0  0  0  0  0  0  0  0  0  0  0  0
   48.9700   33.7990   40.7270 C   0  0  2  0  0  0  0  0  0  0  0  0
   48.5960   35.2020   40.1580 C   0  0  0  0  0  0  0  0  0  0  0  0
   47.9960   33.9290   39.6440 C   0  0  1  0  0  0  0  0  0  0  0  0
   50.0560   33.6360   40.5100 H   0  0  0  0  0  0  0  0  0  0  0  0
   49.3250   35.7200   39.5270 H   0  0  0  0  0  0  0  0  0  0  0  0
   48.0510   35.8690   40.8300 H   0  0  0  0  0  0  0  0  0  0  0  0
   46.9220   33.9710   39.7510 H   0  0  0  0  0  0  0  0  0  0  0  0
   48.1180   33.5780   37.0390 C   0  0  0  0  0  0  0  0  0  0  0  0
   48.3950   33.3130   38.3600 C   0  0  0  0  0  0  0  0  0  0  0  0
   49.2490   32.2320   38.6410 C   0  0  0  0  0  0  0  0  0  0  0  0
   49.5920   31.8580   39.6200 H   0  0  0  0  0  0  0  0  0  0  0  0
   49.7970   31.4540   37.6140 C   0  0  0  0  0  0  0  0  0  0  0  0
   49.4980   31.7480   36.3150 C   0  0  0  0  0  0  0  0  0  0  0  0
   48.6710   32.7960   36.0490 C   0  0  0  0  0  0  0  0  0  0  0  0
   47.2750   34.6540   36.9200 O   0  0  0  0  0  0  0  0  0  0  0  0
   47.0100   35.0430   36.0410 H   0  0  0  0  0  0  0  0  0  0  0  0
   48.3250   33.1530   34.7670 O   0  0  0  0  0  0  0  0  0  0  0  0
   47.3950   33.0550   34.3750 H   0  0  0  0  0  0  0  0  0  0  0  0
  1  7  1  0  0  0  0
  2  1  1  0  0  0  0
  2  3  2  0  0  0  0
  4  1  1  0  0  0  0
  5 13  1  0  0  0  0
  5  8  1  1  0  0  0
  6  7  1  0  0  0  0
  6 10  1  0  0  0  0
  6  5  1  0  0  0  0
  7 11  1  1  0  0  0
  7  5  1  0  0  0  0
  9  6  1  0  0  0  0
 12 17  2  0  0  0  0
 12 13  1  0  0  0  0
 13 14  2  0  0  0  0
 14 15  1  0  0  0  0
 14 19  1  0  0  0  0
 16 20  1  0  0  0  0
 16 15  2  0  0  0  0
 17 16  1  0  0  0  0
 18 12  1  0  0  0  0
 21 24  1  6  0  0  0
 21  2  1  0  0  0  0
 22 21  1  0  0  0  0
 22 26  1  0  0  0  0
 23 27  1  1  0  0  0
 23 22  1  0  0  0  0
 23 21  1  0  0  0  0
 25 22  1  0  0  0  0
 28 29  1  0  0  0  0
 29 30  2  0  0  0  0
 29 23  1  0  0  0  0
 30 31  1  0  0  0  0
 32 30  1  0  0  0  0
 33 32  2  0  0  0  0
 34 33  1  0  0  0  0
 34 28  2  0  0  0  0
 35 28  1  0  0  0  0
 36 35  1  0  0  0  0
 37 34  1  0  0  0  0
 38 37  1  0  0  0  0
M  END
>  <minimizedAffinity>
-5.51338816

>  <minimizedRMSD>
2.32735491

$$$$
