
 OpenBabel03252500513D

 37 39  0  0  0  0  0  0  0  0999 V2000
   44.7750   34.8220   41.9620 C   0  0  0  0  0  0  0  0  0  0  0  0
   45.4670   34.5570   40.9580 O   0  0  0  0  0  0  0  0  0  0  0  0
   45.0150   34.9270   44.3880 C   0  0  0  0  0  0  0  0  0  0  0  0
   45.1270   34.2020   43.2290 C   0  0  0  0  0  0  0  0  0  0  0  0
   45.5780   32.8630   43.2450 C   0  0  0  0  0  0  0  0  0  0  0  0
   45.8910   32.3470   44.4790 N   0  0  0  0  0  0  0  0  0  0  0  0
   45.7790   33.0580   45.5950 C   0  0  0  0  0  0  0  0  0  0  0  0
   45.3450   34.3360   45.5480 N   0  0  0  0  0  0  0  0  0  0  0  0
   44.6830   35.9360   44.4500 H   0  0  0  0  0  0  0  0  0  0  0  0
   45.6730   32.2770   42.3500 H   0  0  0  0  0  0  0  0  0  0  0  0
   46.1220   32.4730   46.8820 C   0  0  0  0  0  0  0  0  0  0  0  0
   47.3140   31.8610   47.1160 C   0  0  0  0  0  0  0  0  0  0  0  0
   47.6510   31.3070   48.3200 C   0  0  0  0  0  0  0  0  0  0  0  0
   46.7330   31.3860   49.3080 N   0  0  0  0  0  0  0  0  0  0  0  0
   45.5670   31.9850   49.0760 C   0  0  0  0  0  0  0  0  0  0  0  0
   45.2120   32.5360   47.9070 N   0  0  0  0  0  0  0  0  0  0  0  0
   48.0520   31.7960   46.3270 H   0  0  0  0  0  0  0  0  0  0  0  0
   48.5940   30.8180   48.5210 H   0  0  0  0  0  0  0  0  0  0  0  0
   44.8140   32.0590   49.8580 H   0  0  0  0  0  0  0  0  0  0  0  0
   43.7920   35.6890   41.5830 O   0  0  0  0  0  0  0  0  0  0  0  0
   42.7130   35.3380   40.8140 C   0  0  0  0  0  0  0  0  0  0  0  0
   42.7540   36.0100   39.9020 H   0  0  0  0  0  0  0  0  0  0  0  0
   42.7030   34.3280   40.3620 H   0  0  0  0  0  0  0  0  0  0  0  0
   41.3640   35.6920   41.4290 C   0  0  0  0  0  0  0  0  0  0  0  0
   41.1220   36.7520   41.3080 H   0  0  0  0  0  0  0  0  0  0  0  0
   41.3690   35.3260   42.4630 H   0  0  0  0  0  0  0  0  0  0  0  0
   39.5710   33.9210   41.2810 C   0  0  0  0  0  0  0  0  0  0  0  0
   40.3420   34.9000   40.6750 C   0  0  0  0  0  0  0  0  0  0  0  0
   40.1280   35.1260   39.3190 C   0  0  0  0  0  0  0  0  0  0  0  0
   40.7420   35.8970   38.8690 H   0  0  0  0  0  0  0  0  0  0  0  0
   39.1970   34.4320   38.5580 C   0  0  0  0  0  3  0  0  0  0  0  0
   38.4440   33.4610   39.2010 C   0  0  0  0  0  3  0  0  0  0  0  0
   38.6320   33.2150   40.5320 C   0  0  0  0  0  0  0  0  0  0  0  0
   39.7380   33.6520   42.6230 O   0  0  0  0  0  0  0  0  0  0  0  0
   39.4320   32.7880   43.0590 H   0  0  0  0  0  0  0  0  0  0  0  0
   37.8370   32.2250   41.0920 O   0  0  0  0  0  0  0  0  0  0  0  0
   36.8790   32.0570   40.7780 H   0  0  0  0  0  0  0  0  0  0  0  0
  1  4  1  0  0  0  0
  2  1  2  0  0  0  0
  3  9  1  0  0  0  0
  3  8  1  0  0  0  0
  4  5  1  0  0  0  0
  4  3  2  0  0  0  0
  5  6  2  0  0  0  0
  6  7  1  0  0  0  0
  7 11  1  0  0  0  0
  8  7  2  0  0  0  0
 10  5  1  0  0  0  0
 11 12  2  0  0  0  0
 11 16  1  0  0  0  0
 12 13  1  0  0  0  0
 13 18  1  0  0  0  0
 13 14  2  0  0  0  0
 15 14  1  0  0  0  0
 15 19  1  0  0  0  0
 16 15  2  0  0  0  0
 17 12  1  0  0  0  0
 20  1  1  0  0  0  0
 21 24  1  0  0  0  0
 21 20  1  0  0  0  0
 22 21  1  0  0  0  0
 23 21  1  0  0  0  0
 24 26  1  0  0  0  0
 25 24  1  0  0  0  0
 27 34  1  0  0  0  0
 28 27  1  0  0  0  0
 28 24  1  0  0  0  0
 29 28  2  0  0  0  0
 30 29  1  0  0  0  0
 31 32  2  0  0  0  0
 31 29  1  0  0  0  0
 32 33  1  0  0  0  0
 33 36  1  0  0  0  0
 33 27  2  0  0  0  0
 34 35  1  0  0  0  0
 37 36  1  0  0  0  0
M  END
>  <minimizedAffinity>
-7.29634428

>  <minimizedRMSD>
1.40670609

$$$$
