
 OpenBabel03242516143D

 43 46  0  0  0  0  0  0  0  0999 V2000
   48.1270   34.6090   41.6900 C   0  0  0  0  0  0  0  0  0  0  0  0
   49.0080   35.8330   41.4410 C   0  0  0  0  0  0  0  0  0  0  0  0
   49.5030   34.6520   42.1620 C   0  0  0  0  0  0  0  0  0  0  0  0
   48.7420   36.7390   42.0060 H   0  0  0  0  0  0  0  0  0  0  0  0
   49.3840   36.0190   40.4430 H   0  0  0  0  0  0  0  0  0  0  0  0
   50.2160   33.9360   41.6500 H   0  0  0  0  0  0  0  0  0  0  0  0
   49.8580   34.8690   43.1830 H   0  0  0  0  0  0  0  0  0  0  0  0
   47.8270   33.8270   40.4440 C   0  0  0  0  0  0  0  0  0  0  0  0
   48.2570   34.4930   39.1530 C   0  0  0  0  0  0  0  0  0  0  0  0
   47.9790   33.4550   38.0620 C   0  0  0  0  0  0  0  0  0  0  0  0
   46.5950   33.4510   37.8630 O   0  0  0  0  0  0  0  0  0  0  0  0
   46.1110   32.7790   39.0160 C   0  0  0  0  0  0  0  0  0  0  0  0
   46.3090   33.6710   40.2390 C   0  0  0  0  0  0  0  0  0  0  0  0
   48.2750   32.8260   40.5200 H   0  0  0  0  0  0  0  0  0  0  0  0
   49.3510   34.6550   39.1030 H   0  0  0  0  0  0  0  0  0  0  0  0
   47.6410   35.3750   38.9670 H   0  0  0  0  0  0  0  0  0  0  0  0
   48.3360   32.4670   38.3470 H   0  0  0  0  0  0  0  0  0  0  0  0
   48.3980   33.8610   37.1100 H   0  0  0  0  0  0  0  0  0  0  0  0
   45.0440   32.5120   38.9290 H   0  0  0  0  0  0  0  0  0  0  0  0
   46.7810   31.8780   39.1250 H   0  0  0  0  0  0  0  0  0  0  0  0
   45.8430   34.6400   40.0670 H   0  0  0  0  0  0  0  0  0  0  0  0
   45.8740   33.1120   41.0850 H   0  0  0  0  0  0  0  0  0  0  0  0
   46.2580   35.9670   42.6470 C   0  0  0  0  0  0  0  0  0  0  0  0
   47.0160   34.8090   42.6640 C   0  0  0  0  0  0  0  0  0  0  0  0
   46.6550   33.8460   43.6150 C   0  0  0  0  0  0  0  0  0  0  0  0
   45.6260   34.0500   44.4530 N   0  0  0  0  0  0  0  0  0  0  0  0
   44.9270   35.2040   44.3820 C   0  0  0  0  0  0  0  0  0  0  0  0
   45.2220   36.1470   43.5070 N   0  0  0  0  0  0  0  0  0  0  0  0
   43.8330   35.4930   45.2310 N   0  0  0  0  0  0  0  0  0  0  0  0
   46.5530   36.7170   41.8940 H   0  0  0  0  0  0  0  0  0  0  0  0
   42.9500   35.0230   44.9220 H   0  0  0  0  0  0  0  0  0  0  0  0
   43.9130   36.1080   46.0720 H   0  0  0  0  0  0  0  0  0  0  0  0
   46.8030   31.8730   44.9870 C   0  0  0  0  0  0  0  0  0  0  0  0
   47.2400   32.5440   43.8330 C   0  0  0  0  0  0  0  0  0  0  0  0
   48.2240   31.8890   43.1300 C   0  0  0  0  0  0  0  0  0  0  0  0
   48.5960   32.3770   42.2600 H   0  0  0  0  0  0  0  0  0  0  0  0
   48.7790   30.6900   43.4520 C   0  0  0  0  0  0  0  0  0  0  0  0
   48.3600   30.0350   44.5680 C   0  0  0  0  0  0  0  0  0  0  0  0
   47.3640   30.6380   45.3350 C   0  0  0  0  0  0  0  0  0  0  0  0
   45.8110   32.4140   45.7930 O   0  0  0  0  0  0  0  0  0  0  0  0
   46.0660   32.9120   46.6220 H   0  0  0  0  0  0  0  0  0  0  0  0
   46.8990   30.0040   46.4910 O   0  0  0  0  0  0  0  0  0  0  0  0
   46.2350   29.2290   46.3320 H   0  0  0  0  0  0  0  0  0  0  0  0
  1  3  1  0  0  0  0
  1 24  1  0  0  0  0
  2  1  1  0  0  0  0
  2  4  1  0  0  0  0
  2  3  1  0  0  0  0
  3  7  1  0  0  0  0
  5  2  1  0  0  0  0
  6  3  1  0  0  0  0
  8 14  1  0  0  0  0
  8  1  1  0  0  0  0
  9  8  1  0  0  0  0
 10 17  1  0  0  0  0
 10  9  1  0  0  0  0
 11 10  1  0  0  0  0
 11 12  1  0  0  0  0
 12 20  1  0  0  0  0
 12 13  1  0  0  0  0
 13  8  1  0  0  0  0
 13 22  1  0  0  0  0
 15  9  1  0  0  0  0
 16  9  1  0  0  0  0
 18 10  1  0  0  0  0
 19 12  1  0  0  0  0
 21 13  1  0  0  0  0
 23 24  2  0  0  0  0
 23 28  1  0  0  0  0
 24 25  1  0  0  0  0
 25 34  1  0  0  0  0
 25 26  2  0  0  0  0
 27 26  1  0  0  0  0
 27 29  1  0  0  0  0
 28 27  2  0  0  0  0
 29 32  1  0  0  0  0
 30 23  1  0  0  0  0
 31 29  1  0  0  0  0
 33 39  1  0  0  0  0
 33 40  1  0  0  0  0
 34 33  2  0  0  0  0
 35 37  2  0  0  0  0
 35 34  1  0  0  0  0
 36 35  1  0  0  0  0
 37 38  1  0  0  0  0
 38 39  2  0  0  0  0
 39 42  1  0  0  0  0
 40 41  1  0  0  0  0
 43 42  1  0  0  0  0
M  END
>  <minimizedAffinity>
-6.22571611

>  <minimizedRMSD>
0.627482831

$$$$
