
 OpenBabel03252506323D

 34 36  0  0  1  0  0  0  0  0999 V2000
   42.4710   29.9230   43.3420 C   0  0  0  0  0  0  0  0  0  0  0  0
   41.8520   31.1080   42.8870 C   0  0  0  0  0  0  0  0  0  0  0  0
   40.5250   31.0570   42.4650 C   0  0  0  0  0  0  0  0  0  0  0  0
   39.9130   29.8540   42.5210 N   0  0  0  0  0  0  0  0  0  0  0  0
   40.5140   28.7450   42.9530 C   0  0  0  0  0  0  0  0  0  0  0  0
   41.7910   28.7560   43.3680 N   0  0  0  0  0  0  0  0  0  0  0  0
   39.7540   27.5400   42.9500 N   0  0  0  0  0  0  0  0  0  0  0  0
   40.1340   26.3210   43.6790 C   0  0  0  0  0  0  0  0  0  0  0  0
   39.7080   25.2520   42.7080 C   0  0  0  0  0  0  0  0  0  0  0  0
   38.8530   25.9100   41.6610 C   0  0  0  0  0  0  0  0  0  0  0  0
   38.5280   27.2240   42.2940 C   0  0  2  0  0  0  0  0  0  0  0  0
   43.5110   29.9520   43.6760 H   0  0  0  0  0  0  0  0  0  0  0  0
   40.0840   31.9830   42.1230 H   0  0  0  0  0  0  0  0  0  0  0  0
   41.2050   26.2880   43.9130 H   0  0  0  0  0  0  0  0  0  0  0  0
   39.4620   26.2800   44.5530 H   0  0  0  0  0  0  0  0  0  0  0  0
   40.6340   24.7980   42.3030 H   0  0  0  0  0  0  0  0  0  0  0  0
   39.1270   24.4490   43.2020 H   0  0  0  0  0  0  0  0  0  0  0  0
   37.9470   25.3270   41.4140 H   0  0  0  0  0  0  0  0  0  0  0  0
   39.4890   26.0190   40.7430 H   0  0  0  0  0  0  0  0  0  0  0  0
   37.7980   26.9700   43.1290 H   0  0  0  0  0  0  0  0  0  0  0  0
   37.0840   29.1820   41.8380 C   0  0  0  0  0  0  0  0  0  0  0  0
   37.9680   28.2000   41.3740 C   0  0  0  0  0  0  0  0  0  0  0  0
   38.1830   28.2720   40.0280 C   0  0  0  0  0  0  0  0  0  0  0  0
   38.8420   27.5460   39.5680 H   0  0  0  0  0  0  0  0  0  0  0  0
   37.6320   29.1760   39.1570 C   0  0  0  0  0  3  0  0  0  0  0  0
   36.7670   30.1210   39.6700 C   0  0  0  0  0  3  0  0  0  0  0  0
   36.4890   30.1270   41.0150 C   0  0  0  0  0  0  0  0  0  0  0  0
   36.7620   29.2430   43.1860 O   0  0  0  0  0  0  0  0  0  0  0  0
   37.4100   29.6390   43.8750 H   0  0  0  0  0  0  0  0  0  0  0  0
   35.6170   31.0750   41.5550 O   0  0  0  0  0  0  0  0  0  0  0  0
   35.4870   31.9580   41.0820 H   0  0  0  0  0  0  0  0  0  0  0  0
   42.6630   32.2840   42.9000 N   0  0  0  0  0  0  0  0  0  0  0  0
   43.6670   32.2140   42.7140 H   0  0  0  0  0  0  0  0  0  0  0  0
   42.1980   33.2040   43.1030 H   0  0  0  0  0  0  0  0  0  0  0  0
  1  6  1  0  0  0  0
  1 12  1  0  0  0  0
  2 32  1  0  0  0  0
  2  1  2  0  0  0  0
  3  4  2  0  0  0  0
  3  2  1  0  0  0  0
  4  5  1  0  0  0  0
  5  6  2  0  0  0  0
  7  5  1  0  0  0  0
  7  8  1  0  0  0  0
  8 14  1  0  0  0  0
  8 15  1  0  0  0  0
  9 17  1  0  0  0  0
  9  8  1  0  0  0  0
 10 11  1  0  0  0  0
 10  9  1  0  0  0  0
 11  7  1  0  0  0  0
 11 20  1  1  0  0  0
 13  3  1  0  0  0  0
 16  9  1  0  0  0  0
 18 10  1  0  0  0  0
 19 10  1  0  0  0  0
 21 28  1  0  0  0  0
 22 21  1  0  0  0  0
 22 11  1  0  0  0  0
 23 22  2  0  0  0  0
 24 23  1  0  0  0  0
 25 26  2  0  0  0  0
 25 23  1  0  0  0  0
 26 27  1  0  0  0  0
 27 30  1  0  0  0  0
 27 21  2  0  0  0  0
 28 29  1  0  0  0  0
 31 30  1  0  0  0  0
 32 34  1  0  0  0  0
 33 32  1  0  0  0  0
M  END
>  <minimizedAffinity>
-6.1532197

$$$$

 OpenBabel03252506323D

 34 36  0  0  1  0  0  0  0  0999 V2000
   37.1710   27.1740   41.6050 C   0  0  0  0  0  0  0  0  0  0  0  0
   37.9580   27.9310   42.5020 C   0  0  0  0  0  0  0  0  0  0  0  0
   38.2440   29.2590   42.1920 C   0  0  0  0  0  0  0  0  0  0  0  0
   37.7400   29.7390   41.0340 N   0  0  0  0  0  0  0  0  0  0  0  0
   36.9990   29.0090   40.2000 C   0  0  0  0  0  0  0  0  0  0  0  0
   36.7030   27.7270   40.4650 N   0  0  0  0  0  0  0  0  0  0  0  0
   36.5410   29.6370   39.0070 N   0  0  0  0  0  0  0  0  0  0  0  0
   35.4680   29.1050   38.1520 C   0  0  0  0  0  0  0  0  0  0  0  0
   35.9860   29.4500   36.7810 C   0  0  0  0  0  0  0  0  0  0  0  0
   37.1330   30.4060   36.9590 C   0  0  0  0  0  0  0  0  0  0  0  0
   36.9630   30.8460   38.3790 C   0  0  2  0  0  0  0  0  0  0  0  0
   36.9400   26.1330   41.8370 H   0  0  0  0  0  0  0  0  0  0  0  0
   38.8490   29.8070   42.9010 H   0  0  0  0  0  0  0  0  0  0  0  0
   35.3110   28.0300   38.2950 H   0  0  0  0  0  0  0  0  0  0  0  0
   34.5880   29.7380   38.3570 H   0  0  0  0  0  0  0  0  0  0  0  0
   36.2760   28.4960   36.2970 H   0  0  0  0  0  0  0  0  0  0  0  0
   35.2090   29.9260   36.1510 H   0  0  0  0  0  0  0  0  0  0  0  0
   37.1030   31.2540   36.2510 H   0  0  0  0  0  0  0  0  0  0  0  0
   38.0740   29.8170   36.8000 H   0  0  0  0  0  0  0  0  0  0  0  0
   36.0430   31.5150   38.3650 H   0  0  0  0  0  0  0  0  0  0  0  0
   37.9590   32.4830   39.9450 C   0  0  0  0  0  0  0  0  0  0  0  0
   38.1190   31.5370   38.9240 C   0  0  0  0  0  0  0  0  0  0  0  0
   39.4180   31.3980   38.5280 C   0  0  0  0  0  0  0  0  0  0  0  0
   39.6440   30.6990   37.7310 H   0  0  0  0  0  0  0  0  0  0  0  0
   40.5030   32.0710   39.0240 C   0  0  0  0  0  3  0  0  0  0  0  0
   40.2860   32.9920   40.0290 C   0  0  0  0  0  3  0  0  0  0  0  0
   39.0110   33.2010   40.4940 C   0  0  0  0  0  0  0  0  0  0  0  0
   36.6960   32.7400   40.4580 O   0  0  0  0  0  0  0  0  0  0  0  0
   36.2430   32.0970   41.1160 H   0  0  0  0  0  0  0  0  0  0  0  0
   38.7690   34.1280   41.5110 O   0  0  0  0  0  0  0  0  0  0  0  0
   39.5090   34.3610   42.1570 H   0  0  0  0  0  0  0  0  0  0  0  0
   38.4010   27.2480   43.6750 N   0  0  0  0  0  0  0  0  0  0  0  0
   38.6210   26.2500   43.6330 H   0  0  0  0  0  0  0  0  0  0  0  0
   38.4920   27.8010   44.5650 H   0  0  0  0  0  0  0  0  0  0  0  0
  1 12  1  0  0  0  0
  1  2  1  0  0  0  0
  2 32  1  0  0  0  0
  3  2  2  0  0  0  0
  3 13  1  0  0  0  0
  4  3  1  0  0  0  0
  5  6  1  0  0  0  0
  5  4  2  0  0  0  0
  6  1  2  0  0  0  0
  7  5  1  0  0  0  0
  8 14  1  0  0  0  0
  8 15  1  0  0  0  0
  8  7  1  0  0  0  0
  9 10  1  0  0  0  0
  9  8  1  0  0  0  0
 10 11  1  0  0  0  0
 11 20  1  1  0  0  0
 11 22  1  0  0  0  0
 11  7  1  0  0  0  0
 16  9  1  0  0  0  0
 17  9  1  0  0  0  0
 18 10  1  0  0  0  0
 19 10  1  0  0  0  0
 21 28  1  0  0  0  0
 21 27  1  0  0  0  0
 22 21  2  0  0  0  0
 23 22  1  0  0  0  0
 23 25  2  0  0  0  0
 24 23  1  0  0  0  0
 25 26  1  0  0  0  0
 26 27  2  0  0  0  0
 27 30  1  0  0  0  0
 28 29  1  0  0  0  0
 30 31  1  0  0  0  0
 32 34  1  0  0  0  0
 33 32  1  0  0  0  0
M  END
>  <minimizedAffinity>
-6.01945543

$$$$

 OpenBabel03252506323D

 34 36  0  0  1  0  0  0  0  0999 V2000
   41.9930   28.0600   40.6570 C   0  0  0  0  0  0  0  0  0  0  0  0
   41.5150   29.3000   40.1780 C   0  0  0  0  0  0  0  0  0  0  0  0
   40.1660   29.6080   40.3330 C   0  0  0  0  0  0  0  0  0  0  0  0
   39.3930   28.6820   40.9420 N   0  0  0  0  0  0  0  0  0  0  0  0
   39.8620   27.5170   41.3890 C   0  0  0  0  0  0  0  0  0  0  0  0
   41.1570   27.1850   41.2570 N   0  0  0  0  0  0  0  0  0  0  0  0
   38.9360   26.6270   42.0040 N   0  0  0  0  0  0  0  0  0  0  0  0
   39.3220   25.4710   42.8280 C   0  0  0  0  0  0  0  0  0  0  0  0
   38.2810   24.4610   42.4240 C   0  0  0  0  0  0  0  0  0  0  0  0
   37.2160   25.1930   41.6540 C   0  0  0  0  0  0  0  0  0  0  0  0
   37.5100   26.6210   41.9860 C   0  0  2  0  0  0  0  0  0  0  0  0
   43.0490   27.8080   40.5420 H   0  0  0  0  0  0  0  0  0  0  0  0
   39.8360   30.5650   39.9530 H   0  0  0  0  0  0  0  0  0  0  0  0
   40.3460   25.1370   42.6280 H   0  0  0  0  0  0  0  0  0  0  0  0
   39.1220   25.7730   43.8700 H   0  0  0  0  0  0  0  0  0  0  0  0
   38.8010   23.6830   41.8290 H   0  0  0  0  0  0  0  0  0  0  0  0
   37.8210   23.9640   43.3000 H   0  0  0  0  0  0  0  0  0  0  0  0
   36.1920   24.8970   41.9440 H   0  0  0  0  0  0  0  0  0  0  0  0
   37.3810   24.9600   40.5690 H   0  0  0  0  0  0  0  0  0  0  0  0
   37.1950   26.7360   43.0730 H   0  0  0  0  0  0  0  0  0  0  0  0
   36.5190   28.8580   41.6060 C   0  0  0  0  0  0  0  0  0  0  0  0
   36.8290   27.5780   41.1280 C   0  0  0  0  0  0  0  0  0  0  0  0
   36.4010   27.3700   39.8490 C   0  0  0  0  0  0  0  0  0  0  0  0
   36.5810   26.4030   39.3930 H   0  0  0  0  0  0  0  0  0  0  0  0
   35.7340   28.2630   39.0520 C   0  0  0  0  0  3  0  0  0  0  0  0
   35.4550   29.5090   39.5740 C   0  0  0  0  0  3  0  0  0  0  0  0
   35.8470   29.8120   40.8560 C   0  0  0  0  0  0  0  0  0  0  0  0
   36.8880   29.2250   42.8920 O   0  0  0  0  0  0  0  0  0  0  0  0
   37.8540   29.4800   43.1200 H   0  0  0  0  0  0  0  0  0  0  0  0
   35.5740   31.0670   41.4040 O   0  0  0  0  0  0  0  0  0  0  0  0
   35.4470   31.8600   40.7920 H   0  0  0  0  0  0  0  0  0  0  0  0
   42.4840   30.1480   39.5590 N   0  0  0  0  0  0  0  0  0  0  0  0
   43.2550   29.7380   39.0250 H   0  0  0  0  0  0  0  0  0  0  0  0
   42.3760   31.1870   39.6710 H   0  0  0  0  0  0  0  0  0  0  0  0
  1  6  1  0  0  0  0
  2  3  1  0  0  0  0
  2  1  2  0  0  0  0
  3  4  2  0  0  0  0
  4  5  1  0  0  0  0
  5  7  1  0  0  0  0
  6  5  2  0  0  0  0
  7  8  1  0  0  0  0
  8 15  1  0  0  0  0
  9  8  1  0  0  0  0
  9 17  1  0  0  0  0
 10 18  1  0  0  0  0
 10 11  1  0  0  0  0
 10  9  1  0  0  0  0
 11  7  1  0  0  0  0
 11 20  1  1  0  0  0
 12  1  1  0  0  0  0
 13  3  1  0  0  0  0
 14  8  1  0  0  0  0
 16  9  1  0  0  0  0
 19 10  1  0  0  0  0
 21 28  1  0  0  0  0
 22 21  1  0  0  0  0
 22 11  1  0  0  0  0
 23 22  2  0  0  0  0
 24 23  1  0  0  0  0
 25 26  2  0  0  0  0
 25 23  1  0  0  0  0
 26 27  1  0  0  0  0
 27 30  1  0  0  0  0
 27 21  2  0  0  0  0
 28 29  1  0  0  0  0
 31 30  1  0  0  0  0
 32 34  1  0  0  0  0
 32  2  1  0  0  0  0
 33 32  1  0  0  0  0
M  END
>  <minimizedAffinity>
-5.87566853

$$$$

 OpenBabel03252506323D

 34 36  0  0  1  0  0  0  0  0999 V2000
   43.8090   32.8850   38.9560 C   0  0  0  0  0  0  0  0  0  0  0  0
   42.9120   33.5320   38.0790 C   0  0  0  0  0  0  0  0  0  0  0  0
   41.5510   33.5260   38.3800 C   0  0  0  0  0  0  0  0  0  0  0  0
   41.1790   32.8900   39.5120 N   0  0  0  0  0  0  0  0  0  0  0  0
   42.0410   32.2840   40.3290 C   0  0  0  0  0  0  0  0  0  0  0  0
   43.3590   32.2690   40.0710 N   0  0  0  0  0  0  0  0  0  0  0  0
   41.5130   31.6410   41.4840 N   0  0  0  0  0  0  0  0  0  0  0  0
   42.3210   31.2170   42.6390 C   0  0  0  0  0  0  0  0  0  0  0  0
   41.6510   29.9210   43.0070 C   0  0  0  0  0  0  0  0  0  0  0  0
   40.3500   29.8550   42.2560 C   0  0  0  0  0  0  0  0  0  0  0  0
   40.1740   31.2690   41.8030 C   0  0  2  0  0  0  0  0  0  0  0  0
   44.8780   32.8840   38.7310 H   0  0  0  0  0  0  0  0  0  0  0  0
   40.8940   34.0300   37.6850 H   0  0  0  0  0  0  0  0  0  0  0  0
   43.3820   31.0980   42.3870 H   0  0  0  0  0  0  0  0  0  0  0  0
   42.1090   31.9530   43.4320 H   0  0  0  0  0  0  0  0  0  0  0  0
   42.3570   29.1070   42.7430 H   0  0  0  0  0  0  0  0  0  0  0  0
   41.4480   29.8510   44.0930 H   0  0  0  0  0  0  0  0  0  0  0  0
   39.5080   29.5060   42.8790 H   0  0  0  0  0  0  0  0  0  0  0  0
   40.5040   29.1450   41.4010 H   0  0  0  0  0  0  0  0  0  0  0  0
   39.9180   31.8460   42.7490 H   0  0  0  0  0  0  0  0  0  0  0  0
   38.4850   32.6620   40.6470 C   0  0  0  0  0  0  0  0  0  0  0  0
   39.1520   31.4380   40.7820 C   0  0  0  0  0  0  0  0  0  0  0  0
   38.7100   30.4930   39.9020 C   0  0  0  0  0  0  0  0  0  0  0  0
   39.1550   29.5050   39.9360 H   0  0  0  0  0  0  0  0  0  0  0  0
   37.7270   30.6450   38.9600 C   0  0  0  0  0  3  0  0  0  0  0  0
   37.1040   31.8730   38.8720 C   0  0  0  0  0  3  0  0  0  0  0  0
   37.4810   32.8880   39.7170 C   0  0  0  0  0  0  0  0  0  0  0  0
   38.8190   33.7270   41.4710 O   0  0  0  0  0  0  0  0  0  0  0  0
   39.6660   34.2820   41.3120 H   0  0  0  0  0  0  0  0  0  0  0  0
   36.8630   34.1380   39.6450 O   0  0  0  0  0  0  0  0  0  0  0  0
   36.4370   34.4330   38.7780 H   0  0  0  0  0  0  0  0  0  0  0  0
   43.4940   34.1490   36.9300 N   0  0  0  0  0  0  0  0  0  0  0  0
   44.3170   33.7320   36.4870 H   0  0  0  0  0  0  0  0  0  0  0  0
   43.0530   35.0310   36.5640 H   0  0  0  0  0  0  0  0  0  0  0  0
  1  6  1  0  0  0  0
  2  3  1  0  0  0  0
  2  1  2  0  0  0  0
  3  4  2  0  0  0  0
  4  5  1  0  0  0  0
  5  7  1  0  0  0  0
  6  5  2  0  0  0  0
  7 11  1  0  0  0  0
  7  8  1  0  0  0  0
  8  9  1  0  0  0  0
  8 15  1  0  0  0  0
  9 17  1  0  0  0  0
 10 18  1  0  0  0  0
 10  9  1  0  0  0  0
 11 10  1  0  0  0  0
 11 20  1  1  0  0  0
 12  1  1  0  0  0  0
 13  3  1  0  0  0  0
 14  8  1  0  0  0  0
 16  9  1  0  0  0  0
 19 10  1  0  0  0  0
 21 22  1  0  0  0  0
 21 28  1  0  0  0  0
 22 11  1  0  0  0  0
 23 24  1  0  0  0  0
 23 22  2  0  0  0  0
 25 23  1  0  0  0  0
 26 25  2  0  0  0  0
 26 27  1  0  0  0  0
 27 21  2  0  0  0  0
 29 28  1  0  0  0  0
 30 27  1  0  0  0  0
 31 30  1  0  0  0  0
 32  2  1  0  0  0  0
 33 32  1  0  0  0  0
 34 32  1  0  0  0  0
M  END
>  <minimizedAffinity>
-5.82683039

$$$$

 OpenBabel03252506323D

 34 36  0  0  1  0  0  0  0  0999 V2000
   39.9620   31.5280   39.1440 C   0  0  0  0  0  0  0  0  0  0  0  0
   39.1950   31.5540   37.9570 C   0  0  0  0  0  0  0  0  0  0  0  0
   37.9870   30.8610   37.9200 C   0  0  0  0  0  0  0  0  0  0  0  0
   37.6260   30.2010   39.0420 N   0  0  0  0  0  0  0  0  0  0  0  0
   38.3630   30.1880   40.1530 C   0  0  0  0  0  0  0  0  0  0  0  0
   39.5330   30.8440   40.2260 N   0  0  0  0  0  0  0  0  0  0  0  0
   37.8700   29.4420   41.2610 N   0  0  0  0  0  0  0  0  0  0  0  0
   38.3700   29.5780   42.6390 C   0  0  0  0  0  0  0  0  0  0  0  0
   38.3210   28.1500   43.1120 C   0  0  0  0  0  0  0  0  0  0  0  0
   37.5230   27.3680   42.1050 C   0  0  0  0  0  0  0  0  0  0  0  0
   36.8480   28.4500   41.3240 C   0  0  2  0  0  0  0  0  0  0  0  0
   40.9100   32.0680   39.1850 H   0  0  0  0  0  0  0  0  0  0  0  0
   37.4280   30.9030   36.9960 H   0  0  0  0  0  0  0  0  0  0  0  0
   39.3760   30.0110   42.6790 H   0  0  0  0  0  0  0  0  0  0  0  0
   37.5930   30.1470   43.1780 H   0  0  0  0  0  0  0  0  0  0  0  0
   39.3700   27.8070   43.2080 H   0  0  0  0  0  0  0  0  0  0  0  0
   37.8430   28.0570   44.1060 H   0  0  0  0  0  0  0  0  0  0  0  0
   36.8010   26.6730   42.5710 H   0  0  0  0  0  0  0  0  0  0  0  0
   38.2590   26.7860   41.4890 H   0  0  0  0  0  0  0  0  0  0  0  0
   36.0640   28.8700   42.0330 H   0  0  0  0  0  0  0  0  0  0  0  0
   35.0880   28.6000   39.5910 C   0  0  0  0  0  0  0  0  0  0  0  0
   36.2530   27.9940   40.0790 C   0  0  0  0  0  0  0  0  0  0  0  0
   36.6920   26.9720   39.2880 C   0  0  0  0  0  0  0  0  0  0  0  0
   37.5810   26.4300   39.5880 H   0  0  0  0  0  0  0  0  0  0  0  0
   36.1140   26.5260   38.1290 C   0  0  0  0  0  3  0  0  0  0  0  0
   34.9670   27.1600   37.6950 C   0  0  0  0  0  3  0  0  0  0  0  0
   34.4490   28.2010   38.4260 C   0  0  0  0  0  0  0  0  0  0  0  0
   34.5140   29.6560   40.2830 O   0  0  0  0  0  0  0  0  0  0  0  0
   34.9070   30.6020   40.2390 H   0  0  0  0  0  0  0  0  0  0  0  0
   33.2890   28.8560   38.0050 O   0  0  0  0  0  0  0  0  0  0  0  0
   33.0420   28.8490   37.0260 H   0  0  0  0  0  0  0  0  0  0  0  0
   39.7430   32.3060   36.8740 N   0  0  0  0  0  0  0  0  0  0  0  0
   40.7570   32.3490   36.7420 H   0  0  0  0  0  0  0  0  0  0  0  0
   39.0770   32.8030   36.2300 H   0  0  0  0  0  0  0  0  0  0  0  0
  1 12  1  0  0  0  0
  1  6  1  0  0  0  0
  2  1  2  0  0  0  0
  3  2  1  0  0  0  0
  3  4  2  0  0  0  0
  4  5  1  0  0  0  0
  5  6  2  0  0  0  0
  5  7  1  0  0  0  0
  7 11  1  0  0  0  0
  7  8  1  0  0  0  0
  8 14  1  0  0  0  0
  8  9  1  0  0  0  0
  8 15  1  0  0  0  0
  9 16  1  0  0  0  0
  9 17  1  0  0  0  0
 10 18  1  0  0  0  0
 10  9  1  0  0  0  0
 11 20  1  1  0  0  0
 11 10  1  0  0  0  0
 13  3  1  0  0  0  0
 19 10  1  0  0  0  0
 21 22  1  0  0  0  0
 21 28  1  0  0  0  0
 22 11  1  0  0  0  0
 23 24  1  0  0  0  0
 23 22  2  0  0  0  0
 25 23  1  0  0  0  0
 26 25  2  0  0  0  0
 26 27  1  0  0  0  0
 27 21  2  0  0  0  0
 29 28  1  0  0  0  0
 30 27  1  0  0  0  0
 31 30  1  0  0  0  0
 32  2  1  0  0  0  0
 33 32  1  0  0  0  0
 34 32  1  0  0  0  0
M  END
>  <minimizedAffinity>
-5.79434586

$$$$

 OpenBabel03252506323D

 34 36  0  0  1  0  0  0  0  0999 V2000
   37.5990   33.1400   39.5510 C   0  0  0  0  0  0  0  0  0  0  0  0
   38.3920   32.9650   40.7060 C   0  0  0  0  0  0  0  0  0  0  0  0
   38.6520   31.6730   41.1560 C   0  0  0  0  0  0  0  0  0  0  0  0
   38.1150   30.6580   40.4430 N   0  0  0  0  0  0  0  0  0  0  0  0
   37.3680   30.8430   39.3550 C   0  0  0  0  0  0  0  0  0  0  0  0
   37.0970   32.0740   38.8910 N   0  0  0  0  0  0  0  0  0  0  0  0
   36.8550   29.6840   38.7040 N   0  0  0  0  0  0  0  0  0  0  0  0
   36.3010   29.6780   37.3410 C   0  0  0  0  0  0  0  0  0  0  0  0
   35.1630   28.7040   37.4910 C   0  0  0  0  0  0  0  0  0  0  0  0
   35.3370   28.0050   38.8110 C   0  0  0  0  0  0  0  0  0  0  0  0
   36.7520   28.3380   39.1620 C   0  0  2  0  0  0  0  0  0  0  0  0
   37.3890   34.1490   39.1880 H   0  0  0  0  0  0  0  0  0  0  0  0
   39.2630   31.5770   42.0430 H   0  0  0  0  0  0  0  0  0  0  0  0
   35.9770   30.6730   37.0150 H   0  0  0  0  0  0  0  0  0  0  0  0
   37.0760   29.2090   36.7110 H   0  0  0  0  0  0  0  0  0  0  0  0
   34.2260   29.2920   37.4210 H   0  0  0  0  0  0  0  0  0  0  0  0
   35.1500   27.9520   36.6790 H   0  0  0  0  0  0  0  0  0  0  0  0
   35.1650   26.9160   38.7490 H   0  0  0  0  0  0  0  0  0  0  0  0
   34.5980   28.4620   39.5200 H   0  0  0  0  0  0  0  0  0  0  0  0
   37.3800   27.7250   38.4390 H   0  0  0  0  0  0  0  0  0  0  0  0
   38.4090   27.6950   40.8840 C   0  0  0  0  0  0  0  0  0  0  0  0
   37.0980   28.0530   40.5450 C   0  0  0  0  0  0  0  0  0  0  0  0
   36.2550   28.0610   41.6180 C   0  0  0  0  0  0  0  0  0  0  0  0
   35.2130   28.3120   41.4570 H   0  0  0  0  0  0  0  0  0  0  0  0
   36.5780   27.7650   42.9160 C   0  0  0  0  0  3  0  0  0  0  0  0
   37.8840   27.4190   43.1930 C   0  0  0  0  0  3  0  0  0  0  0  0
   38.8070   27.3820   42.1760 C   0  0  0  0  0  0  0  0  0  0  0  0
   39.3880   27.6400   39.9030 O   0  0  0  0  0  0  0  0  0  0  0  0
   39.8210   28.4900   39.5290 H   0  0  0  0  0  0  0  0  0  0  0  0
   40.1350   27.0350   42.4340 O   0  0  0  0  0  0  0  0  0  0  0  0
   40.5150   27.1770   43.3590 H   0  0  0  0  0  0  0  0  0  0  0  0
   38.8700   34.1600   41.3250 N   0  0  0  0  0  0  0  0  0  0  0  0
   38.2960   35.0070   41.3120 H   0  0  0  0  0  0  0  0  0  0  0  0
   39.8140   34.1360   41.7860 H   0  0  0  0  0  0  0  0  0  0  0  0
  1  2  1  0  0  0  0
  2  3  2  0  0  0  0
  2 32  1  0  0  0  0
  3 13  1  0  0  0  0
  4  3  1  0  0  0  0
  5  4  2  0  0  0  0
  6  5  1  0  0  0  0
  6  1  2  0  0  0  0
  7 11  1  0  0  0  0
  7  5  1  0  0  0  0
  8  9  1  0  0  0  0
  8  7  1  0  0  0  0
  9 10  1  0  0  0  0
 10 11  1  0  0  0  0
 10 19  1  0  0  0  0
 11 20  1  6  0  0  0
 11 22  1  0  0  0  0
 12  1  1  0  0  0  0
 14  8  1  0  0  0  0
 15  8  1  0  0  0  0
 16  9  1  0  0  0  0
 17  9  1  0  0  0  0
 18 10  1  0  0  0  0
 21 27  1  0  0  0  0
 22 21  2  0  0  0  0
 22 23  1  0  0  0  0
 23 25  2  0  0  0  0
 24 23  1  0  0  0  0
 25 26  1  0  0  0  0
 27 30  1  0  0  0  0
 27 26  2  0  0  0  0
 28 21  1  0  0  0  0
 29 28  1  0  0  0  0
 30 31  1  0  0  0  0
 32 34  1  0  0  0  0
 33 32  1  0  0  0  0
M  END
>  <minimizedAffinity>
-5.78819323

$$$$

 OpenBabel03252506323D

 34 36  0  0  1  0  0  0  0  0999 V2000
   38.0750   29.2600   37.1310 C   0  0  0  0  0  0  0  0  0  0  0  0
   37.4370   28.1110   37.6500 C   0  0  0  0  0  0  0  0  0  0  0  0
   37.2860   27.9890   39.0290 C   0  0  0  0  0  0  0  0  0  0  0  0
   37.7690   28.9960   39.7890 N   0  0  0  0  0  0  0  0  0  0  0  0
   38.3690   30.0730   39.2810 C   0  0  0  0  0  0  0  0  0  0  0  0
   38.5330   30.2260   37.9570 N   0  0  0  0  0  0  0  0  0  0  0  0
   38.8430   31.0560   40.1960 N   0  0  0  0  0  0  0  0  0  0  0  0
   39.2240   32.4250   39.8160 C   0  0  0  0  0  0  0  0  0  0  0  0
   40.4090   32.6610   40.7150 C   0  0  0  0  0  0  0  0  0  0  0  0
   40.4260   31.5580   41.7370 C   0  0  0  0  0  0  0  0  0  0  0  0
   39.0540   30.9800   41.6040 C   0  0  2  0  0  0  0  0  0  0  0  0
   38.1990   29.3660   36.0510 H   0  0  0  0  0  0  0  0  0  0  0  0
   36.7930   27.0970   39.3900 H   0  0  0  0  0  0  0  0  0  0  0  0
   39.4670   32.5130   38.7510 H   0  0  0  0  0  0  0  0  0  0  0  0
   38.3970   33.0680   40.1620 H   0  0  0  0  0  0  0  0  0  0  0  0
   41.3070   32.6750   40.0640 H   0  0  0  0  0  0  0  0  0  0  0  0
   40.3510   33.6370   41.2320 H   0  0  0  0  0  0  0  0  0  0  0  0
   40.6320   31.9210   42.7600 H   0  0  0  0  0  0  0  0  0  0  0  0
   41.2290   30.8390   41.4260 H   0  0  0  0  0  0  0  0  0  0  0  0
   38.3650   31.7660   42.0550 H   0  0  0  0  0  0  0  0  0  0  0  0
   37.6220   29.2580   42.6590 C   0  0  0  0  0  0  0  0  0  0  0  0
   38.8920   29.6910   42.2560 C   0  0  0  0  0  0  0  0  0  0  0  0
   39.8800   28.8040   42.5720 C   0  0  0  0  0  0  0  0  0  0  0  0
   40.9020   29.0540   42.3140 H   0  0  0  0  0  0  0  0  0  0  0  0
   39.7290   27.6010   43.2110 C   0  0  0  0  0  3  0  0  0  0  0  0
   38.4550   27.2260   43.5850 C   0  0  0  0  0  3  0  0  0  0  0  0
   37.3950   28.0550   43.3100 C   0  0  0  0  0  0  0  0  0  0  0  0
   36.5100   30.0500   42.4100 O   0  0  0  0  0  0  0  0  0  0  0  0
   36.0890   30.1040   41.4770 H   0  0  0  0  0  0  0  0  0  0  0  0
   36.0970   27.6950   43.6800 O   0  0  0  0  0  0  0  0  0  0  0  0
   35.8650   26.7180   43.7920 H   0  0  0  0  0  0  0  0  0  0  0  0
   36.9940   27.1530   36.6880 N   0  0  0  0  0  0  0  0  0  0  0  0
   37.5290   27.0070   35.8280 H   0  0  0  0  0  0  0  0  0  0  0  0
   36.1160   26.6140   36.8950 H   0  0  0  0  0  0  0  0  0  0  0  0
  1  2  2  0  0  0  0
  1  6  1  0  0  0  0
  2  3  1  0  0  0  0
  3 13  1  0  0  0  0
  3  4  2  0  0  0  0
  5  4  1  0  0  0  0
  5  7  1  0  0  0  0
  6  5  2  0  0  0  0
  7 11  1  0  0  0  0
  8 15  1  0  0  0  0
  8  7  1  0  0  0  0
  8  9  1  0  0  0  0
  9 17  1  0  0  0  0
  9 10  1  0  0  0  0
 10 18  1  0  0  0  0
 11 10  1  0  0  0  0
 11 20  1  1  0  0  0
 11 22  1  0  0  0  0
 12  1  1  0  0  0  0
 14  8  1  0  0  0  0
 16  9  1  0  0  0  0
 19 10  1  0  0  0  0
 21 27  1  0  0  0  0
 22 23  1  0  0  0  0
 22 21  2  0  0  0  0
 23 25  2  0  0  0  0
 24 23  1  0  0  0  0
 25 26  1  0  0  0  0
 27 26  2  0  0  0  0
 27 30  1  0  0  0  0
 28 21  1  0  0  0  0
 29 28  1  0  0  0  0
 30 31  1  0  0  0  0
 32 34  1  0  0  0  0
 32  2  1  0  0  0  0
 33 32  1  0  0  0  0
M  END
>  <minimizedAffinity>
-5.62676239

$$$$

 OpenBabel03252506323D

 34 36  0  0  1  0  0  0  0  0999 V2000
   39.1850   31.4030   37.8760 C   0  0  0  0  0  0  0  0  0  0  0  0
   40.1080   30.8510   38.7910 C   0  0  0  0  0  0  0  0  0  0  0  0
   39.7660   29.6880   39.4770 C   0  0  0  0  0  0  0  0  0  0  0  0
   38.5510   29.1590   39.2140 N   0  0  0  0  0  0  0  0  0  0  0  0
   37.6910   29.6940   38.3460 C   0  0  0  0  0  0  0  0  0  0  0  0
   37.9870   30.8140   37.6660 N   0  0  0  0  0  0  0  0  0  0  0  0
   36.4390   29.0400   38.1710 N   0  0  0  0  0  0  0  0  0  0  0  0
   35.5230   29.2900   37.0470 C   0  0  0  0  0  0  0  0  0  0  0  0
   34.1860   29.2020   37.7320 C   0  0  0  0  0  0  0  0  0  0  0  0
   34.4140   28.6130   39.0960 C   0  0  0  0  0  0  0  0  0  0  0  0
   35.7950   28.0510   38.9720 C   0  0  2  0  0  0  0  0  0  0  0  0
   39.4430   32.3140   37.3320 H   0  0  0  0  0  0  0  0  0  0  0  0
   40.4970   29.2950   40.1700 H   0  0  0  0  0  0  0  0  0  0  0  0
   35.7010   30.2620   36.5710 H   0  0  0  0  0  0  0  0  0  0  0  0
   35.6290   28.4170   36.3820 H   0  0  0  0  0  0  0  0  0  0  0  0
   33.7690   30.2290   37.7570 H   0  0  0  0  0  0  0  0  0  0  0  0
   33.4740   28.5640   37.1730 H   0  0  0  0  0  0  0  0  0  0  0  0
   33.6700   27.8420   39.3640 H   0  0  0  0  0  0  0  0  0  0  0  0
   34.3580   29.4600   39.8290 H   0  0  0  0  0  0  0  0  0  0  0  0
   35.6770   27.1440   38.2940 H   0  0  0  0  0  0  0  0  0  0  0  0
   36.3510   28.5810   41.3250 C   0  0  0  0  0  0  0  0  0  0  0  0
   36.4020   27.6920   40.2430 C   0  0  0  0  0  0  0  0  0  0  0  0
   37.0810   26.5440   40.5300 C   0  0  0  0  0  0  0  0  0  0  0  0
   37.1880   25.7960   39.7530 H   0  0  0  0  0  0  0  0  0  0  0  0
   37.6770   26.2190   41.7210 C   0  0  0  0  0  3  0  0  0  0  0  0
   37.5960   27.1330   42.7520 C   0  0  0  0  0  3  0  0  0  0  0  0
   36.9320   28.3190   42.5570 C   0  0  0  0  0  0  0  0  0  0  0  0
   35.6960   29.7960   41.1920 O   0  0  0  0  0  0  0  0  0  0  0  0
   34.6730   29.8590   41.2190 H   0  0  0  0  0  0  0  0  0  0  0  0
   36.8380   29.2580   43.5870 O   0  0  0  0  0  0  0  0  0  0  0  0
   36.9020   28.9500   44.5470 H   0  0  0  0  0  0  0  0  0  0  0  0
   41.3430   31.5550   38.9360 N   0  0  0  0  0  0  0  0  0  0  0  0
   41.3630   32.5750   38.8530 H   0  0  0  0  0  0  0  0  0  0  0  0
   42.2120   30.9960   39.1280 H   0  0  0  0  0  0  0  0  0  0  0  0
  1  2  1  0  0  0  0
  2 32  1  0  0  0  0
  2  3  2  0  0  0  0
  3 13  1  0  0  0  0
  4  3  1  0  0  0  0
  5  4  2  0  0  0  0
  6  1  2  0  0  0  0
  6  5  1  0  0  0  0
  7  5  1  0  0  0  0
  7 11  1  0  0  0  0
  8  9  1  0  0  0  0
  8  7  1  0  0  0  0
  9 16  1  0  0  0  0
  9 10  1  0  0  0  0
 10 18  1  0  0  0  0
 10 19  1  0  0  0  0
 11 20  1  6  0  0  0
 11 10  1  0  0  0  0
 11 22  1  0  0  0  0
 12  1  1  0  0  0  0
 14  8  1  0  0  0  0
 15  8  1  0  0  0  0
 17  9  1  0  0  0  0
 21 27  1  0  0  0  0
 22 23  1  0  0  0  0
 22 21  2  0  0  0  0
 23 25  2  0  0  0  0
 24 23  1  0  0  0  0
 25 26  1  0  0  0  0
 27 26  2  0  0  0  0
 27 30  1  0  0  0  0
 28 29  1  0  0  0  0
 28 21  1  0  0  0  0
 30 31  1  0  0  0  0
 32 34  1  0  0  0  0
 33 32  1  0  0  0  0
M  END
>  <minimizedAffinity>
-5.58553886

$$$$

 OpenBabel03252506323D

 34 36  0  0  1  0  0  0  0  0999 V2000
   37.2470   26.6940   36.5730 C   0  0  0  0  0  0  0  0  0  0  0  0
   37.6850   28.0180   36.3480 C   0  0  0  0  0  0  0  0  0  0  0  0
   38.2100   28.7440   37.4150 C   0  0  0  0  0  0  0  0  0  0  0  0
   38.2650   28.1200   38.6120 N   0  0  0  0  0  0  0  0  0  0  0  0
   37.8460   26.8690   38.8050 C   0  0  0  0  0  0  0  0  0  0  0  0
   37.3340   26.1380   37.8010 N   0  0  0  0  0  0  0  0  0  0  0  0
   37.9510   26.3360   40.1210 N   0  0  0  0  0  0  0  0  0  0  0  0
   37.8490   24.9040   40.4440 C   0  0  0  0  0  0  0  0  0  0  0  0
   37.0990   24.9500   41.7490 C   0  0  0  0  0  0  0  0  0  0  0  0
   37.1030   26.3780   42.2220 C   0  0  0  0  0  0  0  0  0  0  0  0
   38.1660   26.9920   41.3680 C   0  0  2  0  0  0  0  0  0  0  0  0
   36.8330   26.1150   35.7450 H   0  0  0  0  0  0  0  0  0  0  0  0
   38.5350   29.7540   37.2060 H   0  0  0  0  0  0  0  0  0  0  0  0
   37.3260   24.3350   39.6670 H   0  0  0  0  0  0  0  0  0  0  0  0
   38.8810   24.5750   40.6510 H   0  0  0  0  0  0  0  0  0  0  0  0
   36.0830   24.5520   41.5510 H   0  0  0  0  0  0  0  0  0  0  0  0
   37.5680   24.3090   42.5210 H   0  0  0  0  0  0  0  0  0  0  0  0
   37.3210   26.4750   43.3000 H   0  0  0  0  0  0  0  0  0  0  0  0
   36.0830   26.7940   42.0070 H   0  0  0  0  0  0  0  0  0  0  0  0
   39.1410   26.5650   41.7700 H   0  0  0  0  0  0  0  0  0  0  0  0
   36.9640   29.1560   41.3780 C   0  0  0  0  0  0  0  0  0  0  0  0
   38.1710   28.4460   41.3890 C   0  0  0  0  0  0  0  0  0  0  0  0
   39.2670   29.2600   41.3900 C   0  0  0  0  0  0  0  0  0  0  0  0
   40.2500   28.8050   41.3850 H   0  0  0  0  0  0  0  0  0  0  0  0
   39.2700   30.6300   41.3810 C   0  0  0  0  0  3  0  0  0  0  0  0
   38.0520   31.2780   41.3700 C   0  0  0  0  0  3  0  0  0  0  0  0
   36.8920   30.5420   41.3680 C   0  0  0  0  0  0  0  0  0  0  0  0
   35.7580   28.4710   41.3750 O   0  0  0  0  0  0  0  0  0  0  0  0
   35.3840   28.0410   42.2270 H   0  0  0  0  0  0  0  0  0  0  0  0
   35.6480   31.1760   41.3560 O   0  0  0  0  0  0  0  0  0  0  0  0
   35.5650   32.1140   41.7230 H   0  0  0  0  0  0  0  0  0  0  0  0
   37.5450   28.5060   35.0130 N   0  0  0  0  0  0  0  0  0  0  0  0
   36.7550   28.2010   34.4380 H   0  0  0  0  0  0  0  0  0  0  0  0
   38.2690   29.1770   34.6530 H   0  0  0  0  0  0  0  0  0  0  0  0
  1  6  1  0  0  0  0
  2  1  2  0  0  0  0
  2  3  1  0  0  0  0
  3  4  2  0  0  0  0
  4  5  1  0  0  0  0
  5  7  1  0  0  0  0
  6  5  2  0  0  0  0
  7  8  1  0  0  0  0
  7 11  1  0  0  0  0
  8 15  1  0  0  0  0
  8  9  1  0  0  0  0
  9 10  1  0  0  0  0
  9 17  1  0  0  0  0
 10 18  1  0  0  0  0
 11 22  1  0  0  0  0
 11 20  1  1  0  0  0
 11 10  1  0  0  0  0
 12  1  1  0  0  0  0
 13  3  1  0  0  0  0
 14  8  1  0  0  0  0
 16  9  1  0  0  0  0
 19 10  1  0  0  0  0
 21 22  1  0  0  0  0
 22 23  2  0  0  0  0
 24 23  1  0  0  0  0
 25 23  1  0  0  0  0
 26 25  2  0  0  0  0
 27 26  1  0  0  0  0
 27 21  2  0  0  0  0
 28 21  1  0  0  0  0
 28 29  1  0  0  0  0
 30 27  1  0  0  0  0
 30 31  1  0  0  0  0
 32  2  1  0  0  0  0
 33 32  1  0  0  0  0
 34 32  1  0  0  0  0
M  END
>  <minimizedAffinity>
-5.55643845

$$$$
