
 OpenBabel03242521403D

 23 24  0  0  0  0  0  0  0  0999 V2000
   44.7450   30.5920   42.2730 C   0  0  0  0  0  0  0  0  0  0  0  0
   45.9480   31.2920   42.2630 C   0  0  0  0  0  0  0  0  0  0  0  0
   45.9160   32.6870   42.1810 C   0  0  0  0  0  0  0  0  0  0  0  0
   44.7040   33.2740   42.1150 N   0  0  0  0  0  0  0  0  0  0  0  0
   43.5530   32.5690   42.1270 C   0  0  0  0  0  0  0  0  0  0  0  0
   43.5780   31.2210   42.2060 N   0  0  0  0  0  0  0  0  0  0  0  0
   46.8580   30.7490   42.3180 H   0  0  0  0  0  0  0  0  0  0  0  0
   42.6000   33.0970   42.0710 H   0  0  0  0  0  0  0  0  0  0  0  0
   47.4620   34.1700   41.0300 C   0  0  0  0  0  0  0  0  0  0  0  0
   47.1240   33.4650   42.1660 C   0  0  0  0  0  0  0  0  0  0  0  0
   48.0200   33.5900   43.2070 C   0  0  0  0  0  0  0  0  0  0  0  0
   47.8080   33.0590   44.1240 H   0  0  0  0  0  0  0  0  0  0  0  0
   49.1740   34.3600   43.1290 C   0  0  0  0  0  3  0  0  0  0  0  0
   49.4830   35.0530   41.9800 C   0  0  0  0  0  3  0  0  0  0  0  0
   48.6010   34.9450   40.9240 C   0  0  0  0  0  0  0  0  0  0  0  0
   46.6590   34.1550   39.8740 O   0  0  0  0  0  0  0  0  0  0  0  0
   45.7660   34.6460   39.9850 H   0  0  0  0  0  0  0  0  0  0  0  0
   48.9160   35.6510   39.7530 O   0  0  0  0  0  0  0  0  0  0  0  0
   48.5480   36.5900   39.6140 H   0  0  0  0  0  0  0  0  0  0  0  0
   44.8160   29.1020   42.3620 C   0  0  0  0  0  0  0  0  0  0  0  0
   44.6820   28.7410   41.3010 H   0  0  0  0  0  0  0  0  0  0  0  0
   45.8050   28.7700   42.7340 H   0  0  0  0  0  0  0  0  0  0  0  0
   44.0030   28.6620   42.9560 H   0  0  0  0  0  0  0  0  0  0  0  0
  1 20  1  0  0  0  0
  2  1  1  0  0  0  0
  2  7  1  0  0  0  0
  3  2  2  0  0  0  0
  4  5  2  0  0  0  0
  4  3  1  0  0  0  0
  5  6  1  0  0  0  0
  6  1  2  0  0  0  0
  8  5  1  0  0  0  0
  9 10  1  0  0  0  0
 10  3  1  0  0  0  0
 10 11  2  0  0  0  0
 11 12  1  0  0  0  0
 13 11  1  0  0  0  0
 14 13  2  0  0  0  0
 15  9  2  0  0  0  0
 15 14  1  0  0  0  0
 16 17  1  0  0  0  0
 16  9  1  0  0  0  0
 18 15  1  0  0  0  0
 19 18  1  0  0  0  0
 20 22  1  0  0  0  0
 20 23  1  0  0  0  0
 21 20  1  0  0  0  0
M  END
>  <minimizedAffinity>
-3.68277383

>  <minimizedRMSD>
4.8292985

$$$$
