
 OpenBabel03252508173D

 49 53  0  0  1  0  0  0  0  0999 V2000
   46.9030   31.7050   48.2840 C   0  0  1  0  0  0  0  0  0  0  0  0
   46.2480   30.7400   49.2110 C   0  0  0  0  0  0  0  0  0  0  0  0
   47.6060   31.2030   49.4780 C   0  0  1  0  0  0  0  0  0  0  0  0
   46.3030   32.6630   48.2720 H   0  0  0  0  0  0  0  0  0  0  0  0
   45.4350   31.0380   49.9050 H   0  0  0  0  0  0  0  0  0  0  0  0
   46.0930   29.6880   48.8640 H   0  0  0  0  0  0  0  0  0  0  0  0
   47.7210   31.9300   50.3100 H   0  0  0  0  0  0  0  0  0  0  0  0
   48.8050   30.3320   49.2760 C   0  0  2  0  0  0  0  0  0  0  0  0
   49.6980   30.1970   50.5350 C   0  0  0  0  0  0  0  0  0  0  0  0
   50.1790   30.9840   49.3900 C   0  0  1  0  0  0  0  0  0  0  0  0
   48.7650   29.3790   48.7370 H   0  0  0  0  0  0  0  0  0  0  0  0
   49.3780   30.7750   51.4490 H   0  0  0  0  0  0  0  0  0  0  0  0
   50.0950   29.2250   50.8180 H   0  0  0  0  0  0  0  0  0  0  0  0
   50.1540   32.0900   49.4880 H   0  0  0  0  0  0  0  0  0  0  0  0
   51.0370   29.4340   47.5980 C   0  0  0  0  0  0  0  0  0  0  0  0
   51.2750   30.4240   48.5320 C   0  0  0  0  0  0  0  0  0  0  0  0
   52.5650   30.8960   48.6630 C   0  0  0  0  0  0  0  0  0  0  0  0
   52.8400   31.6640   49.3630 H   0  0  0  0  0  0  0  0  0  0  0  0
   53.6250   30.4170   47.8950 C   0  0  0  0  0  3  0  0  0  0  0  0
   53.3620   29.4220   46.9630 C   0  0  0  0  0  3  0  0  0  0  0  0
   52.0610   28.9300   46.8170 C   0  0  0  0  0  0  0  0  0  0  0  0
   49.7240   28.9600   47.4720 O   0  0  0  0  0  0  0  0  0  0  0  0
   49.0620   29.6040   47.0190 H   0  0  0  0  0  0  0  0  0  0  0  0
   51.8100   27.9240   45.8700 O   0  0  0  0  0  0  0  0  0  0  0  0
   51.7030   28.2870   44.9110 H   0  0  0  0  0  0  0  0  0  0  0  0
   47.2230   31.1670   46.9400 C   0  0  0  0  0  0  0  0  0  0  0  0
   46.4540   30.3650   46.7330 H   0  0  0  0  0  0  0  0  0  0  0  0
   48.1780   30.7150   46.7660 H   0  0  0  0  0  0  0  0  0  0  0  0
   46.1060   33.0960   46.1730 C   0  0  0  0  0  3  0  0  0  0  0  0
   46.9380   32.1920   45.8670 C   0  0  0  0  0  3  0  0  0  0  0  0
   44.5220   35.9010   44.3820 C   0  0  0  0  0  0  0  0  0  0  0  0
   45.1580   35.8800   43.1450 C   0  0  0  0  0  0  0  0  0  0  0  0
   46.0930   34.9180   42.9670 C   0  0  0  0  0  0  0  0  0  0  0  0
   46.3730   34.0340   43.9670 N   0  0  0  0  0  0  0  0  0  0  0  0
   45.7420   34.0800   45.1530 C   0  0  0  0  0  0  0  0  0  0  0  0
   44.8250   35.0200   45.3290 N   0  0  0  0  0  0  0  0  0  0  0  0
   43.7660   36.6710   44.5380 H   0  0  0  0  0  0  0  0  0  0  0  0
   44.9280   36.5820   42.3620 H   0  0  0  0  0  0  0  0  0  0  0  0
   46.8400   34.7680   41.7230 C   0  0  0  0  0  0  0  0  0  0  0  0
   48.0460   35.3470   41.4580 C   0  0  0  0  0  0  0  0  0  0  0  0
   48.7370   35.1930   40.2720 C   0  0  0  0  0  0  0  0  0  0  0  0
   48.2050   34.4090   39.2680 C   0  0  0  0  0  0  0  0  0  0  0  0
   46.9970   33.7980   39.4700 C   0  0  0  0  0  0  0  0  0  0  0  0
   46.3530   33.9920   40.6780 C   0  0  0  0  0  0  0  0  0  0  0  0
   48.4980   35.9760   42.2300 H   0  0  0  0  0  0  0  0  0  0  0  0
   49.6890   35.6720   40.1100 H   0  0  0  0  0  0  0  0  0  0  0  0
   48.6800   34.2360   38.3100 H   0  0  0  0  0  0  0  0  0  0  0  0
   46.5580   33.1830   38.7090 H   0  0  0  0  0  0  0  0  0  0  0  0
   45.3860   33.4780   40.7870 H   0  0  0  0  0  0  0  0  0  0  0  0
  1  4  1  1  0  0  0
  1  2  1  0  0  0  0
  1  3  1  0  0  0  0
  2  3  1  0  0  0  0
  2  5  1  0  0  0  0
  3  7  1  1  0  0  0
  6  2  1  0  0  0  0
  8 11  1  6  0  0  0
  8 10  1  0  0  0  0
  8  3  1  0  0  0  0
  8  9  1  0  0  0  0
  9 13  1  0  0  0  0
  9 12  1  0  0  0  0
 10 14  1  1  0  0  0
 10  9  1  0  0  0  0
 15 16  1  0  0  0  0
 16 17  2  0  0  0  0
 16 10  1  0  0  0  0
 17 18  1  0  0  0  0
 19 17  1  0  0  0  0
 20 19  2  0  0  0  0
 21 20  1  0  0  0  0
 21 15  2  0  0  0  0
 22 15  1  0  0  0  0
 23 22  1  0  0  0  0
 24 21  1  0  0  0  0
 25 24  1  0  0  0  0
 26  1  1  0  0  0  0
 27 26  1  0  0  0  0
 28 26  1  0  0  0  0
 30 29  2  0  0  0  0
 30 26  1  0  0  0  0
 31 37  1  0  0  0  0
 31 36  1  0  0  0  0
 32 31  2  0  0  0  0
 33 32  1  0  0  0  0
 33 34  2  0  0  0  0
 34 35  1  0  0  0  0
 35 36  2  0  0  0  0
 35 29  1  0  0  0  0
 38 32  1  0  0  0  0
 39 33  1  0  0  0  0
 40 39  1  0  0  0  0
 40 45  1  0  0  0  0
 41 40  2  0  0  0  0
 42 43  2  0  0  0  0
 42 41  1  0  0  0  0
 43 44  1  0  0  0  0
 44 49  1  0  0  0  0
 44 39  2  0  0  0  0
 46 41  1  0  0  0  0
 47 42  1  0  0  0  0
 48 43  1  0  0  0  0
M  END
>  <minimizedAffinity>
-6.48984003

>  <minimizedRMSD>
0.99384582

$$$$
