
 OpenBabel03252505113D

 46 49  0  0  1  0  0  0  0  0999 V2000
   44.6140   35.5750   44.5960 C   0  0  0  0  0  0  0  0  0  0  0  0
   45.2360   35.5110   43.3310 C   0  0  0  0  0  0  0  0  0  0  0  0
   46.2910   34.5500   43.1520 C   0  0  0  0  0  0  0  0  0  0  0  0
   46.6270   33.7670   44.1960 N   0  0  0  0  0  0  0  0  0  0  0  0
   46.0150   33.8570   45.3790 C   0  0  0  0  0  0  0  0  0  0  0  0
   44.9990   34.7610   45.5970 N   0  0  0  0  0  0  0  0  0  0  0  0
   43.8160   36.2830   44.7740 H   0  0  0  0  0  0  0  0  0  0  0  0
   44.9240   36.1590   42.5480 H   0  0  0  0  0  0  0  0  0  0  0  0
   46.4290   32.9710   46.4980 C   0  0  2  0  0  0  0  0  0  0  0  0
   46.9800   31.7310   45.8270 C   0  0  0  0  0  0  0  0  0  0  0  0
   46.1180   30.5390   45.8560 C   0  0  0  0  0  0  0  0  0  0  0  0
   45.8250   30.3020   47.3380 C   0  0  0  0  0  0  0  0  0  0  0  0
   45.0190   31.3690   47.9240 C   0  0  0  0  0  0  0  0  0  0  0  0
   45.3810   32.7330   47.4470 C   0  0  0  0  0  0  0  0  0  0  0  0
   47.2710   33.5220   46.9940 H   0  0  0  0  0  0  0  0  0  0  0  0
   47.9280   31.4750   46.3470 H   0  0  0  0  0  0  0  0  0  0  0  0
   47.2870   31.9090   44.7700 H   0  0  0  0  0  0  0  0  0  0  0  0
   45.1860   30.6810   45.2960 H   0  0  0  0  0  0  0  0  0  0  0  0
   46.6940   29.6760   45.5280 H   0  0  0  0  0  0  0  0  0  0  0  0
   46.7640   30.0940   47.8480 H   0  0  0  0  0  0  0  0  0  0  0  0
   45.1830   29.3970   47.3460 H   0  0  0  0  0  0  0  0  0  0  0  0
   44.2080   31.3600   48.6380 H   0  0  0  0  0  0  0  0  0  0  0  0
   44.6770   33.8750   47.9310 N   0  0  0  0  0  0  0  0  0  0  0  0
   45.2900   34.3450   48.6110 H   0  0  0  0  0  0  0  0  0  0  0  0
   43.7170   34.0410   47.5440 H   0  0  0  0  0  0  0  0  0  0  0  0
   46.9460   34.4600   41.8620 C   0  0  0  0  0  0  0  0  0  0  0  0
   47.9880   35.2770   41.6000 C   0  0  0  0  0  0  0  0  0  0  0  0
   48.5750   35.1550   40.3340 C   0  0  0  0  0  0  0  0  0  0  0  0
   48.0300   34.2130   39.4790 C   0  0  0  0  0  0  0  0  0  0  0  0
   46.9680   33.3810   39.7500 C   0  0  0  0  0  0  0  0  0  0  0  0
   46.4420   33.5460   40.9950 N   0  0  0  0  0  0  0  0  0  0  0  0
   48.3690   35.9940   42.3110 H   0  0  0  0  0  0  0  0  0  0  0  0
   49.4120   35.7870   40.0760 H   0  0  0  0  0  0  0  0  0  0  0  0
   48.5390   34.1850   38.5250 H   0  0  0  0  0  0  0  0  0  0  0  0
   46.4860   32.4790   38.8480 O   0  0  0  0  0  0  0  0  0  0  0  0
   48.0300   31.4340   37.2500 C   0  0  0  0  0  0  0  0  0  0  0  0
   46.9410   32.1540   37.6270 C   0  0  0  0  0  0  0  0  0  0  0  0
   46.1410   32.6510   36.5880 C   0  0  0  0  0  0  0  0  0  0  0  0
   45.2300   33.2490   36.7460 H   0  0  0  0  0  0  0  0  0  0  0  0
   46.4260   32.4350   35.2540 C   0  0  0  0  0  3  0  0  0  0  0  0
   47.5520   31.6930   34.9380 C   0  0  0  0  0  3  0  0  0  0  0  0
   48.3630   31.1870   35.9330 C   0  0  0  0  0  0  0  0  0  0  0  0
   48.8090   30.9500   38.2950 O   0  0  0  0  0  0  0  0  0  0  0  0
   49.8020   30.8620   38.1100 H   0  0  0  0  0  0  0  0  0  0  0  0
   49.5000   30.4400   35.6810 O   0  0  0  0  0  0  0  0  0  0  0  0
   50.3950   30.8840   35.8920 H   0  0  0  0  0  0  0  0  0  0  0  0
  1  7  1  0  0  0  0
  1  6  1  0  0  0  0
  2  1  2  0  0  0  0
  3  2  1  0  0  0  0
  3  4  2  0  0  0  0
  4  5  1  0  0  0  0
  5  6  2  0  0  0  0
  5  9  1  0  0  0  0
  8  2  1  0  0  0  0
  9 15  1  1  0  0  0
  9 14  1  0  0  0  0
 10 11  1  0  0  0  0
 10 16  1  0  0  0  0
 10  9  1  0  0  0  0
 11 12  1  0  0  0  0
 12 21  1  0  0  0  0
 12 20  1  0  0  0  0
 12 13  1  0  0  0  0
 13 22  1  0  0  0  0
 14 13  2  0  0  0  0
 14 23  1  0  0  0  0
 17 10  1  0  0  0  0
 18 11  1  0  0  0  0
 19 11  1  0  0  0  0
 23 24  1  0  0  0  0
 25 23  1  0  0  0  0
 26  3  1  0  0  0  0
 27 26  1  0  0  0  0
 27 32  1  0  0  0  0
 28 27  2  0  0  0  0
 29 30  2  0  0  0  0
 29 28  1  0  0  0  0
 30 31  1  0  0  0  0
 31 26  2  0  0  0  0
 33 28  1  0  0  0  0
 34 29  1  0  0  0  0
 35 30  1  0  0  0  0
 36 37  1  0  0  0  0
 36 43  1  0  0  0  0
 37 35  1  0  0  0  0
 38 39  1  0  0  0  0
 38 37  2  0  0  0  0
 40 38  1  0  0  0  0
 41 40  2  0  0  0  0
 41 42  1  0  0  0  0
 42 36  2  0  0  0  0
 44 43  1  0  0  0  0
 45 46  1  0  0  0  0
 45 42  1  0  0  0  0
M  END
>  <minimizedAffinity>
-7.03179598

>  <minimizedRMSD>
0.597045124

$$$$
