
 OpenBabel03252500513D

 37 39  0  0  0  0  0  0  0  0999 V2000
   44.8310   34.9540   42.0870 C   0  0  0  0  0  0  0  0  0  0  0  0
   45.6040   34.7820   41.1220 O   0  0  0  0  0  0  0  0  0  0  0  0
   44.9450   35.0050   44.5240 C   0  0  0  0  0  0  0  0  0  0  0  0
   45.1540   34.3190   43.3540 C   0  0  0  0  0  0  0  0  0  0  0  0
   45.6770   33.0070   43.3610 C   0  0  0  0  0  0  0  0  0  0  0  0
   45.9580   32.4740   44.5950 N   0  0  0  0  0  0  0  0  0  0  0  0
   45.7510   33.1470   45.7220 C   0  0  0  0  0  0  0  0  0  0  0  0
   45.2500   34.4010   45.6840 N   0  0  0  0  0  0  0  0  0  0  0  0
   44.5550   35.9930   44.5940 H   0  0  0  0  0  0  0  0  0  0  0  0
   45.8480   32.4520   42.4570 H   0  0  0  0  0  0  0  0  0  0  0  0
   46.0630   32.5460   47.0100 C   0  0  0  0  0  0  0  0  0  0  0  0
   47.3320   32.2410   47.3880 C   0  0  0  0  0  0  0  0  0  0  0  0
   47.6410   31.6760   48.5960 C   0  0  0  0  0  0  0  0  0  0  0  0
   46.6110   31.4190   49.4320 N   0  0  0  0  0  0  0  0  0  0  0  0
   45.3690   31.7190   49.0570 C   0  0  0  0  0  0  0  0  0  0  0  0
   45.0400   32.2730   47.8820 N   0  0  0  0  0  0  0  0  0  0  0  0
   48.1600   32.4450   46.7220 H   0  0  0  0  0  0  0  0  0  0  0  0
   48.6450   31.4280   48.9110 H   0  0  0  0  0  0  0  0  0  0  0  0
   44.5260   31.5200   49.7160 H   0  0  0  0  0  0  0  0  0  0  0  0
   43.8050   35.7520   41.6730 O   0  0  0  0  0  0  0  0  0  0  0  0
   42.7390   35.3110   40.9330 C   0  0  0  0  0  0  0  0  0  0  0  0
   42.7900   35.8790   39.9530 H   0  0  0  0  0  0  0  0  0  0  0  0
   42.7420   34.2570   40.5940 H   0  0  0  0  0  0  0  0  0  0  0  0
   41.3800   35.7200   41.4860 C   0  0  0  0  0  0  0  0  0  0  0  0
   41.1730   36.7820   41.3270 H   0  0  0  0  0  0  0  0  0  0  0  0
   41.3350   35.3830   42.5290 H   0  0  0  0  0  0  0  0  0  0  0  0
   39.5890   33.9490   41.3050 C   0  0  0  0  0  0  0  0  0  0  0  0
   40.3630   34.9360   40.7160 C   0  0  0  0  0  0  0  0  0  0  0  0
   40.1580   35.1780   39.3600 C   0  0  0  0  0  0  0  0  0  0  0  0
   40.7760   35.9540   38.9240 H   0  0  0  0  0  0  0  0  0  0  0  0
   39.2340   34.4900   38.5860 C   0  0  0  0  0  3  0  0  0  0  0  0
   38.4780   33.5110   39.2110 C   0  0  0  0  0  3  0  0  0  0  0  0
   38.6560   33.2510   40.5410 C   0  0  0  0  0  0  0  0  0  0  0  0
   39.7470   33.6650   42.6460 O   0  0  0  0  0  0  0  0  0  0  0  0
   39.4400   32.7960   43.0690 H   0  0  0  0  0  0  0  0  0  0  0  0
   37.8580   32.2540   41.0850 O   0  0  0  0  0  0  0  0  0  0  0  0
   36.9030   32.0880   40.7630 H   0  0  0  0  0  0  0  0  0  0  0  0
  1  4  1  0  0  0  0
  2  1  2  0  0  0  0
  3  9  1  0  0  0  0
  3  8  1  0  0  0  0
  4  5  1  0  0  0  0
  4  3  2  0  0  0  0
  5  6  2  0  0  0  0
  6  7  1  0  0  0  0
  7 11  1  0  0  0  0
  8  7  2  0  0  0  0
 10  5  1  0  0  0  0
 11 12  2  0  0  0  0
 11 16  1  0  0  0  0
 12 13  1  0  0  0  0
 13 18  1  0  0  0  0
 13 14  2  0  0  0  0
 15 14  1  0  0  0  0
 15 19  1  0  0  0  0
 16 15  2  0  0  0  0
 17 12  1  0  0  0  0
 20  1  1  0  0  0  0
 21 24  1  0  0  0  0
 21 20  1  0  0  0  0
 22 21  1  0  0  0  0
 23 21  1  0  0  0  0
 24 26  1  0  0  0  0
 25 24  1  0  0  0  0
 27 34  1  0  0  0  0
 28 27  1  0  0  0  0
 28 24  1  0  0  0  0
 29 28  2  0  0  0  0
 30 29  1  0  0  0  0
 31 32  2  0  0  0  0
 31 29  1  0  0  0  0
 32 33  1  0  0  0  0
 33 36  1  0  0  0  0
 33 27  2  0  0  0  0
 34 35  1  0  0  0  0
 37 36  1  0  0  0  0
M  END
>  <minimizedAffinity>
-7.32917976

>  <minimizedRMSD>
0.617974579

$$$$
