
 OpenBabel03242522323D

 41 44  0  0  0  0  0  0  0  0999 V2000
   40.7510   31.6590   38.7250 F   0  0  0  0  0  0  0  0  0  0  0  0
   40.1000   32.7460   39.2090 C   0  0  0  0  0  0  0  0  0  0  0  0
   38.7600   32.7380   39.3920 C   0  0  0  0  0  0  0  0  0  0  0  0
   38.1820   33.8880   39.8880 C   0  0  0  0  0  0  0  0  0  0  0  0
   38.9120   35.0080   40.1920 C   0  0  0  0  0  0  0  0  0  0  0  0
   40.2630   34.9400   39.9800 C   0  0  0  0  0  0  0  0  0  0  0  0
   40.8880   33.8380   39.4950 C   0  0  0  0  0  0  0  0  0  0  0  0
   37.1010   33.8780   40.0340 H   0  0  0  0  0  0  0  0  0  0  0  0
   38.4270   35.8990   40.5810 H   0  0  0  0  0  0  0  0  0  0  0  0
   40.8370   35.8340   40.2250 H   0  0  0  0  0  0  0  0  0  0  0  0
   42.3210   33.8900   39.3170 C   0  0  0  0  0  0  0  0  0  0  0  0
   43.1540   33.8150   40.4230 C   0  0  0  0  0  0  0  0  0  0  0  0
   44.5020   33.8630   40.2350 C   0  0  0  0  0  0  0  0  0  0  0  0
   45.0500   33.9860   38.9520 C   0  0  0  0  0  0  0  0  0  0  0  0
   44.1640   34.0580   37.8770 C   0  0  0  0  0  0  0  0  0  0  0  0
   42.8100   34.0100   38.0580 C   0  0  0  0  0  0  0  0  0  0  0  0
   42.6740   33.7180   41.4040 H   0  0  0  0  0  0  0  0  0  0  0  0
   45.1290   33.8020   41.1140 H   0  0  0  0  0  0  0  0  0  0  0  0
   46.1220   34.0180   38.8820 H   0  0  0  0  0  0  0  0  0  0  0  0
   44.7090   34.1500   36.9470 H   0  0  0  0  0  0  0  0  0  0  0  0
   42.1610   34.1010   36.8490 O   0  0  0  0  0  0  0  0  0  0  0  0
   42.2350   35.0090   36.3670 H   0  0  0  0  0  0  0  0  0  0  0  0
   36.7390   30.1290   37.5340 C   0  0  0  0  0  0  0  0  0  0  0  0
   37.4360   31.3070   37.8190 C   0  0  0  0  0  0  0  0  0  0  0  0
   38.0170   31.5110   39.0520 C   0  0  0  0  0  0  0  0  0  0  0  0
   37.8640   30.5040   39.9430 N   0  0  0  0  0  0  0  0  0  0  0  0
   37.2000   29.3850   39.6680 C   0  0  0  0  0  0  0  0  0  0  0  0
   36.6360   29.1960   38.4600 N   0  0  0  0  0  0  0  0  0  0  0  0
   36.3020   30.0260   36.5400 H   0  0  0  0  0  0  0  0  0  0  0  0
   37.5340   32.0840   37.0770 H   0  0  0  0  0  0  0  0  0  0  0  0
   36.7640   28.6620   42.0220 C   0  0  0  0  0  0  0  0  0  0  0  0
   37.1050   28.3730   40.7160 C   0  0  0  0  0  0  0  0  0  0  0  0
   37.3720   27.0600   40.3860 C   0  0  0  0  0  0  0  0  0  0  0  0
   37.6460   26.7690   39.3770 H   0  0  0  0  0  0  0  0  0  0  0  0
   37.3100   26.0260   41.3060 C   0  0  0  0  0  3  0  0  0  0  0  0
   36.9640   26.3300   42.6230 C   0  0  0  0  0  3  0  0  0  0  0  0
   36.6980   27.6430   42.9500 C   0  0  0  0  0  0  0  0  0  0  0  0
   36.4980   29.9860   42.3470 O   0  0  0  0  0  0  0  0  0  0  0  0
   37.1400   30.4000   43.0360 H   0  0  0  0  0  0  0  0  0  0  0  0
   36.3620   27.9030   44.2510 O   0  0  0  0  0  0  0  0  0  0  0  0
   36.2800   28.7890   44.6920 H   0  0  0  0  0  0  0  0  0  0  0  0
  1  2  1  0  0  0  0
  2  3  2  0  0  0  0
  2  7  1  0  0  0  0
  3  4  1  0  0  0  0
  4  8  1  0  0  0  0
  4  5  2  0  0  0  0
  5  9  1  0  0  0  0
  6  5  1  0  0  0  0
  6 10  1  0  0  0  0
  7  6  2  0  0  0  0
 11  7  1  0  0  0  0
 11 12  1  0  0  0  0
 12 17  1  0  0  0  0
 13 12  2  0  0  0  0
 13 18  1  0  0  0  0
 14 13  1  0  0  0  0
 15 16  1  0  0  0  0
 15 14  2  0  0  0  0
 16 11  2  0  0  0  0
 19 14  1  0  0  0  0
 20 15  1  0  0  0  0
 21 16  1  0  0  0  0
 22 21  1  0  0  0  0
 23 24  2  0  0  0  0
 23 28  1  0  0  0  0
 24 25  1  0  0  0  0
 25  3  1  0  0  0  0
 25 26  2  0  0  0  0
 27 26  1  0  0  0  0
 27 32  1  0  0  0  0
 28 27  2  0  0  0  0
 29 23  1  0  0  0  0
 30 24  1  0  0  0  0
 31 38  1  0  0  0  0
 31 37  1  0  0  0  0
 32 31  2  0  0  0  0
 33 32  1  0  0  0  0
 33 35  2  0  0  0  0
 34 33  1  0  0  0  0
 35 36  1  0  0  0  0
 36 37  2  0  0  0  0
 37 40  1  0  0  0  0
 38 39  1  0  0  0  0
 40 41  1  0  0  0  0
M  END
>  <minimizedAffinity>
-8.07763958

$$$$

 OpenBabel03242522323D

 41 44  0  0  0  0  0  0  0  0999 V2000
   39.7780   30.8900   41.6280 F   0  0  0  0  0  0  0  0  0  0  0  0
   38.7970   30.6610   40.7190 C   0  0  0  0  0  0  0  0  0  0  0  0
   38.4490   31.6000   39.8110 C   0  0  0  0  0  0  0  0  0  0  0  0
   37.4410   31.2810   38.9250 C   0  0  0  0  0  0  0  0  0  0  0  0
   36.8030   30.0680   38.9410 C   0  0  0  0  0  0  0  0  0  0  0  0
   37.2100   29.1690   39.8900 C   0  0  0  0  0  0  0  0  0  0  0  0
   38.1950   29.4250   40.7870 C   0  0  0  0  0  0  0  0  0  0  0  0
   37.1630   32.0410   38.1930 H   0  0  0  0  0  0  0  0  0  0  0  0
   36.0110   29.8470   38.2300 H   0  0  0  0  0  0  0  0  0  0  0  0
   36.6970   28.2070   39.8970 H   0  0  0  0  0  0  0  0  0  0  0  0
   38.5350   28.3930   41.7390 C   0  0  0  0  0  0  0  0  0  0  0  0
   39.4730   27.4290   41.4000 C   0  0  0  0  0  0  0  0  0  0  0  0
   39.7830   26.4650   42.3110 C   0  0  0  0  0  0  0  0  0  0  0  0
   39.1740   26.4380   43.5710 C   0  0  0  0  0  0  0  0  0  0  0  0
   38.2380   27.4330   43.8570 C   0  0  0  0  0  0  0  0  0  0  0  0
   37.9220   28.4020   42.9480 C   0  0  0  0  0  0  0  0  0  0  0  0
   39.9210   27.4970   40.4010 H   0  0  0  0  0  0  0  0  0  0  0  0
   40.5170   25.7260   42.0220 H   0  0  0  0  0  0  0  0  0  0  0  0
   39.4690   25.6470   44.2370 H   0  0  0  0  0  0  0  0  0  0  0  0
   37.8440   27.3000   44.8550 H   0  0  0  0  0  0  0  0  0  0  0  0
   36.9780   29.2570   43.4670 O   0  0  0  0  0  0  0  0  0  0  0  0
   36.0420   28.8540   43.6170 H   0  0  0  0  0  0  0  0  0  0  0  0
   39.2580   35.2860   40.1300 C   0  0  0  0  0  0  0  0  0  0  0  0
   38.5440   34.0850   40.1210 C   0  0  0  0  0  0  0  0  0  0  0  0
   39.1660   32.8890   39.8300 C   0  0  0  0  0  0  0  0  0  0  0  0
   40.4890   32.9700   39.5600 N   0  0  0  0  0  0  0  0  0  0  0  0
   41.1640   34.1150   39.5680 C   0  0  0  0  0  0  0  0  0  0  0  0
   40.5470   35.2780   39.8550 N   0  0  0  0  0  0  0  0  0  0  0  0
   38.7100   36.1990   40.3690 H   0  0  0  0  0  0  0  0  0  0  0  0
   37.4890   34.0670   40.3440 H   0  0  0  0  0  0  0  0  0  0  0  0
   43.0860   33.9810   37.9750 C   0  0  0  0  0  0  0  0  0  0  0  0
   42.5900   34.0690   39.2600 C   0  0  0  0  0  0  0  0  0  0  0  0
   43.4900   34.1160   40.3050 C   0  0  0  0  0  0  0  0  0  0  0  0
   43.1620   34.1850   41.3380 H   0  0  0  0  0  0  0  0  0  0  0  0
   44.8620   34.0780   40.1190 C   0  0  0  0  0  3  0  0  0  0  0  0
   45.3520   33.9880   38.8150 C   0  0  0  0  0  3  0  0  0  0  0  0
   44.4510   33.9420   37.7730 C   0  0  0  0  0  0  0  0  0  0  0  0
   42.1750   33.9330   36.9280 O   0  0  0  0  0  0  0  0  0  0  0  0
   42.1970   33.0670   36.3730 H   0  0  0  0  0  0  0  0  0  0  0  0
   44.9680   33.8540   36.5080 O   0  0  0  0  0  0  0  0  0  0  0  0
   44.4800   33.6690   35.6640 H   0  0  0  0  0  0  0  0  0  0  0  0
  2  7  1  0  0  0  0
  2  1  1  0  0  0  0
  3 25  1  0  0  0  0
  3  2  2  0  0  0  0
  4  5  2  0  0  0  0
  4  3  1  0  0  0  0
  5  6  1  0  0  0  0
  6 10  1  0  0  0  0
  6  7  2  0  0  0  0
  7 11  1  0  0  0  0
  8  4  1  0  0  0  0
  9  5  1  0  0  0  0
 11 16  1  0  0  0  0
 12 11  2  0  0  0  0
 12 13  1  0  0  0  0
 13 14  2  0  0  0  0
 14 15  1  0  0  0  0
 14 19  1  0  0  0  0
 15 20  1  0  0  0  0
 16 21  1  0  0  0  0
 16 15  2  0  0  0  0
 17 12  1  0  0  0  0
 18 13  1  0  0  0  0
 21 22  1  0  0  0  0
 23 29  1  0  0  0  0
 24 23  1  0  0  0  0
 24 30  1  0  0  0  0
 25 24  2  0  0  0  0
 26 27  2  0  0  0  0
 26 25  1  0  0  0  0
 27 28  1  0  0  0  0
 28 23  2  0  0  0  0
 31 32  1  0  0  0  0
 32 27  1  0  0  0  0
 32 33  2  0  0  0  0
 33 34  1  0  0  0  0
 35 33  1  0  0  0  0
 36 35  2  0  0  0  0
 37 31  2  0  0  0  0
 37 36  1  0  0  0  0
 38 31  1  0  0  0  0
 39 38  1  0  0  0  0
 40 37  1  0  0  0  0
 41 40  1  0  0  0  0
M  END
>  <minimizedAffinity>
-7.9224658

$$$$

 OpenBabel03242522323D

 41 44  0  0  0  0  0  0  0  0999 V2000
   37.8490   27.5810   39.5690 F   0  0  0  0  0  0  0  0  0  0  0  0
   37.8950   27.8520   40.8980 C   0  0  0  0  0  0  0  0  0  0  0  0
   37.9500   29.1230   41.3540 C   0  0  0  0  0  0  0  0  0  0  0  0
   37.9950   29.3040   42.7210 C   0  0  0  0  0  0  0  0  0  0  0  0
   37.9850   28.2550   43.6030 C   0  0  0  0  0  0  0  0  0  0  0  0
   37.9280   26.9970   43.0660 C   0  0  0  0  0  0  0  0  0  0  0  0
   37.8810   26.7560   41.7320 C   0  0  0  0  0  0  0  0  0  0  0  0
   38.0400   30.3310   43.0850 H   0  0  0  0  0  0  0  0  0  0  0  0
   38.0220   28.4300   44.6750 H   0  0  0  0  0  0  0  0  0  0  0  0
   37.9200   26.1680   43.7740 H   0  0  0  0  0  0  0  0  0  0  0  0
   37.8220   25.3830   41.2890 C   0  0  0  0  0  0  0  0  0  0  0  0
   36.6020   24.8270   40.9350 C   0  0  0  0  0  0  0  0  0  0  0  0
   36.5660   23.5310   40.5170 C   0  0  0  0  0  0  0  0  0  0  0  0
   37.7340   22.7630   40.4410 C   0  0  0  0  0  0  0  0  0  0  0  0
   38.9330   23.3740   40.8100 C   0  0  0  0  0  0  0  0  0  0  0  0
   38.9760   24.6730   41.2300 C   0  0  0  0  0  0  0  0  0  0  0  0
   35.7180   25.4730   41.0110 H   0  0  0  0  0  0  0  0  0  0  0  0
   35.6020   23.1230   40.2460 H   0  0  0  0  0  0  0  0  0  0  0  0
   37.6280   21.7490   40.1020 H   0  0  0  0  0  0  0  0  0  0  0  0
   39.7550   22.6780   40.7070 H   0  0  0  0  0  0  0  0  0  0  0  0
   40.2670   25.0360   41.5350 O   0  0  0  0  0  0  0  0  0  0  0  0
   40.6790   24.5770   42.3610 H   0  0  0  0  0  0  0  0  0  0  0  0
   36.8970   31.5990   38.6890 C   0  0  0  0  0  0  0  0  0  0  0  0
   36.8510   30.5540   39.6150 C   0  0  0  0  0  0  0  0  0  0  0  0
   37.9580   30.2180   40.3670 C   0  0  0  0  0  0  0  0  0  0  0  0
   39.0640   30.9640   40.1410 N   0  0  0  0  0  0  0  0  0  0  0  0
   39.1030   31.9580   39.2580 C   0  0  0  0  0  0  0  0  0  0  0  0
   38.0170   32.2770   38.5300 N   0  0  0  0  0  0  0  0  0  0  0  0
   35.9890   31.8170   38.1260 H   0  0  0  0  0  0  0  0  0  0  0  0
   35.9460   29.9860   39.7640 H   0  0  0  0  0  0  0  0  0  0  0  0
   40.9080   33.0080   37.8830 C   0  0  0  0  0  0  0  0  0  0  0  0
   40.3590   32.6880   39.1080 C   0  0  0  0  0  0  0  0  0  0  0  0
   41.0320   33.0760   40.2470 C   0  0  0  0  0  0  0  0  0  0  0  0
   40.6520   32.8540   41.2400 H   0  0  0  0  0  0  0  0  0  0  0  0
   42.2300   33.7720   40.2130 C   0  0  0  0  0  3  0  0  0  0  0  0
   42.7760   34.0910   38.9690 C   0  0  0  0  0  3  0  0  0  0  0  0
   42.1010   33.7010   37.8320 C   0  0  0  0  0  0  0  0  0  0  0  0
   40.2240   32.6130   36.7400 O   0  0  0  0  0  0  0  0  0  0  0  0
   40.7320   31.9480   36.1400 H   0  0  0  0  0  0  0  0  0  0  0  0
   42.6660   34.0310   36.6290 O   0  0  0  0  0  0  0  0  0  0  0  0
   42.4020   33.7140   35.7260 H   0  0  0  0  0  0  0  0  0  0  0  0
  1  2  1  0  0  0  0
  2  3  2  0  0  0  0
  2  7  1  0  0  0  0
  3  4  1  0  0  0  0
  4  8  1  0  0  0  0
  4  5  2  0  0  0  0
  5  9  1  0  0  0  0
  6  5  1  0  0  0  0
  6 10  1  0  0  0  0
  7  6  2  0  0  0  0
 11  7  1  0  0  0  0
 12 17  1  0  0  0  0
 12 11  2  0  0  0  0
 13 12  1  0  0  0  0
 14 13  2  0  0  0  0
 14 15  1  0  0  0  0
 15 16  2  0  0  0  0
 16 11  1  0  0  0  0
 16 21  1  0  0  0  0
 18 13  1  0  0  0  0
 19 14  1  0  0  0  0
 20 15  1  0  0  0  0
 21 22  1  0  0  0  0
 23 24  1  0  0  0  0
 24 30  1  0  0  0  0
 24 25  2  0  0  0  0
 25  3  1  0  0  0  0
 26 25  1  0  0  0  0
 27 26  2  0  0  0  0
 28 23  2  0  0  0  0
 28 27  1  0  0  0  0
 29 23  1  0  0  0  0
 31 32  1  0  0  0  0
 32 27  1  0  0  0  0
 32 33  2  0  0  0  0
 33 34  1  0  0  0  0
 35 33  1  0  0  0  0
 36 35  2  0  0  0  0
 37 31  2  0  0  0  0
 37 36  1  0  0  0  0
 38 31  1  0  0  0  0
 39 38  1  0  0  0  0
 40 37  1  0  0  0  0
 41 40  1  0  0  0  0
M  END
>  <minimizedAffinity>
-7.62892246

$$$$

 OpenBabel03242522323D

 41 44  0  0  0  0  0  0  0  0999 V2000
   37.0380   31.9190   38.2960 F   0  0  0  0  0  0  0  0  0  0  0  0
   37.3510   31.0860   39.3190 C   0  0  0  0  0  0  0  0  0  0  0  0
   38.2610   31.4350   40.2560 C   0  0  0  0  0  0  0  0  0  0  0  0
   38.5160   30.5240   41.2610 C   0  0  0  0  0  0  0  0  0  0  0  0
   37.8870   29.3080   41.3300 C   0  0  0  0  0  0  0  0  0  0  0  0
   36.9780   29.0260   40.3460 C   0  0  0  0  0  0  0  0  0  0  0  0
   36.6850   29.8810   39.3330 C   0  0  0  0  0  0  0  0  0  0  0  0
   39.2500   30.8100   42.0150 H   0  0  0  0  0  0  0  0  0  0  0  0
   38.1100   28.6120   42.1340 H   0  0  0  0  0  0  0  0  0  0  0  0
   36.4820   28.0570   40.4080 H   0  0  0  0  0  0  0  0  0  0  0  0
   35.7060   29.4670   38.3550 C   0  0  0  0  0  0  0  0  0  0  0  0
   36.0810   29.3260   37.0260 C   0  0  0  0  0  0  0  0  0  0  0  0
   35.1450   28.9320   36.1190 C   0  0  0  0  0  0  0  0  0  0  0  0
   33.8250   28.6690   36.5070 C   0  0  0  0  0  0  0  0  0  0  0  0
   33.5070   28.8280   37.8560 C   0  0  0  0  0  0  0  0  0  0  0  0
   34.4400   29.2230   38.7720 C   0  0  0  0  0  0  0  0  0  0  0  0
   37.1260   29.5420   36.7770 H   0  0  0  0  0  0  0  0  0  0  0  0
   35.4630   28.8290   35.0910 H   0  0  0  0  0  0  0  0  0  0  0  0
   33.1430   28.3630   35.7350 H   0  0  0  0  0  0  0  0  0  0  0  0
   32.4630   28.5960   38.0230 H   0  0  0  0  0  0  0  0  0  0  0  0
   33.8770   29.3060   40.0240 O   0  0  0  0  0  0  0  0  0  0  0  0
   33.1830   30.0560   40.1560 H   0  0  0  0  0  0  0  0  0  0  0  0
   38.8770   35.1710   40.1910 C   0  0  0  0  0  0  0  0  0  0  0  0
   38.2270   33.9390   40.3090 C   0  0  0  0  0  0  0  0  0  0  0  0
   38.9100   32.7540   40.1410 C   0  0  0  0  0  0  0  0  0  0  0  0
   40.2280   32.8740   39.8600 N   0  0  0  0  0  0  0  0  0  0  0  0
   40.8430   34.0480   39.7490 C   0  0  0  0  0  0  0  0  0  0  0  0
   40.1660   35.2000   39.9160 N   0  0  0  0  0  0  0  0  0  0  0  0
   38.2830   36.0740   40.3360 H   0  0  0  0  0  0  0  0  0  0  0  0
   37.1730   33.8900   40.5340 H   0  0  0  0  0  0  0  0  0  0  0  0
   42.7730   33.8890   38.1680 C   0  0  0  0  0  0  0  0  0  0  0  0
   42.2710   34.0440   39.4440 C   0  0  0  0  0  0  0  0  0  0  0  0
   43.1640   34.2020   40.4830 C   0  0  0  0  0  0  0  0  0  0  0  0
   42.8310   34.3280   41.5090 H   0  0  0  0  0  0  0  0  0  0  0  0
   44.5370   34.2130   40.2990 C   0  0  0  0  0  3  0  0  0  0  0  0
   45.0340   34.0550   39.0040 C   0  0  0  0  0  3  0  0  0  0  0  0
   44.1390   33.8970   37.9680 C   0  0  0  0  0  0  0  0  0  0  0  0
   41.8670   33.7300   37.1270 O   0  0  0  0  0  0  0  0  0  0  0  0
   41.9290   32.8290   36.6330 H   0  0  0  0  0  0  0  0  0  0  0  0
   44.6620   33.7450   36.7120 O   0  0  0  0  0  0  0  0  0  0  0  0
   44.1850   33.4810   35.8830 H   0  0  0  0  0  0  0  0  0  0  0  0
  1  2  1  0  0  0  0
  2  7  2  0  0  0  0
  2  3  1  0  0  0  0
  3  4  2  0  0  0  0
  4  5  1  0  0  0  0
  4  8  1  0  0  0  0
  5  9  1  0  0  0  0
  6 10  1  0  0  0  0
  6  5  2  0  0  0  0
  7  6  1  0  0  0  0
 11 16  1  0  0  0  0
 11  7  1  0  0  0  0
 12 11  2  0  0  0  0
 13 14  2  0  0  0  0
 13 12  1  0  0  0  0
 14 15  1  0  0  0  0
 15 20  1  0  0  0  0
 15 16  2  0  0  0  0
 16 21  1  0  0  0  0
 17 12  1  0  0  0  0
 18 13  1  0  0  0  0
 19 14  1  0  0  0  0
 21 22  1  0  0  0  0
 23 24  1  0  0  0  0
 23 29  1  0  0  0  0
 24 30  1  0  0  0  0
 25  3  1  0  0  0  0
 25 24  2  0  0  0  0
 26 25  1  0  0  0  0
 27 26  2  0  0  0  0
 27 28  1  0  0  0  0
 28 23  2  0  0  0  0
 31 32  1  0  0  0  0
 32 27  1  0  0  0  0
 32 33  2  0  0  0  0
 33 34  1  0  0  0  0
 35 33  1  0  0  0  0
 36 35  2  0  0  0  0
 37 31  2  0  0  0  0
 37 36  1  0  0  0  0
 38 31  1  0  0  0  0
 39 38  1  0  0  0  0
 40 37  1  0  0  0  0
 41 40  1  0  0  0  0
M  END
>  <minimizedAffinity>
-7.49970818

$$$$

 OpenBabel03242522323D

 41 44  0  0  0  0  0  0  0  0999 V2000
   39.4260   30.8330   41.5910 F   0  0  0  0  0  0  0  0  0  0  0  0
   38.4220   30.6210   40.7030 C   0  0  0  0  0  0  0  0  0  0  0  0
   38.0350   31.5850   39.8370 C   0  0  0  0  0  0  0  0  0  0  0  0
   37.0060   31.2810   38.9710 C   0  0  0  0  0  0  0  0  0  0  0  0
   36.3840   30.0590   38.9650 C   0  0  0  0  0  0  0  0  0  0  0  0
   36.8300   29.1350   39.8720 C   0  0  0  0  0  0  0  0  0  0  0  0
   37.8380   29.3750   40.7480 C   0  0  0  0  0  0  0  0  0  0  0  0
   36.6970   32.0610   38.2730 H   0  0  0  0  0  0  0  0  0  0  0  0
   35.5750   29.8510   38.2710 H   0  0  0  0  0  0  0  0  0  0  0  0
   36.3300   28.1660   39.8610 H   0  0  0  0  0  0  0  0  0  0  0  0
   38.2190   28.3170   41.6540 C   0  0  0  0  0  0  0  0  0  0  0  0
   39.0360   27.2890   41.2060 C   0  0  0  0  0  0  0  0  0  0  0  0
   39.3870   26.3020   42.0760 C   0  0  0  0  0  0  0  0  0  0  0  0
   38.9390   26.3130   43.4020 C   0  0  0  0  0  0  0  0  0  0  0  0
   38.1200   27.3710   43.7970 C   0  0  0  0  0  0  0  0  0  0  0  0
   37.7630   28.3650   42.9300 C   0  0  0  0  0  0  0  0  0  0  0  0
   39.3590   27.3300   40.1590 H   0  0  0  0  0  0  0  0  0  0  0  0
   40.0240   25.5140   41.7010 H   0  0  0  0  0  0  0  0  0  0  0  0
   39.2570   25.5000   44.0300 H   0  0  0  0  0  0  0  0  0  0  0  0
   37.8440   27.2630   44.8380 H   0  0  0  0  0  0  0  0  0  0  0  0
   36.9550   29.2820   43.5590 O   0  0  0  0  0  0  0  0  0  0  0  0
   36.0180   28.9470   43.8270 H   0  0  0  0  0  0  0  0  0  0  0  0
   38.7830   35.2850   40.1370 C   0  0  0  0  0  0  0  0  0  0  0  0
   38.0840   34.0750   40.1050 C   0  0  0  0  0  0  0  0  0  0  0  0
   38.7360   32.8810   39.8790 C   0  0  0  0  0  0  0  0  0  0  0  0
   40.0740   32.9720   39.6950 N   0  0  0  0  0  0  0  0  0  0  0  0
   40.7340   34.1260   39.7260 C   0  0  0  0  0  0  0  0  0  0  0  0
   40.0880   35.2860   39.9480 N   0  0  0  0  0  0  0  0  0  0  0  0
   38.2120   36.1960   40.3210 H   0  0  0  0  0  0  0  0  0  0  0  0
   37.0170   34.0490   40.2570 H   0  0  0  0  0  0  0  0  0  0  0  0
   43.0990   34.2120   40.5350 C   0  0  0  0  0  0  0  0  0  0  0  0
   42.1780   34.0900   39.5140 C   0  0  0  0  0  0  0  0  0  0  0  0
   42.6490   33.9290   38.2260 C   0  0  0  0  0  0  0  0  0  0  0  0
   41.9750   33.8280   37.3810 H   0  0  0  0  0  0  0  0  0  0  0  0
   43.9990   33.8830   37.9190 C   0  0  0  0  0  3  0  0  0  0  0  0
   44.9200   34.0070   38.9600 C   0  0  0  0  0  3  0  0  0  0  0  0
   44.4480   34.1680   40.2450 C   0  0  0  0  0  0  0  0  0  0  0  0
   42.6180   34.3750   41.8280 O   0  0  0  0  0  0  0  0  0  0  0  0
   42.8730   35.2650   42.2760 H   0  0  0  0  0  0  0  0  0  0  0  0
   45.3800   34.2860   41.2400 O   0  0  0  0  0  0  0  0  0  0  0  0
   45.2310   34.5470   42.1850 H   0  0  0  0  0  0  0  0  0  0  0  0
  2  7  1  0  0  0  0
  2  1  1  0  0  0  0
  3 25  1  0  0  0  0
  3  2  2  0  0  0  0
  4  3  1  0  0  0  0
  5  4  2  0  0  0  0
  5  6  1  0  0  0  0
  6  7  2  0  0  0  0
  7 11  1  0  0  0  0
  8  4  1  0  0  0  0
  9  5  1  0  0  0  0
 10  6  1  0  0  0  0
 11 16  1  0  0  0  0
 12 11  2  0  0  0  0
 12 13  1  0  0  0  0
 13 14  2  0  0  0  0
 14 15  1  0  0  0  0
 14 19  1  0  0  0  0
 15 20  1  0  0  0  0
 16 21  1  0  0  0  0
 16 15  2  0  0  0  0
 17 12  1  0  0  0  0
 18 13  1  0  0  0  0
 21 22  1  0  0  0  0
 23 29  1  0  0  0  0
 24 23  1  0  0  0  0
 24 30  1  0  0  0  0
 25 24  2  0  0  0  0
 26 27  2  0  0  0  0
 26 25  1  0  0  0  0
 27 28  1  0  0  0  0
 28 23  2  0  0  0  0
 31 38  1  0  0  0  0
 32 27  1  0  0  0  0
 32 31  2  0  0  0  0
 33 32  1  0  0  0  0
 34 33  1  0  0  0  0
 35 33  2  0  0  0  0
 35 36  1  0  0  0  0
 36 37  2  0  0  0  0
 37 31  1  0  0  0  0
 37 40  1  0  0  0  0
 38 39  1  0  0  0  0
 40 41  1  0  0  0  0
M  END
>  <minimizedAffinity>
-7.34417915

$$$$

 OpenBabel03242522323D

 41 44  0  0  0  0  0  0  0  0999 V2000
   39.4020   30.5530   39.5890 F   0  0  0  0  0  0  0  0  0  0  0  0
   38.9270   31.8210   39.6780 C   0  0  0  0  0  0  0  0  0  0  0  0
   39.7560   32.8680   39.8900 C   0  0  0  0  0  0  0  0  0  0  0  0
   39.1860   34.1220   39.9670 C   0  0  0  0  0  0  0  0  0  0  0  0
   37.8370   34.3260   39.8360 C   0  0  0  0  0  0  0  0  0  0  0  0
   37.0620   33.2170   39.6240 C   0  0  0  0  0  0  0  0  0  0  0  0
   37.5650   31.9600   39.5390 C   0  0  0  0  0  0  0  0  0  0  0  0
   39.8580   34.9640   40.1380 H   0  0  0  0  0  0  0  0  0  0  0  0
   37.4170   35.3260   39.9020 H   0  0  0  0  0  0  0  0  0  0  0  0
   35.9900   33.3880   39.5210 H   0  0  0  0  0  0  0  0  0  0  0  0
   36.6430   30.8720   39.3110 C   0  0  0  0  0  0  0  0  0  0  0  0
   36.5240   30.3270   38.0400 C   0  0  0  0  0  0  0  0  0  0  0  0
   35.6520   29.2990   37.8450 C   0  0  0  0  0  0  0  0  0  0  0  0
   34.8840   28.7920   38.9000 C   0  0  0  0  0  0  0  0  0  0  0  0
   35.0450   29.3790   40.1560 C   0  0  0  0  0  0  0  0  0  0  0  0
   35.9180   30.4100   40.3590 C   0  0  0  0  0  0  0  0  0  0  0  0
   37.1500   30.7600   37.2510 H   0  0  0  0  0  0  0  0  0  0  0  0
   35.5800   28.8930   36.8460 H   0  0  0  0  0  0  0  0  0  0  0  0
   34.2180   27.9810   38.6700 H   0  0  0  0  0  0  0  0  0  0  0  0
   34.3990   28.8990   40.8790 H   0  0  0  0  0  0  0  0  0  0  0  0
   35.8890   30.8100   41.6740 O   0  0  0  0  0  0  0  0  0  0  0  0
   35.0180   31.2620   41.9880 H   0  0  0  0  0  0  0  0  0  0  0  0
   43.2320   32.3910   41.3150 C   0  0  0  0  0  0  0  0  0  0  0  0
   41.8620   32.6520   41.2300 C   0  0  0  0  0  0  0  0  0  0  0  0
   41.2000   32.5990   40.0220 C   0  0  0  0  0  0  0  0  0  0  0  0
   41.9640   32.2800   38.9510 N   0  0  0  0  0  0  0  0  0  0  0  0
   43.2670   32.0320   39.0370 C   0  0  0  0  0  0  0  0  0  0  0  0
   43.9040   32.0870   40.2220 N   0  0  0  0  0  0  0  0  0  0  0  0
   43.6990   32.4480   42.2990 H   0  0  0  0  0  0  0  0  0  0  0  0
   41.2920   32.9020   42.1110 H   0  0  0  0  0  0  0  0  0  0  0  0
   43.5040   30.8030   36.8720 C   0  0  0  0  0  0  0  0  0  0  0  0
   43.9800   31.6990   37.8070 C   0  0  0  0  0  0  0  0  0  0  0  0
   45.1940   32.3100   37.5660 C   0  0  0  0  0  0  0  0  0  0  0  0
   45.6220   33.0240   38.2630 H   0  0  0  0  0  0  0  0  0  0  0  0
   45.9480   32.0620   36.4310 C   0  0  0  0  0  3  0  0  0  0  0  0
   45.4560   31.1540   35.4930 C   0  0  0  0  0  3  0  0  0  0  0  0
   44.2440   30.5450   35.7360 C   0  0  0  0  0  0  0  0  0  0  0  0
   42.2810   30.1910   37.1220 O   0  0  0  0  0  0  0  0  0  0  0  0
   42.3220   29.1680   37.2260 H   0  0  0  0  0  0  0  0  0  0  0  0
   43.7920   29.6600   34.7940 O   0  0  0  0  0  0  0  0  0  0  0  0
   43.0270   29.0330   34.8670 H   0  0  0  0  0  0  0  0  0  0  0  0
  1  2  1  0  0  0  0
  2  3  1  0  0  0  0
  3  4  2  0  0  0  0
  3 25  1  0  0  0  0
  4  8  1  0  0  0  0
  5  9  1  0  0  0  0
  5  4  1  0  0  0  0
  6  5  2  0  0  0  0
  7  6  1  0  0  0  0
  7  2  2  0  0  0  0
 10  6  1  0  0  0  0
 11  7  1  0  0  0  0
 11 16  1  0  0  0  0
 12 11  2  0  0  0  0
 13 12  1  0  0  0  0
 13 14  2  0  0  0  0
 14 15  1  0  0  0  0
 15 16  2  0  0  0  0
 15 20  1  0  0  0  0
 16 21  1  0  0  0  0
 17 12  1  0  0  0  0
 18 13  1  0  0  0  0
 19 14  1  0  0  0  0
 21 22  1  0  0  0  0
 23 29  1  0  0  0  0
 24 23  1  0  0  0  0
 24 30  1  0  0  0  0
 25 24  2  0  0  0  0
 26 27  2  0  0  0  0
 26 25  1  0  0  0  0
 27 28  1  0  0  0  0
 28 23  2  0  0  0  0
 31 38  1  0  0  0  0
 31 32  1  0  0  0  0
 32 27  1  0  0  0  0
 33 32  2  0  0  0  0
 33 34  1  0  0  0  0
 35 33  1  0  0  0  0
 36 37  1  0  0  0  0
 36 35  2  0  0  0  0
 37 31  2  0  0  0  0
 38 39  1  0  0  0  0
 40 41  1  0  0  0  0
 40 37  1  0  0  0  0
M  END
>  <minimizedAffinity>
-7.05565548

$$$$

 OpenBabel03242522323D

 41 44  0  0  0  0  0  0  0  0999 V2000
   39.7520   26.8650   40.9510 F   0  0  0  0  0  0  0  0  0  0  0  0
   38.8510   27.2760   41.8790 C   0  0  0  0  0  0  0  0  0  0  0  0
   39.0770   28.3710   42.6390 C   0  0  0  0  0  0  0  0  0  0  0  0
   38.1070   28.7140   43.5580 C   0  0  0  0  0  0  0  0  0  0  0  0
   36.9510   27.9940   43.7130 C   0  0  0  0  0  0  0  0  0  0  0  0
   36.7940   26.8980   42.9070 C   0  0  0  0  0  0  0  0  0  0  0  0
   37.7120   26.5110   41.9860 C   0  0  0  0  0  0  0  0  0  0  0  0
   38.2920   29.5990   44.1690 H   0  0  0  0  0  0  0  0  0  0  0  0
   36.2060   28.2890   44.4460 H   0  0  0  0  0  0  0  0  0  0  0  0
   35.8730   26.3300   43.0370 H   0  0  0  0  0  0  0  0  0  0  0  0
   37.4300   25.3350   41.1950 C   0  0  0  0  0  0  0  0  0  0  0  0
   36.6600   25.4500   40.0470 C   0  0  0  0  0  0  0  0  0  0  0  0
   36.4060   24.3310   39.3120 C   0  0  0  0  0  0  0  0  0  0  0  0
   36.9090   23.0820   39.6980 C   0  0  0  0  0  0  0  0  0  0  0  0
   37.6770   23.0280   40.8610 C   0  0  0  0  0  0  0  0  0  0  0  0
   37.9350   24.1460   41.6040 C   0  0  0  0  0  0  0  0  0  0  0  0
   36.2920   26.4500   39.7900 H   0  0  0  0  0  0  0  0  0  0  0  0
   35.8040   24.4480   38.4220 H   0  0  0  0  0  0  0  0  0  0  0  0
   36.6670   22.2460   39.0690 H   0  0  0  0  0  0  0  0  0  0  0  0
   38.0030   22.0130   41.0480 H   0  0  0  0  0  0  0  0  0  0  0  0
   38.7070   23.8280   42.6960 O   0  0  0  0  0  0  0  0  0  0  0  0
   38.2510   23.2490   43.4160 H   0  0  0  0  0  0  0  0  0  0  0  0
   42.6790   29.5180   42.8580 C   0  0  0  0  0  0  0  0  0  0  0  0
   41.5080   28.7880   43.0780 C   0  0  0  0  0  0  0  0  0  0  0  0
   40.3330   29.1150   42.4350 C   0  0  0  0  0  0  0  0  0  0  0  0
   40.4030   30.1730   41.5940 N   0  0  0  0  0  0  0  0  0  0  0  0
   41.5200   30.8650   41.3880 C   0  0  0  0  0  0  0  0  0  0  0  0
   42.6620   30.5370   42.0210 N   0  0  0  0  0  0  0  0  0  0  0  0
   43.5770   29.2100   43.3960 H   0  0  0  0  0  0  0  0  0  0  0  0
   41.4980   27.9500   43.7570 H   0  0  0  0  0  0  0  0  0  0  0  0
   40.5060   32.9770   40.5150 C   0  0  0  0  0  0  0  0  0  0  0  0
   41.4650   31.9870   40.4550 C   0  0  0  0  0  0  0  0  0  0  0  0
   42.4200   32.0610   39.4620 C   0  0  0  0  0  0  0  0  0  0  0  0
   43.2000   31.3130   39.3630 H   0  0  0  0  0  0  0  0  0  0  0  0
   42.4550   33.0840   38.5280 C   0  0  0  0  0  3  0  0  0  0  0  0
   41.4800   34.0800   38.5980 C   0  0  0  0  0  3  0  0  0  0  0  0
   40.5270   34.0030   39.5910 C   0  0  0  0  0  0  0  0  0  0  0  0
   39.5470   32.8950   41.5170 O   0  0  0  0  0  0  0  0  0  0  0  0
   38.5800   32.7870   41.1830 H   0  0  0  0  0  0  0  0  0  0  0  0
   39.5870   34.9970   39.6290 O   0  0  0  0  0  0  0  0  0  0  0  0
   38.7570   35.0280   40.1720 H   0  0  0  0  0  0  0  0  0  0  0  0
  1  2  1  0  0  0  0
  2  7  2  0  0  0  0
  2  3  1  0  0  0  0
  3  4  2  0  0  0  0
  4  5  1  0  0  0  0
  4  8  1  0  0  0  0
  5  9  1  0  0  0  0
  6 10  1  0  0  0  0
  6  5  2  0  0  0  0
  7  6  1  0  0  0  0
 11 16  1  0  0  0  0
 11  7  1  0  0  0  0
 12 11  2  0  0  0  0
 13 14  2  0  0  0  0
 13 12  1  0  0  0  0
 14 15  1  0  0  0  0
 15 20  1  0  0  0  0
 15 16  2  0  0  0  0
 16 21  1  0  0  0  0
 17 12  1  0  0  0  0
 18 13  1  0  0  0  0
 19 14  1  0  0  0  0
 21 22  1  0  0  0  0
 23 24  1  0  0  0  0
 23 29  1  0  0  0  0
 24 30  1  0  0  0  0
 25  3  1  0  0  0  0
 25 24  2  0  0  0  0
 26 25  1  0  0  0  0
 27 26  2  0  0  0  0
 27 28  1  0  0  0  0
 28 23  2  0  0  0  0
 31 38  1  0  0  0  0
 32 31  1  0  0  0  0
 32 27  1  0  0  0  0
 33 32  2  0  0  0  0
 34 33  1  0  0  0  0
 35 36  2  0  0  0  0
 35 33  1  0  0  0  0
 36 37  1  0  0  0  0
 37 40  1  0  0  0  0
 37 31  2  0  0  0  0
 39 38  1  0  0  0  0
 40 41  1  0  0  0  0
M  END
>  <minimizedAffinity>
-7.04341936

$$$$

 OpenBabel03242522323D

 41 44  0  0  0  0  0  0  0  0999 V2000
   38.6480   29.7420   40.9610 F   0  0  0  0  0  0  0  0  0  0  0  0
   37.7390   29.6760   39.9560 C   0  0  0  0  0  0  0  0  0  0  0  0
   37.4940   30.7410   39.1600 C   0  0  0  0  0  0  0  0  0  0  0  0
   36.5540   30.5840   38.1630 C   0  0  0  0  0  0  0  0  0  0  0  0
   35.8800   29.4060   37.9650 C   0  0  0  0  0  0  0  0  0  0  0  0
   36.1820   28.3730   38.8110 C   0  0  0  0  0  0  0  0  0  0  0  0
   37.0970   28.4670   39.8090 C   0  0  0  0  0  0  0  0  0  0  0  0
   36.3590   31.4450   37.5230 H   0  0  0  0  0  0  0  0  0  0  0  0
   35.1440   29.3140   37.1720 H   0  0  0  0  0  0  0  0  0  0  0  0
   35.6420   27.4400   38.6470 H   0  0  0  0  0  0  0  0  0  0  0  0
   37.3270   27.3040   40.6340 C   0  0  0  0  0  0  0  0  0  0  0  0
   38.0230   26.2220   40.1160 C   0  0  0  0  0  0  0  0  0  0  0  0
   38.2330   25.1350   40.9110 C   0  0  0  0  0  0  0  0  0  0  0  0
   37.7610   25.1000   42.2280 C   0  0  0  0  0  0  0  0  0  0  0  0
   37.0670   26.2170   42.6950 C   0  0  0  0  0  0  0  0  0  0  0  0
   36.8530   27.3100   41.9040 C   0  0  0  0  0  0  0  0  0  0  0  0
   38.3720   26.3020   39.0800 H   0  0  0  0  0  0  0  0  0  0  0  0
   38.7780   24.3060   40.4830 H   0  0  0  0  0  0  0  0  0  0  0  0
   37.9640   24.2090   42.7940 H   0  0  0  0  0  0  0  0  0  0  0  0
   36.7580   26.0640   43.7200 H   0  0  0  0  0  0  0  0  0  0  0  0
   36.1480   28.2690   42.5930 O   0  0  0  0  0  0  0  0  0  0  0  0
   35.1720   28.0320   42.8220 H   0  0  0  0  0  0  0  0  0  0  0  0
   38.4060   34.2760   40.1680 C   0  0  0  0  0  0  0  0  0  0  0  0
   37.6610   33.1140   39.9460 C   0  0  0  0  0  0  0  0  0  0  0  0
   38.2440   31.9860   39.4100 C   0  0  0  0  0  0  0  0  0  0  0  0
   39.5630   32.0900   39.1250 N   0  0  0  0  0  0  0  0  0  0  0  0
   40.2680   33.1970   39.3380 C   0  0  0  0  0  0  0  0  0  0  0  0
   39.6880   34.2940   39.8620 N   0  0  0  0  0  0  0  0  0  0  0  0
   37.8880   35.1360   40.5950 H   0  0  0  0  0  0  0  0  0  0  0  0
   36.6110   33.0760   40.1890 H   0  0  0  0  0  0  0  0  0  0  0  0
   42.1650   32.6960   37.7890 C   0  0  0  0  0  0  0  0  0  0  0  0
   41.6850   33.1820   38.9880 C   0  0  0  0  0  0  0  0  0  0  0  0
   42.5920   33.6770   39.9020 C   0  0  0  0  0  0  0  0  0  0  0  0
   42.2770   34.0730   40.8630 H   0  0  0  0  0  0  0  0  0  0  0  0
   43.9570   33.7080   39.6660 C   0  0  0  0  0  3  0  0  0  0  0  0
   44.4310   33.2130   38.4500 C   0  0  0  0  0  3  0  0  0  0  0  0
   43.5230   32.7190   37.5390 C   0  0  0  0  0  0  0  0  0  0  0  0
   41.2460   32.1990   36.8740 O   0  0  0  0  0  0  0  0  0  0  0  0
   41.3520   31.1990   36.6530 H   0  0  0  0  0  0  0  0  0  0  0  0
   44.0240   32.2430   36.3570 O   0  0  0  0  0  0  0  0  0  0  0  0
   43.5440   31.7290   35.6570 H   0  0  0  0  0  0  0  0  0  0  0  0
  2  1  1  0  0  0  0
  3 25  1  0  0  0  0
  3  2  2  0  0  0  0
  4  3  1  0  0  0  0
  5  4  2  0  0  0  0
  5  6  1  0  0  0  0
  6  7  2  0  0  0  0
  7  2  1  0  0  0  0
  7 11  1  0  0  0  0
  8  4  1  0  0  0  0
  9  5  1  0  0  0  0
 10  6  1  0  0  0  0
 11 16  1  0  0  0  0
 12 11  2  0  0  0  0
 12 13  1  0  0  0  0
 13 14  2  0  0  0  0
 14 15  1  0  0  0  0
 14 19  1  0  0  0  0
 15 20  1  0  0  0  0
 16 21  1  0  0  0  0
 16 15  2  0  0  0  0
 17 12  1  0  0  0  0
 18 13  1  0  0  0  0
 21 22  1  0  0  0  0
 23 29  1  0  0  0  0
 24 23  1  0  0  0  0
 24 30  1  0  0  0  0
 25 24  2  0  0  0  0
 26 27  2  0  0  0  0
 26 25  1  0  0  0  0
 27 28  1  0  0  0  0
 28 23  2  0  0  0  0
 31 32  1  0  0  0  0
 32 27  1  0  0  0  0
 32 33  2  0  0  0  0
 33 34  1  0  0  0  0
 35 33  1  0  0  0  0
 36 35  2  0  0  0  0
 37 31  2  0  0  0  0
 37 36  1  0  0  0  0
 38 31  1  0  0  0  0
 39 38  1  0  0  0  0
 40 37  1  0  0  0  0
 41 40  1  0  0  0  0
M  END
>  <minimizedAffinity>
-7.01616526

$$$$

 OpenBabel03242522323D

 41 44  0  0  0  0  0  0  0  0999 V2000
   38.0910   26.3630   39.6760 F   0  0  0  0  0  0  0  0  0  0  0  0
   38.6220   26.1590   40.9080 C   0  0  0  0  0  0  0  0  0  0  0  0
   38.5110   27.0890   41.8830 C   0  0  0  0  0  0  0  0  0  0  0  0
   39.0830   26.7970   43.1040 C   0  0  0  0  0  0  0  0  0  0  0  0
   39.7410   25.6190   43.3470 C   0  0  0  0  0  0  0  0  0  0  0  0
   39.8120   24.7270   42.3110 C   0  0  0  0  0  0  0  0  0  0  0  0
   39.2700   24.9580   41.0880 C   0  0  0  0  0  0  0  0  0  0  0  0
   38.9910   27.5500   43.8880 H   0  0  0  0  0  0  0  0  0  0  0  0
   40.1810   25.4190   44.3190 H   0  0  0  0  0  0  0  0  0  0  0  0
   40.3370   23.7930   42.5110 H   0  0  0  0  0  0  0  0  0  0  0  0
   39.4120   23.9360   40.0770 C   0  0  0  0  0  0  0  0  0  0  0  0
   40.3660   24.0830   39.0810 C   0  0  0  0  0  0  0  0  0  0  0  0
   40.4870   23.1080   38.1380 C   0  0  0  0  0  0  0  0  0  0  0  0
   39.6690   21.9720   38.1620 C   0  0  0  0  0  0  0  0  0  0  0  0
   38.7270   21.8780   39.1870 C   0  0  0  0  0  0  0  0  0  0  0  0
   38.6000   22.8520   40.1370 C   0  0  0  0  0  0  0  0  0  0  0  0
   40.9810   24.9910   39.1090 H   0  0  0  0  0  0  0  0  0  0  0  0
   41.2380   23.2480   37.3730 H   0  0  0  0  0  0  0  0  0  0  0  0
   39.8220   21.2460   37.3850 H   0  0  0  0  0  0  0  0  0  0  0  0
   38.1630   20.9590   39.0940 H   0  0  0  0  0  0  0  0  0  0  0  0
   37.6060   22.5250   41.0290 O   0  0  0  0  0  0  0  0  0  0  0  0
   36.6460   22.5290   40.6530 H   0  0  0  0  0  0  0  0  0  0  0  0
   35.7720   29.6200   41.2270 C   0  0  0  0  0  0  0  0  0  0  0  0
   36.4170   28.4160   41.5210 C   0  0  0  0  0  0  0  0  0  0  0  0
   37.7930   28.3400   41.5750 C   0  0  0  0  0  0  0  0  0  0  0  0
   38.4520   29.4950   41.3260 N   0  0  0  0  0  0  0  0  0  0  0  0
   37.8340   30.6380   41.0460 C   0  0  0  0  0  0  0  0  0  0  0  0
   36.4900   30.7020   40.9960 N   0  0  0  0  0  0  0  0  0  0  0  0
   34.6820   29.6170   41.2000 H   0  0  0  0  0  0  0  0  0  0  0  0
   35.8510   27.5190   41.7140 H   0  0  0  0  0  0  0  0  0  0  0  0
   38.1500   33.0190   40.3490 C   0  0  0  0  0  0  0  0  0  0  0  0
   38.6590   31.8160   40.7960 C   0  0  0  0  0  0  0  0  0  0  0  0
   40.0180   31.7250   41.0170 C   0  0  0  0  0  0  0  0  0  0  0  0
   40.4790   30.8070   41.3690 H   0  0  0  0  0  0  0  0  0  0  0  0
   40.8870   32.7840   40.8110 C   0  0  0  0  0  3  0  0  0  0  0  0
   40.3610   33.9950   40.3580 C   0  0  0  0  0  3  0  0  0  0  0  0
   39.0030   34.0830   40.1370 C   0  0  0  0  0  0  0  0  0  0  0  0
   36.7810   33.1030   40.1270 O   0  0  0  0  0  0  0  0  0  0  0  0
   36.5110   33.2910   39.1520 H   0  0  0  0  0  0  0  0  0  0  0  0
   38.5220   35.2860   39.6940 O   0  0  0  0  0  0  0  0  0  0  0  0
   37.6130   35.4880   39.3510 H   0  0  0  0  0  0  0  0  0  0  0  0
  1  2  1  0  0  0  0
  2  7  2  0  0  0  0
  2  3  1  0  0  0  0
  3  4  2  0  0  0  0
  4  5  1  0  0  0  0
  4  8  1  0  0  0  0
  5  9  1  0  0  0  0
  6 10  1  0  0  0  0
  6  5  2  0  0  0  0
  7  6  1  0  0  0  0
 11 16  1  0  0  0  0
 11  7  1  0  0  0  0
 12 17  1  0  0  0  0
 12 11  2  0  0  0  0
 13 14  2  0  0  0  0
 13 12  1  0  0  0  0
 14 15  1  0  0  0  0
 15 16  2  0  0  0  0
 16 21  1  0  0  0  0
 18 13  1  0  0  0  0
 19 14  1  0  0  0  0
 20 15  1  0  0  0  0
 22 21  1  0  0  0  0
 23 24  1  0  0  0  0
 24 25  2  0  0  0  0
 24 30  1  0  0  0  0
 25  3  1  0  0  0  0
 26 25  1  0  0  0  0
 27 26  2  0  0  0  0
 28 27  1  0  0  0  0
 28 23  2  0  0  0  0
 29 23  1  0  0  0  0
 31 32  1  0  0  0  0
 32 33  2  0  0  0  0
 32 27  1  0  0  0  0
 33 34  1  0  0  0  0
 35 33  1  0  0  0  0
 36 35  2  0  0  0  0
 37 31  2  0  0  0  0
 37 36  1  0  0  0  0
 38 31  1  0  0  0  0
 39 38  1  0  0  0  0
 40 37  1  0  0  0  0
 41 40  1  0  0  0  0
M  END
>  <minimizedAffinity>
-7.00434685

$$$$
