
 OpenBabel03242521403D

 23 24  0  0  0  0  0  0  0  0999 V2000
   45.3640   35.2220   43.5600 C   0  0  0  0  0  0  0  0  0  0  0  0
   46.5470   34.7870   42.9670 C   0  0  0  0  0  0  0  0  0  0  0  0
   47.3120   33.8190   43.6220 C   0  0  0  0  0  0  0  0  0  0  0  0
   46.8500   33.3600   44.8020 N   0  0  0  0  0  0  0  0  0  0  0  0
   45.6980   33.7990   45.3520 C   0  0  0  0  0  0  0  0  0  0  0  0
   44.9550   34.7350   44.7250 N   0  0  0  0  0  0  0  0  0  0  0  0
   46.8360   35.2030   42.0350 H   0  0  0  0  0  0  0  0  0  0  0  0
   45.3720   33.3910   46.3110 H   0  0  0  0  0  0  0  0  0  0  0  0
   48.6720   31.9870   42.7770 C   0  0  0  0  0  0  0  0  0  0  0  0
   48.5430   33.3310   43.0610 C   0  0  0  0  0  0  0  0  0  0  0  0
   49.6550   34.0900   42.7640 C   0  0  0  0  0  0  0  0  0  0  0  0
   49.6130   35.1510   42.9650 H   0  0  0  0  0  0  0  0  0  0  0  0
   50.8180   33.5570   42.2220 C   0  0  0  0  0  3  0  0  0  0  0  0
   50.9150   32.2100   41.9490 C   0  0  0  0  0  3  0  0  0  0  0  0
   49.8140   31.4290   42.2380 C   0  0  0  0  0  0  0  0  0  0  0  0
   47.6330   31.0690   43.0190 O   0  0  0  0  0  0  0  0  0  0  0  0
   46.8280   31.1840   42.3960 H   0  0  0  0  0  0  0  0  0  0  0  0
   49.9140   30.0580   41.9600 O   0  0  0  0  0  0  0  0  0  0  0  0
   49.5970   29.6970   41.0620 H   0  0  0  0  0  0  0  0  0  0  0  0
   44.5690   36.2580   42.8330 C   0  0  0  0  0  0  0  0  0  0  0  0
   44.8370   37.2330   43.3330 H   0  0  0  0  0  0  0  0  0  0  0  0
   44.8610   36.3090   41.7650 H   0  0  0  0  0  0  0  0  0  0  0  0
   43.4840   36.1290   42.9390 H   0  0  0  0  0  0  0  0  0  0  0  0
  1  6  1  0  0  0  0
  2  1  2  0  0  0  0
  2  3  1  0  0  0  0
  3  4  2  0  0  0  0
  4  5  1  0  0  0  0
  5  8  1  0  0  0  0
  6  5  2  0  0  0  0
  7  2  1  0  0  0  0
  9 16  1  0  0  0  0
  9 10  1  0  0  0  0
 10  3  1  0  0  0  0
 11 12  1  0  0  0  0
 11 10  2  0  0  0  0
 13 11  1  0  0  0  0
 14 13  2  0  0  0  0
 14 15  1  0  0  0  0
 15  9  2  0  0  0  0
 17 16  1  0  0  0  0
 18 15  1  0  0  0  0
 19 18  1  0  0  0  0
 20 23  1  0  0  0  0
 20 21  1  0  0  0  0
 20  1  1  0  0  0  0
 22 20  1  0  0  0  0
M  END
>  <minimizedAffinity>
-4.36360741

>  <minimizedRMSD>
1.65739238

$$$$
