
 OpenBabel03252503413D

 23 24  0  0  0  0  0  0  0  0999 V2000
   43.8950   33.7770   42.4770 C   0  0  0  0  0  0  0  0  0  0  0  0
   44.2950   34.9120   41.7670 C   0  0  0  0  0  0  0  0  0  0  0  0
   43.6450   35.1860   40.5710 C   0  0  0  0  0  0  0  0  0  0  0  0
   42.6610   34.3420   40.1580 N   0  0  0  0  0  0  0  0  0  0  0  0
   42.2970   33.2590   40.8600 C   0  0  0  0  0  0  0  0  0  0  0  0
   42.9060   32.9630   42.0240 N   0  0  0  0  0  0  0  0  0  0  0  0
   44.3110   33.4330   43.4310 H   0  0  0  0  0  0  0  0  0  0  0  0
   43.9970   36.0630   40.0790 H   0  0  0  0  0  0  0  0  0  0  0  0
   41.3470   31.0220   40.4630 C   0  0  0  0  0  0  0  0  0  0  0  0
   41.2360   32.3830   40.3740 C   0  0  0  0  0  0  0  0  0  0  0  0
   40.0900   32.8870   39.8130 C   0  0  0  0  0  0  0  0  0  0  0  0
   39.9200   33.9390   39.7050 H   0  0  0  0  0  0  0  0  0  0  0  0
   39.0980   32.0310   39.3600 C   0  0  0  0  0  3  0  0  0  0  0  0
   39.2340   30.6590   39.4610 C   0  0  0  0  0  3  0  0  0  0  0  0
   40.3850   30.1350   40.0250 C   0  0  0  0  0  0  0  0  0  0  0  0
   42.5260   30.5160   41.0400 O   0  0  0  0  0  0  0  0  0  0  0  0
   42.6030   30.3020   42.0180 H   0  0  0  0  0  0  0  0  0  0  0  0
   40.6330   28.7640   40.1790 O   0  0  0  0  0  0  0  0  0  0  0  0
   41.1290   28.4210   40.9990 H   0  0  0  0  0  0  0  0  0  0  0  0
   45.3840   35.6830   42.4070 C   0  0  0  0  0  0  0  0  0  0  0  0
   45.0180   36.2630   43.2830 H   0  0  0  0  0  0  0  0  0  0  0  0
   45.7960   36.3640   41.6350 H   0  0  0  0  0  0  0  0  0  0  0  0
   46.1270   34.9700   42.8160 H   0  0  0  0  0  0  0  0  0  0  0  0
  1  7  1  0  0  0  0
  2 20  1  0  0  0  0
  2  1  2  0  0  0  0
  3  2  1  0  0  0  0
  4  3  2  0  0  0  0
  4  5  1  0  0  0  0
  5  6  2  0  0  0  0
  6  1  1  0  0  0  0
  8  3  1  0  0  0  0
  9 16  1  0  0  0  0
 10  9  1  0  0  0  0
 10  5  1  0  0  0  0
 11 10  2  0  0  0  0
 12 11  1  0  0  0  0
 13 14  2  0  0  0  0
 13 11  1  0  0  0  0
 14 15  1  0  0  0  0
 15 18  1  0  0  0  0
 15  9  2  0  0  0  0
 16 17  1  0  0  0  0
 18 19  1  0  0  0  0
 20 23  1  0  0  0  0
 20 21  1  0  0  0  0
 22 20  1  0  0  0  0
M  END
>  <minimizedAffinity>
-2.66475487

>  <minimizedRMSD>
7.90060806

$$$$
