
 OpenBabel03242516343D

 46 49  0  0  1  0  0  0  0  0999 V2000
   49.1020   32.8710   37.6440 C   0  0  1  0  0  0  0  0  0  0  0  0
   48.0860   33.7190   38.5670 C   0  0  1  0  0  0  0  0  0  0  0  0
   47.3450   34.2590   37.5800 O   0  0  0  0  0  0  0  0  0  0  0  0
   46.8800   33.0740   36.9500 C   0  0  0  0  0  0  0  0  0  0  0  0
   48.1760   32.4120   36.5580 C   0  0  1  0  0  0  0  0  0  0  0  0
   49.5730   32.1170   38.2470 H   0  0  0  0  0  0  0  0  0  0  0  0
   48.8070   34.2490   39.1820 H   0  0  0  0  0  0  0  0  0  0  0  0
   46.3280   32.4170   37.6270 H   0  0  0  0  0  0  0  0  0  0  0  0
   46.2190   33.2850   36.1030 H   0  0  0  0  0  0  0  0  0  0  0  0
   48.0600   31.2900   36.5320 H   0  0  0  0  0  0  0  0  0  0  0  0
   49.9520   33.8410   37.0960 O   0  0  0  0  0  0  0  0  0  0  0  0
   50.8650   33.5930   37.3930 H   0  0  0  0  0  0  0  0  0  0  0  0
   47.3460   32.7300   39.2130 O   0  0  0  0  0  0  0  0  0  0  0  0
   47.7630   33.3070   41.4720 C   0  0  2  0  0  0  0  0  0  0  0  0
   46.2250   33.1910   41.6410 C   0  0  1  0  0  0  0  0  0  0  0  0
   46.1400   31.8670   41.9610 O   0  0  0  0  0  0  0  0  0  0  0  0
   46.8840   31.2250   40.9500 C   0  0  0  0  0  0  0  0  0  0  0  0
   47.8760   32.2670   40.3810 C   0  0  1  0  0  0  0  0  0  0  0  0
   48.0460   34.3090   41.1610 H   0  0  0  0  0  0  0  0  0  0  0  0
   45.8560   33.4660   40.6220 H   0  0  0  0  0  0  0  0  0  0  0  0
   47.4570   30.3970   41.3930 H   0  0  0  0  0  0  0  0  0  0  0  0
   46.2160   30.8360   40.1590 H   0  0  0  0  0  0  0  0  0  0  0  0
   48.9030   31.8810   40.2980 H   0  0  0  0  0  0  0  0  0  0  0  0
   44.8140   36.0710   43.6810 C   0  0  0  0  0  0  0  0  0  0  0  0
   45.2650   35.3970   42.5500 C   0  0  0  0  0  0  0  0  0  0  0  0
   45.7330   34.1090   42.6720 C   0  0  0  0  0  0  0  0  0  0  0  0
   45.7250   33.5620   43.9290 N   0  0  0  0  0  0  0  0  0  0  0  0
   45.2850   34.2290   45.0110 C   0  0  0  0  0  0  0  0  0  0  0  0
   44.8300   35.4840   44.8850 N   0  0  0  0  0  0  0  0  0  0  0  0
   44.4730   37.0740   43.4460 H   0  0  0  0  0  0  0  0  0  0  0  0
   45.2950   35.7720   41.5460 H   0  0  0  0  0  0  0  0  0  0  0  0
   45.2870   33.7790   45.9920 H   0  0  0  0  0  0  0  0  0  0  0  0
   48.4110   32.7930   42.5650 O   0  0  0  0  0  0  0  0  0  0  0  0
   47.7400   32.7060   43.3010 H   0  0  0  0  0  0  0  0  0  0  0  0
   48.5670   32.8790   35.3190 O   0  0  0  0  0  0  0  0  0  0  0  0
   48.4440   32.4540   33.0770 C   0  0  0  0  0  0  0  0  0  0  0  0
   49.1020   32.1820   34.2760 C   0  0  0  0  0  0  0  0  0  0  0  0
   50.1540   31.2870   34.2450 C   0  0  0  0  0  0  0  0  0  0  0  0
   50.6060   31.1350   35.2170 H   0  0  0  0  0  0  0  0  0  0  0  0
   50.5480   30.6780   33.0730 C   0  0  0  0  0  0  0  0  0  0  0  0
   49.8930   30.9460   31.8680 C   0  0  0  0  0  0  0  0  0  0  0  0
   48.8400   31.8380   31.8840 C   0  0  0  0  0  0  0  0  0  0  0  0
   47.3630   33.3290   32.9210 O   0  0  0  0  0  0  0  0  0  0  0  0
   47.0300   33.8320   33.7470 H   0  0  0  0  0  0  0  0  0  0  0  0
   48.2190   32.0770   30.6750 O   0  0  0  0  0  0  0  0  0  0  0  0
   47.4050   31.5230   30.4380 H   0  0  0  0  0  0  0  0  0  0  0  0
  1  6  1  1  0  0  0
  1  2  1  0  0  0  0
  2  7  1  1  0  0  0
  2 13  1  0  0  0  0
  3  2  1  0  0  0  0
  4  3  1  0  0  0  0
  4  8  1  0  0  0  0
  5 10  1  6  0  0  0
  5  4  1  0  0  0  0
  5  1  1  0  0  0  0
  9  4  1  0  0  0  0
 11 12  1  0  0  0  0
 11  1  1  0  0  0  0
 13 18  1  0  0  0  0
 14 19  1  6  0  0  0
 14 15  1  0  0  0  0
 14 33  1  0  0  0  0
 15 20  1  6  0  0  0
 15 16  1  0  0  0  0
 15 26  1  0  0  0  0
 17 21  1  0  0  0  0
 17 16  1  0  0  0  0
 18 23  1  6  0  0  0
 18 17  1  0  0  0  0
 18 14  1  0  0  0  0
 22 17  1  0  0  0  0
 24 29  1  0  0  0  0
 25 26  1  0  0  0  0
 25 24  2  0  0  0  0
 26 27  2  0  0  0  0
 27 28  1  0  0  0  0
 28 32  1  0  0  0  0
 29 28  2  0  0  0  0
 30 24  1  0  0  0  0
 31 25  1  0  0  0  0
 33 34  1  0  0  0  0
 35  5  1  0  0  0  0
 36 37  1  0  0  0  0
 37 35  1  0  0  0  0
 38 37  2  0  0  0  0
 38 39  1  0  0  0  0
 40 38  1  0  0  0  0
 41 42  1  0  0  0  0
 41 40  2  0  0  0  0
 42 36  2  0  0  0  0
 43 36  1  0  0  0  0
 43 44  1  0  0  0  0
 45 42  1  0  0  0  0
 46 45  1  0  0  0  0
M  END
>  <minimizedAffinity>
-6.50062609

>  <minimizedRMSD>
2.56495428

$$$$
