
 OpenBabel03242512163D

 23 24  0  0  0  0  0  0  0  0999 V2000
   35.4840   28.8120   40.5670 C   0  0  0  0  0  0  0  0  0  0  0  0
   34.8190   29.3430   41.2790 H   0  0  0  0  0  0  0  0  0  0  0  0
   34.9400   28.0540   39.9920 H   0  0  0  0  0  0  0  0  0  0  0  0
   36.4910   28.0670   41.4130 C   0  0  0  0  0  0  0  0  0  0  0  0
   36.9320   26.8340   40.9370 C   0  0  0  0  0  0  0  0  0  0  0  0
   37.8670   26.1300   41.7010 C   0  0  0  0  0  0  0  0  0  0  0  0
   38.2890   26.6880   42.8570 N   0  0  0  0  0  0  0  0  0  0  0  0
   37.8390   27.8960   43.2970 C   0  0  0  0  0  0  0  0  0  0  0  0
   36.9410   28.5830   42.5730 N   0  0  0  0  0  0  0  0  0  0  0  0
   36.5740   26.4050   39.9960 H   0  0  0  0  0  0  0  0  0  0  0  0
   38.2330   25.1590   41.3530 H   0  0  0  0  0  0  0  0  0  0  0  0
   38.1980   28.3260   44.2380 H   0  0  0  0  0  0  0  0  0  0  0  0
   36.2980   31.0680   40.3150 C   0  0  0  0  0  0  0  0  0  0  0  0
   36.2020   29.8160   39.7350 C   0  0  0  0  0  0  0  0  0  0  0  0
   36.7630   29.5950   38.4810 C   0  0  0  0  0  0  0  0  0  0  0  0
   36.6450   28.5770   38.0920 H   0  0  0  0  0  0  0  0  0  0  0  0
   37.4050   30.6550   37.8560 C   0  0  0  0  0  3  0  0  0  0  0  0
   37.4840   31.8840   38.4540 C   0  0  0  0  0  3  0  0  0  0  0  0
   36.9320   32.1300   39.7050 C   0  0  0  0  0  0  0  0  0  0  0  0
   35.7670   31.3960   41.5760 O   0  0  0  0  0  0  0  0  0  0  0  0
   34.7500   31.2590   41.6540 H   0  0  0  0  0  0  0  0  0  0  0  0
   37.0590   33.4060   40.2380 O   0  0  0  0  0  0  0  0  0  0  0  0
   36.2000   33.8660   40.5390 H   0  0  0  0  0  0  0  0  0  0  0  0
  1  2  1  0  0  0  0
  1  4  1  0  0  0  0
  3  1  1  0  0  0  0
  4  9  1  0  0  0  0
  5  4  2  0  0  0  0
  5  6  1  0  0  0  0
  6  7  2  0  0  0  0
  7  8  1  0  0  0  0
  8 12  1  0  0  0  0
  9  8  2  0  0  0  0
 10  5  1  0  0  0  0
 11  6  1  0  0  0  0
 13 20  1  0  0  0  0
 14 13  1  0  0  0  0
 14  1  1  0  0  0  0
 15 14  2  0  0  0  0
 16 15  1  0  0  0  0
 17 18  2  0  0  0  0
 17 15  1  0  0  0  0
 18 19  1  0  0  0  0
 19 22  1  0  0  0  0
 19 13  2  0  0  0  0
 20 21  1  0  0  0  0
 22 23  1  0  0  0  0
M  END
>  <minimizedAffinity>
-5.42642879

$$$$

 OpenBabel03242512163D

 23 24  0  0  0  0  0  0  0  0999 V2000
   39.1430   27.8360   42.8600 C   0  0  0  0  0  0  0  0  0  0  0  0
   40.2510   27.7870   42.8460 H   0  0  0  0  0  0  0  0  0  0  0  0
   38.7590   28.0580   43.8630 H   0  0  0  0  0  0  0  0  0  0  0  0
   38.6610   26.4440   42.5170 C   0  0  0  0  0  0  0  0  0  0  0  0
   39.6310   25.5000   42.1850 C   0  0  0  0  0  0  0  0  0  0  0  0
   39.2080   24.2060   41.8700 C   0  0  0  0  0  0  0  0  0  0  0  0
   37.8830   23.9460   41.9050 N   0  0  0  0  0  0  0  0  0  0  0  0
   36.9570   24.8910   42.2320 C   0  0  0  0  0  0  0  0  0  0  0  0
   37.3490   26.1380   42.5380 N   0  0  0  0  0  0  0  0  0  0  0  0
   40.6990   25.7370   42.1650 H   0  0  0  0  0  0  0  0  0  0  0  0
   39.9460   23.4420   41.6060 H   0  0  0  0  0  0  0  0  0  0  0  0
   35.8880   24.6540   42.2540 H   0  0  0  0  0  0  0  0  0  0  0  0
   37.5010   29.4310   42.1030 C   0  0  0  0  0  0  0  0  0  0  0  0
   38.6850   28.7790   41.8040 C   0  0  0  0  0  0  0  0  0  0  0  0
   39.3310   29.0450   40.6020 C   0  0  0  0  0  0  0  0  0  0  0  0
   40.2610   28.4880   40.4410 H   0  0  0  0  0  0  0  0  0  0  0  0
   38.7540   29.9660   39.7390 C   0  0  0  0  0  3  0  0  0  0  0  0
   37.5810   30.5960   40.0610 C   0  0  0  0  0  3  0  0  0  0  0  0
   36.9170   30.3480   41.2550 C   0  0  0  0  0  0  0  0  0  0  0  0
   36.7700   29.2350   43.2890 O   0  0  0  0  0  0  0  0  0  0  0  0
   36.4620   28.2660   43.4400 H   0  0  0  0  0  0  0  0  0  0  0  0
   35.7340   31.0320   41.5000 O   0  0  0  0  0  0  0  0  0  0  0  0
   34.9170   30.4680   41.7360 H   0  0  0  0  0  0  0  0  0  0  0  0
  1  3  1  0  0  0  0
  2  1  1  0  0  0  0
  4  9  1  0  0  0  0
  4  1  1  0  0  0  0
  5  4  2  0  0  0  0
  6  7  2  0  0  0  0
  6  5  1  0  0  0  0
  7  8  1  0  0  0  0
  8 12  1  0  0  0  0
  8  9  2  0  0  0  0
 10  5  1  0  0  0  0
 11  6  1  0  0  0  0
 13 20  1  0  0  0  0
 14 13  1  0  0  0  0
 14  1  1  0  0  0  0
 15 14  2  0  0  0  0
 16 15  1  0  0  0  0
 17 18  2  0  0  0  0
 17 15  1  0  0  0  0
 18 19  1  0  0  0  0
 19 22  1  0  0  0  0
 19 13  2  0  0  0  0
 20 21  1  0  0  0  0
 22 23  1  0  0  0  0
M  END
>  <minimizedAffinity>
-4.94289303

$$$$

 OpenBabel03242512163D

 23 24  0  0  0  0  0  0  0  0999 V2000
   36.5610   28.4940   42.3000 C   0  0  0  0  0  0  0  0  0  0  0  0
   36.7080   28.3020   43.3820 H   0  0  0  0  0  0  0  0  0  0  0  0
   35.5070   28.6750   42.0580 H   0  0  0  0  0  0  0  0  0  0  0  0
   36.9470   27.2130   41.5940 C   0  0  0  0  0  0  0  0  0  0  0  0
   37.3970   26.1610   42.3900 C   0  0  0  0  0  0  0  0  0  0  0  0
   37.7530   24.9650   41.7600 C   0  0  0  0  0  0  0  0  0  0  0  0
   37.6410   24.9000   40.4150 N   0  0  0  0  0  0  0  0  0  0  0  0
   37.1990   25.9480   39.6630 C   0  0  0  0  0  0  0  0  0  0  0  0
   36.8530   27.1010   40.2550 N   0  0  0  0  0  0  0  0  0  0  0  0
   37.4770   26.2400   43.4780 H   0  0  0  0  0  0  0  0  0  0  0  0
   38.1090   24.1200   42.3570 H   0  0  0  0  0  0  0  0  0  0  0  0
   37.1170   25.8680   38.5740 H   0  0  0  0  0  0  0  0  0  0  0  0
   36.8510   30.6760   41.3160 C   0  0  0  0  0  0  0  0  0  0  0  0
   37.4850   29.5780   41.8690 C   0  0  0  0  0  0  0  0  0  0  0  0
   38.8720   29.5710   41.9830 C   0  0  0  0  0  0  0  0  0  0  0  0
   39.2960   28.6660   42.4320 H   0  0  0  0  0  0  0  0  0  0  0  0
   39.5710   30.6820   41.5310 C   0  0  0  0  0  3  0  0  0  0  0  0
   38.9160   31.7550   40.9880 C   0  0  0  0  0  3  0  0  0  0  0  0
   37.5320   31.7860   40.8630 C   0  0  0  0  0  0  0  0  0  0  0  0
   35.4570   30.7840   41.1560 O   0  0  0  0  0  0  0  0  0  0  0  0
   35.0410   30.0470   40.5720 H   0  0  0  0  0  0  0  0  0  0  0  0
   36.9510   32.9140   40.3010 O   0  0  0  0  0  0  0  0  0  0  0  0
   36.3220   32.7630   39.5130 H   0  0  0  0  0  0  0  0  0  0  0  0
  1  2  1  0  0  0  0
  3  1  1  0  0  0  0
  4  1  1  0  0  0  0
  4  5  1  0  0  0  0
  5 10  1  0  0  0  0
  6 11  1  0  0  0  0
  6  5  2  0  0  0  0
  7  6  1  0  0  0  0
  8  9  1  0  0  0  0
  8  7  2  0  0  0  0
  9  4  2  0  0  0  0
 12  8  1  0  0  0  0
 13 14  1  0  0  0  0
 14 15  2  0  0  0  0
 14  1  1  0  0  0  0
 15 16  1  0  0  0  0
 17 15  1  0  0  0  0
 18 17  2  0  0  0  0
 19 18  1  0  0  0  0
 19 13  2  0  0  0  0
 20 13  1  0  0  0  0
 21 20  1  0  0  0  0
 22 19  1  0  0  0  0
 23 22  1  0  0  0  0
M  END
>  <minimizedAffinity>
-4.85762882

$$$$

 OpenBabel03242512163D

 23 24  0  0  0  0  0  0  0  0999 V2000
   39.3420   29.4060   40.6150 C   0  0  0  0  0  0  0  0  0  0  0  0
   39.4720   28.7470   39.7320 H   0  0  0  0  0  0  0  0  0  0  0  0
   40.2900   29.5760   41.1390 H   0  0  0  0  0  0  0  0  0  0  0  0
   38.4530   28.6470   41.5740 C   0  0  0  0  0  0  0  0  0  0  0  0
   37.7940   27.5250   41.0750 C   0  0  0  0  0  0  0  0  0  0  0  0
   36.9710   26.8050   41.9460 C   0  0  0  0  0  0  0  0  0  0  0  0
   36.8640   27.2400   43.2210 N   0  0  0  0  0  0  0  0  0  0  0  0
   37.5200   28.3420   43.6790 C   0  0  0  0  0  0  0  0  0  0  0  0
   38.3140   29.0430   42.8540 N   0  0  0  0  0  0  0  0  0  0  0  0
   37.8990   27.1940   40.0380 H   0  0  0  0  0  0  0  0  0  0  0  0
   36.4410   25.9180   41.5850 H   0  0  0  0  0  0  0  0  0  0  0  0
   37.4160   28.6730   44.7180 H   0  0  0  0  0  0  0  0  0  0  0  0
   38.9600   31.7630   40.9500 C   0  0  0  0  0  0  0  0  0  0  0  0
   38.6430   30.6500   40.1920 C   0  0  0  0  0  0  0  0  0  0  0  0
   37.7440   30.7710   39.1370 C   0  0  0  0  0  0  0  0  0  0  0  0
   37.5470   29.8440   38.5860 H   0  0  0  0  0  0  0  0  0  0  0  0
   37.1950   32.0210   38.8860 C   0  0  0  0  0  3  0  0  0  0  0  0
   37.5270   33.1050   39.6530 C   0  0  0  0  0  3  0  0  0  0  0  0
   38.4220   33.0100   40.7120 C   0  0  0  0  0  0  0  0  0  0  0  0
   39.8560   31.7500   42.0350 O   0  0  0  0  0  0  0  0  0  0  0  0
   39.5890   31.1080   42.7940 H   0  0  0  0  0  0  0  0  0  0  0  0
   38.7020   34.1600   41.4370 O   0  0  0  0  0  0  0  0  0  0  0  0
   38.5780   34.1080   42.4480 H   0  0  0  0  0  0  0  0  0  0  0  0
  1  3  1  0  0  0  0
  1  4  1  0  0  0  0
  2  1  1  0  0  0  0
  4  9  1  0  0  0  0
  5  4  2  0  0  0  0
  5  6  1  0  0  0  0
  6  7  2  0  0  0  0
  7  8  1  0  0  0  0
  8 12  1  0  0  0  0
  9  8  2  0  0  0  0
 10  5  1  0  0  0  0
 11  6  1  0  0  0  0
 13 20  1  0  0  0  0
 14  1  1  0  0  0  0
 14 13  2  0  0  0  0
 15 14  1  0  0  0  0
 16 15  1  0  0  0  0
 17 15  2  0  0  0  0
 17 18  1  0  0  0  0
 18 19  2  0  0  0  0
 19 13  1  0  0  0  0
 19 22  1  0  0  0  0
 20 21  1  0  0  0  0
 22 23  1  0  0  0  0
M  END
>  <minimizedAffinity>
-4.77401781

$$$$

 OpenBabel03242512163D

 23 24  0  0  0  0  0  0  0  0999 V2000
   34.9070   29.1570   39.4360 C   0  0  0  0  0  0  0  0  0  0  0  0
   34.0590   28.4670   39.2480 H   0  0  0  0  0  0  0  0  0  0  0  0
   34.5660   30.1270   39.8160 H   0  0  0  0  0  0  0  0  0  0  0  0
   35.5330   29.4240   38.0850 C   0  0  0  0  0  0  0  0  0  0  0  0
   34.9090   28.8620   36.9740 C   0  0  0  0  0  0  0  0  0  0  0  0
   35.4670   29.1010   35.7150 C   0  0  0  0  0  0  0  0  0  0  0  0
   36.5810   29.8630   35.6500 N   0  0  0  0  0  0  0  0  0  0  0  0
   37.1710   30.3980   36.7560 C   0  0  0  0  0  0  0  0  0  0  0  0
   36.6440   30.1770   37.9710 N   0  0  0  0  0  0  0  0  0  0  0  0
   34.0060   28.2490   37.0540 H   0  0  0  0  0  0  0  0  0  0  0  0
   34.9990   28.6740   34.8220 H   0  0  0  0  0  0  0  0  0  0  0  0
   38.0730   31.0130   36.6760 H   0  0  0  0  0  0  0  0  0  0  0  0
   36.3100   29.2190   41.3960 C   0  0  0  0  0  0  0  0  0  0  0  0
   35.9050   28.4740   40.3030 C   0  0  0  0  0  0  0  0  0  0  0  0
   36.4300   27.2000   40.1080 C   0  0  0  0  0  0  0  0  0  0  0  0
   36.0580   26.6760   39.2200 H   0  0  0  0  0  0  0  0  0  0  0  0
   37.3500   26.7230   41.0320 C   0  0  0  0  0  3  0  0  0  0  0  0
   37.7320   27.4840   42.1040 C   0  0  0  0  0  3  0  0  0  0  0  0
   37.2230   28.7580   42.3210 C   0  0  0  0  0  0  0  0  0  0  0  0
   35.8410   30.5140   41.6850 O   0  0  0  0  0  0  0  0  0  0  0  0
   36.0230   31.2040   40.9430 H   0  0  0  0  0  0  0  0  0  0  0  0
   37.6650   29.4590   43.4340 O   0  0  0  0  0  0  0  0  0  0  0  0
   38.0400   30.3940   43.2710 H   0  0  0  0  0  0  0  0  0  0  0  0
  1  3  1  0  0  0  0
  1 14  1  0  0  0  0
  2  1  1  0  0  0  0
  4  1  1  0  0  0  0
  5 10  1  0  0  0  0
  5  4  2  0  0  0  0
  6  5  1  0  0  0  0
  7  6  2  0  0  0  0
  7  8  1  0  0  0  0
  8  9  2  0  0  0  0
  9  4  1  0  0  0  0
 11  6  1  0  0  0  0
 12  8  1  0  0  0  0
 13 20  1  0  0  0  0
 13 19  1  0  0  0  0
 14 13  2  0  0  0  0
 15 14  1  0  0  0  0
 15 17  2  0  0  0  0
 16 15  1  0  0  0  0
 17 18  1  0  0  0  0
 18 19  2  0  0  0  0
 19 22  1  0  0  0  0
 21 20  1  0  0  0  0
 23 22  1  0  0  0  0
M  END
>  <minimizedAffinity>
-4.73403788

$$$$

 OpenBabel03242512163D

 23 24  0  0  0  0  0  0  0  0999 V2000
   38.7670   30.9870   41.3750 C   0  0  0  0  0  0  0  0  0  0  0  0
   37.8890   31.5930   41.6780 H   0  0  0  0  0  0  0  0  0  0  0  0
   39.6990   31.5600   41.4400 H   0  0  0  0  0  0  0  0  0  0  0  0
   38.5650   30.6660   39.9110 C   0  0  0  0  0  0  0  0  0  0  0  0
   37.4810   31.2650   39.2730 C   0  0  0  0  0  0  0  0  0  0  0  0
   37.2780   30.9880   37.9180 C   0  0  0  0  0  0  0  0  0  0  0  0
   38.1470   30.1530   37.3060 N   0  0  0  0  0  0  0  0  0  0  0  0
   39.1990   29.5810   37.9570 C   0  0  0  0  0  0  0  0  0  0  0  0
   39.4050   29.8400   39.2580 N   0  0  0  0  0  0  0  0  0  0  0  0
   36.7920   31.9380   39.7930 H   0  0  0  0  0  0  0  0  0  0  0  0
   36.4360   31.4430   37.3890 H   0  0  0  0  0  0  0  0  0  0  0  0
   39.8890   28.9090   37.4370 H   0  0  0  0  0  0  0  0  0  0  0  0
   37.5140   29.2880   42.5410 C   0  0  0  0  0  0  0  0  0  0  0  0
   38.7710   29.7170   42.1500 C   0  0  0  0  0  0  0  0  0  0  0  0
   39.8900   28.9630   42.4890 C   0  0  0  0  0  0  0  0  0  0  0  0
   40.8460   29.3700   42.1420 H   0  0  0  0  0  0  0  0  0  0  0  0
   39.6970   27.7950   43.2140 C   0  0  0  0  0  3  0  0  0  0  0  0
   38.4410   27.3950   43.5860 C   0  0  0  0  0  3  0  0  0  0  0  0
   37.3080   28.1300   43.2610 C   0  0  0  0  0  0  0  0  0  0  0  0
   36.3210   29.9740   42.2500 O   0  0  0  0  0  0  0  0  0  0  0  0
   36.2860   30.9340   42.6190 H   0  0  0  0  0  0  0  0  0  0  0  0
   36.0740   27.6510   43.6790 O   0  0  0  0  0  0  0  0  0  0  0  0
   35.4870   28.2940   44.2110 H   0  0  0  0  0  0  0  0  0  0  0  0
  1  3  1  0  0  0  0
  1  2  1  0  0  0  0
  1 14  1  0  0  0  0
  4  1  1  0  0  0  0
  5 10  1  0  0  0  0
  5  4  1  0  0  0  0
  6  5  2  0  0  0  0
  7  6  1  0  0  0  0
  7  8  2  0  0  0  0
  8  9  1  0  0  0  0
  9  4  2  0  0  0  0
 11  6  1  0  0  0  0
 12  8  1  0  0  0  0
 13 19  1  0  0  0  0
 14 15  1  0  0  0  0
 14 13  2  0  0  0  0
 15 17  2  0  0  0  0
 16 15  1  0  0  0  0
 17 18  1  0  0  0  0
 19 18  2  0  0  0  0
 19 22  1  0  0  0  0
 20 13  1  0  0  0  0
 20 21  1  0  0  0  0
 22 23  1  0  0  0  0
M  END
>  <minimizedAffinity>
-4.63234138

$$$$

 OpenBabel03242512163D

 23 24  0  0  0  0  0  0  0  0999 V2000
   36.1720   30.8400   41.0690 C   0  0  0  0  0  0  0  0  0  0  0  0
   35.4240   31.2500   40.3590 H   0  0  0  0  0  0  0  0  0  0  0  0
   35.9020   31.0500   42.1100 H   0  0  0  0  0  0  0  0  0  0  0  0
   37.4560   31.5940   40.8000 C   0  0  0  0  0  0  0  0  0  0  0  0
   37.3770   32.7040   39.9620 C   0  0  0  0  0  0  0  0  0  0  0  0
   38.5500   33.4190   39.7050 C   0  0  0  0  0  0  0  0  0  0  0  0
   39.6930   32.9900   40.2850 N   0  0  0  0  0  0  0  0  0  0  0  0
   39.7390   31.8990   41.1010 C   0  0  0  0  0  0  0  0  0  0  0  0
   38.6190   31.2040   41.3560 N   0  0  0  0  0  0  0  0  0  0  0  0
   36.4370   33.0300   39.5050 H   0  0  0  0  0  0  0  0  0  0  0  0
   38.5210   34.2960   39.0510 H   0  0  0  0  0  0  0  0  0  0  0  0
   40.6780   31.5730   41.5590 H   0  0  0  0  0  0  0  0  0  0  0  0
   36.7390   28.6380   41.8690 C   0  0  0  0  0  0  0  0  0  0  0  0
   36.3870   29.3990   40.7680 C   0  0  0  0  0  0  0  0  0  0  0  0
   36.2610   28.7900   39.5240 C   0  0  0  0  0  0  0  0  0  0  0  0
   35.9810   29.4610   38.7040 H   0  0  0  0  0  0  0  0  0  0  0  0
   36.4960   27.4240   39.4370 C   0  0  0  0  0  3  0  0  0  0  0  0
   36.8420   26.6960   40.5440 C   0  0  0  0  0  3  0  0  0  0  0  0
   36.9740   27.2810   41.7970 C   0  0  0  0  0  0  0  0  0  0  0  0
   36.8920   29.1540   43.1690 O   0  0  0  0  0  0  0  0  0  0  0  0
   37.6050   29.8910   43.2490 H   0  0  0  0  0  0  0  0  0  0  0  0
   37.3280   26.4680   42.8650 O   0  0  0  0  0  0  0  0  0  0  0  0
   38.1380   26.7560   43.4140 H   0  0  0  0  0  0  0  0  0  0  0  0
  1  3  1  0  0  0  0
  2  1  1  0  0  0  0
  4  1  1  0  0  0  0
  4  9  1  0  0  0  0
  5  4  2  0  0  0  0
  6  5  1  0  0  0  0
  6  7  2  0  0  0  0
  7  8  1  0  0  0  0
  8  9  2  0  0  0  0
  8 12  1  0  0  0  0
 10  5  1  0  0  0  0
 11  6  1  0  0  0  0
 13 20  1  0  0  0  0
 14  1  1  0  0  0  0
 14 13  2  0  0  0  0
 15 14  1  0  0  0  0
 16 15  1  0  0  0  0
 17 15  2  0  0  0  0
 17 18  1  0  0  0  0
 18 19  2  0  0  0  0
 19 13  1  0  0  0  0
 19 22  1  0  0  0  0
 20 21  1  0  0  0  0
 22 23  1  0  0  0  0
M  END
>  <minimizedAffinity>
-4.62558794

$$$$

 OpenBabel03242512163D

 23 24  0  0  0  0  0  0  0  0999 V2000
   37.0640   26.1990   41.6170 C   0  0  0  0  0  0  0  0  0  0  0  0
   36.4950   26.2660   42.5680 H   0  0  0  0  0  0  0  0  0  0  0  0
   36.9670   25.2090   41.1550 H   0  0  0  0  0  0  0  0  0  0  0  0
   38.5200   26.3550   41.9920 C   0  0  0  0  0  0  0  0  0  0  0  0
   39.4630   25.8330   41.1080 C   0  0  0  0  0  0  0  0  0  0  0  0
   40.8150   25.9720   41.4320 C   0  0  0  0  0  0  0  0  0  0  0  0
   41.1300   26.6040   42.5830 N   0  0  0  0  0  0  0  0  0  0  0  0
   40.1850   27.1040   43.4290 C   0  0  0  0  0  0  0  0  0  0  0  0
   38.8820   26.9780   43.1300 N   0  0  0  0  0  0  0  0  0  0  0  0
   39.1810   25.3250   40.1810 H   0  0  0  0  0  0  0  0  0  0  0  0
   41.5800   25.5730   40.7580 H   0  0  0  0  0  0  0  0  0  0  0  0
   40.4670   27.6130   44.3560 H   0  0  0  0  0  0  0  0  0  0  0  0
   36.3280   28.4860   41.4150 C   0  0  0  0  0  0  0  0  0  0  0  0
   36.6690   27.3300   40.7350 C   0  0  0  0  0  0  0  0  0  0  0  0
   36.6270   27.3140   39.3450 C   0  0  0  0  0  0  0  0  0  0  0  0
   36.9120   26.3620   38.8830 H   0  0  0  0  0  0  0  0  0  0  0  0
   36.2400   28.4740   38.6880 C   0  0  0  0  0  3  0  0  0  0  0  0
   35.9070   29.6030   39.3880 C   0  0  0  0  0  3  0  0  0  0  0  0
   35.9410   29.6450   40.7760 C   0  0  0  0  0  0  0  0  0  0  0  0
   36.3370   28.6080   42.8170 O   0  0  0  0  0  0  0  0  0  0  0  0
   35.7170   27.9470   43.3020 H   0  0  0  0  0  0  0  0  0  0  0  0
   35.5880   30.8310   41.4040 O   0  0  0  0  0  0  0  0  0  0  0  0
   34.8620   30.7760   42.1180 H   0  0  0  0  0  0  0  0  0  0  0  0
  1  4  1  0  0  0  0
  1  2  1  0  0  0  0
  3  1  1  0  0  0  0
  4  9  1  0  0  0  0
  5  6  1  0  0  0  0
  5  4  2  0  0  0  0
  6  7  2  0  0  0  0
  7  8  1  0  0  0  0
  8 12  1  0  0  0  0
  9  8  2  0  0  0  0
 10  5  1  0  0  0  0
 11  6  1  0  0  0  0
 13 20  1  0  0  0  0
 14 13  2  0  0  0  0
 14  1  1  0  0  0  0
 15 14  1  0  0  0  0
 16 15  1  0  0  0  0
 17 15  2  0  0  0  0
 17 18  1  0  0  0  0
 18 19  2  0  0  0  0
 19 22  1  0  0  0  0
 19 13  1  0  0  0  0
 20 21  1  0  0  0  0
 22 23  1  0  0  0  0
M  END
>  <minimizedAffinity>
-4.59850216

$$$$

 OpenBabel03242512163D

 23 24  0  0  0  0  0  0  0  0999 V2000
   36.9610   28.5630   39.7750 C   0  0  0  0  0  0  0  0  0  0  0  0
   35.8850   28.2910   39.7690 H   0  0  0  0  0  0  0  0  0  0  0  0
   37.5430   27.9390   39.0870 H   0  0  0  0  0  0  0  0  0  0  0  0
   37.4620   28.2450   41.1660 C   0  0  0  0  0  0  0  0  0  0  0  0
   36.5060   27.9150   42.1250 C   0  0  0  0  0  0  0  0  0  0  0  0
   36.9470   27.6120   43.4160 C   0  0  0  0  0  0  0  0  0  0  0  0
   38.2750   27.6560   43.6590 N   0  0  0  0  0  0  0  0  0  0  0  0
   39.1870   27.9830   42.7000 C   0  0  0  0  0  0  0  0  0  0  0  0
   38.7770   28.2760   41.4560 N   0  0  0  0  0  0  0  0  0  0  0  0
   35.4350   27.8860   41.9020 H   0  0  0  0  0  0  0  0  0  0  0  0
   36.2200   27.3490   44.1920 H   0  0  0  0  0  0  0  0  0  0  0  0
   40.2580   28.0100   42.9230 H   0  0  0  0  0  0  0  0  0  0  0  0
   37.5390   30.3570   38.2720 C   0  0  0  0  0  0  0  0  0  0  0  0
   37.0930   30.0260   39.5390 C   0  0  0  0  0  0  0  0  0  0  0  0
   36.8070   31.0360   40.4520 C   0  0  0  0  0  0  0  0  0  0  0  0
   36.4590   30.6920   41.4320 H   0  0  0  0  0  0  0  0  0  0  0  0
   36.9840   32.3530   40.0470 C   0  0  0  0  0  3  0  0  0  0  0  0
   37.4270   32.6500   38.7870 C   0  0  0  0  0  3  0  0  0  0  0  0
   37.7190   31.6600   37.8570 C   0  0  0  0  0  0  0  0  0  0  0  0
   37.8550   29.4150   37.2750 O   0  0  0  0  0  0  0  0  0  0  0  0
   38.5970   28.7530   37.5400 H   0  0  0  0  0  0  0  0  0  0  0  0
   38.1630   32.0510   36.6010 O   0  0  0  0  0  0  0  0  0  0  0  0
   39.0390   31.6420   36.2750 H   0  0  0  0  0  0  0  0  0  0  0  0
  1  4  1  0  0  0  0
  2  1  1  0  0  0  0
  3  1  1  0  0  0  0
  4  9  2  0  0  0  0
  4  5  1  0  0  0  0
  5  6  2  0  0  0  0
  6  7  1  0  0  0  0
  6 11  1  0  0  0  0
  8 12  1  0  0  0  0
  8  7  2  0  0  0  0
  9  8  1  0  0  0  0
 10  5  1  0  0  0  0
 13 14  1  0  0  0  0
 14  1  1  0  0  0  0
 14 15  2  0  0  0  0
 15 16  1  0  0  0  0
 17 15  1  0  0  0  0
 18 17  2  0  0  0  0
 19 13  2  0  0  0  0
 19 18  1  0  0  0  0
 20 21  1  0  0  0  0
 20 13  1  0  0  0  0
 22 19  1  0  0  0  0
 23 22  1  0  0  0  0
M  END
>  <minimizedAffinity>
-4.54088497

$$$$
