
 OpenBabel03252505193D

 36 39  0  0  0  0  0  0  0  0999 V2000
   46.1410   32.6960   47.0900 C   0  0  0  0  0  0  0  0  0  0  0  0
   44.9790   32.3900   47.7880 C   0  0  0  0  0  0  0  0  0  0  0  0
   45.0700   31.6010   48.9160 C   0  0  0  0  0  0  0  0  0  0  0  0
   46.3230   31.1570   49.2920 C   0  0  0  0  0  0  0  0  0  0  0  0
   47.4510   31.4920   48.5600 C   0  0  0  0  0  0  0  0  0  0  0  0
   47.3550   32.2720   47.4470 N   0  0  0  0  0  0  0  0  0  0  0  0
   44.0380   32.7780   47.4280 H   0  0  0  0  0  0  0  0  0  0  0  0
   44.1660   31.3630   49.4590 H   0  0  0  0  0  0  0  0  0  0  0  0
   46.3590   30.5510   50.1670 H   0  0  0  0  0  0  0  0  0  0  0  0
   44.8990   35.1510   44.6200 C   0  0  0  0  0  0  0  0  0  0  0  0
   45.8000   35.0120   43.5490 C   0  0  0  0  0  0  0  0  0  0  0  0
   46.8090   34.0850   43.7170 C   0  0  0  0  0  0  0  0  0  0  0  0
   46.9110   33.3470   44.8770 N   0  0  0  0  0  0  0  0  0  0  0  0
   46.0120   33.5170   45.8890 C   0  0  0  0  0  0  0  0  0  0  0  0
   45.0170   34.4210   45.7400 N   0  0  0  0  0  0  0  0  0  0  0  0
   44.0900   35.8670   44.5350 H   0  0  0  0  0  0  0  0  0  0  0  0
   45.7280   35.5810   42.6450 H   0  0  0  0  0  0  0  0  0  0  0  0
   47.8010   33.8320   42.6270 C   0  0  0  0  0  0  0  0  0  0  0  0
   48.0110   35.0340   41.7070 C   0  0  0  0  0  0  0  0  0  0  0  0
   49.0920   34.4590   42.6840 C   0  0  0  0  0  0  0  0  0  0  0  0
   47.5920   32.8650   42.1080 H   0  0  0  0  0  0  0  0  0  0  0  0
   48.1260   34.7730   40.6570 H   0  0  0  0  0  0  0  0  0  0  0  0
   47.6120   36.0120   41.9830 H   0  0  0  0  0  0  0  0  0  0  0  0
   49.3760   35.0980   43.5320 H   0  0  0  0  0  0  0  0  0  0  0  0
   49.9290   33.9440   42.1510 H   0  0  0  0  0  0  0  0  0  0  0  0
   49.1570   29.7160   48.7710 C   0  0  0  0  0  0  0  0  0  0  0  0
   48.7740   31.0280   48.9510 C   0  0  0  0  0  0  0  0  0  0  0  0
   49.7450   31.8220   49.5190 C   0  0  0  0  0  0  0  0  0  0  0  0
   49.5330   32.8650   49.6970 H   0  0  0  0  0  0  0  0  0  0  0  0
   50.9940   31.3620   49.8820 C   0  0  0  0  0  0  0  0  0  0  0  0
   51.3160   30.0340   49.6760 C   0  0  0  0  0  0  0  0  0  0  0  0
   50.3910   29.2100   49.1170 C   0  0  0  0  0  0  0  0  0  0  0  0
   48.2660   28.8150   48.2070 O   0  0  0  0  0  0  0  0  0  0  0  0
   47.6610   28.2620   48.8030 H   0  0  0  0  0  0  0  0  0  0  0  0
   50.7040   27.8630   48.9020 O   0  0  0  0  0  0  0  0  0  0  0  0
   51.0990   27.3050   49.6430 H   0  0  0  0  0  0  0  0  0  0  0  0
  1  6  2  0  0  0  0
  1  2  1  0  0  0  0
  2  3  2  0  0  0  0
  3  4  1  0  0  0  0
  3  8  1  0  0  0  0
  4  9  1  0  0  0  0
  5 27  1  0  0  0  0
  5  4  2  0  0  0  0
  6  5  1  0  0  0  0
  7  2  1  0  0  0  0
 10 15  1  0  0  0  0
 11 12  1  0  0  0  0
 11 10  2  0  0  0  0
 12 13  2  0  0  0  0
 13 14  1  0  0  0  0
 14  1  1  0  0  0  0
 15 14  2  0  0  0  0
 16 10  1  0  0  0  0
 17 11  1  0  0  0  0
 18 20  1  0  0  0  0
 18 12  1  0  0  0  0
 19 23  1  0  0  0  0
 19 18  1  0  0  0  0
 19 20  1  0  0  0  0
 20 24  1  0  0  0  0
 21 18  1  0  0  0  0
 22 19  1  0  0  0  0
 25 20  1  0  0  0  0
 26 27  2  0  0  0  0
 26 32  1  0  0  0  0
 27 28  1  0  0  0  0
 28 29  1  0  0  0  0
 28 30  2  0  0  0  0
 31 30  1  0  0  0  0
 32 31  2  0  0  0  0
 33 26  1  0  0  0  0
 33 34  1  0  0  0  0
 35 32  1  0  0  0  0
 35 36  1  0  0  0  0
M  END
>  <minimizedAffinity>
-6.7274003

>  <minimizedRMSD>
1.67354846

$$$$
