
 OpenBabel03242518373D

 37 40  0  0  1  0  0  0  0  0999 V2000
   36.5480   28.8540   41.8340 C   0  0  0  0  0  0  0  0  0  0  0  0
   35.5990   28.9170   40.8160 C   0  0  0  0  0  0  0  0  0  0  0  0
   35.8420   30.0460   40.0490 C   0  0  0  0  0  0  0  0  0  0  0  0
   36.9360   30.6160   40.6450 C   0  0  0  0  0  0  0  0  0  0  0  0
   37.3410   29.9180   41.6830 O   0  0  0  0  0  0  0  0  0  0  0  0
   34.8270   28.1450   40.7270 H   0  0  0  0  0  0  0  0  0  0  0  0
   35.2530   30.3370   39.1900 H   0  0  0  0  0  0  0  0  0  0  0  0
   37.5830   31.8550   40.1800 C   0  0  2  0  0  0  0  0  0  0  0  0
   37.2700   32.3810   38.8350 C   0  0  0  0  0  0  0  0  0  0  0  0
   38.5600   31.6430   39.0020 C   0  0  1  0  0  0  0  0  0  0  0  0
   37.9870   32.4630   41.0170 H   0  0  0  0  0  0  0  0  0  0  0  0
   36.4920   31.9030   38.2300 H   0  0  0  0  0  0  0  0  0  0  0  0
   37.2730   33.5020   38.7300 H   0  0  0  0  0  0  0  0  0  0  0  0
   38.6250   30.6210   38.5630 H   0  0  0  0  0  0  0  0  0  0  0  0
   40.4520   32.8140   37.9430 C   0  0  0  0  0  0  0  0  0  0  0  0
   39.7940   32.4590   39.1020 C   0  0  0  0  0  0  0  0  0  0  0  0
   40.3360   32.8940   40.2940 C   0  0  0  0  0  0  0  0  0  0  0  0
   39.8410   32.6310   41.2190 H   0  0  0  0  0  0  0  0  0  0  0  0
   41.4880   33.6510   40.3080 C   0  0  0  0  0  3  0  0  0  0  0  0
   42.1540   34.0120   39.1570 C   0  0  0  0  0  3  0  0  0  0  0  0
   41.6210   33.5820   37.9570 C   0  0  0  0  0  0  0  0  0  0  0  0
   39.9270   32.3880   36.7260 O   0  0  0  0  0  0  0  0  0  0  0  0
   40.4610   32.5150   35.8860 H   0  0  0  0  0  0  0  0  0  0  0  0
   42.2650   33.9260   36.7710 O   0  0  0  0  0  0  0  0  0  0  0  0
   43.0340   33.3020   36.5160 H   0  0  0  0  0  0  0  0  0  0  0  0
   36.7390   27.9150   42.8660 O   0  0  0  0  0  0  0  0  0  0  0  0
   37.8840   27.0940   42.8610 C   0  0  0  0  0  0  0  0  0  0  0  0
   38.7610   27.3790   43.7200 O   0  0  0  0  0  0  0  0  0  0  0  0
   37.9150   26.0500   41.8970 C   0  0  0  0  0  0  0  0  0  0  0  0
   37.0280   25.0340   42.1220 C   0  0  0  0  0  0  0  0  0  0  0  0
   37.0040   23.9750   41.2160 C   0  0  0  0  0  0  0  0  0  0  0  0
   37.8510   24.0100   40.1730 N   0  0  0  0  0  0  0  0  0  0  0  0
   38.7050   25.0190   39.9810 C   0  0  0  0  0  0  0  0  0  0  0  0
   38.7270   26.0400   40.8590 N   0  0  0  0  0  0  0  0  0  0  0  0
   36.3070   24.9240   42.9390 H   0  0  0  0  0  0  0  0  0  0  0  0
   36.3240   23.1360   41.3360 H   0  0  0  0  0  0  0  0  0  0  0  0
   39.3530   24.9540   39.1040 H   0  0  0  0  0  0  0  0  0  0  0  0
  1 26  1  0  0  0  0
  2  1  2  0  0  0  0
  3  4  2  0  0  0  0
  3  2  1  0  0  0  0
  4  5  1  0  0  0  0
  5  1  1  0  0  0  0
  6  2  1  0  0  0  0
  7  3  1  0  0  0  0
  8  4  1  0  0  0  0
  8 11  1  1  0  0  0
  9 10  1  0  0  0  0
  9  8  1  0  0  0  0
 10 14  1  6  0  0  0
 10 16  1  0  0  0  0
 10  8  1  0  0  0  0
 12  9  1  0  0  0  0
 13  9  1  0  0  0  0
 15 21  2  0  0  0  0
 15 16  1  0  0  0  0
 16 17  2  0  0  0  0
 17 19  1  0  0  0  0
 17 18  1  0  0  0  0
 20 19  2  0  0  0  0
 21 20  1  0  0  0  0
 22 15  1  0  0  0  0
 23 22  1  0  0  0  0
 24 21  1  0  0  0  0
 25 24  1  0  0  0  0
 27 26  1  0  0  0  0
 27 28  2  0  0  0  0
 29 30  1  0  0  0  0
 29 27  1  0  0  0  0
 30 35  1  0  0  0  0
 31 36  1  0  0  0  0
 31 30  2  0  0  0  0
 32 31  1  0  0  0  0
 33 32  2  0  0  0  0
 33 34  1  0  0  0  0
 34 29  2  0  0  0  0
 37 33  1  0  0  0  0
M  END
>  <minimizedAffinity>
-6.73812294

$$$$

 OpenBabel03242518373D

 37 40  0  0  1  0  0  0  0  0999 V2000
   36.5770   28.6120   41.4630 C   0  0  0  0  0  0  0  0  0  0  0  0
   35.4510   28.9250   40.7040 C   0  0  0  0  0  0  0  0  0  0  0  0
   35.6580   30.1490   40.0860 C   0  0  0  0  0  0  0  0  0  0  0  0
   36.9090   30.5190   40.5040 C   0  0  0  0  0  0  0  0  0  0  0  0
   37.4380   29.6210   41.3050 O   0  0  0  0  0  0  0  0  0  0  0  0
   34.5960   28.2440   40.6720 H   0  0  0  0  0  0  0  0  0  0  0  0
   34.9410   30.6310   39.4350 H   0  0  0  0  0  0  0  0  0  0  0  0
   37.5830   31.7660   40.1030 C   0  0  2  0  0  0  0  0  0  0  0  0
   37.2720   32.3750   38.7920 C   0  0  0  0  0  0  0  0  0  0  0  0
   38.5450   31.5970   38.9070 C   0  0  1  0  0  0  0  0  0  0  0  0
   38.0080   32.3160   40.9690 H   0  0  0  0  0  0  0  0  0  0  0  0
   36.4790   31.9490   38.1690 H   0  0  0  0  0  0  0  0  0  0  0  0
   37.3030   33.4990   38.7500 H   0  0  0  0  0  0  0  0  0  0  0  0
   38.5820   30.6000   38.4110 H   0  0  0  0  0  0  0  0  0  0  0  0
   40.4550   32.7840   37.8980 C   0  0  0  0  0  0  0  0  0  0  0  0
   39.8000   32.3770   39.0410 C   0  0  0  0  0  0  0  0  0  0  0  0
   40.3640   32.7270   40.2510 C   0  0  0  0  0  0  0  0  0  0  0  0
   39.8710   32.4220   41.1640 H   0  0  0  0  0  0  0  0  0  0  0  0
   41.5340   33.4540   40.2970 C   0  0  0  0  0  3  0  0  0  0  0  0
   42.1970   33.8680   39.1620 C   0  0  0  0  0  3  0  0  0  0  0  0
   41.6430   33.5220   37.9450 C   0  0  0  0  0  0  0  0  0  0  0  0
   39.9080   32.4430   36.6630 O   0  0  0  0  0  0  0  0  0  0  0  0
   40.4370   32.6080   35.8270 H   0  0  0  0  0  0  0  0  0  0  0  0
   42.2830   33.9210   36.7740 O   0  0  0  0  0  0  0  0  0  0  0  0
   43.0350   33.2950   36.4750 H   0  0  0  0  0  0  0  0  0  0  0  0
   36.8690   27.4950   42.2700 O   0  0  0  0  0  0  0  0  0  0  0  0
   37.7160   27.6410   43.3860 C   0  0  0  0  0  0  0  0  0  0  0  0
   37.2270   28.2720   44.3620 O   0  0  0  0  0  0  0  0  0  0  0  0
   39.0110   27.0660   43.2820 C   0  0  0  0  0  0  0  0  0  0  0  0
   40.0360   27.9680   43.2060 C   0  0  0  0  0  0  0  0  0  0  0  0
   41.3350   27.4730   43.1010 C   0  0  0  0  0  0  0  0  0  0  0  0
   41.5100   26.1410   43.0820 N   0  0  0  0  0  0  0  0  0  0  0  0
   40.4870   25.2860   43.1590 C   0  0  0  0  0  0  0  0  0  0  0  0
   39.2330   25.7660   43.2590 N   0  0  0  0  0  0  0  0  0  0  0  0
   39.9860   29.0620   43.2140 H   0  0  0  0  0  0  0  0  0  0  0  0
   42.1950   28.1350   43.0360 H   0  0  0  0  0  0  0  0  0  0  0  0
   40.7330   24.2220   43.1350 H   0  0  0  0  0  0  0  0  0  0  0  0
  1 26  1  0  0  0  0
  2  1  2  0  0  0  0
  3  4  2  0  0  0  0
  3  2  1  0  0  0  0
  4  5  1  0  0  0  0
  5  1  1  0  0  0  0
  6  2  1  0  0  0  0
  7  3  1  0  0  0  0
  8  4  1  0  0  0  0
  8 11  1  1  0  0  0
  9 10  1  0  0  0  0
  9  8  1  0  0  0  0
 10 14  1  6  0  0  0
 10 16  1  0  0  0  0
 10  8  1  0  0  0  0
 12  9  1  0  0  0  0
 13  9  1  0  0  0  0
 15 21  2  0  0  0  0
 15 16  1  0  0  0  0
 16 17  2  0  0  0  0
 17 19  1  0  0  0  0
 17 18  1  0  0  0  0
 20 19  2  0  0  0  0
 21 20  1  0  0  0  0
 22 15  1  0  0  0  0
 23 22  1  0  0  0  0
 24 21  1  0  0  0  0
 25 24  1  0  0  0  0
 26 27  1  0  0  0  0
 27 28  2  0  0  0  0
 29 27  1  0  0  0  0
 30 35  1  0  0  0  0
 30 29  2  0  0  0  0
 31 30  1  0  0  0  0
 32 31  2  0  0  0  0
 32 33  1  0  0  0  0
 33 34  2  0  0  0  0
 34 29  1  0  0  0  0
 36 31  1  0  0  0  0
 37 33  1  0  0  0  0
M  END
>  <minimizedAffinity>
-6.70444918

$$$$

 OpenBabel03242518373D

 37 40  0  0  1  0  0  0  0  0999 V2000
   38.3410   32.0490   40.6860 C   0  0  0  0  0  0  0  0  0  0  0  0
   37.0740   32.1220   40.1110 C   0  0  0  0  0  0  0  0  0  0  0  0
   36.5930   30.8340   39.9270 C   0  0  0  0  0  0  0  0  0  0  0  0
   37.6030   30.0380   40.4030 C   0  0  0  0  0  0  0  0  0  0  0  0
   38.6160   30.7510   40.8430 O   0  0  0  0  0  0  0  0  0  0  0  0
   36.6220   33.0920   39.8820 H   0  0  0  0  0  0  0  0  0  0  0  0
   35.6300   30.5990   39.4970 H   0  0  0  0  0  0  0  0  0  0  0  0
   37.5580   28.5660   40.4260 C   0  0  2  0  0  0  0  0  0  0  0  0
   36.2540   27.8770   40.5300 C   0  0  0  0  0  0  0  0  0  0  0  0
   37.0810   27.9780   41.7730 C   0  0  1  0  0  0  0  0  0  0  0  0
   38.4830   28.1070   40.0180 H   0  0  0  0  0  0  0  0  0  0  0  0
   35.3260   28.4590   40.4960 H   0  0  0  0  0  0  0  0  0  0  0  0
   36.1710   26.8930   39.9900 H   0  0  0  0  0  0  0  0  0  0  0  0
   36.7410   28.6930   42.5560 H   0  0  0  0  0  0  0  0  0  0  0  0
   38.9250   26.9060   43.0070 C   0  0  0  0  0  0  0  0  0  0  0  0
   37.8260   26.7640   42.1860 C   0  0  0  0  0  0  0  0  0  0  0  0
   37.4900   25.4840   41.7970 C   0  0  0  0  0  0  0  0  0  0  0  0
   36.6320   25.3420   41.1530 H   0  0  0  0  0  0  0  0  0  0  0  0
   38.2310   24.4020   42.2220 C   0  0  0  0  0  3  0  0  0  0  0  0
   39.3300   24.5320   43.0440 C   0  0  0  0  0  3  0  0  0  0  0  0
   39.6770   25.8090   43.4380 C   0  0  0  0  0  0  0  0  0  0  0  0
   39.2870   28.1880   43.4140 O   0  0  0  0  0  0  0  0  0  0  0  0
   40.1580   28.3260   43.8940 H   0  0  0  0  0  0  0  0  0  0  0  0
   40.7820   25.9810   44.2690 O   0  0  0  0  0  0  0  0  0  0  0  0
   41.6760   26.0200   43.7730 H   0  0  0  0  0  0  0  0  0  0  0  0
   39.2430   33.0600   41.0700 O   0  0  0  0  0  0  0  0  0  0  0  0
   39.5320   34.1140   40.1820 C   0  0  0  0  0  0  0  0  0  0  0  0
   38.9050   35.1880   40.3880 O   0  0  0  0  0  0  0  0  0  0  0  0
   40.4880   33.8460   39.1650 C   0  0  0  0  0  0  0  0  0  0  0  0
   41.4590   34.7990   39.0220 C   0  0  0  0  0  0  0  0  0  0  0  0
   42.4300   34.6010   38.0420 C   0  0  0  0  0  0  0  0  0  0  0  0
   42.3610   33.4870   37.2930 N   0  0  0  0  0  0  0  0  0  0  0  0
   41.4000   32.5750   37.4580 C   0  0  0  0  0  0  0  0  0  0  0  0
   40.4620   32.7690   38.4050 N   0  0  0  0  0  0  0  0  0  0  0  0
   41.5910   35.7300   39.5850 H   0  0  0  0  0  0  0  0  0  0  0  0
   43.2290   35.3190   37.8770 H   0  0  0  0  0  0  0  0  0  0  0  0
   41.4310   31.7040   36.7990 H   0  0  0  0  0  0  0  0  0  0  0  0
  1  5  1  0  0  0  0
  1 26  1  0  0  0  0
  2  1  2  0  0  0  0
  3  2  1  0  0  0  0
  3  4  2  0  0  0  0
  4  8  1  0  0  0  0
  4  5  1  0  0  0  0
  6  2  1  0  0  0  0
  7  3  1  0  0  0  0
  8 11  1  6  0  0  0
  8  9  1  0  0  0  0
  8 10  1  0  0  0  0
  9 10  1  0  0  0  0
 10 16  1  0  0  0  0
 10 14  1  1  0  0  0
 12  9  1  0  0  0  0
 13  9  1  0  0  0  0
 15 22  1  0  0  0  0
 15 21  1  0  0  0  0
 16 15  2  0  0  0  0
 17 16  1  0  0  0  0
 17 19  2  0  0  0  0
 18 17  1  0  0  0  0
 19 20  1  0  0  0  0
 20 21  2  0  0  0  0
 21 24  1  0  0  0  0
 22 23  1  0  0  0  0
 25 24  1  0  0  0  0
 27 28  2  0  0  0  0
 27 26  1  0  0  0  0
 29 27  1  0  0  0  0
 30 29  1  0  0  0  0
 30 35  1  0  0  0  0
 31 30  2  0  0  0  0
 32 33  2  0  0  0  0
 32 31  1  0  0  0  0
 33 34  1  0  0  0  0
 34 29  2  0  0  0  0
 36 31  1  0  0  0  0
 37 33  1  0  0  0  0
M  END
>  <minimizedAffinity>
-6.42101574

$$$$

 OpenBabel03242518373D

 37 40  0  0  1  0  0  0  0  0999 V2000
   37.5310   29.2040   41.9870 C   0  0  0  0  0  0  0  0  0  0  0  0
   38.5470   29.2020   42.9400 C   0  0  0  0  0  0  0  0  0  0  0  0
   39.3460   30.3180   42.7430 C   0  0  0  0  0  0  0  0  0  0  0  0
   38.7680   30.9470   41.6700 C   0  0  0  0  0  0  0  0  0  0  0  0
   37.7140   30.2930   41.2350 O   0  0  0  0  0  0  0  0  0  0  0  0
   38.6120   28.3980   43.6800 H   0  0  0  0  0  0  0  0  0  0  0  0
   40.2090   30.5630   43.3460 H   0  0  0  0  0  0  0  0  0  0  0  0
   39.2630   32.2020   41.0800 C   0  0  2  0  0  0  0  0  0  0  0  0
   38.5690   32.7830   39.9120 C   0  0  0  0  0  0  0  0  0  0  0  0
   39.8390   32.0360   39.6560 C   0  0  1  0  0  0  0  0  0  0  0  0
   39.9070   32.7750   41.7790 H   0  0  0  0  0  0  0  0  0  0  0  0
   37.6390   32.3300   39.5500 H   0  0  0  0  0  0  0  0  0  0  0  0
   38.5560   33.9070   39.8520 H   0  0  0  0  0  0  0  0  0  0  0  0
   39.7550   31.0330   39.1790 H   0  0  0  0  0  0  0  0  0  0  0  0
   41.3420   33.2470   38.1240 C   0  0  0  0  0  0  0  0  0  0  0  0
   41.0580   32.8450   39.4130 C   0  0  0  0  0  0  0  0  0  0  0  0
   41.9390   33.2280   40.4020 C   0  0  0  0  0  0  0  0  0  0  0  0
   41.7420   32.9280   41.4220 H   0  0  0  0  0  0  0  0  0  0  0  0
   43.0530   33.9820   40.0990 C   0  0  0  0  0  3  0  0  0  0  0  0
   43.3470   34.3900   38.8160 C   0  0  0  0  0  3  0  0  0  0  0  0
   42.4720   34.0120   37.8160 C   0  0  0  0  0  0  0  0  0  0  0  0
   40.4690   32.8740   37.1050 O   0  0  0  0  0  0  0  0  0  0  0  0
   40.7280   33.0350   36.1490 H   0  0  0  0  0  0  0  0  0  0  0  0
   42.7350   34.4050   36.5060 O   0  0  0  0  0  0  0  0  0  0  0  0
   43.3820   33.7910   36.0070 H   0  0  0  0  0  0  0  0  0  0  0  0
   36.4720   28.3040   41.7590 O   0  0  0  0  0  0  0  0  0  0  0  0
   36.5720   27.3530   40.7250 C   0  0  0  0  0  0  0  0  0  0  0  0
   35.9580   27.6390   39.6610 O   0  0  0  0  0  0  0  0  0  0  0  0
   37.3450   26.1930   40.9990 C   0  0  0  0  0  0  0  0  0  0  0  0
   38.4500   26.0380   40.2070 C   0  0  0  0  0  0  0  0  0  0  0  0
   39.2550   24.9200   40.4210 C   0  0  0  0  0  0  0  0  0  0  0  0
   38.9040   24.0590   41.3900 N   0  0  0  0  0  0  0  0  0  0  0  0
   37.8190   24.2390   42.1470 C   0  0  0  0  0  0  0  0  0  0  0  0
   37.0420   25.3190   41.9380 N   0  0  0  0  0  0  0  0  0  0  0  0
   38.8090   26.6860   39.4000 H   0  0  0  0  0  0  0  0  0  0  0  0
   40.1470   24.7370   39.8270 H   0  0  0  0  0  0  0  0  0  0  0  0
   37.6190   23.4820   42.9080 H   0  0  0  0  0  0  0  0  0  0  0  0
  1  2  2  0  0  0  0
  2  6  1  0  0  0  0
  3  2  1  0  0  0  0
  3  7  1  0  0  0  0
  4  3  2  0  0  0  0
  5  4  1  0  0  0  0
  5  1  1  0  0  0  0
  8  4  1  0  0  0  0
  8 11  1  1  0  0  0
  9  8  1  0  0  0  0
 10 14  1  6  0  0  0
 10  9  1  0  0  0  0
 10  8  1  0  0  0  0
 12  9  1  0  0  0  0
 13  9  1  0  0  0  0
 15 16  1  0  0  0  0
 16 10  1  0  0  0  0
 16 17  2  0  0  0  0
 17 18  1  0  0  0  0
 19 17  1  0  0  0  0
 20 19  2  0  0  0  0
 21 15  2  0  0  0  0
 21 20  1  0  0  0  0
 22 15  1  0  0  0  0
 23 22  1  0  0  0  0
 24 21  1  0  0  0  0
 25 24  1  0  0  0  0
 26  1  1  0  0  0  0
 27 29  1  0  0  0  0
 27 26  1  0  0  0  0
 28 27  2  0  0  0  0
 29 34  1  0  0  0  0
 30 31  1  0  0  0  0
 30 29  2  0  0  0  0
 31 32  2  0  0  0  0
 32 33  1  0  0  0  0
 33 37  1  0  0  0  0
 34 33  2  0  0  0  0
 35 30  1  0  0  0  0
 36 31  1  0  0  0  0
M  END
>  <minimizedAffinity>
-6.2274394

$$$$

 OpenBabel03242518373D

 37 40  0  0  1  0  0  0  0  0999 V2000
   37.6520   28.0560   42.9500 C   0  0  0  0  0  0  0  0  0  0  0  0
   36.5760   27.5790   42.2030 C   0  0  0  0  0  0  0  0  0  0  0  0
   36.1120   28.6010   41.3890 C   0  0  0  0  0  0  0  0  0  0  0  0
   36.9380   29.6550   41.6850 C   0  0  0  0  0  0  0  0  0  0  0  0
   37.8300   29.3310   42.5940 O   0  0  0  0  0  0  0  0  0  0  0  0
   36.2330   26.5470   42.3190 H   0  0  0  0  0  0  0  0  0  0  0  0
   35.2820   28.5040   40.7030 H   0  0  0  0  0  0  0  0  0  0  0  0
   36.8410   30.9860   41.0600 C   0  0  2  0  0  0  0  0  0  0  0  0
   36.5830   31.0930   39.6090 C   0  0  0  0  0  0  0  0  0  0  0  0
   37.9900   31.2950   40.0740 C   0  0  1  0  0  0  0  0  0  0  0  0
   36.6320   31.7870   41.7980 H   0  0  0  0  0  0  0  0  0  0  0  0
   36.3720   30.1900   39.0240 H   0  0  0  0  0  0  0  0  0  0  0  0
   35.9670   31.9760   39.2800 H   0  0  0  0  0  0  0  0  0  0  0  0
   38.7200   30.4810   39.8610 H   0  0  0  0  0  0  0  0  0  0  0  0
   39.7700   32.9230   40.5780 C   0  0  0  0  0  0  0  0  0  0  0  0
   38.4780   32.6930   40.1540 C   0  0  0  0  0  0  0  0  0  0  0  0
   37.7150   33.7950   39.8290 C   0  0  0  0  0  0  0  0  0  0  0  0
   36.6980   33.6460   39.4930 H   0  0  0  0  0  0  0  0  0  0  0  0
   38.2380   35.0670   39.9280 C   0  0  0  0  0  3  0  0  0  0  0  0
   39.5280   35.3090   40.3490 C   0  0  0  0  0  3  0  0  0  0  0  0
   40.3010   34.2130   40.6790 C   0  0  0  0  0  0  0  0  0  0  0  0
   40.5620   31.8270   40.9140 O   0  0  0  0  0  0  0  0  0  0  0  0
   41.4520   31.9770   41.3530 H   0  0  0  0  0  0  0  0  0  0  0  0
   41.6100   34.4160   41.1090 O   0  0  0  0  0  0  0  0  0  0  0  0
   41.6940   34.6250   42.1070 H   0  0  0  0  0  0  0  0  0  0  0  0
   38.4650   27.4240   43.9100 O   0  0  0  0  0  0  0  0  0  0  0  0
   39.5760   26.6630   43.4940 C   0  0  0  0  0  0  0  0  0  0  0  0
   39.3070   25.5530   42.9610 O   0  0  0  0  0  0  0  0  0  0  0  0
   40.8580   27.2320   43.7240 C   0  0  0  0  0  0  0  0  0  0  0  0
   41.1700   28.2910   42.9170 C   0  0  0  0  0  0  0  0  0  0  0  0
   42.4130   28.8980   43.0860 C   0  0  0  0  0  0  0  0  0  0  0  0
   43.2360   28.4110   44.0300 N   0  0  0  0  0  0  0  0  0  0  0  0
   42.9010   27.3750   44.8030 C   0  0  0  0  0  0  0  0  0  0  0  0
   41.7000   26.7890   44.6370 N   0  0  0  0  0  0  0  0  0  0  0  0
   40.5650   28.7510   42.1270 H   0  0  0  0  0  0  0  0  0  0  0  0
   42.7230   29.7440   42.4780 H   0  0  0  0  0  0  0  0  0  0  0  0
   43.6390   27.0540   45.5410 H   0  0  0  0  0  0  0  0  0  0  0  0
  1 26  1  0  0  0  0
  2  6  1  0  0  0  0
  2  1  2  0  0  0  0
  3  4  2  0  0  0  0
  3  2  1  0  0  0  0
  4  5  1  0  0  0  0
  5  1  1  0  0  0  0
  7  3  1  0  0  0  0
  8  4  1  0  0  0  0
  8 11  1  1  0  0  0
  9 10  1  0  0  0  0
  9  8  1  0  0  0  0
 10 14  1  6  0  0  0
 10 16  1  0  0  0  0
 10  8  1  0  0  0  0
 12  9  1  0  0  0  0
 13  9  1  0  0  0  0
 15 21  1  0  0  0  0
 15 22  1  0  0  0  0
 16 15  2  0  0  0  0
 17 19  2  0  0  0  0
 17 16  1  0  0  0  0
 18 17  1  0  0  0  0
 19 20  1  0  0  0  0
 20 21  2  0  0  0  0
 21 24  1  0  0  0  0
 22 23  1  0  0  0  0
 24 25  1  0  0  0  0
 27 29  1  0  0  0  0
 27 26  1  0  0  0  0
 28 27  2  0  0  0  0
 29 34  1  0  0  0  0
 30 31  1  0  0  0  0
 30 29  2  0  0  0  0
 31 32  2  0  0  0  0
 32 33  1  0  0  0  0
 33 37  1  0  0  0  0
 34 33  2  0  0  0  0
 35 30  1  0  0  0  0
 36 31  1  0  0  0  0
M  END
>  <minimizedAffinity>
-6.16747475

$$$$

 OpenBabel03242518373D

 37 40  0  0  1  0  0  0  0  0999 V2000
   37.1840   26.7840   42.7250 C   0  0  0  0  0  0  0  0  0  0  0  0
   37.8660   27.5360   43.6790 C   0  0  0  0  0  0  0  0  0  0  0  0
   37.7760   28.8770   43.3360 C   0  0  0  0  0  0  0  0  0  0  0  0
   37.0370   28.8700   42.1820 C   0  0  0  0  0  0  0  0  0  0  0  0
   36.6960   27.6500   41.8320 O   0  0  0  0  0  0  0  0  0  0  0  0
   38.3600   27.0460   44.5230 H   0  0  0  0  0  0  0  0  0  0  0  0
   38.2180   29.6820   43.9070 H   0  0  0  0  0  0  0  0  0  0  0  0
   36.6640   30.0800   41.4280 C   0  0  2  0  0  0  0  0  0  0  0  0
   36.2690   29.9620   40.0090 C   0  0  0  0  0  0  0  0  0  0  0  0
   37.6560   30.4410   40.3010 C   0  0  1  0  0  0  0  0  0  0  0  0
   36.3860   30.9250   42.0920 H   0  0  0  0  0  0  0  0  0  0  0  0
   36.1660   28.9720   39.5520 H   0  0  0  0  0  0  0  0  0  0  0  0
   35.4880   30.6900   39.6510 H   0  0  0  0  0  0  0  0  0  0  0  0
   38.4930   29.7330   40.1030 H   0  0  0  0  0  0  0  0  0  0  0  0
   39.0460   32.4270   40.7420 C   0  0  0  0  0  0  0  0  0  0  0  0
   37.9060   31.8970   40.1760 C   0  0  0  0  0  0  0  0  0  0  0  0
   37.0610   32.7710   39.5220 C   0  0  0  0  0  0  0  0  0  0  0  0
   36.1590   32.3840   39.0680 H   0  0  0  0  0  0  0  0  0  0  0  0
   37.3600   34.1150   39.4470 C   0  0  0  0  0  3  0  0  0  0  0  0
   38.4970   34.6550   40.0080 C   0  0  0  0  0  3  0  0  0  0  0  0
   39.3500   33.7910   40.6650 C   0  0  0  0  0  0  0  0  0  0  0  0
   39.9170   31.5680   41.4080 O   0  0  0  0  0  0  0  0  0  0  0  0
   40.6750   31.9500   41.9430 H   0  0  0  0  0  0  0  0  0  0  0  0
   40.5100   34.2990   41.2450 O   0  0  0  0  0  0  0  0  0  0  0  0
   40.3740   34.6860   42.1820 H   0  0  0  0  0  0  0  0  0  0  0  0
   36.9770   25.3960   42.6140 O   0  0  0  0  0  0  0  0  0  0  0  0
   37.9700   24.5850   42.0280 C   0  0  0  0  0  0  0  0  0  0  0  0
   39.1030   24.6290   42.5770 O   0  0  0  0  0  0  0  0  0  0  0  0
   37.5800   23.8220   40.8940 C   0  0  0  0  0  0  0  0  0  0  0  0
   36.2620   23.9380   40.5480 C   0  0  0  0  0  0  0  0  0  0  0  0
   35.8090   23.2150   39.4460 C   0  0  0  0  0  0  0  0  0  0  0  0
   36.6900   22.4470   38.7830 N   0  0  0  0  0  0  0  0  0  0  0  0
   37.9720   22.3550   39.1460 C   0  0  0  0  0  0  0  0  0  0  0  0
   38.4060   23.0540   40.2130 N   0  0  0  0  0  0  0  0  0  0  0  0
   35.4790   24.5360   41.0280 H   0  0  0  0  0  0  0  0  0  0  0  0
   34.7740   23.2620   39.1180 H   0  0  0  0  0  0  0  0  0  0  0  0
   38.6080   21.7040   38.5430 H   0  0  0  0  0  0  0  0  0  0  0  0
  1  2  2  0  0  0  0
  2  6  1  0  0  0  0
  3  2  1  0  0  0  0
  3  7  1  0  0  0  0
  4  3  2  0  0  0  0
  5  4  1  0  0  0  0
  5  1  1  0  0  0  0
  8 11  1  1  0  0  0
  8  4  1  0  0  0  0
  9 10  1  0  0  0  0
  9  8  1  0  0  0  0
 10 14  1  6  0  0  0
 10  8  1  0  0  0  0
 12  9  1  0  0  0  0
 13  9  1  0  0  0  0
 15 22  1  0  0  0  0
 16 10  1  0  0  0  0
 16 15  2  0  0  0  0
 17 16  1  0  0  0  0
 18 17  1  0  0  0  0
 19 17  2  0  0  0  0
 19 20  1  0  0  0  0
 20 21  2  0  0  0  0
 21 15  1  0  0  0  0
 21 24  1  0  0  0  0
 22 23  1  0  0  0  0
 24 25  1  0  0  0  0
 26  1  1  0  0  0  0
 27 28  2  0  0  0  0
 27 26  1  0  0  0  0
 29 27  1  0  0  0  0
 30 29  1  0  0  0  0
 30 35  1  0  0  0  0
 31 30  2  0  0  0  0
 32 33  2  0  0  0  0
 32 31  1  0  0  0  0
 33 34  1  0  0  0  0
 34 29  2  0  0  0  0
 36 31  1  0  0  0  0
 37 33  1  0  0  0  0
M  END
>  <minimizedAffinity>
-6.15411663

$$$$

 OpenBabel03242518373D

 37 40  0  0  1  0  0  0  0  0999 V2000
   38.5090   32.2030   40.9310 C   0  0  0  0  0  0  0  0  0  0  0  0
   37.3060   32.2530   40.2300 C   0  0  0  0  0  0  0  0  0  0  0  0
   36.5880   31.0970   40.4940 C   0  0  0  0  0  0  0  0  0  0  0  0
   37.3990   30.3990   41.3510 C   0  0  0  0  0  0  0  0  0  0  0  0
   38.5140   31.0470   41.6000 O   0  0  0  0  0  0  0  0  0  0  0  0
   37.0670   33.1140   39.5980 H   0  0  0  0  0  0  0  0  0  0  0  0
   35.6150   30.8760   40.0780 H   0  0  0  0  0  0  0  0  0  0  0  0
   37.0610   29.0850   41.9270 C   0  0  2  0  0  0  0  0  0  0  0  0
   37.8620   28.5530   43.0490 C   0  0  0  0  0  0  0  0  0  0  0  0
   38.1380   28.0040   41.6850 C   0  0  1  0  0  0  0  0  0  0  0  0
   36.0240   28.7710   41.6880 H   0  0  0  0  0  0  0  0  0  0  0  0
   38.6390   29.1740   43.5070 H   0  0  0  0  0  0  0  0  0  0  0  0
   37.3040   27.9300   43.8030 H   0  0  0  0  0  0  0  0  0  0  0  0
   39.0840   28.3200   41.1890 H   0  0  0  0  0  0  0  0  0  0  0  0
   37.3740   26.3260   40.0500 C   0  0  0  0  0  0  0  0  0  0  0  0
   37.5750   26.6680   41.3710 C   0  0  0  0  0  0  0  0  0  0  0  0
   37.2340   25.7320   42.3240 C   0  0  0  0  0  0  0  0  0  0  0  0
   37.3800   25.9730   43.3690 H   0  0  0  0  0  0  0  0  0  0  0  0
   36.7150   24.5090   41.9550 C   0  0  0  0  0  3  0  0  0  0  0  0
   36.5110   24.1550   40.6390 C   0  0  0  0  0  3  0  0  0  0  0  0
   36.8480   25.0850   39.6750 C   0  0  0  0  0  0  0  0  0  0  0  0
   37.7100   27.2530   39.0660 O   0  0  0  0  0  0  0  0  0  0  0  0
   37.4450   27.0810   38.1140 H   0  0  0  0  0  0  0  0  0  0  0  0
   36.6570   24.7650   38.3330 O   0  0  0  0  0  0  0  0  0  0  0  0
   35.7070   24.9350   37.9940 H   0  0  0  0  0  0  0  0  0  0  0  0
   39.5780   33.1180   41.0040 O   0  0  0  0  0  0  0  0  0  0  0  0
   39.7100   34.1190   40.0210 C   0  0  0  0  0  0  0  0  0  0  0  0
   38.9140   35.0910   40.1230 O   0  0  0  0  0  0  0  0  0  0  0  0
   40.7160   33.9160   39.0370 C   0  0  0  0  0  0  0  0  0  0  0  0
   40.5870   32.7630   38.3130 C   0  0  0  0  0  0  0  0  0  0  0  0
   41.5390   32.4990   37.3300 C   0  0  0  0  0  0  0  0  0  0  0  0
   42.5290   33.3890   37.1480 N   0  0  0  0  0  0  0  0  0  0  0  0
   42.6270   34.5070   37.8720 C   0  0  0  0  0  0  0  0  0  0  0  0
   41.7050   34.7590   38.8220 N   0  0  0  0  0  0  0  0  0  0  0  0
   39.8180   31.9870   38.3940 H   0  0  0  0  0  0  0  0  0  0  0  0
   41.4960   31.6010   36.7190 H   0  0  0  0  0  0  0  0  0  0  0  0
   43.4680   35.1660   37.6470 H   0  0  0  0  0  0  0  0  0  0  0  0
  1 26  1  0  0  0  0
  1  5  1  0  0  0  0
  2  3  1  0  0  0  0
  2  1  2  0  0  0  0
  3  4  2  0  0  0  0
  4  5  1  0  0  0  0
  4  8  1  0  0  0  0
  6  2  1  0  0  0  0
  7  3  1  0  0  0  0
  8 11  1  6  0  0  0
  8  9  1  0  0  0  0
  9 12  1  0  0  0  0
  9 13  1  0  0  0  0
 10 14  1  6  0  0  0
 10  8  1  0  0  0  0
 10  9  1  0  0  0  0
 15 16  1  0  0  0  0
 16 10  1  0  0  0  0
 16 17  2  0  0  0  0
 17 18  1  0  0  0  0
 19 17  1  0  0  0  0
 20 19  2  0  0  0  0
 21 15  2  0  0  0  0
 21 20  1  0  0  0  0
 22 15  1  0  0  0  0
 23 22  1  0  0  0  0
 24 21  1  0  0  0  0
 25 24  1  0  0  0  0
 27 28  2  0  0  0  0
 27 26  1  0  0  0  0
 29 27  1  0  0  0  0
 30 35  1  0  0  0  0
 30 29  2  0  0  0  0
 31 30  1  0  0  0  0
 32 31  2  0  0  0  0
 32 33  1  0  0  0  0
 33 34  2  0  0  0  0
 34 29  1  0  0  0  0
 36 31  1  0  0  0  0
 37 33  1  0  0  0  0
M  END
>  <minimizedAffinity>
-6.1448164

$$$$

 OpenBabel03242518373D

 37 40  0  0  1  0  0  0  0  0999 V2000
   37.5930   30.9280   39.7150 C   0  0  0  0  0  0  0  0  0  0  0  0
   36.9940   32.1590   39.9720 C   0  0  0  0  0  0  0  0  0  0  0  0
   37.9870   33.1170   40.1130 C   0  0  0  0  0  0  0  0  0  0  0  0
   39.1490   32.4110   39.9340 C   0  0  0  0  0  0  0  0  0  0  0  0
   38.9120   31.1390   39.7030 O   0  0  0  0  0  0  0  0  0  0  0  0
   35.9050   32.2450   40.0320 H   0  0  0  0  0  0  0  0  0  0  0  0
   37.8010   34.1620   40.3180 H   0  0  0  0  0  0  0  0  0  0  0  0
   40.4960   33.0040   39.9870 C   0  0  2  0  0  0  0  0  0  0  0  0
   40.7080   34.3800   39.4900 C   0  0  0  0  0  0  0  0  0  0  0  0
   41.1220   33.2540   38.5970 C   0  0  1  0  0  0  0  0  0  0  0  0
   41.1600   32.4860   40.7100 H   0  0  0  0  0  0  0  0  0  0  0  0
   39.8500   34.9830   39.1740 H   0  0  0  0  0  0  0  0  0  0  0  0
   41.4890   34.9860   40.0300 H   0  0  0  0  0  0  0  0  0  0  0  0
   40.4890   33.0530   37.7020 H   0  0  0  0  0  0  0  0  0  0  0  0
   43.3410   33.5520   37.5670 C   0  0  0  0  0  0  0  0  0  0  0  0
   42.5700   32.9420   38.5350 C   0  0  0  0  0  0  0  0  0  0  0  0
   43.2080   32.0690   39.3920 C   0  0  0  0  0  0  0  0  0  0  0  0
   42.6290   31.5760   40.1610 H   0  0  0  0  0  0  0  0  0  0  0  0
   44.5600   31.8290   39.2730 C   0  0  0  0  0  3  0  0  0  0  0  0
   45.3400   32.4330   38.3110 C   0  0  0  0  0  3  0  0  0  0  0  0
   44.7130   33.3080   37.4460 C   0  0  0  0  0  0  0  0  0  0  0  0
   42.7220   34.4380   36.6880 O   0  0  0  0  0  0  0  0  0  0  0  0
   43.2310   34.7830   35.8950 H   0  0  0  0  0  0  0  0  0  0  0  0
   45.4670   33.9390   36.4600 O   0  0  0  0  0  0  0  0  0  0  0  0
   45.5970   33.3820   35.6120 H   0  0  0  0  0  0  0  0  0  0  0  0
   37.0350   29.6540   39.4950 O   0  0  0  0  0  0  0  0  0  0  0  0
   36.3700   28.9900   40.5450 C   0  0  0  0  0  0  0  0  0  0  0  0
   35.1190   29.1360   40.5750 O   0  0  0  0  0  0  0  0  0  0  0  0
   37.1820   28.2420   41.4400 C   0  0  0  0  0  0  0  0  0  0  0  0
   37.1500   28.6700   42.7390 C   0  0  0  0  0  0  0  0  0  0  0  0
   37.9240   27.9820   43.6730 C   0  0  0  0  0  0  0  0  0  0  0  0
   38.6560   26.9390   43.2480 N   0  0  0  0  0  0  0  0  0  0  0  0
   38.6650   26.5450   41.9720 C   0  0  0  0  0  0  0  0  0  0  0  0
   37.9170   27.2120   41.0710 N   0  0  0  0  0  0  0  0  0  0  0  0
   36.5860   29.5050   43.1700 H   0  0  0  0  0  0  0  0  0  0  0  0
   37.9440   28.2700   44.7200 H   0  0  0  0  0  0  0  0  0  0  0  0
   39.2930   25.6870   41.7260 H   0  0  0  0  0  0  0  0  0  0  0  0
  1  2  2  0  0  0  0
  2  6  1  0  0  0  0
  2  3  1  0  0  0  0
  3  7  1  0  0  0  0
  4  8  1  0  0  0  0
  4  3  2  0  0  0  0
  5  1  1  0  0  0  0
  5  4  1  0  0  0  0
  8 11  1  1  0  0  0
  9  8  1  0  0  0  0
  9 13  1  0  0  0  0
 10 14  1  6  0  0  0
 10  9  1  0  0  0  0
 10  8  1  0  0  0  0
 12  9  1  0  0  0  0
 15 16  1  0  0  0  0
 16 10  1  0  0  0  0
 16 17  2  0  0  0  0
 17 18  1  0  0  0  0
 19 17  1  0  0  0  0
 20 19  2  0  0  0  0
 21 15  2  0  0  0  0
 21 20  1  0  0  0  0
 22 15  1  0  0  0  0
 23 22  1  0  0  0  0
 24 21  1  0  0  0  0
 25 24  1  0  0  0  0
 26  1  1  0  0  0  0
 26 27  1  0  0  0  0
 27 28  2  0  0  0  0
 27 29  1  0  0  0  0
 29 30  1  0  0  0  0
 30 35  1  0  0  0  0
 30 31  2  0  0  0  0
 31 36  1  0  0  0  0
 32 31  1  0  0  0  0
 33 32  2  0  0  0  0
 34 29  2  0  0  0  0
 34 33  1  0  0  0  0
 37 33  1  0  0  0  0
M  END
>  <minimizedAffinity>
-6.14017487

$$$$

 OpenBabel03242518373D

 37 40  0  0  1  0  0  0  0  0999 V2000
   37.1050   26.6850   42.6710 C   0  0  0  0  0  0  0  0  0  0  0  0
   37.6940   27.4420   43.6820 C   0  0  0  0  0  0  0  0  0  0  0  0
   37.5940   28.7850   43.3490 C   0  0  0  0  0  0  0  0  0  0  0  0
   36.9430   28.7740   42.1430 C   0  0  0  0  0  0  0  0  0  0  0  0
   36.6630   27.5500   41.7540 O   0  0  0  0  0  0  0  0  0  0  0  0
   38.1360   26.9540   44.5560 H   0  0  0  0  0  0  0  0  0  0  0  0
   37.9710   29.5930   43.9600 H   0  0  0  0  0  0  0  0  0  0  0  0
   36.5960   29.9830   41.3770 C   0  0  2  0  0  0  0  0  0  0  0  0
   36.2470   29.8650   39.9460 C   0  0  0  0  0  0  0  0  0  0  0  0
   37.6240   30.3420   40.2810 C   0  0  1  0  0  0  0  0  0  0  0  0
   36.2980   30.8290   42.0310 H   0  0  0  0  0  0  0  0  0  0  0  0
   36.1560   28.8740   39.4860 H   0  0  0  0  0  0  0  0  0  0  0  0
   35.4780   30.5930   39.5630 H   0  0  0  0  0  0  0  0  0  0  0  0
   38.4660   29.6330   40.1110 H   0  0  0  0  0  0  0  0  0  0  0  0
   39.0200   32.3220   40.7340 C   0  0  0  0  0  0  0  0  0  0  0  0
   37.8790   31.7990   40.1630 C   0  0  0  0  0  0  0  0  0  0  0  0
   37.0390   32.6780   39.5110 C   0  0  0  0  0  0  0  0  0  0  0  0
   36.1370   32.2960   39.0530 H   0  0  0  0  0  0  0  0  0  0  0  0
   37.3430   34.0210   39.4420 C   0  0  0  0  0  3  0  0  0  0  0  0
   38.4800   34.5550   40.0080 C   0  0  0  0  0  3  0  0  0  0  0  0
   39.3280   33.6850   40.6640 C   0  0  0  0  0  0  0  0  0  0  0  0
   39.8860   31.4570   41.3990 O   0  0  0  0  0  0  0  0  0  0  0  0
   40.6440   31.8340   41.9370 H   0  0  0  0  0  0  0  0  0  0  0  0
   40.4890   34.1860   41.2500 O   0  0  0  0  0  0  0  0  0  0  0  0
   40.3510   34.5700   42.1880 H   0  0  0  0  0  0  0  0  0  0  0  0
   36.9450   25.2930   42.5300 O   0  0  0  0  0  0  0  0  0  0  0  0
   37.7880   24.5770   41.6590 C   0  0  0  0  0  0  0  0  0  0  0  0
   37.2100   23.7670   40.8850 O   0  0  0  0  0  0  0  0  0  0  0  0
   39.1800   24.8470   41.7540 C   0  0  0  0  0  0  0  0  0  0  0  0
   39.7520   25.3320   40.6100 C   0  0  0  0  0  0  0  0  0  0  0  0
   41.1150   25.6190   40.6320 C   0  0  0  0  0  0  0  0  0  0  0  0
   41.7930   25.4060   41.7720 N   0  0  0  0  0  0  0  0  0  0  0  0
   41.2050   24.9320   42.8730 C   0  0  0  0  0  0  0  0  0  0  0  0
   39.8870   24.6540   42.8500 N   0  0  0  0  0  0  0  0  0  0  0  0
   39.2790   25.5360   39.6430 H   0  0  0  0  0  0  0  0  0  0  0  0
   41.6310   26.0070   39.7570 H   0  0  0  0  0  0  0  0  0  0  0  0
   41.8420   24.7920   43.7490 H   0  0  0  0  0  0  0  0  0  0  0  0
  1  2  2  0  0  0  0
  2  6  1  0  0  0  0
  3  2  1  0  0  0  0
  3  7  1  0  0  0  0
  4  3  2  0  0  0  0
  5  4  1  0  0  0  0
  5  1  1  0  0  0  0
  8 11  1  1  0  0  0
  8  4  1  0  0  0  0
  9 10  1  0  0  0  0
  9  8  1  0  0  0  0
 10 14  1  6  0  0  0
 10  8  1  0  0  0  0
 12  9  1  0  0  0  0
 13  9  1  0  0  0  0
 15 22  1  0  0  0  0
 16 10  1  0  0  0  0
 16 15  2  0  0  0  0
 17 16  1  0  0  0  0
 18 17  1  0  0  0  0
 19 17  2  0  0  0  0
 19 20  1  0  0  0  0
 20 21  2  0  0  0  0
 21 15  1  0  0  0  0
 21 24  1  0  0  0  0
 22 23  1  0  0  0  0
 24 25  1  0  0  0  0
 26  1  1  0  0  0  0
 27 29  1  0  0  0  0
 27 26  1  0  0  0  0
 28 27  2  0  0  0  0
 29 34  1  0  0  0  0
 30 31  1  0  0  0  0
 30 29  2  0  0  0  0
 31 32  2  0  0  0  0
 32 33  1  0  0  0  0
 33 37  1  0  0  0  0
 34 33  2  0  0  0  0
 35 30  1  0  0  0  0
 36 31  1  0  0  0  0
M  END
>  <minimizedAffinity>
-6.11989546

$$$$
