
 OpenBabel03242512453D

 40 42  0  0  1  0  0  0  0  0999 V2000
   45.6400   34.3050   45.0540 C   0  0  0  0  0  0  0  0  0  0  0  0
   46.4230   33.9680   43.9420 C   0  0  0  0  0  0  0  0  0  0  0  0
   47.2120   32.8160   44.0440 C   0  0  0  0  0  0  0  0  0  0  0  0
   47.1710   32.0990   45.2100 N   0  0  0  0  0  0  0  0  0  0  0  0
   46.4100   32.4660   46.2310 C   0  0  0  0  0  0  0  0  0  0  0  0
   45.6450   33.5660   46.1590 N   0  0  0  0  0  0  0  0  0  0  0  0
   46.4180   31.6330   47.4210 N   0  0  0  0  0  0  0  0  0  0  0  0
   46.1470   32.2620   48.6870 C   0  0  0  0  0  0  0  0  0  0  0  0
   45.3870   31.3720   49.5680 C   0  0  0  0  0  0  0  0  0  0  0  0
   44.8370   30.1060   48.9930 C   0  0  0  0  0  0  0  0  0  0  0  0
   45.7480   29.4010   48.0440 C   0  0  0  0  0  0  0  0  0  0  0  0
   46.6680   30.2190   47.2440 C   0  0  2  0  0  0  0  0  0  0  0  0
   46.4350   34.5540   43.0350 H   0  0  0  0  0  0  0  0  0  0  0  0
   47.8440   32.4910   43.2270 H   0  0  0  0  0  0  0  0  0  0  0  0
   47.0810   32.6440   49.1090 H   0  0  0  0  0  0  0  0  0  0  0  0
   45.5440   33.2030   48.4690 H   0  0  0  0  0  0  0  0  0  0  0  0
   46.0110   31.0840   50.4600 H   0  0  0  0  0  0  0  0  0  0  0  0
   44.5210   31.9090   50.0190 H   0  0  0  0  0  0  0  0  0  0  0  0
   43.9020   30.3640   48.4500 H   0  0  0  0  0  0  0  0  0  0  0  0
   44.5570   29.4460   49.8330 H   0  0  0  0  0  0  0  0  0  0  0  0
   45.1350   28.6990   47.4430 H   0  0  0  0  0  0  0  0  0  0  0  0
   46.3810   28.7200   48.6870 H   0  0  0  0  0  0  0  0  0  0  0  0
   46.4490   29.9720   46.1490 H   0  0  0  0  0  0  0  0  0  0  0  0
   48.7020   30.0600   48.6750 C   0  0  0  0  0  0  0  0  0  0  0  0
   48.0890   29.9010   47.4210 C   0  0  0  0  0  0  0  0  0  0  0  0
   48.9990   29.4510   46.4950 C   0  0  0  0  0  0  0  0  0  0  0  0
   48.6550   29.2980   45.4870 H   0  0  0  0  0  0  0  0  0  0  0  0
   50.3290   29.1790   46.7110 C   0  0  0  0  0  0  0  0  0  0  0  0
   50.8350   29.3670   47.9790 C   0  0  0  0  0  0  0  0  0  0  0  0
   50.0120   29.8160   48.9880 C   0  0  0  0  0  0  0  0  0  0  0  0
   47.9170   30.5120   49.7350 O   0  0  0  0  0  0  0  0  0  0  0  0
   47.6940   29.8630   50.4980 H   0  0  0  0  0  0  0  0  0  0  0  0
   50.5140   30.0070   50.2640 O   0  0  0  0  0  0  0  0  0  0  0  0
   51.0690   29.2830   50.7420 H   0  0  0  0  0  0  0  0  0  0  0  0
   44.8890   35.4370   44.9010 O   0  0  0  0  0  0  0  0  0  0  0  0
   44.5140   35.9970   43.6910 C   0  0  0  0  0  0  0  0  0  0  0  0
   45.1410   36.9260   43.1040 O   0  0  0  0  0  0  0  0  0  0  0  0
   43.3780   35.6010   42.9590 N   0  0  0  0  0  0  0  0  0  0  0  0
   42.9150   35.0940   42.1880 H   0  0  0  0  0  0  0  0  0  0  0  0
   42.4250   35.9310   43.2560 H   0  0  0  0  0  0  0  0  0  0  0  0
  1  6  1  0  0  0  0
  2  3  1  0  0  0  0
  2  1  2  0  0  0  0
  3  4  2  0  0  0  0
  4  5  1  0  0  0  0
  5  7  1  0  0  0  0
  6  5  2  0  0  0  0
  7  8  1  0  0  0  0
  8 15  1  0  0  0  0
  8  9  1  0  0  0  0
  9 18  1  0  0  0  0
  9 17  1  0  0  0  0
 10  9  1  0  0  0  0
 10 20  1  0  0  0  0
 11 22  1  0  0  0  0
 11 10  1  0  0  0  0
 12 23  1  6  0  0  0
 12 25  1  0  0  0  0
 12  7  1  0  0  0  0
 12 11  1  0  0  0  0
 13  2  1  0  0  0  0
 14  3  1  0  0  0  0
 16  8  1  0  0  0  0
 19 10  1  0  0  0  0
 21 11  1  0  0  0  0
 24 30  1  0  0  0  0
 24 31  1  0  0  0  0
 25 24  2  0  0  0  0
 26 28  2  0  0  0  0
 26 25  1  0  0  0  0
 27 26  1  0  0  0  0
 28 29  1  0  0  0  0
 29 30  2  0  0  0  0
 30 33  1  0  0  0  0
 31 32  1  0  0  0  0
 33 34  1  0  0  0  0
 35  1  1  0  0  0  0
 36 35  1  0  0  0  0
 37 36  2  0  0  0  0
 38 40  1  0  0  0  0
 38 36  1  0  0  0  0
 39 38  1  0  0  0  0
M  END
>  <minimizedAffinity>
-6.73880863

>  <minimizedRMSD>
0.73923856

$$$$
