
 OpenBabel03252503413D

 23 24  0  0  0  0  0  0  0  0999 V2000
   44.9690   33.2050   42.8260 C   0  0  0  0  0  0  0  0  0  0  0  0
   45.7780   34.2500   43.2790 C   0  0  0  0  0  0  0  0  0  0  0  0
   45.4080   35.5450   42.9420 C   0  0  0  0  0  0  0  0  0  0  0  0
   44.2860   35.7260   42.1950 N   0  0  0  0  0  0  0  0  0  0  0  0
   43.5260   34.7050   41.7740 C   0  0  0  0  0  0  0  0  0  0  0  0
   43.8560   33.4350   42.0830 N   0  0  0  0  0  0  0  0  0  0  0  0
   45.1300   32.1370   43.0110 H   0  0  0  0  0  0  0  0  0  0  0  0
   46.0670   36.2940   43.3170 H   0  0  0  0  0  0  0  0  0  0  0  0
   42.1860   34.4000   39.7300 C   0  0  0  0  0  0  0  0  0  0  0  0
   42.3300   34.9500   40.9740 C   0  0  0  0  0  0  0  0  0  0  0  0
   41.3080   35.7390   41.4360 C   0  0  0  0  0  0  0  0  0  0  0  0
   41.3370   36.2100   42.3980 H   0  0  0  0  0  0  0  0  0  0  0  0
   40.1840   35.9560   40.6560 C   0  0  0  0  0  3  0  0  0  0  0  0
   40.0620   35.3880   39.4000 C   0  0  0  0  0  3  0  0  0  0  0  0
   41.0860   34.5890   38.9200 C   0  0  0  0  0  0  0  0  0  0  0  0
   43.2410   33.5910   39.2660 O   0  0  0  0  0  0  0  0  0  0  0  0
   43.2590   32.5960   39.3940 H   0  0  0  0  0  0  0  0  0  0  0  0
   41.0730   33.9610   37.6660 O   0  0  0  0  0  0  0  0  0  0  0  0
   41.4820   33.0360   37.5500 H   0  0  0  0  0  0  0  0  0  0  0  0
   46.9480   33.8180   44.0760 C   0  0  0  0  0  0  0  0  0  0  0  0
   46.6540   33.4980   45.1000 H   0  0  0  0  0  0  0  0  0  0  0  0
   47.6440   34.6790   44.1250 H   0  0  0  0  0  0  0  0  0  0  0  0
   47.3850   32.9170   43.6010 H   0  0  0  0  0  0  0  0  0  0  0  0
  1  7  1  0  0  0  0
  1  2  1  0  0  0  0
  2 20  1  0  0  0  0
  3  2  2  0  0  0  0
  3  8  1  0  0  0  0
  4  3  1  0  0  0  0
  5  6  1  0  0  0  0
  5  4  2  0  0  0  0
  6  1  2  0  0  0  0
  9 10  1  0  0  0  0
 10 11  2  0  0  0  0
 10  5  1  0  0  0  0
 11 12  1  0  0  0  0
 13 11  1  0  0  0  0
 14 13  2  0  0  0  0
 15 14  1  0  0  0  0
 15  9  2  0  0  0  0
 16 17  1  0  0  0  0
 16  9  1  0  0  0  0
 18 15  1  0  0  0  0
 19 18  1  0  0  0  0
 20 22  1  0  0  0  0
 20 21  1  0  0  0  0
 23 20  1  0  0  0  0
M  END
>  <minimizedAffinity>
-4.87119961

>  <minimizedRMSD>
7.96631098

$$$$
