
 OpenBabel03242511093D

 45 49  0  0  1  0  0  0  0  0999 V2000
   46.2260   32.2530   43.9310 C   0  0  0  0  0  0  0  0  0  0  0  0
   46.3940   31.5520   45.1220 C   0  0  0  0  0  0  0  0  0  0  0  0
   46.0560   32.0700   46.3660 C   0  0  0  0  0  0  0  0  0  0  0  0
   45.5270   33.3360   46.4610 C   0  0  0  0  0  0  0  0  0  0  0  0
   45.3460   34.0540   45.3100 C   0  0  0  0  0  0  0  0  0  0  0  0
   44.8120   35.3200   45.4030 C   0  0  0  0  0  0  0  0  0  0  0  0
   44.5990   36.1000   44.2750 C   0  0  0  0  0  0  0  0  0  0  0  0
   44.9490   35.5440   43.0500 C   0  0  0  0  0  0  0  0  0  0  0  0
   45.4850   34.2630   42.9980 C   0  0  0  0  0  0  0  0  0  0  0  0
   45.6930   33.5030   44.1080 C   0  0  0  0  0  0  0  0  0  0  0  0
   46.8010   30.5540   45.1430 H   0  0  0  0  0  0  0  0  0  0  0  0
   46.2020   31.4930   47.2710 H   0  0  0  0  0  0  0  0  0  0  0  0
   45.2660   33.7320   47.4330 H   0  0  0  0  0  0  0  0  0  0  0  0
   44.5580   35.7010   46.3890 H   0  0  0  0  0  0  0  0  0  0  0  0
   44.1740   37.0810   44.4640 H   0  0  0  0  0  0  0  0  0  0  0  0
   44.7350   36.2470   42.2540 H   0  0  0  0  0  0  0  0  0  0  0  0
   47.0020   34.4010   41.2450 C   0  0  0  0  0  0  0  0  0  0  0  0
   45.7110   33.9630   41.5960 C   0  0  0  0  0  0  0  0  0  0  0  0
   44.9770   33.3360   40.6090 C   0  0  0  0  0  0  0  0  0  0  0  0
   44.0200   33.0480   41.0110 H   0  0  0  0  0  0  0  0  0  0  0  0
   45.4860   33.1500   39.3450 C   0  0  0  0  0  0  0  0  0  0  0  0
   46.7460   33.5720   38.9860 C   0  0  0  0  0  0  0  0  0  0  0  0
   47.5010   34.2020   39.9520 C   0  0  0  0  0  0  0  0  0  0  0  0
   47.9310   35.0590   42.0710 O   0  0  0  0  0  0  0  0  0  0  0  0
   48.0150   36.0670   41.9660 H   0  0  0  0  0  0  0  0  0  0  0  0
   48.7640   34.6100   39.5430 O   0  0  0  0  0  0  0  0  0  0  0  0
   49.4180   33.8530   39.3250 H   0  0  0  0  0  0  0  0  0  0  0  0
   46.6030   31.6540   42.7210 N   0  0  0  0  0  0  0  0  0  0  0  0
   46.0130   31.7940   41.8730 H   0  0  0  0  0  0  0  0  0  0  0  0
   49.1290   31.3190   42.6170 C   0  0  1  0  0  0  0  0  0  0  0  0
   48.5340   30.8520   41.3030 C   0  0  0  0  0  0  0  0  0  0  0  0
   47.7650   30.8160   42.6210 C   0  0  2  0  0  0  0  0  0  0  0  0
   49.4410   32.3880   42.5360 H   0  0  0  0  0  0  0  0  0  0  0  0
   48.1910   31.5750   40.5510 H   0  0  0  0  0  0  0  0  0  0  0  0
   48.8550   29.8530   40.9280 H   0  0  0  0  0  0  0  0  0  0  0  0
   47.6380   29.8020   43.0980 H   0  0  0  0  0  0  0  0  0  0  0  0
   52.4910   29.8620   43.2520 C   0  0  0  0  0  0  0  0  0  0  0  0
   52.2010   28.9420   44.3070 C   0  0  0  0  0  0  0  0  0  0  0  0
   50.8620   28.8600   44.7700 C   0  0  0  0  0  0  0  0  0  0  0  0
   49.9140   29.6290   44.2210 N   0  0  0  0  0  0  0  0  0  0  0  0
   50.2240   30.4950   43.2170 C   0  0  0  0  0  0  0  0  0  0  0  0
   51.5090   30.6070   42.7390 N   0  0  0  0  0  0  0  0  0  0  0  0
   53.4790   29.9720   42.8550 H   0  0  0  0  0  0  0  0  0  0  0  0
   53.0340   28.3840   44.6630 H   0  0  0  0  0  0  0  0  0  0  0  0
   50.6960   28.1540   45.5650 H   0  0  0  0  0  0  0  0  0  0  0  0
  1 10  2  0  0  0  0
  1  2  1  0  0  0  0
  2 11  1  0  0  0  0
  2  3  2  0  0  0  0
  3  4  1  0  0  0  0
  3 12  1  0  0  0  0
  4 13  1  0  0  0  0
  5  6  1  0  0  0  0
  5  4  2  0  0  0  0
  6 14  1  0  0  0  0
  7 15  1  0  0  0  0
  7  6  2  0  0  0  0
  8  7  1  0  0  0  0
  9  8  2  0  0  0  0
  9 10  1  0  0  0  0
 10  5  1  0  0  0  0
 16  8  1  0  0  0  0
 17 18  1  0  0  0  0
 17 24  1  0  0  0  0
 18  9  1  0  0  0  0
 19 20  1  0  0  0  0
 19 18  2  0  0  0  0
 21 19  1  0  0  0  0
 22 21  2  0  0  0  0
 22 23  1  0  0  0  0
 23 17  2  0  0  0  0
 25 24  1  0  0  0  0
 26 23  1  0  0  0  0
 27 26  1  0  0  0  0
 28  1  1  0  0  0  0
 29 28  1  0  0  0  0
 30 33  1  1  0  0  0
 30 32  1  0  0  0  0
 30 41  1  0  0  0  0
 31 30  1  0  0  0  0
 31 32  1  0  0  0  0
 32 28  1  0  0  0  0
 32 36  1  1  0  0  0
 34 31  1  0  0  0  0
 35 31  1  0  0  0  0
 37 38  1  0  0  0  0
 38 44  1  0  0  0  0
 38 39  2  0  0  0  0
 39 45  1  0  0  0  0
 40 39  1  0  0  0  0
 41 40  2  0  0  0  0
 42 41  1  0  0  0  0
 42 37  2  0  0  0  0
 43 37  1  0  0  0  0
M  END
>  <minimizedAffinity>
-5.66649246

>  <minimizedRMSD>
1.86948216

$$$$
