
 OpenBabel03252508153D

 39 42  0  0  1  0  0  0  0  0999 V2000
   46.0760   33.1180   46.0430 C   0  0  0  0  0  3  0  0  0  0  0  0
   46.7930   32.1320   45.6700 C   0  0  0  0  0  3  0  0  0  0  0  0
   44.4590   35.9980   44.4160 C   0  0  0  0  0  0  0  0  0  0  0  0
   44.7710   35.7990   43.0770 C   0  0  0  0  0  0  0  0  0  0  0  0
   45.5300   34.7180   42.7590 C   0  0  0  0  0  0  0  0  0  0  0  0
   45.9290   33.9110   43.7730 N   0  0  0  0  0  0  0  0  0  0  0  0
   45.6370   34.0880   45.0590 C   0  0  0  0  0  0  0  0  0  0  0  0
   44.8890   35.1580   45.3520 N   0  0  0  0  0  0  0  0  0  0  0  0
   43.8550   36.8490   44.7280 H   0  0  0  0  0  0  0  0  0  0  0  0
   44.4340   36.4610   42.3120 H   0  0  0  0  0  0  0  0  0  0  0  0
   47.2020   34.5170   40.8590 C   0  0  0  0  0  0  0  0  0  0  0  0
   45.9790   34.3090   41.4380 C   0  0  0  0  0  0  0  0  0  0  0  0
   45.1170   33.6150   40.6070 C   0  0  0  0  0  0  0  0  0  0  0  0
   44.0890   33.3570   40.9080 H   0  0  0  0  0  0  0  0  0  0  0  0
   45.4510   33.1840   39.3410 C   0  0  0  0  0  3  0  0  0  0  0  0
   46.7040   33.4310   38.8250 C   0  0  0  0  0  3  0  0  0  0  0  0
   47.5930   34.1160   39.6130 C   0  0  0  0  0  0  0  0  0  0  0  0
   48.1410   35.1940   41.5890 O   0  0  0  0  0  0  0  0  0  0  0  0
   48.8440   34.6400   42.0770 H   0  0  0  0  0  0  0  0  0  0  0  0
   48.8420   34.3690   39.1110 O   0  0  0  0  0  0  0  0  0  0  0  0
   49.5080   33.5920   39.1200 H   0  0  0  0  0  0  0  0  0  0  0  0
   47.1830   31.1590   46.7720 C   0  0  0  0  0  0  0  0  0  0  0  0
   46.4770   30.3000   46.6060 H   0  0  0  0  0  0  0  0  0  0  0  0
   48.2080   30.8020   46.6440 H   0  0  0  0  0  0  0  0  0  0  0  0
   46.8480   31.7390   48.1040 C   0  0  1  0  0  0  0  0  0  0  0  0
   46.2170   30.8270   49.1050 C   0  0  0  0  0  0  0  0  0  0  0  0
   47.5790   31.2820   49.3150 C   0  0  1  0  0  0  0  0  0  0  0  0
   46.4840   32.8030   48.1160 H   0  0  0  0  0  0  0  0  0  0  0  0
   46.0580   29.7670   48.7950 H   0  0  0  0  0  0  0  0  0  0  0  0
   45.3710   31.2170   49.6980 H   0  0  0  0  0  0  0  0  0  0  0  0
   47.6950   32.0600   50.1300 H   0  0  0  0  0  0  0  0  0  0  0  0
   48.8000   30.4710   49.1200 C   0  0  0  0  0  0  0  0  0  0  0  0
   49.6390   30.2700   50.4090 C   0  0  0  0  0  0  0  0  0  0  0  0
   50.1430   31.1930   49.3530 C   0  0  0  0  0  0  0  0  0  0  0  0
   48.8000   29.6020   48.4320 H   0  0  0  0  0  0  0  0  0  0  0  0
   50.1090   29.2940   50.5430 H   0  0  0  0  0  0  0  0  0  0  0  0
   49.2900   30.7730   51.3310 H   0  0  0  0  0  0  0  0  0  0  0  0
   50.9990   30.8090   48.7730 H   0  0  0  0  0  0  0  0  0  0  0  0
   50.0720   32.2780   49.4590 H   0  0  0  0  0  0  0  0  0  0  0  0
  2  1  2  0  0  0  0
  2 22  1  0  0  0  0
  3  9  1  0  0  0  0
  3  8  1  0  0  0  0
  4  3  2  0  0  0  0
  5  4  1  0  0  0  0
  5  6  2  0  0  0  0
  6  7  1  0  0  0  0
  7  8  2  0  0  0  0
  7  1  1  0  0  0  0
 10  4  1  0  0  0  0
 11 12  1  0  0  0  0
 11 18  1  0  0  0  0
 12  5  1  0  0  0  0
 13 14  1  0  0  0  0
 13 12  2  0  0  0  0
 15 13  1  0  0  0  0
 16 15  2  0  0  0  0
 16 17  1  0  0  0  0
 17 11  2  0  0  0  0
 18 19  1  0  0  0  0
 20 21  1  0  0  0  0
 20 17  1  0  0  0  0
 22 25  1  0  0  0  0
 23 22  1  0  0  0  0
 24 22  1  0  0  0  0
 25 28  1  1  0  0  0
 25 26  1  0  0  0  0
 25 27  1  0  0  0  0
 26 27  1  0  0  0  0
 26 30  1  0  0  0  0
 27 31  1  1  0  0  0
 29 26  1  0  0  0  0
 32 27  1  0  0  0  0
 32 34  1  0  0  0  0
 32 33  1  0  0  0  0
 33 36  1  0  0  0  0
 33 37  1  0  0  0  0
 34 39  1  0  0  0  0
 34 33  1  0  0  0  0
 35 32  1  0  0  0  0
 38 34  1  0  0  0  0
M  END
>  <minimizedAffinity>
-6.08388472

>  <minimizedRMSD>
0.961021781

$$$$
