
 OpenBabel03252503243D

 49 54  0  0  1  0  0  0  0  0999 V2000
   45.5990   33.5290   45.3310 C   0  0  0  0  0  0  0  0  0  0  0  0
   46.6600   32.9110   44.5780 C   0  0  0  0  0  0  0  0  0  0  0  0
   47.5130   32.0660   45.2380 C   0  0  0  0  0  0  0  0  0  0  0  0
   47.3050   31.8610   46.5670 N   0  0  0  0  0  0  0  0  0  0  0  0
   46.2990   32.4530   47.2630 C   0  0  0  0  0  0  0  0  0  0  0  0
   45.4480   33.2850   46.6430 N   0  0  0  0  0  0  0  0  0  0  0  0
   44.9290   34.1940   44.8070 H   0  0  0  0  0  0  0  0  0  0  0  0
   48.3150   31.5870   44.7070 H   0  0  0  0  0  0  0  0  0  0  0  0
   46.7780   33.2290   43.1230 C   0  0  1  0  0  0  0  0  0  0  0  0
   46.9210   34.6090   42.6780 C   0  0  0  0  0  0  0  0  0  0  0  0
   48.1290   33.7500   42.6560 C   0  0  2  0  0  0  0  0  0  0  0  0
   46.3330   32.4400   42.4900 H   0  0  0  0  0  0  0  0  0  0  0  0
   46.9400   35.3840   43.4990 H   0  0  0  0  0  0  0  0  0  0  0  0
   46.3280   34.9250   41.8370 H   0  0  0  0  0  0  0  0  0  0  0  0
   48.9290   33.8010   43.4160 H   0  0  0  0  0  0  0  0  0  0  0  0
   48.5580   33.2180   41.3340 C   0  0  0  0  0  0  0  0  0  0  0  0
   49.4280   32.1630   41.1680 C   0  0  0  0  0  0  0  0  0  0  0  0
   49.7860   31.7260   39.9040 C   0  0  0  0  0  0  0  0  0  0  0  0
   49.2780   32.3420   38.7800 C   0  0  0  0  0  0  0  0  0  0  0  0
   49.6080   31.9350   37.5310 N   0  0  0  0  0  0  0  0  0  0  0  0
   49.0870   32.5590   36.4470 C   0  0  0  0  0  0  0  0  0  0  0  0
   48.1890   33.6500   36.5230 C   0  0  0  0  0  0  0  0  0  0  0  0
   47.8470   34.0730   37.7840 C   0  0  0  0  0  0  0  0  0  0  0  0
   48.3910   33.4190   38.8960 C   0  0  0  0  0  0  0  0  0  0  0  0
   48.0630   33.8190   40.1750 C   0  0  0  0  0  0  0  0  0  0  0  0
   49.8230   31.6850   42.0560 H   0  0  0  0  0  0  0  0  0  0  0  0
   50.4750   30.8910   39.7940 H   0  0  0  0  0  0  0  0  0  0  0  0
   49.4050   32.1670   35.5020 H   0  0  0  0  0  0  0  0  0  0  0  0
   47.8220   34.0900   35.6050 H   0  0  0  0  0  0  0  0  0  0  0  0
   47.1660   34.9000   37.9010 H   0  0  0  0  0  0  0  0  0  0  0  0
   47.3810   34.6570   40.1830 H   0  0  0  0  0  0  0  0  0  0  0  0
   46.1730   32.1410   48.7140 C   0  0  2  0  0  0  0  0  0  0  0  0
   47.1250   31.2810   49.3960 C   0  0  0  0  0  0  0  0  0  0  0  0
   45.8300   30.6460   49.0010 C   0  0  2  0  0  0  0  0  0  0  0  0
   45.4670   32.8400   49.2430 H   0  0  0  0  0  0  0  0  0  0  0  0
   48.0730   31.0900   48.8960 H   0  0  0  0  0  0  0  0  0  0  0  0
   47.2700   31.5130   50.4930 H   0  0  0  0  0  0  0  0  0  0  0  0
   45.1210   30.4660   49.8280 H   0  0  0  0  0  0  0  0  0  0  0  0
   46.7430   28.9150   47.2800 C   0  0  0  0  0  0  0  0  0  0  0  0
   45.8010   29.7430   47.8470 C   0  0  0  0  0  0  0  0  0  0  0  0
   44.5370   29.7760   47.2420 C   0  0  0  0  0  0  0  0  0  0  0  0
   43.6630   30.3730   47.5490 H   0  0  0  0  0  0  0  0  0  0  0  0
   44.2530   29.0010   46.1110 C   0  0  0  0  0  3  0  0  0  0  0  0
   45.2140   28.1820   45.5640 C   0  0  0  0  0  3  0  0  0  0  0  0
   46.4420   28.1600   46.1680 C   0  0  0  0  0  0  0  0  0  0  0  0
   47.9530   28.9580   47.9570 O   0  0  0  0  0  0  0  0  0  0  0  0
   48.2020   28.3230   48.7020 H   0  0  0  0  0  0  0  0  0  0  0  0
   47.4680   27.3720   45.6940 O   0  0  0  0  0  0  0  0  0  0  0  0
   48.0670   26.8630   46.3480 H   0  0  0  0  0  0  0  0  0  0  0  0
  1  6  1  0  0  0  0
  2  3  1  0  0  0  0
  2  1  2  0  0  0  0
  3  4  2  0  0  0  0
  4  5  1  0  0  0  0
  5 32  1  0  0  0  0
  6  5  2  0  0  0  0
  7  1  1  0  0  0  0
  8  3  1  0  0  0  0
  9 12  1  6  0  0  0
  9  2  1  0  0  0  0
 10  9  1  0  0  0  0
 10 13  1  0  0  0  0
 11 10  1  0  0  0  0
 11  9  1  0  0  0  0
 11 15  1  1  0  0  0
 14 10  1  0  0  0  0
 16 11  1  0  0  0  0
 17 16  1  0  0  0  0
 17 26  1  0  0  0  0
 18 17  2  0  0  0  0
 19 24  1  0  0  0  0
 19 18  1  0  0  0  0
 20 19  2  0  0  0  0
 21 22  2  0  0  0  0
 21 20  1  0  0  0  0
 22 23  1  0  0  0  0
 23 30  1  0  0  0  0
 23 24  2  0  0  0  0
 24 25  1  0  0  0  0
 25 31  1  0  0  0  0
 25 16  2  0  0  0  0
 27 18  1  0  0  0  0
 28 21  1  0  0  0  0
 29 22  1  0  0  0  0
 32 34  1  0  0  0  0
 32 35  1  1  0  0  0
 32 33  1  0  0  0  0
 33 37  1  0  0  0  0
 34 33  1  0  0  0  0
 34 38  1  1  0  0  0
 36 33  1  0  0  0  0
 39 40  1  0  0  0  0
 39 46  1  0  0  0  0
 40 34  1  0  0  0  0
 41 42  1  0  0  0  0
 41 40  2  0  0  0  0
 43 41  1  0  0  0  0
 44 43  2  0  0  0  0
 44 45  1  0  0  0  0
 45 39  2  0  0  0  0
 46 47  1  0  0  0  0
 48 45  1  0  0  0  0
 48 49  1  0  0  0  0
M  END
>  <minimizedAffinity>
-6.00824976

>  <minimizedRMSD>
1.17770004

$$$$
