
 OpenBabel03252508173D

 49 53  0  0  1  0  0  0  0  0999 V2000
   46.8430   31.6150   48.2630 C   0  0  1  0  0  0  0  0  0  0  0  0
   46.3570   30.5690   49.2050 C   0  0  0  0  0  0  0  0  0  0  0  0
   47.6270   31.2450   49.4550 C   0  0  1  0  0  0  0  0  0  0  0  0
   46.0990   32.4660   48.2470 H   0  0  0  0  0  0  0  0  0  0  0  0
   45.5120   30.7420   49.9040 H   0  0  0  0  0  0  0  0  0  0  0  0
   46.3680   29.5020   48.8700 H   0  0  0  0  0  0  0  0  0  0  0  0
   47.6320   31.9890   50.2780 H   0  0  0  0  0  0  0  0  0  0  0  0
   48.9460   30.5720   49.2490 C   0  0  2  0  0  0  0  0  0  0  0  0
   49.6370   30.1370   50.5660 C   0  0  0  0  0  0  0  0  0  0  0  0
   50.1870   31.2660   49.8020 C   0  0  1  0  0  0  0  0  0  0  0  0
   49.1190   29.8240   48.4670 H   0  0  0  0  0  0  0  0  0  0  0  0
   49.1020   30.3860   51.5260 H   0  0  0  0  0  0  0  0  0  0  0  0
   50.1080   29.1590   50.6350 H   0  0  0  0  0  0  0  0  0  0  0  0
   50.0010   32.2860   50.1990 H   0  0  0  0  0  0  0  0  0  0  0  0
   52.4650   32.0360   49.0490 C   0  0  0  0  0  0  0  0  0  0  0  0
   51.4700   31.0780   49.0470 C   0  0  0  0  0  0  0  0  0  0  0  0
   51.6830   29.9220   48.3240 C   0  0  0  0  0  0  0  0  0  0  0  0
   50.9640   29.1250   48.2680 H   0  0  0  0  0  0  0  0  0  0  0  0
   52.8530   29.6880   47.6030 C   0  0  0  0  0  3  0  0  0  0  0  0
   53.8380   30.6660   47.6200 C   0  0  0  0  0  3  0  0  0  0  0  0
   53.6410   31.8430   48.3460 C   0  0  0  0  0  0  0  0  0  0  0  0
   52.2390   33.2060   49.7850 O   0  0  0  0  0  0  0  0  0  0  0  0
   52.2830   33.1020   50.8080 H   0  0  0  0  0  0  0  0  0  0  0  0
   54.6460   32.8230   48.3530 O   0  0  0  0  0  0  0  0  0  0  0  0
   55.4040   32.6230   49.0230 H   0  0  0  0  0  0  0  0  0  0  0  0
   47.2340   31.1200   46.9210 C   0  0  0  0  0  0  0  0  0  0  0  0
   46.5030   30.2950   46.6670 H   0  0  0  0  0  0  0  0  0  0  0  0
   48.2100   30.7060   46.7740 H   0  0  0  0  0  0  0  0  0  0  0  0
   46.1140   33.0550   46.1720 C   0  0  0  0  0  3  0  0  0  0  0  0
   46.9510   32.1580   45.8600 C   0  0  0  0  0  3  0  0  0  0  0  0
   44.5420   35.8870   44.4130 C   0  0  0  0  0  0  0  0  0  0  0  0
   45.1760   35.8750   43.1740 C   0  0  0  0  0  0  0  0  0  0  0  0
   46.1050   34.9090   42.9850 C   0  0  0  0  0  0  0  0  0  0  0  0
   46.3820   34.0140   43.9750 N   0  0  0  0  0  0  0  0  0  0  0  0
   45.7540   34.0510   45.1630 C   0  0  0  0  0  0  0  0  0  0  0  0
   44.8430   34.9950   45.3510 N   0  0  0  0  0  0  0  0  0  0  0  0
   43.7920   36.6600   44.5790 H   0  0  0  0  0  0  0  0  0  0  0  0
   44.9480   36.5860   42.4000 H   0  0  0  0  0  0  0  0  0  0  0  0
   46.8480   34.7680   41.7370 C   0  0  0  0  0  0  0  0  0  0  0  0
   48.0520   35.3510   41.4710 C   0  0  0  0  0  0  0  0  0  0  0  0
   48.7380   35.2050   40.2820 C   0  0  0  0  0  0  0  0  0  0  0  0
   48.2060   34.4240   39.2760 C   0  0  0  0  0  0  0  0  0  0  0  0
   47.0000   33.8100   39.4790 C   0  0  0  0  0  0  0  0  0  0  0  0
   46.3600   33.9950   40.6900 C   0  0  0  0  0  0  0  0  0  0  0  0
   48.5040   35.9780   42.2440 H   0  0  0  0  0  0  0  0  0  0  0  0
   49.6890   35.6870   40.1190 H   0  0  0  0  0  0  0  0  0  0  0  0
   48.6780   34.2580   38.3150 H   0  0  0  0  0  0  0  0  0  0  0  0
   46.5600   33.1980   38.7170 H   0  0  0  0  0  0  0  0  0  0  0  0
   45.3950   33.4780   40.8000 H   0  0  0  0  0  0  0  0  0  0  0  0
  1  4  1  1  0  0  0
  1  2  1  0  0  0  0
  1  3  1  0  0  0  0
  2  3  1  0  0  0  0
  2  5  1  0  0  0  0
  3  7  1  1  0  0  0
  6  2  1  0  0  0  0
  8 11  1  6  0  0  0
  8  3  1  0  0  0  0
  8 10  1  0  0  0  0
  8  9  1  0  0  0  0
  9 13  1  0  0  0  0
  9 12  1  0  0  0  0
 10 14  1  1  0  0  0
 10  9  1  0  0  0  0
 15 22  1  0  0  0  0
 16 15  1  0  0  0  0
 16 10  1  0  0  0  0
 17 16  2  0  0  0  0
 18 17  1  0  0  0  0
 19 20  2  0  0  0  0
 19 17  1  0  0  0  0
 20 21  1  0  0  0  0
 21 24  1  0  0  0  0
 21 15  2  0  0  0  0
 22 23  1  0  0  0  0
 24 25  1  0  0  0  0
 26  1  1  0  0  0  0
 27 26  1  0  0  0  0
 28 26  1  0  0  0  0
 30 29  2  0  0  0  0
 30 26  1  0  0  0  0
 31 37  1  0  0  0  0
 31 36  1  0  0  0  0
 32 31  2  0  0  0  0
 33 32  1  0  0  0  0
 33 34  2  0  0  0  0
 34 35  1  0  0  0  0
 35 36  2  0  0  0  0
 35 29  1  0  0  0  0
 38 32  1  0  0  0  0
 39 33  1  0  0  0  0
 40 39  1  0  0  0  0
 40 45  1  0  0  0  0
 41 40  2  0  0  0  0
 42 43  2  0  0  0  0
 42 41  1  0  0  0  0
 43 44  1  0  0  0  0
 44 49  1  0  0  0  0
 44 39  2  0  0  0  0
 46 41  1  0  0  0  0
 47 42  1  0  0  0  0
 48 43  1  0  0  0  0
M  END
>  <minimizedAffinity>
-7.12822866

>  <minimizedRMSD>
0.879230976

$$$$
