
 OpenBabel03242523233D

 45 48  0  0  1  0  0  0  0  0999 V2000
   47.1900   32.7310   44.2370 C   0  0  0  0  0  0  0  0  0  0  0  0
   48.0780   33.0590   43.3040 C   0  0  0  0  0  0  0  0  0  0  0  0
   48.8460   32.0290   42.8230 C   0  0  0  0  0  0  0  0  0  0  0  0
   48.6190   30.7440   43.3620 N   0  0  0  0  0  0  0  0  0  0  0  0
   47.7250   30.4870   44.2850 C   0  0  0  0  0  0  0  0  0  0  0  0
   46.9450   31.5010   44.7790 N   0  0  0  0  0  0  0  0  0  0  0  0
   49.6140   32.1210   42.0620 H   0  0  0  0  0  0  0  0  0  0  0  0
   47.6930   29.4380   44.5800 H   0  0  0  0  0  0  0  0  0  0  0  0
   48.3870   34.3680   42.8370 C   0  0  1  0  0  0  0  0  0  0  0  0
   49.4420   34.7790   42.0910 C   0  0  0  0  0  0  0  0  0  0  0  0
   48.1330   34.7390   41.3580 C   0  0  1  0  0  0  0  0  0  0  0  0
   48.0600   35.1540   43.5860 H   0  0  0  0  0  0  0  0  0  0  0  0
   50.2120   34.0170   41.7560 H   0  0  0  0  0  0  0  0  0  0  0  0
   49.9470   35.7700   42.0310 H   0  0  0  0  0  0  0  0  0  0  0  0
   47.5960   35.7330   41.2660 H   0  0  0  0  0  0  0  0  0  0  0  0
   48.5740   32.8530   39.5090 C   0  0  0  0  0  0  0  0  0  0  0  0
   47.9240   33.7700   40.3000 C   0  0  0  0  0  0  0  0  0  0  0  0
   46.5440   33.8900   40.0060 C   0  0  0  0  0  0  0  0  0  0  0  0
   45.7380   34.5040   40.4230 H   0  0  0  0  0  0  0  0  0  0  0  0
   45.9070   33.1410   39.0000 C   0  0  0  0  0  3  0  0  0  0  0  0
   46.6680   32.2370   38.2550 C   0  0  0  0  0  3  0  0  0  0  0  0
   48.0100   32.0970   38.5160 C   0  0  0  0  0  0  0  0  0  0  0  0
   49.9080   32.8010   39.8690 O   0  0  0  0  0  0  0  0  0  0  0  0
   50.4390   31.9420   39.9180 H   0  0  0  0  0  0  0  0  0  0  0  0
   48.9210   31.2590   37.8880 O   0  0  0  0  0  0  0  0  0  0  0  0
   48.9440   30.3010   38.2080 H   0  0  0  0  0  0  0  0  0  0  0  0
   46.1970   33.6230   44.8710 C   0  0  0  0  0  0  0  0  0  0  0  0
   45.6600   34.1550   45.8070 O   0  0  0  0  0  0  0  0  0  0  0  0
   44.3600   31.8060   43.1870 Cl  0  0  0  0  0  0  0  0  0  0  0  0
   44.4840   33.5480   42.9240 C   0  0  0  0  0  0  0  0  0  0  0  0
   45.3590   34.2340   43.7900 C   0  0  0  0  0  0  0  0  0  0  0  0
   45.3600   35.5780   43.4900 C   0  0  0  0  0  0  0  0  0  0  0  0
   44.7010   36.2590   42.5640 C   0  0  0  0  0  0  0  0  0  0  0  0
   43.8660   35.5190   41.7530 C   0  0  0  0  0  0  0  0  0  0  0  0
   43.7500   34.1750   41.9230 C   0  0  0  0  0  0  0  0  0  0  0  0
   45.9850   36.2500   44.1240 H   0  0  0  0  0  0  0  0  0  0  0  0
   44.7690   37.3350   42.3980 H   0  0  0  0  0  0  0  0  0  0  0  0
   43.3010   36.0530   40.9690 H   0  0  0  0  0  0  0  0  0  0  0  0
   42.8900   33.5480   41.0610 O   0  0  0  0  0  0  0  0  0  0  0  0
   40.6440   32.9880   39.8380 O   0  0  0  0  0  0  0  0  0  0  0  0
   41.2390   33.2330   41.2070 P   0  0  0  0  0  0  0  0  0  0  0  0
   41.0210   31.8960   42.2260 O   0  0  0  0  0  0  0  0  0  0  0  0
   41.5620   31.1150   41.9290 H   0  0  0  0  0  0  0  0  0  0  0  0
   40.4300   34.5230   41.9670 O   0  0  0  0  0  0  0  0  0  0  0  0
   40.6290   34.4900   42.9330 H   0  0  0  0  0  0  0  0  0  0  0  0
  1  6  1  0  0  0  0
  1 27  1  0  0  0  0
  2  1  2  0  0  0  0
  3  2  1  0  0  0  0
  3  4  2  0  0  0  0
  4  5  1  0  0  0  0
  5  8  1  0  0  0  0
  5  6  2  0  0  0  0
  7  3  1  0  0  0  0
  9  2  1  0  0  0  0
  9 12  1  1  0  0  0
 10  9  1  0  0  0  0
 11 15  1  6  0  0  0
 11 10  1  0  0  0  0
 11  9  1  0  0  0  0
 13 10  1  0  0  0  0
 14 10  1  0  0  0  0
 16 23  1  0  0  0  0
 16 17  1  0  0  0  0
 17 11  1  0  0  0  0
 18 17  2  0  0  0  0
 18 19  1  0  0  0  0
 20 18  1  0  0  0  0
 21 22  1  0  0  0  0
 21 20  2  0  0  0  0
 22 16  2  0  0  0  0
 23 24  1  0  0  0  0
 25 26  1  0  0  0  0
 25 22  1  0  0  0  0
 27 28  2  0  0  0  0
 30 29  1  0  0  0  0
 30 31  1  0  0  0  0
 31 27  1  0  0  0  0
 32 31  2  0  0  0  0
 32 36  1  0  0  0  0
 33 32  1  0  0  0  0
 34 35  1  0  0  0  0
 34 33  2  0  0  0  0
 35 30  2  0  0  0  0
 37 33  1  0  0  0  0
 38 34  1  0  0  0  0
 39 41  1  0  0  0  0
 39 35  1  0  0  0  0
 40 41  2  0  0  0  0
 41 44  1  0  0  0  0
 41 42  1  0  0  0  0
 43 42  1  0  0  0  0
 44 45  1  0  0  0  0
M  END
>  <minimizedAffinity>
-6.47653151

>  <minimizedRMSD>
0.628745496

$$$$
