
 OpenBabel03252500513D

 37 39  0  0  0  0  0  0  0  0999 V2000
   44.8290   34.9520   42.0880 C   0  0  0  0  0  0  0  0  0  0  0  0
   45.6010   34.7790   41.1230 O   0  0  0  0  0  0  0  0  0  0  0  0
   44.9490   35.0060   44.5240 C   0  0  0  0  0  0  0  0  0  0  0  0
   45.1520   34.3170   43.3550 C   0  0  0  0  0  0  0  0  0  0  0  0
   45.6680   33.0020   43.3610 C   0  0  0  0  0  0  0  0  0  0  0  0
   45.9480   32.4690   44.5960 N   0  0  0  0  0  0  0  0  0  0  0  0
   45.7480   33.1450   45.7220 C   0  0  0  0  0  0  0  0  0  0  0  0
   45.2540   34.4010   45.6840 N   0  0  0  0  0  0  0  0  0  0  0  0
   44.5650   35.9950   44.5940 H   0  0  0  0  0  0  0  0  0  0  0  0
   45.8330   32.4450   42.4580 H   0  0  0  0  0  0  0  0  0  0  0  0
   46.0600   32.5440   47.0100 C   0  0  0  0  0  0  0  0  0  0  0  0
   47.3290   32.2420   47.3910 C   0  0  0  0  0  0  0  0  0  0  0  0
   47.6380   31.6780   48.5980 C   0  0  0  0  0  0  0  0  0  0  0  0
   46.6080   31.4170   49.4330 N   0  0  0  0  0  0  0  0  0  0  0  0
   45.3660   31.7130   49.0560 C   0  0  0  0  0  0  0  0  0  0  0  0
   45.0360   32.2660   47.8810 N   0  0  0  0  0  0  0  0  0  0  0  0
   48.1570   32.4490   46.7250 H   0  0  0  0  0  0  0  0  0  0  0  0
   48.6420   31.4330   48.9150 H   0  0  0  0  0  0  0  0  0  0  0  0
   44.5220   31.5110   49.7130 H   0  0  0  0  0  0  0  0  0  0  0  0
   43.8030   35.7510   41.6730 O   0  0  0  0  0  0  0  0  0  0  0  0
   42.7380   35.3100   40.9320 C   0  0  0  0  0  0  0  0  0  0  0  0
   42.7900   35.8790   39.9520 H   0  0  0  0  0  0  0  0  0  0  0  0
   42.7400   34.2570   40.5920 H   0  0  0  0  0  0  0  0  0  0  0  0
   41.3780   35.7200   41.4840 C   0  0  0  0  0  0  0  0  0  0  0  0
   41.1720   36.7820   41.3240 H   0  0  0  0  0  0  0  0  0  0  0  0
   41.3330   35.3840   42.5270 H   0  0  0  0  0  0  0  0  0  0  0  0
   39.5880   33.9490   41.3040 C   0  0  0  0  0  0  0  0  0  0  0  0
   40.3620   34.9360   40.7140 C   0  0  0  0  0  0  0  0  0  0  0  0
   40.1570   35.1760   39.3590 C   0  0  0  0  0  0  0  0  0  0  0  0
   40.7740   35.9520   38.9220 H   0  0  0  0  0  0  0  0  0  0  0  0
   39.2320   34.4890   38.5850 C   0  0  0  0  0  3  0  0  0  0  0  0
   38.4770   33.5100   39.2110 C   0  0  0  0  0  3  0  0  0  0  0  0
   38.6560   33.2500   40.5400 C   0  0  0  0  0  0  0  0  0  0  0  0
   39.7470   33.6650   42.6450 O   0  0  0  0  0  0  0  0  0  0  0  0
   39.4400   32.7960   43.0690 H   0  0  0  0  0  0  0  0  0  0  0  0
   37.8580   32.2530   41.0850 O   0  0  0  0  0  0  0  0  0  0  0  0
   36.9030   32.0870   40.7630 H   0  0  0  0  0  0  0  0  0  0  0  0
  1  4  1  0  0  0  0
  2  1  2  0  0  0  0
  3  9  1  0  0  0  0
  3  8  1  0  0  0  0
  4  5  1  0  0  0  0
  4  3  2  0  0  0  0
  5  6  2  0  0  0  0
  6  7  1  0  0  0  0
  7 11  1  0  0  0  0
  8  7  2  0  0  0  0
 10  5  1  0  0  0  0
 11 12  2  0  0  0  0
 11 16  1  0  0  0  0
 12 13  1  0  0  0  0
 13 18  1  0  0  0  0
 13 14  2  0  0  0  0
 15 14  1  0  0  0  0
 15 19  1  0  0  0  0
 16 15  2  0  0  0  0
 17 12  1  0  0  0  0
 20  1  1  0  0  0  0
 21 24  1  0  0  0  0
 21 20  1  0  0  0  0
 22 21  1  0  0  0  0
 23 21  1  0  0  0  0
 24 26  1  0  0  0  0
 25 24  1  0  0  0  0
 27 34  1  0  0  0  0
 28 27  1  0  0  0  0
 28 24  1  0  0  0  0
 29 28  2  0  0  0  0
 30 29  1  0  0  0  0
 31 32  2  0  0  0  0
 31 29  1  0  0  0  0
 32 33  1  0  0  0  0
 33 36  1  0  0  0  0
 33 27  2  0  0  0  0
 34 35  1  0  0  0  0
 37 36  1  0  0  0  0
M  END
>  <minimizedAffinity>
-7.33064032

>  <minimizedRMSD>
0.490106881

$$$$
