
 OpenBabel03242518363D

 37 40  0  0  1  0  0  0  0  0999 V2000
   49.1590   32.2440   41.1790 C   0  0  0  0  0  0  0  0  0  0  0  0
   50.3140   31.8840   40.4890 C   0  0  0  0  0  0  0  0  0  0  0  0
   49.9900   31.6710   39.1570 C   0  0  0  0  0  0  0  0  0  0  0  0
   48.6420   31.9160   39.1080 C   0  0  0  0  0  0  0  0  0  0  0  0
   48.1650   32.2470   40.2870 O   0  0  0  0  0  0  0  0  0  0  0  0
   51.2730   31.8090   41.0110 H   0  0  0  0  0  0  0  0  0  0  0  0
   50.7000   31.3810   38.3960 H   0  0  0  0  0  0  0  0  0  0  0  0
   47.8260   31.8230   37.8840 C   0  0  2  0  0  0  0  0  0  0  0  0
   46.9390   30.6580   37.6840 C   0  0  0  0  0  0  0  0  0  0  0  0
   48.2400   30.6680   36.9460 C   0  0  1  0  0  0  0  0  0  0  0  0
   47.6980   32.8060   37.3850 H   0  0  0  0  0  0  0  0  0  0  0  0
   46.8220   29.9190   38.4850 H   0  0  0  0  0  0  0  0  0  0  0  0
   45.9790   30.8570   37.1320 H   0  0  0  0  0  0  0  0  0  0  0  0
   49.0360   29.9740   37.3020 H   0  0  0  0  0  0  0  0  0  0  0  0
   49.3140   31.5840   34.9260 C   0  0  0  0  0  0  0  0  0  0  0  0
   48.1950   31.0280   35.5080 C   0  0  0  0  0  0  0  0  0  0  0  0
   47.0900   30.8420   34.7030 C   0  0  0  0  0  0  0  0  0  0  0  0
   46.1970   30.4080   35.1310 H   0  0  0  0  0  0  0  0  0  0  0  0
   47.1210   31.2020   33.3710 C   0  0  0  0  0  3  0  0  0  0  0  0
   48.2350   31.7580   32.7780 C   0  0  0  0  0  3  0  0  0  0  0  0
   49.3460   31.9480   33.5750 C   0  0  0  0  0  0  0  0  0  0  0  0
   50.4440   31.7820   35.7160 O   0  0  0  0  0  0  0  0  0  0  0  0
   51.2150   32.3090   35.3500 H   0  0  0  0  0  0  0  0  0  0  0  0
   50.4910   32.5070   33.0120 O   0  0  0  0  0  0  0  0  0  0  0  0
   50.4850   33.5300   32.9810 H   0  0  0  0  0  0  0  0  0  0  0  0
   48.9520   32.5640   42.5350 O   0  0  0  0  0  0  0  0  0  0  0  0
   48.6860   33.8960   42.9070 C   0  0  0  0  0  0  0  0  0  0  0  0
   49.6570   34.6930   42.8090 O   0  0  0  0  0  0  0  0  0  0  0  0
   47.3640   34.1830   43.3450 C   0  0  0  0  0  0  0  0  0  0  0  0
   46.6780   35.0690   42.5610 C   0  0  0  0  0  0  0  0  0  0  0  0
   45.3760   35.3970   42.9310 C   0  0  0  0  0  0  0  0  0  0  0  0
   44.8650   34.8270   44.0360 N   0  0  0  0  0  0  0  0  0  0  0  0
   45.5610   33.9640   44.7800 C   0  0  0  0  0  0  0  0  0  0  0  0
   46.8210   33.6490   44.4200 N   0  0  0  0  0  0  0  0  0  0  0  0
   47.0140   35.5780   41.6500 H   0  0  0  0  0  0  0  0  0  0  0  0
   44.7750   36.0940   42.3530 H   0  0  0  0  0  0  0  0  0  0  0  0
   45.0580   33.5550   45.6590 H   0  0  0  0  0  0  0  0  0  0  0  0
  1 26  1  0  0  0  0
  2  6  1  0  0  0  0
  2  1  2  0  0  0  0
  3  2  1  0  0  0  0
  4  3  2  0  0  0  0
  4  5  1  0  0  0  0
  5  1  1  0  0  0  0
  7  3  1  0  0  0  0
  8 11  1  6  0  0  0
  8  4  1  0  0  0  0
  9  8  1  0  0  0  0
  9 12  1  0  0  0  0
 10 14  1  1  0  0  0
 10  9  1  0  0  0  0
 10  8  1  0  0  0  0
 13  9  1  0  0  0  0
 15 16  1  0  0  0  0
 15 22  1  0  0  0  0
 16 10  1  0  0  0  0
 17 18  1  0  0  0  0
 17 16  2  0  0  0  0
 19 17  1  0  0  0  0
 20 19  2  0  0  0  0
 20 21  1  0  0  0  0
 21 15  2  0  0  0  0
 23 22  1  0  0  0  0
 24 21  1  0  0  0  0
 25 24  1  0  0  0  0
 26 27  1  0  0  0  0
 27 29  1  0  0  0  0
 28 27  2  0  0  0  0
 29 34  1  0  0  0  0
 30 31  1  0  0  0  0
 30 29  2  0  0  0  0
 31 32  2  0  0  0  0
 32 33  1  0  0  0  0
 33 37  1  0  0  0  0
 34 33  2  0  0  0  0
 35 30  1  0  0  0  0
 36 31  1  0  0  0  0
M  END
>  <minimizedAffinity>
-5.03105068

>  <minimizedRMSD>
2.58073068

$$$$
