
 OpenBabel03252503413D

 23 24  0  0  0  0  0  0  0  0999 V2000
   44.7800   35.3770   44.5660 C   0  0  0  0  0  0  0  0  0  0  0  0
   44.7200   34.7980   43.2970 C   0  0  0  0  0  0  0  0  0  0  0  0
   45.0720   33.4590   43.1820 C   0  0  0  0  0  0  0  0  0  0  0  0
   45.4520   32.7900   44.3040 N   0  0  0  0  0  0  0  0  0  0  0  0
   45.5000   33.3710   45.5110 C   0  0  0  0  0  0  0  0  0  0  0  0
   45.1650   34.6680   45.6580 N   0  0  0  0  0  0  0  0  0  0  0  0
   44.5330   36.4170   44.8130 H   0  0  0  0  0  0  0  0  0  0  0  0
   45.0060   33.0790   42.1890 H   0  0  0  0  0  0  0  0  0  0  0  0
   46.9910   31.7660   46.6360 C   0  0  0  0  0  0  0  0  0  0  0  0
   45.9150   32.6100   46.6840 C   0  0  0  0  0  0  0  0  0  0  0  0
   45.2460   32.7120   47.8790 C   0  0  0  0  0  0  0  0  0  0  0  0
   44.3950   33.3480   48.0050 H   0  0  0  0  0  0  0  0  0  0  0  0
   45.6620   31.9770   48.9770 C   0  0  0  0  0  3  0  0  0  0  0  0
   46.7540   31.1290   48.9020 C   0  0  0  0  0  3  0  0  0  0  0  0
   47.4380   31.0180   47.7040 C   0  0  0  0  0  0  0  0  0  0  0  0
   47.6690   31.6700   45.4060 O   0  0  0  0  0  0  0  0  0  0  0  0
   48.4650   32.2400   45.1800 H   0  0  0  0  0  0  0  0  0  0  0  0
   48.5550   30.1920   47.5110 O   0  0  0  0  0  0  0  0  0  0  0  0
   49.3160   30.4920   46.9040 H   0  0  0  0  0  0  0  0  0  0  0  0
   44.2790   35.7160   42.2230 C   0  0  0  0  0  0  0  0  0  0  0  0
   43.1840   35.9100   42.2710 H   0  0  0  0  0  0  0  0  0  0  0  0
   44.5450   35.2390   41.2580 H   0  0  0  0  0  0  0  0  0  0  0  0
   44.7590   36.7010   42.3820 H   0  0  0  0  0  0  0  0  0  0  0  0
  1  7  1  0  0  0  0
  1  6  1  0  0  0  0
  2  1  2  0  0  0  0
  3  2  1  0  0  0  0
  3  4  2  0  0  0  0
  4  5  1  0  0  0  0
  5  6  2  0  0  0  0
  5 10  1  0  0  0  0
  8  3  1  0  0  0  0
  9 10  2  0  0  0  0
  9 15  1  0  0  0  0
 10 11  1  0  0  0  0
 11 12  1  0  0  0  0
 11 13  2  0  0  0  0
 14 13  1  0  0  0  0
 15 14  2  0  0  0  0
 16  9  1  0  0  0  0
 17 16  1  0  0  0  0
 18 15  1  0  0  0  0
 19 18  1  0  0  0  0
 20 21  1  0  0  0  0
 20 23  1  0  0  0  0
 20  2  1  0  0  0  0
 22 20  1  0  0  0  0
M  END
>  <minimizedAffinity>
-4.6329689

>  <minimizedRMSD>
1.14357233

$$$$
