
 OpenBabel03252503003D

 24 25  0  0  0  0  0  0  0  0999 V2000
   43.0730   33.9540   40.6760 C   0  0  0  0  0  0  0  0  0  0  0  0
   43.6720   33.8970   39.7340 H   0  0  0  0  0  0  0  0  0  0  0  0
   43.1190   33.0120   41.2460 H   0  0  0  0  0  0  0  0  0  0  0  0
   40.6760   33.4470   40.9660 C   0  0  0  0  0  0  0  0  0  0  0  0
   41.6450   34.1430   40.2770 C   0  0  0  0  0  0  0  0  0  0  0  0
   41.2450   34.9860   39.2410 C   0  0  0  0  0  0  0  0  0  0  0  0
   42.0400   35.5170   38.7240 H   0  0  0  0  0  0  0  0  0  0  0  0
   39.9180   35.1090   38.9300 C   0  0  0  0  0  0  0  0  0  0  0  0
   38.9280   34.4170   39.6120 C   0  0  0  0  0  0  0  0  0  0  0  0
   39.3400   33.5720   40.6490 C   0  0  0  0  0  0  0  0  0  0  0  0
   41.0310   32.5920   42.0100 O   0  0  0  0  0  0  0  0  0  0  0  0
   41.6280   32.8890   42.7710 H   0  0  0  0  0  0  0  0  0  0  0  0
   38.3100   32.8970   41.3060 O   0  0  0  0  0  0  0  0  0  0  0  0
   37.9500   33.3990   42.1330 H   0  0  0  0  0  0  0  0  0  0  0  0
   43.6970   35.3960   41.5650 S   0  0  0  0  0  0  0  0  0  0  0  0
   44.2210   35.7380   44.2650 C   0  0  0  0  0  0  0  0  0  0  0  0
   44.3630   34.8910   43.1510 C   0  0  0  0  0  0  0  0  0  0  0  0
   45.0080   33.6750   43.2540 C   0  0  0  0  0  0  0  0  0  0  0  0
   45.4930   33.3490   44.4900 N   0  0  0  0  0  0  0  0  0  0  0  0
   45.3420   34.1830   45.5400 C   0  0  0  0  0  0  0  0  0  0  0  0
   44.7270   35.3560   45.4700 N   0  0  0  0  0  0  0  0  0  0  0  0
   43.7040   36.6910   44.1440 H   0  0  0  0  0  0  0  0  0  0  0  0
   45.1450   32.9940   42.4420 H   0  0  0  0  0  0  0  0  0  0  0  0
   45.7980   33.7430   46.4410 H   0  0  0  0  0  0  0  0  0  0  0  0
  1  3  1  0  0  0  0
  1 15  1  0  0  0  0
  2  1  1  0  0  0  0
  4 11  1  0  0  0  0
  5  1  1  0  0  0  0
  5  4  2  0  0  0  0
  6  5  1  0  0  0  0
  7  6  1  0  0  0  0
  8  6  2  0  0  0  0
  8  9  1  0  0  0  0
  9 10  2  0  0  0  0
 10  4  1  0  0  0  0
 10 13  1  0  0  0  0
 11 12  1  0  0  0  0
 13 14  1  0  0  0  0
 15 17  1  0  0  0  0
 16 21  1  0  0  0  0
 17 18  1  0  0  0  0
 17 16  2  0  0  0  0
 18 19  2  0  0  0  0
 19 20  1  0  0  0  0
 20 24  1  0  0  0  0
 21 20  2  0  0  0  0
 22 16  1  0  0  0  0
 23 18  1  0  0  0  0
M  END
>  <minimizedAffinity>
-5.30694485

>  <minimizedRMSD>
2.63992691

$$$$
