
 OpenBabel03242517323D

 49 52  0  0  1  0  0  0  0  0999 V2000
   45.3140   30.1690   47.1980 C   0  0  0  0  0  0  0  0  0  0  0  0
   46.3380   29.8680   46.9150 H   0  0  0  0  0  0  0  0  0  0  0  0
   44.6570   30.0900   46.3190 H   0  0  0  0  0  0  0  0  0  0  0  0
   45.0180   34.7690   44.9470 C   0  0  0  0  0  0  0  0  0  0  0  0
   45.8690   34.5700   43.8240 C   0  0  0  0  0  0  0  0  0  0  0  0
   46.8870   33.6200   43.9150 C   0  0  0  0  0  0  0  0  0  0  0  0
   47.0090   32.9330   45.0810 N   0  0  0  0  0  0  0  0  0  0  0  0
   46.2140   33.1180   46.1290 C   0  0  0  0  0  0  0  0  0  0  0  0
   45.2330   34.0380   46.0310 N   0  0  0  0  0  0  0  0  0  0  0  0
   46.4090   32.3720   47.2810 N   0  0  0  0  0  0  0  0  0  0  0  0
   47.6830   32.4100   47.9680 C   0  0  0  0  0  0  0  0  0  0  0  0
   47.8730   31.2880   48.9290 C   0  0  0  0  0  0  0  0  0  0  0  0
   46.7180   30.7780   49.5820 N   0  0  0  0  0  0  0  0  0  0  0  0
   45.5300   31.5290   49.2880 C   0  0  0  0  0  0  0  0  0  0  0  0
   45.3070   31.5390   47.8050 C   0  0  2  0  0  0  0  0  0  0  0  0
   44.2170   35.5060   44.8970 H   0  0  0  0  0  0  0  0  0  0  0  0
   45.7340   35.1390   42.9230 H   0  0  0  0  0  0  0  0  0  0  0  0
   47.5660   33.4200   43.1050 H   0  0  0  0  0  0  0  0  0  0  0  0
   47.6940   33.3660   48.5330 H   0  0  0  0  0  0  0  0  0  0  0  0
   48.5210   32.3760   47.2210 H   0  0  0  0  0  0  0  0  0  0  0  0
   48.3610   30.4410   48.3910 H   0  0  0  0  0  0  0  0  0  0  0  0
   48.5950   31.6430   49.7130 H   0  0  0  0  0  0  0  0  0  0  0  0
   46.7980   30.6950   50.6280 H   0  0  0  0  0  0  0  0  0  0  0  0
   44.6790   31.2590   49.9040 H   0  0  0  0  0  0  0  0  0  0  0  0
   45.7630   32.5990   49.5610 H   0  0  0  0  0  0  0  0  0  0  0  0
   44.3480   32.0780   47.5680 H   0  0  0  0  0  0  0  0  0  0  0  0
   44.9050   29.2070   48.2740 C   0  0  0  0  0  0  0  0  0  0  0  0
   44.9690   27.8930   48.0860 C   0  0  0  0  0  0  0  0  0  0  0  0
   44.5960   26.8520   49.0730 C   0  0  0  0  0  0  0  0  0  0  0  0
   43.9150   27.2500   49.8490 H   0  0  0  0  0  0  0  0  0  0  0  0
   45.5290   26.4480   49.5120 H   0  0  0  0  0  0  0  0  0  0  0  0
   43.9180   25.6980   48.3430 C   0  0  2  0  0  0  0  0  0  0  0  0
   44.8240   24.6280   47.7790 C   0  0  0  0  0  0  0  0  0  0  0  0
   44.0670   25.5710   46.8860 C   0  0  1  0  0  0  0  0  0  0  0  0
   43.0660   25.2770   48.9070 H   0  0  0  0  0  0  0  0  0  0  0  0
   45.9110   24.7860   47.8620 H   0  0  0  0  0  0  0  0  0  0  0  0
   44.5200   23.5760   47.8110 H   0  0  0  0  0  0  0  0  0  0  0  0
   44.6740   26.3260   46.3420 H   0  0  0  0  0  0  0  0  0  0  0  0
   42.6310   24.3720   45.0400 C   0  0  0  0  0  0  0  0  0  0  0  0
   42.8570   25.1570   46.1500 C   0  0  0  0  0  0  0  0  0  0  0  0
   41.7390   25.7320   46.7700 C   0  0  0  0  0  0  0  0  0  0  0  0
   41.7030   26.3850   47.6590 H   0  0  0  0  0  0  0  0  0  0  0  0
   40.4400   25.5250   46.2900 C   0  0  0  0  0  0  0  0  0  0  0  0
   40.2570   24.7210   45.1600 C   0  0  0  0  0  0  0  0  0  0  0  0
   41.3730   24.1680   44.5700 C   0  0  0  0  0  0  0  0  0  0  0  0
   43.8150   23.8690   44.5280 O   0  0  0  0  0  0  0  0  0  0  0  0
   44.4170   23.2310   45.0340 H   0  0  0  0  0  0  0  0  0  0  0  0
   41.3110   23.3500   43.4390 O   0  0  0  0  0  0  0  0  0  0  0  0
   41.3330   23.7130   42.5120 H   0  0  0  0  0  0  0  0  0  0  0  0
  1 15  1  0  0  0  0
  1 27  1  0  0  0  0
  2  1  1  0  0  0  0
  3  1  1  0  0  0  0
  4  9  1  0  0  0  0
  5  6  1  0  0  0  0
  5  4  2  0  0  0  0
  6  7  2  0  0  0  0
  7  8  1  0  0  0  0
  8 10  1  0  0  0  0
  9  8  2  0  0  0  0
 10 15  1  0  0  0  0
 10 11  1  0  0  0  0
 11 19  1  0  0  0  0
 11 12  1  0  0  0  0
 12 13  1  0  0  0  0
 12 22  1  0  0  0  0
 13 23  1  0  0  0  0
 14 25  1  0  0  0  0
 14 13  1  0  0  0  0
 14 24  1  0  0  0  0
 15 26  1  6  0  0  0
 15 14  1  0  0  0  0
 16  4  1  0  0  0  0
 17  5  1  0  0  0  0
 18  6  1  0  0  0  0
 20 11  1  0  0  0  0
 21 12  1  0  0  0  0
 28 27  2  0  0  0  0
 28 29  1  0  0  0  0
 29 31  1  0  0  0  0
 29 30  1  0  0  0  0
 32 35  1  1  0  0  0
 32 29  1  0  0  0  0
 33 37  1  0  0  0  0
 33 36  1  0  0  0  0
 33 32  1  0  0  0  0
 34 38  1  6  0  0  0
 34 33  1  0  0  0  0
 34 32  1  0  0  0  0
 39 40  1  0  0  0  0
 40 41  2  0  0  0  0
 40 34  1  0  0  0  0
 41 42  1  0  0  0  0
 43 41  1  0  0  0  0
 44 43  2  0  0  0  0
 45 39  2  0  0  0  0
 45 44  1  0  0  0  0
 46 47  1  0  0  0  0
 46 39  1  0  0  0  0
 48 45  1  0  0  0  0
 49 48  1  0  0  0  0
M  END
>  <minimizedAffinity>
-6.33743143

>  <minimizedRMSD>
1.31503153

$$$$
