
 OpenBabel03252505193D

 36 39  0  0  0  0  0  0  0  0999 V2000
   46.2300   32.5760   46.8160 C   0  0  0  0  0  0  0  0  0  0  0  0
   45.2500   32.6540   47.7980 C   0  0  0  0  0  0  0  0  0  0  0  0
   45.3360   31.8160   48.8910 C   0  0  0  0  0  0  0  0  0  0  0  0
   46.4020   30.9390   48.9480 C   0  0  0  0  0  0  0  0  0  0  0  0
   47.3530   30.9020   47.9400 C   0  0  0  0  0  0  0  0  0  0  0  0
   47.2630   31.7320   46.8640 N   0  0  0  0  0  0  0  0  0  0  0  0
   44.4480   33.3680   47.6800 H   0  0  0  0  0  0  0  0  0  0  0  0
   44.5740   31.8760   49.6560 H   0  0  0  0  0  0  0  0  0  0  0  0
   46.4400   30.3070   49.8040 H   0  0  0  0  0  0  0  0  0  0  0  0
   44.9660   35.1310   44.4620 C   0  0  0  0  0  0  0  0  0  0  0  0
   45.8960   35.0850   43.4080 C   0  0  0  0  0  0  0  0  0  0  0  0
   46.9310   34.1820   43.5480 C   0  0  0  0  0  0  0  0  0  0  0  0
   47.0300   33.3800   44.6650 N   0  0  0  0  0  0  0  0  0  0  0  0
   46.1020   33.4620   45.6620 C   0  0  0  0  0  0  0  0  0  0  0  0
   45.0810   34.3410   45.5400 N   0  0  0  0  0  0  0  0  0  0  0  0
   44.1360   35.8250   44.3980 H   0  0  0  0  0  0  0  0  0  0  0  0
   45.8270   35.7030   42.5380 H   0  0  0  0  0  0  0  0  0  0  0  0
   47.9570   34.0250   42.4710 C   0  0  0  0  0  0  0  0  0  0  0  0
   48.2110   35.3100   41.6840 C   0  0  0  0  0  0  0  0  0  0  0  0
   49.2520   34.6260   42.6330 C   0  0  0  0  0  0  0  0  0  0  0  0
   47.7560   33.1180   41.8510 H   0  0  0  0  0  0  0  0  0  0  0  0
   48.3590   35.1540   40.6180 H   0  0  0  0  0  0  0  0  0  0  0  0
   47.8130   36.2620   42.0430 H   0  0  0  0  0  0  0  0  0  0  0  0
   49.5140   35.1720   43.5500 H   0  0  0  0  0  0  0  0  0  0  0  0
   50.1010   34.1540   42.0780 H   0  0  0  0  0  0  0  0  0  0  0  0
   49.2200   29.8180   49.1450 C   0  0  0  0  0  0  0  0  0  0  0  0
   48.4790   29.9810   47.9930 C   0  0  0  0  0  0  0  0  0  0  0  0
   48.9060   29.2060   46.9390 C   0  0  0  0  0  0  0  0  0  0  0  0
   48.3840   29.2690   45.9970 H   0  0  0  0  0  0  0  0  0  0  0  0
   49.9760   28.3390   47.0100 C   0  0  0  0  0  3  0  0  0  0  0  0
   50.6780   28.2220   48.1950 C   0  0  0  0  0  3  0  0  0  0  0  0
   50.2960   28.9660   49.2660 C   0  0  0  0  0  0  0  0  0  0  0  0
   48.8900   30.5450   50.2790 O   0  0  0  0  0  0  0  0  0  0  0  0
   49.3350   31.4380   50.4550 H   0  0  0  0  0  0  0  0  0  0  0  0
   50.9980   28.8570   50.4710 O   0  0  0  0  0  0  0  0  0  0  0  0
   52.0050   28.9250   50.4850 H   0  0  0  0  0  0  0  0  0  0  0  0
  1  6  2  0  0  0  0
  1  2  1  0  0  0  0
  2  3  2  0  0  0  0
  3  4  1  0  0  0  0
  3  8  1  0  0  0  0
  4  9  1  0  0  0  0
  5 27  1  0  0  0  0
  5  4  2  0  0  0  0
  6  5  1  0  0  0  0
  7  2  1  0  0  0  0
 10 15  1  0  0  0  0
 11 12  1  0  0  0  0
 11 10  2  0  0  0  0
 12 13  2  0  0  0  0
 13 14  1  0  0  0  0
 14  1  1  0  0  0  0
 15 14  2  0  0  0  0
 16 10  1  0  0  0  0
 17 11  1  0  0  0  0
 18 20  1  0  0  0  0
 18 12  1  0  0  0  0
 19 23  1  0  0  0  0
 19 18  1  0  0  0  0
 19 20  1  0  0  0  0
 20 24  1  0  0  0  0
 21 18  1  0  0  0  0
 22 19  1  0  0  0  0
 25 20  1  0  0  0  0
 26 32  1  0  0  0  0
 26 33  1  0  0  0  0
 27 26  2  0  0  0  0
 28 30  2  0  0  0  0
 28 27  1  0  0  0  0
 29 28  1  0  0  0  0
 30 31  1  0  0  0  0
 31 32  2  0  0  0  0
 32 35  1  0  0  0  0
 33 34  1  0  0  0  0
 35 36  1  0  0  0  0
M  END
>  <minimizedAffinity>
-6.58467007

>  <minimizedRMSD>
1.17772484

$$$$
