
 OpenBabel03242519103D

 50 54  0  0  1  0  0  0  0  0999 V2000
   46.3440   31.8760   38.6080 C   0  0  0  0  0  0  0  0  0  0  0  0
   46.2750   32.0960   37.2210 C   0  0  0  0  0  0  0  0  0  0  0  0
   45.1900   32.8300   36.8430 C   0  0  0  0  0  0  0  0  0  0  0  0
   44.2190   33.3420   37.6620 C   0  0  0  0  0  0  0  0  0  0  0  0
   44.3250   33.1050   39.0140 C   0  0  0  0  0  0  0  0  0  0  0  0
   45.3930   32.3710   39.4680 C   0  0  0  0  0  0  0  0  0  0  0  0
   45.0800   33.0340   35.7760 H   0  0  0  0  0  0  0  0  0  0  0  0
   43.3870   33.9170   37.2770 H   0  0  0  0  0  0  0  0  0  0  0  0
   43.5960   33.4780   39.7150 H   0  0  0  0  0  0  0  0  0  0  0  0
   45.9150   33.1920   41.7130 C   0  0  0  0  0  0  0  0  0  0  0  0
   46.1430   34.3440   41.2400 O   0  0  0  0  0  0  0  0  0  0  0  0
   45.4840   32.1360   40.8800 N   0  0  0  0  0  0  0  0  0  0  0  0
   45.2400   31.2140   41.2760 H   0  0  0  0  0  0  0  0  0  0  0  0
   46.1220   33.0330   43.1510 C   0  0  0  0  0  0  0  0  0  0  0  0
   45.6680   34.0220   43.9940 C   0  0  0  0  0  0  0  0  0  0  0  0
   45.1660   34.9150   43.6570 H   0  0  0  0  0  0  0  0  0  0  0  0
   45.8370   33.9280   45.3790 C   0  0  0  0  0  3  0  0  0  0  0  0
   46.4690   32.8230   45.9230 C   0  0  0  0  0  0  0  0  0  0  0  0
   46.6120   32.7680   47.2600 N   0  0  0  0  0  0  0  0  0  0  0  0
   47.2250   31.7090   47.8620 C   0  0  0  0  0  0  0  0  0  0  0  0
   47.3170   31.7090   48.9380 H   0  0  0  0  0  0  0  0  0  0  0  0
   47.6930   30.6960   47.0500 C   0  0  0  0  0  3  0  0  0  0  0  0
   47.5500   30.7440   45.6590 C   0  0  0  0  0  3  0  0  0  0  0  0
   46.9210   31.8340   45.0670 C   0  0  0  0  0  0  0  0  0  0  0  0
   46.7510   31.9340   43.6970 C   0  0  0  0  0  3  0  0  0  0  0  0
   47.2230   31.6100   36.3040 N   0  0  0  0  0  0  0  0  0  0  0  0
   47.7950   30.8700   36.7860 H   0  0  0  0  0  0  0  0  0  0  0  0
   48.5420   31.4830   33.0020 N   0  0  0  0  0  0  0  0  0  0  0  0
   47.9940   30.7590   34.1300 C   0  0  0  0  0  0  0  0  0  0  0  0
   47.5120   31.9290   34.9450 C   0  0  2  0  0  0  0  0  0  0  0  0
   48.7220   32.8410   34.9290 C   0  0  0  0  0  0  0  0  0  0  0  0
   49.2860   32.5790   33.5510 C   0  0  0  0  0  0  0  0  0  0  0  0
   47.1720   30.0890   33.8200 H   0  0  0  0  0  0  0  0  0  0  0  0
   48.7780   30.2230   34.6910 H   0  0  0  0  0  0  0  0  0  0  0  0
   46.6920   32.4370   34.3960 H   0  0  0  0  0  0  0  0  0  0  0  0
   49.4740   32.5350   35.6990 H   0  0  0  0  0  0  0  0  0  0  0  0
   48.4200   33.8890   35.0690 H   0  0  0  0  0  0  0  0  0  0  0  0
   50.3830   32.3890   33.5580 H   0  0  0  0  0  0  0  0  0  0  0  0
   49.0770   33.4780   32.9340 H   0  0  0  0  0  0  0  0  0  0  0  0
   47.9120   29.9320   29.6720 C   0  0  0  0  0  0  0  0  0  0  0  0
   47.9830   30.0600   31.0510 C   0  0  0  0  0  0  0  0  0  0  0  0
   48.4350   31.2550   31.6210 C   0  0  0  0  0  0  0  0  0  0  0  0
   48.7860   32.2470   30.7600 N   0  0  0  0  0  0  0  0  0  0  0  0
   48.7190   32.1240   29.4270 C   0  0  0  0  0  0  0  0  0  0  0  0
   48.2760   30.9530   28.8870 N   0  0  0  0  0  0  0  0  0  0  0  0
   47.5490   28.9640   29.3490 H   0  0  0  0  0  0  0  0  0  0  0  0
   47.7220   29.3220   31.7850 H   0  0  0  0  0  0  0  0  0  0  0  0
   48.9920   32.8950   28.7330 H   0  0  0  0  0  0  0  0  0  0  0  0
   48.3650   30.4870   39.5020 N   0  0  0  0  0  0  0  0  0  0  0  0
   47.4750   31.0980   39.1050 C   0  0  0  0  0  0  0  0  0  0  0  0
  1 50  1  0  0  0  0
  1  6  1  0  0  0  0
  2  1  2  0  0  0  0
  3  2  1  0  0  0  0
  3  4  2  0  0  0  0
  4  5  1  0  0  0  0
  5  6  2  0  0  0  0
  5  9  1  0  0  0  0
  6 12  1  0  0  0  0
  7  3  1  0  0  0  0
  8  4  1  0  0  0  0
 10 14  1  0  0  0  0
 11 10  2  0  0  0  0
 12 13  1  0  0  0  0
 12 10  1  0  0  0  0
 14 25  2  0  0  0  0
 14 15  1  0  0  0  0
 15 17  2  0  0  0  0
 16 15  1  0  0  0  0
 17 18  1  0  0  0  0
 18 19  1  0  0  0  0
 19 20  2  0  0  0  0
 20 21  1  0  0  0  0
 22 20  1  0  0  0  0
 23 22  2  0  0  0  0
 24 23  1  0  0  0  0
 24 18  2  0  0  0  0
 25 24  1  0  0  0  0
 26 27  1  0  0  0  0
 26  2  1  0  0  0  0
 28 32  1  0  0  0  0
 28 29  1  0  0  0  0
 29 34  1  0  0  0  0
 29 30  1  0  0  0  0
 30 35  1  6  0  0  0
 30 26  1  0  0  0  0
 31 30  1  0  0  0  0
 31 37  1  0  0  0  0
 31 36  1  0  0  0  0
 32 38  1  0  0  0  0
 32 31  1  0  0  0  0
 33 29  1  0  0  0  0
 39 32  1  0  0  0  0
 40 41  1  0  0  0  0
 41 42  2  0  0  0  0
 41 47  1  0  0  0  0
 42 28  1  0  0  0  0
 43 42  1  0  0  0  0
 44 43  2  0  0  0  0
 45 44  1  0  0  0  0
 45 40  2  0  0  0  0
 46 40  1  0  0  0  0
 48 44  1  0  0  0  0
 50 49  3  0  0  0  0
M  END
>  <minimizedAffinity>
-5.91335154

>  <minimizedRMSD>
11.8247805

$$$$
