
 OpenBabel03242523163D

 30 33  0  0  0  0  0  0  0  0999 V2000
   46.2640   34.4520   43.6160 C   0  0  0  0  0  0  0  0  0  0  0  0
   47.4040   33.8790   43.1680 C   0  0  0  0  0  0  0  0  0  0  0  0
   47.8140   32.7580   43.8540 C   0  0  0  0  0  0  0  0  0  0  0  0
   47.0390   32.3190   44.9270 N   0  0  0  0  0  0  0  0  0  0  0  0
   45.9180   32.9350   45.3190 C   0  0  0  0  0  0  0  0  0  0  0  0
   45.4930   34.0490   44.6520 N   0  0  0  0  0  0  0  0  0  0  0  0
   48.7260   32.2380   43.5540 H   0  0  0  0  0  0  0  0  0  0  0  0
   45.5650   32.3520   46.1570 H   0  0  0  0  0  0  0  0  0  0  0  0
   48.2160   34.3690   42.1170 C   0  0  0  0  0  0  0  0  0  0  0  0
   48.4970   35.6420   41.7220 C   0  0  0  0  0  0  0  0  0  0  0  0
   49.6460   34.9630   42.4710 C   0  0  0  0  0  0  0  0  0  0  0  0
   48.5880   33.4490   41.4890 H   0  0  0  0  0  0  0  0  0  0  0  0
   48.0420   36.5520   42.2390 H   0  0  0  0  0  0  0  0  0  0  0  0
   48.8100   35.9460   40.6870 H   0  0  0  0  0  0  0  0  0  0  0  0
   49.7530   35.2890   43.5300 H   0  0  0  0  0  0  0  0  0  0  0  0
   50.5180   34.6660   41.9230 H   0  0  0  0  0  0  0  0  0  0  0  0
   45.5170   35.5830   43.0580 C   0  0  0  0  0  0  0  0  0  0  0  0
   45.2790   36.7810   42.9230 O   0  0  0  0  0  0  0  0  0  0  0  0
   44.4060   35.2580   42.1240 C   0  0  0  0  0  0  0  0  0  0  0  0
   44.7170   34.4800   41.0090 C   0  0  0  0  0  0  0  0  0  0  0  0
   45.7390   34.0800   40.8960 H   0  0  0  0  0  0  0  0  0  0  0  0
   43.8760   34.1090   39.9670 C   0  0  0  0  0  3  0  0  0  0  0  0
   42.5840   34.5860   40.0760 C   0  0  0  0  0  0  0  0  0  0  0  0
   41.7130   34.2810   39.0980 N   0  0  0  0  0  0  0  0  0  0  0  0
   40.4220   34.7270   39.1230 C   0  0  0  0  0  0  0  0  0  0  0  0
   39.7080   34.4900   38.3430 H   0  0  0  0  0  0  0  0  0  0  0  0
   40.0270   35.5130   40.1960 C   0  0  0  0  0  3  0  0  0  0  0  0
   40.9130   35.8450   41.2290 C   0  0  0  0  0  3  0  0  0  0  0  0
   42.2130   35.3620   41.1500 C   0  0  0  0  0  0  0  0  0  0  0  0
   43.0790   35.7050   42.1640 C   0  0  0  0  0  3  0  0  0  0  0  0
  1  6  1  0  0  0  0
  2  1  2  0  0  0  0
  2  3  1  0  0  0  0
  3  4  2  0  0  0  0
  4  5  1  0  0  0  0
  5  8  1  0  0  0  0
  6  5  2  0  0  0  0
  7  3  1  0  0  0  0
  9 11  1  0  0  0  0
  9  2  1  0  0  0  0
 10  9  1  0  0  0  0
 10 13  1  0  0  0  0
 10 11  1  0  0  0  0
 11 15  1  0  0  0  0
 12  9  1  0  0  0  0
 14 10  1  0  0  0  0
 16 11  1  0  0  0  0
 17  1  1  0  0  0  0
 18 17  2  0  0  0  0
 19 30  1  0  0  0  0
 19 17  1  0  0  0  0
 20 19  2  0  0  0  0
 21 20  1  0  0  0  0
 22 23  2  0  0  0  0
 22 20  1  0  0  0  0
 23 29  1  0  0  0  0
 24 25  2  0  0  0  0
 24 23  1  0  0  0  0
 25 27  1  0  0  0  0
 26 25  1  0  0  0  0
 27 28  2  0  0  0  0
 29 28  1  0  0  0  0
 29 30  2  0  0  0  0
M  END
>  <minimizedAffinity>
-6.33406878

>  <minimizedRMSD>
0.671189129

$$$$
