
 OpenBabel03242519103D

 50 54  0  0  1  0  0  0  0  0999 V2000
   49.2490   32.0910   37.0050 C   0  0  0  0  0  0  0  0  0  0  0  0
   48.3730   32.9090   37.7410 C   0  0  0  0  0  0  0  0  0  0  0  0
   47.1540   33.0640   37.1510 C   0  0  0  0  0  0  0  0  0  0  0  0
   46.7390   32.5170   35.9670 C   0  0  0  0  0  0  0  0  0  0  0  0
   47.6270   31.7220   35.2770 C   0  0  0  0  0  0  0  0  0  0  0  0
   48.8760   31.5200   35.8120 C   0  0  0  0  0  0  0  0  0  0  0  0
   46.4290   33.6890   37.6760 H   0  0  0  0  0  0  0  0  0  0  0  0
   45.7480   32.6920   35.5690 H   0  0  0  0  0  0  0  0  0  0  0  0
   47.3660   31.2600   34.3390 H   0  0  0  0  0  0  0  0  0  0  0  0
   50.2580   31.1470   33.8280 C   0  0  0  0  0  0  0  0  0  0  0  0
   49.9520   32.2980   33.3970 O   0  0  0  0  0  0  0  0  0  0  0  0
   49.7850   30.6890   35.0770 N   0  0  0  0  0  0  0  0  0  0  0  0
   50.0830   29.7760   35.4540 H   0  0  0  0  0  0  0  0  0  0  0  0
   51.1190   30.3430   32.9620 C   0  0  0  0  0  0  0  0  0  0  0  0
   52.4720   30.5910   32.9640 C   0  0  0  0  0  0  0  0  0  0  0  0
   52.9420   31.3500   33.5690 H   0  0  0  0  0  0  0  0  0  0  0  0
   53.3440   29.8550   32.1590 C   0  0  0  0  0  3  0  0  0  0  0  0
   52.8500   28.8550   31.3400 C   0  0  0  0  0  0  0  0  0  0  0  0
   53.7220   28.1670   30.5780 N   0  0  0  0  0  0  0  0  0  0  0  0
   53.3020   27.1690   29.7490 C   0  0  0  0  0  0  0  0  0  0  0  0
   54.0370   26.6460   29.1580 H   0  0  0  0  0  0  0  0  0  0  0  0
   51.9510   26.8900   29.7200 C   0  0  0  0  0  3  0  0  0  0  0  0
   51.0360   27.5980   30.5070 C   0  0  0  0  0  3  0  0  0  0  0  0
   51.4880   28.6120   31.3460 C   0  0  0  0  0  0  0  0  0  0  0  0
   50.6280   29.3440   32.1450 C   0  0  0  0  0  3  0  0  0  0  0  0
   48.7100   33.5130   38.9650 N   0  0  0  0  0  0  0  0  0  0  0  0
   49.5100   34.1760   38.7930 H   0  0  0  0  0  0  0  0  0  0  0  0
   47.6690   34.2670   42.2830 N   0  0  0  0  0  0  0  0  0  0  0  0
   47.7440   34.6850   40.8980 C   0  0  0  0  0  0  0  0  0  0  0  0
   48.1920   33.3840   40.2870 C   0  0  2  0  0  0  0  0  0  0  0  0
   49.3360   32.9880   41.1970 C   0  0  0  0  0  0  0  0  0  0  0  0
   48.8540   33.5020   42.5360 C   0  0  0  0  0  0  0  0  0  0  0  0
   46.7590   35.0160   40.5210 H   0  0  0  0  0  0  0  0  0  0  0  0
   48.5250   35.4480   40.7440 H   0  0  0  0  0  0  0  0  0  0  0  0
   47.3830   32.6340   40.4040 H   0  0  0  0  0  0  0  0  0  0  0  0
   50.2820   33.5170   40.9190 H   0  0  0  0  0  0  0  0  0  0  0  0
   49.4780   31.8990   41.1900 H   0  0  0  0  0  0  0  0  0  0  0  0
   49.6300   34.0840   43.0830 H   0  0  0  0  0  0  0  0  0  0  0  0
   48.5680   32.6180   43.1430 H   0  0  0  0  0  0  0  0  0  0  0  0
   44.7750   35.6320   44.1930 C   0  0  0  0  0  0  0  0  0  0  0  0
   45.6970   35.4790   43.1690 C   0  0  0  0  0  0  0  0  0  0  0  0
   46.6920   34.5000   43.2630 C   0  0  0  0  0  0  0  0  0  0  0  0
   46.6920   33.7360   44.3880 N   0  0  0  0  0  0  0  0  0  0  0  0
   45.8010   33.8840   45.3780 C   0  0  0  0  0  0  0  0  0  0  0  0
   44.8370   34.8420   45.2720 N   0  0  0  0  0  0  0  0  0  0  0  0
   44.0550   36.4210   44.0090 H   0  0  0  0  0  0  0  0  0  0  0  0
   45.7550   36.0450   42.2580 H   0  0  0  0  0  0  0  0  0  0  0  0
   45.7860   33.2910   46.2720 H   0  0  0  0  0  0  0  0  0  0  0  0
   51.6290   31.6870   37.9970 N   0  0  0  0  0  0  0  0  0  0  0  0
   50.5800   31.8680   37.5610 C   0  0  0  0  0  0  0  0  0  0  0  0
  1 50  1  0  0  0  0
  1  2  1  0  0  0  0
  2 26  1  0  0  0  0
  3  7  1  0  0  0  0
  3  2  2  0  0  0  0
  4  3  1  0  0  0  0
  5  6  1  0  0  0  0
  5  4  2  0  0  0  0
  6  1  2  0  0  0  0
  8  4  1  0  0  0  0
  9  5  1  0  0  0  0
 10 12  1  0  0  0  0
 11 10  2  0  0  0  0
 12 13  1  0  0  0  0
 12  6  1  0  0  0  0
 14 15  1  0  0  0  0
 14 10  1  0  0  0  0
 15 16  1  0  0  0  0
 17 15  2  0  0  0  0
 18 24  1  0  0  0  0
 18 17  1  0  0  0  0
 19 18  2  0  0  0  0
 20 19  1  0  0  0  0
 21 20  1  0  0  0  0
 22 20  2  0  0  0  0
 22 23  1  0  0  0  0
 23 24  2  0  0  0  0
 24 25  1  0  0  0  0
 25 14  2  0  0  0  0
 26 30  1  0  0  0  0
 27 26  1  0  0  0  0
 28 32  1  0  0  0  0
 28 42  1  0  0  0  0
 29 28  1  0  0  0  0
 30 35  1  1  0  0  0
 30 29  1  0  0  0  0
 30 31  1  0  0  0  0
 31 32  1  0  0  0  0
 32 38  1  0  0  0  0
 32 39  1  0  0  0  0
 33 29  1  0  0  0  0
 34 29  1  0  0  0  0
 36 31  1  0  0  0  0
 37 31  1  0  0  0  0
 40 45  1  0  0  0  0
 41 42  1  0  0  0  0
 41 40  2  0  0  0  0
 42 43  2  0  0  0  0
 43 44  1  0  0  0  0
 44 48  1  0  0  0  0
 45 44  2  0  0  0  0
 46 40  1  0  0  0  0
 47 41  1  0  0  0  0
 50 49  3  0  0  0  0
M  END
>  <minimizedAffinity>
-5.97576571

>  <minimizedRMSD>
1.03912151

$$$$
