
 OpenBabel03242523163D

 30 33  0  0  0  0  0  0  0  0999 V2000
   46.2820   34.4290   43.7170 C   0  0  0  0  0  0  0  0  0  0  0  0
   47.4150   33.8230   43.2940 C   0  0  0  0  0  0  0  0  0  0  0  0
   47.8310   32.7510   44.0510 C   0  0  0  0  0  0  0  0  0  0  0  0
   47.0680   32.3880   45.1600 N   0  0  0  0  0  0  0  0  0  0  0  0
   45.9530   33.0320   45.5230 C   0  0  0  0  0  0  0  0  0  0  0  0
   45.5230   34.1000   44.7870 N   0  0  0  0  0  0  0  0  0  0  0  0
   48.7380   32.2080   43.7760 H   0  0  0  0  0  0  0  0  0  0  0  0
   45.6100   32.5090   46.4020 H   0  0  0  0  0  0  0  0  0  0  0  0
   48.2150   34.2380   42.2030 C   0  0  0  0  0  0  0  0  0  0  0  0
   48.4390   35.4740   41.6760 C   0  0  0  0  0  0  0  0  0  0  0  0
   49.6110   34.9360   42.5010 C   0  0  0  0  0  0  0  0  0  0  0  0
   48.6400   33.2760   41.6800 H   0  0  0  0  0  0  0  0  0  0  0  0
   47.9340   36.4100   42.0890 H   0  0  0  0  0  0  0  0  0  0  0  0
   48.7500   35.6810   40.6160 H   0  0  0  0  0  0  0  0  0  0  0  0
   49.6890   35.3790   43.5200 H   0  0  0  0  0  0  0  0  0  0  0  0
   50.5020   34.6270   41.9950 H   0  0  0  0  0  0  0  0  0  0  0  0
   45.5300   35.5220   43.0920 C   0  0  0  0  0  0  0  0  0  0  0  0
   45.2310   36.7040   42.9470 O   0  0  0  0  0  0  0  0  0  0  0  0
   44.5580   35.1470   42.0310 C   0  0  0  0  0  0  0  0  0  0  0  0
   43.2490   35.6070   42.1740 C   0  0  0  0  0  0  0  0  0  0  0  0
   43.0000   36.2790   43.0130 H   0  0  0  0  0  0  0  0  0  0  0  0
   42.1560   35.3330   41.3610 C   0  0  0  0  0  3  0  0  0  0  0  0
   42.4290   34.4990   40.2940 C   0  0  0  0  0  0  0  0  0  0  0  0
   41.4190   34.1760   39.4690 N   0  0  0  0  0  0  0  0  0  0  0  0
   41.6040   33.3440   38.4000 C   0  0  0  0  0  0  0  0  0  0  0  0
   40.8000   33.0750   37.7260 H   0  0  0  0  0  0  0  0  0  0  0  0
   42.8760   32.8360   38.1860 C   0  0  0  0  0  3  0  0  0  0  0  0
   43.9480   33.1580   39.0290 C   0  0  0  0  0  3  0  0  0  0  0  0
   43.7000   34.0080   40.0980 C   0  0  0  0  0  0  0  0  0  0  0  0
   44.7570   34.3070   40.9280 C   0  0  0  0  0  3  0  0  0  0  0  0
  1  6  1  0  0  0  0
  2  1  2  0  0  0  0
  2  3  1  0  0  0  0
  3  4  2  0  0  0  0
  4  5  1  0  0  0  0
  5  8  1  0  0  0  0
  6  5  2  0  0  0  0
  7  3  1  0  0  0  0
  9 11  1  0  0  0  0
  9  2  1  0  0  0  0
 10 13  1  0  0  0  0
 10  9  1  0  0  0  0
 10 11  1  0  0  0  0
 11 15  1  0  0  0  0
 12  9  1  0  0  0  0
 14 10  1  0  0  0  0
 16 11  1  0  0  0  0
 17  1  1  0  0  0  0
 18 17  2  0  0  0  0
 19 20  1  0  0  0  0
 19 17  1  0  0  0  0
 20 21  1  0  0  0  0
 22 20  2  0  0  0  0
 23 22  1  0  0  0  0
 24 23  2  0  0  0  0
 25 24  1  0  0  0  0
 26 25  1  0  0  0  0
 27 25  2  0  0  0  0
 27 28  1  0  0  0  0
 28 29  2  0  0  0  0
 29 23  1  0  0  0  0
 29 30  1  0  0  0  0
 30 19  2  0  0  0  0
M  END
>  <minimizedAffinity>
-5.70529366

>  <minimizedRMSD>
0.508403122

$$$$
