
 OpenBabel03252508503D

 31 34  0  0  0  0  0  0  0  0999 V2000
   45.8630   34.1220   41.0660 C   0  0  0  0  0  0  0  0  0  0  0  0
   46.4680   34.7700   42.1380 C   0  0  0  0  0  0  0  0  0  0  0  0
   47.8110   35.1360   41.9550 C   0  0  0  0  0  0  0  0  0  0  0  0
   48.4240   34.8440   40.7740 N   0  0  0  0  0  0  0  0  0  0  0  0
   47.7930   34.2220   39.7840 C   0  0  0  0  0  0  0  0  0  0  0  0
   46.5080   33.8550   39.9190 N   0  0  0  0  0  0  0  0  0  0  0  0
   48.3170   35.6420   42.7680 H   0  0  0  0  0  0  0  0  0  0  0  0
   48.2430   33.9740   38.8350 H   0  0  0  0  0  0  0  0  0  0  0  0
   45.7230   35.0310   43.3480 C   0  0  0  0  0  0  0  0  0  0  0  0
   45.0510   36.2270   43.5790 C   0  0  0  0  0  0  0  0  0  0  0  0
   44.4930   36.0410   44.8260 C   0  0  0  0  0  0  0  0  0  0  0  0
   44.8030   34.8140   45.3220 N   0  0  0  0  0  0  0  0  0  0  0  0
   45.5450   34.2310   44.4070 N   0  0  0  0  0  0  0  0  0  0  0  0
   44.9410   37.1320   42.9810 H   0  0  0  0  0  0  0  0  0  0  0  0
   43.8770   36.7510   45.3830 H   0  0  0  0  0  0  0  0  0  0  0  0
   44.5010   34.4240   46.2560 H   0  0  0  0  0  0  0  0  0  0  0  0
   44.5390   33.7410   41.1990 O   0  0  0  0  0  0  0  0  0  0  0  0
   43.4350   34.4220   40.7760 C   0  0  0  0  0  0  0  0  0  0  0  0
   43.3390   35.6790   40.5460 O   0  0  0  0  0  0  0  0  0  0  0  0
   42.1120   33.7880   40.5100 C   0  0  0  0  0  0  0  0  0  0  0  0
   41.0310   33.9670   41.3390 C   0  0  0  0  0  0  0  0  0  0  0  0
   41.0900   34.5820   42.2250 H   0  0  0  0  0  0  0  0  0  0  0  0
   39.7950   33.3620   41.0770 C   0  0  0  0  0  3  0  0  0  0  0  0
   39.6430   32.5640   39.9660 C   0  0  0  0  0  0  0  0  0  0  0  0
   38.4710   31.9690   39.6860 N   0  0  0  0  0  0  0  0  0  0  0  0
   38.3500   31.1890   38.5850 C   0  0  0  0  0  0  0  0  0  0  0  0
   37.3690   30.7460   38.4320 H   0  0  0  0  0  0  0  0  0  0  0  0
   39.3850   30.9420   37.6800 C   0  0  0  0  0  3  0  0  0  0  0  0
   40.5820   31.5590   37.9800 C   0  0  0  0  0  3  0  0  0  0  0  0
   40.6950   32.3520   39.1040 C   0  0  0  0  0  0  0  0  0  0  0  0
   41.8710   32.9830   39.4350 C   0  0  0  0  0  3  0  0  0  0  0  0
  1 17  1  0  0  0  0
  1  2  1  0  0  0  0
  2  9  1  0  0  0  0
  3  2  2  0  0  0  0
  3  7  1  0  0  0  0
  4  3  1  0  0  0  0
  5  6  1  0  0  0  0
  5  4  2  0  0  0  0
  6  1  2  0  0  0  0
  8  5  1  0  0  0  0
  9 10  1  0  0  0  0
  9 13  2  0  0  0  0
 10 11  2  0  0  0  0
 11 12  1  0  0  0  0
 11 15  1  0  0  0  0
 12 16  1  0  0  0  0
 13 12  1  0  0  0  0
 14 10  1  0  0  0  0
 18 17  1  0  0  0  0
 19 18  2  0  0  0  0
 20 18  1  0  0  0  0
 20 21  1  0  0  0  0
 21 22  1  0  0  0  0
 23 21  2  0  0  0  0
 24 23  1  0  0  0  0
 25 24  1  0  0  0  0
 26 25  2  0  0  0  0
 27 26  1  0  0  0  0
 28 29  2  0  0  0  0
 28 26  1  0  0  0  0
 29 30  1  0  0  0  0
 30 31  1  0  0  0  0
 30 24  2  0  0  0  0
 31 20  2  0  0  0  0
M  END
>  <minimizedAffinity>
-6.01271248

>  <minimizedRMSD>
1.75042117

$$$$
