
 OpenBabel03242516163D

 46 50  0  0  1  0  0  0  0  0999 V2000
   46.2940   35.7800   42.6220 C   0  0  0  0  0  0  0  0  0  0  0  0
   46.8320   34.5040   42.4480 C   0  0  0  0  0  0  0  0  0  0  0  0
   46.3590   33.4970   43.2870 C   0  0  0  0  0  0  0  0  0  0  0  0
   45.4090   33.7900   44.2280 N   0  0  0  0  0  0  0  0  0  0  0  0
   44.9380   35.0350   44.3430 C   0  0  0  0  0  0  0  0  0  0  0  0
   45.3580   36.0180   43.5680 N   0  0  0  0  0  0  0  0  0  0  0  0
   43.9480   35.3930   45.3020 N   0  0  0  0  0  0  0  0  0  0  0  0
   46.6670   36.5480   41.9660 H   0  0  0  0  0  0  0  0  0  0  0  0
   44.4700   35.6200   46.1750 H   0  0  0  0  0  0  0  0  0  0  0  0
   42.9270   35.3880   45.0470 H   0  0  0  0  0  0  0  0  0  0  0  0
   47.8690   34.2540   41.4150 C   0  0  0  0  0  0  0  0  0  0  0  0
   48.7960   35.4150   41.0970 C   0  0  0  0  0  0  0  0  0  0  0  0
   49.2570   34.2010   41.7730 C   0  0  0  0  0  0  0  0  0  0  0  0
   49.1300   35.5950   40.0550 H   0  0  0  0  0  0  0  0  0  0  0  0
   48.5460   36.3670   41.6090 H   0  0  0  0  0  0  0  0  0  0  0  0
   49.7900   34.5220   42.6760 H   0  0  0  0  0  0  0  0  0  0  0  0
   49.9150   33.5160   41.1600 H   0  0  0  0  0  0  0  0  0  0  0  0
   47.4170   33.5320   40.1810 C   0  0  0  0  0  0  0  0  0  0  0  0
   47.9730   34.0680   38.8760 C   0  0  0  0  0  0  0  0  0  0  0  0
   47.4760   33.1180   37.7940 C   0  0  0  0  0  0  0  0  0  0  0  0
   46.1240   33.4150   37.5920 O   0  0  0  0  0  0  0  0  0  0  0  0
   45.5090   32.8700   38.7450 C   0  0  0  0  0  0  0  0  0  0  0  0
   45.8990   33.6760   39.9710 C   0  0  0  0  0  0  0  0  0  0  0  0
   47.6230   32.4570   40.3110 H   0  0  0  0  0  0  0  0  0  0  0  0
   49.0930   33.9890   38.8410 H   0  0  0  0  0  0  0  0  0  0  0  0
   47.6190   35.0920   38.7230 H   0  0  0  0  0  0  0  0  0  0  0  0
   48.0740   33.1720   36.8680 H   0  0  0  0  0  0  0  0  0  0  0  0
   47.5540   32.0930   38.2080 H   0  0  0  0  0  0  0  0  0  0  0  0
   44.4060   33.0270   38.6050 H   0  0  0  0  0  0  0  0  0  0  0  0
   45.6770   31.8010   38.8550 H   0  0  0  0  0  0  0  0  0  0  0  0
   45.4260   33.1970   40.8420 H   0  0  0  0  0  0  0  0  0  0  0  0
   45.6250   34.7240   39.7910 H   0  0  0  0  0  0  0  0  0  0  0  0
   46.8630   32.1570   43.2600 C   0  0  2  0  0  0  0  0  0  0  0  0
   46.4690   31.1840   42.4950 O   0  0  0  0  0  0  0  0  0  0  0  0
   47.8200   31.2510   43.8570 C   0  0  0  0  0  0  0  0  0  0  0  0
   48.9260   30.6860   43.2880 C   0  0  0  0  0  0  0  0  0  0  0  0
   49.1620   31.0150   42.2670 H   0  0  0  0  0  0  0  0  0  0  0  0
   49.6980   29.7420   43.9960 C   0  0  0  0  0  0  0  0  0  0  0  0
   49.3610   29.3710   45.2570 C   0  0  0  0  0  0  0  0  0  0  0  0
   50.1240   28.4680   45.8920 N   0  0  0  0  0  0  0  0  0  0  0  0
   49.8340   28.0580   47.1600 C   0  0  0  0  0  0  0  0  0  0  0  0
   50.4290   27.3270   47.7070 H   0  0  0  0  0  0  0  0  0  0  0  0
   48.7130   28.5960   47.8020 C   0  0  0  0  0  0  0  0  0  0  0  0
   47.8950   29.5380   47.1740 C   0  0  0  0  0  0  0  0  0  0  0  0
   48.2750   29.8820   45.9000 C   0  0  0  0  0  0  0  0  0  0  0  0
   47.5750   30.7940   45.1500 C   0  0  0  0  0  0  0  0  0  0  0  0
  1  6  1  0  0  0  0
  2  1  2  0  0  0  0
  2  3  1  0  0  0  0
  3  4  2  0  0  0  0
  4  5  1  0  0  0  0
  5  7  1  0  0  0  0
  6  5  2  0  0  0  0
  7  9  1  0  0  0  0
  8  1  1  0  0  0  0
 10  7  1  0  0  0  0
 11 13  1  0  0  0  0
 11  2  1  0  0  0  0
 12 11  1  0  0  0  0
 12 15  1  0  0  0  0
 12 13  1  0  0  0  0
 13 16  1  0  0  0  0
 14 12  1  0  0  0  0
 17 13  1  0  0  0  0
 18 24  1  0  0  0  0
 18 11  1  0  0  0  0
 19 18  1  0  0  0  0
 20 28  1  0  0  0  0
 20 19  1  0  0  0  0
 21 20  1  0  0  0  0
 21 22  1  0  0  0  0
 22 30  1  0  0  0  0
 22 23  1  0  0  0  0
 23 18  1  0  0  0  0
 23 31  1  0  0  0  0
 25 19  1  0  0  0  0
 26 19  1  0  0  0  0
 27 20  1  0  0  0  0
 29 22  1  0  0  0  0
 32 23  1  0  0  0  0
 33 34  1  1  0  0  0
 33  3  1  0  0  0  0
 33 35  1  0  0  0  0
 35 46  1  0  0  0  0
 36 35  2  0  0  0  0
 36 38  1  0  0  0  0
 37 36  1  0  0  0  0
 38 39  2  0  0  0  0
 39 40  1  0  0  0  0
 39 45  1  0  0  0  0
 40 41  2  0  0  0  0
 41 42  1  0  0  0  0
 41 43  1  0  0  0  0
 44 43  2  0  0  0  0
 45 44  1  0  0  0  0
 46 45  2  0  0  0  0
M  END
>  <minimizedAffinity>
-5.67445517

>  <minimizedRMSD>
2.10219145

$$$$
