
 OpenBabel03252508513D

 31 34  0  0  0  0  0  0  0  0999 V2000
   46.0490   34.1960   41.0450 C   0  0  0  0  0  0  0  0  0  0  0  0
   46.5940   34.8510   42.1450 C   0  0  0  0  0  0  0  0  0  0  0  0
   47.9270   35.2700   42.0110 C   0  0  0  0  0  0  0  0  0  0  0  0
   48.5890   35.0210   40.8470 N   0  0  0  0  0  0  0  0  0  0  0  0
   48.0130   34.3900   39.8280 C   0  0  0  0  0  0  0  0  0  0  0  0
   46.7400   33.9720   39.9160 N   0  0  0  0  0  0  0  0  0  0  0  0
   48.3870   35.7830   42.8480 H   0  0  0  0  0  0  0  0  0  0  0  0
   48.5030   34.1740   38.8900 H   0  0  0  0  0  0  0  0  0  0  0  0
   45.8020   35.0630   43.3340 C   0  0  0  0  0  0  0  0  0  0  0  0
   45.0700   36.2250   43.5560 C   0  0  0  0  0  0  0  0  0  0  0  0
   44.4820   36.0010   44.7830 C   0  0  0  0  0  0  0  0  0  0  0  0
   44.8310   34.7820   45.2760 N   0  0  0  0  0  0  0  0  0  0  0  0
   45.6270   34.2440   44.3780 N   0  0  0  0  0  0  0  0  0  0  0  0
   44.9380   37.1320   42.9650 H   0  0  0  0  0  0  0  0  0  0  0  0
   43.8190   36.6750   45.3280 H   0  0  0  0  0  0  0  0  0  0  0  0
   44.5190   34.3680   46.1960 H   0  0  0  0  0  0  0  0  0  0  0  0
   44.7380   33.7630   41.1290 O   0  0  0  0  0  0  0  0  0  0  0  0
   43.6290   34.3730   40.6200 C   0  0  0  0  0  0  0  0  0  0  0  0
   43.4100   35.6320   40.5260 O   0  0  0  0  0  0  0  0  0  0  0  0
   42.4490   33.6440   40.0740 C   0  0  0  0  0  0  0  0  0  0  0  0
   42.3280   33.3340   38.7410 C   0  0  0  0  0  0  0  0  0  0  0  0
   43.0890   33.6050   38.0240 H   0  0  0  0  0  0  0  0  0  0  0  0
   41.2120   32.6500   38.2420 C   0  0  0  0  0  3  0  0  0  0  0  0
   40.2010   32.2710   39.0970 C   0  0  0  0  0  0  0  0  0  0  0  0
   39.1170   31.6140   38.6510 N   0  0  0  0  0  0  0  0  0  0  0  0
   38.1360   31.2530   39.5150 C   0  0  0  0  0  0  0  0  0  0  0  0
   37.2970   30.7260   39.0710 H   0  0  0  0  0  0  0  0  0  0  0  0
   38.1620   31.5190   40.8850 C   0  0  0  0  0  3  0  0  0  0  0  0
   39.2800   32.1930   41.3290 C   0  0  0  0  0  3  0  0  0  0  0  0
   40.2730   32.5570   40.4410 C   0  0  0  0  0  0  0  0  0  0  0  0
   41.4020   33.2300   40.8470 C   0  0  0  0  0  3  0  0  0  0  0  0
  1 17  1  0  0  0  0
  1  2  1  0  0  0  0
  2  9  1  0  0  0  0
  3  2  2  0  0  0  0
  3  7  1  0  0  0  0
  4  3  1  0  0  0  0
  5  6  1  0  0  0  0
  5  4  2  0  0  0  0
  6  1  2  0  0  0  0
  8  5  1  0  0  0  0
  9 10  1  0  0  0  0
  9 13  2  0  0  0  0
 10 11  2  0  0  0  0
 11 12  1  0  0  0  0
 11 15  1  0  0  0  0
 12 16  1  0  0  0  0
 13 12  1  0  0  0  0
 14 10  1  0  0  0  0
 18 17  1  0  0  0  0
 19 18  2  0  0  0  0
 20 18  1  0  0  0  0
 20 31  1  0  0  0  0
 21 20  2  0  0  0  0
 22 21  1  0  0  0  0
 23 21  1  0  0  0  0
 23 24  2  0  0  0  0
 24 30  1  0  0  0  0
 25 24  1  0  0  0  0
 25 26  2  0  0  0  0
 26 28  1  0  0  0  0
 27 26  1  0  0  0  0
 28 29  2  0  0  0  0
 30 31  2  0  0  0  0
 30 29  1  0  0  0  0
M  END
>  <minimizedAffinity>
-6.1730237

>  <minimizedRMSD>
1.24264348

$$$$
