
 OpenBabel03242513533D

 42 45  0  0  1  0  0  0  0  0999 V2000
   46.4530   34.4950   43.7100 C   0  0  2  0  0  0  0  0  0  0  0  0
   46.0190   33.3580   44.5840 C   0  0  0  0  0  0  0  0  0  0  0  0
   45.3740   34.1380   45.7110 C   0  0  0  0  0  0  0  0  0  0  0  0
   44.6930   35.2460   45.0530 C   0  0  0  0  0  0  0  0  0  0  0  0
   45.1510   35.2290   43.5110 C   0  0  2  0  0  0  0  0  0  0  0  0
   47.1130   35.2020   44.2690 H   0  0  0  0  0  0  0  0  0  0  0  0
   45.3290   32.6840   44.0810 H   0  0  0  0  0  0  0  0  0  0  0  0
   46.9420   32.8630   44.9500 H   0  0  0  0  0  0  0  0  0  0  0  0
   44.7180   33.4260   46.2600 H   0  0  0  0  0  0  0  0  0  0  0  0
   46.1940   34.4490   46.3990 H   0  0  0  0  0  0  0  0  0  0  0  0
   43.5790   35.1010   45.0390 H   0  0  0  0  0  0  0  0  0  0  0  0
   44.9500   36.2460   45.4430 H   0  0  0  0  0  0  0  0  0  0  0  0
   45.2540   36.2810   43.2100 H   0  0  0  0  0  0  0  0  0  0  0  0
   48.0910   34.4530   40.3350 C   0  0  0  0  0  0  0  0  0  0  0  0
   47.5350   34.9950   41.5130 C   0  0  0  0  0  0  0  0  0  0  0  0
   47.0470   34.1090   42.4130 C   0  0  0  0  0  0  0  0  0  0  0  0
   47.1210   32.7420   42.1280 N   0  0  0  0  0  0  0  0  0  0  0  0
   47.6530   32.2610   41.0030 C   0  0  0  0  0  0  0  0  0  0  0  0
   48.1380   33.1190   40.1050 N   0  0  0  0  0  0  0  0  0  0  0  0
   48.4800   35.1660   39.6160 H   0  0  0  0  0  0  0  0  0  0  0  0
   47.4940   36.0530   41.7010 H   0  0  0  0  0  0  0  0  0  0  0  0
   47.6620   31.1910   40.8790 H   0  0  0  0  0  0  0  0  0  0  0  0
   44.1990   34.4970   42.8270 O   0  0  0  0  0  0  0  0  0  0  0  0
   43.3650   34.9600   41.8450 C   0  0  0  0  0  0  0  0  0  0  0  0
   44.0150   35.8680   41.1930 O   0  0  0  0  0  0  0  0  0  0  0  0
   42.0570   34.9120   41.1730 C   0  0  0  0  0  3  0  0  0  0  0  0
   41.1340   35.8830   41.0390 C   0  0  0  0  0  3  0  0  0  0  0  0
   39.8060   35.9070   40.3840 C   0  0  0  0  0  0  0  0  0  0  0  0
   39.8900   36.5950   39.5110 H   0  0  0  0  0  0  0  0  0  0  0  0
   39.0720   36.2680   41.1340 H   0  0  0  0  0  0  0  0  0  0  0  0
   39.3930   34.5350   39.9380 C   0  0  0  0  0  0  0  0  0  0  0  0
   39.5290   34.2440   38.5780 C   0  0  0  0  0  0  0  0  0  0  0  0
   39.9240   35.0120   37.9040 H   0  0  0  0  0  0  0  0  0  0  0  0
   39.1990   33.0380   37.9970 C   0  0  0  0  0  3  0  0  0  0  0  0
   38.7020   32.0700   38.8370 C   0  0  0  0  0  0  0  0  0  0  0  0
   38.3730   30.8830   38.2920 N   0  0  0  0  0  0  0  0  0  0  0  0
   37.8790   29.8890   39.0720 C   0  0  0  0  0  0  0  0  0  0  0  0
   37.6370   28.9650   38.5620 H   0  0  0  0  0  0  0  0  0  0  0  0
   37.7260   30.1270   40.4240 C   0  0  0  0  0  3  0  0  0  0  0  0
   38.0520   31.3280   41.0110 C   0  0  0  0  0  3  0  0  0  0  0  0
   38.5550   32.3250   40.1910 C   0  0  0  0  0  0  0  0  0  0  0  0
   38.8930   33.5410   40.7440 C   0  0  0  0  0  3  0  0  0  0  0  0
  1  6  1  1  0  0  0
  1  2  1  0  0  0  0
  2  8  1  0  0  0  0
  2  3  1  0  0  0  0
  3  9  1  0  0  0  0
  3 10  1  0  0  0  0
  4 12  1  0  0  0  0
  4  3  1  0  0  0  0
  5 13  1  6  0  0  0
  5  1  1  0  0  0  0
  5  4  1  0  0  0  0
  7  2  1  0  0  0  0
 11  4  1  0  0  0  0
 14 15  1  0  0  0  0
 15 21  1  0  0  0  0
 15 16  2  0  0  0  0
 16  1  1  0  0  0  0
 17 16  1  0  0  0  0
 18 17  2  0  0  0  0
 19 14  2  0  0  0  0
 19 18  1  0  0  0  0
 20 14  1  0  0  0  0
 22 18  1  0  0  0  0
 23  5  1  0  0  0  0
 24 23  1  0  0  0  0
 25 24  2  0  0  0  0
 26 24  1  0  0  0  0
 27 26  2  0  0  0  0
 28 27  1  0  0  0  0
 28 30  1  0  0  0  0
 29 28  1  0  0  0  0
 31 28  1  0  0  0  0
 31 42  1  0  0  0  0
 32 31  2  0  0  0  0
 33 32  1  0  0  0  0
 34 32  1  0  0  0  0
 34 35  2  0  0  0  0
 35 41  1  0  0  0  0
 36 35  1  0  0  0  0
 36 37  2  0  0  0  0
 37 39  1  0  0  0  0
 38 37  1  0  0  0  0
 39 40  2  0  0  0  0
 41 42  2  0  0  0  0
 41 40  1  0  0  0  0
M  END
>  <minimizedAffinity>
-6.80458307

>  <minimizedRMSD>
1.04459262

$$$$
