
 OpenBabel03242523173D

 30 33  0  0  0  0  0  0  0  0999 V2000
   46.2640   34.4480   43.6180 C   0  0  0  0  0  0  0  0  0  0  0  0
   47.4040   33.8740   43.1690 C   0  0  0  0  0  0  0  0  0  0  0  0
   47.8130   32.7530   43.8560 C   0  0  0  0  0  0  0  0  0  0  0  0
   47.0370   32.3150   44.9290 N   0  0  0  0  0  0  0  0  0  0  0  0
   45.9170   32.9320   45.3210 C   0  0  0  0  0  0  0  0  0  0  0  0
   45.4930   34.0470   44.6540 N   0  0  0  0  0  0  0  0  0  0  0  0
   48.7240   32.2320   43.5560 H   0  0  0  0  0  0  0  0  0  0  0  0
   45.5640   32.3500   46.1590 H   0  0  0  0  0  0  0  0  0  0  0  0
   48.2150   34.3630   42.1180 C   0  0  0  0  0  0  0  0  0  0  0  0
   48.4950   35.6360   41.7200 C   0  0  0  0  0  0  0  0  0  0  0  0
   49.6450   34.9600   42.4720 C   0  0  0  0  0  0  0  0  0  0  0  0
   48.5910   33.4420   41.4930 H   0  0  0  0  0  0  0  0  0  0  0  0
   48.0370   36.5460   42.2340 H   0  0  0  0  0  0  0  0  0  0  0  0
   48.8080   35.9380   40.6840 H   0  0  0  0  0  0  0  0  0  0  0  0
   49.7500   35.2900   43.5300 H   0  0  0  0  0  0  0  0  0  0  0  0
   50.5170   34.6640   41.9260 H   0  0  0  0  0  0  0  0  0  0  0  0
   45.5180   35.5800   43.0600 C   0  0  0  0  0  0  0  0  0  0  0  0
   45.2810   36.7780   42.9240 O   0  0  0  0  0  0  0  0  0  0  0  0
   44.4070   35.2570   42.1250 C   0  0  0  0  0  0  0  0  0  0  0  0
   44.7190   34.4790   41.0090 C   0  0  0  0  0  0  0  0  0  0  0  0
   45.7400   34.0780   40.8970 H   0  0  0  0  0  0  0  0  0  0  0  0
   43.8770   34.1090   39.9670 C   0  0  0  0  0  3  0  0  0  0  0  0
   42.5850   34.5860   40.0760 C   0  0  0  0  0  0  0  0  0  0  0  0
   41.7140   34.2820   39.0980 N   0  0  0  0  0  0  0  0  0  0  0  0
   40.4230   34.7290   39.1230 C   0  0  0  0  0  0  0  0  0  0  0  0
   39.7100   34.4920   38.3430 H   0  0  0  0  0  0  0  0  0  0  0  0
   40.0290   35.5130   40.1970 C   0  0  0  0  0  3  0  0  0  0  0  0
   40.9150   35.8440   41.2310 C   0  0  0  0  0  3  0  0  0  0  0  0
   42.2140   35.3620   41.1500 C   0  0  0  0  0  0  0  0  0  0  0  0
   43.0810   35.7030   42.1650 C   0  0  0  0  0  3  0  0  0  0  0  0
  1  6  1  0  0  0  0
  2  1  2  0  0  0  0
  2  3  1  0  0  0  0
  3  4  2  0  0  0  0
  4  5  1  0  0  0  0
  5  8  1  0  0  0  0
  6  5  2  0  0  0  0
  7  3  1  0  0  0  0
  9 11  1  0  0  0  0
  9  2  1  0  0  0  0
 10  9  1  0  0  0  0
 10 13  1  0  0  0  0
 10 11  1  0  0  0  0
 11 15  1  0  0  0  0
 12  9  1  0  0  0  0
 14 10  1  0  0  0  0
 16 11  1  0  0  0  0
 17  1  1  0  0  0  0
 18 17  2  0  0  0  0
 19 30  1  0  0  0  0
 19 17  1  0  0  0  0
 20 19  2  0  0  0  0
 21 20  1  0  0  0  0
 22 23  2  0  0  0  0
 22 20  1  0  0  0  0
 23 29  1  0  0  0  0
 24 25  2  0  0  0  0
 24 23  1  0  0  0  0
 25 27  1  0  0  0  0
 26 25  1  0  0  0  0
 27 28  2  0  0  0  0
 29 28  1  0  0  0  0
 29 30  2  0  0  0  0
M  END
>  <minimizedAffinity>
-6.332623

>  <minimizedRMSD>
0.691173494

$$$$
