
 OpenBabel03252507163D

 32 35  0  0  0  0  0  0  0  0999 V2000
   45.1230   36.1300   43.3710 C   0  0  0  0  0  0  0  0  0  0  0  0
   45.7430   34.9170   43.0150 C   0  0  0  0  0  0  0  0  0  0  0  0
   45.7940   33.9350   44.0030 C   0  0  0  0  0  0  0  0  0  0  0  0
   45.2670   34.1750   45.2090 N   0  0  0  0  0  0  0  0  0  0  0  0
   44.6720   35.3590   45.5290 C   0  0  0  0  0  0  0  0  0  0  0  0
   44.6170   36.3050   44.5960 N   0  0  0  0  0  0  0  0  0  0  0  0
   45.0470   36.9440   42.6510 H   0  0  0  0  0  0  0  0  0  0  0  0
   44.3090   35.3620   46.5500 H   0  0  0  0  0  0  0  0  0  0  0  0
   46.4330   32.6550   43.6710 C   0  0  0  0  0  0  0  0  0  0  0  0
   45.6500   31.5670   43.3650 C   0  0  0  0  0  0  0  0  0  0  0  0
   46.3040   30.3880   43.0610 C   0  0  0  0  0  0  0  0  0  0  0  0
   47.6790   30.2280   43.0400 C   0  0  0  0  0  0  0  0  0  0  0  0
   48.3950   31.3790   43.3600 C   0  0  0  0  0  0  0  0  0  0  0  0
   47.7610   32.5270   43.6570 N   0  0  0  0  0  0  0  0  0  0  0  0
   44.5670   31.6040   43.3580 H   0  0  0  0  0  0  0  0  0  0  0  0
   45.7220   29.4980   42.8130 H   0  0  0  0  0  0  0  0  0  0  0  0
   48.1600   29.3080   42.8010 H   0  0  0  0  0  0  0  0  0  0  0  0
   49.4760   31.3450   43.3680 H   0  0  0  0  0  0  0  0  0  0  0  0
   46.2860   34.7160   41.7160 C   0  0  0  0  0  0  0  0  0  0  0  0
   47.4360   35.2080   41.4890 O   0  0  0  0  0  0  0  0  0  0  0  0
   45.5850   33.9830   40.6670 C   0  0  0  0  0  0  0  0  0  0  0  0
   46.2030   33.1570   39.7390 C   0  0  0  0  0  0  0  0  0  0  0  0
   47.2760   33.0730   39.8290 H   0  0  0  0  0  0  0  0  0  0  0  0
   45.4070   32.5150   38.7900 C   0  0  0  0  0  3  0  0  0  0  0  0
   44.0400   32.7000   38.7740 C   0  0  0  0  0  0  0  0  0  0  0  0
   43.3220   32.0580   37.8380 N   0  0  0  0  0  0  0  0  0  0  0  0
   41.9670   32.1950   37.7640 C   0  0  0  0  0  0  0  0  0  0  0  0
   41.4730   31.6410   36.9780 H   0  0  0  0  0  0  0  0  0  0  0  0
   41.3020   33.0180   38.6780 C   0  0  0  0  0  3  0  0  0  0  0  0
   42.0580   33.6830   39.6510 C   0  0  0  0  0  3  0  0  0  0  0  0
   43.4210   33.5170   39.6900 C   0  0  0  0  0  0  0  0  0  0  0  0
   44.1980   34.1570   40.6350 C   0  0  0  0  0  3  0  0  0  0  0  0
  1  6  1  0  0  0  0
  2  1  2  0  0  0  0
  2  3  1  0  0  0  0
  3  4  2  0  0  0  0
  4  5  1  0  0  0  0
  5  8  1  0  0  0  0
  6  5  2  0  0  0  0
  7  1  1  0  0  0  0
  9  3  1  0  0  0  0
 10  9  2  0  0  0  0
 11 10  1  0  0  0  0
 12 11  2  0  0  0  0
 12 13  1  0  0  0  0
 13 18  1  0  0  0  0
 13 14  2  0  0  0  0
 14  9  1  0  0  0  0
 15 10  1  0  0  0  0
 16 11  1  0  0  0  0
 17 12  1  0  0  0  0
 19  2  1  0  0  0  0
 20 19  2  0  0  0  0
 21 19  1  0  0  0  0
 22 23  1  0  0  0  0
 22 21  2  0  0  0  0
 24 22  1  0  0  0  0
 25 24  2  0  0  0  0
 25 31  1  0  0  0  0
 26 25  1  0  0  0  0
 27 26  2  0  0  0  0
 27 29  1  0  0  0  0
 28 27  1  0  0  0  0
 29 30  2  0  0  0  0
 30 31  1  0  0  0  0
 31 32  2  0  0  0  0
 32 21  1  0  0  0  0
M  END
>  <minimizedAffinity>
-5.12997437

>  <minimizedRMSD>
0.758264124

$$$$
