
 OpenBabel03242519103D

 50 54  0  0  1  0  0  0  0  0999 V2000
   49.1530   32.0950   37.0100 C   0  0  0  0  0  0  0  0  0  0  0  0
   48.2790   32.9120   37.7490 C   0  0  0  0  0  0  0  0  0  0  0  0
   47.0530   33.0530   37.1720 C   0  0  0  0  0  0  0  0  0  0  0  0
   46.6280   32.4940   35.9960 C   0  0  0  0  0  0  0  0  0  0  0  0
   47.5150   31.7010   35.3020 C   0  0  0  0  0  0  0  0  0  0  0  0
   48.7720   31.5130   35.8250 C   0  0  0  0  0  0  0  0  0  0  0  0
   46.3280   33.6780   37.6990 H   0  0  0  0  0  0  0  0  0  0  0  0
   45.6320   32.6590   35.6070 H   0  0  0  0  0  0  0  0  0  0  0  0
   47.2480   31.2300   34.3710 H   0  0  0  0  0  0  0  0  0  0  0  0
   50.1930   31.1670   33.8640 C   0  0  0  0  0  0  0  0  0  0  0  0
   49.9250   32.3380   33.4620 O   0  0  0  0  0  0  0  0  0  0  0  0
   49.6780   30.6830   35.0870 N   0  0  0  0  0  0  0  0  0  0  0  0
   49.9460   29.7510   35.4420 H   0  0  0  0  0  0  0  0  0  0  0  0
   51.0560   30.3690   32.9950 C   0  0  0  0  0  0  0  0  0  0  0  0
   50.5070   29.3020   32.3220 C   0  0  0  0  0  0  0  0  0  0  0  0
   49.4710   29.0150   32.3980 H   0  0  0  0  0  0  0  0  0  0  0  0
   51.2810   28.5020   31.4780 C   0  0  0  0  0  3  0  0  0  0  0  0
   52.6260   28.7790   31.3060 C   0  0  0  0  0  0  0  0  0  0  0  0
   53.3390   27.9870   30.4840 N   0  0  0  0  0  0  0  0  0  0  0  0
   54.6680   28.2030   30.2700 C   0  0  0  0  0  0  0  0  0  0  0  0
   55.1980   27.5420   29.6030 H   0  0  0  0  0  0  0  0  0  0  0  0
   55.2560   29.2650   30.9270 C   0  0  0  0  0  3  0  0  0  0  0  0
   54.5240   30.0970   31.7830 C   0  0  0  0  0  3  0  0  0  0  0  0
   53.1690   29.8560   31.9860 C   0  0  0  0  0  0  0  0  0  0  0  0
   52.3970   30.6440   32.8220 C   0  0  0  0  0  3  0  0  0  0  0  0
   48.6250   33.5280   38.9650 N   0  0  0  0  0  0  0  0  0  0  0  0
   49.4120   34.2020   38.7780 H   0  0  0  0  0  0  0  0  0  0  0  0
   47.6260   34.2840   42.2950 N   0  0  0  0  0  0  0  0  0  0  0  0
   47.6770   34.6980   40.9070 C   0  0  0  0  0  0  0  0  0  0  0  0
   48.1280   33.3990   40.2940 C   0  0  2  0  0  0  0  0  0  0  0  0
   49.2890   33.0180   41.1900 C   0  0  0  0  0  0  0  0  0  0  0  0
   48.8220   33.5320   42.5330 C   0  0  0  0  0  0  0  0  0  0  0  0
   46.6830   35.0180   40.5440 H   0  0  0  0  0  0  0  0  0  0  0  0
   48.4480   35.4680   40.7390 H   0  0  0  0  0  0  0  0  0  0  0  0
   47.3280   32.6410   40.4260 H   0  0  0  0  0  0  0  0  0  0  0  0
   50.2260   33.5550   40.8950 H   0  0  0  0  0  0  0  0  0  0  0  0
   49.4410   31.9290   41.1840 H   0  0  0  0  0  0  0  0  0  0  0  0
   49.6000   34.1240   43.0670 H   0  0  0  0  0  0  0  0  0  0  0  0
   48.5540   32.6480   43.1480 H   0  0  0  0  0  0  0  0  0  0  0  0
   44.7580   35.6400   44.2510 C   0  0  0  0  0  0  0  0  0  0  0  0
   45.6670   35.4940   43.2140 C   0  0  0  0  0  0  0  0  0  0  0  0
   46.6610   34.5120   43.2890 C   0  0  0  0  0  0  0  0  0  0  0  0
   46.6730   33.7390   44.4070 N   0  0  0  0  0  0  0  0  0  0  0  0
   45.7950   33.8810   45.4100 C   0  0  0  0  0  0  0  0  0  0  0  0
   44.8320   34.8420   45.3230 N   0  0  0  0  0  0  0  0  0  0  0  0
   44.0380   36.4320   44.0820 H   0  0  0  0  0  0  0  0  0  0  0  0
   45.7150   36.0660   42.3070 H   0  0  0  0  0  0  0  0  0  0  0  0
   45.7890   33.2810   46.2990 H   0  0  0  0  0  0  0  0  0  0  0  0
   51.5470   31.7170   37.9780 N   0  0  0  0  0  0  0  0  0  0  0  0
   50.4920   31.8860   37.5530 C   0  0  0  0  0  0  0  0  0  0  0  0
  1 50  1  0  0  0  0
  1  2  1  0  0  0  0
  2 26  1  0  0  0  0
  3  7  1  0  0  0  0
  3  2  2  0  0  0  0
  4  3  1  0  0  0  0
  5  6  1  0  0  0  0
  5  4  2  0  0  0  0
  6  1  2  0  0  0  0
  8  4  1  0  0  0  0
  9  5  1  0  0  0  0
 10 12  1  0  0  0  0
 11 10  2  0  0  0  0
 12 13  1  0  0  0  0
 12  6  1  0  0  0  0
 14 10  1  0  0  0  0
 15 16  1  0  0  0  0
 15 14  2  0  0  0  0
 17 15  1  0  0  0  0
 18 17  2  0  0  0  0
 18 24  1  0  0  0  0
 19 18  1  0  0  0  0
 20 19  2  0  0  0  0
 20 22  1  0  0  0  0
 21 20  1  0  0  0  0
 22 23  2  0  0  0  0
 23 24  1  0  0  0  0
 24 25  2  0  0  0  0
 25 14  1  0  0  0  0
 26 30  1  0  0  0  0
 27 26  1  0  0  0  0
 28 32  1  0  0  0  0
 28 42  1  0  0  0  0
 29 28  1  0  0  0  0
 30 35  1  1  0  0  0
 30 29  1  0  0  0  0
 30 31  1  0  0  0  0
 31 32  1  0  0  0  0
 32 38  1  0  0  0  0
 32 39  1  0  0  0  0
 33 29  1  0  0  0  0
 34 29  1  0  0  0  0
 36 31  1  0  0  0  0
 37 31  1  0  0  0  0
 40 45  1  0  0  0  0
 41 42  1  0  0  0  0
 41 40  2  0  0  0  0
 42 43  2  0  0  0  0
 43 44  1  0  0  0  0
 44 48  1  0  0  0  0
 45 44  2  0  0  0  0
 46 40  1  0  0  0  0
 47 41  1  0  0  0  0
 50 49  3  0  0  0  0
M  END
>  <minimizedAffinity>
-6.17836046

>  <minimizedRMSD>
1.24318588

$$$$
