
 OpenBabel03252509193D

 46 50  0  0  1  0  0  0  0  0999 V2000
   46.5670   30.8590   47.0340 C   0  0  1  0  0  0  0  0  0  0  0  0
   46.8160   32.1620   47.7120 C   0  0  0  0  0  0  0  0  0  0  0  0
   45.7830   32.5320   48.7380 C   0  0  0  0  0  0  0  0  0  0  0  0
   45.3990   31.3720   49.6250 C   0  0  0  0  0  0  0  0  0  0  0  0
   45.1680   30.1160   48.8480 C   0  0  0  0  0  0  0  0  0  0  0  0
   45.1130   30.4150   47.3300 C   0  0  2  0  0  0  0  0  0  0  0  0
   47.1970   30.0700   47.4680 H   0  0  0  0  0  0  0  0  0  0  0  0
   46.9000   33.0130   47.0100 H   0  0  0  0  0  0  0  0  0  0  0  0
   47.8040   32.1160   48.2440 H   0  0  0  0  0  0  0  0  0  0  0  0
   46.1760   33.3400   49.3570 H   0  0  0  0  0  0  0  0  0  0  0  0
   44.8530   32.8870   48.2440 H   0  0  0  0  0  0  0  0  0  0  0  0
   44.4800   31.6450   50.1680 H   0  0  0  0  0  0  0  0  0  0  0  0
   46.2130   31.2480   50.3800 H   0  0  0  0  0  0  0  0  0  0  0  0
   46.0580   29.4540   48.9670 H   0  0  0  0  0  0  0  0  0  0  0  0
   44.2420   29.5970   49.1760 H   0  0  0  0  0  0  0  0  0  0  0  0
   44.4210   31.2590   47.1300 H   0  0  0  0  0  0  0  0  0  0  0  0
   46.8480   31.6180   43.0160 C   0  0  0  0  0  0  0  0  0  0  0  0
   47.5690   30.4930   43.4080 C   0  0  0  0  0  0  0  0  0  0  0  0
   47.5570   30.1500   44.6900 C   0  0  0  0  0  0  0  0  0  0  0  0
   46.8250   30.9130   45.6290 C   0  0  0  0  0  0  0  0  0  0  0  0
   46.1090   32.2220   44.5910 S   0  0  0  0  0  0  0  0  0  0  0  0
   48.1230   29.9120   42.6830 H   0  0  0  0  0  0  0  0  0  0  0  0
   48.0520   29.3220   45.1680 H   0  0  0  0  0  0  0  0  0  0  0  0
   46.3310   32.0600   39.3590 C   0  0  0  0  0  0  0  0  0  0  0  0
   46.7030   33.3940   39.1970 C   0  0  0  0  0  0  0  0  0  0  0  0
   47.1110   34.0800   40.3470 C   0  0  0  0  0  0  0  0  0  0  0  0
   47.1220   33.4130   41.5380 N   0  0  0  0  0  0  0  0  0  0  0  0
   46.7530   32.1270   41.6290 C   0  0  0  0  0  0  0  0  0  0  0  0
   46.3560   31.4480   40.5310 N   0  0  0  0  0  0  0  0  0  0  0  0
   46.0110   31.5110   38.4820 H   0  0  0  0  0  0  0  0  0  0  0  0
   46.6950   33.9230   38.2540 H   0  0  0  0  0  0  0  0  0  0  0  0
   47.4100   35.1030   40.3000 H   0  0  0  0  0  0  0  0  0  0  0  0
   44.7900   29.1990   46.6130 C   0  0  0  0  0  0  0  0  0  0  0  0
   45.4810   28.1860   46.7170 O   0  0  0  0  0  0  0  0  0  0  0  0
   43.8670   28.5980   45.7050 C   0  0  0  0  0  0  0  0  0  0  0  0
   43.7270   28.7500   44.3440 C   0  0  0  0  0  0  0  0  0  0  0  0
   44.2930   29.6180   43.9580 H   0  0  0  0  0  0  0  0  0  0  0  0
   43.0020   28.1220   43.3690 C   0  0  0  0  0  3  0  0  0  0  0  0
   42.2460   27.1150   43.8950 C   0  0  0  0  0  0  0  0  0  0  0  0
   41.4710   26.3930   43.0610 N   0  0  0  0  0  0  0  0  0  0  0  0
   40.6830   25.3760   43.4580 C   0  0  0  0  0  0  0  0  0  0  0  0
   40.1080   24.8740   42.6910 H   0  0  0  0  0  0  0  0  0  0  0  0
   40.6640   25.0470   44.7970 C   0  0  0  0  0  3  0  0  0  0  0  0
   41.4270   25.7350   45.7190 C   0  0  0  0  0  3  0  0  0  0  0  0
   42.2000   26.7590   45.2180 C   0  0  0  0  0  0  0  0  0  0  0  0
   43.0060   27.5140   46.0460 C   0  0  0  0  0  3  0  0  0  0  0  0
  1  6  1  0  0  0  0
  1  7  1  1  0  0  0
  1  2  1  0  0  0  0
  2  9  1  0  0  0  0
  2  3  1  0  0  0  0
  3 10  1  0  0  0  0
  3  4  1  0  0  0  0
  4 12  1  0  0  0  0
  4 13  1  0  0  0  0
  5 14  1  0  0  0  0
  5 15  1  0  0  0  0
  5  4  1  0  0  0  0
  6 16  1  6  0  0  0
  6  5  1  0  0  0  0
  8  2  1  0  0  0  0
 11  3  1  0  0  0  0
 17 18  2  0  0  0  0
 17 21  1  0  0  0  0
 18 19  1  0  0  0  0
 19 23  1  0  0  0  0
 19 20  2  0  0  0  0
 20  1  1  0  0  0  0
 21 20  1  0  0  0  0
 22 18  1  0  0  0  0
 24 29  1  0  0  0  0
 25 24  2  0  0  0  0
 25 26  1  0  0  0  0
 26 27  2  0  0  0  0
 27 28  1  0  0  0  0
 28 17  1  0  0  0  0
 29 28  2  0  0  0  0
 30 24  1  0  0  0  0
 31 25  1  0  0  0  0
 32 26  1  0  0  0  0
 33 34  2  0  0  0  0
 33  6  1  0  0  0  0
 35 46  1  0  0  0  0
 35 33  1  0  0  0  0
 36 35  2  0  0  0  0
 37 36  1  0  0  0  0
 38 39  2  0  0  0  0
 38 36  1  0  0  0  0
 39 45  1  0  0  0  0
 40 41  2  0  0  0  0
 40 39  1  0  0  0  0
 41 43  1  0  0  0  0
 42 41  1  0  0  0  0
 43 44  2  0  0  0  0
 45 44  1  0  0  0  0
 45 46  2  0  0  0  0
M  END
>  <minimizedAffinity>
-5.19999933

>  <minimizedRMSD>
8.2666235

$$$$
