
 OpenBabel03242515413D

 39 43  0  0  0  0  0  0  0  0999 V2000
   33.8530   28.9540   36.2910 C   0  0  0  0  0  0  0  0  0  0  0  0
   34.4910   28.7640   37.4950 C   0  0  0  0  0  0  0  0  0  0  0  0
   35.8700   28.9590   37.5210 C   0  0  0  0  0  0  0  0  0  0  0  0
   36.5030   29.3180   36.3910 N   0  0  0  0  0  0  0  0  0  0  0  0
   35.8400   29.4960   35.2280 C   0  0  0  0  0  0  0  0  0  0  0  0
   34.5330   29.3100   35.2050 N   0  0  0  0  0  0  0  0  0  0  0  0
   33.9730   28.4800   38.3790 H   0  0  0  0  0  0  0  0  0  0  0  0
   36.6700   28.7920   38.7290 C   0  0  0  0  0  0  0  0  0  0  0  0
   38.0180   29.0620   38.6530 C   0  0  0  0  0  0  0  0  0  0  0  0
   38.4970   29.3940   37.7240 H   0  0  0  0  0  0  0  0  0  0  0  0
   38.8260   28.9210   39.7660 C   0  0  0  0  0  3  0  0  0  0  0  0
   38.3350   28.5080   41.0000 C   0  0  0  0  0  0  0  0  0  0  0  0
   39.1620   28.3900   42.0420 N   0  0  0  0  0  0  0  0  0  0  0  0
   38.7030   27.9910   43.2460 C   0  0  0  0  0  0  0  0  0  0  0  0
   39.4560   27.9310   44.0090 H   0  0  0  0  0  0  0  0  0  0  0  0
   37.3550   27.7110   43.3580 C   0  0  0  0  0  3  0  0  0  0  0  0
   36.4980   27.8350   42.2760 C   0  0  0  0  0  3  0  0  0  0  0  0
   36.9870   28.2460   41.0480 C   0  0  0  0  0  0  0  0  0  0  0  0
   36.1750   28.3820   39.9470 C   0  0  0  0  0  3  0  0  0  0  0  0
   32.0620   28.6910   36.2960 S   0  0  0  0  0  0  0  0  0  0  0  0
   30.9260   31.1030   35.9690 C   0  0  0  0  0  0  0  0  0  0  0  0
   31.2480   29.9270   35.2970 C   0  0  0  0  0  0  0  0  0  0  0  0
   30.9450   29.7740   33.9740 C   0  0  0  0  0  0  0  0  0  0  0  0
   30.3130   30.7660   33.2520 C   0  0  0  0  0  0  0  0  0  0  0  0
   29.9880   31.9500   33.9230 C   0  0  0  0  0  0  0  0  0  0  0  0
   30.2860   32.1320   35.2730 C   0  0  0  0  0  0  0  0  0  0  0  0
   29.3570   32.8000   32.9850 O   0  0  0  0  0  0  0  0  0  0  0  0
   28.9920   31.9800   31.9130 C   0  0  0  0  0  0  0  0  0  0  0  0
   29.8930   30.8820   31.9290 O   0  0  0  0  0  0  0  0  0  0  0  0
   31.1230   31.3160   37.0060 H   0  0  0  0  0  0  0  0  0  0  0  0
   31.2140   28.8430   33.4970 H   0  0  0  0  0  0  0  0  0  0  0  0
   30.0180   33.0600   35.7570 H   0  0  0  0  0  0  0  0  0  0  0  0
   27.9660   31.5370   32.0420 H   0  0  0  0  0  0  0  0  0  0  0  0
   28.9750   32.5140   30.9530 H   0  0  0  0  0  0  0  0  0  0  0  0
   36.4360   29.8610   34.0420 O   0  0  0  0  0  0  0  0  0  0  0  0
   36.4160   31.2080   33.6480 C   0  0  0  0  0  0  0  0  0  0  0  0
   37.1820   31.4410   32.5410 F   0  0  0  0  0  0  0  0  0  0  0  0
   35.0750   31.5300   33.4460 F   0  0  0  0  0  0  0  0  0  0  0  0
   36.9410   31.9640   34.6870 F   0  0  0  0  0  0  0  0  0  0  0  0
  1 20  1  0  0  0  0
  1  2  1  0  0  0  0
  2  3  2  0  0  0  0
  2  7  1  0  0  0  0
  3  8  1  0  0  0  0
  4  3  1  0  0  0  0
  5  4  2  0  0  0  0
  6  5  1  0  0  0  0
  6  1  2  0  0  0  0
  8 19  1  0  0  0  0
  9  8  2  0  0  0  0
  9 11  1  0  0  0  0
 10  9  1  0  0  0  0
 11 12  2  0  0  0  0
 12 18  1  0  0  0  0
 12 13  1  0  0  0  0
 13 14  2  0  0  0  0
 14 16  1  0  0  0  0
 14 15  1  0  0  0  0
 17 16  2  0  0  0  0
 18 17  1  0  0  0  0
 19 18  2  0  0  0  0
 21 30  1  0  0  0  0
 22 21  1  0  0  0  0
 22 20  1  0  0  0  0
 23 22  2  0  0  0  0
 24 25  2  0  0  0  0
 24 23  1  0  0  0  0
 25 26  1  0  0  0  0
 26 32  1  0  0  0  0
 26 21  2  0  0  0  0
 27 25  1  0  0  0  0
 28 29  1  0  0  0  0
 28 33  1  0  0  0  0
 28 27  1  0  0  0  0
 29 24  1  0  0  0  0
 31 23  1  0  0  0  0
 34 28  1  0  0  0  0
 35  5  1  0  0  0  0
 36 35  1  0  0  0  0
 36 39  1  0  0  0  0
 37 36  1  0  0  0  0
 38 36  1  0  0  0  0
M  END
>  <minimizedAffinity>
-6.8485899

$$$$

 OpenBabel03242515413D

 39 43  0  0  0  0  0  0  0  0999 V2000
   36.7720   28.9490   41.9550 C   0  0  0  0  0  0  0  0  0  0  0  0
   36.0910   28.2750   40.9670 C   0  0  0  0  0  0  0  0  0  0  0  0
   35.7690   28.9910   39.8160 C   0  0  0  0  0  0  0  0  0  0  0  0
   36.1310   30.2820   39.7240 N   0  0  0  0  0  0  0  0  0  0  0  0
   36.8000   30.9080   40.7160 C   0  0  0  0  0  0  0  0  0  0  0  0
   37.1040   30.2280   41.8070 N   0  0  0  0  0  0  0  0  0  0  0  0
   35.8130   27.2530   41.0580 H   0  0  0  0  0  0  0  0  0  0  0  0
   35.0500   28.4010   38.6930 C   0  0  0  0  0  0  0  0  0  0  0  0
   35.5000   27.1950   38.2010 C   0  0  0  0  0  0  0  0  0  0  0  0
   36.3680   26.6780   38.6230 H   0  0  0  0  0  0  0  0  0  0  0  0
   34.8570   26.5890   37.1380 C   0  0  0  0  0  3  0  0  0  0  0  0
   33.7450   27.1470   36.5170 C   0  0  0  0  0  0  0  0  0  0  0  0
   33.1630   26.5160   35.4940 N   0  0  0  0  0  0  0  0  0  0  0  0
   32.0830   27.0430   34.8800 C   0  0  0  0  0  0  0  0  0  0  0  0
   31.7010   26.4500   34.0710 H   0  0  0  0  0  0  0  0  0  0  0  0
   31.6060   28.2510   35.3490 C   0  0  0  0  0  3  0  0  0  0  0  0
   32.2090   28.9040   36.4110 C   0  0  0  0  0  3  0  0  0  0  0  0
   33.3170   28.3490   37.0290 C   0  0  0  0  0  0  0  0  0  0  0  0
   33.9490   28.9610   38.0850 C   0  0  0  0  0  3  0  0  0  0  0  0
   37.1740   27.9870   43.4350 S   0  0  0  0  0  0  0  0  0  0  0  0
   38.5060   25.8210   42.5690 C   0  0  0  0  0  0  0  0  0  0  0  0
   38.6770   27.0580   43.1860 C   0  0  0  0  0  0  0  0  0  0  0  0
   39.9200   27.4880   43.5540 C   0  0  0  0  0  0  0  0  0  0  0  0
   41.0500   26.7230   43.3360 C   0  0  0  0  0  0  0  0  0  0  0  0
   40.8810   25.4800   42.7170 C   0  0  0  0  0  0  0  0  0  0  0  0
   39.6240   25.0180   42.3310 C   0  0  0  0  0  0  0  0  0  0  0  0
   42.1650   24.8950   42.6050 O   0  0  0  0  0  0  0  0  0  0  0  0
   42.9890   25.6140   43.4760 C   0  0  0  0  0  0  0  0  0  0  0  0
   42.4050   26.9030   43.6000 O   0  0  0  0  0  0  0  0  0  0  0  0
   37.5700   25.3980   42.2440 H   0  0  0  0  0  0  0  0  0  0  0  0
   40.0030   28.4540   44.0300 H   0  0  0  0  0  0  0  0  0  0  0  0
   39.5340   24.0520   41.8560 H   0  0  0  0  0  0  0  0  0  0  0  0
   42.9980   25.1790   44.5130 H   0  0  0  0  0  0  0  0  0  0  0  0
   44.0370   25.6410   43.1470 H   0  0  0  0  0  0  0  0  0  0  0  0
   37.1950   32.2260   40.6760 O   0  0  0  0  0  0  0  0  0  0  0  0
   37.9700   32.6800   39.5970 C   0  0  0  0  0  0  0  0  0  0  0  0
   38.8840   31.7530   39.1850 F   0  0  0  0  0  0  0  0  0  0  0  0
   37.0670   33.0230   38.5920 F   0  0  0  0  0  0  0  0  0  0  0  0
   38.6700   33.8010   40.0180 F   0  0  0  0  0  0  0  0  0  0  0  0
  1 20  1  0  0  0  0
  2  7  1  0  0  0  0
  2  1  2  0  0  0  0
  3  2  1  0  0  0  0
  4  3  2  0  0  0  0
  4  5  1  0  0  0  0
  5  6  2  0  0  0  0
  6  1  1  0  0  0  0
  8  3  1  0  0  0  0
  9 10  1  0  0  0  0
  9  8  1  0  0  0  0
 11  9  2  0  0  0  0
 12 18  1  0  0  0  0
 12 11  1  0  0  0  0
 13 12  2  0  0  0  0
 14 16  2  0  0  0  0
 14 13  1  0  0  0  0
 15 14  1  0  0  0  0
 16 17  1  0  0  0  0
 17 18  2  0  0  0  0
 18 19  1  0  0  0  0
 19  8  2  0  0  0  0
 21 22  1  0  0  0  0
 22 20  1  0  0  0  0
 22 23  2  0  0  0  0
 23 31  1  0  0  0  0
 24 23  1  0  0  0  0
 24 29  1  0  0  0  0
 25 24  2  0  0  0  0
 26 21  2  0  0  0  0
 26 25  1  0  0  0  0
 27 25  1  0  0  0  0
 27 28  1  0  0  0  0
 28 29  1  0  0  0  0
 28 33  1  0  0  0  0
 30 21  1  0  0  0  0
 32 26  1  0  0  0  0
 34 28  1  0  0  0  0
 35  5  1  0  0  0  0
 36 39  1  0  0  0  0
 36 35  1  0  0  0  0
 37 36  1  0  0  0  0
 38 36  1  0  0  0  0
M  END
>  <minimizedAffinity>
-6.32193327

$$$$

 OpenBabel03242515413D

 39 43  0  0  0  0  0  0  0  0999 V2000
   38.1650   29.1760   41.6640 C   0  0  0  0  0  0  0  0  0  0  0  0
   37.5330   29.4850   40.4820 C   0  0  0  0  0  0  0  0  0  0  0  0
   36.6630   28.5310   39.9570 C   0  0  0  0  0  0  0  0  0  0  0  0
   36.4860   27.3740   40.6170 N   0  0  0  0  0  0  0  0  0  0  0  0
   37.1260   27.1070   41.7770 C   0  0  0  0  0  0  0  0  0  0  0  0
   37.9500   28.0130   42.2710 N   0  0  0  0  0  0  0  0  0  0  0  0
   37.6850   30.4070   39.9740 H   0  0  0  0  0  0  0  0  0  0  0  0
   35.9280   28.7280   38.7140 C   0  0  0  0  0  0  0  0  0  0  0  0
   36.6480   28.7880   37.5410 C   0  0  0  0  0  0  0  0  0  0  0  0
   37.7400   28.6920   37.5190 H   0  0  0  0  0  0  0  0  0  0  0  0
   36.0040   28.9730   36.3320 C   0  0  0  0  0  3  0  0  0  0  0  0
   34.6240   29.1080   36.2310 C   0  0  0  0  0  0  0  0  0  0  0  0
   34.0550   29.2840   35.0350 N   0  0  0  0  0  0  0  0  0  0  0  0
   32.7170   29.4160   34.9190 C   0  0  0  0  0  0  0  0  0  0  0  0
   32.3730   29.5540   33.9110 H   0  0  0  0  0  0  0  0  0  0  0  0
   31.9650   29.3620   36.0760 C   0  0  0  0  0  3  0  0  0  0  0  0
   32.5560   29.1780   37.3150 C   0  0  0  0  0  3  0  0  0  0  0  0
   33.9300   29.0440   37.4160 C   0  0  0  0  0  0  0  0  0  0  0  0
   34.5610   28.8610   38.6230 C   0  0  0  0  0  3  0  0  0  0  0  0
   39.2860   30.4400   42.3140 S   0  0  0  0  0  0  0  0  0  0  0  0
   39.3790   32.6950   40.8580 C   0  0  0  0  0  0  0  0  0  0  0  0
   39.9470   31.4300   40.9850 C   0  0  0  0  0  0  0  0  0  0  0  0
   40.9340   31.0210   40.1340 C   0  0  0  0  0  0  0  0  0  0  0  0
   41.4070   31.8330   39.1210 C   0  0  0  0  0  0  0  0  0  0  0  0
   40.8380   33.1040   38.9910 C   0  0  0  0  0  0  0  0  0  0  0  0
   39.8300   33.5470   39.8460 C   0  0  0  0  0  0  0  0  0  0  0  0
   41.4790   33.7360   37.8990 O   0  0  0  0  0  0  0  0  0  0  0  0
   42.1230   32.7160   37.1930 C   0  0  0  0  0  0  0  0  0  0  0  0
   42.3770   31.6820   38.1330 O   0  0  0  0  0  0  0  0  0  0  0  0
   38.5990   33.1060   41.4770 H   0  0  0  0  0  0  0  0  0  0  0  0
   41.3440   30.0310   40.2710 H   0  0  0  0  0  0  0  0  0  0  0  0
   39.4140   34.5350   39.7130 H   0  0  0  0  0  0  0  0  0  0  0  0
   41.4640   32.2580   36.4040 H   0  0  0  0  0  0  0  0  0  0  0  0
   43.0260   33.0610   36.6720 H   0  0  0  0  0  0  0  0  0  0  0  0
   36.9830   25.9400   42.4930 O   0  0  0  0  0  0  0  0  0  0  0  0
   37.4080   24.7290   41.9260 C   0  0  0  0  0  0  0  0  0  0  0  0
   38.1180   23.9610   42.8060 F   0  0  0  0  0  0  0  0  0  0  0  0
   36.2550   24.0910   41.4720 F   0  0  0  0  0  0  0  0  0  0  0  0
   38.2450   25.0270   40.8610 F   0  0  0  0  0  0  0  0  0  0  0  0
  1  6  1  0  0  0  0
  1 20  1  0  0  0  0
  2  1  2  0  0  0  0
  3  2  1  0  0  0  0
  3  4  2  0  0  0  0
  4  5  1  0  0  0  0
  5  6  2  0  0  0  0
  5 35  1  0  0  0  0
  7  2  1  0  0  0  0
  8  3  1  0  0  0  0
  9  8  2  0  0  0  0
 10  9  1  0  0  0  0
 11  9  1  0  0  0  0
 12 11  2  0  0  0  0
 12 18  1  0  0  0  0
 13 12  1  0  0  0  0
 14 13  2  0  0  0  0
 14 16  1  0  0  0  0
 15 14  1  0  0  0  0
 16 17  2  0  0  0  0
 17 18  1  0  0  0  0
 18 19  2  0  0  0  0
 19  8  1  0  0  0  0
 21 22  1  0  0  0  0
 21 30  1  0  0  0  0
 22 20  1  0  0  0  0
 23 31  1  0  0  0  0
 23 22  2  0  0  0  0
 24 23  1  0  0  0  0
 25 24  2  0  0  0  0
 25 26  1  0  0  0  0
 26 21  2  0  0  0  0
 27 25  1  0  0  0  0
 28 27  1  0  0  0  0
 28 29  1  0  0  0  0
 29 24  1  0  0  0  0
 32 26  1  0  0  0  0
 33 28  1  0  0  0  0
 34 28  1  0  0  0  0
 36 35  1  0  0  0  0
 36 37  1  0  0  0  0
 38 36  1  0  0  0  0
 39 36  1  0  0  0  0
M  END
>  <minimizedAffinity>
-6.3126173

$$$$

 OpenBabel03242515413D

 39 43  0  0  0  0  0  0  0  0999 V2000
   38.3050   29.6130   41.8290 C   0  0  0  0  0  0  0  0  0  0  0  0
   37.5550   29.2130   40.7470 C   0  0  0  0  0  0  0  0  0  0  0  0
   37.4220   30.1180   39.6960 C   0  0  0  0  0  0  0  0  0  0  0  0
   38.0210   31.3180   39.7850 N   0  0  0  0  0  0  0  0  0  0  0  0
   38.7500   31.6740   40.8650 C   0  0  0  0  0  0  0  0  0  0  0  0
   38.8740   30.8150   41.8600 N   0  0  0  0  0  0  0  0  0  0  0  0
   37.0880   28.2590   40.6940 H   0  0  0  0  0  0  0  0  0  0  0  0
   36.6570   29.8240   38.4910 C   0  0  0  0  0  0  0  0  0  0  0  0
   37.2590   30.0500   37.2720 C   0  0  0  0  0  0  0  0  0  0  0  0
   38.2800   30.4390   37.1870 H   0  0  0  0  0  0  0  0  0  0  0  0
   36.5810   29.7890   36.0960 C   0  0  0  0  0  3  0  0  0  0  0  0
   35.2820   29.2930   36.0740 C   0  0  0  0  0  0  0  0  0  0  0  0
   34.6760   29.0580   34.9070 N   0  0  0  0  0  0  0  0  0  0  0  0
   33.4160   28.5770   34.8670 C   0  0  0  0  0  0  0  0  0  0  0  0
   33.0310   28.4280   33.8760 H   0  0  0  0  0  0  0  0  0  0  0  0
   32.7820   28.3390   36.0710 C   0  0  0  0  0  3  0  0  0  0  0  0
   33.4120   28.5820   37.2810 C   0  0  0  0  0  3  0  0  0  0  0  0
   34.7060   29.0750   37.3030 C   0  0  0  0  0  0  0  0  0  0  0  0
   35.3710   29.3330   38.4780 C   0  0  0  0  0  3  0  0  0  0  0  0
   38.4550   28.4110   43.1740 S   0  0  0  0  0  0  0  0  0  0  0  0
   39.6870   26.1110   42.5360 C   0  0  0  0  0  0  0  0  0  0  0  0
   38.4490   26.7480   42.5270 C   0  0  0  0  0  0  0  0  0  0  0  0
   37.3400   26.1090   42.0510 C   0  0  0  0  0  0  0  0  0  0  0  0
   37.3960   24.8180   41.5610 C   0  0  0  0  0  0  0  0  0  0  0  0
   38.6380   24.1760   41.5690 C   0  0  0  0  0  0  0  0  0  0  0  0
   39.7860   24.8060   42.0500 C   0  0  0  0  0  0  0  0  0  0  0  0
   38.4410   22.8840   41.0270 O   0  0  0  0  0  0  0  0  0  0  0  0
   37.2030   22.9270   40.3790 C   0  0  0  0  0  0  0  0  0  0  0  0
   36.4520   23.9440   41.0270 O   0  0  0  0  0  0  0  0  0  0  0  0
   40.6140   26.5310   42.8890 H   0  0  0  0  0  0  0  0  0  0  0  0
   36.4010   26.6430   42.0640 H   0  0  0  0  0  0  0  0  0  0  0  0
   40.7280   24.2770   42.0380 H   0  0  0  0  0  0  0  0  0  0  0  0
   37.2920   23.2490   39.3050 H   0  0  0  0  0  0  0  0  0  0  0  0
   36.6940   21.9540   40.3650 H   0  0  0  0  0  0  0  0  0  0  0  0
   39.3830   32.8880   41.0090 O   0  0  0  0  0  0  0  0  0  0  0  0
   40.4950   33.1840   40.2060 C   0  0  0  0  0  0  0  0  0  0  0  0
   40.1400   33.7120   38.9960 F   0  0  0  0  0  0  0  0  0  0  0  0
   41.2900   34.0510   40.9530 F   0  0  0  0  0  0  0  0  0  0  0  0
   41.1720   31.9980   39.9620 F   0  0  0  0  0  0  0  0  0  0  0  0
  1  6  1  0  0  0  0
  1 20  1  0  0  0  0
  2  1  2  0  0  0  0
  3  4  2  0  0  0  0
  3  2  1  0  0  0  0
  4  5  1  0  0  0  0
  5 35  1  0  0  0  0
  5  6  2  0  0  0  0
  7  2  1  0  0  0  0
  8  3  1  0  0  0  0
  9  8  2  0  0  0  0
 10  9  1  0  0  0  0
 11  9  1  0  0  0  0
 12 11  2  0  0  0  0
 12 18  1  0  0  0  0
 13 12  1  0  0  0  0
 14 13  2  0  0  0  0
 14 16  1  0  0  0  0
 15 14  1  0  0  0  0
 16 17  2  0  0  0  0
 17 18  1  0  0  0  0
 18 19  2  0  0  0  0
 19  8  1  0  0  0  0
 21 30  1  0  0  0  0
 22 21  1  0  0  0  0
 22 20  1  0  0  0  0
 23 31  1  0  0  0  0
 23 22  2  0  0  0  0
 24 25  2  0  0  0  0
 24 23  1  0  0  0  0
 25 26  1  0  0  0  0
 26 21  2  0  0  0  0
 27 25  1  0  0  0  0
 28 27  1  0  0  0  0
 28 29  1  0  0  0  0
 29 24  1  0  0  0  0
 32 26  1  0  0  0  0
 33 28  1  0  0  0  0
 34 28  1  0  0  0  0
 36 38  1  0  0  0  0
 36 35  1  0  0  0  0
 37 36  1  0  0  0  0
 39 36  1  0  0  0  0
M  END
>  <minimizedAffinity>
-6.28029633

$$$$

 OpenBabel03242515413D

 39 43  0  0  0  0  0  0  0  0999 V2000
   35.4430   28.7630   37.0730 C   0  0  0  0  0  0  0  0  0  0  0  0
   35.8800   27.7490   37.8940 C   0  0  0  0  0  0  0  0  0  0  0  0
   36.8660   28.0670   38.8260 C   0  0  0  0  0  0  0  0  0  0  0  0
   37.3360   29.3250   38.8800 N   0  0  0  0  0  0  0  0  0  0  0  0
   36.8790   30.2940   38.0570 C   0  0  0  0  0  0  0  0  0  0  0  0
   35.9450   29.9900   37.1740 N   0  0  0  0  0  0  0  0  0  0  0  0
   35.4970   26.7590   37.8360 H   0  0  0  0  0  0  0  0  0  0  0  0
   37.4190   27.0900   39.7560 C   0  0  0  0  0  0  0  0  0  0  0  0
   37.0620   25.7690   39.5930 C   0  0  0  0  0  0  0  0  0  0  0  0
   36.3850   25.4400   38.7970 H   0  0  0  0  0  0  0  0  0  0  0  0
   37.5560   24.7990   40.4450 C   0  0  0  0  0  3  0  0  0  0  0  0
   38.4220   25.0930   41.4930 C   0  0  0  0  0  0  0  0  0  0  0  0
   38.8690   24.1140   42.2850 N   0  0  0  0  0  0  0  0  0  0  0  0
   39.7100   24.3810   43.3050 C   0  0  0  0  0  0  0  0  0  0  0  0
   40.0020   23.5180   43.8750 H   0  0  0  0  0  0  0  0  0  0  0  0
   40.0890   25.6950   43.4970 C   0  0  0  0  0  3  0  0  0  0  0  0
   39.6260   26.7090   42.6750 C   0  0  0  0  0  3  0  0  0  0  0  0
   38.7630   26.4170   41.6320 C   0  0  0  0  0  0  0  0  0  0  0  0
   38.2770   27.3890   40.7910 C   0  0  0  0  0  3  0  0  0  0  0  0
   34.1620   28.3130   35.8760 S   0  0  0  0  0  0  0  0  0  0  0  0
   32.2860   30.0110   34.9730 C   0  0  0  0  0  0  0  0  0  0  0  0
   32.7090   29.3230   36.1080 C   0  0  0  0  0  0  0  0  0  0  0  0
   32.0310   29.4420   37.2880 C   0  0  0  0  0  0  0  0  0  0  0  0
   30.9110   30.2410   37.4070 C   0  0  0  0  0  0  0  0  0  0  0  0
   30.4840   30.9330   36.2700 C   0  0  0  0  0  0  0  0  0  0  0  0
   31.1570   30.8290   35.0530 C   0  0  0  0  0  0  0  0  0  0  0  0
   29.3340   31.6700   36.6390 O   0  0  0  0  0  0  0  0  0  0  0  0
   29.3320   31.6970   38.0370 C   0  0  0  0  0  0  0  0  0  0  0  0
   30.0460   30.5430   38.4560 O   0  0  0  0  0  0  0  0  0  0  0  0
   32.7530   29.9810   34.0020 H   0  0  0  0  0  0  0  0  0  0  0  0
   32.3970   28.8900   38.1410 H   0  0  0  0  0  0  0  0  0  0  0  0
   30.7970   31.3800   34.1960 H   0  0  0  0  0  0  0  0  0  0  0  0
   29.8990   32.5760   38.4500 H   0  0  0  0  0  0  0  0  0  0  0  0
   28.3210   31.7600   38.4610 H   0  0  0  0  0  0  0  0  0  0  0  0
   37.3240   31.5960   38.0690 O   0  0  0  0  0  0  0  0  0  0  0  0
   37.2460   32.3400   39.2570 C   0  0  0  0  0  0  0  0  0  0  0  0
   36.9080   33.6450   39.0350 F   0  0  0  0  0  0  0  0  0  0  0  0
   36.3220   31.6790   40.0640 F   0  0  0  0  0  0  0  0  0  0  0  0
   38.5000   32.3270   39.8500 F   0  0  0  0  0  0  0  0  0  0  0  0
  1  6  2  0  0  0  0
  1  2  1  0  0  0  0
  2  3  2  0  0  0  0
  3  4  1  0  0  0  0
  3  8  1  0  0  0  0
  5 35  1  0  0  0  0
  5  4  2  0  0  0  0
  6  5  1  0  0  0  0
  7  2  1  0  0  0  0
  8 19  1  0  0  0  0
  9  8  2  0  0  0  0
  9 11  1  0  0  0  0
 10  9  1  0  0  0  0
 11 12  2  0  0  0  0
 12 18  1  0  0  0  0
 12 13  1  0  0  0  0
 13 14  2  0  0  0  0
 14 16  1  0  0  0  0
 14 15  1  0  0  0  0
 17 16  2  0  0  0  0
 18 17  1  0  0  0  0
 19 18  2  0  0  0  0
 20 22  1  0  0  0  0
 20  1  1  0  0  0  0
 21 26  2  0  0  0  0
 21 22  1  0  0  0  0
 22 23  2  0  0  0  0
 23 24  1  0  0  0  0
 23 31  1  0  0  0  0
 24 29  1  0  0  0  0
 25 27  1  0  0  0  0
 25 24  2  0  0  0  0
 26 25  1  0  0  0  0
 27 28  1  0  0  0  0
 28 33  1  0  0  0  0
 28 29  1  0  0  0  0
 28 34  1  0  0  0  0
 30 21  1  0  0  0  0
 32 26  1  0  0  0  0
 35 36  1  0  0  0  0
 36 39  1  0  0  0  0
 36 38  1  0  0  0  0
 37 36  1  0  0  0  0
M  END
>  <minimizedAffinity>
-6.26479006

$$$$

 OpenBabel03242515413D

 39 43  0  0  0  0  0  0  0  0999 V2000
   36.8960   27.9430   40.9880 C   0  0  0  0  0  0  0  0  0  0  0  0
   36.0780   28.5340   40.0530 C   0  0  0  0  0  0  0  0  0  0  0  0
   35.7100   27.7630   38.9520 C   0  0  0  0  0  0  0  0  0  0  0  0
   36.1630   26.5010   38.8550 N   0  0  0  0  0  0  0  0  0  0  0  0
   36.9660   25.9570   39.7950 C   0  0  0  0  0  0  0  0  0  0  0  0
   37.3130   26.6890   40.8370 N   0  0  0  0  0  0  0  0  0  0  0  0
   35.7290   29.5340   40.1470 H   0  0  0  0  0  0  0  0  0  0  0  0
   34.8470   28.2630   37.8890 C   0  0  0  0  0  0  0  0  0  0  0  0
   35.3290   28.2310   36.5990 C   0  0  0  0  0  0  0  0  0  0  0  0
   36.3260   27.8470   36.3550 H   0  0  0  0  0  0  0  0  0  0  0  0
   34.5550   28.6930   35.5500 C   0  0  0  0  0  3  0  0  0  0  0  0
   33.2750   29.2040   35.7320 C   0  0  0  0  0  0  0  0  0  0  0  0
   32.5710   29.6350   34.6810 N   0  0  0  0  0  0  0  0  0  0  0  0
   31.3280   30.1340   34.8400 C   0  0  0  0  0  0  0  0  0  0  0  0
   30.8590   30.4500   33.9270 H   0  0  0  0  0  0  0  0  0  0  0  0
   30.8140   30.1800   36.1200 C   0  0  0  0  0  3  0  0  0  0  0  0
   31.5440   29.7320   37.2100 C   0  0  0  0  0  3  0  0  0  0  0  0
   32.8190   29.2230   37.0290 C   0  0  0  0  0  0  0  0  0  0  0  0
   33.5800   28.7680   38.0780 C   0  0  0  0  0  3  0  0  0  0  0  0
   37.3530   28.9750   42.4030 S   0  0  0  0  0  0  0  0  0  0  0  0
   39.7430   30.1960   42.4930 C   0  0  0  0  0  0  0  0  0  0  0  0
   38.4850   30.2590   41.9000 C   0  0  0  0  0  0  0  0  0  0  0  0
   38.1840   31.2460   41.0050 C   0  0  0  0  0  0  0  0  0  0  0  0
   39.1040   32.2150   40.6530 C   0  0  0  0  0  0  0  0  0  0  0  0
   40.3680   32.1550   41.2470 C   0  0  0  0  0  0  0  0  0  0  0  0
   40.7010   31.1580   42.1630 C   0  0  0  0  0  0  0  0  0  0  0  0
   41.1200   33.2390   40.7350 O   0  0  0  0  0  0  0  0  0  0  0  0
   40.1900   34.1090   40.1580 C   0  0  0  0  0  0  0  0  0  0  0  0
   39.0740   33.3100   39.7930 O   0  0  0  0  0  0  0  0  0  0  0  0
   40.0720   29.4590   43.2070 H   0  0  0  0  0  0  0  0  0  0  0  0
   37.1950   31.2540   40.5710 H   0  0  0  0  0  0  0  0  0  0  0  0
   41.6890   31.1450   42.6020 H   0  0  0  0  0  0  0  0  0  0  0  0
   39.7990   34.8660   40.8930 H   0  0  0  0  0  0  0  0  0  0  0  0
   40.6050   34.6840   39.3200 H   0  0  0  0  0  0  0  0  0  0  0  0
   37.4590   24.6720   39.7460 O   0  0  0  0  0  0  0  0  0  0  0  0
   36.8660   23.6760   40.5370 C   0  0  0  0  0  0  0  0  0  0  0  0
   35.5350   23.9010   40.7480 F   0  0  0  0  0  0  0  0  0  0  0  0
   37.1060   22.4700   39.8820 F   0  0  0  0  0  0  0  0  0  0  0  0
   37.4940   23.6860   41.7750 F   0  0  0  0  0  0  0  0  0  0  0  0
  1 20  1  0  0  0  0
  2  7  1  0  0  0  0
  2  1  2  0  0  0  0
  3  2  1  0  0  0  0
  4  3  2  0  0  0  0
  4  5  1  0  0  0  0
  5  6  2  0  0  0  0
  6  1  1  0  0  0  0
  8 19  1  0  0  0  0
  8  3  1  0  0  0  0
  9  8  2  0  0  0  0
 10  9  1  0  0  0  0
 11 12  2  0  0  0  0
 11  9  1  0  0  0  0
 12 18  1  0  0  0  0
 13 14  2  0  0  0  0
 13 12  1  0  0  0  0
 14 16  1  0  0  0  0
 15 14  1  0  0  0  0
 16 17  2  0  0  0  0
 18 17  1  0  0  0  0
 18 19  2  0  0  0  0
 21 30  1  0  0  0  0
 22 20  1  0  0  0  0
 22 21  2  0  0  0  0
 23 22  1  0  0  0  0
 24 23  2  0  0  0  0
 24 25  1  0  0  0  0
 25 26  2  0  0  0  0
 26 21  1  0  0  0  0
 26 32  1  0  0  0  0
 27 25  1  0  0  0  0
 28 27  1  0  0  0  0
 28 33  1  0  0  0  0
 29 28  1  0  0  0  0
 29 24  1  0  0  0  0
 31 23  1  0  0  0  0
 34 28  1  0  0  0  0
 35  5  1  0  0  0  0
 35 36  1  0  0  0  0
 36 37  1  0  0  0  0
 36 39  1  0  0  0  0
 38 36  1  0  0  0  0
M  END
>  <minimizedAffinity>
-6.22007465

$$$$

 OpenBabel03242515413D

 39 43  0  0  0  0  0  0  0  0999 V2000
   36.3570   28.6260   38.4880 C   0  0  0  0  0  0  0  0  0  0  0  0
   37.3730   29.5340   38.3050 C   0  0  0  0  0  0  0  0  0  0  0  0
   37.9510   30.0810   39.4490 C   0  0  0  0  0  0  0  0  0  0  0  0
   37.4970   29.7030   40.6560 N   0  0  0  0  0  0  0  0  0  0  0  0
   36.4960   28.8070   40.7940 C   0  0  0  0  0  0  0  0  0  0  0  0
   35.9500   28.2910   39.7080 N   0  0  0  0  0  0  0  0  0  0  0  0
   37.7200   29.8210   37.3410 H   0  0  0  0  0  0  0  0  0  0  0  0
   39.0360   31.0530   39.4000 C   0  0  0  0  0  0  0  0  0  0  0  0
   39.3050   31.7790   40.5390 C   0  0  0  0  0  0  0  0  0  0  0  0
   38.7330   31.6480   41.4650 H   0  0  0  0  0  0  0  0  0  0  0  0
   40.3220   32.7150   40.5510 C   0  0  0  0  0  3  0  0  0  0  0  0
   41.1170   32.9720   39.4390 C   0  0  0  0  0  0  0  0  0  0  0  0
   42.0870   33.8870   39.5080 N   0  0  0  0  0  0  0  0  0  0  0  0
   42.8680   34.1490   38.4390 C   0  0  0  0  0  0  0  0  0  0  0  0
   43.6130   34.9030   38.6100 H   0  0  0  0  0  0  0  0  0  0  0  0
   42.6260   33.4390   37.2800 C   0  0  0  0  0  3  0  0  0  0  0  0
   41.6200   32.4890   37.2100 C   0  0  0  0  0  3  0  0  0  0  0  0
   40.8290   32.2330   38.3160 C   0  0  0  0  0  0  0  0  0  0  0  0
   39.8180   31.3010   38.2940 C   0  0  0  0  0  3  0  0  0  0  0  0
   35.6310   27.9380   36.9790 S   0  0  0  0  0  0  0  0  0  0  0  0
   33.9110   29.1150   35.2850 C   0  0  0  0  0  0  0  0  0  0  0  0
   34.0770   28.7350   36.6140 C   0  0  0  0  0  0  0  0  0  0  0  0
   33.0970   28.9750   37.5350 C   0  0  0  0  0  0  0  0  0  0  0  0
   31.9130   29.5980   37.1940 C   0  0  0  0  0  0  0  0  0  0  0  0
   31.7430   29.9810   35.8590 C   0  0  0  0  0  0  0  0  0  0  0  0
   32.7270   29.7470   34.8990 C   0  0  0  0  0  0  0  0  0  0  0  0
   30.4690   30.5890   35.7600 O   0  0  0  0  0  0  0  0  0  0  0  0
   30.0860   30.8860   37.0710 C   0  0  0  0  0  0  0  0  0  0  0  0
   30.7700   29.9610   37.9040 O   0  0  0  0  0  0  0  0  0  0  0  0
   34.6230   28.9700   34.4900 H   0  0  0  0  0  0  0  0  0  0  0  0
   33.2710   28.6630   38.5540 H   0  0  0  0  0  0  0  0  0  0  0  0
   32.5590   30.0590   33.8780 H   0  0  0  0  0  0  0  0  0  0  0  0
   30.4300   31.9060   37.3980 H   0  0  0  0  0  0  0  0  0  0  0  0
   28.9970   30.8730   37.2120 H   0  0  0  0  0  0  0  0  0  0  0  0
   35.9920   28.3860   42.0040 O   0  0  0  0  0  0  0  0  0  0  0  0
   36.7880   27.5880   42.8410 C   0  0  0  0  0  0  0  0  0  0  0  0
   36.0450   26.7790   43.6530 F   0  0  0  0  0  0  0  0  0  0  0  0
   37.6320   26.8680   41.9970 F   0  0  0  0  0  0  0  0  0  0  0  0
   37.5280   28.4330   43.6560 F   0  0  0  0  0  0  0  0  0  0  0  0
  1  6  1  0  0  0  0
  2  1  2  0  0  0  0
  2  3  1  0  0  0  0
  3  4  2  0  0  0  0
  4  5  1  0  0  0  0
  5 35  1  0  0  0  0
  6  5  2  0  0  0  0
  7  2  1  0  0  0  0
  8  3  1  0  0  0  0
  8  9  1  0  0  0  0
  9 11  2  0  0  0  0
  9 10  1  0  0  0  0
 12 13  1  0  0  0  0
 12 11  1  0  0  0  0
 14 15  1  0  0  0  0
 14 13  2  0  0  0  0
 16 14  1  0  0  0  0
 17 16  2  0  0  0  0
 17 18  1  0  0  0  0
 18 12  2  0  0  0  0
 19 18  1  0  0  0  0
 19  8  2  0  0  0  0
 20  1  1  0  0  0  0
 21 22  1  0  0  0  0
 22 20  1  0  0  0  0
 22 23  2  0  0  0  0
 23 31  1  0  0  0  0
 24 23  1  0  0  0  0
 24 29  1  0  0  0  0
 25 24  2  0  0  0  0
 26 21  2  0  0  0  0
 26 25  1  0  0  0  0
 27 25  1  0  0  0  0
 27 28  1  0  0  0  0
 28 34  1  0  0  0  0
 28 33  1  0  0  0  0
 28 29  1  0  0  0  0
 30 21  1  0  0  0  0
 32 26  1  0  0  0  0
 35 36  1  0  0  0  0
 36 37  1  0  0  0  0
 36 39  1  0  0  0  0
 38 36  1  0  0  0  0
M  END
>  <minimizedAffinity>
-6.08634138

$$$$

 OpenBabel03242515413D

 39 43  0  0  0  0  0  0  0  0999 V2000
   35.8330   26.6090   37.8570 C   0  0  0  0  0  0  0  0  0  0  0  0
   36.7720   27.5180   38.2860 C   0  0  0  0  0  0  0  0  0  0  0  0
   36.5590   28.8550   37.9570 C   0  0  0  0  0  0  0  0  0  0  0  0
   35.4660   29.1900   37.2500 N   0  0  0  0  0  0  0  0  0  0  0  0
   34.5660   28.2660   36.8470 C   0  0  0  0  0  0  0  0  0  0  0  0
   34.7710   27.0000   37.1590 N   0  0  0  0  0  0  0  0  0  0  0  0
   37.6310   27.2350   38.8460 H   0  0  0  0  0  0  0  0  0  0  0  0
   37.4730   29.9210   38.3480 C   0  0  0  0  0  0  0  0  0  0  0  0
   38.8090   29.7660   38.0540 C   0  0  0  0  0  0  0  0  0  0  0  0
   39.1970   28.8770   37.5440 H   0  0  0  0  0  0  0  0  0  0  0  0
   39.7220   30.7450   38.4010 C   0  0  0  0  0  3  0  0  0  0  0  0
   39.3530   31.9170   39.0520 C   0  0  0  0  0  0  0  0  0  0  0  0
   40.2780   32.8290   39.3620 N   0  0  0  0  0  0  0  0  0  0  0  0
   39.9370   33.9720   39.9930 C   0  0  0  0  0  0  0  0  0  0  0  0
   40.7620   34.6300   40.1930 H   0  0  0  0  0  0  0  0  0  0  0  0
   38.6050   34.1600   40.3030 C   0  0  0  0  0  3  0  0  0  0  0  0
   37.6460   33.2140   39.9800 C   0  0  0  0  0  3  0  0  0  0  0  0
   38.0130   32.0470   39.3320 C   0  0  0  0  0  0  0  0  0  0  0  0
   37.0980   31.0790   38.9930 C   0  0  0  0  0  3  0  0  0  0  0  0
   36.1440   24.8820   38.3030 S   0  0  0  0  0  0  0  0  0  0  0  0
   36.5810   24.5090   40.9270 C   0  0  0  0  0  0  0  0  0  0  0  0
   37.2220   24.7890   39.7220 C   0  0  0  0  0  0  0  0  0  0  0  0
   38.5750   24.9710   39.6780 C   0  0  0  0  0  0  0  0  0  0  0  0
   39.3590   24.8880   40.8120 C   0  0  0  0  0  0  0  0  0  0  0  0
   38.7190   24.6060   42.0230 C   0  0  0  0  0  0  0  0  0  0  0  0
   37.3390   24.4160   42.0960 C   0  0  0  0  0  0  0  0  0  0  0  0
   39.7190   24.5720   43.0230 O   0  0  0  0  0  0  0  0  0  0  0  0
   40.8400   25.1910   42.4630 C   0  0  0  0  0  0  0  0  0  0  0  0
   40.7230   25.0240   41.0570 O   0  0  0  0  0  0  0  0  0  0  0  0
   35.5240   24.3510   41.0620 H   0  0  0  0  0  0  0  0  0  0  0  0
   39.0260   25.1870   38.7210 H   0  0  0  0  0  0  0  0  0  0  0  0
   36.8810   24.2010   43.0510 H   0  0  0  0  0  0  0  0  0  0  0  0
   40.8500   26.3020   42.6400 H   0  0  0  0  0  0  0  0  0  0  0  0
   41.7860   24.8090   42.8680 H   0  0  0  0  0  0  0  0  0  0  0  0
   33.4320   28.5520   36.1200 O   0  0  0  0  0  0  0  0  0  0  0  0
   32.3160   29.0970   36.7730 C   0  0  0  0  0  0  0  0  0  0  0  0
   32.0110   30.3530   36.3270 F   0  0  0  0  0  0  0  0  0  0  0  0
   31.2740   28.1930   36.5740 F   0  0  0  0  0  0  0  0  0  0  0  0
   32.6180   29.1950   38.1240 F   0  0  0  0  0  0  0  0  0  0  0  0
  1  2  1  0  0  0  0
  1 20  1  0  0  0  0
  2  7  1  0  0  0  0
  3  2  2  0  0  0  0
  3  8  1  0  0  0  0
  4  3  1  0  0  0  0
  5  6  1  0  0  0  0
  5  4  2  0  0  0  0
  6  1  2  0  0  0  0
  8 19  1  0  0  0  0
  9  8  2  0  0  0  0
  9 11  1  0  0  0  0
 10  9  1  0  0  0  0
 11 12  2  0  0  0  0
 12 18  1  0  0  0  0
 12 13  1  0  0  0  0
 13 14  2  0  0  0  0
 14 15  1  0  0  0  0
 14 16  1  0  0  0  0
 17 16  2  0  0  0  0
 18 17  1  0  0  0  0
 19 18  2  0  0  0  0
 20 22  1  0  0  0  0
 21 30  1  0  0  0  0
 21 26  1  0  0  0  0
 22 21  2  0  0  0  0
 23 22  1  0  0  0  0
 23 24  2  0  0  0  0
 24 29  1  0  0  0  0
 24 25  1  0  0  0  0
 25 26  2  0  0  0  0
 25 27  1  0  0  0  0
 26 32  1  0  0  0  0
 28 33  1  0  0  0  0
 28 34  1  0  0  0  0
 28 27  1  0  0  0  0
 29 28  1  0  0  0  0
 31 23  1  0  0  0  0
 35 36  1  0  0  0  0
 35  5  1  0  0  0  0
 36 39  1  0  0  0  0
 37 36  1  0  0  0  0
 38 36  1  0  0  0  0
M  END
>  <minimizedAffinity>
-6.00028467

$$$$

 OpenBabel03242515413D

 39 43  0  0  0  0  0  0  0  0999 V2000
   37.3560   28.6450   40.9890 C   0  0  0  0  0  0  0  0  0  0  0  0
   36.4910   29.0980   40.0200 C   0  0  0  0  0  0  0  0  0  0  0  0
   35.9420   28.1470   39.1630 C   0  0  0  0  0  0  0  0  0  0  0  0
   36.2770   26.8550   39.3170 N   0  0  0  0  0  0  0  0  0  0  0  0
   37.1320   26.4490   40.2820 C   0  0  0  0  0  0  0  0  0  0  0  0
   37.6510   27.3530   41.0930 N   0  0  0  0  0  0  0  0  0  0  0  0
   36.2370   30.1260   39.9130 H   0  0  0  0  0  0  0  0  0  0  0  0
   35.0110   28.4890   38.0940 C   0  0  0  0  0  0  0  0  0  0  0  0
   35.4630   28.4110   36.7950 C   0  0  0  0  0  0  0  0  0  0  0  0
   36.4860   28.1040   36.5480 H   0  0  0  0  0  0  0  0  0  0  0  0
   34.6250   28.7230   35.7410 C   0  0  0  0  0  3  0  0  0  0  0  0
   33.3070   29.1250   35.9260 C   0  0  0  0  0  0  0  0  0  0  0  0
   32.5410   29.4130   34.8700 N   0  0  0  0  0  0  0  0  0  0  0  0
   31.2600   29.8050   35.0310 C   0  0  0  0  0  0  0  0  0  0  0  0
   30.7420   30.0110   34.1130 H   0  0  0  0  0  0  0  0  0  0  0  0
   30.7740   29.8940   36.3210 C   0  0  0  0  0  3  0  0  0  0  0  0
   31.5690   29.5930   37.4150 C   0  0  0  0  0  3  0  0  0  0  0  0
   32.8810   29.1940   37.2310 C   0  0  0  0  0  0  0  0  0  0  0  0
   33.7070   28.8860   38.2860 C   0  0  0  0  0  3  0  0  0  0  0  0
   38.0490   29.9090   42.0840 S   0  0  0  0  0  0  0  0  0  0  0  0
   40.6280   30.5500   42.4770 C   0  0  0  0  0  0  0  0  0  0  0  0
   39.7230   29.4920   42.5370 C   0  0  0  0  0  0  0  0  0  0  0  0
   40.1320   28.2470   42.9210 C   0  0  0  0  0  0  0  0  0  0  0  0
   41.4450   27.9830   43.2610 C   0  0  0  0  0  0  0  0  0  0  0  0
   42.3550   29.0430   43.2010 C   0  0  0  0  0  0  0  0  0  0  0  0
   41.9640   30.3240   42.8130 C   0  0  0  0  0  0  0  0  0  0  0  0
   43.6160   28.5310   43.5890 O   0  0  0  0  0  0  0  0  0  0  0  0
   43.5040   27.1400   43.5040 C   0  0  0  0  0  0  0  0  0  0  0  0
   42.1260   26.8420   43.6770 O   0  0  0  0  0  0  0  0  0  0  0  0
   40.4010   31.5630   42.1870 H   0  0  0  0  0  0  0  0  0  0  0  0
   39.3950   27.4580   42.9520 H   0  0  0  0  0  0  0  0  0  0  0  0
   42.6970   31.1180   42.7780 H   0  0  0  0  0  0  0  0  0  0  0  0
   43.7780   26.7490   42.4860 H   0  0  0  0  0  0  0  0  0  0  0  0
   44.1540   26.6150   44.2170 H   0  0  0  0  0  0  0  0  0  0  0  0
   37.5100   25.1410   40.4840 O   0  0  0  0  0  0  0  0  0  0  0  0
   36.8510   24.3780   41.4610 C   0  0  0  0  0  0  0  0  0  0  0  0
   35.7410   23.7500   40.9720 F   0  0  0  0  0  0  0  0  0  0  0  0
   37.7980   23.4810   41.9510 F   0  0  0  0  0  0  0  0  0  0  0  0
   36.4370   25.2390   42.4660 F   0  0  0  0  0  0  0  0  0  0  0  0
  1  6  1  0  0  0  0
  1 20  1  0  0  0  0
  2  1  2  0  0  0  0
  3  4  2  0  0  0  0
  3  2  1  0  0  0  0
  4  5  1  0  0  0  0
  5 35  1  0  0  0  0
  5  6  2  0  0  0  0
  7  2  1  0  0  0  0
  8 19  1  0  0  0  0
  8  3  1  0  0  0  0
  9  8  2  0  0  0  0
 10  9  1  0  0  0  0
 11 12  2  0  0  0  0
 11  9  1  0  0  0  0
 12 18  1  0  0  0  0
 13 14  2  0  0  0  0
 13 12  1  0  0  0  0
 14 16  1  0  0  0  0
 15 14  1  0  0  0  0
 16 17  2  0  0  0  0
 18 17  1  0  0  0  0
 18 19  2  0  0  0  0
 20 22  1  0  0  0  0
 21 22  2  0  0  0  0
 21 26  1  0  0  0  0
 22 23  1  0  0  0  0
 23 31  1  0  0  0  0
 23 24  2  0  0  0  0
 24 29  1  0  0  0  0
 25 24  1  0  0  0  0
 25 27  1  0  0  0  0
 26 25  2  0  0  0  0
 28 27  1  0  0  0  0
 28 29  1  0  0  0  0
 28 34  1  0  0  0  0
 30 21  1  0  0  0  0
 32 26  1  0  0  0  0
 33 28  1  0  0  0  0
 35 36  1  0  0  0  0
 36 38  1  0  0  0  0
 36 39  1  0  0  0  0
 37 36  1  0  0  0  0
M  END
>  <minimizedAffinity>
-5.98671722

$$$$
