
 OpenBabel03252504513D

 37 40  0  0  0  0  0  0  0  0999 V2000
   46.8840   34.5890   42.7660 C   0  0  0  0  0  0  0  0  0  0  0  0
   48.0740   34.1800   42.1440 C   0  0  0  0  0  0  0  0  0  0  0  0
   48.7550   33.1180   42.7210 C   0  0  0  0  0  0  0  0  0  0  0  0
   48.2220   32.5540   43.8410 N   0  0  0  0  0  0  0  0  0  0  0  0
   47.0890   32.9620   44.4120 C   0  0  0  0  0  0  0  0  0  0  0  0
   46.4000   33.9960   43.8730 N   0  0  0  0  0  0  0  0  0  0  0  0
   46.2740   35.3980   42.4070 H   0  0  0  0  0  0  0  0  0  0  0  0
   49.6690   32.7740   42.2760 H   0  0  0  0  0  0  0  0  0  0  0  0
   45.7090   30.2800   43.9310 Cl  0  0  0  0  0  0  0  0  0  0  0  0
   45.9410   31.0820   45.4940 C   0  0  0  0  0  0  0  0  0  0  0  0
   46.5840   32.3080   45.6090 C   0  0  0  0  0  0  0  0  0  0  0  0
   46.7480   32.9010   46.8340 C   0  0  0  0  0  0  0  0  0  0  0  0
   46.2620   32.2640   47.9680 C   0  0  0  0  0  0  0  0  0  0  0  0
   45.6300   31.0500   47.8130 C   0  0  0  0  0  0  0  0  0  0  0  0
   45.0350   30.2880   49.2700 Cl  0  0  0  0  0  0  0  0  0  0  0  0
   45.4460   30.4240   46.6030 C   0  0  0  0  0  0  0  0  0  0  0  0
   47.2510   33.8610   46.9350 H   0  0  0  0  0  0  0  0  0  0  0  0
   46.3850   32.7220   48.9420 H   0  0  0  0  0  0  0  0  0  0  0  0
   44.9390   29.4700   46.5700 H   0  0  0  0  0  0  0  0  0  0  0  0
   48.5040   34.8820   40.9610 C   0  0  0  0  0  0  0  0  0  0  0  0
   49.5920   34.7360   40.8120 H   0  0  0  0  0  0  0  0  0  0  0  0
   48.3580   35.9710   41.0600 H   0  0  0  0  0  0  0  0  0  0  0  0
   47.6870   34.4360   39.7830 C   0  0  0  0  0  0  0  0  0  0  0  0
   46.6300   34.7510   40.0070 H   0  0  0  0  0  0  0  0  0  0  0  0
   47.9750   35.0840   38.9160 H   0  0  0  0  0  0  0  0  0  0  0  0
   47.7760   33.0050   39.4740 C   0  0  0  0  0  0  0  0  0  0  0  0
   46.7230   32.1200   39.5770 C   0  0  0  0  0  0  0  0  0  0  0  0
   45.7590   32.4850   39.9060 H   0  0  0  0  0  0  0  0  0  0  0  0
   46.9630   30.7920   39.2480 C   0  0  0  0  0  3  0  0  0  0  0  0
   48.2290   30.3700   38.8270 C   0  0  0  0  0  0  0  0  0  0  0  0
   48.4600   29.0830   38.5080 N   0  0  0  0  0  0  0  0  0  0  0  0
   49.6660   28.6470   38.1000 C   0  0  0  0  0  0  0  0  0  0  0  0
   49.9160   27.6450   37.8340 H   0  0  0  0  0  0  0  0  0  0  0  0
   50.7070   29.5390   38.0020 C   0  0  0  0  0  3  0  0  0  0  0  0
   50.5400   30.8780   38.3140 C   0  0  0  0  0  3  0  0  0  0  0  0
   49.2670   31.2700   38.7310 C   0  0  0  0  0  0  0  0  0  0  0  0
   49.0450   32.6000   39.0550 C   0  0  0  0  0  3  0  0  0  0  0  0
  1  6  1  0  0  0  0
  2  3  1  0  0  0  0
  2  1  2  0  0  0  0
  3  4  2  0  0  0  0
  4  5  1  0  0  0  0
  5 11  1  0  0  0  0
  6  5  2  0  0  0  0
  7  1  1  0  0  0  0
  8  3  1  0  0  0  0
  9 10  1  0  0  0  0
 10 11  2  0  0  0  0
 10 16  1  0  0  0  0
 11 12  1  0  0  0  0
 12 17  1  0  0  0  0
 12 13  2  0  0  0  0
 13 18  1  0  0  0  0
 14 13  1  0  0  0  0
 14 15  1  0  0  0  0
 16 14  2  0  0  0  0
 19 16  1  0  0  0  0
 20 22  1  0  0  0  0
 20  2  1  0  0  0  0
 21 20  1  0  0  0  0
 23 24  1  0  0  0  0
 23 20  1  0  0  0  0
 25 23  1  0  0  0  0
 26 27  1  0  0  0  0
 26 23  1  0  0  0  0
 27 28  1  0  0  0  0
 29 27  2  0  0  0  0
 30 29  1  0  0  0  0
 31 30  2  0  0  0  0
 32 31  1  0  0  0  0
 33 32  1  0  0  0  0
 34 32  2  0  0  0  0
 34 35  1  0  0  0  0
 35 36  2  0  0  0  0
 36 30  1  0  0  0  0
 36 37  1  0  0  0  0
 37 26  2  0  0  0  0
M  END
>  <minimizedAffinity>
-4.62079191

>  <minimizedRMSD>
1.28497863

$$$$
