
 OpenBabel03252508183D

 50 55  0  0  1  0  0  0  0  0999 V2000
   46.8220   31.6220   48.2370 C   0  0  1  0  0  0  0  0  0  0  0  0
   46.3330   30.5760   49.1790 C   0  0  0  0  0  0  0  0  0  0  0  0
   47.5980   31.2570   49.4390 C   0  0  1  0  0  0  0  0  0  0  0  0
   46.0760   32.4710   48.2160 H   0  0  0  0  0  0  0  0  0  0  0  0
   45.4880   30.7470   49.8750 H   0  0  0  0  0  0  0  0  0  0  0  0
   46.3990   29.5070   48.8580 H   0  0  0  0  0  0  0  0  0  0  0  0
   47.5970   32.0050   50.2590 H   0  0  0  0  0  0  0  0  0  0  0  0
   48.9180   30.5800   49.2430 C   0  0  2  0  0  0  0  0  0  0  0  0
   49.6080   30.2010   50.5790 C   0  0  0  0  0  0  0  0  0  0  0  0
   50.1610   31.2940   49.7640 C   0  0  1  0  0  0  0  0  0  0  0  0
   49.0630   29.7760   48.5120 H   0  0  0  0  0  0  0  0  0  0  0  0
   49.1230   30.5120   51.5230 H   0  0  0  0  0  0  0  0  0  0  0  0
   50.1660   29.2750   50.6670 H   0  0  0  0  0  0  0  0  0  0  0  0
   50.0300   32.3420   50.1030 H   0  0  0  0  0  0  0  0  0  0  0  0
   51.4490   31.0380   49.0900 C   0  0  0  0  0  0  0  0  0  0  0  0
   51.5290   29.9290   48.2400 C   0  0  0  0  0  0  0  0  0  0  0  0
   50.6930   29.2540   48.0570 H   0  0  0  0  0  0  0  0  0  0  0  0
   52.7170   29.6350   47.5740 C   0  0  0  0  0  3  0  0  0  0  0  0
   53.8420   30.4280   47.7350 C   0  0  0  0  0  0  0  0  0  0  0  0
   54.9750   30.1330   47.0890 N   0  0  0  0  0  0  0  0  0  0  0  0
   56.0970   30.8610   47.2040 C   0  0  0  0  0  0  0  0  0  0  0  0
   56.9920   30.5890   46.6650 H   0  0  0  0  0  0  0  0  0  0  0  0
   56.0350   31.9650   48.0410 C   0  0  0  0  0  3  0  0  0  0  0  0
   54.8700   32.3100   48.7360 C   0  0  0  0  0  3  0  0  0  0  0  0
   53.7290   31.5220   48.5850 C   0  0  0  0  0  0  0  0  0  0  0  0
   52.5600   31.8400   49.2620 C   0  0  0  0  0  3  0  0  0  0  0  0
   47.2340   31.1290   46.8980 C   0  0  0  0  0  0  0  0  0  0  0  0
   46.5250   30.2870   46.6380 H   0  0  0  0  0  0  0  0  0  0  0  0
   48.2300   30.7480   46.7700 H   0  0  0  0  0  0  0  0  0  0  0  0
   46.1210   33.0610   46.1450 C   0  0  0  0  0  3  0  0  0  0  0  0
   46.9530   32.1590   45.8310 C   0  0  0  0  0  3  0  0  0  0  0  0
   44.5450   35.8890   44.3810 C   0  0  0  0  0  0  0  0  0  0  0  0
   45.1770   35.8740   43.1430 C   0  0  0  0  0  0  0  0  0  0  0  0
   46.1120   34.9070   42.9550 C   0  0  0  0  0  0  0  0  0  0  0  0
   46.3870   34.0170   43.9490 N   0  0  0  0  0  0  0  0  0  0  0  0
   45.7590   34.0590   45.1360 C   0  0  0  0  0  0  0  0  0  0  0  0
   44.8490   34.9980   45.3200 N   0  0  0  0  0  0  0  0  0  0  0  0
   43.7870   36.6420   44.5880 H   0  0  0  0  0  0  0  0  0  0  0  0
   44.9380   36.5940   42.3710 H   0  0  0  0  0  0  0  0  0  0  0  0
   46.8550   34.7670   41.7090 C   0  0  0  0  0  0  0  0  0  0  0  0
   48.0570   35.3550   41.4440 C   0  0  0  0  0  0  0  0  0  0  0  0
   48.7480   35.2120   40.2570 C   0  0  0  0  0  0  0  0  0  0  0  0
   48.2190   34.4300   39.2500 C   0  0  0  0  0  0  0  0  0  0  0  0
   47.0150   33.8140   39.4550 C   0  0  0  0  0  0  0  0  0  0  0  0
   46.3680   33.9930   40.6650 C   0  0  0  0  0  0  0  0  0  0  0  0
   48.5080   35.9830   42.2200 H   0  0  0  0  0  0  0  0  0  0  0  0
   49.6920   35.6800   40.0640 H   0  0  0  0  0  0  0  0  0  0  0  0
   48.6760   34.2490   38.2800 H   0  0  0  0  0  0  0  0  0  0  0  0
   46.5560   33.1920   38.7020 H   0  0  0  0  0  0  0  0  0  0  0  0
   45.4070   33.4830   40.7890 H   0  0  0  0  0  0  0  0  0  0  0  0
  1  4  1  1  0  0  0
  1  2  1  0  0  0  0
  1  3  1  0  0  0  0
  2  3  1  0  0  0  0
  2  5  1  0  0  0  0
  3  7  1  1  0  0  0
  6  2  1  0  0  0  0
  8 11  1  6  0  0  0
  8  3  1  0  0  0  0
  8 10  1  0  0  0  0
  8  9  1  0  0  0  0
  9 13  1  0  0  0  0
  9 12  1  0  0  0  0
 10 14  1  1  0  0  0
 10  9  1  0  0  0  0
 15 26  1  0  0  0  0
 15 10  1  0  0  0  0
 16 15  2  0  0  0  0
 17 16  1  0  0  0  0
 18 19  2  0  0  0  0
 18 16  1  0  0  0  0
 19 25  1  0  0  0  0
 20 21  2  0  0  0  0
 20 19  1  0  0  0  0
 21 23  1  0  0  0  0
 22 21  1  0  0  0  0
 23 24  2  0  0  0  0
 25 24  1  0  0  0  0
 25 26  2  0  0  0  0
 27  1  1  0  0  0  0
 28 27  1  0  0  0  0
 29 27  1  0  0  0  0
 31 30  2  0  0  0  0
 31 27  1  0  0  0  0
 32 38  1  0  0  0  0
 32 37  1  0  0  0  0
 33 32  2  0  0  0  0
 34 33  1  0  0  0  0
 34 35  2  0  0  0  0
 35 36  1  0  0  0  0
 36 37  2  0  0  0  0
 36 30  1  0  0  0  0
 39 33  1  0  0  0  0
 40 34  1  0  0  0  0
 41 40  1  0  0  0  0
 41 46  1  0  0  0  0
 42 41  2  0  0  0  0
 43 44  2  0  0  0  0
 43 42  1  0  0  0  0
 44 45  1  0  0  0  0
 45 50  1  0  0  0  0
 45 40  2  0  0  0  0
 47 42  1  0  0  0  0
 48 43  1  0  0  0  0
 49 44  1  0  0  0  0
M  END
>  <minimizedAffinity>
-6.8182478

>  <minimizedRMSD>
0.981985867

$$$$
