
 OpenBabel03242513103D

 44 49  0  0  0  0  0  0  0  0999 V2000
   38.6690   27.6840   40.4050 C   0  0  0  0  0  0  0  0  0  0  0  0
   38.2500   27.2310   41.6540 C   0  0  0  0  0  0  0  0  0  0  0  0
   37.7970   28.1930   42.5460 C   0  0  0  0  0  0  0  0  0  0  0  0
   37.8010   29.4940   42.1260 N   0  0  0  0  0  0  0  0  0  0  0  0
   38.2070   29.9040   40.9260 C   0  0  0  0  0  0  0  0  0  0  0  0
   38.6480   28.9920   40.0490 N   0  0  0  0  0  0  0  0  0  0  0  0
   39.0360   26.9800   39.6590 H   0  0  0  0  0  0  0  0  0  0  0  0
   37.1500   31.8360   39.8530 C   0  0  0  0  0  0  0  0  0  0  0  0
   38.1660   31.3120   40.5920 C   0  0  0  0  0  0  0  0  0  0  0  0
   39.2430   32.0970   41.0810 C   0  0  0  0  0  0  0  0  0  0  0  0
   39.2750   33.4630   40.7990 C   0  0  0  0  0  0  0  0  0  0  0  0
   40.1150   34.4970   41.0870 N   0  0  0  0  0  0  0  0  0  0  0  0
   39.5870   35.6170   40.5170 C   0  0  0  0  0  0  0  0  0  0  0  0
   38.4390   35.2640   39.8900 N   0  0  0  0  0  0  0  0  0  0  0  0
   38.2280   33.9450   40.0510 C   0  0  0  0  0  0  0  0  0  0  0  0
   37.1750   33.2010   39.5690 C   0  0  0  0  0  0  0  0  0  0  0  0
   36.3690   31.1660   39.5220 H   0  0  0  0  0  0  0  0  0  0  0  0
   40.0410   31.6820   41.6610 H   0  0  0  0  0  0  0  0  0  0  0  0
   40.9570   34.2940   41.6490 H   0  0  0  0  0  0  0  0  0  0  0  0
   40.1580   36.5270   40.6670 H   0  0  0  0  0  0  0  0  0  0  0  0
   36.3820   33.6220   38.9890 H   0  0  0  0  0  0  0  0  0  0  0  0
   37.3380   27.7800   43.8880 C   0  0  0  0  0  0  0  0  0  0  0  0
   37.0190   28.9050   44.6700 F   0  0  0  0  0  0  0  0  0  0  0  0
   36.1890   27.0350   43.7930 F   0  0  0  0  0  0  0  0  0  0  0  0
   38.3550   27.0680   44.4780 F   0  0  0  0  0  0  0  0  0  0  0  0
   38.3040   25.9190   41.9250 O   0  0  0  0  0  0  0  0  0  0  0  0
   37.6830   24.9540   41.1570 C   0  0  0  0  0  0  0  0  0  0  0  0
   38.5750   23.8670   41.1760 C   0  0  0  0  0  0  0  0  0  0  0  0
   37.6910   22.6240   40.1410 S   0  0  0  0  0  0  0  0  0  0  0  0
   36.2650   23.8040   39.8670 C   0  0  0  0  0  0  0  0  0  0  0  0
   36.6340   24.6670   40.4500 N   0  0  0  0  0  0  0  0  0  0  0  0
   39.5520   23.4750   41.5470 H   0  0  0  0  0  0  0  0  0  0  0  0
   35.1050   23.3470   39.0230 C   0  0  0  0  0  0  0  0  0  0  0  0
   35.2130   23.2460   37.6740 C   0  0  0  0  0  0  0  0  0  0  0  0
   36.1400   23.4900   37.1660 H   0  0  0  0  0  0  0  0  0  0  0  0
   34.0610   22.8090   37.0110 C   0  0  0  0  0  3  0  0  0  0  0  0
   32.9110   22.5140   37.7330 C   0  0  0  0  0  0  0  0  0  0  0  0
   31.7890   22.0920   37.1160 N   0  0  0  0  0  0  0  0  0  0  0  0
   30.6510   21.7940   37.7710 C   0  0  0  0  0  0  0  0  0  0  0  0
   29.7940   21.4600   37.1810 H   0  0  0  0  0  0  0  0  0  0  0  0
   30.5640   21.9070   39.1640 C   0  0  0  0  0  3  0  0  0  0  0  0
   31.7150   22.3410   39.8080 C   0  0  0  0  0  3  0  0  0  0  0  0
   32.8720   22.6420   39.1200 C   0  0  0  0  0  0  0  0  0  0  0  0
   34.0100   23.0760   39.8080 C   0  0  0  0  0  3  0  0  0  0  0  0
  1  2  1  0  0  0  0
  2 26  1  0  0  0  0
  2  3  2  0  0  0  0
  3 22  1  0  0  0  0
  4  3  1  0  0  0  0
  5  4  2  0  0  0  0
  6  1  2  0  0  0  0
  6  5  1  0  0  0  0
  7  1  1  0  0  0  0
  8  9  1  0  0  0  0
  9  5  1  0  0  0  0
  9 10  2  0  0  0  0
 10 18  1  0  0  0  0
 11 10  1  0  0  0  0
 11 12  1  0  0  0  0
 12 19  1  0  0  0  0
 13 20  1  0  0  0  0
 13 12  1  0  0  0  0
 14 15  1  0  0  0  0
 14 13  2  0  0  0  0
 15 11  2  0  0  0  0
 16  8  2  0  0  0  0
 16 15  1  0  0  0  0
 17  8  1  0  0  0  0
 21 16  1  0  0  0  0
 22 25  1  0  0  0  0
 22 23  1  0  0  0  0
 24 22  1  0  0  0  0
 27 28  2  0  0  0  0
 27 26  1  0  0  0  0
 28 32  1  0  0  0  0
 29 28  1  0  0  0  0
 30 29  1  0  0  0  0
 30 31  2  0  0  0  0
 31 27  1  0  0  0  0
 33 44  1  0  0  0  0
 33 30  1  0  0  0  0
 34 33  2  0  0  0  0
 35 34  1  0  0  0  0
 36 34  1  0  0  0  0
 36 37  2  0  0  0  0
 37 43  1  0  0  0  0
 38 37  1  0  0  0  0
 38 39  2  0  0  0  0
 39 41  1  0  0  0  0
 40 39  1  0  0  0  0
 41 42  2  0  0  0  0
 43 42  1  0  0  0  0
 43 44  2  0  0  0  0
M  END
>  <minimizedAffinity>
-7.72062349

$$$$

 OpenBabel03242513103D

 44 49  0  0  0  0  0  0  0  0999 V2000
   39.0580   27.8720   40.2790 C   0  0  0  0  0  0  0  0  0  0  0  0
   38.5900   27.3550   41.4850 C   0  0  0  0  0  0  0  0  0  0  0  0
   38.0560   28.2640   42.3880 C   0  0  0  0  0  0  0  0  0  0  0  0
   38.0360   29.5800   42.0200 N   0  0  0  0  0  0  0  0  0  0  0  0
   38.4890   30.0520   40.8600 C   0  0  0  0  0  0  0  0  0  0  0  0
   39.0080   29.1920   39.9730 N   0  0  0  0  0  0  0  0  0  0  0  0
   39.4880   27.2120   39.5270 H   0  0  0  0  0  0  0  0  0  0  0  0
   37.3350   32.0140   39.9540 C   0  0  0  0  0  0  0  0  0  0  0  0
   38.4150   31.4710   40.5790 C   0  0  0  0  0  0  0  0  0  0  0  0
   39.5300   32.2450   40.9950 C   0  0  0  0  0  0  0  0  0  0  0  0
   39.5330   33.6190   40.7580 C   0  0  0  0  0  0  0  0  0  0  0  0
   40.3930   34.6470   41.0040 N   0  0  0  0  0  0  0  0  0  0  0  0
   39.8140   35.7830   40.5230 C   0  0  0  0  0  0  0  0  0  0  0  0
   38.6150   35.4460   39.9900 N   0  0  0  0  0  0  0  0  0  0  0  0
   38.4210   34.1200   40.1240 C   0  0  0  0  0  0  0  0  0  0  0  0
   37.3320   33.3880   39.7150 C   0  0  0  0  0  0  0  0  0  0  0  0
   36.5290   31.3510   39.6710 H   0  0  0  0  0  0  0  0  0  0  0  0
   40.3780   31.8140   41.4860 H   0  0  0  0  0  0  0  0  0  0  0  0
   41.2840   34.4290   41.4800 H   0  0  0  0  0  0  0  0  0  0  0  0
   40.3940   36.6900   40.6510 H   0  0  0  0  0  0  0  0  0  0  0  0
   36.4880   33.8230   39.2230 H   0  0  0  0  0  0  0  0  0  0  0  0
   37.5440   27.7810   43.6860 C   0  0  0  0  0  0  0  0  0  0  0  0
   37.1000   28.8580   44.4750 F   0  0  0  0  0  0  0  0  0  0  0  0
   36.4560   26.9640   43.4970 F   0  0  0  0  0  0  0  0  0  0  0  0
   38.5680   27.1200   44.3220 F   0  0  0  0  0  0  0  0  0  0  0  0
   38.6770   26.0350   41.7070 O   0  0  0  0  0  0  0  0  0  0  0  0
   37.9180   25.0960   41.0380 C   0  0  0  0  0  0  0  0  0  0  0  0
   38.6770   23.9150   41.1170 C   0  0  0  0  0  0  0  0  0  0  0  0
   37.6140   22.7110   40.2120 S   0  0  0  0  0  0  0  0  0  0  0  0
   36.3250   24.0290   39.8880 C   0  0  0  0  0  0  0  0  0  0  0  0
   36.8150   24.8840   40.3890 N   0  0  0  0  0  0  0  0  0  0  0  0
   39.6160   23.4380   41.4870 H   0  0  0  0  0  0  0  0  0  0  0  0
   35.0870   23.6510   39.1200 C   0  0  0  0  0  0  0  0  0  0  0  0
   34.2650   22.6620   39.5520 C   0  0  0  0  0  0  0  0  0  0  0  0
   34.4770   22.1160   40.4650 H   0  0  0  0  0  0  0  0  0  0  0  0
   33.1490   22.4130   38.7450 C   0  0  0  0  0  3  0  0  0  0  0  0
   32.9460   23.1560   37.5890 C   0  0  0  0  0  0  0  0  0  0  0  0
   31.8790   22.9340   36.7950 N   0  0  0  0  0  0  0  0  0  0  0  0
   31.6380   23.6270   35.6670 C   0  0  0  0  0  0  0  0  0  0  0  0
   30.7450   23.3710   35.0900 H   0  0  0  0  0  0  0  0  0  0  0  0
   32.5020   24.6440   35.2400 C   0  0  0  0  0  3  0  0  0  0  0  0
   33.6030   24.8800   36.0510 C   0  0  0  0  0  3  0  0  0  0  0  0
   33.8340   24.1590   37.2050 C   0  0  0  0  0  0  0  0  0  0  0  0
   34.9570   24.4300   37.9940 C   0  0  0  0  0  3  0  0  0  0  0  0
  1  2  1  0  0  0  0
  2 26  1  0  0  0  0
  2  3  2  0  0  0  0
  3 22  1  0  0  0  0
  4  3  1  0  0  0  0
  5  4  2  0  0  0  0
  6  1  2  0  0  0  0
  6  5  1  0  0  0  0
  7  1  1  0  0  0  0
  8  9  1  0  0  0  0
  9  5  1  0  0  0  0
  9 10  2  0  0  0  0
 10 18  1  0  0  0  0
 11 10  1  0  0  0  0
 11 12  1  0  0  0  0
 12 19  1  0  0  0  0
 13 20  1  0  0  0  0
 13 12  1  0  0  0  0
 14 15  1  0  0  0  0
 14 13  2  0  0  0  0
 15 11  2  0  0  0  0
 16  8  2  0  0  0  0
 16 15  1  0  0  0  0
 17  8  1  0  0  0  0
 21 16  1  0  0  0  0
 22 25  1  0  0  0  0
 22 23  1  0  0  0  0
 24 22  1  0  0  0  0
 27 28  2  0  0  0  0
 27 26  1  0  0  0  0
 28 32  1  0  0  0  0
 29 28  1  0  0  0  0
 30 29  1  0  0  0  0
 30 31  2  0  0  0  0
 31 27  1  0  0  0  0
 33 34  1  0  0  0  0
 33 30  1  0  0  0  0
 34 35  1  0  0  0  0
 36 34  2  0  0  0  0
 37 36  1  0  0  0  0
 38 37  2  0  0  0  0
 39 38  1  0  0  0  0
 40 39  1  0  0  0  0
 41 39  2  0  0  0  0
 41 42  1  0  0  0  0
 42 43  2  0  0  0  0
 43 37  1  0  0  0  0
 43 44  1  0  0  0  0
 44 33  2  0  0  0  0
M  END
>  <minimizedAffinity>
-7.47721243

$$$$

 OpenBabel03242513103D

 44 49  0  0  0  0  0  0  0  0999 V2000
   37.3310   29.8110   37.8860 C   0  0  0  0  0  0  0  0  0  0  0  0
   36.8220   28.9240   38.8320 C   0  0  0  0  0  0  0  0  0  0  0  0
   37.1980   29.1350   40.1510 C   0  0  0  0  0  0  0  0  0  0  0  0
   38.0310   30.1880   40.4080 N   0  0  0  0  0  0  0  0  0  0  0  0
   38.5060   31.0230   39.4860 C   0  0  0  0  0  0  0  0  0  0  0  0
   38.1560   30.8380   38.2070 N   0  0  0  0  0  0  0  0  0  0  0  0
   37.0740   29.7010   36.8330 H   0  0  0  0  0  0  0  0  0  0  0  0
   40.5900   31.8660   40.4610 C   0  0  0  0  0  0  0  0  0  0  0  0
   39.3850   32.1070   39.8770 C   0  0  0  0  0  0  0  0  0  0  0  0
   38.9090   33.4180   39.6130 C   0  0  0  0  0  0  0  0  0  0  0  0
   39.6980   34.5130   39.9620 C   0  0  0  0  0  0  0  0  0  0  0  0
   39.5790   35.8680   39.8680 N   0  0  0  0  0  0  0  0  0  0  0  0
   40.7120   36.4110   40.3960 C   0  0  0  0  0  0  0  0  0  0  0  0
   41.5090   35.3950   40.8060 N   0  0  0  0  0  0  0  0  0  0  0  0
   40.9060   34.2190   40.5480 C   0  0  0  0  0  0  0  0  0  0  0  0
   41.3850   32.9570   40.8120 C   0  0  0  0  0  0  0  0  0  0  0  0
   40.8750   30.8350   40.6260 H   0  0  0  0  0  0  0  0  0  0  0  0
   37.9600   33.6030   39.1540 H   0  0  0  0  0  0  0  0  0  0  0  0
   38.7180   36.2490   39.4450 H   0  0  0  0  0  0  0  0  0  0  0  0
   40.7560   37.4940   40.3880 H   0  0  0  0  0  0  0  0  0  0  0  0
   42.3330   32.7780   41.2720 H   0  0  0  0  0  0  0  0  0  0  0  0
   36.6930   28.2300   41.2030 C   0  0  0  0  0  0  0  0  0  0  0  0
   37.2690   28.5480   42.4470 F   0  0  0  0  0  0  0  0  0  0  0  0
   35.3360   28.3810   41.3540 F   0  0  0  0  0  0  0  0  0  0  0  0
   37.0230   26.9450   40.8450 F   0  0  0  0  0  0  0  0  0  0  0  0
   36.0120   27.9340   38.4290 O   0  0  0  0  0  0  0  0  0  0  0  0
   34.7920   28.1460   37.8180 C   0  0  0  0  0  0  0  0  0  0  0  0
   34.4970   26.9200   37.1950 C   0  0  0  0  0  0  0  0  0  0  0  0
   32.8690   27.2690   36.4050 S   0  0  0  0  0  0  0  0  0  0  0  0
   32.8780   29.0210   37.0640 C   0  0  0  0  0  0  0  0  0  0  0  0
   33.8430   29.0030   37.6030 N   0  0  0  0  0  0  0  0  0  0  0  0
   34.8360   25.8750   36.9960 H   0  0  0  0  0  0  0  0  0  0  0  0
   31.7130   29.9170   36.7400 C   0  0  0  0  0  0  0  0  0  0  0  0
   30.7510   30.1820   37.6620 C   0  0  0  0  0  0  0  0  0  0  0  0
   30.7980   29.7550   38.6580 H   0  0  0  0  0  0  0  0  0  0  0  0
   29.7250   31.0300   37.2310 C   0  0  0  0  0  3  0  0  0  0  0  0
   29.7370   31.5380   35.9380 C   0  0  0  0  0  0  0  0  0  0  0  0
   28.7590   32.3560   35.5000 N   0  0  0  0  0  0  0  0  0  0  0  0
   28.7260   32.8730   34.2580 C   0  0  0  0  0  0  0  0  0  0  0  0
   27.8900   33.5270   33.9980 H   0  0  0  0  0  0  0  0  0  0  0  0
   29.7300   32.5850   33.3240 C   0  0  0  0  0  3  0  0  0  0  0  0
   30.7410   31.7420   33.7660 C   0  0  0  0  0  3  0  0  0  0  0  0
   30.7580   31.2220   35.0440 C   0  0  0  0  0  0  0  0  0  0  0  0
   31.7970   30.3770   35.4480 C   0  0  0  0  0  3  0  0  0  0  0  0
  1  6  2  0  0  0  0
  1  2  1  0  0  0  0
  2  3  2  0  0  0  0
  3  4  1  0  0  0  0
  3 22  1  0  0  0  0
  5  9  1  0  0  0  0
  5  4  2  0  0  0  0
  6  5  1  0  0  0  0
  7  1  1  0  0  0  0
  8 17  1  0  0  0  0
  8 16  1  0  0  0  0
  9  8  2  0  0  0  0
 10  9  1  0  0  0  0
 10 11  2  0  0  0  0
 11 15  1  0  0  0  0
 12 11  1  0  0  0  0
 12 13  1  0  0  0  0
 13 14  2  0  0  0  0
 15 14  1  0  0  0  0
 15 16  2  0  0  0  0
 16 21  1  0  0  0  0
 18 10  1  0  0  0  0
 19 12  1  0  0  0  0
 20 13  1  0  0  0  0
 22 24  1  0  0  0  0
 22 23  1  0  0  0  0
 25 22  1  0  0  0  0
 26  2  1  0  0  0  0
 27 26  1  0  0  0  0
 28 27  2  0  0  0  0
 29 30  1  0  0  0  0
 29 28  1  0  0  0  0
 30 31  2  0  0  0  0
 31 27  1  0  0  0  0
 32 28  1  0  0  0  0
 33 30  1  0  0  0  0
 33 34  1  0  0  0  0
 34 35  1  0  0  0  0
 36 34  2  0  0  0  0
 37 36  1  0  0  0  0
 38 37  1  0  0  0  0
 39 38  2  0  0  0  0
 40 39  1  0  0  0  0
 41 42  2  0  0  0  0
 41 39  1  0  0  0  0
 42 43  1  0  0  0  0
 43 44  1  0  0  0  0
 43 37  2  0  0  0  0
 44 33  2  0  0  0  0
M  END
>  <minimizedAffinity>
-7.35160923

$$$$

 OpenBabel03242513103D

 44 49  0  0  0  0  0  0  0  0999 V2000
   36.5360   28.2840   40.1390 C   0  0  0  0  0  0  0  0  0  0  0  0
   37.1430   28.6350   41.3420 C   0  0  0  0  0  0  0  0  0  0  0  0
   37.6360   27.5960   42.1190 C   0  0  0  0  0  0  0  0  0  0  0  0
   37.4830   26.3250   41.6420 N   0  0  0  0  0  0  0  0  0  0  0  0
   36.8980   26.0120   40.4880 C   0  0  0  0  0  0  0  0  0  0  0  0
   36.4150   26.9990   39.7210 N   0  0  0  0  0  0  0  0  0  0  0  0
   36.1280   29.0520   39.4830 H   0  0  0  0  0  0  0  0  0  0  0  0
   35.8520   24.2170   39.1890 C   0  0  0  0  0  0  0  0  0  0  0  0
   36.7920   24.6250   40.0840 C   0  0  0  0  0  0  0  0  0  0  0  0
   37.7250   23.7330   40.6770 C   0  0  0  0  0  0  0  0  0  0  0  0
   37.6860   22.3810   40.3380 C   0  0  0  0  0  0  0  0  0  0  0  0
   38.3920   21.2700   40.6890 N   0  0  0  0  0  0  0  0  0  0  0  0
   37.8620   20.2200   39.9990 C   0  0  0  0  0  0  0  0  0  0  0  0
   36.8450   20.6920   39.2390 N   0  0  0  0  0  0  0  0  0  0  0  0
   36.7190   22.0180   39.4310 C   0  0  0  0  0  0  0  0  0  0  0  0
   35.8080   22.8660   38.8460 C   0  0  0  0  0  0  0  0  0  0  0  0
   35.1810   24.9630   38.7860 H   0  0  0  0  0  0  0  0  0  0  0  0
   38.4630   24.0580   41.3800 H   0  0  0  0  0  0  0  0  0  0  0  0
   39.1610   21.3800   41.3690 H   0  0  0  0  0  0  0  0  0  0  0  0
   38.3320   19.2600   40.1830 H   0  0  0  0  0  0  0  0  0  0  0  0
   35.0720   22.5360   38.1440 H   0  0  0  0  0  0  0  0  0  0  0  0
   38.2920   27.9010   43.4070 C   0  0  0  0  0  0  0  0  0  0  0  0
   38.8580   26.7390   43.9620 F   0  0  0  0  0  0  0  0  0  0  0  0
   39.3270   28.7850   43.2200 F   0  0  0  0  0  0  0  0  0  0  0  0
   37.3380   28.4130   44.2530 F   0  0  0  0  0  0  0  0  0  0  0  0
   37.2210   29.9310   41.6800 O   0  0  0  0  0  0  0  0  0  0  0  0
   37.9080   30.8730   40.9420 C   0  0  0  0  0  0  0  0  0  0  0  0
   36.9430   31.8510   40.6400 C   0  0  0  0  0  0  0  0  0  0  0  0
   37.9200   33.0700   39.6610 S   0  0  0  0  0  0  0  0  0  0  0  0
   39.4680   32.0340   39.8380 C   0  0  0  0  0  0  0  0  0  0  0  0
   39.0570   31.2000   40.4360 N   0  0  0  0  0  0  0  0  0  0  0  0
   35.8780   32.1670   40.7480 H   0  0  0  0  0  0  0  0  0  0  0  0
   40.7400   32.5270   39.2010 C   0  0  0  0  0  0  0  0  0  0  0  0
   40.8680   32.6030   37.8520 C   0  0  0  0  0  0  0  0  0  0  0  0
   40.0560   32.3100   37.1950 H   0  0  0  0  0  0  0  0  0  0  0  0
   42.1010   33.0780   37.3920 C   0  0  0  0  0  3  0  0  0  0  0  0
   43.0930   33.4330   38.2990 C   0  0  0  0  0  0  0  0  0  0  0  0
   44.2890   33.8930   37.8800 N   0  0  0  0  0  0  0  0  0  0  0  0
   45.2800   34.2500   38.7170 C   0  0  0  0  0  0  0  0  0  0  0  0
   46.2150   34.6110   38.2800 H   0  0  0  0  0  0  0  0  0  0  0  0
   45.1240   34.1620   40.1060 C   0  0  0  0  0  3  0  0  0  0  0  0
   43.8960   33.6900   40.5470 C   0  0  0  0  0  3  0  0  0  0  0  0
   42.8910   33.3290   39.6730 C   0  0  0  0  0  0  0  0  0  0  0  0
   41.6670   32.8570   40.1610 C   0  0  0  0  0  3  0  0  0  0  0  0
  1  2  1  0  0  0  0
  2 26  1  0  0  0  0
  2  3  2  0  0  0  0
  3 22  1  0  0  0  0
  4  3  1  0  0  0  0
  5  4  2  0  0  0  0
  6  1  2  0  0  0  0
  6  5  1  0  0  0  0
  7  1  1  0  0  0  0
  8  9  1  0  0  0  0
  9  5  1  0  0  0  0
  9 10  2  0  0  0  0
 10 18  1  0  0  0  0
 11 10  1  0  0  0  0
 11 12  1  0  0  0  0
 12 19  1  0  0  0  0
 13 20  1  0  0  0  0
 13 12  1  0  0  0  0
 14 15  1  0  0  0  0
 14 13  2  0  0  0  0
 15 11  2  0  0  0  0
 16  8  2  0  0  0  0
 16 15  1  0  0  0  0
 17  8  1  0  0  0  0
 21 16  1  0  0  0  0
 22 23  1  0  0  0  0
 22 25  1  0  0  0  0
 24 22  1  0  0  0  0
 27 26  1  0  0  0  0
 28 32  1  0  0  0  0
 28 27  2  0  0  0  0
 29 30  1  0  0  0  0
 29 28  1  0  0  0  0
 30 31  2  0  0  0  0
 31 27  1  0  0  0  0
 33 30  1  0  0  0  0
 33 44  1  0  0  0  0
 34 33  2  0  0  0  0
 35 34  1  0  0  0  0
 36 34  1  0  0  0  0
 36 37  2  0  0  0  0
 37 43  1  0  0  0  0
 38 37  1  0  0  0  0
 38 39  2  0  0  0  0
 39 41  1  0  0  0  0
 40 39  1  0  0  0  0
 41 42  2  0  0  0  0
 43 44  2  0  0  0  0
 43 42  1  0  0  0  0
M  END
>  <minimizedAffinity>
-7.30556583

$$$$

 OpenBabel03242513103D

 44 49  0  0  0  0  0  0  0  0999 V2000
   38.3230   27.9550   41.3750 C   0  0  0  0  0  0  0  0  0  0  0  0
   38.0490   26.6780   41.8590 C   0  0  0  0  0  0  0  0  0  0  0  0
   37.1970   25.8910   41.0960 C   0  0  0  0  0  0  0  0  0  0  0  0
   36.7030   26.4330   39.9440 N   0  0  0  0  0  0  0  0  0  0  0  0
   36.9790   27.6580   39.5000 C   0  0  0  0  0  0  0  0  0  0  0  0
   37.7990   28.4350   40.2200 N   0  0  0  0  0  0  0  0  0  0  0  0
   38.9850   28.6230   41.9260 H   0  0  0  0  0  0  0  0  0  0  0  0
   35.0910   28.5120   38.1920 C   0  0  0  0  0  0  0  0  0  0  0  0
   36.3940   28.1260   38.2600 C   0  0  0  0  0  0  0  0  0  0  0  0
   37.2620   28.1540   37.1370 C   0  0  0  0  0  0  0  0  0  0  0  0
   36.7730   28.5930   35.9070 C   0  0  0  0  0  0  0  0  0  0  0  0
   37.2870   28.7520   34.6550 N   0  0  0  0  0  0  0  0  0  0  0  0
   36.2850   29.2290   33.8630 C   0  0  0  0  0  0  0  0  0  0  0  0
   35.1750   29.3570   34.6290 N   0  0  0  0  0  0  0  0  0  0  0  0
   35.4510   28.9720   35.8890 C   0  0  0  0  0  0  0  0  0  0  0  0
   34.5960   28.9520   36.9650 C   0  0  0  0  0  0  0  0  0  0  0  0
   34.5010   28.4590   39.0970 H   0  0  0  0  0  0  0  0  0  0  0  0
   38.2870   27.8500   37.1940 H   0  0  0  0  0  0  0  0  0  0  0  0
   38.2790   28.5080   34.5050 H   0  0  0  0  0  0  0  0  0  0  0  0
   36.5550   29.4050   32.8280 H   0  0  0  0  0  0  0  0  0  0  0  0
   33.5720   29.2570   36.9020 H   0  0  0  0  0  0  0  0  0  0  0  0
   36.8650   24.5270   41.5540 C   0  0  0  0  0  0  0  0  0  0  0  0
   36.0940   23.8550   40.5880 F   0  0  0  0  0  0  0  0  0  0  0  0
   38.0100   23.7860   41.7210 F   0  0  0  0  0  0  0  0  0  0  0  0
   36.1590   24.6390   42.7280 F   0  0  0  0  0  0  0  0  0  0  0  0
   38.6100   26.2820   43.0110 O   0  0  0  0  0  0  0  0  0  0  0  0
   39.9360   26.4960   43.3280 C   0  0  0  0  0  0  0  0  0  0  0  0
   40.5550   25.2560   43.0910 C   0  0  0  0  0  0  0  0  0  0  0  0
   42.3100   25.6090   43.5290 S   0  0  0  0  0  0  0  0  0  0  0  0
   41.8900   27.3820   43.9580 C   0  0  0  0  0  0  0  0  0  0  0  0
   40.8060   27.3640   43.7440 N   0  0  0  0  0  0  0  0  0  0  0  0
   40.4180   24.1980   42.7610 H   0  0  0  0  0  0  0  0  0  0  0  0
   42.9940   28.2890   44.4310 C   0  0  0  0  0  0  0  0  0  0  0  0
   43.8670   27.8930   45.3920 C   0  0  0  0  0  0  0  0  0  0  0  0
   43.7930   26.9110   45.8460 H   0  0  0  0  0  0  0  0  0  0  0  0
   44.8450   28.8330   45.7380 C   0  0  0  0  0  3  0  0  0  0  0  0
   44.8740   30.0720   45.1090 C   0  0  0  0  0  0  0  0  0  0  0  0
   45.8060   30.9930   45.4260 N   0  0  0  0  0  0  0  0  0  0  0  0
   45.8760   32.2060   44.8470 C   0  0  0  0  0  0  0  0  0  0  0  0
   46.6700   32.8840   45.1730 H   0  0  0  0  0  0  0  0  0  0  0  0
   44.9640   32.5910   43.8570 C   0  0  0  0  0  3  0  0  0  0  0  0
   44.0000   31.6490   43.5240 C   0  0  0  0  0  3  0  0  0  0  0  0
   43.9440   30.4100   44.1290 C   0  0  0  0  0  0  0  0  0  0  0  0
   42.9560   29.4900   43.7630 C   0  0  0  0  0  3  0  0  0  0  0  0
  1  2  1  0  0  0  0
  1  7  1  0  0  0  0
  2 26  1  0  0  0  0
  3 22  1  0  0  0  0
  3  2  2  0  0  0  0
  4  3  1  0  0  0  0
  5  4  2  0  0  0  0
  5  6  1  0  0  0  0
  6  1  2  0  0  0  0
  8  9  1  0  0  0  0
  8 17  1  0  0  0  0
  9  5  1  0  0  0  0
 10 18  1  0  0  0  0
 10  9  2  0  0  0  0
 11 10  1  0  0  0  0
 12 11  1  0  0  0  0
 13 14  2  0  0  0  0
 13 12  1  0  0  0  0
 14 15  1  0  0  0  0
 15 11  2  0  0  0  0
 15 16  1  0  0  0  0
 16  8  2  0  0  0  0
 19 12  1  0  0  0  0
 20 13  1  0  0  0  0
 21 16  1  0  0  0  0
 22 24  1  0  0  0  0
 22 25  1  0  0  0  0
 23 22  1  0  0  0  0
 26 27  1  0  0  0  0
 27 31  1  0  0  0  0
 28 27  2  0  0  0  0
 28 29  1  0  0  0  0
 29 30  1  0  0  0  0
 30 33  1  0  0  0  0
 31 30  2  0  0  0  0
 32 28  1  0  0  0  0
 33 34  1  0  0  0  0
 34 36  2  0  0  0  0
 34 35  1  0  0  0  0
 37 38  1  0  0  0  0
 37 36  1  0  0  0  0
 39 40  1  0  0  0  0
 39 38  2  0  0  0  0
 41 39  1  0  0  0  0
 42 41  2  0  0  0  0
 42 43  1  0  0  0  0
 43 37  2  0  0  0  0
 44 43  1  0  0  0  0
 44 33  2  0  0  0  0
M  END
>  <minimizedAffinity>
-6.97656441

$$$$

 OpenBabel03242513103D

 44 49  0  0  0  0  0  0  0  0999 V2000
   36.5760   28.0210   40.3040 C   0  0  0  0  0  0  0  0  0  0  0  0
   37.1620   28.3210   41.5310 C   0  0  0  0  0  0  0  0  0  0  0  0
   37.6600   27.2510   42.2630 C   0  0  0  0  0  0  0  0  0  0  0  0
   37.5310   26.0030   41.7210 N   0  0  0  0  0  0  0  0  0  0  0  0
   36.9660   25.7400   40.5450 C   0  0  0  0  0  0  0  0  0  0  0  0
   36.4800   26.7570   39.8210 N   0  0  0  0  0  0  0  0  0  0  0  0
   36.1660   28.8150   39.6800 H   0  0  0  0  0  0  0  0  0  0  0  0
   36.0250   24.0150   39.0810 C   0  0  0  0  0  0  0  0  0  0  0  0
   36.8870   24.3730   40.0710 C   0  0  0  0  0  0  0  0  0  0  0  0
   37.7570   23.4460   40.7020 C   0  0  0  0  0  0  0  0  0  0  0  0
   37.7390   22.1110   40.3010 C   0  0  0  0  0  0  0  0  0  0  0  0
   38.4040   20.9770   40.6610 N   0  0  0  0  0  0  0  0  0  0  0  0
   37.9280   19.9650   39.8820 C   0  0  0  0  0  0  0  0  0  0  0  0
   36.9850   20.4810   39.0580 N   0  0  0  0  0  0  0  0  0  0  0  0
   36.8520   21.7990   39.2980 C   0  0  0  0  0  0  0  0  0  0  0  0
   36.0020   22.6810   38.6750 C   0  0  0  0  0  0  0  0  0  0  0  0
   35.3970   24.7860   38.6550 H   0  0  0  0  0  0  0  0  0  0  0  0
   38.4340   23.7310   41.4810 H   0  0  0  0  0  0  0  0  0  0  0  0
   39.1110   21.0480   41.4100 H   0  0  0  0  0  0  0  0  0  0  0  0
   38.3730   18.9920   40.0620 H   0  0  0  0  0  0  0  0  0  0  0  0
   35.3270   22.3910   37.8980 H   0  0  0  0  0  0  0  0  0  0  0  0
   38.2930   27.5010   43.5730 C   0  0  0  0  0  0  0  0  0  0  0  0
   37.4680   28.3090   44.3760 F   0  0  0  0  0  0  0  0  0  0  0  0
   38.4640   26.3210   44.2550 F   0  0  0  0  0  0  0  0  0  0  0  0
   39.4930   28.1320   43.3450 F   0  0  0  0  0  0  0  0  0  0  0  0
   37.2160   29.5990   41.9340 O   0  0  0  0  0  0  0  0  0  0  0  0
   38.3150   30.4130   41.7470 C   0  0  0  0  0  0  0  0  0  0  0  0
   37.9340   31.2780   40.7040 C   0  0  0  0  0  0  0  0  0  0  0  0
   39.4340   32.3300   40.5070 S   0  0  0  0  0  0  0  0  0  0  0  0
   40.3130   31.4080   41.8780 C   0  0  0  0  0  0  0  0  0  0  0  0
   39.5190   30.6850   42.1430 N   0  0  0  0  0  0  0  0  0  0  0  0
   37.1300   31.5670   39.9860 H   0  0  0  0  0  0  0  0  0  0  0  0
   41.7130   31.8230   42.2420 C   0  0  0  0  0  0  0  0  0  0  0  0
   42.4040   31.1860   43.2210 C   0  0  0  0  0  0  0  0  0  0  0  0
   41.9660   30.3580   43.7680 H   0  0  0  0  0  0  0  0  0  0  0  0
   43.6950   31.6710   43.4580 C   0  0  0  0  0  3  0  0  0  0  0  0
   44.1860   32.7370   42.7130 C   0  0  0  0  0  0  0  0  0  0  0  0
   45.4260   33.2220   42.9240 N   0  0  0  0  0  0  0  0  0  0  0  0
   45.9470   34.2510   42.2290 C   0  0  0  0  0  0  0  0  0  0  0  0
   46.9620   34.5720   42.4750 H   0  0  0  0  0  0  0  0  0  0  0  0
   45.2140   34.8930   41.2240 C   0  0  0  0  0  3  0  0  0  0  0  0
   43.9360   34.4000   41.0000 C   0  0  0  0  0  3  0  0  0  0  0  0
   43.4190   33.3440   41.7220 C   0  0  0  0  0  0  0  0  0  0  0  0
   42.1250   32.8790   41.4630 C   0  0  0  0  0  3  0  0  0  0  0  0
  1  2  1  0  0  0  0
  2 26  1  0  0  0  0
  2  3  2  0  0  0  0
  3 22  1  0  0  0  0
  4  3  1  0  0  0  0
  5  4  2  0  0  0  0
  6  1  2  0  0  0  0
  6  5  1  0  0  0  0
  7  1  1  0  0  0  0
  8  9  1  0  0  0  0
  9  5  1  0  0  0  0
  9 10  2  0  0  0  0
 10 18  1  0  0  0  0
 11 12  1  0  0  0  0
 11 10  1  0  0  0  0
 12 19  1  0  0  0  0
 13 20  1  0  0  0  0
 13 12  1  0  0  0  0
 14 15  1  0  0  0  0
 14 13  2  0  0  0  0
 15 11  2  0  0  0  0
 16  8  2  0  0  0  0
 16 15  1  0  0  0  0
 17  8  1  0  0  0  0
 21 16  1  0  0  0  0
 22 24  1  0  0  0  0
 22 23  1  0  0  0  0
 25 22  1  0  0  0  0
 27 26  1  0  0  0  0
 27 31  1  0  0  0  0
 28 27  2  0  0  0  0
 29 28  1  0  0  0  0
 29 30  1  0  0  0  0
 30 31  2  0  0  0  0
 30 33  1  0  0  0  0
 32 28  1  0  0  0  0
 33 34  1  0  0  0  0
 34 36  2  0  0  0  0
 34 35  1  0  0  0  0
 37 38  1  0  0  0  0
 37 36  1  0  0  0  0
 39 40  1  0  0  0  0
 39 38  2  0  0  0  0
 41 39  1  0  0  0  0
 42 41  2  0  0  0  0
 42 43  1  0  0  0  0
 43 37  2  0  0  0  0
 44 43  1  0  0  0  0
 44 33  2  0  0  0  0
M  END
>  <minimizedAffinity>
-6.76111984

$$$$

 OpenBabel03242513103D

 44 49  0  0  0  0  0  0  0  0999 V2000
   38.6890   27.8800   40.0880 C   0  0  0  0  0  0  0  0  0  0  0  0
   38.3220   27.3740   41.3330 C   0  0  0  0  0  0  0  0  0  0  0  0
   37.9370   28.2990   42.2930 C   0  0  0  0  0  0  0  0  0  0  0  0
   37.9510   29.6190   41.9380 N   0  0  0  0  0  0  0  0  0  0  0  0
   38.3060   30.0800   40.7410 C   0  0  0  0  0  0  0  0  0  0  0  0
   38.6810   29.2050   39.7990 N   0  0  0  0  0  0  0  0  0  0  0  0
   39.0010   27.2070   39.2900 H   0  0  0  0  0  0  0  0  0  0  0  0
   37.2570   32.0820   39.7940 C   0  0  0  0  0  0  0  0  0  0  0  0
   38.2810   31.5050   40.4790 C   0  0  0  0  0  0  0  0  0  0  0  0
   39.3840   32.2460   40.9790 C   0  0  0  0  0  0  0  0  0  0  0  0
   39.4330   33.6240   40.7660 C   0  0  0  0  0  0  0  0  0  0  0  0
   40.2970   34.6280   41.0840 N   0  0  0  0  0  0  0  0  0  0  0  0
   39.7760   35.7840   40.5850 C   0  0  0  0  0  0  0  0  0  0  0  0
   38.6060   35.4820   39.9700 N   0  0  0  0  0  0  0  0  0  0  0  0
   38.3760   34.1600   40.0700 C   0  0  0  0  0  0  0  0  0  0  0  0
   37.2990   33.4590   39.5780 C   0  0  0  0  0  0  0  0  0  0  0  0
   36.4560   31.4420   39.4490 H   0  0  0  0  0  0  0  0  0  0  0  0
   40.1880   31.7890   41.5170 H   0  0  0  0  0  0  0  0  0  0  0  0
   41.1490   34.3830   41.6130 H   0  0  0  0  0  0  0  0  0  0  0  0
   40.3650   36.6760   40.7660 H   0  0  0  0  0  0  0  0  0  0  0  0
   36.4990   33.9210   39.0400 H   0  0  0  0  0  0  0  0  0  0  0  0
   37.5370   27.8290   43.6350 C   0  0  0  0  0  0  0  0  0  0  0  0
   36.4310   26.9630   43.5460 F   0  0  0  0  0  0  0  0  0  0  0  0
   38.5510   27.1040   44.2100 F   0  0  0  0  0  0  0  0  0  0  0  0
   37.2130   28.9320   44.3870 F   0  0  0  0  0  0  0  0  0  0  0  0
   38.3590   26.0490   41.5350 O   0  0  0  0  0  0  0  0  0  0  0  0
   37.8930   25.1240   40.6230 C   0  0  0  0  0  0  0  0  0  0  0  0
   36.7420   24.5870   41.2270 C   0  0  0  0  0  0  0  0  0  0  0  0
   36.1750   23.3690   39.9660 S   0  0  0  0  0  0  0  0  0  0  0  0
   37.6040   23.8060   38.8400 C   0  0  0  0  0  0  0  0  0  0  0  0
   38.0940   24.5750   39.4650 N   0  0  0  0  0  0  0  0  0  0  0  0
   36.0700   24.6010   42.1180 H   0  0  0  0  0  0  0  0  0  0  0  0
   37.7240   23.0940   37.5190 C   0  0  0  0  0  0  0  0  0  0  0  0
   38.1050   21.7930   37.4530 C   0  0  0  0  0  0  0  0  0  0  0  0
   38.3330   21.2300   38.3520 H   0  0  0  0  0  0  0  0  0  0  0  0
   38.1750   21.2530   36.1640 C   0  0  0  0  0  3  0  0  0  0  0  0
   37.8660   22.0390   35.0610 C   0  0  0  0  0  0  0  0  0  0  0  0
   37.9280   21.5410   33.8100 N   0  0  0  0  0  0  0  0  0  0  0  0
   37.6380   22.2620   32.7110 C   0  0  0  0  0  0  0  0  0  0  0  0
   37.7180   21.7670   31.7390 H   0  0  0  0  0  0  0  0  0  0  0  0
   37.2480   23.6030   32.8040 C   0  0  0  0  0  3  0  0  0  0  0  0
   37.1820   24.1250   34.0890 C   0  0  0  0  0  3  0  0  0  0  0  0
   37.4820   23.3710   35.2040 C   0  0  0  0  0  0  0  0  0  0  0  0
   37.4030   23.9370   36.4810 C   0  0  0  0  0  3  0  0  0  0  0  0
  1  2  1  0  0  0  0
  2 26  1  0  0  0  0
  2  3  2  0  0  0  0
  3 22  1  0  0  0  0
  4  3  1  0  0  0  0
  5  4  2  0  0  0  0
  6  1  2  0  0  0  0
  6  5  1  0  0  0  0
  7  1  1  0  0  0  0
  8  9  1  0  0  0  0
  9  5  1  0  0  0  0
  9 10  2  0  0  0  0
 10 18  1  0  0  0  0
 11 10  1  0  0  0  0
 11 12  1  0  0  0  0
 12 19  1  0  0  0  0
 13 20  1  0  0  0  0
 13 12  1  0  0  0  0
 14 15  1  0  0  0  0
 14 13  2  0  0  0  0
 15 11  2  0  0  0  0
 16  8  2  0  0  0  0
 16 15  1  0  0  0  0
 17  8  1  0  0  0  0
 21 16  1  0  0  0  0
 22 24  1  0  0  0  0
 22 25  1  0  0  0  0
 23 22  1  0  0  0  0
 27 28  2  0  0  0  0
 27 26  1  0  0  0  0
 28 32  1  0  0  0  0
 29 28  1  0  0  0  0
 30 31  2  0  0  0  0
 30 29  1  0  0  0  0
 31 27  1  0  0  0  0
 33 30  1  0  0  0  0
 34 33  1  0  0  0  0
 34 35  1  0  0  0  0
 36 34  2  0  0  0  0
 37 43  1  0  0  0  0
 37 36  1  0  0  0  0
 38 37  2  0  0  0  0
 39 41  2  0  0  0  0
 39 38  1  0  0  0  0
 40 39  1  0  0  0  0
 41 42  1  0  0  0  0
 42 43  2  0  0  0  0
 43 44  1  0  0  0  0
 44 33  2  0  0  0  0
M  END
>  <minimizedAffinity>
-6.75700808

$$$$

 OpenBabel03242513103D

 44 49  0  0  0  0  0  0  0  0999 V2000
   39.0850   27.8730   40.4020 C   0  0  0  0  0  0  0  0  0  0  0  0
   38.5940   27.3770   41.6080 C   0  0  0  0  0  0  0  0  0  0  0  0
   38.0230   28.2980   42.4750 C   0  0  0  0  0  0  0  0  0  0  0  0
   37.9920   29.6040   42.0750 N   0  0  0  0  0  0  0  0  0  0  0  0
   38.4680   30.0570   40.9170 C   0  0  0  0  0  0  0  0  0  0  0  0
   39.0230   29.1860   40.0640 N   0  0  0  0  0  0  0  0  0  0  0  0
   39.5450   27.2030   39.6770 H   0  0  0  0  0  0  0  0  0  0  0  0
   37.3090   31.9790   39.9350 C   0  0  0  0  0  0  0  0  0  0  0  0
   38.3800   31.4670   40.6010 C   0  0  0  0  0  0  0  0  0  0  0  0
   39.4710   32.2680   41.0270 C   0  0  0  0  0  0  0  0  0  0  0  0
   39.4600   33.6370   40.7590 C   0  0  0  0  0  0  0  0  0  0  0  0
   40.2970   34.6840   41.0030 N   0  0  0  0  0  0  0  0  0  0  0  0
   39.7130   35.7990   40.4800 C   0  0  0  0  0  0  0  0  0  0  0  0
   38.5340   35.4300   39.9250 N   0  0  0  0  0  0  0  0  0  0  0  0
   38.3570   34.1060   40.0850 C   0  0  0  0  0  0  0  0  0  0  0  0
   37.2900   33.3470   39.6640 C   0  0  0  0  0  0  0  0  0  0  0  0
   36.5200   31.2960   39.6470 H   0  0  0  0  0  0  0  0  0  0  0  0
   40.3120   31.8620   41.5510 H   0  0  0  0  0  0  0  0  0  0  0  0
   41.1770   34.4920   41.5070 H   0  0  0  0  0  0  0  0  0  0  0  0
   40.2750   36.7180   40.6030 H   0  0  0  0  0  0  0  0  0  0  0  0
   36.4530   33.7570   39.1400 H   0  0  0  0  0  0  0  0  0  0  0  0
   37.4840   27.8370   43.7700 C   0  0  0  0  0  0  0  0  0  0  0  0
   38.4520   27.0990   44.4750 F   0  0  0  0  0  0  0  0  0  0  0  0
   37.1610   28.9100   44.5640 F   0  0  0  0  0  0  0  0  0  0  0  0
   36.3860   27.0510   43.5120 F   0  0  0  0  0  0  0  0  0  0  0  0
   38.6950   26.0640   41.8630 O   0  0  0  0  0  0  0  0  0  0  0  0
   38.3580   25.0810   40.9540 C   0  0  0  0  0  0  0  0  0  0  0  0
   37.0000   24.8210   41.2110 C   0  0  0  0  0  0  0  0  0  0  0  0
   36.6160   23.5100   39.9730 S   0  0  0  0  0  0  0  0  0  0  0  0
   38.3710   23.5500   39.3250 C   0  0  0  0  0  0  0  0  0  0  0  0
   38.7880   24.3300   39.9880 N   0  0  0  0  0  0  0  0  0  0  0  0
   36.1080   25.0750   41.8320 H   0  0  0  0  0  0  0  0  0  0  0  0
   38.7430   22.6250   38.1980 C   0  0  0  0  0  0  0  0  0  0  0  0
   39.9560   22.0180   38.1560 C   0  0  0  0  0  0  0  0  0  0  0  0
   40.6920   22.1820   38.9360 H   0  0  0  0  0  0  0  0  0  0  0  0
   40.1720   21.1830   37.0540 C   0  0  0  0  0  3  0  0  0  0  0  0
   39.1790   21.0230   36.0960 C   0  0  0  0  0  0  0  0  0  0  0  0
   39.3640   20.2250   35.0260 N   0  0  0  0  0  0  0  0  0  0  0  0
   38.4330   20.0360   34.0720 C   0  0  0  0  0  0  0  0  0  0  0  0
   38.6790   19.3690   33.2410 H   0  0  0  0  0  0  0  0  0  0  0  0
   37.1880   20.6740   34.1360 C   0  0  0  0  0  3  0  0  0  0  0  0
   36.9880   21.4990   35.2350 C   0  0  0  0  0  3  0  0  0  0  0  0
   37.9550   21.6790   36.2030 C   0  0  0  0  0  0  0  0  0  0  0  0
   37.7110   22.5190   37.2950 C   0  0  0  0  0  3  0  0  0  0  0  0
  1  2  1  0  0  0  0
  2 26  1  0  0  0  0
  2  3  2  0  0  0  0
  3 22  1  0  0  0  0
  4  3  1  0  0  0  0
  5  4  2  0  0  0  0
  6  1  2  0  0  0  0
  6  5  1  0  0  0  0
  7  1  1  0  0  0  0
  8  9  1  0  0  0  0
  9  5  1  0  0  0  0
  9 10  2  0  0  0  0
 10 18  1  0  0  0  0
 11 12  1  0  0  0  0
 11 10  1  0  0  0  0
 12 19  1  0  0  0  0
 13 20  1  0  0  0  0
 13 12  1  0  0  0  0
 14 15  1  0  0  0  0
 14 13  2  0  0  0  0
 15 11  2  0  0  0  0
 16  8  2  0  0  0  0
 16 15  1  0  0  0  0
 17  8  1  0  0  0  0
 21 16  1  0  0  0  0
 22 23  1  0  0  0  0
 22 24  1  0  0  0  0
 25 22  1  0  0  0  0
 27 28  2  0  0  0  0
 27 26  1  0  0  0  0
 28 32  1  0  0  0  0
 29 28  1  0  0  0  0
 30 29  1  0  0  0  0
 30 31  2  0  0  0  0
 31 27  1  0  0  0  0
 33 30  1  0  0  0  0
 34 33  1  0  0  0  0
 34 35  1  0  0  0  0
 36 34  2  0  0  0  0
 37 43  1  0  0  0  0
 37 36  1  0  0  0  0
 38 37  2  0  0  0  0
 39 41  2  0  0  0  0
 39 38  1  0  0  0  0
 40 39  1  0  0  0  0
 41 42  1  0  0  0  0
 42 43  2  0  0  0  0
 43 44  1  0  0  0  0
 44 33  2  0  0  0  0
M  END
>  <minimizedAffinity>
-6.70694208

$$$$

 OpenBabel03242513103D

 44 49  0  0  0  0  0  0  0  0999 V2000
   37.5270   27.7980   41.0730 C   0  0  0  0  0  0  0  0  0  0  0  0
   38.2860   27.0910   42.0030 C   0  0  0  0  0  0  0  0  0  0  0  0
   39.4410   27.7080   42.4640 C   0  0  0  0  0  0  0  0  0  0  0  0
   39.7350   28.9460   41.9670 N   0  0  0  0  0  0  0  0  0  0  0  0
   38.9940   29.6040   41.0760 C   0  0  0  0  0  0  0  0  0  0  0  0
   37.8750   29.0280   40.6190 N   0  0  0  0  0  0  0  0  0  0  0  0
   36.6090   27.3700   40.6720 H   0  0  0  0  0  0  0  0  0  0  0  0
   40.3420   31.0650   39.6440 C   0  0  0  0  0  0  0  0  0  0  0  0
   39.4060   30.9150   40.6210 C   0  0  0  0  0  0  0  0  0  0  0  0
   38.7760   32.0180   41.2550 C   0  0  0  0  0  0  0  0  0  0  0  0
   39.1210   33.3140   40.8720 C   0  0  0  0  0  0  0  0  0  0  0  0
   38.7440   34.5710   41.2400 N   0  0  0  0  0  0  0  0  0  0  0  0
   39.4580   35.4470   40.4780 C   0  0  0  0  0  0  0  0  0  0  0  0
   40.2600   34.7270   39.6570 N   0  0  0  0  0  0  0  0  0  0  0  0
   40.0690   33.4140   39.8820 C   0  0  0  0  0  0  0  0  0  0  0  0
   40.6900   32.3580   39.2550 C   0  0  0  0  0  0  0  0  0  0  0  0
   40.7710   30.1700   39.2140 H   0  0  0  0  0  0  0  0  0  0  0  0
   38.0410   31.8970   42.0240 H   0  0  0  0  0  0  0  0  0  0  0  0
   38.0310   34.6640   41.9810 H   0  0  0  0  0  0  0  0  0  0  0  0
   39.2590   36.4960   40.6660 H   0  0  0  0  0  0  0  0  0  0  0  0
   41.4250   32.4860   38.4890 H   0  0  0  0  0  0  0  0  0  0  0  0
   40.2900   27.0120   43.4510 C   0  0  0  0  0  0  0  0  0  0  0  0
   39.5310   26.6250   44.5710 F   0  0  0  0  0  0  0  0  0  0  0  0
   40.8030   25.8570   42.9130 F   0  0  0  0  0  0  0  0  0  0  0  0
   41.2870   27.8790   43.8320 F   0  0  0  0  0  0  0  0  0  0  0  0
   37.8700   25.8790   42.3990 O   0  0  0  0  0  0  0  0  0  0  0  0
   37.4550   24.8920   41.5280 C   0  0  0  0  0  0  0  0  0  0  0  0
   38.5790   24.0590   41.3840 C   0  0  0  0  0  0  0  0  0  0  0  0
   37.9610   22.7720   40.2190 S   0  0  0  0  0  0  0  0  0  0  0  0
   36.2820   23.5950   40.1350 C   0  0  0  0  0  0  0  0  0  0  0  0
   36.4670   24.4460   40.8160 N   0  0  0  0  0  0  0  0  0  0  0  0
   39.6410   23.8750   41.6770 H   0  0  0  0  0  0  0  0  0  0  0  0
   35.2200   22.9740   39.2680 C   0  0  0  0  0  0  0  0  0  0  0  0
   33.9530   22.8000   39.7230 C   0  0  0  0  0  0  0  0  0  0  0  0
   33.6710   23.1050   40.7250 H   0  0  0  0  0  0  0  0  0  0  0  0
   33.0650   22.2130   38.8160 C   0  0  0  0  0  3  0  0  0  0  0  0
   33.5020   21.8500   37.5480 C   0  0  0  0  0  0  0  0  0  0  0  0
   32.6650   21.2820   36.6570 N   0  0  0  0  0  0  0  0  0  0  0  0
   33.0400   20.9140   35.4180 C   0  0  0  0  0  0  0  0  0  0  0  0
   32.2870   20.4600   34.7680 H   0  0  0  0  0  0  0  0  0  0  0  0
   34.3540   21.1030   34.9700 C   0  0  0  0  0  3  0  0  0  0  0  0
   35.2230   21.6870   35.8810 C   0  0  0  0  0  3  0  0  0  0  0  0
   34.8200   22.0590   37.1480 C   0  0  0  0  0  0  0  0  0  0  0  0
   35.7300   22.6450   38.0340 C   0  0  0  0  0  3  0  0  0  0  0  0
  1  2  1  0  0  0  0
  2 26  1  0  0  0  0
  2  3  2  0  0  0  0
  3 22  1  0  0  0  0
  4  3  1  0  0  0  0
  5  4  2  0  0  0  0
  6  1  2  0  0  0  0
  6  5  1  0  0  0  0
  7  1  1  0  0  0  0
  8  9  1  0  0  0  0
  9  5  1  0  0  0  0
  9 10  2  0  0  0  0
 10 18  1  0  0  0  0
 11 12  1  0  0  0  0
 11 10  1  0  0  0  0
 12 19  1  0  0  0  0
 13 20  1  0  0  0  0
 13 12  1  0  0  0  0
 14 15  1  0  0  0  0
 14 13  2  0  0  0  0
 15 11  2  0  0  0  0
 16  8  2  0  0  0  0
 16 15  1  0  0  0  0
 17  8  1  0  0  0  0
 21 16  1  0  0  0  0
 22 25  1  0  0  0  0
 22 23  1  0  0  0  0
 24 22  1  0  0  0  0
 27 26  1  0  0  0  0
 28 27  2  0  0  0  0
 28 32  1  0  0  0  0
 29 28  1  0  0  0  0
 30 29  1  0  0  0  0
 30 31  2  0  0  0  0
 31 27  1  0  0  0  0
 33 34  1  0  0  0  0
 33 30  1  0  0  0  0
 34 35  1  0  0  0  0
 36 34  2  0  0  0  0
 37 36  1  0  0  0  0
 38 37  2  0  0  0  0
 39 38  1  0  0  0  0
 40 39  1  0  0  0  0
 41 39  2  0  0  0  0
 41 42  1  0  0  0  0
 42 43  2  0  0  0  0
 43 37  1  0  0  0  0
 43 44  1  0  0  0  0
 44 33  2  0  0  0  0
M  END
>  <minimizedAffinity>
-6.64084387

$$$$
