
 OpenBabel03252505413D

 31 34  0  0  1  0  0  0  0  0999 V2000
   35.7900   27.9600   38.1780 C   0  0  1  0  0  0  0  0  0  0  0  0
   34.9100   29.1810   38.5040 C   0  0  0  0  0  0  0  0  0  0  0  0
   36.0750   29.2600   37.5830 C   0  0  1  0  0  0  0  0  0  0  0  0
   35.2160   27.2080   37.5620 H   0  0  0  0  0  0  0  0  0  0  0  0
   34.9540   29.5740   39.5380 H   0  0  0  0  0  0  0  0  0  0  0  0
   33.8910   29.2270   38.0400 H   0  0  0  0  0  0  0  0  0  0  0  0
   35.8770   29.3500   36.4720 H   0  0  0  0  0  0  0  0  0  0  0  0
   37.1020   30.2140   38.0310 C   0  0  0  0  0  0  0  0  0  0  0  0
   38.4270   29.9790   37.6360 C   0  0  0  0  0  0  0  0  0  0  0  0
   38.7060   29.1080   37.0210 H   0  0  0  0  0  0  0  0  0  0  0  0
   39.5030   30.8070   37.9740 C   0  0  0  0  0  3  0  0  0  0  0  0
   39.2460   31.9230   38.7430 C   0  0  0  0  0  0  0  0  0  0  0  0
   40.2370   32.7580   39.1000 N   0  0  0  0  0  0  0  0  0  0  0  0
   39.9810   33.8420   39.8490 C   0  0  0  0  0  0  0  0  0  0  0  0
   40.8220   34.4730   40.1030 H   0  0  0  0  0  0  0  0  0  0  0  0
   38.6990   34.1530   40.2850 C   0  0  0  0  0  3  0  0  0  0  0  0
   37.6440   33.3060   39.9320 C   0  0  0  0  0  3  0  0  0  0  0  0
   37.9600   32.1990   39.1570 C   0  0  0  0  0  0  0  0  0  0  0  0
   36.9350   31.3500   38.7970 C   0  0  0  0  0  3  0  0  0  0  0  0
   36.5190   27.3930   39.3300 C   0  0  0  0  0  0  0  0  0  0  0  0
   37.3500   26.2770   39.0630 C   0  0  0  0  0  0  0  0  0  0  0  0
   38.0610   25.7350   40.1230 C   0  0  0  0  0  0  0  0  0  0  0  0
   37.9210   26.3010   41.3540 N   0  0  0  0  0  0  0  0  0  0  0  0
   37.1160   27.3630   41.5610 C   0  0  0  0  0  0  0  0  0  0  0  0
   36.4180   27.9040   40.5410 N   0  0  0  0  0  0  0  0  0  0  0  0
   37.4930   25.7820   38.1120 H   0  0  0  0  0  0  0  0  0  0  0  0
   38.7150   24.8830   39.9900 H   0  0  0  0  0  0  0  0  0  0  0  0
   37.0980   27.8400   42.9840 C   0  0  0  0  0  0  0  0  0  0  0  0
   36.0110   27.3670   43.6710 F   0  0  0  0  0  0  0  0  0  0  0  0
   37.0790   29.2340   43.0150 F   0  0  0  0  0  0  0  0  0  0  0  0
   38.2970   27.4760   43.5940 F   0  0  0  0  0  0  0  0  0  0  0  0
  1  4  1  6  0  0  0
  1  2  1  0  0  0  0
  1 20  1  0  0  0  0
  2  5  1  0  0  0  0
  3  7  1  6  0  0  0
  3  8  1  0  0  0  0
  3  1  1  0  0  0  0
  3  2  1  0  0  0  0
  6  2  1  0  0  0  0
  8 19  1  0  0  0  0
  9 11  1  0  0  0  0
  9  8  2  0  0  0  0
 10  9  1  0  0  0  0
 11 12  2  0  0  0  0
 12 13  1  0  0  0  0
 12 18  1  0  0  0  0
 13 14  2  0  0  0  0
 14 15  1  0  0  0  0
 14 16  1  0  0  0  0
 17 16  2  0  0  0  0
 18 17  1  0  0  0  0
 19 18  2  0  0  0  0
 20 25  1  0  0  0  0
 21 20  2  0  0  0  0
 21 22  1  0  0  0  0
 22 23  2  0  0  0  0
 23 24  1  0  0  0  0
 24 28  1  0  0  0  0
 25 24  2  0  0  0  0
 26 21  1  0  0  0  0
 27 22  1  0  0  0  0
 28 30  1  0  0  0  0
 28 31  1  0  0  0  0
 28 29  1  0  0  0  0
M  END
>  <minimizedAffinity>
-6.18924856

$$$$

 OpenBabel03252505413D

 31 34  0  0  1  0  0  0  0  0999 V2000
   38.0560   28.2400   43.5940 C   0  0  1  0  0  0  0  0  0  0  0  0
   38.9260   29.3600   42.9920 C   0  0  0  0  0  0  0  0  0  0  0  0
   37.4590   29.2780   42.7630 C   0  0  1  0  0  0  0  0  0  0  0  0
   37.9830   28.3500   44.7150 H   0  0  0  0  0  0  0  0  0  0  0  0
   39.6560   29.0690   42.2140 H   0  0  0  0  0  0  0  0  0  0  0  0
   39.2870   30.1650   43.6830 H   0  0  0  0  0  0  0  0  0  0  0  0
   36.7880   30.0170   43.2980 H   0  0  0  0  0  0  0  0  0  0  0  0
   37.1020   29.1550   41.3400 C   0  0  0  0  0  0  0  0  0  0  0  0
   38.1490   29.0980   40.4080 C   0  0  0  0  0  0  0  0  0  0  0  0
   39.2060   29.1540   40.7150 H   0  0  0  0  0  0  0  0  0  0  0  0
   37.9600   28.9660   39.0280 C   0  0  0  0  0  3  0  0  0  0  0  0
   36.6680   28.8880   38.5540 C   0  0  0  0  0  0  0  0  0  0  0  0
   36.4220   28.7610   37.2380 N   0  0  0  0  0  0  0  0  0  0  0  0
   35.1620   28.6870   36.7820 C   0  0  0  0  0  0  0  0  0  0  0  0
   35.0320   28.5850   35.7130 H   0  0  0  0  0  0  0  0  0  0  0  0
   34.0640   28.7350   37.6330 C   0  0  0  0  0  3  0  0  0  0  0  0
   34.2830   28.8680   39.0080 C   0  0  0  0  0  3  0  0  0  0  0  0
   35.6040   28.9400   39.4290 C   0  0  0  0  0  0  0  0  0  0  0  0
   35.8430   29.0710   40.7800 C   0  0  0  0  0  3  0  0  0  0  0  0
   38.3800   26.8800   43.1220 C   0  0  0  0  0  0  0  0  0  0  0  0
   39.5920   26.3190   43.5970 C   0  0  0  0  0  0  0  0  0  0  0  0
   39.9130   25.0350   43.1840 C   0  0  0  0  0  0  0  0  0  0  0  0
   39.0530   24.3880   42.3490 N   0  0  0  0  0  0  0  0  0  0  0  0
   37.9100   24.9630   41.9210 C   0  0  0  0  0  0  0  0  0  0  0  0
   37.5810   26.2110   42.3130 N   0  0  0  0  0  0  0  0  0  0  0  0
   40.3150   26.7870   44.2510 H   0  0  0  0  0  0  0  0  0  0  0  0
   40.8220   24.5460   43.5090 H   0  0  0  0  0  0  0  0  0  0  0  0
   37.0990   24.0900   41.0090 C   0  0  0  0  0  0  0  0  0  0  0  0
   37.6660   22.8530   40.8430 F   0  0  0  0  0  0  0  0  0  0  0  0
   36.9750   24.6990   39.7600 F   0  0  0  0  0  0  0  0  0  0  0  0
   35.8010   24.0040   41.5050 F   0  0  0  0  0  0  0  0  0  0  0  0
  1  4  1  1  0  0  0
  2  1  1  0  0  0  0
  2  6  1  0  0  0  0
  3  2  1  0  0  0  0
  3  7  1  1  0  0  0
  3  1  1  0  0  0  0
  5  2  1  0  0  0  0
  8  3  1  0  0  0  0
  9 10  1  0  0  0  0
  9  8  2  0  0  0  0
 11  9  1  0  0  0  0
 12 11  2  0  0  0  0
 12 18  1  0  0  0  0
 13 12  1  0  0  0  0
 14 13  2  0  0  0  0
 14 16  1  0  0  0  0
 15 14  1  0  0  0  0
 16 17  2  0  0  0  0
 17 18  1  0  0  0  0
 18 19  2  0  0  0  0
 19  8  1  0  0  0  0
 20  1  1  0  0  0  0
 20 21  1  0  0  0  0
 21 26  1  0  0  0  0
 22 27  1  0  0  0  0
 22 21  2  0  0  0  0
 23 22  1  0  0  0  0
 24 25  1  0  0  0  0
 24 23  2  0  0  0  0
 25 20  2  0  0  0  0
 28 31  1  0  0  0  0
 28 24  1  0  0  0  0
 29 28  1  0  0  0  0
 30 28  1  0  0  0  0
M  END
>  <minimizedAffinity>
-6.04843521

$$$$

 OpenBabel03252505413D

 31 34  0  0  1  0  0  0  0  0999 V2000
   35.7030   28.0310   38.3790 C   0  0  1  0  0  0  0  0  0  0  0  0
   34.7390   29.1280   38.8710 C   0  0  0  0  0  0  0  0  0  0  0  0
   35.8100   29.3940   37.8730 C   0  0  1  0  0  0  0  0  0  0  0  0
   35.1550   27.2730   37.7470 H   0  0  0  0  0  0  0  0  0  0  0  0
   34.8330   29.4450   39.9270 H   0  0  0  0  0  0  0  0  0  0  0  0
   33.6860   29.1030   38.4900 H   0  0  0  0  0  0  0  0  0  0  0  0
   35.5120   29.5470   36.7920 H   0  0  0  0  0  0  0  0  0  0  0  0
   36.7750   30.4130   38.3190 C   0  0  0  0  0  0  0  0  0  0  0  0
   36.4540   31.1600   39.4620 C   0  0  0  0  0  0  0  0  0  0  0  0
   35.5100   31.0070   40.0100 H   0  0  0  0  0  0  0  0  0  0  0  0
   37.2800   32.1480   40.0080 C   0  0  0  0  0  3  0  0  0  0  0  0
   38.4830   32.4050   39.3850 C   0  0  0  0  0  0  0  0  0  0  0  0
   39.3190   33.3430   39.8610 N   0  0  0  0  0  0  0  0  0  0  0  0
   40.4890   33.5900   39.2510 C   0  0  0  0  0  0  0  0  0  0  0  0
   41.1170   34.3560   39.6830 H   0  0  0  0  0  0  0  0  0  0  0  0
   40.8890   32.8980   38.1130 C   0  0  0  0  0  3  0  0  0  0  0  0
   40.0420   31.9160   37.5900 C   0  0  0  0  0  3  0  0  0  0  0  0
   38.8450   31.6980   38.2580 C   0  0  0  0  0  0  0  0  0  0  0  0
   37.9950   30.7350   37.7600 C   0  0  0  0  0  3  0  0  0  0  0  0
   36.5770   27.4580   39.4210 C   0  0  0  0  0  0  0  0  0  0  0  0
   37.5270   26.4980   38.9900 C   0  0  0  0  0  0  0  0  0  0  0  0
   38.3740   25.9560   39.9440 C   0  0  0  0  0  0  0  0  0  0  0  0
   38.2450   26.3710   41.2350 N   0  0  0  0  0  0  0  0  0  0  0  0
   37.3240   27.2870   41.5990 C   0  0  0  0  0  0  0  0  0  0  0  0
   36.4930   27.8260   40.6840 N   0  0  0  0  0  0  0  0  0  0  0  0
   37.6680   26.1260   37.9840 H   0  0  0  0  0  0  0  0  0  0  0  0
   39.1230   25.2200   39.6840 H   0  0  0  0  0  0  0  0  0  0  0  0
   37.3420   27.6110   43.0650 C   0  0  0  0  0  0  0  0  0  0  0  0
   37.4480   28.9590   43.2920 F   0  0  0  0  0  0  0  0  0  0  0  0
   38.4160   26.9660   43.6780 F   0  0  0  0  0  0  0  0  0  0  0  0
   36.2030   27.0720   43.6580 F   0  0  0  0  0  0  0  0  0  0  0  0
  1  4  1  6  0  0  0
  1  2  1  0  0  0  0
  1 20  1  0  0  0  0
  2  5  1  0  0  0  0
  3  7  1  6  0  0  0
  3  8  1  0  0  0  0
  3  1  1  0  0  0  0
  3  2  1  0  0  0  0
  6  2  1  0  0  0  0
  8  9  1  0  0  0  0
  9 11  2  0  0  0  0
  9 10  1  0  0  0  0
 12 13  1  0  0  0  0
 12 11  1  0  0  0  0
 14 15  1  0  0  0  0
 14 13  2  0  0  0  0
 16 14  1  0  0  0  0
 17 16  2  0  0  0  0
 17 18  1  0  0  0  0
 18 12  2  0  0  0  0
 19 18  1  0  0  0  0
 19  8  2  0  0  0  0
 20 25  1  0  0  0  0
 21 20  2  0  0  0  0
 21 22  1  0  0  0  0
 22 23  2  0  0  0  0
 23 24  1  0  0  0  0
 24 28  1  0  0  0  0
 25 24  2  0  0  0  0
 26 21  1  0  0  0  0
 27 22  1  0  0  0  0
 28 29  1  0  0  0  0
 28 31  1  0  0  0  0
 28 30  1  0  0  0  0
M  END
>  <minimizedAffinity>
-6.03669786

$$$$

 OpenBabel03252505413D

 31 34  0  0  1  0  0  0  0  0999 V2000
   37.5910   28.9770   43.0100 C   0  0  1  0  0  0  0  0  0  0  0  0
   36.8990   27.7750   43.6790 C   0  0  0  0  0  0  0  0  0  0  0  0
   38.3240   27.7410   43.2550 C   0  0  1  0  0  0  0  0  0  0  0  0
   37.7190   29.8240   43.7450 H   0  0  0  0  0  0  0  0  0  0  0  0
   36.1040   27.2640   43.1030 H   0  0  0  0  0  0  0  0  0  0  0  0
   36.6990   27.8380   44.7800 H   0  0  0  0  0  0  0  0  0  0  0  0
   39.1250   27.7890   44.0530 H   0  0  0  0  0  0  0  0  0  0  0  0
   38.6070   26.6880   42.2660 C   0  0  0  0  0  0  0  0  0  0  0  0
   39.7420   26.8400   41.4570 C   0  0  0  0  0  0  0  0  0  0  0  0
   40.4030   27.7180   41.5420 H   0  0  0  0  0  0  0  0  0  0  0  0
   40.1420   25.9140   40.4880 C   0  0  0  0  0  3  0  0  0  0  0  0
   39.3720   24.7830   40.3140 C   0  0  0  0  0  0  0  0  0  0  0  0
   39.7040   23.8570   39.3980 N   0  0  0  0  0  0  0  0  0  0  0  0
   38.9510   22.7590   39.2330 C   0  0  0  0  0  0  0  0  0  0  0  0
   39.2720   22.0520   38.4800 H   0  0  0  0  0  0  0  0  0  0  0  0
   37.8090   22.5250   39.9900 C   0  0  0  0  0  3  0  0  0  0  0  0
   37.4340   23.4680   40.9510 C   0  0  0  0  0  3  0  0  0  0  0  0
   38.2460   24.5870   41.0840 C   0  0  0  0  0  0  0  0  0  0  0  0
   37.8950   25.5290   42.0260 C   0  0  0  0  0  3  0  0  0  0  0  0
   37.0310   29.3680   41.7010 C   0  0  0  0  0  0  0  0  0  0  0  0
   35.9230   28.6150   41.2390 C   0  0  0  0  0  0  0  0  0  0  0  0
   35.3650   28.9710   40.0200 C   0  0  0  0  0  0  0  0  0  0  0  0
   35.9100   30.0170   39.3390 N   0  0  0  0  0  0  0  0  0  0  0  0
   36.9670   30.7050   39.8190 C   0  0  0  0  0  0  0  0  0  0  0  0
   37.5220   30.3730   41.0030 N   0  0  0  0  0  0  0  0  0  0  0  0
   35.4560   27.7720   41.7310 H   0  0  0  0  0  0  0  0  0  0  0  0
   34.5170   28.4390   39.6090 H   0  0  0  0  0  0  0  0  0  0  0  0
   37.4190   31.8200   38.9220 C   0  0  0  0  0  0  0  0  0  0  0  0
   37.1680   31.5520   37.6020 F   0  0  0  0  0  0  0  0  0  0  0  0
   38.7880   32.0330   39.0870 F   0  0  0  0  0  0  0  0  0  0  0  0
   36.8110   33.0040   39.3360 F   0  0  0  0  0  0  0  0  0  0  0  0
  1  3  1  0  0  0  0
  1  2  1  0  0  0  0
  1  4  1  1  0  0  0
  2  6  1  0  0  0  0
  3  2  1  0  0  0  0
  3  7  1  1  0  0  0
  5  2  1  0  0  0  0
  8  3  1  0  0  0  0
  9 10  1  0  0  0  0
  9  8  2  0  0  0  0
 11  9  1  0  0  0  0
 12 11  2  0  0  0  0
 12 18  1  0  0  0  0
 13 12  1  0  0  0  0
 14 13  2  0  0  0  0
 14 16  1  0  0  0  0
 15 14  1  0  0  0  0
 16 17  2  0  0  0  0
 17 18  1  0  0  0  0
 18 19  2  0  0  0  0
 19  8  1  0  0  0  0
 20  1  1  0  0  0  0
 21 20  1  0  0  0  0
 21 26  1  0  0  0  0
 22 21  2  0  0  0  0
 23 24  2  0  0  0  0
 23 22  1  0  0  0  0
 24 25  1  0  0  0  0
 25 20  2  0  0  0  0
 27 22  1  0  0  0  0
 28 30  1  0  0  0  0
 28 31  1  0  0  0  0
 28 24  1  0  0  0  0
 29 28  1  0  0  0  0
M  END
>  <minimizedAffinity>
-5.99883127

$$$$

 OpenBabel03252505413D

 31 34  0  0  1  0  0  0  0  0999 V2000
   36.8720   25.3820   42.4580 C   0  0  1  0  0  0  0  0  0  0  0  0
   37.0190   24.6770   41.0970 C   0  0  0  0  0  0  0  0  0  0  0  0
   37.9450   24.4210   42.2330 C   0  0  1  0  0  0  0  0  0  0  0  0
   35.9440   25.0260   42.9940 H   0  0  0  0  0  0  0  0  0  0  0  0
   37.3130   25.3030   40.2330 H   0  0  0  0  0  0  0  0  0  0  0  0
   36.2850   23.8670   40.8490 H   0  0  0  0  0  0  0  0  0  0  0  0
   37.8560   23.4390   42.7900 H   0  0  0  0  0  0  0  0  0  0  0  0
   39.3470   24.7420   41.9190 C   0  0  0  0  0  0  0  0  0  0  0  0
   39.6910   24.9150   40.5710 C   0  0  0  0  0  0  0  0  0  0  0  0
   38.9490   24.8080   39.7630 H   0  0  0  0  0  0  0  0  0  0  0  0
   40.9780   25.2370   40.1270 C   0  0  0  0  0  3  0  0  0  0  0  0
   41.9700   25.3910   41.0720 C   0  0  0  0  0  0  0  0  0  0  0  0
   43.2270   25.6990   40.7080 N   0  0  0  0  0  0  0  0  0  0  0  0
   44.1890   25.8480   41.6310 C   0  0  0  0  0  0  0  0  0  0  0  0
   45.1800   26.0960   41.2740 H   0  0  0  0  0  0  0  0  0  0  0  0
   43.9390   25.6940   42.9900 C   0  0  0  0  0  3  0  0  0  0  0  0
   42.6430   25.3730   43.4040 C   0  0  0  0  0  3  0  0  0  0  0  0
   41.6840   25.2310   42.4110 C   0  0  0  0  0  0  0  0  0  0  0  0
   40.3990   24.9140   42.7960 C   0  0  0  0  0  3  0  0  0  0  0  0
   37.0450   26.8480   42.4210 C   0  0  0  0  0  0  0  0  0  0  0  0
   37.8790   27.4100   43.4190 C   0  0  0  0  0  0  0  0  0  0  0  0
   38.0750   28.7830   43.3980 C   0  0  0  0  0  0  0  0  0  0  0  0
   37.4560   29.5100   42.4260 N   0  0  0  0  0  0  0  0  0  0  0  0
   36.6690   28.9310   41.4970 C   0  0  0  0  0  0  0  0  0  0  0  0
   36.4690   27.5970   41.5020 N   0  0  0  0  0  0  0  0  0  0  0  0
   38.3870   26.8850   44.2170 H   0  0  0  0  0  0  0  0  0  0  0  0
   38.7000   29.2770   44.1290 H   0  0  0  0  0  0  0  0  0  0  0  0
   36.0800   29.9010   40.5140 C   0  0  0  0  0  0  0  0  0  0  0  0
   36.8220   29.9820   39.3640 F   0  0  0  0  0  0  0  0  0  0  0  0
   36.0040   31.1690   41.0910 F   0  0  0  0  0  0  0  0  0  0  0  0
   34.7610   29.5350   40.2570 F   0  0  0  0  0  0  0  0  0  0  0  0
  1  4  1  1  0  0  0
  2  3  1  0  0  0  0
  2  1  1  0  0  0  0
  3  1  1  0  0  0  0
  3  7  1  1  0  0  0
  5  2  1  0  0  0  0
  6  2  1  0  0  0  0
  8  3  1  0  0  0  0
  8 19  1  0  0  0  0
  9  8  2  0  0  0  0
 10  9  1  0  0  0  0
 11  9  1  0  0  0  0
 11 12  2  0  0  0  0
 12 18  1  0  0  0  0
 13 12  1  0  0  0  0
 13 14  2  0  0  0  0
 14 16  1  0  0  0  0
 15 14  1  0  0  0  0
 16 17  2  0  0  0  0
 18 19  2  0  0  0  0
 18 17  1  0  0  0  0
 20  1  1  0  0  0  0
 20 21  1  0  0  0  0
 21 26  1  0  0  0  0
 22 21  2  0  0  0  0
 22 27  1  0  0  0  0
 23 22  1  0  0  0  0
 24 25  1  0  0  0  0
 24 23  2  0  0  0  0
 25 20  2  0  0  0  0
 28 30  1  0  0  0  0
 28 24  1  0  0  0  0
 29 28  1  0  0  0  0
 31 28  1  0  0  0  0
M  END
>  <minimizedAffinity>
-5.99110556

$$$$

 OpenBabel03252505413D

 31 34  0  0  1  0  0  0  0  0999 V2000
   35.5300   29.9670   39.7640 C   0  0  1  0  0  0  0  0  0  0  0  0
   35.3430   28.5330   39.2330 C   0  0  0  0  0  0  0  0  0  0  0  0
   35.3790   28.8480   40.6860 C   0  0  1  0  0  0  0  0  0  0  0  0
   34.6200   30.5970   39.5400 H   0  0  0  0  0  0  0  0  0  0  0  0
   36.2040   28.0710   38.7130 H   0  0  0  0  0  0  0  0  0  0  0  0
   34.3460   28.2660   38.7950 H   0  0  0  0  0  0  0  0  0  0  0  0
   34.4080   28.8130   41.2690 H   0  0  0  0  0  0  0  0  0  0  0  0
   36.4660   28.1580   41.4000 C   0  0  0  0  0  0  0  0  0  0  0  0
   36.9330   28.7340   42.5900 C   0  0  0  0  0  0  0  0  0  0  0  0
   36.5170   29.6760   42.9830 H   0  0  0  0  0  0  0  0  0  0  0  0
   37.9470   28.1830   43.3800 C   0  0  0  0  0  3  0  0  0  0  0  0
   38.5250   27.0020   42.9640 C   0  0  0  0  0  0  0  0  0  0  0  0
   39.5040   26.4240   43.6790 N   0  0  0  0  0  0  0  0  0  0  0  0
   40.0640   25.2750   43.2690 C   0  0  0  0  0  0  0  0  0  0  0  0
   40.8470   24.8600   43.8890 H   0  0  0  0  0  0  0  0  0  0  0  0
   39.6640   24.6340   42.1020 C   0  0  0  0  0  3  0  0  0  0  0  0
   38.6480   25.2080   41.3330 C   0  0  0  0  0  3  0  0  0  0  0  0
   38.1020   26.3960   41.8000 C   0  0  0  0  0  0  0  0  0  0  0  0
   37.0980   26.9800   41.0580 C   0  0  0  0  0  3  0  0  0  0  0  0
   36.8200   30.5940   39.4200 C   0  0  0  0  0  0  0  0  0  0  0  0
   37.1940   30.5620   38.0530 C   0  0  0  0  0  0  0  0  0  0  0  0
   38.3940   31.1600   37.6980 C   0  0  0  0  0  0  0  0  0  0  0  0
   39.1430   31.7400   38.6760 N   0  0  0  0  0  0  0  0  0  0  0  0
   38.7480   31.7450   39.9660 C   0  0  0  0  0  0  0  0  0  0  0  0
   37.5830   31.1690   40.3290 N   0  0  0  0  0  0  0  0  0  0  0  0
   36.6450   30.1100   37.2370 H   0  0  0  0  0  0  0  0  0  0  0  0
   38.7390   31.1720   36.6720 H   0  0  0  0  0  0  0  0  0  0  0  0
   39.7100   32.4320   40.8900 C   0  0  0  0  0  0  0  0  0  0  0  0
   39.4390   33.7710   41.0110 F   0  0  0  0  0  0  0  0  0  0  0  0
   41.0130   32.2780   40.4150 F   0  0  0  0  0  0  0  0  0  0  0  0
   39.6900   31.7850   42.1230 F   0  0  0  0  0  0  0  0  0  0  0  0
  1  4  1  6  0  0  0
  1  3  1  0  0  0  0
  2  1  1  0  0  0  0
  2  3  1  0  0  0  0
  3  7  1  1  0  0  0
  3  8  1  0  0  0  0
  5  2  1  0  0  0  0
  6  2  1  0  0  0  0
  8  9  1  0  0  0  0
  9 10  1  0  0  0  0
  9 11  2  0  0  0  0
 12 11  1  0  0  0  0
 12 13  1  0  0  0  0
 14 13  2  0  0  0  0
 14 15  1  0  0  0  0
 16 14  1  0  0  0  0
 17 18  1  0  0  0  0
 17 16  2  0  0  0  0
 18 12  2  0  0  0  0
 19  8  2  0  0  0  0
 19 18  1  0  0  0  0
 20  1  1  0  0  0  0
 20 25  1  0  0  0  0
 21 20  2  0  0  0  0
 22 21  1  0  0  0  0
 22 23  2  0  0  0  0
 23 24  1  0  0  0  0
 24 25  2  0  0  0  0
 24 28  1  0  0  0  0
 26 21  1  0  0  0  0
 27 22  1  0  0  0  0
 28 29  1  0  0  0  0
 28 31  1  0  0  0  0
 30 28  1  0  0  0  0
M  END
>  <minimizedAffinity>
-5.93628836

$$$$

 OpenBabel03252505413D

 31 34  0  0  1  0  0  0  0  0999 V2000
   37.1900   26.8820   42.9190 C   0  0  1  0  0  0  0  0  0  0  0  0
   38.5070   27.2190   43.6430 C   0  0  0  0  0  0  0  0  0  0  0  0
   37.4310   28.2240   43.4340 C   0  0  1  0  0  0  0  0  0  0  0  0
   36.5620   26.1800   43.5400 H   0  0  0  0  0  0  0  0  0  0  0  0
   39.4320   27.2190   43.0350 H   0  0  0  0  0  0  0  0  0  0  0  0
   38.6430   26.8290   44.6840 H   0  0  0  0  0  0  0  0  0  0  0  0
   36.8030   28.5330   44.3250 H   0  0  0  0  0  0  0  0  0  0  0  0
   37.8720   29.3900   42.6510 C   0  0  0  0  0  0  0  0  0  0  0  0
   39.1800   29.8540   42.8530 C   0  0  0  0  0  0  0  0  0  0  0  0
   39.8610   29.3790   43.5770 H   0  0  0  0  0  0  0  0  0  0  0  0
   39.7380   30.9400   42.1700 C   0  0  0  0  0  3  0  0  0  0  0  0
   38.9560   31.5950   41.2430 C   0  0  0  0  0  0  0  0  0  0  0  0
   39.4350   32.6460   40.5550 N   0  0  0  0  0  0  0  0  0  0  0  0
   38.6690   33.2800   39.6540 C   0  0  0  0  0  0  0  0  0  0  0  0
   39.1140   34.1180   39.1340 H   0  0  0  0  0  0  0  0  0  0  0  0
   37.3620   32.8890   39.3900 C   0  0  0  0  0  3  0  0  0  0  0  0
   36.8300   31.8010   40.0880 C   0  0  0  0  0  3  0  0  0  0  0  0
   37.6630   31.1780   41.0080 C   0  0  0  0  0  0  0  0  0  0  0  0
   37.1600   30.1030   41.7080 C   0  0  0  0  0  3  0  0  0  0  0  0
   37.3410   26.4950   41.5020 C   0  0  0  0  0  0  0  0  0  0  0  0
   38.3710   25.5680   41.2070 C   0  0  0  0  0  0  0  0  0  0  0  0
   38.5240   25.1730   39.8870 C   0  0  0  0  0  0  0  0  0  0  0  0
   37.6820   25.6960   38.9520 N   0  0  0  0  0  0  0  0  0  0  0  0
   36.7150   26.5780   39.2800 C   0  0  0  0  0  0  0  0  0  0  0  0
   36.5520   26.9720   40.5590 N   0  0  0  0  0  0  0  0  0  0  0  0
   39.0720   25.1280   41.9040 H   0  0  0  0  0  0  0  0  0  0  0  0
   39.2890   24.4670   39.5920 H   0  0  0  0  0  0  0  0  0  0  0  0
   35.8940   27.0350   38.1100 C   0  0  0  0  0  0  0  0  0  0  0  0
   34.8820   26.1580   37.8180 F   0  0  0  0  0  0  0  0  0  0  0  0
   36.7090   27.1730   36.9860 F   0  0  0  0  0  0  0  0  0  0  0  0
   35.4120   28.3160   38.3730 F   0  0  0  0  0  0  0  0  0  0  0  0
  1  3  1  0  0  0  0
  1  4  1  1  0  0  0
  1  2  1  0  0  0  0
  2  6  1  0  0  0  0
  3  2  1  0  0  0  0
  3  7  1  1  0  0  0
  5  2  1  0  0  0  0
  8  9  1  0  0  0  0
  8  3  1  0  0  0  0
  9 10  1  0  0  0  0
 11  9  2  0  0  0  0
 12 11  1  0  0  0  0
 13 12  2  0  0  0  0
 14 13  1  0  0  0  0
 15 14  1  0  0  0  0
 16 14  2  0  0  0  0
 16 17  1  0  0  0  0
 17 18  2  0  0  0  0
 18 12  1  0  0  0  0
 18 19  1  0  0  0  0
 19  8  2  0  0  0  0
 20  1  1  0  0  0  0
 21 20  1  0  0  0  0
 21 26  1  0  0  0  0
 22 21  2  0  0  0  0
 23 24  2  0  0  0  0
 23 22  1  0  0  0  0
 24 25  1  0  0  0  0
 25 20  2  0  0  0  0
 27 22  1  0  0  0  0
 28 31  1  0  0  0  0
 28 24  1  0  0  0  0
 29 28  1  0  0  0  0
 30 28  1  0  0  0  0
M  END
>  <minimizedAffinity>
-5.93216276

$$$$

 OpenBabel03252505413D

 31 34  0  0  1  0  0  0  0  0999 V2000
   38.3740   29.0280   43.1870 C   0  0  1  0  0  0  0  0  0  0  0  0
   36.9780   28.4600   43.5050 C   0  0  0  0  0  0  0  0  0  0  0  0
   38.2220   27.6640   43.6800 C   0  0  1  0  0  0  0  0  0  0  0  0
   38.6560   29.8310   43.9280 H   0  0  0  0  0  0  0  0  0  0  0  0
   36.2930   28.2960   42.6510 H   0  0  0  0  0  0  0  0  0  0  0  0
   36.4700   28.8200   44.4370 H   0  0  0  0  0  0  0  0  0  0  0  0
   38.5950   27.4720   44.7310 H   0  0  0  0  0  0  0  0  0  0  0  0
   38.2420   26.4380   42.8640 C   0  0  0  0  0  0  0  0  0  0  0  0
   39.3780   25.6200   42.9460 C   0  0  0  0  0  0  0  0  0  0  0  0
   40.2380   25.8790   43.5860 H   0  0  0  0  0  0  0  0  0  0  0  0
   39.5300   24.4210   42.2420 C   0  0  0  0  0  3  0  0  0  0  0  0
   38.5020   24.0180   41.4160 C   0  0  0  0  0  0  0  0  0  0  0  0
   38.5880   22.8760   40.7130 N   0  0  0  0  0  0  0  0  0  0  0  0
   37.5850   22.4900   39.9100 C   0  0  0  0  0  0  0  0  0  0  0  0
   37.7160   21.5610   39.3710 H   0  0  0  0  0  0  0  0  0  0  0  0
   36.4220   23.2380   39.7680 C   0  0  0  0  0  3  0  0  0  0  0  0
   36.2980   24.4320   40.4840 C   0  0  0  0  0  3  0  0  0  0  0  0
   37.3640   24.7880   41.3000 C   0  0  0  0  0  0  0  0  0  0  0  0
   37.2630   25.9610   42.0160 C   0  0  0  0  0  3  0  0  0  0  0  0
   38.5940   29.3820   41.7720 C   0  0  0  0  0  0  0  0  0  0  0  0
   39.8100   28.9420   41.1920 C   0  0  0  0  0  0  0  0  0  0  0  0
   40.0360   29.2450   39.8580 C   0  0  0  0  0  0  0  0  0  0  0  0
   39.0830   29.9470   39.1830 N   0  0  0  0  0  0  0  0  0  0  0  0
   37.9400   30.3460   39.7770 C   0  0  0  0  0  0  0  0  0  0  0  0
   37.7030   30.0590   41.0740 N   0  0  0  0  0  0  0  0  0  0  0  0
   40.6040   28.3920   41.6800 H   0  0  0  0  0  0  0  0  0  0  0  0
   40.9430   28.9390   39.3530 H   0  0  0  0  0  0  0  0  0  0  0  0
   37.0190   31.1040   38.8660 C   0  0  0  0  0  0  0  0  0  0  0  0
   36.6050   32.2870   39.4220 F   0  0  0  0  0  0  0  0  0  0  0  0
   35.8980   30.3270   38.5740 F   0  0  0  0  0  0  0  0  0  0  0  0
   37.6580   31.3000   37.6440 F   0  0  0  0  0  0  0  0  0  0  0  0
  1  2  1  0  0  0  0
  1  3  1  0  0  0  0
  1  4  1  1  0  0  0
  2  3  1  0  0  0  0
  2  6  1  0  0  0  0
  3  7  1  1  0  0  0
  5  2  1  0  0  0  0
  8  9  1  0  0  0  0
  8  3  1  0  0  0  0
  9 10  1  0  0  0  0
 11  9  2  0  0  0  0
 12 11  1  0  0  0  0
 13 12  2  0  0  0  0
 14 13  1  0  0  0  0
 15 14  1  0  0  0  0
 16 14  2  0  0  0  0
 16 17  1  0  0  0  0
 17 18  2  0  0  0  0
 18 12  1  0  0  0  0
 18 19  1  0  0  0  0
 19  8  2  0  0  0  0
 20  1  1  0  0  0  0
 21 26  1  0  0  0  0
 21 20  1  0  0  0  0
 22 21  2  0  0  0  0
 23 24  2  0  0  0  0
 23 22  1  0  0  0  0
 24 25  1  0  0  0  0
 25 20  2  0  0  0  0
 27 22  1  0  0  0  0
 28 29  1  0  0  0  0
 28 24  1  0  0  0  0
 30 28  1  0  0  0  0
 31 28  1  0  0  0  0
M  END
>  <minimizedAffinity>
-5.93206072

$$$$

 OpenBabel03252505413D

 31 34  0  0  1  0  0  0  0  0999 V2000
   37.1470   26.8080   42.6740 C   0  0  1  0  0  0  0  0  0  0  0  0
   38.2280   27.2560   43.6760 C   0  0  0  0  0  0  0  0  0  0  0  0
   37.1560   28.1690   43.1950 C   0  0  1  0  0  0  0  0  0  0  0  0
   36.4470   26.0610   43.1500 H   0  0  0  0  0  0  0  0  0  0  0  0
   39.2670   27.3260   43.3000 H   0  0  0  0  0  0  0  0  0  0  0  0
   38.1440   26.8870   44.7300 H   0  0  0  0  0  0  0  0  0  0  0  0
   36.3150   28.4330   43.9060 H   0  0  0  0  0  0  0  0  0  0  0  0
   37.6780   29.3600   42.5050 C   0  0  0  0  0  0  0  0  0  0  0  0
   38.9760   29.7830   42.8240 C   0  0  0  0  0  0  0  0  0  0  0  0
   39.5920   29.2570   43.5720 H   0  0  0  0  0  0  0  0  0  0  0  0
   39.6060   30.8860   42.2390 C   0  0  0  0  0  3  0  0  0  0  0  0
   38.9080   31.6040   41.2910 C   0  0  0  0  0  0  0  0  0  0  0  0
   39.4580   32.6740   40.6920 N   0  0  0  0  0  0  0  0  0  0  0  0
   38.7740   33.3690   39.7700 C   0  0  0  0  0  0  0  0  0  0  0  0
   39.2720   34.2200   39.3260 H   0  0  0  0  0  0  0  0  0  0  0  0
   37.4820   33.0230   39.3920 C   0  0  0  0  0  3  0  0  0  0  0  0
   36.8780   31.9150   39.9950 C   0  0  0  0  0  3  0  0  0  0  0  0
   37.6270   31.2300   40.9420 C   0  0  0  0  0  0  0  0  0  0  0  0
   37.0520   30.1340   41.5480 C   0  0  0  0  0  3  0  0  0  0  0  0
   37.6550   26.4220   41.3430 C   0  0  0  0  0  0  0  0  0  0  0  0
   36.7860   26.6470   40.2460 C   0  0  0  0  0  0  0  0  0  0  0  0
   37.2430   26.3110   38.9810 C   0  0  0  0  0  0  0  0  0  0  0  0
   38.4940   25.7850   38.8630 N   0  0  0  0  0  0  0  0  0  0  0  0
   39.2860   25.5870   39.9370 C   0  0  0  0  0  0  0  0  0  0  0  0
   38.8580   25.9090   41.1750 N   0  0  0  0  0  0  0  0  0  0  0  0
   35.7830   27.0520   40.2810 H   0  0  0  0  0  0  0  0  0  0  0  0
   36.6320   26.4580   38.1000 H   0  0  0  0  0  0  0  0  0  0  0  0
   40.6250   24.9990   39.5990 C   0  0  0  0  0  0  0  0  0  0  0  0
   40.5140   23.7440   39.0580 F   0  0  0  0  0  0  0  0  0  0  0  0
   41.4120   24.9260   40.7490 F   0  0  0  0  0  0  0  0  0  0  0  0
   41.2980   25.8730   38.7490 F   0  0  0  0  0  0  0  0  0  0  0  0
  1  4  1  1  0  0  0
  1  3  1  0  0  0  0
  1  2  1  0  0  0  0
  2  6  1  0  0  0  0
  3  2  1  0  0  0  0
  3  7  1  1  0  0  0
  5  2  1  0  0  0  0
  8  9  1  0  0  0  0
  8  3  1  0  0  0  0
  9 10  1  0  0  0  0
 11  9  2  0  0  0  0
 12 11  1  0  0  0  0
 13 12  2  0  0  0  0
 14 13  1  0  0  0  0
 15 14  1  0  0  0  0
 16 14  2  0  0  0  0
 16 17  1  0  0  0  0
 17 18  2  0  0  0  0
 18 12  1  0  0  0  0
 18 19  1  0  0  0  0
 19  8  2  0  0  0  0
 20  1  1  0  0  0  0
 21 26  1  0  0  0  0
 21 20  2  0  0  0  0
 22 21  1  0  0  0  0
 23 22  2  0  0  0  0
 23 24  1  0  0  0  0
 24 25  2  0  0  0  0
 25 20  1  0  0  0  0
 27 22  1  0  0  0  0
 28 24  1  0  0  0  0
 28 30  1  0  0  0  0
 29 28  1  0  0  0  0
 31 28  1  0  0  0  0
M  END
>  <minimizedAffinity>
-5.76502848

$$$$
