
 OpenBabel03252507273D

 30 33  0  0  0  0  0  0  0  0999 V2000
   45.9970   33.7720   43.7960 C   0  0  0  0  0  0  0  0  0  0  0  0
   45.2580   34.9230   44.0720 C   0  0  0  0  0  0  0  0  0  0  0  0
   44.9710   35.7950   42.9980 C   0  0  0  0  0  0  0  0  0  0  0  0
   45.4300   35.4710   41.7380 N   0  0  0  0  0  0  0  0  0  0  0  0
   46.1440   34.3370   41.5410 C   0  0  0  0  0  0  0  0  0  0  0  0
   46.4160   33.5160   42.5460 N   0  0  0  0  0  0  0  0  0  0  0  0
   44.8990   35.1820   45.0350 H   0  0  0  0  0  0  0  0  0  0  0  0
   44.4090   36.6880   43.1530 H   0  0  0  0  0  0  0  0  0  0  0  0
   46.3220   32.8390   44.8680 C   0  0  0  0  0  0  0  0  0  0  0  0
   47.1870   31.7890   44.7710 C   0  0  0  0  0  0  0  0  0  0  0  0
   47.6870   31.6120   43.8310 H   0  0  0  0  0  0  0  0  0  0  0  0
   47.4430   30.9430   45.8410 C   0  0  0  0  0  3  0  0  0  0  0  0
   46.8260   31.1320   47.0600 C   0  0  0  0  0  0  0  0  0  0  0  0
   47.0450   30.3350   48.1250 N   0  0  0  0  0  0  0  0  0  0  0  0
   46.4180   30.5550   49.3110 C   0  0  0  0  0  0  0  0  0  0  0  0
   46.5740   29.9320   50.1820 H   0  0  0  0  0  0  0  0  0  0  0  0
   45.5220   31.6140   49.4680 C   0  0  0  0  0  3  0  0  0  0  0  0
   45.2770   32.4460   48.3960 C   0  0  0  0  0  3  0  0  0  0  0  0
   45.9500   32.1750   47.2010 C   0  0  0  0  0  0  0  0  0  0  0  0
   45.7330   32.9820   46.1090 C   0  0  0  0  0  3  0  0  0  0  0  0
   46.6070   34.0260   40.2010 C   0  0  0  0  0  0  0  0  0  0  0  0
   47.8330   34.4450   39.7620 C   0  0  0  0  0  0  0  0  0  0  0  0
   48.3640   34.2070   38.5120 C   0  0  0  0  0  0  0  0  0  0  0  0
   47.5290   33.4750   37.6770 C   0  0  0  0  0  0  0  0  0  0  0  0
   46.2810   33.0330   38.0860 C   0  0  0  0  0  0  0  0  0  0  0  0
   45.8240   33.3120   39.3530 N   0  0  0  0  0  0  0  0  0  0  0  0
   48.4350   35.0130   40.4670 H   0  0  0  0  0  0  0  0  0  0  0  0
   49.3380   34.5720   38.2450 H   0  0  0  0  0  0  0  0  0  0  0  0
   47.8770   33.2480   36.6760 H   0  0  0  0  0  0  0  0  0  0  0  0
   45.6610   32.4640   37.4030 H   0  0  0  0  0  0  0  0  0  0  0  0
  1  2  1  0  0  0  0
  1  9  1  0  0  0  0
  2  7  1  0  0  0  0
  3  8  1  0  0  0  0
  3  2  2  0  0  0  0
  4  3  1  0  0  0  0
  5  4  2  0  0  0  0
  5  6  1  0  0  0  0
  6  1  2  0  0  0  0
  9 20  1  0  0  0  0
 10  9  2  0  0  0  0
 10 12  1  0  0  0  0
 11 10  1  0  0  0  0
 12 13  2  0  0  0  0
 13 19  1  0  0  0  0
 13 14  1  0  0  0  0
 14 15  2  0  0  0  0
 15 17  1  0  0  0  0
 15 16  1  0  0  0  0
 18 17  2  0  0  0  0
 19 18  1  0  0  0  0
 20 19  2  0  0  0  0
 21  5  1  0  0  0  0
 22 21  1  0  0  0  0
 22 27  1  0  0  0  0
 23 22  2  0  0  0  0
 24 25  2  0  0  0  0
 24 23  1  0  0  0  0
 25 26  1  0  0  0  0
 26 21  2  0  0  0  0
 28 23  1  0  0  0  0
 29 24  1  0  0  0  0
 30 25  1  0  0  0  0
M  END
>  <minimizedAffinity>
-5.53119659

>  <minimizedRMSD>
1.86805582

$$$$
