
 OpenBabel03242515403D

 39 43  0  0  0  0  0  0  0  0999 V2000
   44.6080   34.4910   40.8740 C   0  0  0  0  0  0  0  0  0  0  0  0
   44.2740   33.8840   39.6860 C   0  0  0  0  0  0  0  0  0  0  0  0
   45.3070   33.2840   38.9670 C   0  0  0  0  0  0  0  0  0  0  0  0
   46.5570   33.3250   39.4580 N   0  0  0  0  0  0  0  0  0  0  0  0
   46.8440   33.9310   40.6300 C   0  0  0  0  0  0  0  0  0  0  0  0
   45.8640   34.5000   41.3100 N   0  0  0  0  0  0  0  0  0  0  0  0
   43.2790   33.8610   39.3130 H   0  0  0  0  0  0  0  0  0  0  0  0
   45.0940   32.6060   37.6940 C   0  0  0  0  0  0  0  0  0  0  0  0
   46.0090   32.8210   36.6870 C   0  0  0  0  0  0  0  0  0  0  0  0
   46.8770   33.4780   36.8150 H   0  0  0  0  0  0  0  0  0  0  0  0
   45.8580   32.2050   35.4590 C   0  0  0  0  0  0  0  0  0  0  0  0
   44.7990   31.3500   35.1750 C   0  0  0  0  0  0  0  0  0  0  0  0
   44.7040   30.7810   33.9700 N   0  0  0  0  0  0  0  0  0  0  0  0
   43.6830   29.9490   33.6770 C   0  0  0  0  0  0  0  0  0  0  0  0
   43.7080   29.5520   32.6800 H   0  0  0  0  0  0  0  0  0  0  0  0
   42.7470   29.7110   34.6640 C   0  0  0  0  0  0  0  0  0  0  0  0
   42.8470   30.3010   35.9140 C   0  0  0  0  0  0  0  0  0  0  0  0
   43.9010   31.1520   36.1970 C   0  0  0  0  0  0  0  0  0  0  0  0
   44.0420   31.7610   37.4210 C   0  0  0  0  0  0  0  0  0  0  0  0
   43.2410   35.2590   41.7790 S   0  0  0  0  0  0  0  0  0  0  0  0
   40.8280   35.4250   40.6120 C   0  0  0  0  0  0  0  0  0  0  0  0
   41.6830   34.5490   41.2760 C   0  0  0  0  0  0  0  0  0  0  0  0
   41.3160   33.2530   41.5020 C   0  0  0  0  0  0  0  0  0  0  0  0
   40.0940   32.7590   41.0880 C   0  0  0  0  0  0  0  0  0  0  0  0
   39.2320   33.6360   40.4220 C   0  0  0  0  0  0  0  0  0  0  0  0
   39.5830   34.9640   40.1780 C   0  0  0  0  0  0  0  0  0  0  0  0
   38.0620   32.9080   40.1030 O   0  0  0  0  0  0  0  0  0  0  0  0
   38.1000   31.7590   40.9000 C   0  0  0  0  0  0  0  0  0  0  0  0
   39.4710   31.5170   41.1800 O   0  0  0  0  0  0  0  0  0  0  0  0
   41.0270   36.4600   40.3890 H   0  0  0  0  0  0  0  0  0  0  0  0
   42.0120   32.6120   42.0210 H   0  0  0  0  0  0  0  0  0  0  0  0
   38.8900   35.6120   39.6600 H   0  0  0  0  0  0  0  0  0  0  0  0
   37.6050   31.9140   41.8980 H   0  0  0  0  0  0  0  0  0  0  0  0
   37.5930   30.9020   40.4380 H   0  0  0  0  0  0  0  0  0  0  0  0
   48.1040   34.0040   41.1790 O   0  0  0  0  0  0  0  0  0  0  0  0
   48.7230   35.2560   41.3190 C   0  0  0  0  0  0  0  0  0  0  0  0
   49.9440   35.1710   41.9260 F   0  0  0  0  0  0  0  0  0  0  0  0
   48.8020   35.7920   40.0350 F   0  0  0  0  0  0  0  0  0  0  0  0
   47.9100   36.0450   42.1210 F   0  0  0  0  0  0  0  0  0  0  0  0
  1  6  1  0  0  0  0
  1 20  1  0  0  0  0
  2  1  2  0  0  0  0
  3  4  2  0  0  0  0
  3  2  1  0  0  0  0
  4  5  1  0  0  0  0
  5 35  1  0  0  0  0
  5  6  2  0  0  0  0
  7  2  1  0  0  0  0
  8  3  1  0  0  0  0
  9 10  1  0  0  0  0
  9  8  2  0  0  0  0
 11  9  1  0  0  0  0
 12 11  2  0  0  0  0
 12 18  1  0  0  0  0
 13 12  1  0  0  0  0
 14 13  2  0  0  0  0
 14 16  1  0  0  0  0
 15 14  1  0  0  0  0
 16 17  2  0  0  0  0
 17 18  1  0  0  0  0
 18 19  2  0  0  0  0
 19  8  1  0  0  0  0
 21 22  1  0  0  0  0
 22 23  2  0  0  0  0
 22 20  1  0  0  0  0
 23 31  1  0  0  0  0
 24 29  1  0  0  0  0
 24 23  1  0  0  0  0
 25 24  2  0  0  0  0
 26 25  1  0  0  0  0
 26 21  2  0  0  0  0
 27 25  1  0  0  0  0
 27 28  1  0  0  0  0
 28 29  1  0  0  0  0
 28 33  1  0  0  0  0
 30 21  1  0  0  0  0
 32 26  1  0  0  0  0
 34 28  1  0  0  0  0
 35 36  1  0  0  0  0
 36 37  1  0  0  0  0
 36 39  1  0  0  0  0
 38 36  1  0  0  0  0
M  END
>  <minimizedAffinity>
-6.79060698

>  <minimizedRMSD>
1.55883098

$$$$
