
 OpenBabel03252507263D

 30 33  0  0  0  0  0  0  0  0999 V2000
   45.6520   34.1730   45.2440 C   0  0  0  0  0  0  0  0  0  0  0  0
   44.6790   35.1560   45.4160 C   0  0  0  0  0  0  0  0  0  0  0  0
   44.4150   36.0200   44.3290 C   0  0  0  0  0  0  0  0  0  0  0  0
   45.1270   35.8520   43.1590 N   0  0  0  0  0  0  0  0  0  0  0  0
   46.0600   34.8750   43.0610 C   0  0  0  0  0  0  0  0  0  0  0  0
   46.3100   34.0630   44.0780 N   0  0  0  0  0  0  0  0  0  0  0  0
   44.1250   35.2950   46.3090 H   0  0  0  0  0  0  0  0  0  0  0  0
   43.6800   36.7900   44.4070 H   0  0  0  0  0  0  0  0  0  0  0  0
   45.9630   33.2560   46.3340 C   0  0  0  0  0  0  0  0  0  0  0  0
   45.3460   33.2280   47.5510 C   0  0  0  0  0  0  0  0  0  0  0  0
   44.5560   33.9380   47.7480 H   0  0  0  0  0  0  0  0  0  0  0  0
   45.7000   32.3220   48.5380 C   0  0  0  0  0  3  0  0  0  0  0  0
   46.7020   31.3990   48.3280 C   0  0  0  0  0  0  0  0  0  0  0  0
   47.0800   30.5000   49.2590 N   0  0  0  0  0  0  0  0  0  0  0  0
   48.0750   29.6050   49.0130 C   0  0  0  0  0  0  0  0  0  0  0  0
   48.3980   28.8730   49.7400 H   0  0  0  0  0  0  0  0  0  0  0  0
   48.7410   29.5860   47.7870 C   0  0  0  0  0  3  0  0  0  0  0  0
   48.3780   30.4940   46.8140 C   0  0  0  0  0  3  0  0  0  0  0  0
   47.3500   31.3900   47.1200 C   0  0  0  0  0  0  0  0  0  0  0  0
   46.9590   32.3120   46.1770 C   0  0  0  0  0  3  0  0  0  0  0  0
   46.7850   34.7250   41.8130 C   0  0  0  0  0  0  0  0  0  0  0  0
   47.9870   35.3480   41.6140 C   0  0  0  0  0  0  0  0  0  0  0  0
   48.7520   35.2740   40.4690 C   0  0  0  0  0  0  0  0  0  0  0  0
   48.1960   34.4830   39.4730 C   0  0  0  0  0  0  0  0  0  0  0  0
   46.9820   33.8360   39.6370 C   0  0  0  0  0  0  0  0  0  0  0  0
   46.2790   33.9600   40.8130 N   0  0  0  0  0  0  0  0  0  0  0  0
   48.3640   35.9520   42.4360 H   0  0  0  0  0  0  0  0  0  0  0  0
   49.6870   35.7960   40.3930 H   0  0  0  0  0  0  0  0  0  0  0  0
   48.7390   34.3760   38.5410 H   0  0  0  0  0  0  0  0  0  0  0  0
   46.5830   33.2260   38.8340 H   0  0  0  0  0  0  0  0  0  0  0  0
  1  2  1  0  0  0  0
  1  9  1  0  0  0  0
  2  7  1  0  0  0  0
  3  8  1  0  0  0  0
  3  2  2  0  0  0  0
  4  3  1  0  0  0  0
  5  4  2  0  0  0  0
  5  6  1  0  0  0  0
  6  1  2  0  0  0  0
  9 10  1  0  0  0  0
 10 11  1  0  0  0  0
 10 12  2  0  0  0  0
 13 12  1  0  0  0  0
 13 14  1  0  0  0  0
 15 14  2  0  0  0  0
 15 16  1  0  0  0  0
 17 15  1  0  0  0  0
 18 19  1  0  0  0  0
 18 17  2  0  0  0  0
 19 13  2  0  0  0  0
 20  9  2  0  0  0  0
 20 19  1  0  0  0  0
 21  5  1  0  0  0  0
 22 21  1  0  0  0  0
 22 27  1  0  0  0  0
 23 22  2  0  0  0  0
 24 25  2  0  0  0  0
 24 23  1  0  0  0  0
 25 26  1  0  0  0  0
 26 21  2  0  0  0  0
 28 23  1  0  0  0  0
 29 24  1  0  0  0  0
 30 25  1  0  0  0  0
M  END
>  <minimizedAffinity>
-5.85280514

>  <minimizedRMSD>
0.646161139

$$$$
