
 OpenBabel03252503513D

 24 26  0  0  0  0  0  0  0  0999 V2000
   47.3890   35.1710   42.3470 C   0  0  0  0  0  0  0  0  0  0  0  0
   47.3090   34.0640   43.2240 C   0  0  0  0  0  0  0  0  0  0  0  0
   46.1880   33.9100   44.0410 C   0  0  0  0  0  0  0  0  0  0  0  0
   45.2250   34.8630   43.9300 N   0  0  0  0  0  0  0  0  0  0  0  0
   45.3130   35.9050   43.0950 C   0  0  0  0  0  0  0  0  0  0  0  0
   46.3880   36.0600   42.3090 N   0  0  0  0  0  0  0  0  0  0  0  0
   48.1090   33.3510   43.2580 H   0  0  0  0  0  0  0  0  0  0  0  0
   44.4810   36.5980   43.0970 H   0  0  0  0  0  0  0  0  0  0  0  0
   46.0480   32.7970   44.9610 C   0  0  0  0  0  0  0  0  0  0  0  0
   46.0970   31.4770   44.6140 C   0  0  0  0  0  0  0  0  0  0  0  0
   46.2510   31.2110   43.5910 H   0  0  0  0  0  0  0  0  0  0  0  0
   45.9550   30.4700   45.5520 C   0  0  0  0  0  3  0  0  0  0  0  0
   45.7540   30.7910   46.8840 C   0  0  0  0  0  0  0  0  0  0  0  0
   45.6130   29.8160   47.8150 N   0  0  0  0  0  0  0  0  0  0  0  0
   45.4160   30.1050   49.1210 C   0  0  0  0  0  0  0  0  0  0  0  0
   45.3010   29.3210   49.8740 H   0  0  0  0  0  0  0  0  0  0  0  0
   45.3600   31.4320   49.5060 C   0  0  0  0  0  3  0  0  0  0  0  0
   45.4990   32.4470   48.5880 C   0  0  0  0  0  3  0  0  0  0  0  0
   45.6970   32.1100   47.2740 C   0  0  0  0  0  0  0  0  0  0  0  0
   45.8460   33.0710   46.2940 C   0  0  0  0  0  3  0  0  0  0  0  0
   48.6130   35.2720   41.5060 C   0  0  0  0  0  0  0  0  0  0  0  0
   48.3180   35.1180   40.1650 F   0  0  0  0  0  0  0  0  0  0  0  0
   49.2150   36.4860   41.7630 F   0  0  0  0  0  0  0  0  0  0  0  0
   49.5290   34.2820   41.8920 F   0  0  0  0  0  0  0  0  0  0  0  0
  1  2  1  0  0  0  0
  2  7  1  0  0  0  0
  2  3  2  0  0  0  0
  3  9  1  0  0  0  0
  4  3  1  0  0  0  0
  5  8  1  0  0  0  0
  5  4  2  0  0  0  0
  6  1  2  0  0  0  0
  6  5  1  0  0  0  0
  9 20  1  0  0  0  0
 10  9  2  0  0  0  0
 10 12  1  0  0  0  0
 11 10  1  0  0  0  0
 12 13  2  0  0  0  0
 13 19  1  0  0  0  0
 13 14  1  0  0  0  0
 14 15  2  0  0  0  0
 15 17  1  0  0  0  0
 15 16  1  0  0  0  0
 18 17  2  0  0  0  0
 19 18  1  0  0  0  0
 20 19  2  0  0  0  0
 21 23  1  0  0  0  0
 21 24  1  0  0  0  0
 21  1  1  0  0  0  0
 22 21  1  0  0  0  0
M  END
>  <minimizedAffinity>
-6.03585529

>  <minimizedRMSD>
1.52993751

$$$$
