
 OpenBabel03242518083D

 38 41  0  0  1  0  0  0  0  0999 V2000
   38.1720   29.2650   41.3080 N   0  0  0  0  0  0  0  0  0  0  0  0
   38.5330   29.1950   42.7010 C   0  0  0  0  0  0  0  0  0  0  0  0
   37.4670   28.5550   43.4840 C   0  0  0  0  0  0  0  0  0  0  0  0
   36.5160   27.6950   42.7530 C   0  0  0  0  0  0  0  0  0  0  0  0
   36.9310   27.1850   41.4340 C   0  0  0  0  0  0  0  0  0  0  0  0
   37.8100   28.0780   40.5970 C   0  0  1  0  0  0  0  0  0  0  0  0
   38.7970   30.1990   43.0940 H   0  0  0  0  0  0  0  0  0  0  0  0
   39.4880   28.6020   42.7790 H   0  0  0  0  0  0  0  0  0  0  0  0
   37.9490   27.9570   44.3080 H   0  0  0  0  0  0  0  0  0  0  0  0
   36.9040   29.3630   44.0370 H   0  0  0  0  0  0  0  0  0  0  0  0
   35.5560   28.2590   42.6050 H   0  0  0  0  0  0  0  0  0  0  0  0
   36.2340   26.8230   43.3820 H   0  0  0  0  0  0  0  0  0  0  0  0
   37.5170   26.2350   41.6160 H   0  0  0  0  0  0  0  0  0  0  0  0
   36.0290   26.8390   40.8930 H   0  0  0  0  0  0  0  0  0  0  0  0
   38.7690   27.5690   40.3120 H   0  0  0  0  0  0  0  0  0  0  0  0
   37.0690   28.3140   39.3340 C   0  0  0  0  0  0  0  0  0  0  0  0
   37.7380   28.4020   38.1050 C   0  0  0  0  0  0  0  0  0  0  0  0
   38.8360   28.3080   38.1260 H   0  0  0  0  0  0  0  0  0  0  0  0
   37.1660   28.5950   36.8660 C   0  0  0  0  0  3  0  0  0  0  0  0
   35.7930   28.7140   36.8320 C   0  0  0  0  0  0  0  0  0  0  0  0
   35.1540   28.9030   35.6790 N   0  0  0  0  0  0  0  0  0  0  0  0
   33.8120   29.0260   35.5860 C   0  0  0  0  0  0  0  0  0  0  0  0
   33.3680   29.1770   34.6140 H   0  0  0  0  0  0  0  0  0  0  0  0
   33.0180   28.9580   36.7340 C   0  0  0  0  0  3  0  0  0  0  0  0
   33.6970   28.7610   37.9280 C   0  0  0  0  0  3  0  0  0  0  0  0
   35.0680   28.6380   37.9910 C   0  0  0  0  0  0  0  0  0  0  0  0
   35.7080   28.4440   39.1900 C   0  0  0  0  0  3  0  0  0  0  0  0
   37.0480   31.3490   40.7290 C   0  0  0  0  0  0  0  0  0  0  0  0
   38.1940   30.5170   40.6580 C   0  0  0  0  0  0  0  0  0  0  0  0
   39.2860   31.0070   39.9400 C   0  0  0  0  0  0  0  0  0  0  0  0
   39.2000   32.2200   39.3640 N   0  0  0  0  0  0  0  0  0  0  0  0
   38.0890   32.9850   39.4540 C   0  0  0  0  0  0  0  0  0  0  0  0
   37.0030   32.5500   40.1410 N   0  0  0  0  0  0  0  0  0  0  0  0
   35.9050   30.8850   41.4500 N   0  0  0  0  0  0  0  0  0  0  0  0
   40.1620   30.4070   39.8680 H   0  0  0  0  0  0  0  0  0  0  0  0
   37.9850   33.9660   39.0020 H   0  0  0  0  0  0  0  0  0  0  0  0
   35.4950   29.9340   41.2200 H   0  0  0  0  0  0  0  0  0  0  0  0
   35.3380   31.2900   42.2030 H   0  0  0  0  0  0  0  0  0  0  0  0
  1  2  1  0  0  0  0
  2  8  1  0  0  0  0
  2  7  1  0  0  0  0
  2  3  1  0  0  0  0
  3 10  1  0  0  0  0
  3  9  1  0  0  0  0
  4 12  1  0  0  0  0
  4  3  1  0  0  0  0
  5 13  1  0  0  0  0
  5  4  1  0  0  0  0
  6 15  1  6  0  0  0
  6  1  1  0  0  0  0
  6  5  1  0  0  0  0
 11  4  1  0  0  0  0
 14  5  1  0  0  0  0
 16  6  1  0  0  0  0
 17 18  1  0  0  0  0
 17 16  2  0  0  0  0
 19 17  1  0  0  0  0
 20 19  2  0  0  0  0
 20 26  1  0  0  0  0
 21 20  1  0  0  0  0
 22 21  2  0  0  0  0
 22 24  1  0  0  0  0
 23 22  1  0  0  0  0
 24 25  2  0  0  0  0
 25 26  1  0  0  0  0
 26 27  2  0  0  0  0
 27 16  1  0  0  0  0
 28 34  1  0  0  0  0
 29 28  1  0  0  0  0
 29  1  1  0  0  0  0
 30 29  2  0  0  0  0
 31 32  2  0  0  0  0
 31 30  1  0  0  0  0
 32 33  1  0  0  0  0
 33 28  2  0  0  0  0
 34 38  1  0  0  0  0
 35 30  1  0  0  0  0
 36 32  1  0  0  0  0
 37 34  1  0  0  0  0
M  END
>  <minimizedAffinity>
-6.40931845

$$$$

 OpenBabel03242518083D

 38 41  0  0  1  0  0  0  0  0999 V2000
   38.3850   30.7530   41.2430 N   0  0  0  0  0  0  0  0  0  0  0  0
   39.4550   31.5580   41.7740 C   0  0  0  0  0  0  0  0  0  0  0  0
   39.8920   32.5590   40.7890 C   0  0  0  0  0  0  0  0  0  0  0  0
   38.9390   32.9140   39.7200 C   0  0  0  0  0  0  0  0  0  0  0  0
   37.5150   32.6070   39.9450 C   0  0  0  0  0  0  0  0  0  0  0  0
   37.1960   31.3720   40.7460 C   0  0  1  0  0  0  0  0  0  0  0  0
   40.2940   30.9230   42.1250 H   0  0  0  0  0  0  0  0  0  0  0  0
   39.0750   32.0640   42.7060 H   0  0  0  0  0  0  0  0  0  0  0  0
   40.1870   33.4920   41.3470 H   0  0  0  0  0  0  0  0  0  0  0  0
   40.8620   32.2040   40.3340 H   0  0  0  0  0  0  0  0  0  0  0  0
   39.2460   32.3950   38.7720 H   0  0  0  0  0  0  0  0  0  0  0  0
   39.0210   33.9980   39.4850 H   0  0  0  0  0  0  0  0  0  0  0  0
   37.0730   33.4810   40.5100 H   0  0  0  0  0  0  0  0  0  0  0  0
   36.9930   32.6340   38.9680 H   0  0  0  0  0  0  0  0  0  0  0  0
   36.5600   31.6090   41.6400 H   0  0  0  0  0  0  0  0  0  0  0  0
   36.3720   30.5110   39.8620 C   0  0  0  0  0  0  0  0  0  0  0  0
   35.2710   29.8020   40.3600 C   0  0  0  0  0  0  0  0  0  0  0  0
   35.0590   29.8980   41.4380 H   0  0  0  0  0  0  0  0  0  0  0  0
   34.4180   28.9910   39.6420 C   0  0  0  0  0  3  0  0  0  0  0  0
   34.6750   28.8660   38.2930 C   0  0  0  0  0  0  0  0  0  0  0  0
   33.9040   28.1030   37.5210 N   0  0  0  0  0  0  0  0  0  0  0  0
   34.1090   27.9430   36.1950 C   0  0  0  0  0  0  0  0  0  0  0  0
   33.4390   27.3070   35.6360 H   0  0  0  0  0  0  0  0  0  0  0  0
   35.1730   28.5930   35.5640 C   0  0  0  0  0  3  0  0  0  0  0  0
   35.9680   29.3850   36.3810 C   0  0  0  0  0  3  0  0  0  0  0  0
   35.7340   29.5280   37.7310 C   0  0  0  0  0  0  0  0  0  0  0  0
   36.5410   30.3190   38.5110 C   0  0  0  0  0  3  0  0  0  0  0  0
   37.9810   28.5960   42.3030 C   0  0  0  0  0  0  0  0  0  0  0  0
   38.5260   29.3480   41.2330 C   0  0  0  0  0  0  0  0  0  0  0  0
   39.1720   28.6340   40.2230 C   0  0  0  0  0  0  0  0  0  0  0  0
   39.2440   27.2940   40.3120 N   0  0  0  0  0  0  0  0  0  0  0  0
   38.7110   26.6100   41.3490 C   0  0  0  0  0  0  0  0  0  0  0  0
   38.0730   27.2620   42.3530 N   0  0  0  0  0  0  0  0  0  0  0  0
   37.3140   29.2860   43.3600 N   0  0  0  0  0  0  0  0  0  0  0  0
   39.5930   29.1700   39.4060 H   0  0  0  0  0  0  0  0  0  0  0  0
   38.7500   25.5300   41.4530 H   0  0  0  0  0  0  0  0  0  0  0  0
   37.8110   30.0810   43.8580 H   0  0  0  0  0  0  0  0  0  0  0  0
   36.3880   29.1870   43.7910 H   0  0  0  0  0  0  0  0  0  0  0  0
  1  2  1  0  0  0  0
  2  7  1  0  0  0  0
  2  8  1  0  0  0  0
  3  9  1  0  0  0  0
  3  2  1  0  0  0  0
  4  5  1  0  0  0  0
  4  3  1  0  0  0  0
  5 13  1  0  0  0  0
  5  6  1  0  0  0  0
  6  1  1  0  0  0  0
  6 15  1  1  0  0  0
 10  3  1  0  0  0  0
 11  4  1  0  0  0  0
 12  4  1  0  0  0  0
 14  5  1  0  0  0  0
 16 17  1  0  0  0  0
 16  6  1  0  0  0  0
 17 18  1  0  0  0  0
 19 17  2  0  0  0  0
 20 19  1  0  0  0  0
 21 20  2  0  0  0  0
 22 21  1  0  0  0  0
 23 22  1  0  0  0  0
 24 22  2  0  0  0  0
 24 25  1  0  0  0  0
 25 26  2  0  0  0  0
 26 20  1  0  0  0  0
 26 27  1  0  0  0  0
 27 16  2  0  0  0  0
 28 33  1  0  0  0  0
 28 34  1  0  0  0  0
 29  1  1  0  0  0  0
 29 28  2  0  0  0  0
 30 31  2  0  0  0  0
 30 29  1  0  0  0  0
 31 32  1  0  0  0  0
 32 36  1  0  0  0  0
 32 33  2  0  0  0  0
 34 38  1  0  0  0  0
 34 37  1  0  0  0  0
 35 30  1  0  0  0  0
M  END
>  <minimizedAffinity>
-6.07861185

$$$$

 OpenBabel03242518083D

 38 41  0  0  1  0  0  0  0  0999 V2000
   37.8960   31.1830   39.3440 N   0  0  0  0  0  0  0  0  0  0  0  0
   37.5540   32.4420   38.7320 C   0  0  0  0  0  0  0  0  0  0  0  0
   37.6560   33.5390   39.7050 C   0  0  0  0  0  0  0  0  0  0  0  0
   38.5050   33.3120   40.8910 C   0  0  0  0  0  0  0  0  0  0  0  0
   39.5100   32.2370   40.8160 C   0  0  0  0  0  0  0  0  0  0  0  0
   39.1560   31.0200   40.0000 C   0  0  1  0  0  0  0  0  0  0  0  0
   36.5510   32.3940   38.2590 H   0  0  0  0  0  0  0  0  0  0  0  0
   38.2630   32.6100   37.8730 H   0  0  0  0  0  0  0  0  0  0  0  0
   38.0180   34.4560   39.1600 H   0  0  0  0  0  0  0  0  0  0  0  0
   36.6120   33.8190   40.0300 H   0  0  0  0  0  0  0  0  0  0  0  0
   37.8450   33.0910   41.7730 H   0  0  0  0  0  0  0  0  0  0  0  0
   39.0320   34.2520   41.1650 H   0  0  0  0  0  0  0  0  0  0  0  0
   40.4360   32.6820   40.3450 H   0  0  0  0  0  0  0  0  0  0  0  0
   39.8320   31.9860   41.8450 H   0  0  0  0  0  0  0  0  0  0  0  0
   39.9140   30.8240   39.1960 H   0  0  0  0  0  0  0  0  0  0  0  0
   39.2250   29.8680   40.9320 C   0  0  0  0  0  0  0  0  0  0  0  0
   38.7650   29.9720   42.2510 C   0  0  0  0  0  0  0  0  0  0  0  0
   38.3700   30.9520   42.5670 H   0  0  0  0  0  0  0  0  0  0  0  0
   38.7530   28.9750   43.2030 C   0  0  0  0  0  3  0  0  0  0  0  0
   39.2450   27.7470   42.8160 C   0  0  0  0  0  0  0  0  0  0  0  0
   39.2720   26.7240   43.6680 N   0  0  0  0  0  0  0  0  0  0  0  0
   39.7430   25.5000   43.3440 C   0  0  0  0  0  0  0  0  0  0  0  0
   39.7320   24.7220   44.0920 H   0  0  0  0  0  0  0  0  0  0  0  0
   40.2340   25.2530   42.0590 C   0  0  0  0  0  3  0  0  0  0  0  0
   40.1990   26.3270   41.1810 C   0  0  0  0  0  3  0  0  0  0  0  0
   39.7130   27.5650   41.5410 C   0  0  0  0  0  0  0  0  0  0  0  0
   39.6930   28.6060   40.6470 C   0  0  0  0  0  3  0  0  0  0  0  0
   35.9020   30.0720   40.1990 C   0  0  0  0  0  0  0  0  0  0  0  0
   36.9750   30.1160   39.2730 C   0  0  0  0  0  0  0  0  0  0  0  0
   37.0440   29.0840   38.3360 C   0  0  0  0  0  0  0  0  0  0  0  0
   36.1080   28.1180   38.3560 N   0  0  0  0  0  0  0  0  0  0  0  0
   35.0990   28.1100   39.2550 C   0  0  0  0  0  0  0  0  0  0  0  0
   34.9910   29.0920   40.1850 N   0  0  0  0  0  0  0  0  0  0  0  0
   35.7950   31.1050   41.1780 N   0  0  0  0  0  0  0  0  0  0  0  0
   37.8380   29.0890   37.6280 H   0  0  0  0  0  0  0  0  0  0  0  0
   34.3270   27.3470   39.3000 H   0  0  0  0  0  0  0  0  0  0  0  0
   36.6310   31.3290   41.7930 H   0  0  0  0  0  0  0  0  0  0  0  0
   35.0360   31.7390   41.4520 H   0  0  0  0  0  0  0  0  0  0  0  0
  1  6  1  0  0  0  0
  2  1  1  0  0  0  0
  2  3  1  0  0  0  0
  3 10  1  0  0  0  0
  3  4  1  0  0  0  0
  4 12  1  0  0  0  0
  4 11  1  0  0  0  0
  5  4  1  0  0  0  0
  5 14  1  0  0  0  0
  6 15  1  6  0  0  0
  6  5  1  0  0  0  0
  6 16  1  0  0  0  0
  7  2  1  0  0  0  0
  8  2  1  0  0  0  0
  9  3  1  0  0  0  0
 13  5  1  0  0  0  0
 16 17  1  0  0  0  0
 17 18  1  0  0  0  0
 17 19  2  0  0  0  0
 20 19  1  0  0  0  0
 20 21  1  0  0  0  0
 22 21  2  0  0  0  0
 22 23  1  0  0  0  0
 24 22  1  0  0  0  0
 25 26  1  0  0  0  0
 25 24  2  0  0  0  0
 26 20  2  0  0  0  0
 27 16  2  0  0  0  0
 27 26  1  0  0  0  0
 28 34  1  0  0  0  0
 29  1  1  0  0  0  0
 29 28  2  0  0  0  0
 30 31  2  0  0  0  0
 30 29  1  0  0  0  0
 31 32  1  0  0  0  0
 32 36  1  0  0  0  0
 32 33  2  0  0  0  0
 33 28  1  0  0  0  0
 34 38  1  0  0  0  0
 34 37  1  0  0  0  0
 35 30  1  0  0  0  0
M  END
>  <minimizedAffinity>
-5.99050808

$$$$

 OpenBabel03242518083D

 38 41  0  0  1  0  0  0  0  0999 V2000
   36.4500   29.2800   39.0880 N   0  0  0  0  0  0  0  0  0  0  0  0
   35.8160   29.6720   37.8550 C   0  0  0  0  0  0  0  0  0  0  0  0
   35.9320   28.6070   36.8480 C   0  0  0  0  0  0  0  0  0  0  0  0
   36.1830   27.2380   37.3400 C   0  0  0  0  0  0  0  0  0  0  0  0
   35.8670   26.9510   38.7500 C   0  0  0  0  0  0  0  0  0  0  0  0
   36.0650   28.0680   39.7420 C   0  0  1  0  0  0  0  0  0  0  0  0
   36.2210   30.6380   37.4890 H   0  0  0  0  0  0  0  0  0  0  0  0
   34.7330   29.8850   38.0780 H   0  0  0  0  0  0  0  0  0  0  0  0
   34.9930   28.6100   36.2260 H   0  0  0  0  0  0  0  0  0  0  0  0
   36.7380   28.9030   36.1150 H   0  0  0  0  0  0  0  0  0  0  0  0
   37.2680   26.9890   37.1840 H   0  0  0  0  0  0  0  0  0  0  0  0
   35.6350   26.5030   36.7110 H   0  0  0  0  0  0  0  0  0  0  0  0
   34.7720   26.6730   38.7940 H   0  0  0  0  0  0  0  0  0  0  0  0
   36.3870   26.0180   39.0420 H   0  0  0  0  0  0  0  0  0  0  0  0
   35.1240   28.2940   40.3090 H   0  0  0  0  0  0  0  0  0  0  0  0
   37.0440   27.5640   40.7370 C   0  0  0  0  0  0  0  0  0  0  0  0
   36.8450   27.7520   42.1110 C   0  0  0  0  0  0  0  0  0  0  0  0
   35.9420   28.3080   42.4140 H   0  0  0  0  0  0  0  0  0  0  0  0
   37.6630   27.3160   43.1310 C   0  0  0  0  0  3  0  0  0  0  0  0
   38.7940   26.6200   42.7600 C   0  0  0  0  0  0  0  0  0  0  0  0
   39.6420   26.1600   43.6770 N   0  0  0  0  0  0  0  0  0  0  0  0
   40.7650   25.4730   43.3720 C   0  0  0  0  0  0  0  0  0  0  0  0
   41.4030   25.1330   44.1740 H   0  0  0  0  0  0  0  0  0  0  0  0
   41.0890   25.2110   42.0380 C   0  0  0  0  0  3  0  0  0  0  0  0
   40.1960   25.6970   41.0930 C   0  0  0  0  0  3  0  0  0  0  0  0
   39.0580   26.3940   41.4350 C   0  0  0  0  0  0  0  0  0  0  0  0
   38.1970   26.8610   40.4740 C   0  0  0  0  0  3  0  0  0  0  0  0
   37.0880   30.9990   40.6940 C   0  0  0  0  0  0  0  0  0  0  0  0
   37.4420   30.1170   39.6430 C   0  0  0  0  0  0  0  0  0  0  0  0
   38.7740   30.1330   39.2250 C   0  0  0  0  0  0  0  0  0  0  0  0
   39.6390   30.9680   39.8290 N   0  0  0  0  0  0  0  0  0  0  0  0
   39.2640   31.7960   40.8300 C   0  0  0  0  0  0  0  0  0  0  0  0
   37.9800   31.8140   41.2690 N   0  0  0  0  0  0  0  0  0  0  0  0
   35.7350   31.0180   41.1500 N   0  0  0  0  0  0  0  0  0  0  0  0
   39.0710   29.4830   38.4380 H   0  0  0  0  0  0  0  0  0  0  0  0
   39.9330   32.4820   41.3390 H   0  0  0  0  0  0  0  0  0  0  0  0
   34.9510   31.1570   40.4480 H   0  0  0  0  0  0  0  0  0  0  0  0
   35.3030   30.9200   42.0760 H   0  0  0  0  0  0  0  0  0  0  0  0
  1 29  1  0  0  0  0
  1  6  1  0  0  0  0
  2  8  1  0  0  0  0
  2  1  1  0  0  0  0
  3  4  1  0  0  0  0
  3  2  1  0  0  0  0
  4  5  1  0  0  0  0
  5 13  1  0  0  0  0
  5 14  1  0  0  0  0
  5  6  1  0  0  0  0
  6 15  1  1  0  0  0
  6 16  1  0  0  0  0
  7  2  1  0  0  0  0
  9  3  1  0  0  0  0
 10  3  1  0  0  0  0
 11  4  1  0  0  0  0
 12  4  1  0  0  0  0
 16 17  1  0  0  0  0
 17 18  1  0  0  0  0
 17 19  2  0  0  0  0
 20 19  1  0  0  0  0
 20 21  1  0  0  0  0
 22 21  2  0  0  0  0
 22 23  1  0  0  0  0
 24 22  1  0  0  0  0
 25 26  1  0  0  0  0
 25 24  2  0  0  0  0
 26 20  2  0  0  0  0
 27 16  2  0  0  0  0
 27 26  1  0  0  0  0
 28 34  1  0  0  0  0
 28 33  1  0  0  0  0
 29 28  2  0  0  0  0
 30 29  1  0  0  0  0
 30 31  2  0  0  0  0
 31 32  1  0  0  0  0
 32 33  2  0  0  0  0
 32 36  1  0  0  0  0
 34 38  1  0  0  0  0
 35 30  1  0  0  0  0
 37 34  1  0  0  0  0
M  END
>  <minimizedAffinity>
-5.80808544

$$$$

 OpenBabel03242518083D

 38 41  0  0  1  0  0  0  0  0999 V2000
   37.9220   25.8750   41.6540 N   0  0  0  0  0  0  0  0  0  0  0  0
   38.4460   24.6260   42.1440 C   0  0  0  0  0  0  0  0  0  0  0  0
   39.6200   24.8530   42.9980 C   0  0  0  0  0  0  0  0  0  0  0  0
   39.7680   26.1930   43.6000 C   0  0  0  0  0  0  0  0  0  0  0  0
   38.5670   27.0420   43.6790 C   0  0  0  0  0  0  0  0  0  0  0  0
   37.5570   26.9120   42.5690 C   0  0  1  0  0  0  0  0  0  0  0  0
   38.6650   23.9310   41.3070 H   0  0  0  0  0  0  0  0  0  0  0  0
   37.6280   24.1160   42.7270 H   0  0  0  0  0  0  0  0  0  0  0  0
   39.6120   24.0790   43.8170 H   0  0  0  0  0  0  0  0  0  0  0  0
   40.5430   24.5980   42.4010 H   0  0  0  0  0  0  0  0  0  0  0  0
   40.5440   26.7660   43.0220 H   0  0  0  0  0  0  0  0  0  0  0  0
   40.1920   26.1030   44.6240 H   0  0  0  0  0  0  0  0  0  0  0  0
   38.0310   26.7670   44.6360 H   0  0  0  0  0  0  0  0  0  0  0  0
   38.8890   28.0880   43.8490 H   0  0  0  0  0  0  0  0  0  0  0  0
   36.5390   26.6510   42.9610 H   0  0  0  0  0  0  0  0  0  0  0  0
   37.4390   28.2610   41.9620 C   0  0  0  0  0  0  0  0  0  0  0  0
   36.2430   28.6900   41.3730 C   0  0  0  0  0  0  0  0  0  0  0  0
   35.4040   27.9740   41.3640 H   0  0  0  0  0  0  0  0  0  0  0  0
   36.0000   29.9190   40.7980 C   0  0  0  0  0  3  0  0  0  0  0  0
   37.0430   30.8210   40.8060 C   0  0  0  0  0  0  0  0  0  0  0  0
   36.9000   32.0330   40.2730 N   0  0  0  0  0  0  0  0  0  0  0  0
   37.8870   32.9550   40.2520 C   0  0  0  0  0  0  0  0  0  0  0  0
   37.6920   33.9170   39.8010 H   0  0  0  0  0  0  0  0  0  0  0  0
   39.1360   32.6630   40.8060 C   0  0  0  0  0  3  0  0  0  0  0  0
   39.2710   31.3960   41.3570 C   0  0  0  0  0  3  0  0  0  0  0  0
   38.2450   30.4760   41.3640 C   0  0  0  0  0  0  0  0  0  0  0  0
   38.4130   29.2310   41.9180 C   0  0  0  0  0  3  0  0  0  0  0  0
   38.8770   26.4740   39.4930 C   0  0  0  0  0  0  0  0  0  0  0  0
   37.7640   26.0520   40.2630 C   0  0  0  0  0  0  0  0  0  0  0  0
   36.5690   25.8320   39.5770 C   0  0  0  0  0  0  0  0  0  0  0  0
   36.5320   26.0260   38.2460 N   0  0  0  0  0  0  0  0  0  0  0  0
   37.6150   26.4290   37.5450 C   0  0  0  0  0  0  0  0  0  0  0  0
   38.7980   26.6550   38.1700 N   0  0  0  0  0  0  0  0  0  0  0  0
   40.1200   26.7150   40.1540 N   0  0  0  0  0  0  0  0  0  0  0  0
   35.7150   25.5150   40.1260 H   0  0  0  0  0  0  0  0  0  0  0  0
   37.6220   26.5960   36.4720 H   0  0  0  0  0  0  0  0  0  0  0  0
   40.1460   27.3690   40.9900 H   0  0  0  0  0  0  0  0  0  0  0  0
   41.0760   26.3760   40.0000 H   0  0  0  0  0  0  0  0  0  0  0  0
  1  2  1  0  0  0  0
  1  6  1  0  0  0  0
  2  8  1  0  0  0  0
  2  3  1  0  0  0  0
  3  4  1  0  0  0  0
  3  9  1  0  0  0  0
  4  5  1  0  0  0  0
  4 12  1  0  0  0  0
  5 14  1  0  0  0  0
  5 13  1  0  0  0  0
  6 15  1  1  0  0  0
  6  5  1  0  0  0  0
  7  2  1  0  0  0  0
 10  3  1  0  0  0  0
 11  4  1  0  0  0  0
 16  6  1  0  0  0  0
 17 16  2  0  0  0  0
 18 17  1  0  0  0  0
 19 20  2  0  0  0  0
 19 17  1  0  0  0  0
 20 26  1  0  0  0  0
 21 20  1  0  0  0  0
 22 21  2  0  0  0  0
 22 24  1  0  0  0  0
 23 22  1  0  0  0  0
 24 25  2  0  0  0  0
 25 26  1  0  0  0  0
 26 27  2  0  0  0  0
 27 16  1  0  0  0  0
 28 34  1  0  0  0  0
 28 29  1  0  0  0  0
 29  1  1  0  0  0  0
 30 35  1  0  0  0  0
 30 29  2  0  0  0  0
 31 30  1  0  0  0  0
 32 33  1  0  0  0  0
 32 31  2  0  0  0  0
 33 28  2  0  0  0  0
 34 37  1  0  0  0  0
 36 32  1  0  0  0  0
 38 34  1  0  0  0  0
M  END
>  <minimizedAffinity>
-5.74139404

$$$$

 OpenBabel03242518083D

 38 41  0  0  1  0  0  0  0  0999 V2000
   36.7110   29.7290   36.8630 N   0  0  0  0  0  0  0  0  0  0  0  0
   36.3890   29.5800   35.4670 C   0  0  0  0  0  0  0  0  0  0  0  0
   35.6300   28.3430   35.2360 C   0  0  0  0  0  0  0  0  0  0  0  0
   34.9230   27.7590   36.3930 C   0  0  0  0  0  0  0  0  0  0  0  0
   34.6550   28.6390   37.5440 C   0  0  0  0  0  0  0  0  0  0  0  0
   35.6750   29.7060   37.8480 C   0  0  1  0  0  0  0  0  0  0  0  0
   37.3030   29.6330   34.8400 H   0  0  0  0  0  0  0  0  0  0  0  0
   35.7830   30.4780   35.1570 H   0  0  0  0  0  0  0  0  0  0  0  0
   34.8890   28.5370   34.4090 H   0  0  0  0  0  0  0  0  0  0  0  0
   36.3300   27.5790   34.7900 H   0  0  0  0  0  0  0  0  0  0  0  0
   35.5140   26.8830   36.7740 H   0  0  0  0  0  0  0  0  0  0  0  0
   33.9550   27.3220   36.0640 H   0  0  0  0  0  0  0  0  0  0  0  0
   33.6820   29.1750   37.3310 H   0  0  0  0  0  0  0  0  0  0  0  0
   34.4200   28.0050   38.4210 H   0  0  0  0  0  0  0  0  0  0  0  0
   35.2160   30.7300   37.8550 H   0  0  0  0  0  0  0  0  0  0  0  0
   36.1410   29.4450   39.2320 C   0  0  0  0  0  0  0  0  0  0  0  0
   36.3150   30.4900   40.1490 C   0  0  0  0  0  0  0  0  0  0  0  0
   36.1100   31.5120   39.7880 H   0  0  0  0  0  0  0  0  0  0  0  0
   36.7190   30.3780   41.4620 C   0  0  0  0  0  3  0  0  0  0  0  0
   36.9780   29.1040   41.9210 C   0  0  0  0  0  0  0  0  0  0  0  0
   37.3730   28.8990   43.1760 N   0  0  0  0  0  0  0  0  0  0  0  0
   37.6410   27.6740   43.6790 C   0  0  0  0  0  0  0  0  0  0  0  0
   37.9570   27.5910   44.7080 H   0  0  0  0  0  0  0  0  0  0  0  0
   37.5080   26.5390   42.8750 C   0  0  0  0  0  3  0  0  0  0  0  0
   37.0960   26.7670   41.5700 C   0  0  0  0  0  3  0  0  0  0  0  0
   36.8300   28.0290   41.0850 C   0  0  0  0  0  0  0  0  0  0  0  0
   36.4240   28.2190   39.7880 C   0  0  0  0  0  3  0  0  0  0  0  0
   38.5400   31.2230   37.4650 C   0  0  0  0  0  0  0  0  0  0  0  0
   38.0600   29.9090   37.2380 C   0  0  0  0  0  0  0  0  0  0  0  0
   38.9700   28.8650   37.4110 C   0  0  0  0  0  0  0  0  0  0  0  0
   40.2330   29.1510   37.7770 N   0  0  0  0  0  0  0  0  0  0  0  0
   40.6550   30.4180   37.9840 C   0  0  0  0  0  0  0  0  0  0  0  0
   39.8050   31.4650   37.8280 N   0  0  0  0  0  0  0  0  0  0  0  0
   37.6440   32.3220   37.2960 N   0  0  0  0  0  0  0  0  0  0  0  0
   38.6400   27.8670   37.2480 H   0  0  0  0  0  0  0  0  0  0  0  0
   41.6650   30.6850   38.2790 H   0  0  0  0  0  0  0  0  0  0  0  0
   37.1050   32.4190   36.3870 H   0  0  0  0  0  0  0  0  0  0  0  0
   37.3750   33.1090   37.8970 H   0  0  0  0  0  0  0  0  0  0  0  0
  1 29  1  0  0  0  0
  1  6  1  0  0  0  0
  2  1  1  0  0  0  0
  3  2  1  0  0  0  0
  3  4  1  0  0  0  0
  4 11  1  0  0  0  0
  4  5  1  0  0  0  0
  5  6  1  0  0  0  0
  5 14  1  0  0  0  0
  6 15  1  6  0  0  0
  6 16  1  0  0  0  0
  7  2  1  0  0  0  0
  8  2  1  0  0  0  0
  9  3  1  0  0  0  0
 10  3  1  0  0  0  0
 12  4  1  0  0  0  0
 13  5  1  0  0  0  0
 16 27  2  0  0  0  0
 16 17  1  0  0  0  0
 17 19  2  0  0  0  0
 18 17  1  0  0  0  0
 19 20  1  0  0  0  0
 20 21  1  0  0  0  0
 21 22  2  0  0  0  0
 22 23  1  0  0  0  0
 24 22  1  0  0  0  0
 25 24  2  0  0  0  0
 26 25  1  0  0  0  0
 26 20  2  0  0  0  0
 27 26  1  0  0  0  0
 28 33  1  0  0  0  0
 29 30  1  0  0  0  0
 29 28  2  0  0  0  0
 30 31  2  0  0  0  0
 31 32  1  0  0  0  0
 32 36  1  0  0  0  0
 33 32  2  0  0  0  0
 34 28  1  0  0  0  0
 34 38  1  0  0  0  0
 35 30  1  0  0  0  0
 37 34  1  0  0  0  0
M  END
>  <minimizedAffinity>
-5.70469189

$$$$

 OpenBabel03242518083D

 38 41  0  0  1  0  0  0  0  0999 V2000
   38.3970   26.8390   41.2570 N   0  0  0  0  0  0  0  0  0  0  0  0
   38.5420   25.4540   41.6250 C   0  0  0  0  0  0  0  0  0  0  0  0
   39.4030   25.3180   42.8090 C   0  0  0  0  0  0  0  0  0  0  0  0
   39.5520   26.5030   43.6750 C   0  0  0  0  0  0  0  0  0  0  0  0
   38.5310   27.5600   43.5680 C   0  0  0  0  0  0  0  0  0  0  0  0
   37.9200   27.7920   42.2110 C   0  0  1  0  0  0  0  0  0  0  0  0
   38.9100   24.8520   40.7690 H   0  0  0  0  0  0  0  0  0  0  0  0
   37.5140   25.0450   41.8380 H   0  0  0  0  0  0  0  0  0  0  0  0
   39.0180   24.4560   43.4240 H   0  0  0  0  0  0  0  0  0  0  0  0
   40.4190   24.9650   42.4660 H   0  0  0  0  0  0  0  0  0  0  0  0
   40.5480   26.9810   43.4680 H   0  0  0  0  0  0  0  0  0  0  0  0
   39.6090   26.1900   44.7400 H   0  0  0  0  0  0  0  0  0  0  0  0
   37.6830   27.2710   44.2580 H   0  0  0  0  0  0  0  0  0  0  0  0
   38.9360   28.4850   44.0230 H   0  0  0  0  0  0  0  0  0  0  0  0
   36.8030   27.6920   42.2340 H   0  0  0  0  0  0  0  0  0  0  0  0
   38.2070   29.2070   41.8690 C   0  0  0  0  0  0  0  0  0  0  0  0
   39.3200   29.8720   42.4010 C   0  0  0  0  0  0  0  0  0  0  0  0
   39.9570   29.3020   43.0970 H   0  0  0  0  0  0  0  0  0  0  0  0
   39.7060   31.1700   42.1460 C   0  0  0  0  0  3  0  0  0  0  0  0
   38.9140   31.8900   41.2770 C   0  0  0  0  0  0  0  0  0  0  0  0
   39.2100   33.1520   40.9710 N   0  0  0  0  0  0  0  0  0  0  0  0
   38.4710   33.9040   40.1260 C   0  0  0  0  0  0  0  0  0  0  0  0
   38.7770   34.9200   39.9300 H   0  0  0  0  0  0  0  0  0  0  0  0
   37.3310   33.3680   39.5210 C   0  0  0  0  0  3  0  0  0  0  0  0
   37.0350   32.0520   39.8480 C   0  0  0  0  0  3  0  0  0  0  0  0
   37.8080   31.3100   40.7140 C   0  0  0  0  0  0  0  0  0  0  0  0
   37.4860   30.0100   41.0160 C   0  0  0  0  0  3  0  0  0  0  0  0
   37.7070   27.2100   38.9490 C   0  0  0  0  0  0  0  0  0  0  0  0
   38.7200   27.2340   39.9410 C   0  0  0  0  0  0  0  0  0  0  0  0
   39.9870   27.6600   39.5400 C   0  0  0  0  0  0  0  0  0  0  0  0
   40.1820   28.0200   38.2590 N   0  0  0  0  0  0  0  0  0  0  0  0
   39.1910   27.9850   37.3400 C   0  0  0  0  0  0  0  0  0  0  0  0
   37.9430   27.5770   37.6840 N   0  0  0  0  0  0  0  0  0  0  0  0
   36.3960   26.7770   39.3130 N   0  0  0  0  0  0  0  0  0  0  0  0
   40.7680   27.6900   40.2620 H   0  0  0  0  0  0  0  0  0  0  0  0
   39.3130   28.2670   36.2990 H   0  0  0  0  0  0  0  0  0  0  0  0
   36.2740   25.8430   39.8010 H   0  0  0  0  0  0  0  0  0  0  0  0
   35.4640   27.1920   39.2060 H   0  0  0  0  0  0  0  0  0  0  0  0
  1  2  1  0  0  0  0
  1  6  1  0  0  0  0
  2  8  1  0  0  0  0
  2  3  1  0  0  0  0
  3  9  1  0  0  0  0
  3  4  1  0  0  0  0
  4 12  1  0  0  0  0
  5  4  1  0  0  0  0
  5 14  1  0  0  0  0
  5 13  1  0  0  0  0
  6 15  1  1  0  0  0
  6  5  1  0  0  0  0
  7  2  1  0  0  0  0
 10  3  1  0  0  0  0
 11  4  1  0  0  0  0
 16  6  1  0  0  0  0
 16 17  1  0  0  0  0
 17 18  1  0  0  0  0
 19 17  2  0  0  0  0
 20 19  1  0  0  0  0
 21 20  1  0  0  0  0
 22 21  2  0  0  0  0
 23 22  1  0  0  0  0
 24 25  2  0  0  0  0
 24 22  1  0  0  0  0
 25 26  1  0  0  0  0
 26 27  1  0  0  0  0
 26 20  2  0  0  0  0
 27 16  2  0  0  0  0
 28 34  1  0  0  0  0
 28 29  1  0  0  0  0
 29  1  1  0  0  0  0
 30 29  2  0  0  0  0
 30 35  1  0  0  0  0
 31 30  1  0  0  0  0
 32 33  1  0  0  0  0
 32 31  2  0  0  0  0
 33 28  2  0  0  0  0
 34 37  1  0  0  0  0
 36 32  1  0  0  0  0
 38 34  1  0  0  0  0
M  END
>  <minimizedAffinity>
-5.7032342

$$$$

 OpenBabel03242518083D

 38 41  0  0  1  0  0  0  0  0999 V2000
   38.2250   29.1040   41.4970 N   0  0  0  0  0  0  0  0  0  0  0  0
   38.6310   28.9990   42.8740 C   0  0  0  0  0  0  0  0  0  0  0  0
   37.5800   28.3600   43.6800 C   0  0  0  0  0  0  0  0  0  0  0  0
   36.5910   27.5310   42.9640 C   0  0  0  0  0  0  0  0  0  0  0  0
   36.9530   27.0430   41.6220 C   0  0  0  0  0  0  0  0  0  0  0  0
   37.8190   27.9380   40.7740 C   0  0  1  0  0  0  0  0  0  0  0  0
   38.9240   29.9890   43.2790 H   0  0  0  0  0  0  0  0  0  0  0  0
   39.5770   28.3890   42.9080 H   0  0  0  0  0  0  0  0  0  0  0  0
   38.0790   27.7370   44.4750 H   0  0  0  0  0  0  0  0  0  0  0  0
   37.0500   29.1650   44.2680 H   0  0  0  0  0  0  0  0  0  0  0  0
   35.6360   28.1140   42.8600 H   0  0  0  0  0  0  0  0  0  0  0  0
   36.3150   26.6510   43.5840 H   0  0  0  0  0  0  0  0  0  0  0  0
   37.5280   26.0800   41.7640 H   0  0  0  0  0  0  0  0  0  0  0  0
   36.0280   26.7230   41.1040 H   0  0  0  0  0  0  0  0  0  0  0  0
   38.7590   27.4200   40.4470 H   0  0  0  0  0  0  0  0  0  0  0  0
   37.0410   28.2130   39.5410 C   0  0  0  0  0  0  0  0  0  0  0  0
   35.6660   28.4800   39.5940 C   0  0  0  0  0  0  0  0  0  0  0  0
   35.1900   28.4570   40.5890 H   0  0  0  0  0  0  0  0  0  0  0  0
   34.8400   28.7710   38.5300 C   0  0  0  0  0  3  0  0  0  0  0  0
   35.4270   28.8030   37.2830 C   0  0  0  0  0  0  0  0  0  0  0  0
   34.7070   29.0750   36.1970 N   0  0  0  0  0  0  0  0  0  0  0  0
   35.2290   29.1200   34.9520 C   0  0  0  0  0  0  0  0  0  0  0  0
   34.5780   29.3470   34.1220 H   0  0  0  0  0  0  0  0  0  0  0  0
   36.5890   28.8740   34.7500 C   0  0  0  0  0  3  0  0  0  0  0  0
   37.3280   28.5910   35.8910 C   0  0  0  0  0  3  0  0  0  0  0  0
   36.7670   28.5530   37.1490 C   0  0  0  0  0  0  0  0  0  0  0  0
   37.5270   28.2700   38.2560 C   0  0  0  0  0  3  0  0  0  0  0  0
   39.3980   30.7550   40.1410 C   0  0  0  0  0  0  0  0  0  0  0  0
   38.2460   30.3700   40.8720 C   0  0  0  0  0  0  0  0  0  0  0  0
   37.1920   31.2830   40.9180 C   0  0  0  0  0  0  0  0  0  0  0  0
   37.3180   32.4610   40.2810 N   0  0  0  0  0  0  0  0  0  0  0  0
   38.4330   32.7940   39.5930 C   0  0  0  0  0  0  0  0  0  0  0  0
   39.4830   31.9370   39.5200 N   0  0  0  0  0  0  0  0  0  0  0  0
   40.5020   29.8530   40.0700 N   0  0  0  0  0  0  0  0  0  0  0  0
   36.3140   31.0230   41.4590 H   0  0  0  0  0  0  0  0  0  0  0  0
   38.5690   33.7340   39.0670 H   0  0  0  0  0  0  0  0  0  0  0  0
   40.9110   29.4580   40.9670 H   0  0  0  0  0  0  0  0  0  0  0  0
   41.0420   29.4610   39.2900 H   0  0  0  0  0  0  0  0  0  0  0  0
  1  2  1  0  0  0  0
  2  8  1  0  0  0  0
  2  7  1  0  0  0  0
  2  3  1  0  0  0  0
  3 10  1  0  0  0  0
  3  9  1  0  0  0  0
  4 12  1  0  0  0  0
  4  3  1  0  0  0  0
  5 13  1  0  0  0  0
  5  4  1  0  0  0  0
  6 15  1  6  0  0  0
  6  1  1  0  0  0  0
  6  5  1  0  0  0  0
 11  4  1  0  0  0  0
 14  5  1  0  0  0  0
 16 17  1  0  0  0  0
 16  6  1  0  0  0  0
 17 18  1  0  0  0  0
 19 17  2  0  0  0  0
 20 19  1  0  0  0  0
 21 20  2  0  0  0  0
 22 21  1  0  0  0  0
 23 22  1  0  0  0  0
 24 22  2  0  0  0  0
 24 25  1  0  0  0  0
 25 26  2  0  0  0  0
 26 20  1  0  0  0  0
 26 27  1  0  0  0  0
 27 16  2  0  0  0  0
 28 29  1  0  0  0  0
 29 30  2  0  0  0  0
 29  1  1  0  0  0  0
 30 35  1  0  0  0  0
 31 30  1  0  0  0  0
 32 31  2  0  0  0  0
 33 32  1  0  0  0  0
 33 28  2  0  0  0  0
 34 28  1  0  0  0  0
 34 37  1  0  0  0  0
 36 32  1  0  0  0  0
 38 34  1  0  0  0  0
M  END
>  <minimizedAffinity>
-5.69601965

$$$$

 OpenBabel03242518083D

 38 41  0  0  1  0  0  0  0  0999 V2000
   36.8740   29.0990   40.9000 N   0  0  0  0  0  0  0  0  0  0  0  0
   36.5470   30.4940   41.0400 C   0  0  0  0  0  0  0  0  0  0  0  0
   36.5820   31.1700   39.7350 C   0  0  0  0  0  0  0  0  0  0  0  0
   36.4390   30.3260   38.5340 C   0  0  0  0  0  0  0  0  0  0  0  0
   35.8480   28.9870   38.7060 C   0  0  0  0  0  0  0  0  0  0  0  0
   36.1310   28.2710   40.0010 C   0  0  1  0  0  0  0  0  0  0  0  0
   37.2100   30.9850   41.7830 H   0  0  0  0  0  0  0  0  0  0  0  0
   35.5170   30.5630   41.4910 H   0  0  0  0  0  0  0  0  0  0  0  0
   35.7780   31.9600   39.7300 H   0  0  0  0  0  0  0  0  0  0  0  0
   37.5380   31.7660   39.6730 H   0  0  0  0  0  0  0  0  0  0  0  0
   37.4520   30.1850   38.0670 H   0  0  0  0  0  0  0  0  0  0  0  0
   35.8480   30.8630   37.7600 H   0  0  0  0  0  0  0  0  0  0  0  0
   34.7260   29.1110   38.6450 H   0  0  0  0  0  0  0  0  0  0  0  0
   36.0950   28.3780   37.8140 H   0  0  0  0  0  0  0  0  0  0  0  0
   35.1850   27.9860   40.5340 H   0  0  0  0  0  0  0  0  0  0  0  0
   36.8020   27.0010   39.6290 C   0  0  0  0  0  0  0  0  0  0  0  0
   37.6500   26.9270   38.5170 C   0  0  0  0  0  0  0  0  0  0  0  0
   37.7790   27.8470   37.9230 H   0  0  0  0  0  0  0  0  0  0  0  0
   38.3460   25.8200   38.0810 C   0  0  0  0  0  3  0  0  0  0  0  0
   38.1910   24.6650   38.8190 C   0  0  0  0  0  0  0  0  0  0  0  0
   38.8250   23.5460   38.4730 N   0  0  0  0  0  0  0  0  0  0  0  0
   38.7110   22.3860   39.1570 C   0  0  0  0  0  0  0  0  0  0  0  0
   39.2570   21.5220   38.8130 H   0  0  0  0  0  0  0  0  0  0  0  0
   37.8960   22.3160   40.2900 C   0  0  0  0  0  3  0  0  0  0  0  0
   37.2420   23.4890   40.6390 C   0  0  0  0  0  3  0  0  0  0  0  0
   37.3790   24.6570   39.9210 C   0  0  0  0  0  0  0  0  0  0  0  0
   36.7170   25.8000   40.2940 C   0  0  0  0  0  3  0  0  0  0  0  0
   37.6220   27.9260   42.9020 C   0  0  0  0  0  0  0  0  0  0  0  0
   37.9270   28.5620   41.6720 C   0  0  0  0  0  0  0  0  0  0  0  0
   39.2710   28.6090   41.3010 C   0  0  0  0  0  0  0  0  0  0  0  0
   40.1940   28.0590   42.1110 N   0  0  0  0  0  0  0  0  0  0  0  0
   39.8650   27.4600   43.2780 C   0  0  0  0  0  0  0  0  0  0  0  0
   38.5710   27.3910   43.6790 N   0  0  0  0  0  0  0  0  0  0  0  0
   36.2590   27.8580   43.3220 N   0  0  0  0  0  0  0  0  0  0  0  0
   39.5330   29.0800   40.3830 H   0  0  0  0  0  0  0  0  0  0  0  0
   40.5820   27.0070   43.9560 H   0  0  0  0  0  0  0  0  0  0  0  0
   35.6830   28.7490   43.3660 H   0  0  0  0  0  0  0  0  0  0  0  0
   35.6520   27.0860   43.6190 H   0  0  0  0  0  0  0  0  0  0  0  0
  1  2  1  0  0  0  0
  1 29  1  0  0  0  0
  2  8  1  0  0  0  0
  2  7  1  0  0  0  0
  3  2  1  0  0  0  0
  4  5  1  0  0  0  0
  4  3  1  0  0  0  0
  5  6  1  0  0  0  0
  6 15  1  1  0  0  0
  6  1  1  0  0  0  0
  9  3  1  0  0  0  0
 10  3  1  0  0  0  0
 11  4  1  0  0  0  0
 12  4  1  0  0  0  0
 13  5  1  0  0  0  0
 14  5  1  0  0  0  0
 16  6  1  0  0  0  0
 16 27  1  0  0  0  0
 17 16  2  0  0  0  0
 18 17  1  0  0  0  0
 19 17  1  0  0  0  0
 19 20  2  0  0  0  0
 20 26  1  0  0  0  0
 21 20  1  0  0  0  0
 21 22  2  0  0  0  0
 22 24  1  0  0  0  0
 23 22  1  0  0  0  0
 24 25  2  0  0  0  0
 26 27  2  0  0  0  0
 26 25  1  0  0  0  0
 28 34  1  0  0  0  0
 28 33  1  0  0  0  0
 29 28  2  0  0  0  0
 30 29  1  0  0  0  0
 30 31  2  0  0  0  0
 31 32  1  0  0  0  0
 32 33  2  0  0  0  0
 32 36  1  0  0  0  0
 34 37  1  0  0  0  0
 34 38  1  0  0  0  0
 35 30  1  0  0  0  0
M  END
>  <minimizedAffinity>
-5.58202362

$$$$
