
 OpenBabel03252508183D

 50 55  0  0  1  0  0  0  0  0999 V2000
   46.7560   31.6090   48.2690 C   0  0  1  0  0  0  0  0  0  0  0  0
   46.3040   30.5660   49.2340 C   0  0  0  0  0  0  0  0  0  0  0  0
   47.5730   31.2570   49.4460 C   0  0  1  0  0  0  0  0  0  0  0  0
   46.0040   32.4530   48.2680 H   0  0  0  0  0  0  0  0  0  0  0  0
   45.4820   30.7380   49.9560 H   0  0  0  0  0  0  0  0  0  0  0  0
   46.3660   29.4960   48.9170 H   0  0  0  0  0  0  0  0  0  0  0  0
   47.5960   32.0100   50.2620 H   0  0  0  0  0  0  0  0  0  0  0  0
   48.8900   30.5850   49.2110 C   0  0  2  0  0  0  0  0  0  0  0  0
   49.6140   30.1940   50.5240 C   0  0  0  0  0  0  0  0  0  0  0  0
   50.1440   31.2980   49.7080 C   0  0  1  0  0  0  0  0  0  0  0  0
   49.0190   29.7900   48.4670 H   0  0  0  0  0  0  0  0  0  0  0  0
   49.1530   30.4940   51.4830 H   0  0  0  0  0  0  0  0  0  0  0  0
   50.1770   29.2690   50.5880 H   0  0  0  0  0  0  0  0  0  0  0  0
   50.0190   32.3410   50.0620 H   0  0  0  0  0  0  0  0  0  0  0  0
   51.4150   31.0530   48.9990 C   0  0  0  0  0  0  0  0  0  0  0  0
   52.4490   31.9800   49.1800 C   0  0  0  0  0  0  0  0  0  0  0  0
   52.3580   32.8620   49.8140 H   0  0  0  0  0  0  0  0  0  0  0  0
   53.6740   31.8060   48.5380 C   0  0  0  0  0  3  0  0  0  0  0  0
   53.8980   30.7160   47.7090 C   0  0  0  0  0  0  0  0  0  0  0  0
   55.0770   30.5640   47.1010 N   0  0  0  0  0  0  0  0  0  0  0  0
   55.3550   29.5320   46.2870 C   0  0  0  0  0  0  0  0  0  0  0  0
   56.3210   29.4440   45.8140 H   0  0  0  0  0  0  0  0  0  0  0  0
   54.3410   28.6050   46.0970 C   0  0  0  0  0  3  0  0  0  0  0  0
   53.0920   28.7280   46.7150 C   0  0  0  0  0  3  0  0  0  0  0  0
   52.8500   29.8160   47.5520 C   0  0  0  0  0  0  0  0  0  0  0  0
   51.6200   29.9640   48.1780 C   0  0  0  0  0  3  0  0  0  0  0  0
   47.1250   31.1090   46.9200 C   0  0  0  0  0  0  0  0  0  0  0  0
   46.3730   30.3050   46.6630 H   0  0  0  0  0  0  0  0  0  0  0  0
   48.0990   30.6830   46.7750 H   0  0  0  0  0  0  0  0  0  0  0  0
   46.0310   33.0540   46.1690 C   0  0  0  0  0  3  0  0  0  0  0  0
   46.8790   32.1620   45.8660 C   0  0  0  0  0  3  0  0  0  0  0  0
   44.5430   35.9430   44.4300 C   0  0  0  0  0  0  0  0  0  0  0  0
   45.1790   35.9240   43.1940 C   0  0  0  0  0  0  0  0  0  0  0  0
   46.0880   34.9330   42.9990 C   0  0  0  0  0  0  0  0  0  0  0  0
   46.3340   34.0250   43.9840 N   0  0  0  0  0  0  0  0  0  0  0  0
   45.7010   34.0720   45.1690 C   0  0  0  0  0  0  0  0  0  0  0  0
   44.8180   35.0350   45.3600 N   0  0  0  0  0  0  0  0  0  0  0  0
   43.8060   36.7150   44.6410 H   0  0  0  0  0  0  0  0  0  0  0  0
   44.9650   36.6580   42.4280 H   0  0  0  0  0  0  0  0  0  0  0  0
   46.8330   34.7860   41.7550 C   0  0  0  0  0  0  0  0  0  0  0  0
   48.0410   35.3630   41.4930 C   0  0  0  0  0  0  0  0  0  0  0  0
   48.7330   35.2130   40.3080 C   0  0  0  0  0  0  0  0  0  0  0  0
   48.1990   34.4360   39.2990 C   0  0  0  0  0  0  0  0  0  0  0  0
   46.9890   33.8300   39.5020 C   0  0  0  0  0  0  0  0  0  0  0  0
   46.3410   34.0160   40.7100 C   0  0  0  0  0  0  0  0  0  0  0  0
   48.4950   35.9860   42.2690 H   0  0  0  0  0  0  0  0  0  0  0  0
   49.6820   35.6720   40.1160 H   0  0  0  0  0  0  0  0  0  0  0  0
   48.6570   34.2500   38.3300 H   0  0  0  0  0  0  0  0  0  0  0  0
   46.5260   33.2120   38.7480 H   0  0  0  0  0  0  0  0  0  0  0  0
   45.3760   33.5150   40.8320 H   0  0  0  0  0  0  0  0  0  0  0  0
  1  4  1  1  0  0  0
  1  2  1  0  0  0  0
  1  3  1  0  0  0  0
  2  3  1  0  0  0  0
  2  5  1  0  0  0  0
  3  7  1  1  0  0  0
  6  2  1  0  0  0  0
  8 11  1  6  0  0  0
  8  3  1  0  0  0  0
  8 10  1  0  0  0  0
  8  9  1  0  0  0  0
  9 13  1  0  0  0  0
  9 12  1  0  0  0  0
 10 14  1  1  0  0  0
 10  9  1  0  0  0  0
 15 16  1  0  0  0  0
 15 10  1  0  0  0  0
 16 17  1  0  0  0  0
 18 16  2  0  0  0  0
 19 18  1  0  0  0  0
 20 19  2  0  0  0  0
 21 20  1  0  0  0  0
 22 21  1  0  0  0  0
 23 21  2  0  0  0  0
 23 24  1  0  0  0  0
 24 25  2  0  0  0  0
 25 19  1  0  0  0  0
 25 26  1  0  0  0  0
 26 15  2  0  0  0  0
 27  1  1  0  0  0  0
 28 27  1  0  0  0  0
 29 27  1  0  0  0  0
 31 30  2  0  0  0  0
 31 27  1  0  0  0  0
 32 38  1  0  0  0  0
 32 37  1  0  0  0  0
 33 32  2  0  0  0  0
 34 33  1  0  0  0  0
 34 35  2  0  0  0  0
 35 36  1  0  0  0  0
 36 37  2  0  0  0  0
 36 30  1  0  0  0  0
 39 33  1  0  0  0  0
 40 34  1  0  0  0  0
 41 40  1  0  0  0  0
 41 46  1  0  0  0  0
 42 41  2  0  0  0  0
 43 44  2  0  0  0  0
 43 42  1  0  0  0  0
 44 45  1  0  0  0  0
 45 50  1  0  0  0  0
 45 40  2  0  0  0  0
 47 42  1  0  0  0  0
 48 43  1  0  0  0  0
 49 44  1  0  0  0  0
M  END
>  <minimizedAffinity>
-6.83237886

>  <minimizedRMSD>
0.875001073

$$$$
