
 OpenBabel03242518463D

 48 52  0  0  1  0  0  0  0  0999 V2000
   45.9120   34.4820   43.6720 C   0  0  2  0  0  0  0  0  0  0  0  0
   45.8240   34.6570   42.1980 C   0  0  1  0  0  0  0  0  0  0  0  0
   46.6650   33.6310   41.4370 C   0  0  0  0  0  0  0  0  0  0  0  0
   47.9430   33.7680   41.9840 O   0  0  0  0  0  0  0  0  0  0  0  0
   48.0140   33.2370   43.2550 C   0  0  0  0  0  0  0  0  0  0  0  0
   46.7020   33.1950   43.9760 C   0  0  1  0  0  0  0  0  0  0  0  0
   46.4950   35.3010   44.1120 H   0  0  0  0  0  0  0  0  0  0  0  0
   46.2330   35.6690   41.9120 H   0  0  0  0  0  0  0  0  0  0  0  0
   46.7570   33.9540   40.3820 H   0  0  0  0  0  0  0  0  0  0  0  0
   46.2490   32.6190   41.5380 H   0  0  0  0  0  0  0  0  0  0  0  0
   48.7180   33.8340   43.8990 H   0  0  0  0  0  0  0  0  0  0  0  0
   48.4020   32.1880   43.2310 H   0  0  0  0  0  0  0  0  0  0  0  0
   46.0160   32.3930   43.6270 H   0  0  0  0  0  0  0  0  0  0  0  0
   42.3190   35.3950   41.4320 C   0  0  0  0  0  0  0  0  0  0  0  0
   41.9160   34.3280   40.5760 C   0  0  0  0  0  0  0  0  0  0  0  0
   42.9190   33.3630   40.2910 C   0  0  0  0  0  0  0  0  0  0  0  0
   44.1510   33.5060   40.8280 N   0  0  0  0  0  0  0  0  0  0  0  0
   44.4650   34.5450   41.6330 C   0  0  0  0  0  0  0  0  0  0  0  0
   43.5480   35.4870   41.9330 N   0  0  0  0  0  0  0  0  0  0  0  0
   40.9430   34.2280   40.1610 H   0  0  0  0  0  0  0  0  0  0  0  0
   42.6950   32.5210   39.6500 H   0  0  0  0  0  0  0  0  0  0  0  0
   41.3710   36.3340   41.7210 O   0  0  0  0  0  0  0  0  0  0  0  0
   41.5510   37.3390   41.6880 H   0  0  0  0  0  0  0  0  0  0  0  0
   44.6730   34.3860   44.3040 O   0  0  0  0  0  0  0  0  0  0  0  0
   44.5300   35.1730   44.9010 H   0  0  0  0  0  0  0  0  0  0  0  0
   46.8310   33.1260   45.3450 O   0  0  0  0  0  0  0  0  0  0  0  0
   46.6110   30.4390   45.1430 F   0  0  0  0  0  0  0  0  0  0  0  0
   46.1110   31.1820   46.1510 C   0  0  0  0  0  0  0  0  0  0  0  0
   46.1760   32.5490   46.3370 C   0  0  0  0  0  0  0  0  0  0  0  0
   45.5630   33.0150   47.4880 C   0  0  0  0  0  0  0  0  0  0  0  0
   44.9160   32.2530   48.4300 C   0  0  0  0  0  0  0  0  0  0  0  0
   44.8810   30.9110   48.1970 C   0  0  0  0  0  0  0  0  0  0  0  0
   45.4630   30.3470   47.0770 C   0  0  0  0  0  0  0  0  0  0  0  0
   45.6580   34.1140   47.5650 H   0  0  0  0  0  0  0  0  0  0  0  0
   44.4830   32.7290   49.2760 H   0  0  0  0  0  0  0  0  0  0  0  0
   44.3640   30.3010   48.9500 H   0  0  0  0  0  0  0  0  0  0  0  0
   45.3360   28.8950   46.9800 C   0  0  0  0  0  0  0  0  0  0  0  0
   46.4570   28.1430   47.3480 C   0  0  0  0  0  0  0  0  0  0  0  0
   47.3620   28.6600   47.6860 H   0  0  0  0  0  0  0  0  0  0  0  0
   46.5190   26.7620   47.3200 C   0  0  0  0  0  3  0  0  0  0  0  0
   45.3920   26.0900   46.8970 C   0  0  0  0  0  0  0  0  0  0  0  0
   45.4110   24.7450   46.8550 N   0  0  0  0  0  0  0  0  0  0  0  0
   44.3650   24.0080   46.4600 C   0  0  0  0  0  0  0  0  0  0  0  0
   44.4050   22.9270   46.4350 H   0  0  0  0  0  0  0  0  0  0  0  0
   43.2350   24.7270   46.0880 C   0  0  0  0  0  3  0  0  0  0  0  0
   43.1550   26.1040   46.1090 C   0  0  0  0  0  3  0  0  0  0  0  0
   44.2670   26.8030   46.5260 C   0  0  0  0  0  0  0  0  0  0  0  0
   44.2460   28.1750   46.5690 C   0  0  0  0  0  3  0  0  0  0  0  0
  1  6  1  0  0  0  0
  1  7  1  1  0  0  0
  1 24  1  0  0  0  0
  2  8  1  6  0  0  0
  2  1  1  0  0  0  0
  3 10  1  0  0  0  0
  3  4  1  0  0  0  0
  3  2  1  0  0  0  0
  4  5  1  0  0  0  0
  5 11  1  0  0  0  0
  5  6  1  0  0  0  0
  6 13  1  6  0  0  0
  6 26  1  0  0  0  0
  9  3  1  0  0  0  0
 12  5  1  0  0  0  0
 14 22  1  0  0  0  0
 14 19  1  0  0  0  0
 15 14  2  0  0  0  0
 16 15  1  0  0  0  0
 16 17  2  0  0  0  0
 17 18  1  0  0  0  0
 18 19  2  0  0  0  0
 18  2  1  0  0  0  0
 20 15  1  0  0  0  0
 21 16  1  0  0  0  0
 23 22  1  0  0  0  0
 24 25  1  0  0  0  0
 26 29  1  0  0  0  0
 27 28  1  0  0  0  0
 28 29  2  0  0  0  0
 28 33  1  0  0  0  0
 29 30  1  0  0  0  0
 30 34  1  0  0  0  0
 30 31  2  0  0  0  0
 31 35  1  0  0  0  0
 32 31  1  0  0  0  0
 32 36  1  0  0  0  0
 33 32  2  0  0  0  0
 37 33  1  0  0  0  0
 37 38  1  0  0  0  0
 38 39  1  0  0  0  0
 40 38  2  0  0  0  0
 41 40  1  0  0  0  0
 42 41  1  0  0  0  0
 43 42  2  0  0  0  0
 44 43  1  0  0  0  0
 45 46  2  0  0  0  0
 45 43  1  0  0  0  0
 46 47  1  0  0  0  0
 47 48  1  0  0  0  0
 47 41  2  0  0  0  0
 48 37  2  0  0  0  0
M  END
>  <minimizedAffinity>
-6.86030436

>  <minimizedRMSD>
2.7108252

$$$$
