
 OpenBabel03252506473D

 45 49  0  0  1  0  0  0  0  0999 V2000
   49.7160   33.6600   41.4920 N   0  0  1  0  0  0  0  0  0  0  0  0
   50.7830   33.1770   42.3320 C   0  0  0  0  0  0  0  0  0  0  0  0
   51.3550   31.8680   41.8660 C   0  0  0  0  0  0  0  0  0  0  0  0
   50.3050   30.7960   42.0500 C   0  0  0  0  0  0  0  0  0  0  0  0
   48.9260   31.3370   41.7450 C   0  0  0  0  0  0  0  0  0  0  0  0
   49.0610   32.5530   40.8390 C   0  0  2  0  0  0  0  0  0  0  0  0
   50.4210   33.0320   43.3800 H   0  0  0  0  0  0  0  0  0  0  0  0
   51.5990   33.9070   42.3560 H   0  0  0  0  0  0  0  0  0  0  0  0
   52.1700   31.6260   42.5960 H   0  0  0  0  0  0  0  0  0  0  0  0
   51.7760   31.9230   40.8530 H   0  0  0  0  0  0  0  0  0  0  0  0
   50.5060   30.0290   41.2710 H   0  0  0  0  0  0  0  0  0  0  0  0
   50.3630   30.2970   43.0340 H   0  0  0  0  0  0  0  0  0  0  0  0
   48.4740   31.6280   42.7050 H   0  0  0  0  0  0  0  0  0  0  0  0
   48.2930   30.6140   41.2080 H   0  0  0  0  0  0  0  0  0  0  0  0
   48.0170   32.8660   40.6310 H   0  0  0  0  0  0  0  0  0  0  0  0
   47.4240   34.7470   41.9850 C   0  0  1  0  0  0  0  0  0  0  0  0
   48.4300   35.7630   41.7090 C   0  0  0  0  0  0  0  0  0  0  0  0
   48.8730   34.4670   42.3090 C   0  0  2  0  0  0  0  0  0  0  0  0
   47.0460   34.0100   41.2180 H   0  0  0  0  0  0  0  0  0  0  0  0
   48.6450   35.9750   40.6260 H   0  0  0  0  0  0  0  0  0  0  0  0
   48.3800   36.6960   42.2950 H   0  0  0  0  0  0  0  0  0  0  0  0
   49.1260   34.5220   43.3910 H   0  0  0  0  0  0  0  0  0  0  0  0
   45.5860   36.0260   43.1240 C   0  0  0  0  0  0  0  0  0  0  0  0
   46.4570   34.9110   43.0860 C   0  0  0  0  0  0  0  0  0  0  0  0
   46.3670   33.9770   44.1120 C   0  0  0  0  0  0  0  0  0  0  0  0
   45.4500   34.1820   45.0940 N   0  0  0  0  0  0  0  0  0  0  0  0
   44.6320   35.2410   45.1150 C   0  0  0  0  0  0  0  0  0  0  0  0
   44.6930   36.1820   44.1220 N   0  0  0  0  0  0  0  0  0  0  0  0
   45.6870   36.7290   42.3100 H   0  0  0  0  0  0  0  0  0  0  0  0
   47.0090   33.1000   44.1410 H   0  0  0  0  0  0  0  0  0  0  0  0
   43.9040   35.4000   45.9000 H   0  0  0  0  0  0  0  0  0  0  0  0
   49.6440   32.1540   39.5980 N   0  0  0  0  0  0  0  0  0  0  0  0
   50.6530   31.8280   39.6070 H   0  0  0  0  0  0  0  0  0  0  0  0
   49.0310   32.1390   38.3340 C   0  0  0  0  0  0  0  0  0  0  0  0
   49.6840   32.1980   37.1330 C   0  0  0  0  0  0  0  0  0  0  0  0
   50.7510   32.2530   37.1110 H   0  0  0  0  0  0  0  0  0  0  0  0
   49.1130   32.1890   35.8860 C   0  0  0  0  0  3  0  0  0  0  0  0
   47.7220   32.1130   35.8190 C   0  0  0  0  0  0  0  0  0  0  0  0
   47.0620   32.0970   34.6480 N   0  0  0  0  0  0  0  0  0  0  0  0
   45.7220   32.0240   34.5760 C   0  0  0  0  0  0  0  0  0  0  0  0
   45.3330   32.0210   33.5760 H   0  0  0  0  0  0  0  0  0  0  0  0
   44.9410   31.9590   35.7290 C   0  0  0  0  0  3  0  0  0  0  0  0
   45.6280   31.9760   36.9240 C   0  0  0  0  0  3  0  0  0  0  0  0
   47.0000   32.0510   36.9820 C   0  0  0  0  0  0  0  0  0  0  0  0
   47.6530   32.0650   38.1840 C   0  0  0  0  0  3  0  0  0  0  0  0
  1 18  1  0  0  0  0
  1  2  1  1  0  0  0
  2  8  1  0  0  0  0
  2  7  1  0  0  0  0
  3  4  1  0  0  0  0
  3  2  1  0  0  0  0
  3  9  1  0  0  0  0
  4 12  1  0  0  0  0
  5  4  1  0  0  0  0
  5 13  1  0  0  0  0
  6 15  1  6  0  0  0
  6  1  1  0  0  0  0
  6  5  1  0  0  0  0
 10  3  1  0  0  0  0
 11  4  1  0  0  0  0
 14  5  1  0  0  0  0
 16 19  1  6  0  0  0
 16 18  1  0  0  0  0
 16 24  1  0  0  0  0
 17 16  1  0  0  0  0
 17 21  1  0  0  0  0
 17 18  1  0  0  0  0
 18 22  1  1  0  0  0
 20 17  1  0  0  0  0
 23 28  1  0  0  0  0
 24 23  2  0  0  0  0
 24 25  1  0  0  0  0
 25 30  1  0  0  0  0
 25 26  2  0  0  0  0
 26 27  1  0  0  0  0
 27 31  1  0  0  0  0
 28 27  2  0  0  0  0
 29 23  1  0  0  0  0
 32 33  1  0  0  0  0
 32  6  1  0  0  0  0
 34 32  1  0  0  0  0
 35 34  2  0  0  0  0
 36 35  1  0  0  0  0
 37 35  1  0  0  0  0
 38 37  2  0  0  0  0
 38 44  1  0  0  0  0
 39 38  1  0  0  0  0
 40 39  2  0  0  0  0
 40 42  1  0  0  0  0
 41 40  1  0  0  0  0
 42 43  2  0  0  0  0
 43 44  1  0  0  0  0
 44 45  2  0  0  0  0
 45 34  1  0  0  0  0
M  END
>  <minimizedAffinity>
-5.67651701

>  <minimizedRMSD>
1.67372978

$$$$
