
 OpenBabel03252500113D

 34 37  0  0  0  0  0  0  0  0999 V2000
   40.4410   30.1730   39.4010 Cl  0  0  0  0  0  0  0  0  0  0  0  0
   39.3350   31.4800   39.6020 C   0  0  0  0  0  0  0  0  0  0  0  0
   38.0270   31.2560   39.9750 C   0  0  0  0  0  0  0  0  0  0  0  0
   37.1110   32.2930   40.1450 C   0  0  0  0  0  0  0  0  0  0  0  0
   37.5830   33.5640   39.9190 C   0  0  0  0  0  0  0  0  0  0  0  0
   38.8870   33.7950   39.5470 C   0  0  0  0  0  0  0  0  0  0  0  0
   39.7670   32.7650   39.3860 C   0  0  0  0  0  0  0  0  0  0  0  0
   36.0920   32.1130   40.4360 H   0  0  0  0  0  0  0  0  0  0  0  0
   36.9250   34.4110   40.0330 H   0  0  0  0  0  0  0  0  0  0  0  0
   39.2000   34.8310   39.3820 H   0  0  0  0  0  0  0  0  0  0  0  0
   41.1270   33.1150   38.9900 C   0  0  0  0  0  0  0  0  0  0  0  0
   41.6530   33.1330   37.7020 C   0  0  0  0  0  0  0  0  0  0  0  0
   40.9550   32.8550   36.9310 H   0  0  0  0  0  0  0  0  0  0  0  0
   42.9720   33.4920   37.5160 C   0  0  0  0  0  3  0  0  0  0  0  0
   43.8090   33.8390   38.5570 C   0  0  0  0  0  0  0  0  0  0  0  0
   45.0810   34.1830   38.3590 N   0  0  0  0  0  0  0  0  0  0  0  0
   45.9030   34.5230   39.3740 C   0  0  0  0  0  0  0  0  0  0  0  0
   46.9290   34.7980   39.1980 H   0  0  0  0  0  0  0  0  0  0  0  0
   45.4350   34.5230   40.6890 C   0  0  0  0  0  3  0  0  0  0  0  0
   44.1200   34.1680   40.9000 C   0  0  0  0  0  3  0  0  0  0  0  0
   43.3230   33.8310   39.8410 C   0  0  0  0  0  0  0  0  0  0  0  0
   42.0020   33.4700   40.0170 C   0  0  0  0  0  3  0  0  0  0  0  0
   36.7800   27.8410   39.3750 C   0  0  0  0  0  0  0  0  0  0  0  0
   36.7660   27.2850   40.6660 C   0  0  0  0  0  0  0  0  0  0  0  0
   37.1830   28.0880   41.7170 C   0  0  0  0  0  0  0  0  0  0  0  0
   37.5830   29.3630   41.4570 N   0  0  0  0  0  0  0  0  0  0  0  0
   37.5870   29.8770   40.2000 C   0  0  0  0  0  0  0  0  0  0  0  0
   37.1830   29.1070   39.1610 N   0  0  0  0  0  0  0  0  0  0  0  0
   36.4470   27.1880   38.5750 H   0  0  0  0  0  0  0  0  0  0  0  0
   36.4530   26.2810   40.8850 H   0  0  0  0  0  0  0  0  0  0  0  0
   37.2190   27.6200   43.1520 C   0  0  0  0  0  0  0  0  0  0  0  0
   35.9600   27.3610   43.6160 F   0  0  0  0  0  0  0  0  0  0  0  0
   37.9870   26.4680   43.2210 F   0  0  0  0  0  0  0  0  0  0  0  0
   37.8130   28.6330   43.8670 F   0  0  0  0  0  0  0  0  0  0  0  0
  1  2  1  0  0  0  0
  2  3  1  0  0  0  0
  3  4  2  0  0  0  0
  3 27  1  0  0  0  0
  4  8  1  0  0  0  0
  5  9  1  0  0  0  0
  5  4  1  0  0  0  0
  6  5  2  0  0  0  0
  7  6  1  0  0  0  0
  7  2  2  0  0  0  0
 10  6  1  0  0  0  0
 11  7  1  0  0  0  0
 11 22  1  0  0  0  0
 12 11  2  0  0  0  0
 13 12  1  0  0  0  0
 14 12  1  0  0  0  0
 14 15  2  0  0  0  0
 15 21  1  0  0  0  0
 16 15  1  0  0  0  0
 16 17  2  0  0  0  0
 17 19  1  0  0  0  0
 18 17  1  0  0  0  0
 19 20  2  0  0  0  0
 21 22  2  0  0  0  0
 21 20  1  0  0  0  0
 23 24  1  0  0  0  0
 24 30  1  0  0  0  0
 24 25  2  0  0  0  0
 25 31  1  0  0  0  0
 26 25  1  0  0  0  0
 27 26  2  0  0  0  0
 28 23  2  0  0  0  0
 28 27  1  0  0  0  0
 29 23  1  0  0  0  0
 31 33  1  0  0  0  0
 31 32  1  0  0  0  0
 31 34  1  0  0  0  0
M  END
>  <minimizedAffinity>
-6.62943172

$$$$

 OpenBabel03252500113D

 34 37  0  0  0  0  0  0  0  0999 V2000
   39.3990   27.4570   40.3060 Cl  0  0  0  0  0  0  0  0  0  0  0  0
   38.3670   27.5840   41.6820 C   0  0  0  0  0  0  0  0  0  0  0  0
   38.3240   28.7370   42.4360 C   0  0  0  0  0  0  0  0  0  0  0  0
   37.5000   28.8670   43.5530 C   0  0  0  0  0  0  0  0  0  0  0  0
   36.7240   27.7760   43.8670 C   0  0  0  0  0  0  0  0  0  0  0  0
   36.7630   26.6220   43.1180 C   0  0  0  0  0  0  0  0  0  0  0  0
   37.5770   26.5170   42.0290 C   0  0  0  0  0  0  0  0  0  0  0  0
   37.4690   29.7670   44.1390 H   0  0  0  0  0  0  0  0  0  0  0  0
   36.0650   27.8110   44.7200 H   0  0  0  0  0  0  0  0  0  0  0  0
   36.1210   25.7900   43.4220 H   0  0  0  0  0  0  0  0  0  0  0  0
   37.5440   25.2520   41.3020 C   0  0  0  0  0  0  0  0  0  0  0  0
   38.3740   24.1500   41.4850 C   0  0  0  0  0  0  0  0  0  0  0  0
   39.1130   24.2730   42.2590 H   0  0  0  0  0  0  0  0  0  0  0  0
   38.1960   23.0320   40.6980 C   0  0  0  0  0  3  0  0  0  0  0  0
   37.2220   22.9480   39.7230 C   0  0  0  0  0  0  0  0  0  0  0  0
   37.0650   21.8590   38.9730 N   0  0  0  0  0  0  0  0  0  0  0  0
   36.1140   21.7720   38.0180 C   0  0  0  0  0  0  0  0  0  0  0  0
   35.9990   20.8850   37.4180 H   0  0  0  0  0  0  0  0  0  0  0  0
   35.2520   22.8440   37.7840 C   0  0  0  0  0  3  0  0  0  0  0  0
   35.4100   23.9730   38.5580 C   0  0  0  0  0  3  0  0  0  0  0  0
   36.3860   24.0170   39.5150 C   0  0  0  0  0  0  0  0  0  0  0  0
   36.5730   25.1320   40.3070 C   0  0  0  0  0  3  0  0  0  0  0  0
   41.2880   30.8600   41.9090 C   0  0  0  0  0  0  0  0  0  0  0  0
   40.7440   32.0060   41.3020 C   0  0  0  0  0  0  0  0  0  0  0  0
   39.3750   32.0300   41.0850 C   0  0  0  0  0  0  0  0  0  0  0  0
   38.6260   30.9580   41.4630 N   0  0  0  0  0  0  0  0  0  0  0  0
   39.1750   29.8630   42.0480 C   0  0  0  0  0  0  0  0  0  0  0  0
   40.5120   29.8220   42.2680 N   0  0  0  0  0  0  0  0  0  0  0  0
   42.3620   30.8720   42.0650 H   0  0  0  0  0  0  0  0  0  0  0  0
   41.3240   32.8580   40.9980 H   0  0  0  0  0  0  0  0  0  0  0  0
   38.6600   33.1960   40.4430 C   0  0  0  0  0  0  0  0  0  0  0  0
   37.3310   32.9270   40.2800 F   0  0  0  0  0  0  0  0  0  0  0  0
   38.8150   34.3080   41.2560 F   0  0  0  0  0  0  0  0  0  0  0  0
   39.2780   33.4000   39.2320 F   0  0  0  0  0  0  0  0  0  0  0  0
  1  2  1  0  0  0  0
  2  7  2  0  0  0  0
  2  3  1  0  0  0  0
  3  4  2  0  0  0  0
  4  5  1  0  0  0  0
  4  8  1  0  0  0  0
  5  9  1  0  0  0  0
  6 10  1  0  0  0  0
  6  5  2  0  0  0  0
  7  6  1  0  0  0  0
 11 12  1  0  0  0  0
 11  7  1  0  0  0  0
 12 13  1  0  0  0  0
 14 12  2  0  0  0  0
 15 14  1  0  0  0  0
 16 15  2  0  0  0  0
 17 16  1  0  0  0  0
 18 17  1  0  0  0  0
 19 17  2  0  0  0  0
 19 20  1  0  0  0  0
 20 21  2  0  0  0  0
 21 15  1  0  0  0  0
 21 22  1  0  0  0  0
 22 11  2  0  0  0  0
 23 29  1  0  0  0  0
 23 28  1  0  0  0  0
 24 23  2  0  0  0  0
 25 24  1  0  0  0  0
 25 26  2  0  0  0  0
 26 27  1  0  0  0  0
 27 28  2  0  0  0  0
 27  3  1  0  0  0  0
 30 24  1  0  0  0  0
 31 25  1  0  0  0  0
 31 33  1  0  0  0  0
 32 31  1  0  0  0  0
 34 31  1  0  0  0  0
M  END
>  <minimizedAffinity>
-6.52524996

$$$$

 OpenBabel03252500113D

 34 37  0  0  0  0  0  0  0  0999 V2000
   38.0880   27.9530   39.4580 Cl  0  0  0  0  0  0  0  0  0  0  0  0
   37.7170   27.8760   41.1400 C   0  0  0  0  0  0  0  0  0  0  0  0
   37.4800   26.6690   41.7630 C   0  0  0  0  0  0  0  0  0  0  0  0
   37.1780   26.5760   43.1210 C   0  0  0  0  0  0  0  0  0  0  0  0
   37.1280   27.7610   43.8150 C   0  0  0  0  0  0  0  0  0  0  0  0
   37.3630   28.9700   43.2000 C   0  0  0  0  0  0  0  0  0  0  0  0
   37.6570   29.0370   41.8690 C   0  0  0  0  0  0  0  0  0  0  0  0
   36.9940   25.6330   43.6010 H   0  0  0  0  0  0  0  0  0  0  0  0
   36.8990   27.7590   44.8680 H   0  0  0  0  0  0  0  0  0  0  0  0
   37.3070   29.8770   43.8090 H   0  0  0  0  0  0  0  0  0  0  0  0
   37.8900   30.3660   41.3120 C   0  0  0  0  0  0  0  0  0  0  0  0
   36.9540   31.2120   40.7270 C   0  0  0  0  0  0  0  0  0  0  0  0
   35.9530   30.8170   40.6960 H   0  0  0  0  0  0  0  0  0  0  0  0
   37.3600   32.4410   40.2510 C   0  0  0  0  0  3  0  0  0  0  0  0
   38.6660   32.8820   40.3260 C   0  0  0  0  0  0  0  0  0  0  0  0
   39.0400   34.0730   39.8610 N   0  0  0  0  0  0  0  0  0  0  0  0
   40.3160   34.5070   39.9320 C   0  0  0  0  0  0  0  0  0  0  0  0
   40.6040   35.4720   39.5510 H   0  0  0  0  0  0  0  0  0  0  0  0
   41.3020   33.7040   40.5070 C   0  0  0  0  0  3  0  0  0  0  0  0
   40.9210   32.4700   40.9910 C   0  0  0  0  0  3  0  0  0  0  0  0
   39.6160   32.0710   40.8970 C   0  0  0  0  0  0  0  0  0  0  0  0
   39.2000   30.8420   41.3700 C   0  0  0  0  0  3  0  0  0  0  0  0
   38.7850   23.6720   40.0630 C   0  0  0  0  0  0  0  0  0  0  0  0
   37.6360   23.1340   39.4580 C   0  0  0  0  0  0  0  0  0  0  0  0
   36.4370   23.8050   39.6440 C   0  0  0  0  0  0  0  0  0  0  0  0
   36.4240   24.9420   40.3930 N   0  0  0  0  0  0  0  0  0  0  0  0
   37.5490   25.4420   40.9660 C   0  0  0  0  0  0  0  0  0  0  0  0
   38.7290   24.7980   40.7960 N   0  0  0  0  0  0  0  0  0  0  0  0
   39.7070   23.1230   39.8980 H   0  0  0  0  0  0  0  0  0  0  0  0
   37.6310   22.2380   38.8650 H   0  0  0  0  0  0  0  0  0  0  0  0
   35.1270   23.3390   39.0530 C   0  0  0  0  0  0  0  0  0  0  0  0
   34.2330   23.0160   40.0330 F   0  0  0  0  0  0  0  0  0  0  0  0
   34.6120   24.3590   38.2670 F   0  0  0  0  0  0  0  0  0  0  0  0
   35.4300   22.2450   38.2750 F   0  0  0  0  0  0  0  0  0  0  0  0
  1  2  1  0  0  0  0
  2  3  2  0  0  0  0
  2  7  1  0  0  0  0
  3  4  1  0  0  0  0
  4  8  1  0  0  0  0
  4  5  2  0  0  0  0
  5  9  1  0  0  0  0
  6 10  1  0  0  0  0
  6  5  1  0  0  0  0
  7  6  2  0  0  0  0
 11 22  1  0  0  0  0
 11  7  1  0  0  0  0
 12 11  2  0  0  0  0
 13 12  1  0  0  0  0
 14 15  2  0  0  0  0
 14 12  1  0  0  0  0
 15 21  1  0  0  0  0
 16 17  2  0  0  0  0
 16 15  1  0  0  0  0
 17 19  1  0  0  0  0
 18 17  1  0  0  0  0
 19 20  2  0  0  0  0
 21 20  1  0  0  0  0
 21 22  2  0  0  0  0
 23 28  1  0  0  0  0
 24 25  1  0  0  0  0
 24 23  2  0  0  0  0
 25 26  2  0  0  0  0
 26 27  1  0  0  0  0
 27  3  1  0  0  0  0
 28 27  2  0  0  0  0
 29 23  1  0  0  0  0
 30 24  1  0  0  0  0
 31 25  1  0  0  0  0
 31 32  1  0  0  0  0
 33 31  1  0  0  0  0
 34 31  1  0  0  0  0
M  END
>  <minimizedAffinity>
-6.36934042

$$$$

 OpenBabel03252500113D

 34 37  0  0  0  0  0  0  0  0999 V2000
   34.5690   29.7000   39.1810 Cl  0  0  0  0  0  0  0  0  0  0  0  0
   34.5290   28.3420   38.1190 C   0  0  0  0  0  0  0  0  0  0  0  0
   35.5060   27.3710   38.1680 C   0  0  0  0  0  0  0  0  0  0  0  0
   35.4990   26.2630   37.3220 C   0  0  0  0  0  0  0  0  0  0  0  0
   34.4590   26.1870   36.4280 C   0  0  0  0  0  0  0  0  0  0  0  0
   33.4800   27.1540   36.3730 C   0  0  0  0  0  0  0  0  0  0  0  0
   33.5070   28.2300   37.2110 C   0  0  0  0  0  0  0  0  0  0  0  0
   36.2630   25.5080   37.3640 H   0  0  0  0  0  0  0  0  0  0  0  0
   34.3950   25.3550   35.7440 H   0  0  0  0  0  0  0  0  0  0  0  0
   32.6790   27.0340   35.6370 H   0  0  0  0  0  0  0  0  0  0  0  0
   32.4240   29.1980   37.0740 C   0  0  0  0  0  0  0  0  0  0  0  0
   31.4870   29.5590   38.0380 C   0  0  0  0  0  0  0  0  0  0  0  0
   31.5990   29.0510   38.9810 H   0  0  0  0  0  0  0  0  0  0  0  0
   30.5270   30.5000   37.7280 C   0  0  0  0  0  3  0  0  0  0  0  0
   30.4460   31.1110   36.4930 C   0  0  0  0  0  0  0  0  0  0  0  0
   29.5120   32.0180   36.2120 N   0  0  0  0  0  0  0  0  0  0  0  0
   29.4290   32.6180   35.0050 C   0  0  0  0  0  0  0  0  0  0  0  0
   28.6680   33.3480   34.7920 H   0  0  0  0  0  0  0  0  0  0  0  0
   30.3380   32.2970   33.9960 C   0  0  0  0  0  3  0  0  0  0  0  0
   31.3080   31.3600   34.2820 C   0  0  0  0  0  3  0  0  0  0  0  0
   31.3540   30.7780   35.5180 C   0  0  0  0  0  0  0  0  0  0  0  0
   32.3110   29.8350   35.8380 C   0  0  0  0  0  3  0  0  0  0  0  0
   38.7430   28.2350   39.7010 C   0  0  0  0  0  0  0  0  0  0  0  0
   38.6020   27.7540   41.0140 C   0  0  0  0  0  0  0  0  0  0  0  0
   37.4030   27.1440   41.3510 C   0  0  0  0  0  0  0  0  0  0  0  0
   36.4270   27.0370   40.4070 N   0  0  0  0  0  0  0  0  0  0  0  0
   36.5880   27.5100   39.1450 C   0  0  0  0  0  0  0  0  0  0  0  0
   37.7530   28.1100   38.7990 N   0  0  0  0  0  0  0  0  0  0  0  0
   39.6920   28.7070   39.4700 H   0  0  0  0  0  0  0  0  0  0  0  0
   39.3640   27.8310   41.7680 H   0  0  0  0  0  0  0  0  0  0  0  0
   37.1170   26.5820   42.7230 C   0  0  0  0  0  0  0  0  0  0  0  0
   36.6910   25.2870   42.6450 F   0  0  0  0  0  0  0  0  0  0  0  0
   38.2790   26.6470   43.4760 F   0  0  0  0  0  0  0  0  0  0  0  0
   36.1490   27.3920   43.2700 F   0  0  0  0  0  0  0  0  0  0  0  0
  2  3  1  0  0  0  0
  2  1  1  0  0  0  0
  3 27  1  0  0  0  0
  4  8  1  0  0  0  0
  4  3  2  0  0  0  0
  5  4  1  0  0  0  0
  6  5  2  0  0  0  0
  6  7  1  0  0  0  0
  7  2  2  0  0  0  0
  9  5  1  0  0  0  0
 10  6  1  0  0  0  0
 11  7  1  0  0  0  0
 11 12  1  0  0  0  0
 12 13  1  0  0  0  0
 14 12  2  0  0  0  0
 15 14  1  0  0  0  0
 16 15  1  0  0  0  0
 17 16  2  0  0  0  0
 18 17  1  0  0  0  0
 19 20  2  0  0  0  0
 19 17  1  0  0  0  0
 20 21  1  0  0  0  0
 21 22  1  0  0  0  0
 21 15  2  0  0  0  0
 22 11  2  0  0  0  0
 23 24  1  0  0  0  0
 24 25  2  0  0  0  0
 24 30  1  0  0  0  0
 25 31  1  0  0  0  0
 26 25  1  0  0  0  0
 27 26  2  0  0  0  0
 28 27  1  0  0  0  0
 28 23  2  0  0  0  0
 29 23  1  0  0  0  0
 31 34  1  0  0  0  0
 31 33  1  0  0  0  0
 32 31  1  0  0  0  0
M  END
>  <minimizedAffinity>
-6.20046711

$$$$

 OpenBabel03252500113D

 34 37  0  0  0  0  0  0  0  0999 V2000
   40.6640   29.3410   40.4440 Cl  0  0  0  0  0  0  0  0  0  0  0  0
   39.3680   30.1760   39.6720 C   0  0  0  0  0  0  0  0  0  0  0  0
   38.0630   29.9990   40.0790 C   0  0  0  0  0  0  0  0  0  0  0  0
   36.9960   30.6600   39.4730 C   0  0  0  0  0  0  0  0  0  0  0  0
   37.3140   31.5060   38.4380 C   0  0  0  0  0  0  0  0  0  0  0  0
   38.6140   31.6870   38.0250 C   0  0  0  0  0  0  0  0  0  0  0  0
   39.6430   31.0300   38.6330 C   0  0  0  0  0  0  0  0  0  0  0  0
   35.9800   30.5190   39.7940 H   0  0  0  0  0  0  0  0  0  0  0  0
   36.5350   32.0470   37.9260 H   0  0  0  0  0  0  0  0  0  0  0  0
   38.8000   32.3750   37.1950 H   0  0  0  0  0  0  0  0  0  0  0  0
   40.9860   31.2910   38.1220 C   0  0  0  0  0  0  0  0  0  0  0  0
   41.6460   30.6170   37.1000 C   0  0  0  0  0  0  0  0  0  0  0  0
   41.0780   29.8190   36.6520 H   0  0  0  0  0  0  0  0  0  0  0  0
   42.9230   31.0050   36.7500 C   0  0  0  0  0  3  0  0  0  0  0  0
   43.5890   32.0430   37.3710 C   0  0  0  0  0  0  0  0  0  0  0  0
   44.8210   32.4040   37.0190 N   0  0  0  0  0  0  0  0  0  0  0  0
   45.4770   33.4180   37.6240 C   0  0  0  0  0  0  0  0  0  0  0  0
   46.4740   33.6970   37.3290 H   0  0  0  0  0  0  0  0  0  0  0  0
   44.8690   34.1310   38.6570 C   0  0  0  0  0  3  0  0  0  0  0  0
   43.5920   33.7620   39.0250 C   0  0  0  0  0  3  0  0  0  0  0  0
   42.9670   32.7290   38.3840 C   0  0  0  0  0  0  0  0  0  0  0  0
   41.6890   32.3330   38.7280 C   0  0  0  0  0  3  0  0  0  0  0  0
   37.4880   28.6950   43.4770 C   0  0  0  0  0  0  0  0  0  0  0  0
   37.2780   27.3240   43.2510 C   0  0  0  0  0  0  0  0  0  0  0  0
   37.3360   26.8710   41.9410 C   0  0  0  0  0  0  0  0  0  0  0  0
   37.5920   27.7620   40.9440 N   0  0  0  0  0  0  0  0  0  0  0  0
   37.7920   29.0830   41.1890 C   0  0  0  0  0  0  0  0  0  0  0  0
   37.7380   29.5420   42.4630 N   0  0  0  0  0  0  0  0  0  0  0  0
   37.4360   29.0170   44.5120 H   0  0  0  0  0  0  0  0  0  0  0  0
   37.0750   26.6100   44.0280 H   0  0  0  0  0  0  0  0  0  0  0  0
   37.1300   25.4260   41.5560 C   0  0  0  0  0  0  0  0  0  0  0  0
   36.4150   25.3240   40.3960 F   0  0  0  0  0  0  0  0  0  0  0  0
   38.3720   24.8320   41.3930 F   0  0  0  0  0  0  0  0  0  0  0  0
   36.4580   24.8450   42.6060 F   0  0  0  0  0  0  0  0  0  0  0  0
  2  3  1  0  0  0  0
  2  1  1  0  0  0  0
  3 27  1  0  0  0  0
  4  8  1  0  0  0  0
  4  3  2  0  0  0  0
  5  4  1  0  0  0  0
  6  5  2  0  0  0  0
  6  7  1  0  0  0  0
  7  2  2  0  0  0  0
  9  5  1  0  0  0  0
 10  6  1  0  0  0  0
 11  7  1  0  0  0  0
 11 22  1  0  0  0  0
 12 11  2  0  0  0  0
 13 12  1  0  0  0  0
 14 12  1  0  0  0  0
 14 15  2  0  0  0  0
 15 21  1  0  0  0  0
 16 15  1  0  0  0  0
 16 17  2  0  0  0  0
 17 19  1  0  0  0  0
 18 17  1  0  0  0  0
 19 20  2  0  0  0  0
 21 22  2  0  0  0  0
 21 20  1  0  0  0  0
 23 29  1  0  0  0  0
 24 23  1  0  0  0  0
 24 30  1  0  0  0  0
 25 24  2  0  0  0  0
 26 27  2  0  0  0  0
 26 25  1  0  0  0  0
 27 28  1  0  0  0  0
 28 23  2  0  0  0  0
 31 25  1  0  0  0  0
 31 34  1  0  0  0  0
 32 31  1  0  0  0  0
 33 31  1  0  0  0  0
M  END
>  <minimizedAffinity>
-6.19489908

$$$$

 OpenBabel03252500113D

 34 37  0  0  0  0  0  0  0  0999 V2000
   38.2610   28.1920   39.4270 Cl  0  0  0  0  0  0  0  0  0  0  0  0
   38.0050   28.0980   41.1290 C   0  0  0  0  0  0  0  0  0  0  0  0
   37.9320   29.2370   41.9020 C   0  0  0  0  0  0  0  0  0  0  0  0
   37.7270   29.1920   43.2810 C   0  0  0  0  0  0  0  0  0  0  0  0
   37.5970   27.9410   43.8350 C   0  0  0  0  0  0  0  0  0  0  0  0
   37.6690   26.8000   43.0690 C   0  0  0  0  0  0  0  0  0  0  0  0
   37.8710   26.8680   41.7220 C   0  0  0  0  0  0  0  0  0  0  0  0
   37.6710   30.0820   43.8790 H   0  0  0  0  0  0  0  0  0  0  0  0
   37.4370   27.8360   44.8960 H   0  0  0  0  0  0  0  0  0  0  0  0
   37.5590   25.8340   43.5720 H   0  0  0  0  0  0  0  0  0  0  0  0
   37.9310   25.6010   41.0000 C   0  0  0  0  0  0  0  0  0  0  0  0
   39.0690   24.8930   40.6290 C   0  0  0  0  0  0  0  0  0  0  0  0
   39.9970   25.3550   40.9230 H   0  0  0  0  0  0  0  0  0  0  0  0
   38.9320   23.7040   39.9440 C   0  0  0  0  0  3  0  0  0  0  0  0
   37.7050   23.1720   39.6010 C   0  0  0  0  0  0  0  0  0  0  0  0
   37.5920   22.0220   38.9400 N   0  0  0  0  0  0  0  0  0  0  0  0
   36.3940   21.4980   38.6030 C   0  0  0  0  0  0  0  0  0  0  0  0
   36.3180   20.5670   38.0670 H   0  0  0  0  0  0  0  0  0  0  0  0
   35.2150   22.1610   38.9450 C   0  0  0  0  0  3  0  0  0  0  0  0
   35.3260   23.3520   39.6310 C   0  0  0  0  0  3  0  0  0  0  0  0
   36.5600   23.8450   39.9510 C   0  0  0  0  0  0  0  0  0  0  0  0
   36.7080   25.0350   40.6370 C   0  0  0  0  0  3  0  0  0  0  0  0
   37.1440   32.3570   40.1080 C   0  0  0  0  0  0  0  0  0  0  0  0
   38.3950   32.9940   40.0300 C   0  0  0  0  0  0  0  0  0  0  0  0
   39.4840   32.3450   40.5920 C   0  0  0  0  0  0  0  0  0  0  0  0
   39.2970   31.1340   41.1880 N   0  0  0  0  0  0  0  0  0  0  0  0
   38.0780   30.5400   41.2500 C   0  0  0  0  0  0  0  0  0  0  0  0
   37.0030   31.1610   40.7060 N   0  0  0  0  0  0  0  0  0  0  0  0
   36.3130   32.8910   39.6590 H   0  0  0  0  0  0  0  0  0  0  0  0
   38.5560   33.9480   39.5630 H   0  0  0  0  0  0  0  0  0  0  0  0
   40.8830   32.9130   40.5800 C   0  0  0  0  0  0  0  0  0  0  0  0
   40.8720   34.2500   40.8580 F   0  0  0  0  0  0  0  0  0  0  0  0
   41.6380   32.2440   41.5300 F   0  0  0  0  0  0  0  0  0  0  0  0
   41.3790   32.6710   39.3200 F   0  0  0  0  0  0  0  0  0  0  0  0
  1  2  1  0  0  0  0
  2  7  2  0  0  0  0
  2  3  1  0  0  0  0
  3  4  2  0  0  0  0
  4  5  1  0  0  0  0
  4  8  1  0  0  0  0
  5  9  1  0  0  0  0
  6 10  1  0  0  0  0
  6  5  2  0  0  0  0
  7  6  1  0  0  0  0
 11  7  1  0  0  0  0
 12 13  1  0  0  0  0
 12 11  2  0  0  0  0
 14 12  1  0  0  0  0
 15 14  2  0  0  0  0
 15 21  1  0  0  0  0
 16 15  1  0  0  0  0
 17 16  2  0  0  0  0
 17 19  1  0  0  0  0
 18 17  1  0  0  0  0
 19 20  2  0  0  0  0
 20 21  1  0  0  0  0
 21 22  2  0  0  0  0
 22 11  1  0  0  0  0
 23 28  1  0  0  0  0
 24 23  2  0  0  0  0
 24 25  1  0  0  0  0
 25 26  2  0  0  0  0
 26 27  1  0  0  0  0
 27  3  1  0  0  0  0
 28 27  2  0  0  0  0
 29 23  1  0  0  0  0
 30 24  1  0  0  0  0
 31 25  1  0  0  0  0
 31 32  1  0  0  0  0
 31 33  1  0  0  0  0
 34 31  1  0  0  0  0
M  END
>  <minimizedAffinity>
-6.193223

$$$$

 OpenBabel03252500113D

 34 37  0  0  0  0  0  0  0  0999 V2000
   40.3940   30.1770   39.4460 Cl  0  0  0  0  0  0  0  0  0  0  0  0
   39.8630   31.8050   39.6540 C   0  0  0  0  0  0  0  0  0  0  0  0
   38.5980   32.0870   40.1220 C   0  0  0  0  0  0  0  0  0  0  0  0
   38.1410   33.3920   40.2990 C   0  0  0  0  0  0  0  0  0  0  0  0
   39.0260   34.3940   39.9810 C   0  0  0  0  0  0  0  0  0  0  0  0
   40.2910   34.1200   39.5120 C   0  0  0  0  0  0  0  0  0  0  0  0
   40.7170   32.8340   39.3460 C   0  0  0  0  0  0  0  0  0  0  0  0
   37.1540   33.6070   40.6650 H   0  0  0  0  0  0  0  0  0  0  0  0
   38.7360   35.4260   40.0950 H   0  0  0  0  0  0  0  0  0  0  0  0
   40.9470   34.9630   39.2760 H   0  0  0  0  0  0  0  0  0  0  0  0
   42.0750   32.6490   38.8440 C   0  0  0  0  0  0  0  0  0  0  0  0
   43.2480   33.1810   39.3680 C   0  0  0  0  0  0  0  0  0  0  0  0
   43.1090   33.7940   40.2430 H   0  0  0  0  0  0  0  0  0  0  0  0
   44.4510   32.8960   38.7560 C   0  0  0  0  0  3  0  0  0  0  0  0
   44.5520   32.0990   37.6340 C   0  0  0  0  0  0  0  0  0  0  0  0
   45.7230   31.8350   37.0560 N   0  0  0  0  0  0  0  0  0  0  0  0
   45.8270   31.0560   35.9580 C   0  0  0  0  0  0  0  0  0  0  0  0
   46.7800   30.8520   35.5020 H   0  0  0  0  0  0  0  0  0  0  0  0
   44.6850   30.4940   35.3850 C   0  0  0  0  0  3  0  0  0  0  0  0
   43.4710   30.7640   35.9780 C   0  0  0  0  0  3  0  0  0  0  0  0
   43.4140   31.5580   37.0900 C   0  0  0  0  0  0  0  0  0  0  0  0
   42.2140   31.8490   37.7100 C   0  0  0  0  0  3  0  0  0  0  0  0
   35.6930   29.8200   40.1140 C   0  0  0  0  0  0  0  0  0  0  0  0
   36.0460   28.8610   41.0790 C   0  0  0  0  0  0  0  0  0  0  0  0
   37.2710   29.0070   41.7130 C   0  0  0  0  0  0  0  0  0  0  0  0
   38.0670   30.0590   41.3800 N   0  0  0  0  0  0  0  0  0  0  0  0
   37.7030   30.9730   40.4440 C   0  0  0  0  0  0  0  0  0  0  0  0
   36.5100   30.8450   39.8140 N   0  0  0  0  0  0  0  0  0  0  0  0
   34.7290   29.6780   39.6360 H   0  0  0  0  0  0  0  0  0  0  0  0
   35.4280   28.0260   41.3510 H   0  0  0  0  0  0  0  0  0  0  0  0
   37.7750   28.0510   42.7680 C   0  0  0  0  0  0  0  0  0  0  0  0
   39.0500   28.3630   43.1440 F   0  0  0  0  0  0  0  0  0  0  0  0
   36.9330   28.1230   43.8660 F   0  0  0  0  0  0  0  0  0  0  0  0
   37.7160   26.7980   42.2040 F   0  0  0  0  0  0  0  0  0  0  0  0
  1  2  1  0  0  0  0
  2  3  1  0  0  0  0
  3  4  2  0  0  0  0
  3 27  1  0  0  0  0
  4  8  1  0  0  0  0
  5  9  1  0  0  0  0
  5  4  1  0  0  0  0
  6  5  2  0  0  0  0
  7  6  1  0  0  0  0
  7  2  2  0  0  0  0
 10  6  1  0  0  0  0
 11  7  1  0  0  0  0
 11 12  1  0  0  0  0
 12 13  1  0  0  0  0
 14 12  2  0  0  0  0
 15 14  1  0  0  0  0
 16 15  2  0  0  0  0
 17 16  1  0  0  0  0
 18 17  1  0  0  0  0
 19 17  2  0  0  0  0
 19 20  1  0  0  0  0
 20 21  2  0  0  0  0
 21 15  1  0  0  0  0
 21 22  1  0  0  0  0
 22 11  2  0  0  0  0
 23 24  1  0  0  0  0
 24 30  1  0  0  0  0
 24 25  2  0  0  0  0
 25 31  1  0  0  0  0
 26 25  1  0  0  0  0
 27 26  2  0  0  0  0
 28 23  2  0  0  0  0
 28 27  1  0  0  0  0
 29 23  1  0  0  0  0
 31 32  1  0  0  0  0
 31 33  1  0  0  0  0
 34 31  1  0  0  0  0
M  END
>  <minimizedAffinity>
-6.17739534

$$$$

 OpenBabel03252500113D

 34 37  0  0  0  0  0  0  0  0999 V2000
   35.5870   29.6330   39.5650 Cl  0  0  0  0  0  0  0  0  0  0  0  0
   35.8440   27.9610   39.2300 C   0  0  0  0  0  0  0  0  0  0  0  0
   36.5430   27.1580   40.1060 C   0  0  0  0  0  0  0  0  0  0  0  0
   36.7670   25.8040   39.8600 C   0  0  0  0  0  0  0  0  0  0  0  0
   36.2500   25.3050   38.6880 C   0  0  0  0  0  0  0  0  0  0  0  0
   35.5520   26.1010   37.8090 C   0  0  0  0  0  0  0  0  0  0  0  0
   35.3450   27.4240   38.0700 C   0  0  0  0  0  0  0  0  0  0  0  0
   37.3120   25.1820   40.5460 H   0  0  0  0  0  0  0  0  0  0  0  0
   36.3880   24.2650   38.4380 H   0  0  0  0  0  0  0  0  0  0  0  0
   35.1670   25.6420   36.8930 H   0  0  0  0  0  0  0  0  0  0  0  0
   34.5920   28.1820   37.0750 C   0  0  0  0  0  0  0  0  0  0  0  0
   34.9850   28.4960   35.7780 C   0  0  0  0  0  0  0  0  0  0  0  0
   35.9580   28.1230   35.5040 H   0  0  0  0  0  0  0  0  0  0  0  0
   34.1360   29.2270   34.9740 C   0  0  0  0  0  3  0  0  0  0  0  0
   32.8990   29.6710   35.3960 C   0  0  0  0  0  0  0  0  0  0  0  0
   32.0920   30.3770   34.6050 N   0  0  0  0  0  0  0  0  0  0  0  0
   30.8820   30.8130   35.0130 C   0  0  0  0  0  0  0  0  0  0  0  0
   30.2410   31.3830   34.3630 H   0  0  0  0  0  0  0  0  0  0  0  0
   30.4320   30.5320   36.3040 C   0  0  0  0  0  3  0  0  0  0  0  0
   31.2620   29.8010   37.1270 C   0  0  0  0  0  3  0  0  0  0  0  0
   32.4800   29.3800   36.6700 C   0  0  0  0  0  0  0  0  0  0  0  0
   33.3370   28.6470   37.4680 C   0  0  0  0  0  3  0  0  0  0  0  0
   36.9880   28.0130   43.6620 C   0  0  0  0  0  0  0  0  0  0  0  0
   38.0860   28.8900   43.6340 C   0  0  0  0  0  0  0  0  0  0  0  0
   38.6540   29.1710   42.4010 C   0  0  0  0  0  0  0  0  0  0  0  0
   38.1300   28.5950   41.2840 N   0  0  0  0  0  0  0  0  0  0  0  0
   37.0670   27.7510   41.3370 C   0  0  0  0  0  0  0  0  0  0  0  0
   36.5000   27.4650   42.5340 N   0  0  0  0  0  0  0  0  0  0  0  0
   36.5660   27.8140   44.6420 H   0  0  0  0  0  0  0  0  0  0  0  0
   38.5100   29.3510   44.5070 H   0  0  0  0  0  0  0  0  0  0  0  0
   39.8360   30.0950   42.2260 C   0  0  0  0  0  0  0  0  0  0  0  0
   39.8890   30.5900   40.9540 F   0  0  0  0  0  0  0  0  0  0  0  0
   39.7160   31.1390   43.1290 F   0  0  0  0  0  0  0  0  0  0  0  0
   40.9510   29.3420   42.5130 F   0  0  0  0  0  0  0  0  0  0  0  0
  2  1  1  0  0  0  0
  2  3  1  0  0  0  0
  3 27  1  0  0  0  0
  4  3  2  0  0  0  0
  4  8  1  0  0  0  0
  5  4  1  0  0  0  0
  6  7  1  0  0  0  0
  6  5  2  0  0  0  0
  7  2  2  0  0  0  0
  9  5  1  0  0  0  0
 10  6  1  0  0  0  0
 11 22  1  0  0  0  0
 11  7  1  0  0  0  0
 12 11  2  0  0  0  0
 13 12  1  0  0  0  0
 14 15  2  0  0  0  0
 14 12  1  0  0  0  0
 15 21  1  0  0  0  0
 16 17  2  0  0  0  0
 16 15  1  0  0  0  0
 17 19  1  0  0  0  0
 18 17  1  0  0  0  0
 19 20  2  0  0  0  0
 21 20  1  0  0  0  0
 21 22  2  0  0  0  0
 23 29  1  0  0  0  0
 24 23  1  0  0  0  0
 24 30  1  0  0  0  0
 25 24  2  0  0  0  0
 26 27  2  0  0  0  0
 26 25  1  0  0  0  0
 27 28  1  0  0  0  0
 28 23  2  0  0  0  0
 31 25  1  0  0  0  0
 31 34  1  0  0  0  0
 31 33  1  0  0  0  0
 32 31  1  0  0  0  0
M  END
>  <minimizedAffinity>
-6.16820478

$$$$

 OpenBabel03252500113D

 34 37  0  0  0  0  0  0  0  0999 V2000
   39.7520   28.4810   40.7920 Cl  0  0  0  0  0  0  0  0  0  0  0  0
   38.1380   29.0010   40.4790 C   0  0  0  0  0  0  0  0  0  0  0  0
   37.0850   28.1110   40.5060 C   0  0  0  0  0  0  0  0  0  0  0  0
   35.7710   28.5020   40.2560 C   0  0  0  0  0  0  0  0  0  0  0  0
   35.5750   29.8340   39.9800 C   0  0  0  0  0  0  0  0  0  0  0  0
   36.6220   30.7280   39.9510 C   0  0  0  0  0  0  0  0  0  0  0  0
   37.9000   30.3230   40.1980 C   0  0  0  0  0  0  0  0  0  0  0  0
   34.9530   27.8050   40.2790 H   0  0  0  0  0  0  0  0  0  0  0  0
   34.5820   30.2020   39.7770 H   0  0  0  0  0  0  0  0  0  0  0  0
   36.3980   31.7750   39.7230 H   0  0  0  0  0  0  0  0  0  0  0  0
   38.9380   31.3470   40.1440 C   0  0  0  0  0  0  0  0  0  0  0  0
   39.3340   32.2030   41.1670 C   0  0  0  0  0  0  0  0  0  0  0  0
   38.7980   32.0710   42.0920 H   0  0  0  0  0  0  0  0  0  0  0  0
   40.3410   33.1160   40.9330 C   0  0  0  0  0  3  0  0  0  0  0  0
   40.9860   33.2260   39.7170 C   0  0  0  0  0  0  0  0  0  0  0  0
   41.9570   34.1140   39.5090 N   0  0  0  0  0  0  0  0  0  0  0  0
   42.5900   34.2260   38.3220 C   0  0  0  0  0  0  0  0  0  0  0  0
   43.3720   34.9490   38.1670 H   0  0  0  0  0  0  0  0  0  0  0  0
   42.2370   33.3970   37.2560 C   0  0  0  0  0  3  0  0  0  0  0  0
   41.2340   32.4760   37.4650 C   0  0  0  0  0  3  0  0  0  0  0  0
   40.6200   32.3980   38.6850 C   0  0  0  0  0  0  0  0  0  0  0  0
   39.6100   31.4870   38.9300 C   0  0  0  0  0  3  0  0  0  0  0  0
   36.9110   24.4310   40.4860 C   0  0  0  0  0  0  0  0  0  0  0  0
   37.9120   24.0680   41.4030 C   0  0  0  0  0  0  0  0  0  0  0  0
   38.6290   25.0890   42.0100 C   0  0  0  0  0  0  0  0  0  0  0  0
   38.3350   26.3810   41.6970 N   0  0  0  0  0  0  0  0  0  0  0  0
   37.3610   26.7050   40.8080 C   0  0  0  0  0  0  0  0  0  0  0  0
   36.6520   25.7200   40.2050 N   0  0  0  0  0  0  0  0  0  0  0  0
   36.3690   23.6100   40.0290 H   0  0  0  0  0  0  0  0  0  0  0  0
   38.1550   23.0530   41.6590 H   0  0  0  0  0  0  0  0  0  0  0  0
   39.7310   24.8430   43.0130 C   0  0  0  0  0  0  0  0  0  0  0  0
   39.8690   25.9040   43.8620 F   0  0  0  0  0  0  0  0  0  0  0  0
   39.4200   23.7030   43.7380 F   0  0  0  0  0  0  0  0  0  0  0  0
   40.8760   24.6420   42.2770 F   0  0  0  0  0  0  0  0  0  0  0  0
  2  3  1  0  0  0  0
  2  1  1  0  0  0  0
  3 27  1  0  0  0  0
  4  8  1  0  0  0  0
  4  3  2  0  0  0  0
  5  4  1  0  0  0  0
  6  5  2  0  0  0  0
  6  7  1  0  0  0  0
  7  2  2  0  0  0  0
  9  5  1  0  0  0  0
 10  6  1  0  0  0  0
 11  7  1  0  0  0  0
 11 12  1  0  0  0  0
 12 13  1  0  0  0  0
 14 12  2  0  0  0  0
 15 14  1  0  0  0  0
 16 15  1  0  0  0  0
 17 16  2  0  0  0  0
 18 17  1  0  0  0  0
 19 20  2  0  0  0  0
 19 17  1  0  0  0  0
 20 21  1  0  0  0  0
 21 22  1  0  0  0  0
 21 15  2  0  0  0  0
 22 11  2  0  0  0  0
 23 24  1  0  0  0  0
 24 30  1  0  0  0  0
 24 25  2  0  0  0  0
 25 31  1  0  0  0  0
 26 25  1  0  0  0  0
 27 26  2  0  0  0  0
 28 23  2  0  0  0  0
 28 27  1  0  0  0  0
 29 23  1  0  0  0  0
 31 33  1  0  0  0  0
 31 32  1  0  0  0  0
 34 31  1  0  0  0  0
M  END
>  <minimizedAffinity>
-6.10947704

$$$$
