
 OpenBabel03252508183D

 50 55  0  0  1  0  0  0  0  0999 V2000
   46.8260   31.6130   48.2360 C   0  0  1  0  0  0  0  0  0  0  0  0
   46.3490   30.5630   49.1790 C   0  0  0  0  0  0  0  0  0  0  0  0
   47.6070   31.2570   49.4360 C   0  0  1  0  0  0  0  0  0  0  0  0
   46.0710   32.4540   48.2150 H   0  0  0  0  0  0  0  0  0  0  0  0
   45.5030   30.7260   49.8750 H   0  0  0  0  0  0  0  0  0  0  0  0
   46.4260   29.4940   48.8580 H   0  0  0  0  0  0  0  0  0  0  0  0
   47.5990   32.0050   50.2560 H   0  0  0  0  0  0  0  0  0  0  0  0
   48.9340   30.5940   49.2400 C   0  0  2  0  0  0  0  0  0  0  0  0
   49.6140   30.1920   50.5740 C   0  0  0  0  0  0  0  0  0  0  0  0
   50.1670   31.3060   49.7870 C   0  0  1  0  0  0  0  0  0  0  0  0
   49.0920   29.8060   48.4930 H   0  0  0  0  0  0  0  0  0  0  0  0
   49.1190   30.4800   51.5190 H   0  0  0  0  0  0  0  0  0  0  0  0
   50.1780   29.2690   50.6480 H   0  0  0  0  0  0  0  0  0  0  0  0
   50.0250   32.3450   50.1470 H   0  0  0  0  0  0  0  0  0  0  0  0
   51.4630   31.0730   49.1200 C   0  0  0  0  0  0  0  0  0  0  0  0
   51.5670   29.9680   48.2680 C   0  0  0  0  0  0  0  0  0  0  0  0
   50.7440   29.2790   48.0790 H   0  0  0  0  0  0  0  0  0  0  0  0
   52.7650   29.6950   47.6090 C   0  0  0  0  0  3  0  0  0  0  0  0
   53.8750   30.5070   47.7780 C   0  0  0  0  0  0  0  0  0  0  0  0
   55.0150   30.2320   47.1380 N   0  0  0  0  0  0  0  0  0  0  0  0
   56.1250   30.9800   47.2620 C   0  0  0  0  0  0  0  0  0  0  0  0
   57.0270   30.7230   46.7270 H   0  0  0  0  0  0  0  0  0  0  0  0
   56.0380   32.0800   48.1010 C   0  0  0  0  0  3  0  0  0  0  0  0
   54.8640   32.4030   48.7900 C   0  0  0  0  0  3  0  0  0  0  0  0
   53.7380   31.5970   48.6310 C   0  0  0  0  0  0  0  0  0  0  0  0
   52.5590   31.8930   49.3000 C   0  0  0  0  0  3  0  0  0  0  0  0
   47.2410   31.1230   46.8960 C   0  0  0  0  0  0  0  0  0  0  0  0
   46.5350   30.2810   46.6330 H   0  0  0  0  0  0  0  0  0  0  0  0
   48.2380   30.7450   46.7690 H   0  0  0  0  0  0  0  0  0  0  0  0
   46.1260   33.0550   46.1460 C   0  0  0  0  0  3  0  0  0  0  0  0
   46.9600   32.1550   45.8310 C   0  0  0  0  0  3  0  0  0  0  0  0
   44.5480   35.8840   44.3860 C   0  0  0  0  0  0  0  0  0  0  0  0
   45.1790   35.8710   43.1470 C   0  0  0  0  0  0  0  0  0  0  0  0
   46.1140   34.9040   42.9570 C   0  0  0  0  0  0  0  0  0  0  0  0
   46.3910   34.0140   43.9500 N   0  0  0  0  0  0  0  0  0  0  0  0
   45.7620   34.0540   45.1380 C   0  0  0  0  0  0  0  0  0  0  0  0
   44.8530   34.9930   45.3230 N   0  0  0  0  0  0  0  0  0  0  0  0
   43.7900   36.6360   44.5930 H   0  0  0  0  0  0  0  0  0  0  0  0
   44.9390   36.5910   42.3750 H   0  0  0  0  0  0  0  0  0  0  0  0
   46.8570   34.7670   41.7110 C   0  0  0  0  0  0  0  0  0  0  0  0
   48.0580   35.3560   41.4460 C   0  0  0  0  0  0  0  0  0  0  0  0
   48.7490   35.2150   40.2590 C   0  0  0  0  0  0  0  0  0  0  0  0
   48.2200   34.4330   39.2510 C   0  0  0  0  0  0  0  0  0  0  0  0
   47.0170   33.8140   39.4570 C   0  0  0  0  0  0  0  0  0  0  0  0
   46.3700   33.9930   40.6670 C   0  0  0  0  0  0  0  0  0  0  0  0
   48.5080   35.9840   42.2220 H   0  0  0  0  0  0  0  0  0  0  0  0
   49.6920   35.6850   40.0640 H   0  0  0  0  0  0  0  0  0  0  0  0
   48.6770   34.2530   38.2810 H   0  0  0  0  0  0  0  0  0  0  0  0
   46.5590   33.1920   38.7030 H   0  0  0  0  0  0  0  0  0  0  0  0
   45.4110   33.4800   40.7910 H   0  0  0  0  0  0  0  0  0  0  0  0
  1  4  1  1  0  0  0
  1  2  1  0  0  0  0
  1  3  1  0  0  0  0
  2  3  1  0  0  0  0
  2  5  1  0  0  0  0
  3  7  1  1  0  0  0
  6  2  1  0  0  0  0
  8 11  1  6  0  0  0
  8  3  1  0  0  0  0
  8 10  1  0  0  0  0
  8  9  1  0  0  0  0
  9 13  1  0  0  0  0
  9 12  1  0  0  0  0
 10 14  1  1  0  0  0
 10  9  1  0  0  0  0
 15 26  1  0  0  0  0
 15 10  1  0  0  0  0
 16 15  2  0  0  0  0
 17 16  1  0  0  0  0
 18 19  2  0  0  0  0
 18 16  1  0  0  0  0
 19 25  1  0  0  0  0
 20 21  2  0  0  0  0
 20 19  1  0  0  0  0
 21 23  1  0  0  0  0
 22 21  1  0  0  0  0
 23 24  2  0  0  0  0
 25 24  1  0  0  0  0
 25 26  2  0  0  0  0
 27  1  1  0  0  0  0
 28 27  1  0  0  0  0
 29 27  1  0  0  0  0
 31 30  2  0  0  0  0
 31 27  1  0  0  0  0
 32 38  1  0  0  0  0
 32 37  1  0  0  0  0
 33 32  2  0  0  0  0
 34 33  1  0  0  0  0
 34 35  2  0  0  0  0
 35 36  1  0  0  0  0
 36 37  2  0  0  0  0
 36 30  1  0  0  0  0
 39 33  1  0  0  0  0
 40 34  1  0  0  0  0
 41 40  1  0  0  0  0
 41 46  1  0  0  0  0
 42 41  2  0  0  0  0
 43 44  2  0  0  0  0
 43 42  1  0  0  0  0
 44 45  1  0  0  0  0
 45 50  1  0  0  0  0
 45 40  2  0  0  0  0
 47 42  1  0  0  0  0
 48 43  1  0  0  0  0
 49 44  1  0  0  0  0
M  END
>  <minimizedAffinity>
-6.82061434

>  <minimizedRMSD>
0.98889339

$$$$
