
 OpenBabel03252503473D

 47 51  0  0  1  0  0  0  0  0999 V2000
   46.1750   35.3830   42.6300 C   0  0  0  0  0  0  0  0  0  0  0  0
   47.1870   35.2940   42.2030 H   0  0  0  0  0  0  0  0  0  0  0  0
   46.0880   36.4590   42.9480 H   0  0  0  0  0  0  0  0  0  0  0  0
   45.0660   35.0880   41.7160 C   0  0  0  0  0  0  0  0  0  0  0  0
   43.7980   35.6090   41.8150 C   0  0  0  0  0  0  0  0  0  0  0  0
   42.7820   35.2840   40.9420 C   0  0  0  0  0  0  0  0  0  0  0  0
   43.0520   34.4010   39.9290 C   0  0  0  0  0  0  0  0  0  0  0  0
   44.3310   33.8610   39.8080 C   0  0  0  0  0  0  0  0  0  0  0  0
   45.3600   34.2020   40.7070 C   0  0  0  0  0  0  0  0  0  0  0  0
   43.6740   36.3060   42.6560 H   0  0  0  0  0  0  0  0  0  0  0  0
   41.8450   35.7770   41.1530 H   0  0  0  0  0  0  0  0  0  0  0  0
   42.2120   34.1900   39.2830 H   0  0  0  0  0  0  0  0  0  0  0  0
   44.3580   33.1820   38.9510 H   0  0  0  0  0  0  0  0  0  0  0  0
   46.5570   33.5130   40.2690 C   0  0  0  0  0  0  0  0  0  0  0  0
   46.7910   32.8650   39.0770 C   0  0  0  0  0  0  0  0  0  0  0  0
   45.9870   32.8260   38.3690 H   0  0  0  0  0  0  0  0  0  0  0  0
   47.9720   32.2550   38.7380 C   0  0  0  0  0  0  0  0  0  0  0  0
   48.9980   32.2900   39.6520 C   0  0  0  0  0  0  0  0  0  0  0  0
   50.1650   31.6980   39.3410 N   0  0  0  0  0  0  0  0  0  0  0  0
   51.2130   31.7060   40.2160 C   0  0  0  0  0  0  0  0  0  0  0  0
   52.1160   31.2180   39.9110 H   0  0  0  0  0  0  0  0  0  0  0  0
   51.0620   32.3410   41.4500 C   0  0  0  0  0  0  0  0  0  0  0  0
   49.8860   32.9690   41.8300 C   0  0  0  0  0  0  0  0  0  0  0  0
   48.8880   32.9070   40.8800 C   0  0  0  0  0  0  0  0  0  0  0  0
   47.6620   33.4890   41.1230 C   0  0  0  0  0  0  0  0  0  0  0  0
   45.1580   34.7990   44.8120 C   0  0  0  0  0  0  0  0  0  0  0  0
   46.0980   34.5450   43.8180 C   0  0  0  0  0  0  0  0  0  0  0  0
   46.9540   33.4610   44.0150 C   0  0  0  0  0  0  0  0  0  0  0  0
   46.8670   32.6930   45.1240 N   0  0  0  0  0  0  0  0  0  0  0  0
   45.9340   32.9760   46.0670 C   0  0  0  0  0  0  0  0  0  0  0  0
   45.0850   34.0190   45.9170 N   0  0  0  0  0  0  0  0  0  0  0  0
   44.4810   35.6240   44.6970 H   0  0  0  0  0  0  0  0  0  0  0  0
   47.7310   33.1530   43.3610 H   0  0  0  0  0  0  0  0  0  0  0  0
   47.2960   31.7260   47.7320 C   0  0  2  0  0  0  0  0  0  0  0  0
   45.8690   32.1150   47.2470 C   0  0  1  0  0  0  0  0  0  0  0  0
   45.4140   32.6980   48.3810 O   0  0  0  0  0  0  0  0  0  0  0  0
   45.7380   31.8840   49.4290 C   0  0  0  0  0  0  0  0  0  0  0  0
   46.8570   30.9720   48.9950 C   0  0  2  0  0  0  0  0  0  0  0  0
   47.7960   31.0670   47.0090 H   0  0  0  0  0  0  0  0  0  0  0  0
   45.3100   31.1990   47.0100 H   0  0  0  0  0  0  0  0  0  0  0  0
   46.1630   32.5260   50.2500 H   0  0  0  0  0  0  0  0  0  0  0  0
   44.8760   31.3690   49.8680 H   0  0  0  0  0  0  0  0  0  0  0  0
   46.4070   30.0040   48.6690 H   0  0  0  0  0  0  0  0  0  0  0  0
   47.9710   32.8200   48.1230 O   0  0  0  0  0  0  0  0  0  0  0  0
   48.9420   32.6180   48.1550 H   0  0  0  0  0  0  0  0  0  0  0  0
   47.8660   30.8490   49.9150 O   0  0  0  0  0  0  0  0  0  0  0  0
   48.3270   29.9840   49.7140 H   0  0  0  0  0  0  0  0  0  0  0  0
  1  3  1  0  0  0  0
  1 27  1  0  0  0  0
  2  1  1  0  0  0  0
  4  5  1  0  0  0  0
  4  1  1  0  0  0  0
  5 10  1  0  0  0  0
  6 11  1  0  0  0  0
  6  5  2  0  0  0  0
  7  6  1  0  0  0  0
  8  7  2  0  0  0  0
  8  9  1  0  0  0  0
  9  4  2  0  0  0  0
 12  7  1  0  0  0  0
 13  8  1  0  0  0  0
 14  9  1  0  0  0  0
 14 25  1  0  0  0  0
 15 14  2  0  0  0  0
 16 15  1  0  0  0  0
 17 15  1  0  0  0  0
 17 18  2  0  0  0  0
 18 24  1  0  0  0  0
 19 18  1  0  0  0  0
 19 20  2  0  0  0  0
 20 22  1  0  0  0  0
 21 20  1  0  0  0  0
 22 23  2  0  0  0  0
 24 25  2  0  0  0  0
 24 23  1  0  0  0  0
 26 31  1  0  0  0  0
 27 28  1  0  0  0  0
 27 26  2  0  0  0  0
 28 29  2  0  0  0  0
 29 30  1  0  0  0  0
 30 35  1  0  0  0  0
 31 30  2  0  0  0  0
 32 26  1  0  0  0  0
 33 28  1  0  0  0  0
 34 39  1  6  0  0  0
 34 44  1  0  0  0  0
 34 38  1  0  0  0  0
 35 40  1  6  0  0  0
 35 34  1  0  0  0  0
 35 36  1  0  0  0  0
 36 37  1  0  0  0  0
 37 42  1  0  0  0  0
 37 41  1  0  0  0  0
 38 43  1  6  0  0  0
 38 37  1  0  0  0  0
 38 46  1  0  0  0  0
 44 45  1  0  0  0  0
 47 46  1  0  0  0  0
M  END
>  <minimizedAffinity>
-7.75331116

>  <minimizedRMSD>
0.518319726

$$$$
