
 OpenBabel03252509053D

 51 54  0  0  1  0  0  0  0  0999 V2000
   47.1670   34.2160   43.1100 N   0  0  0  0  0  0  0  0  0  0  0  0
   46.5910   35.0270   42.1030 C   0  0  0  0  0  0  0  0  0  0  0  0
   45.0790   34.9360   42.0030 C   0  0  0  0  0  0  0  0  0  0  0  0
   44.3830   34.7250   43.3250 C   0  0  0  0  0  0  0  0  0  0  0  0
   45.3630   34.7340   44.4840 C   0  0  0  0  0  0  0  0  0  0  0  0
   46.3950   33.6180   44.0800 C   0  0  2  0  0  0  0  0  0  0  0  0
   46.8040   36.1010   42.3630 H   0  0  0  0  0  0  0  0  0  0  0  0
   46.9690   34.8990   41.0860 H   0  0  0  0  0  0  0  0  0  0  0  0
   44.6860   35.8010   41.4480 H   0  0  0  0  0  0  0  0  0  0  0  0
   44.8600   34.0260   41.3950 H   0  0  0  0  0  0  0  0  0  0  0  0
   43.7000   35.5850   43.4910 H   0  0  0  0  0  0  0  0  0  0  0  0
   43.7960   33.7920   43.3780 H   0  0  0  0  0  0  0  0  0  0  0  0
   44.8420   34.3910   45.3880 H   0  0  0  0  0  0  0  0  0  0  0  0
   45.9020   35.6800   44.5660 H   0  0  0  0  0  0  0  0  0  0  0  0
   45.7710   32.7480   43.7970 H   0  0  0  0  0  0  0  0  0  0  0  0
   48.4140   33.5940   42.7310 C   0  0  0  0  0  0  0  0  0  0  0  0
   48.8980   34.2840   41.9940 H   0  0  0  0  0  0  0  0  0  0  0  0
   49.0730   33.4840   43.6100 H   0  0  0  0  0  0  0  0  0  0  0  0
   48.1100   32.2890   42.0840 C   0  0  0  0  0  0  0  0  0  0  0  0
   47.0140   32.1100   42.0010 H   0  0  0  0  0  0  0  0  0  0  0  0
   48.5190   31.4250   42.6430 H   0  0  0  0  0  0  0  0  0  0  0  0
   50.3110   31.6050   39.1180 C   0  0  0  0  0  0  0  0  0  0  0  0
   49.7980   31.6120   40.4270 C   0  0  0  0  0  0  0  0  0  0  0  0
   48.6420   32.2910   40.6930 C   0  0  0  0  0  0  0  0  0  0  0  0
   48.0530   32.9220   39.6810 N   0  0  0  0  0  0  0  0  0  0  0  0
   48.5260   32.9260   38.4320 C   0  0  0  0  0  0  0  0  0  0  0  0
   49.6680   32.2650   38.1300 N   0  0  0  0  0  0  0  0  0  0  0  0
   51.2140   31.0830   38.8750 H   0  0  0  0  0  0  0  0  0  0  0  0
   50.3620   31.0680   41.1540 H   0  0  0  0  0  0  0  0  0  0  0  0
   47.8930   33.4990   37.7690 H   0  0  0  0  0  0  0  0  0  0  0  0
   47.0770   33.4310   45.2710 O   0  0  0  0  0  0  0  0  0  0  0  0
   46.6980   30.8190   44.9120 O   0  0  0  0  0  0  0  0  0  0  0  0
   46.7900   31.9400   45.9670 P   0  0  2  0  0  0  0  0  0  0  0  0
   45.2030   32.0000   46.6290 O   0  0  0  0  0  0  0  0  0  0  0  0
   45.3000   32.3020   47.5720 H   0  0  0  0  0  0  0  0  0  0  0  0
   47.8320   31.5480   47.1900 O   0  0  0  0  0  0  0  0  0  0  0  0
   48.0030   30.1600   47.2300 C   0  0  0  0  0  0  0  0  0  0  0  0
   47.0710   29.5910   47.2410 H   0  0  0  0  0  0  0  0  0  0  0  0
   48.6140   29.8330   46.3440 H   0  0  0  0  0  0  0  0  0  0  0  0
   48.8080   29.9010   48.4600 C   0  0  0  0  0  0  0  0  0  0  0  0
   49.0880   30.8080   49.4600 C   0  0  0  0  0  0  0  0  0  0  0  0
   48.6770   31.7990   49.3270 H   0  0  0  0  0  0  0  0  0  0  0  0
   49.8500   30.4290   50.5480 C   0  0  0  0  0  3  0  0  0  0  0  0
   50.3190   29.1320   50.6050 C   0  0  0  0  0  0  0  0  0  0  0  0
   51.0580   28.7090   51.6280 N   0  0  0  0  0  0  0  0  0  0  0  0
   51.5440   27.4600   51.7400 C   0  0  0  0  0  0  0  0  0  0  0  0
   52.1450   27.0980   52.5610 H   0  0  0  0  0  0  0  0  0  0  0  0
   51.2880   26.5160   50.7590 C   0  0  0  0  0  3  0  0  0  0  0  0
   50.5300   26.8910   49.6760 C   0  0  0  0  0  3  0  0  0  0  0  0
   50.0670   28.1900   49.6320 C   0  0  0  0  0  0  0  0  0  0  0  0
   49.2960   28.5910   48.5410 C   0  0  0  0  0  3  0  0  0  0  0  0
  1  6  1  0  0  0  0
  2  7  1  0  0  0  0
  2  1  1  0  0  0  0
  3  2  1  0  0  0  0
  3  4  1  0  0  0  0
  4 12  1  0  0  0  0
  4 11  1  0  0  0  0
  4  5  1  0  0  0  0
  5 14  1  0  0  0  0
  5 13  1  0  0  0  0
  6 15  1  6  0  0  0
  6  5  1  0  0  0  0
  6 31  1  0  0  0  0
  8  2  1  0  0  0  0
  9  3  1  0  0  0  0
 10  3  1  0  0  0  0
 16  1  1  0  0  0  0
 16 18  1  0  0  0  0
 17 16  1  0  0  0  0
 19 21  1  0  0  0  0
 19 16  1  0  0  0  0
 20 19  1  0  0  0  0
 22 23  1  0  0  0  0
 23 24  2  0  0  0  0
 23 29  1  0  0  0  0
 24 19  1  0  0  0  0
 25 24  1  0  0  0  0
 26 25  2  0  0  0  0
 27 26  1  0  0  0  0
 27 22  2  0  0  0  0
 28 22  1  0  0  0  0
 30 26  1  0  0  0  0
 31 33  1  0  0  0  0
 33 32  2  6  0  0  0
 33 34  1  0  0  0  0
 33 36  1  0  0  0  0
 34 35  1  0  0  0  0
 36 37  1  0  0  0  0
 37 38  1  0  0  0  0
 37 40  1  0  0  0  0
 39 37  1  0  0  0  0
 40 51  2  0  0  0  0
 40 41  1  0  0  0  0
 41 43  2  0  0  0  0
 42 41  1  0  0  0  0
 43 44  1  0  0  0  0
 44 45  1  0  0  0  0
 45 46  2  0  0  0  0
 46 47  1  0  0  0  0
 48 46  1  0  0  0  0
 49 48  2  0  0  0  0
 50 49  1  0  0  0  0
 50 44  2  0  0  0  0
 51 50  1  0  0  0  0
M  END
>  <minimizedAffinity>
-5.0752039

>  <minimizedRMSD>
2.94070554

$$$$
