
 OpenBabel03252509053D

 51 54  0  0  1  0  0  0  0  0999 V2000
   47.1690   34.2070   43.0780 N   0  0  0  0  0  0  0  0  0  0  0  0
   46.5800   35.1550   42.2060 C   0  0  0  0  0  0  0  0  0  0  0  0
   45.0670   35.2400   42.2920 C   0  0  0  0  0  0  0  0  0  0  0  0
   44.5100   35.0030   43.6740 C   0  0  0  0  0  0  0  0  0  0  0  0
   45.6140   34.8100   44.6980 C   0  0  0  0  0  0  0  0  0  0  0  0
   46.4510   33.6230   44.0960 C   0  0  2  0  0  0  0  0  0  0  0  0
   46.9490   36.1750   42.5070 H   0  0  0  0  0  0  0  0  0  0  0  0
   46.8180   35.0680   41.1440 H   0  0  0  0  0  0  0  0  0  0  0  0
   44.7180   36.1840   41.8480 H   0  0  0  0  0  0  0  0  0  0  0  0
   44.6710   34.4110   41.6580 H   0  0  0  0  0  0  0  0  0  0  0  0
   43.9600   35.9170   43.9810 H   0  0  0  0  0  0  0  0  0  0  0  0
   43.8270   34.1390   43.7390 H   0  0  0  0  0  0  0  0  0  0  0  0
   45.1650   34.4560   45.6370 H   0  0  0  0  0  0  0  0  0  0  0  0
   46.2680   35.6820   44.7740 H   0  0  0  0  0  0  0  0  0  0  0  0
   45.6980   32.8520   43.8370 H   0  0  0  0  0  0  0  0  0  0  0  0
   48.2800   33.4840   42.5050 C   0  0  0  0  0  0  0  0  0  0  0  0
   48.8030   34.2000   41.8230 H   0  0  0  0  0  0  0  0  0  0  0  0
   48.9790   33.1610   43.2960 H   0  0  0  0  0  0  0  0  0  0  0  0
   47.7400   32.3380   41.7240 C   0  0  0  0  0  0  0  0  0  0  0  0
   46.6410   32.4200   41.5680 H   0  0  0  0  0  0  0  0  0  0  0  0
   47.9060   31.3620   42.2190 H   0  0  0  0  0  0  0  0  0  0  0  0
   49.8800   31.3570   38.7960 C   0  0  0  0  0  0  0  0  0  0  0  0
   49.2910   31.3760   40.0730 C   0  0  0  0  0  0  0  0  0  0  0  0
   48.3570   32.3300   40.3680 C   0  0  0  0  0  0  0  0  0  0  0  0
   48.0500   33.2060   39.4150 N   0  0  0  0  0  0  0  0  0  0  0  0
   48.6000   33.2020   38.1980 C   0  0  0  0  0  0  0  0  0  0  0  0
   49.5280   32.2730   37.8690 N   0  0  0  0  0  0  0  0  0  0  0  0
   50.6140   30.6240   38.5320 H   0  0  0  0  0  0  0  0  0  0  0  0
   49.6200   30.6200   40.7520 H   0  0  0  0  0  0  0  0  0  0  0  0
   48.2080   33.9990   37.5830 H   0  0  0  0  0  0  0  0  0  0  0  0
   47.2400   33.2670   45.1760 O   0  0  0  0  0  0  0  0  0  0  0  0
   46.4960   30.7550   44.7000 O   0  0  0  0  0  0  0  0  0  0  0  0
   46.8600   31.7670   45.8050 P   0  0  2  0  0  0  0  0  0  0  0  0
   45.3890   31.9550   46.6780 O   0  0  0  0  0  0  0  0  0  0  0  0
   45.6410   32.1650   47.6170 H   0  0  0  0  0  0  0  0  0  0  0  0
   47.9910   31.1590   46.8460 O   0  0  0  0  0  0  0  0  0  0  0  0
   48.1070   29.7780   46.6550 C   0  0  0  0  0  0  0  0  0  0  0  0
   47.1750   29.2250   46.7890 H   0  0  0  0  0  0  0  0  0  0  0  0
   48.4990   29.5760   45.6200 H   0  0  0  0  0  0  0  0  0  0  0  0
   49.1430   29.3340   47.6320 C   0  0  0  0  0  0  0  0  0  0  0  0
   49.7910   28.1160   47.6400 C   0  0  0  0  0  0  0  0  0  0  0  0
   49.5090   27.4260   46.8550 H   0  0  0  0  0  0  0  0  0  0  0  0
   50.7340   27.8370   48.6080 C   0  0  0  0  0  3  0  0  0  0  0  0
   51.0090   28.8000   49.5580 C   0  0  0  0  0  0  0  0  0  0  0  0
   51.9090   28.5890   50.5170 N   0  0  0  0  0  0  0  0  0  0  0  0
   52.2190   29.4870   51.4680 C   0  0  0  0  0  0  0  0  0  0  0  0
   52.9450   29.3340   52.2530 H   0  0  0  0  0  0  0  0  0  0  0  0
   51.5950   30.7230   51.4980 C   0  0  0  0  0  3  0  0  0  0  0  0
   50.6550   31.0020   50.5360 C   0  0  0  0  0  3  0  0  0  0  0  0
   50.3900   30.0310   49.5930 C   0  0  0  0  0  0  0  0  0  0  0  0
   49.4400   30.2940   48.6060 C   0  0  0  0  0  3  0  0  0  0  0  0
  1  6  1  0  0  0  0
  2  3  1  0  0  0  0
  2  7  1  0  0  0  0
  2  1  1  0  0  0  0
  3  4  1  0  0  0  0
  4 12  1  0  0  0  0
  4 11  1  0  0  0  0
  4  5  1  0  0  0  0
  5 14  1  0  0  0  0
  5 13  1  0  0  0  0
  6 15  1  6  0  0  0
  6  5  1  0  0  0  0
  6 31  1  0  0  0  0
  8  2  1  0  0  0  0
  9  3  1  0  0  0  0
 10  3  1  0  0  0  0
 16  1  1  0  0  0  0
 16 18  1  0  0  0  0
 17 16  1  0  0  0  0
 19 21  1  0  0  0  0
 19 16  1  0  0  0  0
 20 19  1  0  0  0  0
 22 23  1  0  0  0  0
 23 24  2  0  0  0  0
 23 29  1  0  0  0  0
 24 19  1  0  0  0  0
 25 24  1  0  0  0  0
 26 25  2  0  0  0  0
 27 26  1  0  0  0  0
 27 22  2  0  0  0  0
 28 22  1  0  0  0  0
 30 26  1  0  0  0  0
 31 33  1  0  0  0  0
 33 32  2  6  0  0  0
 33 34  1  0  0  0  0
 33 36  1  0  0  0  0
 34 35  1  0  0  0  0
 37 38  1  0  0  0  0
 37 36  1  0  0  0  0
 37 40  1  0  0  0  0
 39 37  1  0  0  0  0
 40 41  2  0  0  0  0
 40 51  1  0  0  0  0
 41 43  1  0  0  0  0
 42 41  1  0  0  0  0
 43 44  2  0  0  0  0
 44 50  1  0  0  0  0
 44 45  1  0  0  0  0
 45 46  2  0  0  0  0
 46 48  1  0  0  0  0
 46 47  1  0  0  0  0
 49 48  2  0  0  0  0
 50 49  1  0  0  0  0
 51 50  2  0  0  0  0
M  END
>  <minimizedAffinity>
-4.29736519

>  <minimizedRMSD>
1.86464643

$$$$
