
 OpenBabel03252506133D

 39 42  0  0  0  0  0  0  0  0999 V2000
   44.9890   33.3940   41.2050 F   0  0  0  0  0  0  0  0  0  0  0  0
   46.1840   33.9520   41.0230 C   0  0  0  0  0  0  0  0  0  0  0  0
   46.7190   34.7350   42.0190 C   0  0  0  0  0  0  0  0  0  0  0  0
   47.9660   35.3560   41.9140 C   0  0  0  0  0  0  0  0  0  0  0  0
   48.7160   35.1830   40.7500 C   0  0  0  0  0  0  0  0  0  0  0  0
   48.1440   34.3880   39.7740 C   0  0  0  0  0  0  0  0  0  0  0  0
   46.9330   33.7790   39.8640 C   0  0  0  0  0  0  0  0  0  0  0  0
   48.3170   35.9590   42.7450 H   0  0  0  0  0  0  0  0  0  0  0  0
   49.6720   35.6790   40.7100 H   0  0  0  0  0  0  0  0  0  0  0  0
   48.8290   34.3300   38.9330 H   0  0  0  0  0  0  0  0  0  0  0  0
   45.4220   34.2190   45.4170 C   0  0  0  0  0  0  0  0  0  0  0  0
   44.5910   35.3490   45.5830 C   0  0  0  0  0  0  0  0  0  0  0  0
   44.4780   36.2890   44.5220 C   0  0  0  0  0  0  0  0  0  0  0  0
   45.1990   36.0240   43.3930 N   0  0  0  0  0  0  0  0  0  0  0  0
   45.9730   34.9480   43.2710 C   0  0  0  0  0  0  0  0  0  0  0  0
   46.0810   34.0580   44.2730 N   0  0  0  0  0  0  0  0  0  0  0  0
   44.0290   35.5410   46.4830 H   0  0  0  0  0  0  0  0  0  0  0  0
   43.8540   37.1590   44.6170 H   0  0  0  0  0  0  0  0  0  0  0  0
   45.5220   33.2950   46.4830 N   0  0  0  0  0  0  0  0  0  0  0  0
   45.5800   33.7100   47.4400 H   0  0  0  0  0  0  0  0  0  0  0  0
   45.5460   32.2500   46.4670 H   0  0  0  0  0  0  0  0  0  0  0  0
   46.4610   33.0140   38.8330 O   0  0  0  0  0  0  0  0  0  0  0  0
   47.8270   34.2620   36.9280 O   0  0  0  0  0  0  0  0  0  0  0  0
   46.7030   33.2840   37.1870 P   0  0  2  0  0  0  0  0  0  0  0  0
   45.2510   33.8510   36.5110 O   0  0  0  0  0  0  0  0  0  0  0  0
   45.0380   33.4750   35.6430 H   0  0  0  0  0  0  0  0  0  0  0  0
   47.0550   31.8530   36.3410 O   0  0  0  0  0  0  0  0  0  0  0  0
   46.0620   30.9770   35.8810 C   0  0  0  0  0  0  0  0  0  0  0  0
   45.0110   30.5660   36.6880 C   0  0  0  0  0  0  0  0  0  0  0  0
   44.9680   30.9350   37.6880 H   0  0  0  0  0  0  0  0  0  0  0  0
   44.0740   29.6970   36.1450 C   0  0  0  0  0  3  0  0  0  0  0  0
   44.2060   29.2680   34.8390 C   0  0  0  0  0  0  0  0  0  0  0  0
   43.3250   28.4220   34.2600 N   0  0  0  0  0  0  0  0  0  0  0  0
   43.4830   28.0190   32.9700 C   0  0  0  0  0  0  0  0  0  0  0  0
   42.7630   27.3360   32.5160 H   0  0  0  0  0  0  0  0  0  0  0  0
   44.5250   28.4230   32.1600 C   0  0  0  0  0  3  0  0  0  0  0  0
   45.4580   29.2980   32.7270 C   0  0  0  0  0  3  0  0  0  0  0  0
   45.2510   29.6760   34.0370 C   0  0  0  0  0  0  0  0  0  0  0  0
   46.2100   30.5520   34.5560 C   0  0  0  0  0  3  0  0  0  0  0  0
  2  1  1  0  0  0  0
  2  3  1  0  0  0  0
  3 15  1  0  0  0  0
  4  3  2  0  0  0  0
  4  8  1  0  0  0  0
  5  4  1  0  0  0  0
  6  7  1  0  0  0  0
  6  5  2  0  0  0  0
  7  2  2  0  0  0  0
  9  5  1  0  0  0  0
 10  6  1  0  0  0  0
 11 12  1  0  0  0  0
 11 19  1  0  0  0  0
 12 17  1  0  0  0  0
 13 18  1  0  0  0  0
 13 12  2  0  0  0  0
 14 13  1  0  0  0  0
 15 14  2  0  0  0  0
 15 16  1  0  0  0  0
 16 11  2  0  0  0  0
 19 20  1  0  0  0  0
 21 19  1  0  0  0  0
 22  7  1  0  0  0  0
 24 23  2  6  0  0  0
 24 22  1  0  0  0  0
 25 24  1  0  0  0  0
 26 25  1  0  0  0  0
 27 24  1  0  0  0  0
 28 27  1  0  0  0  0
 28 29  1  0  0  0  0
 29 30  1  0  0  0  0
 31 29  2  0  0  0  0
 32 31  1  0  0  0  0
 33 32  1  0  0  0  0
 34 33  2  0  0  0  0
 35 34  1  0  0  0  0
 36 37  2  0  0  0  0
 36 34  1  0  0  0  0
 37 38  1  0  0  0  0
 38 39  1  0  0  0  0
 38 32  2  0  0  0  0
 39 28  2  0  0  0  0
M  END
>  <minimizedAffinity>
-6.83870745

>  <minimizedRMSD>
2.28309989

$$$$
