
 OpenBabel03252504053D

 22 24  0  0  0  0  0  0  0  0999 V2000
   46.7660   34.7270   42.2410 C   0  0  0  0  0  0  0  0  0  0  0  0
   47.9700   35.2990   41.9240 C   0  0  0  0  0  0  0  0  0  0  0  0
   48.4310   35.8450   42.7360 H   0  0  0  0  0  0  0  0  0  0  0  0
   48.5020   35.1570   40.6610 C   0  0  0  0  0  0  0  0  0  0  0  0
   47.8650   34.4470   39.6650 C   0  0  0  0  0  0  0  0  0  0  0  0
   48.3740   34.3040   38.4360 N   0  0  0  0  0  0  0  0  0  0  0  0
   47.6950   33.5990   37.5240 C   0  0  0  0  0  0  0  0  0  0  0  0
   48.1480   33.5100   36.5380 H   0  0  0  0  0  0  0  0  0  0  0  0
   46.4770   32.9840   37.7400 C   0  0  0  0  0  0  0  0  0  0  0  0
   45.9650   33.1390   39.0110 C   0  0  0  0  0  0  0  0  0  0  0  0
   46.6400   33.8630   39.9840 C   0  0  0  0  0  0  0  0  0  0  0  0
   46.1020   34.0020   41.2450 C   0  0  0  0  0  0  0  0  0  0  0  0
   44.4890   35.6640   45.0960 C   0  0  0  0  0  0  0  0  0  0  0  0
   45.1040   35.7490   43.8260 C   0  0  0  0  0  0  0  0  0  0  0  0
   46.0490   34.7670   43.5150 C   0  0  0  0  0  0  0  0  0  0  0  0
   46.3230   33.8030   44.4230 N   0  0  0  0  0  0  0  0  0  0  0  0
   45.7090   33.7570   45.6320 C   0  0  0  0  0  0  0  0  0  0  0  0
   44.7980   34.6930   45.9520 N   0  0  0  0  0  0  0  0  0  0  0  0
   43.7540   36.4380   45.3240 H   0  0  0  0  0  0  0  0  0  0  0  0
   45.9920   32.9420   46.3090 H   0  0  0  0  0  0  0  0  0  0  0  0
   44.8420   36.7190   42.8850 O   0  0  0  0  0  0  0  0  0  0  0  0
   43.8780   36.9060   42.6420 H   0  0  0  0  0  0  0  0  0  0  0  0
  1 15  1  0  0  0  0
  2  1  1  0  0  0  0
  2  3  1  0  0  0  0
  4  2  2  0  0  0  0
  5 11  1  0  0  0  0
  5  4  1  0  0  0  0
  6  5  2  0  0  0  0
  7  9  2  0  0  0  0
  7  6  1  0  0  0  0
  8  7  1  0  0  0  0
  9 10  1  0  0  0  0
 10 11  2  0  0  0  0
 11 12  1  0  0  0  0
 12  1  2  0  0  0  0
 13 19  1  0  0  0  0
 13 18  1  0  0  0  0
 14 13  2  0  0  0  0
 15 14  1  0  0  0  0
 15 16  2  0  0  0  0
 16 17  1  0  0  0  0
 17 18  2  0  0  0  0
 17 20  1  0  0  0  0
 21 14  1  0  0  0  0
 22 21  1  0  0  0  0
M  END
>  <minimizedAffinity>
-5.99625254

>  <minimizedRMSD>
1.02590275

$$$$
