
 OpenBabel03252509243D

 30 33  0  0  1  0  0  0  0  0999 V2000
   46.2980   34.8190   41.8900 C   0  0  1  0  0  0  0  0  0  0  0  0
   47.7990   35.2030   41.7940 C   0  0  0  0  0  0  0  0  0  0  0  0
   47.1800   33.8300   41.3860 C   0  0  2  0  0  0  0  0  0  0  0  0
   45.6510   35.4800   41.2770 H   0  0  0  0  0  0  0  0  0  0  0  0
   48.1250   35.7980   40.9330 H   0  0  0  0  0  0  0  0  0  0  0  0
   48.4050   35.2310   42.6930 H   0  0  0  0  0  0  0  0  0  0  0  0
   47.4920   33.0050   42.0710 H   0  0  0  0  0  0  0  0  0  0  0  0
   47.2330   33.4850   39.9280 C   0  0  0  0  0  0  0  0  0  0  0  0
   48.5050   33.4980   39.3600 C   0  0  0  0  0  0  0  0  0  0  0  0
   49.3900   33.7390   39.9330 H   0  0  0  0  0  0  0  0  0  0  0  0
   48.6470   33.1910   38.0150 C   0  0  0  0  0  3  0  0  0  0  0  0
   47.5330   32.8790   37.2620 C   0  0  0  0  0  0  0  0  0  0  0  0
   47.6250   32.5710   35.9390 N   0  0  0  0  0  0  0  0  0  0  0  0
   46.5260   32.2710   35.2240 C   0  0  0  0  0  0  0  0  0  0  0  0
   46.6290   32.0290   34.1710 H   0  0  0  0  0  0  0  0  0  0  0  0
   45.2550   32.2500   35.7590 C   0  0  0  0  0  3  0  0  0  0  0  0
   45.1980   32.5680   37.1110 C   0  0  0  0  0  3  0  0  0  0  0  0
   46.3010   32.8860   37.8910 C   0  0  0  0  0  0  0  0  0  0  0  0
   46.0940   33.1820   39.2240 C   0  0  0  0  0  3  0  0  0  0  0  0
   44.6160   35.5600   45.1630 C   0  0  0  0  0  0  0  0  0  0  0  0
   45.0360   35.7340   43.8030 C   0  0  0  0  0  0  0  0  0  0  0  0
   45.8670   34.7480   43.3370 C   0  0  0  0  0  0  0  0  0  0  0  0
   46.2650   33.6770   44.1290 N   0  0  0  0  0  0  0  0  0  0  0  0
   45.8370   33.5760   45.3890 C   0  0  0  0  0  0  0  0  0  0  0  0
   45.0100   34.5190   45.9110 N   0  0  0  0  0  0  0  0  0  0  0  0
   43.9580   36.3120   45.5750 H   0  0  0  0  0  0  0  0  0  0  0  0
   46.2320   32.6930   45.8710 H   0  0  0  0  0  0  0  0  0  0  0  0
   44.6430   36.8520   43.0100 N   0  0  0  0  0  0  0  0  0  0  0  0
   44.1720   36.7810   42.0690 H   0  0  0  0  0  0  0  0  0  0  0  0
   44.9090   37.7250   43.5380 H   0  0  0  0  0  0  0  0  0  0  0  0
  1  4  1  6  0  0  0
  1 22  1  0  0  0  0
  2  1  1  0  0  0  0
  2  6  1  0  0  0  0
  3  2  1  0  0  0  0
  3  1  1  0  0  0  0
  3  7  1  1  0  0  0
  5  2  1  0  0  0  0
  8  3  1  0  0  0  0
  9  8  1  0  0  0  0
  9 10  1  0  0  0  0
 11  9  2  0  0  0  0
 12 18  1  0  0  0  0
 12 11  1  0  0  0  0
 13 12  2  0  0  0  0
 14 16  2  0  0  0  0
 14 13  1  0  0  0  0
 15 14  1  0  0  0  0
 16 17  1  0  0  0  0
 17 18  2  0  0  0  0
 18 19  1  0  0  0  0
 19  8  2  0  0  0  0
 20 26  1  0  0  0  0
 20 25  1  0  0  0  0
 21 20  2  0  0  0  0
 22 21  1  0  0  0  0
 22 23  2  0  0  0  0
 23 24  1  0  0  0  0
 24 27  1  0  0  0  0
 24 25  2  0  0  0  0
 28 30  1  0  0  0  0
 28 21  1  0  0  0  0
 29 28  1  0  0  0  0
M  END
>  <minimizedAffinity>
-5.47678137

>  <minimizedRMSD>
0.401103407

$$$$
