
 OpenBabel03252508183D

 50 55  0  0  1  0  0  0  0  0999 V2000
   46.7390   31.5980   48.2910 C   0  0  1  0  0  0  0  0  0  0  0  0
   46.2900   30.5520   49.2530 C   0  0  0  0  0  0  0  0  0  0  0  0
   47.5590   31.2400   49.4640 C   0  0  1  0  0  0  0  0  0  0  0  0
   45.9880   32.4430   48.2960 H   0  0  0  0  0  0  0  0  0  0  0  0
   45.4700   30.7210   49.9790 H   0  0  0  0  0  0  0  0  0  0  0  0
   46.3490   29.4820   48.9320 H   0  0  0  0  0  0  0  0  0  0  0  0
   47.5850   31.9900   50.2830 H   0  0  0  0  0  0  0  0  0  0  0  0
   48.8760   30.5690   49.2220 C   0  0  2  0  0  0  0  0  0  0  0  0
   49.6090   30.1830   50.5320 C   0  0  0  0  0  0  0  0  0  0  0  0
   50.1320   31.2840   49.7070 C   0  0  1  0  0  0  0  0  0  0  0  0
   48.9990   29.7710   48.4800 H   0  0  0  0  0  0  0  0  0  0  0  0
   49.1540   30.4860   51.4920 H   0  0  0  0  0  0  0  0  0  0  0  0
   50.1730   29.2590   50.5950 H   0  0  0  0  0  0  0  0  0  0  0  0
   50.0090   32.3290   50.0580 H   0  0  0  0  0  0  0  0  0  0  0  0
   51.3990   31.0370   48.9900 C   0  0  0  0  0  0  0  0  0  0  0  0
   52.4350   31.9630   49.1650 C   0  0  0  0  0  0  0  0  0  0  0  0
   52.3490   32.8450   49.7970 H   0  0  0  0  0  0  0  0  0  0  0  0
   53.6550   31.7870   48.5150 C   0  0  0  0  0  3  0  0  0  0  0  0
   53.8720   30.6970   47.6850 C   0  0  0  0  0  0  0  0  0  0  0  0
   55.0480   30.5420   47.0680 N   0  0  0  0  0  0  0  0  0  0  0  0
   55.3190   29.5100   46.2530 C   0  0  0  0  0  0  0  0  0  0  0  0
   56.2820   29.4200   45.7740 H   0  0  0  0  0  0  0  0  0  0  0  0
   54.3020   28.5840   46.0710 C   0  0  0  0  0  3  0  0  0  0  0  0
   53.0570   28.7080   46.6960 C   0  0  0  0  0  3  0  0  0  0  0  0
   52.8220   29.7970   47.5330 C   0  0  0  0  0  0  0  0  0  0  0  0
   51.5970   29.9470   48.1680 C   0  0  0  0  0  3  0  0  0  0  0  0
   47.1030   31.1030   46.9390 C   0  0  0  0  0  0  0  0  0  0  0  0
   46.3460   30.3050   46.6780 H   0  0  0  0  0  0  0  0  0  0  0  0
   48.0750   30.6720   46.7900 H   0  0  0  0  0  0  0  0  0  0  0  0
   46.0200   33.0580   46.2010 C   0  0  0  0  0  3  0  0  0  0  0  0
   46.8610   32.1630   45.8910 C   0  0  0  0  0  3  0  0  0  0  0  0
   44.5240   35.9470   44.4670 C   0  0  0  0  0  0  0  0  0  0  0  0
   45.1830   35.9520   43.2430 C   0  0  0  0  0  0  0  0  0  0  0  0
   46.1080   34.9750   43.0540 C   0  0  0  0  0  0  0  0  0  0  0  0
   46.3490   34.0600   44.0330 N   0  0  0  0  0  0  0  0  0  0  0  0
   45.6940   34.0830   45.2060 C   0  0  0  0  0  0  0  0  0  0  0  0
   44.7940   35.0320   45.3920 N   0  0  0  0  0  0  0  0  0  0  0  0
   43.7720   36.7060   44.6740 H   0  0  0  0  0  0  0  0  0  0  0  0
   44.9720   36.6920   42.4820 H   0  0  0  0  0  0  0  0  0  0  0  0
   46.8780   34.8540   41.8220 C   0  0  0  0  0  0  0  0  0  0  0  0
   48.0830   35.4490   41.5890 C   0  0  0  0  0  0  0  0  0  0  0  0
   48.7990   35.3230   40.4160 C   0  0  0  0  0  0  0  0  0  0  0  0
   48.2940   34.5510   39.3880 C   0  0  0  0  0  0  0  0  0  0  0  0
   47.0880   33.9280   39.5610 C   0  0  0  0  0  0  0  0  0  0  0  0
   46.4150   34.0900   40.7590 C   0  0  0  0  0  0  0  0  0  0  0  0
   48.5150   36.0690   42.3820 H   0  0  0  0  0  0  0  0  0  0  0  0
   49.7450   35.7970   40.2470 H   0  0  0  0  0  0  0  0  0  0  0  0
   48.7720   34.3830   38.4260 H   0  0  0  0  0  0  0  0  0  0  0  0
   46.6470   33.3130   38.7910 H   0  0  0  0  0  0  0  0  0  0  0  0
   45.4550   33.5750   40.8570 H   0  0  0  0  0  0  0  0  0  0  0  0
  1  4  1  1  0  0  0
  1  2  1  0  0  0  0
  1  3  1  0  0  0  0
  2  3  1  0  0  0  0
  2  5  1  0  0  0  0
  3  7  1  1  0  0  0
  6  2  1  0  0  0  0
  8 11  1  6  0  0  0
  8  3  1  0  0  0  0
  8 10  1  0  0  0  0
  8  9  1  0  0  0  0
  9 13  1  0  0  0  0
  9 12  1  0  0  0  0
 10 14  1  1  0  0  0
 10  9  1  0  0  0  0
 15 16  1  0  0  0  0
 15 10  1  0  0  0  0
 16 17  1  0  0  0  0
 18 16  2  0  0  0  0
 19 18  1  0  0  0  0
 20 19  2  0  0  0  0
 21 20  1  0  0  0  0
 22 21  1  0  0  0  0
 23 21  2  0  0  0  0
 23 24  1  0  0  0  0
 24 25  2  0  0  0  0
 25 19  1  0  0  0  0
 25 26  1  0  0  0  0
 26 15  2  0  0  0  0
 27  1  1  0  0  0  0
 28 27  1  0  0  0  0
 29 27  1  0  0  0  0
 31 30  2  0  0  0  0
 31 27  1  0  0  0  0
 32 38  1  0  0  0  0
 32 37  1  0  0  0  0
 33 32  2  0  0  0  0
 34 33  1  0  0  0  0
 34 35  2  0  0  0  0
 35 36  1  0  0  0  0
 36 37  2  0  0  0  0
 36 30  1  0  0  0  0
 39 33  1  0  0  0  0
 40 34  1  0  0  0  0
 41 40  1  0  0  0  0
 41 46  1  0  0  0  0
 42 41  2  0  0  0  0
 43 44  2  0  0  0  0
 43 42  1  0  0  0  0
 44 45  1  0  0  0  0
 45 50  1  0  0  0  0
 45 40  2  0  0  0  0
 47 42  1  0  0  0  0
 48 43  1  0  0  0  0
 49 44  1  0  0  0  0
M  END
>  <minimizedAffinity>
-6.84267426

>  <minimizedRMSD>
0.909172058

$$$$
