
 OpenBabel03252507223D

 50 54  0  0  1  0  0  0  0  0999 V2000
   47.5180   33.6490   42.9180 C   0  0  0  0  0  0  0  0  0  0  0  0
   48.6350   33.7210   43.5090 O   0  0  0  0  0  0  0  0  0  0  0  0
   47.2480   32.8570   41.7430 N   0  0  0  0  0  0  0  0  0  0  0  0
   46.1330   32.0020   41.4080 C   0  0  0  0  0  0  0  0  0  0  0  0
   45.6120   32.4060   40.0210 C   0  0  0  0  0  0  0  0  0  0  0  0
   46.6600   32.1780   38.9800 C   0  0  0  0  0  0  0  0  0  0  0  0
   47.9990   31.9640   39.6390 C   0  0  0  0  0  0  0  0  0  0  0  0
   48.2820   32.9720   40.7340 C   0  0  2  0  0  0  0  0  0  0  0  0
   46.3570   30.9320   41.4020 H   0  0  0  0  0  0  0  0  0  0  0  0
   45.2650   32.2000   42.0960 H   0  0  0  0  0  0  0  0  0  0  0  0
   44.7650   31.7490   39.8130 H   0  0  0  0  0  0  0  0  0  0  0  0
   45.3210   33.4810   40.0900 H   0  0  0  0  0  0  0  0  0  0  0  0
   46.4420   31.2630   38.3860 H   0  0  0  0  0  0  0  0  0  0  0  0
   46.7220   33.0910   38.3360 H   0  0  0  0  0  0  0  0  0  0  0  0
   48.8090   32.1200   38.8750 H   0  0  0  0  0  0  0  0  0  0  0  0
   48.1020   30.9290   40.0050 H   0  0  0  0  0  0  0  0  0  0  0  0
   48.1950   33.9730   40.2810 H   0  0  0  0  0  0  0  0  0  0  0  0
   46.0170   35.5930   42.7810 C   0  0  0  0  0  0  0  0  0  0  0  0
   46.4310   34.4320   43.4800 C   0  0  0  0  0  0  0  0  0  0  0  0
   45.7970   34.0870   44.6520 C   0  0  0  0  0  0  0  0  0  0  0  0
   44.7970   34.8780   45.0910 N   0  0  0  0  0  0  0  0  0  0  0  0
   44.3900   35.9980   44.4290 C   0  0  0  0  0  0  0  0  0  0  0  0
   45.0100   36.3270   43.2890 N   0  0  0  0  0  0  0  0  0  0  0  0
   46.5200   35.8520   41.8660 H   0  0  0  0  0  0  0  0  0  0  0  0
   43.5870   36.5870   44.8270 H   0  0  0  0  0  0  0  0  0  0  0  0
   46.2380   32.8970   45.3470 C   0  0  0  0  0  0  0  0  0  0  0  0
   45.9410   31.6680   44.8490 C   0  0  0  0  0  0  0  0  0  0  0  0
   46.3750   30.5520   45.5340 C   0  0  0  0  0  0  0  0  0  0  0  0
   47.1040   30.6270   46.7130 C   0  0  0  0  0  0  0  0  0  0  0  0
   47.3770   31.9100   47.1740 C   0  0  0  0  0  0  0  0  0  0  0  0
   46.9420   32.9690   46.4860 N   0  0  0  0  0  0  0  0  0  0  0  0
   45.3880   31.4800   43.9520 H   0  0  0  0  0  0  0  0  0  0  0  0
   46.1840   29.5240   45.2090 H   0  0  0  0  0  0  0  0  0  0  0  0
   47.4570   29.7850   47.2720 H   0  0  0  0  0  0  0  0  0  0  0  0
   47.9410   32.0180   48.0870 H   0  0  0  0  0  0  0  0  0  0  0  0
   49.6700   32.7660   41.1970 C   0  0  0  0  0  0  0  0  0  0  0  0
   50.0230   33.4930   41.9680 H   0  0  0  0  0  0  0  0  0  0  0  0
   50.2530   33.1640   40.3230 H   0  0  0  0  0  0  0  0  0  0  0  0
   50.1420   31.4050   41.4120 C   0  0  0  0  0  0  0  0  0  0  0  0
   50.8930   30.4960   40.7110 C   0  0  0  0  0  0  0  0  0  0  0  0
   51.2370   30.7970   39.7590 H   0  0  0  0  0  0  0  0  0  0  0  0
   51.2480   29.2310   41.0960 C   0  0  0  0  0  3  0  0  0  0  0  0
   50.8480   28.7440   42.3010 C   0  0  0  0  0  0  0  0  0  0  0  0
   51.1890   27.5150   42.6820 N   0  0  0  0  0  0  0  0  0  0  0  0
   50.8310   26.9650   43.8570 C   0  0  0  0  0  0  0  0  0  0  0  0
   51.0910   25.9700   44.1960 H   0  0  0  0  0  0  0  0  0  0  0  0
   50.0670   27.7860   44.6590 C   0  0  0  0  0  3  0  0  0  0  0  0
   49.6780   29.0680   44.3250 C   0  0  0  0  0  3  0  0  0  0  0  0
   50.0960   29.5380   43.1020 C   0  0  0  0  0  0  0  0  0  0  0  0
   49.7750   30.8110   42.6450 C   0  0  0  0  0  3  0  0  0  0  0  0
  1 19  1  0  0  0  0
  1  2  2  0  0  0  0
  3  1  1  0  0  0  0
  4  3  1  0  0  0  0
  4 10  1  0  0  0  0
  5 12  1  0  0  0  0
  5  4  1  0  0  0  0
  6  7  1  0  0  0  0
  6  5  1  0  0  0  0
  7 16  1  0  0  0  0
  7  8  1  0  0  0  0
  8 17  1  6  0  0  0
  8 36  1  0  0  0  0
  8  3  1  0  0  0  0
  9  4  1  0  0  0  0
 11  5  1  0  0  0  0
 13  6  1  0  0  0  0
 14  6  1  0  0  0  0
 15  7  1  0  0  0  0
 18 23  2  0  0  0  0
 18 19  1  0  0  0  0
 19 20  2  0  0  0  0
 20 21  1  0  0  0  0
 20 26  1  0  0  0  0
 22 25  1  0  0  0  0
 22 21  2  0  0  0  0
 23 22  1  0  0  0  0
 24 18  1  0  0  0  0
 26 31  1  0  0  0  0
 27 26  2  0  0  0  0
 27 28  1  0  0  0  0
 28 29  2  0  0  0  0
 29 30  1  0  0  0  0
 29 34  1  0  0  0  0
 30 35  1  0  0  0  0
 31 30  2  0  0  0  0
 32 27  1  0  0  0  0
 33 28  1  0  0  0  0
 36 39  1  0  0  0  0
 36 37  1  0  0  0  0
 38 36  1  0  0  0  0
 39 50  1  0  0  0  0
 40 42  1  0  0  0  0
 40 39  2  0  0  0  0
 41 40  1  0  0  0  0
 42 43  2  0  0  0  0
 43 44  1  0  0  0  0
 43 49  1  0  0  0  0
 44 45  2  0  0  0  0
 45 46  1  0  0  0  0
 45 47  1  0  0  0  0
 48 47  2  0  0  0  0
 49 48  1  0  0  0  0
 50 49  2  0  0  0  0
M  END
>  <minimizedAffinity>
-5.00094366

>  <minimizedRMSD>
1.19001794

$$$$
