
 OpenBabel03242521033D

 30 33  0  0  0  0  0  0  0  0999 V2000
   46.6230   34.6880   42.0290 C   0  0  0  0  0  0  0  0  0  0  0  0
   47.8900   35.1650   41.8000 C   0  0  0  0  0  0  0  0  0  0  0  0
   48.5850   35.0040   40.6240 C   0  0  0  0  0  0  0  0  0  0  0  0
   47.9650   34.3100   39.5910 C   0  0  0  0  0  0  0  0  0  0  0  0
   46.7050   33.8430   39.8390 C   0  0  0  0  0  0  0  0  0  0  0  0
   46.0820   34.0300   41.0000 N   0  0  0  0  0  0  0  0  0  0  0  0
   48.4150   35.7120   42.5710 H   0  0  0  0  0  0  0  0  0  0  0  0
   49.5840   35.3880   40.4630 H   0  0  0  0  0  0  0  0  0  0  0  0
   48.4860   34.1700   38.6650 H   0  0  0  0  0  0  0  0  0  0  0  0
   45.9690   33.1010   38.8200 C   0  0  0  0  0  0  0  0  0  0  0  0
   44.8730   32.3230   39.1760 C   0  0  0  0  0  0  0  0  0  0  0  0
   44.5680   32.2710   40.2260 H   0  0  0  0  0  0  0  0  0  0  0  0
   44.1020   31.5810   38.3120 C   0  0  0  0  0  0  0  0  0  0  0  0
   44.4380   31.6060   36.9750 C   0  0  0  0  0  0  0  0  0  0  0  0
   43.7400   30.9130   36.0580 N   0  0  0  0  0  0  0  0  0  0  0  0
   44.0660   30.9340   34.7420 C   0  0  0  0  0  0  0  0  0  0  0  0
   43.5260   30.3870   33.9820 H   0  0  0  0  0  0  0  0  0  0  0  0
   45.1440   31.6860   34.3190 C   0  0  0  0  0  0  0  0  0  0  0  0
   45.8840   32.4100   35.2210 C   0  0  0  0  0  0  0  0  0  0  0  0
   45.5160   32.3620   36.5670 C   0  0  0  0  0  0  0  0  0  0  0  0
   46.2550   33.0870   37.4720 C   0  0  0  0  0  0  0  0  0  0  0  0
   44.4670   35.9740   44.8530 C   0  0  0  0  0  0  0  0  0  0  0  0
   45.0630   35.9320   43.5870 C   0  0  0  0  0  0  0  0  0  0  0  0
   45.9190   34.8820   43.2970 C   0  0  0  0  0  0  0  0  0  0  0  0
   46.1210   33.9570   44.2670 N   0  0  0  0  0  0  0  0  0  0  0  0
   45.5360   34.0150   45.4810 C   0  0  0  0  0  0  0  0  0  0  0  0
   44.7110   35.0280   45.7600 N   0  0  0  0  0  0  0  0  0  0  0  0
   43.7880   36.8130   45.0730 H   0  0  0  0  0  0  0  0  0  0  0  0
   44.9090   36.6550   42.8210 H   0  0  0  0  0  0  0  0  0  0  0  0
   45.7370   33.2420   46.2240 H   0  0  0  0  0  0  0  0  0  0  0  0
  1 24  1  0  0  0  0
  2  1  1  0  0  0  0
  2  7  1  0  0  0  0
  3  2  2  0  0  0  0
  4  5  2  0  0  0  0
  4  3  1  0  0  0  0
  5  6  1  0  0  0  0
  6  1  2  0  0  0  0
  8  3  1  0  0  0  0
  9  4  1  0  0  0  0
 10 11  1  0  0  0  0
 10  5  1  0  0  0  0
 11 12  1  0  0  0  0
 13 11  2  0  0  0  0
 14 13  1  0  0  0  0
 15 14  2  0  0  0  0
 16 15  1  0  0  0  0
 17 16  1  0  0  0  0
 18 16  2  0  0  0  0
 18 19  1  0  0  0  0
 19 20  2  0  0  0  0
 20 14  1  0  0  0  0
 20 21  1  0  0  0  0
 21 10  2  0  0  0  0
 22 28  1  0  0  0  0
 22 27  1  0  0  0  0
 23 22  2  0  0  0  0
 24 23  1  0  0  0  0
 24 25  2  0  0  0  0
 25 26  1  0  0  0  0
 26 27  2  0  0  0  0
 26 30  1  0  0  0  0
 29 23  1  0  0  0  0
M  END
>  <minimizedAffinity>
-6.06574249

>  <minimizedRMSD>
0.360882372

$$$$
