
 OpenBabel03252507273D

 30 33  0  0  0  0  0  0  0  0999 V2000
   45.6520   34.1730   45.2440 C   0  0  0  0  0  0  0  0  0  0  0  0
   44.6780   35.1560   45.4160 C   0  0  0  0  0  0  0  0  0  0  0  0
   44.4150   36.0200   44.3290 C   0  0  0  0  0  0  0  0  0  0  0  0
   45.1270   35.8520   43.1590 N   0  0  0  0  0  0  0  0  0  0  0  0
   46.0600   34.8750   43.0610 C   0  0  0  0  0  0  0  0  0  0  0  0
   46.3100   34.0630   44.0780 N   0  0  0  0  0  0  0  0  0  0  0  0
   44.1240   35.2950   46.3090 H   0  0  0  0  0  0  0  0  0  0  0  0
   43.6800   36.7890   44.4060 H   0  0  0  0  0  0  0  0  0  0  0  0
   45.9630   33.2560   46.3340 C   0  0  0  0  0  0  0  0  0  0  0  0
   45.3460   33.2290   47.5510 C   0  0  0  0  0  0  0  0  0  0  0  0
   44.5570   33.9380   47.7490 H   0  0  0  0  0  0  0  0  0  0  0  0
   45.7000   32.3220   48.5380 C   0  0  0  0  0  3  0  0  0  0  0  0
   46.7030   31.3990   48.3290 C   0  0  0  0  0  0  0  0  0  0  0  0
   47.0800   30.5000   49.2590 N   0  0  0  0  0  0  0  0  0  0  0  0
   48.0750   29.6050   49.0130 C   0  0  0  0  0  0  0  0  0  0  0  0
   48.3980   28.8720   49.7400 H   0  0  0  0  0  0  0  0  0  0  0  0
   48.7410   29.5860   47.7860 C   0  0  0  0  0  3  0  0  0  0  0  0
   48.3770   30.4930   46.8140 C   0  0  0  0  0  3  0  0  0  0  0  0
   47.3500   31.3900   47.1200 C   0  0  0  0  0  0  0  0  0  0  0  0
   46.9590   32.3110   46.1760 C   0  0  0  0  0  3  0  0  0  0  0  0
   46.7860   34.7250   41.8140 C   0  0  0  0  0  0  0  0  0  0  0  0
   47.9880   35.3490   41.6150 C   0  0  0  0  0  0  0  0  0  0  0  0
   48.7520   35.2750   40.4700 C   0  0  0  0  0  0  0  0  0  0  0  0
   48.1970   34.4830   39.4730 C   0  0  0  0  0  0  0  0  0  0  0  0
   46.9830   33.8360   39.6370 C   0  0  0  0  0  0  0  0  0  0  0  0
   46.2800   33.9600   40.8130 N   0  0  0  0  0  0  0  0  0  0  0  0
   48.3640   35.9530   42.4370 H   0  0  0  0  0  0  0  0  0  0  0  0
   49.6880   35.7970   40.3940 H   0  0  0  0  0  0  0  0  0  0  0  0
   48.7400   34.3760   38.5420 H   0  0  0  0  0  0  0  0  0  0  0  0
   46.5850   33.2260   38.8340 H   0  0  0  0  0  0  0  0  0  0  0  0
  1  2  1  0  0  0  0
  1  9  1  0  0  0  0
  2  7  1  0  0  0  0
  3  8  1  0  0  0  0
  3  2  2  0  0  0  0
  4  3  1  0  0  0  0
  5  4  2  0  0  0  0
  5  6  1  0  0  0  0
  6  1  2  0  0  0  0
  9 10  1  0  0  0  0
 10 11  1  0  0  0  0
 10 12  2  0  0  0  0
 13 12  1  0  0  0  0
 13 14  1  0  0  0  0
 15 14  2  0  0  0  0
 15 16  1  0  0  0  0
 17 15  1  0  0  0  0
 18 19  1  0  0  0  0
 18 17  2  0  0  0  0
 19 13  2  0  0  0  0
 20  9  2  0  0  0  0
 20 19  1  0  0  0  0
 21  5  1  0  0  0  0
 22 21  1  0  0  0  0
 22 27  1  0  0  0  0
 23 22  2  0  0  0  0
 24 25  2  0  0  0  0
 24 23  1  0  0  0  0
 25 26  1  0  0  0  0
 26 21  2  0  0  0  0
 28 23  1  0  0  0  0
 29 24  1  0  0  0  0
 30 25  1  0  0  0  0
M  END
>  <minimizedAffinity>
-5.85313272

>  <minimizedRMSD>
0.403236806

$$$$
