
 OpenBabel03252504513D

 37 40  0  0  0  0  0  0  0  0999 V2000
   47.6040   34.0980   43.0080 C   0  0  0  0  0  0  0  0  0  0  0  0
   48.4760   33.2940   42.2570 C   0  0  0  0  0  0  0  0  0  0  0  0
   48.7440   32.0250   42.7490 C   0  0  0  0  0  0  0  0  0  0  0  0
   48.1460   31.6550   43.9160 N   0  0  0  0  0  0  0  0  0  0  0  0
   47.3220   32.4400   44.6100 C   0  0  0  0  0  0  0  0  0  0  0  0
   47.0390   33.6840   44.1570 N   0  0  0  0  0  0  0  0  0  0  0  0
   47.3240   35.0970   42.7240 H   0  0  0  0  0  0  0  0  0  0  0  0
   49.4050   31.3780   42.2050 H   0  0  0  0  0  0  0  0  0  0  0  0
   45.4760   30.0240   44.3200 Cl  0  0  0  0  0  0  0  0  0  0  0  0
   45.8680   30.8780   45.8220 C   0  0  0  0  0  0  0  0  0  0  0  0
   46.7230   31.9730   45.8500 C   0  0  0  0  0  0  0  0  0  0  0  0
   47.0060   32.6110   47.0310 C   0  0  0  0  0  0  0  0  0  0  0  0
   46.4270   32.1520   48.2060 C   0  0  0  0  0  0  0  0  0  0  0  0
   45.5850   31.0650   48.1380 C   0  0  0  0  0  0  0  0  0  0  0  0
   44.8810   30.5260   49.6450 Cl  0  0  0  0  0  0  0  0  0  0  0  0
   45.2770   30.3990   46.9750 C   0  0  0  0  0  0  0  0  0  0  0  0
   47.6750   33.4690   47.0640 H   0  0  0  0  0  0  0  0  0  0  0  0
   46.6420   32.6480   49.1460 H   0  0  0  0  0  0  0  0  0  0  0  0
   44.6050   29.5520   47.0090 H   0  0  0  0  0  0  0  0  0  0  0  0
   49.0270   33.8330   41.0400 C   0  0  0  0  0  0  0  0  0  0  0  0
   49.4890   33.0210   40.4440 H   0  0  0  0  0  0  0  0  0  0  0  0
   49.8350   34.5540   41.2450 H   0  0  0  0  0  0  0  0  0  0  0  0
   47.9600   34.5750   40.2880 C   0  0  0  0  0  0  0  0  0  0  0  0
   47.1890   34.8640   41.0550 H   0  0  0  0  0  0  0  0  0  0  0  0
   48.3980   35.5570   39.9730 H   0  0  0  0  0  0  0  0  0  0  0  0
   47.3660   33.8380   39.1670 C   0  0  0  0  0  0  0  0  0  0  0  0
   46.1140   33.2580   39.1930 C   0  0  0  0  0  0  0  0  0  0  0  0
   45.5160   33.3410   40.0920 H   0  0  0  0  0  0  0  0  0  0  0  0
   45.6890   32.5920   38.0520 C   0  0  0  0  0  3  0  0  0  0  0  0
   46.5030   32.5140   36.9160 C   0  0  0  0  0  0  0  0  0  0  0  0
   46.0880   31.8690   35.8100 N   0  0  0  0  0  0  0  0  0  0  0  0
   46.8470   31.7760   34.7030 C   0  0  0  0  0  0  0  0  0  0  0  0
   46.5810   31.2820   33.7970 H   0  0  0  0  0  0  0  0  0  0  0  0
   48.0920   32.3580   34.6890 C   0  0  0  0  0  3  0  0  0  0  0  0
   48.5810   33.0380   35.7920 C   0  0  0  0  0  3  0  0  0  0  0  0
   47.7480   33.1000   36.9100 C   0  0  0  0  0  0  0  0  0  0  0  0
   48.1890   33.7690   38.0420 C   0  0  0  0  0  3  0  0  0  0  0  0
  1  6  1  0  0  0  0
  2  3  1  0  0  0  0
  2  1  2  0  0  0  0
  3  4  2  0  0  0  0
  4  5  1  0  0  0  0
  5 11  1  0  0  0  0
  6  5  2  0  0  0  0
  7  1  1  0  0  0  0
  8  3  1  0  0  0  0
  9 10  1  0  0  0  0
 10 11  2  0  0  0  0
 10 16  1  0  0  0  0
 11 12  1  0  0  0  0
 12 17  1  0  0  0  0
 12 13  2  0  0  0  0
 13 18  1  0  0  0  0
 14 13  1  0  0  0  0
 14 15  1  0  0  0  0
 16 19  1  0  0  0  0
 16 14  2  0  0  0  0
 20 22  1  0  0  0  0
 20  2  1  0  0  0  0
 21 20  1  0  0  0  0
 23 20  1  0  0  0  0
 23 24  1  0  0  0  0
 25 23  1  0  0  0  0
 26 27  1  0  0  0  0
 26 23  1  0  0  0  0
 27 28  1  0  0  0  0
 29 27  2  0  0  0  0
 30 29  1  0  0  0  0
 31 30  2  0  0  0  0
 32 31  1  0  0  0  0
 33 32  1  0  0  0  0
 34 32  2  0  0  0  0
 34 35  1  0  0  0  0
 35 36  2  0  0  0  0
 36 30  1  0  0  0  0
 36 37  1  0  0  0  0
 37 26  2  0  0  0  0
M  END
>  <minimizedAffinity>
-5.40125418

>  <minimizedRMSD>
2.57346869

$$$$
