
 OpenBabel03252501303D

 41 44  0  0  0  0  0  0  0  0999 V2000
   35.8340   29.6170   38.4910 C   0  0  0  0  0  0  0  0  0  0  0  0
   36.5900   30.3960   37.6520 C   0  0  0  0  0  0  0  0  0  0  0  0
   37.3910   31.4170   38.0860 C   0  0  0  0  0  0  0  0  0  0  0  0
   37.4490   31.6810   39.3970 C   0  0  0  0  0  0  0  0  0  0  0  0
   36.6930   30.9060   40.2910 C   0  0  0  0  0  0  0  0  0  0  0  0
   35.8920   29.8800   39.8360 C   0  0  0  0  0  0  0  0  0  0  0  0
   36.4930   30.1250   36.5930 H   0  0  0  0  0  0  0  0  0  0  0  0
   37.9170   31.9260   37.2880 H   0  0  0  0  0  0  0  0  0  0  0  0
   36.8690   31.2650   41.3100 H   0  0  0  0  0  0  0  0  0  0  0  0
   38.3320   32.7980   39.7950 C   0  0  0  0  0  0  0  0  0  0  0  0
   37.8790   34.0690   39.8380 C   0  0  0  0  0  0  0  0  0  0  0  0
   36.8460   34.3080   39.5820 H   0  0  0  0  0  0  0  0  0  0  0  0
   38.7340   35.0900   40.2130 C   0  0  0  0  0  3  0  0  0  0  0  0
   40.0610   34.8500   40.5510 C   0  0  0  0  0  0  0  0  0  0  0  0
   40.8590   35.8480   40.9070 N   0  0  0  0  0  0  0  0  0  0  0  0
   42.1480   35.5580   41.2270 C   0  0  0  0  0  0  0  0  0  0  0  0
   42.7950   36.3700   41.5160 H   0  0  0  0  0  0  0  0  0  0  0  0
   42.6800   34.2780   41.2040 C   0  0  0  0  0  3  0  0  0  0  0  0
   41.8140   33.2840   40.8300 C   0  0  0  0  0  3  0  0  0  0  0  0
   40.5000   33.5380   40.4980 C   0  0  0  0  0  0  0  0  0  0  0  0
   39.6610   32.5070   40.1260 C   0  0  0  0  0  3  0  0  0  0  0  0
   36.1190   28.3250   41.6710 C   0  0  0  0  0  0  0  0  0  0  0  0
   37.2550   27.7330   41.5490 O   0  0  0  0  0  0  0  0  0  0  0  0
   35.3070   29.3040   41.0050 N   0  0  0  0  0  0  0  0  0  0  0  0
   35.9400   27.7520   42.5940 H   0  0  0  0  0  0  0  0  0  0  0  0
   34.4100   29.4360   41.4900 H   0  0  0  0  0  0  0  0  0  0  0  0
   34.9140   28.5200   38.1650 C   0  0  0  0  0  0  0  0  0  0  0  0
   35.2960   27.6040   38.6400 H   0  0  0  0  0  0  0  0  0  0  0  0
   33.9060   28.7030   38.6270 H   0  0  0  0  0  0  0  0  0  0  0  0
   34.7120   28.3930   36.6720 C   0  0  0  0  0  0  0  0  0  0  0  0
   35.5860   28.7900   36.1150 H   0  0  0  0  0  0  0  0  0  0  0  0
   34.6580   27.3170   36.4160 H   0  0  0  0  0  0  0  0  0  0  0  0
   32.1000   30.1020   34.7540 C   0  0  0  0  0  0  0  0  0  0  0  0
   31.0880   30.3010   35.7260 C   0  0  0  0  0  0  0  0  0  0  0  0
   31.3550   29.8260   37.0160 C   0  0  0  0  0  0  0  0  0  0  0  0
   32.5200   29.2200   37.2810 N   0  0  0  0  0  0  0  0  0  0  0  0
   33.4490   29.0590   36.3100 C   0  0  0  0  0  0  0  0  0  0  0  0
   33.2610   29.4790   35.0860 N   0  0  0  0  0  0  0  0  0  0  0  0
   31.8780   30.4760   33.7570 H   0  0  0  0  0  0  0  0  0  0  0  0
   30.1580   30.7960   35.4740 H   0  0  0  0  0  0  0  0  0  0  0  0
   30.6110   29.9550   37.7900 H   0  0  0  0  0  0  0  0  0  0  0  0
  1  6  1  0  0  0  0
  2  3  1  0  0  0  0
  2  1  2  0  0  0  0
  3  4  2  0  0  0  0
  4 10  1  0  0  0  0
  4  5  1  0  0  0  0
  5  9  1  0  0  0  0
  6  5  2  0  0  0  0
  6 24  1  0  0  0  0
  7  2  1  0  0  0  0
  8  3  1  0  0  0  0
 10 11  2  0  0  0  0
 10 21  1  0  0  0  0
 11 13  1  0  0  0  0
 12 11  1  0  0  0  0
 13 14  2  0  0  0  0
 14 15  1  0  0  0  0
 15 16  2  0  0  0  0
 16 17  1  0  0  0  0
 18 16  1  0  0  0  0
 19 18  2  0  0  0  0
 20 14  1  0  0  0  0
 20 19  1  0  0  0  0
 21 20  2  0  0  0  0
 22 25  1  0  0  0  0
 23 22  2  0  0  0  0
 24 26  1  0  0  0  0
 24 22  1  0  0  0  0
 27  1  1  0  0  0  0
 27 29  1  0  0  0  0
 27 28  1  0  0  0  0
 30 27  1  0  0  0  0
 31 30  1  0  0  0  0
 32 30  1  0  0  0  0
 33 38  2  0  0  0  0
 33 34  1  0  0  0  0
 34 35  2  0  0  0  0
 35 36  1  0  0  0  0
 35 41  1  0  0  0  0
 37 30  1  0  0  0  0
 37 36  2  0  0  0  0
 38 37  1  0  0  0  0
 39 33  1  0  0  0  0
 40 34  1  0  0  0  0
M  END
>  <minimizedAffinity>
-6.43564034

$$$$

 OpenBabel03252501303D

 41 44  0  0  0  0  0  0  0  0999 V2000
   35.7060   28.6050   40.0990 C   0  0  0  0  0  0  0  0  0  0  0  0
   36.3080   27.3730   40.1330 C   0  0  0  0  0  0  0  0  0  0  0  0
   37.3810   27.0770   40.9270 C   0  0  0  0  0  0  0  0  0  0  0  0
   37.8820   28.0340   41.7200 C   0  0  0  0  0  0  0  0  0  0  0  0
   37.2940   29.3090   41.7190 C   0  0  0  0  0  0  0  0  0  0  0  0
   36.2120   29.5880   40.9120 C   0  0  0  0  0  0  0  0  0  0  0  0
   35.8470   26.6400   39.4570 H   0  0  0  0  0  0  0  0  0  0  0  0
   37.7290   26.0570   40.8270 H   0  0  0  0  0  0  0  0  0  0  0  0
   37.8330   29.9490   42.4240 H   0  0  0  0  0  0  0  0  0  0  0  0
   39.0430   27.6460   42.5490 C   0  0  0  0  0  0  0  0  0  0  0  0
   39.0350   26.5100   43.2800 C   0  0  0  0  0  0  0  0  0  0  0  0
   38.1700   25.8470   43.2790 H   0  0  0  0  0  0  0  0  0  0  0  0
   40.1390   26.1790   44.0460 C   0  0  0  0  0  3  0  0  0  0  0  0
   41.2710   26.9850   44.0890 C   0  0  0  0  0  0  0  0  0  0  0  0
   42.3160   26.6430   44.8320 N   0  0  0  0  0  0  0  0  0  0  0  0
   43.3970   27.4670   44.8390 C   0  0  0  0  0  0  0  0  0  0  0  0
   44.2450   27.1880   45.4420 H   0  0  0  0  0  0  0  0  0  0  0  0
   43.4740   28.6460   44.1130 C   0  0  0  0  0  3  0  0  0  0  0  0
   42.3690   28.9520   43.3620 C   0  0  0  0  0  3  0  0  0  0  0  0
   41.2530   28.1430   43.3300 C   0  0  0  0  0  0  0  0  0  0  0  0
   40.1610   28.4890   42.5600 C   0  0  0  0  0  3  0  0  0  0  0  0
   36.6430   31.9260   40.4830 C   0  0  0  0  0  0  0  0  0  0  0  0
   37.6230   32.0010   39.6520 O   0  0  0  0  0  0  0  0  0  0  0  0
   35.8670   30.9470   41.1910 N   0  0  0  0  0  0  0  0  0  0  0  0
   36.5780   33.0260   40.4780 H   0  0  0  0  0  0  0  0  0  0  0  0
   35.1710   31.3920   41.8010 H   0  0  0  0  0  0  0  0  0  0  0  0
   34.5780   29.0680   39.2810 C   0  0  0  0  0  0  0  0  0  0  0  0
   33.6550   28.9190   39.8590 H   0  0  0  0  0  0  0  0  0  0  0  0
   34.6500   30.1760   39.1070 H   0  0  0  0  0  0  0  0  0  0  0  0
   34.5640   28.3960   37.9270 C   0  0  0  0  0  0  0  0  0  0  0  0
   35.5560   28.4680   37.4350 H   0  0  0  0  0  0  0  0  0  0  0  0
   34.3830   27.3140   38.0750 H   0  0  0  0  0  0  0  0  0  0  0  0
   31.3610   29.8880   36.9580 C   0  0  0  0  0  0  0  0  0  0  0  0
   31.5080   30.0410   35.5560 C   0  0  0  0  0  0  0  0  0  0  0  0
   32.7230   29.6200   35.0020 C   0  0  0  0  0  0  0  0  0  0  0  0
   33.6770   29.1030   35.7890 N   0  0  0  0  0  0  0  0  0  0  0  0
   33.4780   28.9820   37.1220 C   0  0  0  0  0  0  0  0  0  0  0  0
   32.3670   29.3560   37.7010 N   0  0  0  0  0  0  0  0  0  0  0  0
   30.4130   30.2190   37.3740 H   0  0  0  0  0  0  0  0  0  0  0  0
   30.7130   30.4630   34.9530 H   0  0  0  0  0  0  0  0  0  0  0  0
   32.8780   29.7180   33.9370 H   0  0  0  0  0  0  0  0  0  0  0  0
  1  2  2  0  0  0  0
  1  6  1  0  0  0  0
  2  3  1  0  0  0  0
  3  4  2  0  0  0  0
  4 10  1  0  0  0  0
  5  4  1  0  0  0  0
  5  9  1  0  0  0  0
  6 24  1  0  0  0  0
  6  5  2  0  0  0  0
  7  2  1  0  0  0  0
  8  3  1  0  0  0  0
 10 21  2  0  0  0  0
 10 11  1  0  0  0  0
 11 13  2  0  0  0  0
 12 11  1  0  0  0  0
 13 14  1  0  0  0  0
 14 15  1  0  0  0  0
 15 16  2  0  0  0  0
 16 17  1  0  0  0  0
 18 16  1  0  0  0  0
 19 18  2  0  0  0  0
 20 19  1  0  0  0  0
 20 14  2  0  0  0  0
 21 20  1  0  0  0  0
 22 24  1  0  0  0  0
 23 22  2  0  0  0  0
 24 26  1  0  0  0  0
 25 22  1  0  0  0  0
 27 28  1  0  0  0  0
 27  1  1  0  0  0  0
 29 27  1  0  0  0  0
 30 32  1  0  0  0  0
 30 27  1  0  0  0  0
 31 30  1  0  0  0  0
 33 39  1  0  0  0  0
 33 38  1  0  0  0  0
 34 33  2  0  0  0  0
 35 34  1  0  0  0  0
 35 36  2  0  0  0  0
 36 37  1  0  0  0  0
 37 38  2  0  0  0  0
 37 30  1  0  0  0  0
 40 34  1  0  0  0  0
 41 35  1  0  0  0  0
M  END
>  <minimizedAffinity>
-6.41528654

$$$$

 OpenBabel03252501303D

 41 44  0  0  0  0  0  0  0  0999 V2000
   36.7380   30.2130   40.2180 C   0  0  0  0  0  0  0  0  0  0  0  0
   36.6150   29.7030   38.9510 C   0  0  0  0  0  0  0  0  0  0  0  0
   36.5400   28.3650   38.6780 C   0  0  0  0  0  0  0  0  0  0  0  0
   36.5890   27.4940   39.6950 C   0  0  0  0  0  0  0  0  0  0  0  0
   36.7110   27.9750   41.0090 C   0  0  0  0  0  0  0  0  0  0  0  0
   36.7830   29.3270   41.2640 C   0  0  0  0  0  0  0  0  0  0  0  0
   36.5830   30.4730   38.1670 H   0  0  0  0  0  0  0  0  0  0  0  0
   36.4460   28.1400   37.6230 H   0  0  0  0  0  0  0  0  0  0  0  0
   36.7330   27.1240   41.6970 H   0  0  0  0  0  0  0  0  0  0  0  0
   36.5060   26.0650   39.3280 C   0  0  0  0  0  0  0  0  0  0  0  0
   35.7200   25.6450   38.3130 C   0  0  0  0  0  0  0  0  0  0  0  0
   35.1250   26.3510   37.7330 H   0  0  0  0  0  0  0  0  0  0  0  0
   35.6660   24.2990   37.9980 C   0  0  0  0  0  3  0  0  0  0  0  0
   36.4010   23.3500   38.6990 C   0  0  0  0  0  0  0  0  0  0  0  0
   36.3290   22.0650   38.3760 N   0  0  0  0  0  0  0  0  0  0  0  0
   37.0690   21.1800   39.0950 C   0  0  0  0  0  0  0  0  0  0  0  0
   37.0100   20.1370   38.8310 H   0  0  0  0  0  0  0  0  0  0  0  0
   37.8950   21.5400   40.1490 C   0  0  0  0  0  3  0  0  0  0  0  0
   37.9330   22.8780   40.4410 C   0  0  0  0  0  3  0  0  0  0  0  0
   37.1980   23.8070   39.7350 C   0  0  0  0  0  0  0  0  0  0  0  0
   37.2650   25.1460   40.0640 C   0  0  0  0  0  3  0  0  0  0  0  0
   38.1820   29.2360   43.2320 C   0  0  0  0  0  0  0  0  0  0  0  0
   39.3750   28.9340   42.8550 O   0  0  0  0  0  0  0  0  0  0  0  0
   36.8710   29.4440   42.6850 N   0  0  0  0  0  0  0  0  0  0  0  0
   38.5430   29.2940   44.2710 H   0  0  0  0  0  0  0  0  0  0  0  0
   36.1870   29.6480   43.4250 H   0  0  0  0  0  0  0  0  0  0  0  0
   36.8590   31.6110   40.6510 C   0  0  0  0  0  0  0  0  0  0  0  0
   35.9570   31.8680   41.2260 H   0  0  0  0  0  0  0  0  0  0  0  0
   37.7170   31.7260   41.3670 H   0  0  0  0  0  0  0  0  0  0  0  0
   37.1180   32.5320   39.4800 C   0  0  0  0  0  0  0  0  0  0  0  0
   37.2050   31.9600   38.5330 H   0  0  0  0  0  0  0  0  0  0  0  0
   36.2380   33.1910   39.3510 H   0  0  0  0  0  0  0  0  0  0  0  0
   40.5920   33.5190   40.0970 C   0  0  0  0  0  0  0  0  0  0  0  0
   40.4750   34.9090   40.3460 C   0  0  0  0  0  0  0  0  0  0  0  0
   39.1850   35.4510   40.2860 C   0  0  0  0  0  0  0  0  0  0  0  0
   38.1380   34.6640   40.0040 N   0  0  0  0  0  0  0  0  0  0  0  0
   38.3130   33.3420   39.7750 C   0  0  0  0  0  0  0  0  0  0  0  0
   39.4910   32.7740   39.8160 N   0  0  0  0  0  0  0  0  0  0  0  0
   41.6000   33.1120   40.1460 H   0  0  0  0  0  0  0  0  0  0  0  0
   41.3460   35.5140   40.5720 H   0  0  0  0  0  0  0  0  0  0  0  0
   39.0480   36.5070   40.4690 H   0  0  0  0  0  0  0  0  0  0  0  0
  1 27  1  0  0  0  0
  1  6  1  0  0  0  0
  2  1  2  0  0  0  0
  3  2  1  0  0  0  0
  3  4  2  0  0  0  0
  4  5  1  0  0  0  0
  5  6  2  0  0  0  0
  5  9  1  0  0  0  0
  6 24  1  0  0  0  0
  7  2  1  0  0  0  0
  8  3  1  0  0  0  0
 10  4  1  0  0  0  0
 10 21  1  0  0  0  0
 11 10  2  0  0  0  0
 12 11  1  0  0  0  0
 13 11  1  0  0  0  0
 13 14  2  0  0  0  0
 14 20  1  0  0  0  0
 15 14  1  0  0  0  0
 15 16  2  0  0  0  0
 16 18  1  0  0  0  0
 17 16  1  0  0  0  0
 18 19  2  0  0  0  0
 20 21  2  0  0  0  0
 20 19  1  0  0  0  0
 22 25  1  0  0  0  0
 23 22  2  0  0  0  0
 24 22  1  0  0  0  0
 24 26  1  0  0  0  0
 27 28  1  0  0  0  0
 27 29  1  0  0  0  0
 30 37  1  0  0  0  0
 30 27  1  0  0  0  0
 31 30  1  0  0  0  0
 32 30  1  0  0  0  0
 33 39  1  0  0  0  0
 33 34  1  0  0  0  0
 34 40  1  0  0  0  0
 35 34  2  0  0  0  0
 35 41  1  0  0  0  0
 36 35  1  0  0  0  0
 37 38  1  0  0  0  0
 37 36  2  0  0  0  0
 38 33  2  0  0  0  0
M  END
>  <minimizedAffinity>
-6.36194658

$$$$

 OpenBabel03252501303D

 41 44  0  0  0  0  0  0  0  0999 V2000
   36.2750   29.2120   40.5390 C   0  0  0  0  0  0  0  0  0  0  0  0
   36.1070   28.4400   39.4190 C   0  0  0  0  0  0  0  0  0  0  0  0
   36.3740   27.0980   39.3780 C   0  0  0  0  0  0  0  0  0  0  0  0
   36.8250   26.4950   40.4850 C   0  0  0  0  0  0  0  0  0  0  0  0
   37.0080   27.2490   41.6560 C   0  0  0  0  0  0  0  0  0  0  0  0
   36.7330   28.5990   41.6780 C   0  0  0  0  0  0  0  0  0  0  0  0
   35.7370   29.0000   38.5490 H   0  0  0  0  0  0  0  0  0  0  0  0
   36.1850   26.6460   38.4120 H   0  0  0  0  0  0  0  0  0  0  0  0
   37.3770   26.5900   42.4480 H   0  0  0  0  0  0  0  0  0  0  0  0
   37.0950   25.0460   40.3690 C   0  0  0  0  0  0  0  0  0  0  0  0
   38.2040   24.4940   40.9050 C   0  0  0  0  0  0  0  0  0  0  0  0
   38.9330   25.1020   41.4410 H   0  0  0  0  0  0  0  0  0  0  0  0
   38.4250   23.1340   40.7750 C   0  0  0  0  0  3  0  0  0  0  0  0
   37.5330   22.3060   40.1040 C   0  0  0  0  0  0  0  0  0  0  0  0
   37.7700   21.0050   39.9940 N   0  0  0  0  0  0  0  0  0  0  0  0
   36.8660   20.2400   39.3270 C   0  0  0  0  0  0  0  0  0  0  0  0
   37.0590   19.1840   39.2380 H   0  0  0  0  0  0  0  0  0  0  0  0
   35.7070   20.7400   38.7520 C   0  0  0  0  0  3  0  0  0  0  0  0
   35.5100   22.0890   38.8940 C   0  0  0  0  0  3  0  0  0  0  0  0
   36.4040   22.8980   39.5640 C   0  0  0  0  0  0  0  0  0  0  0  0
   36.1670   24.2520   39.6830 C   0  0  0  0  0  3  0  0  0  0  0  0
   38.3750   29.3450   43.2860 C   0  0  0  0  0  0  0  0  0  0  0  0
   39.5220   29.3560   42.7020 O   0  0  0  0  0  0  0  0  0  0  0  0
   37.0020   29.0220   43.0160 N   0  0  0  0  0  0  0  0  0  0  0  0
   38.8580   29.7200   44.2020 H   0  0  0  0  0  0  0  0  0  0  0  0
   36.4190   29.1510   43.8520 H   0  0  0  0  0  0  0  0  0  0  0  0
   36.0600   30.6540   40.7170 C   0  0  0  0  0  0  0  0  0  0  0  0
   35.0010   30.8120   40.9660 H   0  0  0  0  0  0  0  0  0  0  0  0
   36.6390   31.0300   41.6040 H   0  0  0  0  0  0  0  0  0  0  0  0
   36.5260   31.4350   39.5080 C   0  0  0  0  0  0  0  0  0  0  0  0
   36.8200   30.7550   38.6820 H   0  0  0  0  0  0  0  0  0  0  0  0
   35.6710   32.0230   39.1220 H   0  0  0  0  0  0  0  0  0  0  0  0
   39.6840   32.6880   40.8800 C   0  0  0  0  0  0  0  0  0  0  0  0
   39.5700   34.0870   40.6790 C   0  0  0  0  0  0  0  0  0  0  0  0
   38.3940   34.5400   40.0680 C   0  0  0  0  0  0  0  0  0  0  0  0
   37.4460   33.6660   39.7050 N   0  0  0  0  0  0  0  0  0  0  0  0
   37.6110   32.3400   39.9230 C   0  0  0  0  0  0  0  0  0  0  0  0
   38.6860   31.8530   40.4890 N   0  0  0  0  0  0  0  0  0  0  0  0
   40.6020   32.3510   41.3550 H   0  0  0  0  0  0  0  0  0  0  0  0
   40.3590   34.7630   40.9870 H   0  0  0  0  0  0  0  0  0  0  0  0
   38.2650   35.5990   39.8950 H   0  0  0  0  0  0  0  0  0  0  0  0
  1 27  1  0  0  0  0
  1  6  1  0  0  0  0
  2  1  2  0  0  0  0
  3  2  1  0  0  0  0
  3  4  2  0  0  0  0
  4  5  1  0  0  0  0
  5  6  2  0  0  0  0
  5  9  1  0  0  0  0
  6 24  1  0  0  0  0
  7  2  1  0  0  0  0
  8  3  1  0  0  0  0
 10  4  1  0  0  0  0
 10 11  1  0  0  0  0
 11 12  1  0  0  0  0
 13 11  2  0  0  0  0
 14 13  1  0  0  0  0
 15 14  1  0  0  0  0
 16 15  2  0  0  0  0
 17 16  1  0  0  0  0
 18 19  2  0  0  0  0
 18 16  1  0  0  0  0
 19 20  1  0  0  0  0
 20 21  1  0  0  0  0
 20 14  2  0  0  0  0
 21 10  2  0  0  0  0
 22 25  1  0  0  0  0
 23 22  2  0  0  0  0
 24 22  1  0  0  0  0
 24 26  1  0  0  0  0
 27 28  1  0  0  0  0
 27 29  1  0  0  0  0
 30 37  1  0  0  0  0
 30 27  1  0  0  0  0
 31 30  1  0  0  0  0
 32 30  1  0  0  0  0
 33 39  1  0  0  0  0
 34 33  1  0  0  0  0
 34 40  1  0  0  0  0
 35 34  2  0  0  0  0
 36 37  2  0  0  0  0
 36 35  1  0  0  0  0
 37 38  1  0  0  0  0
 38 33  2  0  0  0  0
 41 35  1  0  0  0  0
M  END
>  <minimizedAffinity>
-6.3336153

$$$$

 OpenBabel03252501303D

 41 44  0  0  0  0  0  0  0  0999 V2000
   37.3250   28.9020   42.1960 C   0  0  0  0  0  0  0  0  0  0  0  0
   38.6410   29.2190   42.4190 C   0  0  0  0  0  0  0  0  0  0  0  0
   39.2540   30.3200   41.8860 C   0  0  0  0  0  0  0  0  0  0  0  0
   38.5430   31.1390   41.1010 C   0  0  0  0  0  0  0  0  0  0  0  0
   37.1910   30.8530   40.8490 C   0  0  0  0  0  0  0  0  0  0  0  0
   36.5900   29.7400   41.3960 C   0  0  0  0  0  0  0  0  0  0  0  0
   39.1620   28.5040   43.0690 H   0  0  0  0  0  0  0  0  0  0  0  0
   40.2950   30.4160   42.1660 H   0  0  0  0  0  0  0  0  0  0  0  0
   36.7800   31.6280   40.1950 H   0  0  0  0  0  0  0  0  0  0  0  0
   39.2690   32.3070   40.5570 C   0  0  0  0  0  0  0  0  0  0  0  0
   38.9630   33.5650   40.9410 C   0  0  0  0  0  0  0  0  0  0  0  0
   38.1710   33.7550   41.6660 H   0  0  0  0  0  0  0  0  0  0  0  0
   39.6630   34.6340   40.4110 C   0  0  0  0  0  3  0  0  0  0  0  0
   40.6830   34.4560   39.4830 C   0  0  0  0  0  0  0  0  0  0  0  0
   41.3380   35.4990   38.9900 N   0  0  0  0  0  0  0  0  0  0  0  0
   42.3270   35.2690   38.0860 C   0  0  0  0  0  0  0  0  0  0  0  0
   42.8580   36.1170   37.6860 H   0  0  0  0  0  0  0  0  0  0  0  0
   42.6930   34.0060   37.6470 C   0  0  0  0  0  3  0  0  0  0  0  0
   41.9860   32.9630   38.1880 C   0  0  0  0  0  3  0  0  0  0  0  0
   40.9770   33.1560   39.1070 C   0  0  0  0  0  0  0  0  0  0  0  0
   40.2890   32.0780   39.6260 C   0  0  0  0  0  3  0  0  0  0  0  0
   34.9770   29.1330   39.7030 C   0  0  0  0  0  0  0  0  0  0  0  0
   35.6020   28.5080   38.7680 O   0  0  0  0  0  0  0  0  0  0  0  0
   35.2310   29.7840   40.9570 N   0  0  0  0  0  0  0  0  0  0  0  0
   34.0370   28.9870   39.1480 H   0  0  0  0  0  0  0  0  0  0  0  0
   34.3710   30.1890   41.3470 H   0  0  0  0  0  0  0  0  0  0  0  0
   36.5520   27.7480   42.6730 C   0  0  0  0  0  0  0  0  0  0  0  0
   35.9510   28.0740   43.5340 H   0  0  0  0  0  0  0  0  0  0  0  0
   35.8110   27.4230   41.8920 H   0  0  0  0  0  0  0  0  0  0  0  0
   37.4480   26.5660   42.9670 C   0  0  0  0  0  0  0  0  0  0  0  0
   38.5020   26.8860   43.1020 H   0  0  0  0  0  0  0  0  0  0  0  0
   37.1420   26.1280   43.9370 H   0  0  0  0  0  0  0  0  0  0  0  0
   37.5090   23.4170   41.0940 C   0  0  0  0  0  0  0  0  0  0  0  0
   36.9590   23.7950   39.8440 C   0  0  0  0  0  0  0  0  0  0  0  0
   36.5830   25.1370   39.7030 C   0  0  0  0  0  0  0  0  0  0  0  0
   36.7510   25.9920   40.7210 N   0  0  0  0  0  0  0  0  0  0  0  0
   37.2820   25.5720   41.8920 C   0  0  0  0  0  0  0  0  0  0  0  0
   37.6530   24.3320   42.0880 N   0  0  0  0  0  0  0  0  0  0  0  0
   37.7960   22.3720   41.1890 H   0  0  0  0  0  0  0  0  0  0  0  0
   36.8390   23.0750   39.0430 H   0  0  0  0  0  0  0  0  0  0  0  0
   36.1590   25.4700   38.7660 H   0  0  0  0  0  0  0  0  0  0  0  0
  1  2  1  0  0  0  0
  1 27  1  0  0  0  0
  2  7  1  0  0  0  0
  3  8  1  0  0  0  0
  3  2  2  0  0  0  0
  4  3  1  0  0  0  0
  5  4  2  0  0  0  0
  5  6  1  0  0  0  0
  6  1  2  0  0  0  0
  9  5  1  0  0  0  0
 10 11  1  0  0  0  0
 10  4  1  0  0  0  0
 11 12  1  0  0  0  0
 13 11  2  0  0  0  0
 14 13  1  0  0  0  0
 15 14  2  0  0  0  0
 16 15  1  0  0  0  0
 17 16  1  0  0  0  0
 18 16  2  0  0  0  0
 18 19  1  0  0  0  0
 19 20  2  0  0  0  0
 20 14  1  0  0  0  0
 20 21  1  0  0  0  0
 21 10  2  0  0  0  0
 22 24  1  0  0  0  0
 23 22  2  0  0  0  0
 24 26  1  0  0  0  0
 24  6  1  0  0  0  0
 25 22  1  0  0  0  0
 27 30  1  0  0  0  0
 27 28  1  0  0  0  0
 29 27  1  0  0  0  0
 30 31  1  0  0  0  0
 30 32  1  0  0  0  0
 33 39  1  0  0  0  0
 33 38  1  0  0  0  0
 34 33  2  0  0  0  0
 35 34  1  0  0  0  0
 35 36  2  0  0  0  0
 36 37  1  0  0  0  0
 37 38  2  0  0  0  0
 37 30  1  0  0  0  0
 40 34  1  0  0  0  0
 41 35  1  0  0  0  0
M  END
>  <minimizedAffinity>
-6.31614542

$$$$

 OpenBabel03252501303D

 41 44  0  0  0  0  0  0  0  0999 V2000
   40.1040   27.1940   43.2770 C   0  0  0  0  0  0  0  0  0  0  0  0
   41.2900   27.6620   42.7700 C   0  0  0  0  0  0  0  0  0  0  0  0
   41.4520   28.9250   42.2700 C   0  0  0  0  0  0  0  0  0  0  0  0
   40.4050   29.7590   42.2690 C   0  0  0  0  0  0  0  0  0  0  0  0
   39.1730   29.3210   42.7810 C   0  0  0  0  0  0  0  0  0  0  0  0
   39.0290   28.0450   43.2820 C   0  0  0  0  0  0  0  0  0  0  0  0
   42.1040   26.9250   42.8020 H   0  0  0  0  0  0  0  0  0  0  0  0
   42.4540   29.1260   41.9120 H   0  0  0  0  0  0  0  0  0  0  0  0
   38.4440   30.1330   42.6980 H   0  0  0  0  0  0  0  0  0  0  0  0
   40.6500   31.1060   41.7120 C   0  0  0  0  0  0  0  0  0  0  0  0
   41.9050   31.5550   41.4880 C   0  0  0  0  0  0  0  0  0  0  0  0
   42.7720   30.9340   41.7120 H   0  0  0  0  0  0  0  0  0  0  0  0
   42.0970   32.8220   40.9660 C   0  0  0  0  0  3  0  0  0  0  0  0
   41.0310   33.6600   40.6610 C   0  0  0  0  0  0  0  0  0  0  0  0
   41.2450   34.8710   40.1620 N   0  0  0  0  0  0  0  0  0  0  0  0
   40.1670   35.6500   39.8810 C   0  0  0  0  0  0  0  0  0  0  0  0
   40.3420   36.6330   39.4760 H   0  0  0  0  0  0  0  0  0  0  0  0
   38.8540   35.2550   40.0860 C   0  0  0  0  0  3  0  0  0  0  0  0
   38.6880   33.9960   40.6020 C   0  0  0  0  0  3  0  0  0  0  0  0
   39.7560   33.1760   40.9000 C   0  0  0  0  0  0  0  0  0  0  0  0
   39.5450   31.9140   41.4200 C   0  0  0  0  0  3  0  0  0  0  0  0
   36.7050   27.7280   42.7030 C   0  0  0  0  0  0  0  0  0  0  0  0
   36.6320   27.5860   41.4260 O   0  0  0  0  0  0  0  0  0  0  0  0
   37.6760   27.9620   43.7340 N   0  0  0  0  0  0  0  0  0  0  0  0
   35.6130   27.5910   42.7620 H   0  0  0  0  0  0  0  0  0  0  0  0
   37.2290   28.0350   44.6570 H   0  0  0  0  0  0  0  0  0  0  0  0
   39.7810   25.8650   43.8130 C   0  0  0  0  0  0  0  0  0  0  0  0
   40.2610   25.7690   44.7970 H   0  0  0  0  0  0  0  0  0  0  0  0
   38.6770   25.7780   44.0050 H   0  0  0  0  0  0  0  0  0  0  0  0
   40.1590   24.7700   42.8410 C   0  0  0  0  0  0  0  0  0  0  0  0
   41.1530   24.9640   42.3870 H   0  0  0  0  0  0  0  0  0  0  0  0
   40.2690   23.8240   43.4050 H   0  0  0  0  0  0  0  0  0  0  0  0
   38.3370   24.7870   39.6620 C   0  0  0  0  0  0  0  0  0  0  0  0
   37.0360   24.3850   40.0540 C   0  0  0  0  0  0  0  0  0  0  0  0
   36.8440   24.1200   41.4160 C   0  0  0  0  0  0  0  0  0  0  0  0
   37.8640   24.2500   42.2750 N   0  0  0  0  0  0  0  0  0  0  0  0
   39.0850   24.6370   41.8410 C   0  0  0  0  0  0  0  0  0  0  0  0
   39.3300   24.9000   40.5830 N   0  0  0  0  0  0  0  0  0  0  0  0
   38.4710   24.9900   38.6020 H   0  0  0  0  0  0  0  0  0  0  0  0
   36.2360   24.2920   39.3290 H   0  0  0  0  0  0  0  0  0  0  0  0
   35.8680   23.8100   41.7590 H   0  0  0  0  0  0  0  0  0  0  0  0
  1  6  1  0  0  0  0
  1 27  1  0  0  0  0
  2  7  1  0  0  0  0
  2  1  2  0  0  0  0
  3  2  1  0  0  0  0
  4  3  2  0  0  0  0
  4  5  1  0  0  0  0
  5  6  2  0  0  0  0
  6 24  1  0  0  0  0
  8  3  1  0  0  0  0
  9  5  1  0  0  0  0
 10  4  1  0  0  0  0
 11 12  1  0  0  0  0
 11 10  1  0  0  0  0
 13 11  2  0  0  0  0
 14 20  1  0  0  0  0
 14 13  1  0  0  0  0
 15 14  2  0  0  0  0
 16 18  2  0  0  0  0
 16 15  1  0  0  0  0
 17 16  1  0  0  0  0
 18 19  1  0  0  0  0
 19 20  2  0  0  0  0
 20 21  1  0  0  0  0
 21 10  2  0  0  0  0
 22 25  1  0  0  0  0
 22 24  1  0  0  0  0
 23 22  2  0  0  0  0
 24 26  1  0  0  0  0
 27 29  1  0  0  0  0
 27 28  1  0  0  0  0
 30 32  1  0  0  0  0
 30 27  1  0  0  0  0
 31 30  1  0  0  0  0
 33 34  2  0  0  0  0
 33 38  1  0  0  0  0
 34 35  1  0  0  0  0
 35 41  1  0  0  0  0
 35 36  2  0  0  0  0
 37 36  1  0  0  0  0
 37 30  1  0  0  0  0
 38 37  2  0  0  0  0
 39 33  1  0  0  0  0
 40 34  1  0  0  0  0
M  END
>  <minimizedAffinity>
-6.29247713

$$$$

 OpenBabel03252501303D

 41 44  0  0  0  0  0  0  0  0999 V2000
   37.2550   27.4200   40.3190 C   0  0  0  0  0  0  0  0  0  0  0  0
   37.9310   28.0360   39.2960 C   0  0  0  0  0  0  0  0  0  0  0  0
   38.2410   29.3680   39.2890 C   0  0  0  0  0  0  0  0  0  0  0  0
   37.8690   30.1240   40.3310 C   0  0  0  0  0  0  0  0  0  0  0  0
   37.1770   29.5320   41.4000 C   0  0  0  0  0  0  0  0  0  0  0  0
   36.8760   28.1880   41.3900 C   0  0  0  0  0  0  0  0  0  0  0  0
   38.2030   27.3570   38.4770 H   0  0  0  0  0  0  0  0  0  0  0  0
   38.7770   29.6860   38.4040 H   0  0  0  0  0  0  0  0  0  0  0  0
   36.9620   30.2990   42.1510 H   0  0  0  0  0  0  0  0  0  0  0  0
   38.2340   31.5540   40.2550 C   0  0  0  0  0  0  0  0  0  0  0  0
   37.3040   32.5040   40.0100 C   0  0  0  0  0  0  0  0  0  0  0  0
   36.2570   32.2400   39.8620 H   0  0  0  0  0  0  0  0  0  0  0  0
   37.6820   33.8330   39.9450 C   0  0  0  0  0  3  0  0  0  0  0  0
   39.0020   34.2310   40.1250 C   0  0  0  0  0  0  0  0  0  0  0  0
   39.3360   35.5140   40.0570 N   0  0  0  0  0  0  0  0  0  0  0  0
   40.6410   35.8490   40.2400 C   0  0  0  0  0  0  0  0  0  0  0  0
   40.9110   36.8900   40.1850 H   0  0  0  0  0  0  0  0  0  0  0  0
   41.6460   34.9280   40.4950 C   0  0  0  0  0  3  0  0  0  0  0  0
   41.2470   33.6180   40.5550 C   0  0  0  0  0  3  0  0  0  0  0  0
   39.9340   33.2390   40.3750 C   0  0  0  0  0  0  0  0  0  0  0  0
   39.5750   31.9070   40.4430 C   0  0  0  0  0  3  0  0  0  0  0  0
   37.0750   27.6920   43.7470 C   0  0  0  0  0  0  0  0  0  0  0  0
   38.3270   27.5880   44.0240 O   0  0  0  0  0  0  0  0  0  0  0  0
   36.2080   27.9370   42.6280 N   0  0  0  0  0  0  0  0  0  0  0  0
   36.8430   27.5040   44.8070 H   0  0  0  0  0  0  0  0  0  0  0  0
   35.2200   27.8900   42.9060 H   0  0  0  0  0  0  0  0  0  0  0  0
   36.8330   26.0190   40.4440 C   0  0  0  0  0  0  0  0  0  0  0  0
   36.5210   25.8500   41.4850 H   0  0  0  0  0  0  0  0  0  0  0  0
   35.9180   25.8280   39.8200 H   0  0  0  0  0  0  0  0  0  0  0  0
   37.9110   25.0710   39.9700 C   0  0  0  0  0  0  0  0  0  0  0  0
   37.4930   24.0660   39.7530 H   0  0  0  0  0  0  0  0  0  0  0  0
   38.3060   25.4450   39.0050 H   0  0  0  0  0  0  0  0  0  0  0  0
   41.1820   25.4240   41.5830 C   0  0  0  0  0  0  0  0  0  0  0  0
   40.9310   24.9390   42.8910 C   0  0  0  0  0  0  0  0  0  0  0  0
   39.6260   24.5090   43.1610 C   0  0  0  0  0  0  0  0  0  0  0  0
   38.6870   24.5690   42.2070 N   0  0  0  0  0  0  0  0  0  0  0  0
   38.9880   25.0430   40.9750 C   0  0  0  0  0  0  0  0  0  0  0  0
   40.1870   25.4590   40.6580 N   0  0  0  0  0  0  0  0  0  0  0  0
   42.2000   25.7540   41.3870 H   0  0  0  0  0  0  0  0  0  0  0  0
   41.7170   24.9050   43.6360 H   0  0  0  0  0  0  0  0  0  0  0  0
   39.3890   24.1320   44.1460 H   0  0  0  0  0  0  0  0  0  0  0  0
  1 27  1  0  0  0  0
  1  6  1  0  0  0  0
  2  1  2  0  0  0  0
  3  2  1  0  0  0  0
  3  4  2  0  0  0  0
  4  5  1  0  0  0  0
  5  9  1  0  0  0  0
  6  5  2  0  0  0  0
  6 24  1  0  0  0  0
  7  2  1  0  0  0  0
  8  3  1  0  0  0  0
 10  4  1  0  0  0  0
 10 21  1  0  0  0  0
 11 10  2  0  0  0  0
 12 11  1  0  0  0  0
 13 11  1  0  0  0  0
 13 14  2  0  0  0  0
 14 20  1  0  0  0  0
 15 14  1  0  0  0  0
 15 16  2  0  0  0  0
 16 18  1  0  0  0  0
 17 16  1  0  0  0  0
 18 19  2  0  0  0  0
 20 21  2  0  0  0  0
 20 19  1  0  0  0  0
 22 23  2  0  0  0  0
 22 25  1  0  0  0  0
 24 26  1  0  0  0  0
 24 22  1  0  0  0  0
 27 28  1  0  0  0  0
 29 27  1  0  0  0  0
 30 27  1  0  0  0  0
 30 37  1  0  0  0  0
 31 30  1  0  0  0  0
 32 30  1  0  0  0  0
 33 34  1  0  0  0  0
 34 35  2  0  0  0  0
 34 40  1  0  0  0  0
 35 41  1  0  0  0  0
 36 35  1  0  0  0  0
 37 36  2  0  0  0  0
 38 37  1  0  0  0  0
 38 33  2  0  0  0  0
 39 33  1  0  0  0  0
M  END
>  <minimizedAffinity>
-6.28963804

$$$$

 OpenBabel03252501303D

 41 44  0  0  0  0  0  0  0  0999 V2000
   33.9530   28.6930   37.9150 C   0  0  0  0  0  0  0  0  0  0  0  0
   33.9770   29.2710   39.1580 C   0  0  0  0  0  0  0  0  0  0  0  0
   34.9040   28.9660   40.1160 C   0  0  0  0  0  0  0  0  0  0  0  0
   35.8440   28.0540   39.8390 C   0  0  0  0  0  0  0  0  0  0  0  0
   35.8580   27.4400   38.5760 C   0  0  0  0  0  0  0  0  0  0  0  0
   34.9170   27.7610   37.6230 C   0  0  0  0  0  0  0  0  0  0  0  0
   33.1770   30.0070   39.3160 H   0  0  0  0  0  0  0  0  0  0  0  0
   34.7740   29.5180   41.0390 H   0  0  0  0  0  0  0  0  0  0  0  0
   36.6920   26.7320   38.5350 H   0  0  0  0  0  0  0  0  0  0  0  0
   36.8110   27.7720   40.9210 C   0  0  0  0  0  0  0  0  0  0  0  0
   37.0860   28.6890   41.8740 C   0  0  0  0  0  0  0  0  0  0  0  0
   36.6000   29.6640   41.8720 H   0  0  0  0  0  0  0  0  0  0  0  0
   37.9980   28.3900   42.8710 C   0  0  0  0  0  3  0  0  0  0  0  0
   38.6500   27.1640   42.9260 C   0  0  0  0  0  0  0  0  0  0  0  0
   39.5210   26.9040   43.8940 N   0  0  0  0  0  0  0  0  0  0  0  0
   40.1300   25.6890   43.9010 C   0  0  0  0  0  0  0  0  0  0  0  0
   40.8370   25.4800   44.6870 H   0  0  0  0  0  0  0  0  0  0  0  0
   39.8970   24.7030   42.9550 C   0  0  0  0  0  3  0  0  0  0  0  0
   38.9900   25.0210   41.9790 C   0  0  0  0  0  3  0  0  0  0  0  0
   38.3500   26.2420   41.9370 C   0  0  0  0  0  0  0  0  0  0  0  0
   37.4440   26.5230   40.9350 C   0  0  0  0  0  3  0  0  0  0  0  0
   36.2110   27.5750   35.5910 C   0  0  0  0  0  0  0  0  0  0  0  0
   36.8940   28.6580   35.4580 O   0  0  0  0  0  0  0  0  0  0  0  0
   35.2510   26.9770   36.4760 N   0  0  0  0  0  0  0  0  0  0  0  0
   36.6690   27.1930   34.6650 H   0  0  0  0  0  0  0  0  0  0  0  0
   34.9500   26.0570   36.1320 H   0  0  0  0  0  0  0  0  0  0  0  0
   33.0080   28.8990   36.8100 C   0  0  0  0  0  0  0  0  0  0  0  0
   33.5150   29.4920   36.0350 H   0  0  0  0  0  0  0  0  0  0  0  0
   32.7540   27.9180   36.3230 H   0  0  0  0  0  0  0  0  0  0  0  0
   31.7140   29.5120   37.2960 C   0  0  0  0  0  0  0  0  0  0  0  0
   30.9480   28.7320   37.4850 H   0  0  0  0  0  0  0  0  0  0  0  0
   31.9010   29.9910   38.2770 H   0  0  0  0  0  0  0  0  0  0  0  0
   30.1410   32.4680   35.8080 C   0  0  0  0  0  0  0  0  0  0  0  0
   30.4910   32.3440   34.4400 C   0  0  0  0  0  0  0  0  0  0  0  0
   31.2670   31.2330   34.0890 C   0  0  0  0  0  0  0  0  0  0  0  0
   31.6420   30.3520   35.0260 N   0  0  0  0  0  0  0  0  0  0  0  0
   31.2770   30.5240   36.3180 C   0  0  0  0  0  0  0  0  0  0  0  0
   30.5520   31.5400   36.7110 N   0  0  0  0  0  0  0  0  0  0  0  0
   29.5380   33.3360   36.0660 H   0  0  0  0  0  0  0  0  0  0  0  0
   30.1680   33.0770   33.7110 H   0  0  0  0  0  0  0  0  0  0  0  0
   31.5580   31.0980   33.0570 H   0  0  0  0  0  0  0  0  0  0  0  0
  1  2  1  0  0  0  0
  2  7  1  0  0  0  0
  2  3  2  0  0  0  0
  3  8  1  0  0  0  0
  4  3  1  0  0  0  0
  4 10  1  0  0  0  0
  5  4  2  0  0  0  0
  6  1  2  0  0  0  0
  6  5  1  0  0  0  0
  9  5  1  0  0  0  0
 10 21  2  0  0  0  0
 10 11  1  0  0  0  0
 11 13  2  0  0  0  0
 12 11  1  0  0  0  0
 13 14  1  0  0  0  0
 14 15  1  0  0  0  0
 15 16  2  0  0  0  0
 16 17  1  0  0  0  0
 18 16  1  0  0  0  0
 19 18  2  0  0  0  0
 20 19  1  0  0  0  0
 20 14  2  0  0  0  0
 21 20  1  0  0  0  0
 22 24  1  0  0  0  0
 23 22  2  0  0  0  0
 24  6  1  0  0  0  0
 25 22  1  0  0  0  0
 26 24  1  0  0  0  0
 27 30  1  0  0  0  0
 27  1  1  0  0  0  0
 28 27  1  0  0  0  0
 29 27  1  0  0  0  0
 30 31  1  0  0  0  0
 30 32  1  0  0  0  0
 33 39  1  0  0  0  0
 33 38  1  0  0  0  0
 34 33  2  0  0  0  0
 35 34  1  0  0  0  0
 35 36  2  0  0  0  0
 36 37  1  0  0  0  0
 37 38  2  0  0  0  0
 37 30  1  0  0  0  0
 40 34  1  0  0  0  0
 41 35  1  0  0  0  0
M  END
>  <minimizedAffinity>
-6.26130676

$$$$

 OpenBabel03252501303D

 41 44  0  0  0  0  0  0  0  0999 V2000
   37.2150   26.7620   41.7930 C   0  0  0  0  0  0  0  0  0  0  0  0
   36.7990   27.4120   40.6590 C   0  0  0  0  0  0  0  0  0  0  0  0
   37.0960   28.7180   40.3850 C   0  0  0  0  0  0  0  0  0  0  0  0
   37.8310   29.4120   41.2630 C   0  0  0  0  0  0  0  0  0  0  0  0
   38.2800   28.7840   42.4360 C   0  0  0  0  0  0  0  0  0  0  0  0
   37.9720   27.4660   42.6940 C   0  0  0  0  0  0  0  0  0  0  0  0
   36.2000   26.7830   39.9860 H   0  0  0  0  0  0  0  0  0  0  0  0
   36.6870   29.0700   39.4450 H   0  0  0  0  0  0  0  0  0  0  0  0
   38.8610   29.5020   43.0230 H   0  0  0  0  0  0  0  0  0  0  0  0
   38.1120   30.8190   40.9040 C   0  0  0  0  0  0  0  0  0  0  0  0
   37.1310   31.6430   40.4760 C   0  0  0  0  0  0  0  0  0  0  0  0
   36.1030   31.2930   40.3840 H   0  0  0  0  0  0  0  0  0  0  0  0
   37.4300   32.9530   40.1470 C   0  0  0  0  0  3  0  0  0  0  0  0
   38.7220   33.4580   40.2430 C   0  0  0  0  0  0  0  0  0  0  0  0
   38.9810   34.7180   39.9200 N   0  0  0  0  0  0  0  0  0  0  0  0
   40.2620   35.1610   40.0320 C   0  0  0  0  0  0  0  0  0  0  0  0
   40.4710   36.1850   39.7700 H   0  0  0  0  0  0  0  0  0  0  0  0
   41.3170   34.3710   40.4630 C   0  0  0  0  0  3  0  0  0  0  0  0
   40.9950   33.0770   40.7840 C   0  0  0  0  0  3  0  0  0  0  0  0
   39.7090   32.5920   40.6840 C   0  0  0  0  0  0  0  0  0  0  0  0
   39.4290   31.2820   41.0160 C   0  0  0  0  0  3  0  0  0  0  0  0
   39.9540   26.6760   43.8280 C   0  0  0  0  0  0  0  0  0  0  0  0
   40.8280   26.3770   42.9320 O   0  0  0  0  0  0  0  0  0  0  0  0
   38.6070   27.1620   43.9380 N   0  0  0  0  0  0  0  0  0  0  0  0
   40.6820   26.3980   44.6060 H   0  0  0  0  0  0  0  0  0  0  0  0
   38.3090   27.2130   44.9190 H   0  0  0  0  0  0  0  0  0  0  0  0
   36.9470   25.3850   42.2280 C   0  0  0  0  0  0  0  0  0  0  0  0
   36.9070   25.3770   43.3270 H   0  0  0  0  0  0  0  0  0  0  0  0
   35.9270   25.0570   41.8860 H   0  0  0  0  0  0  0  0  0  0  0  0
   37.9530   24.4160   41.6470 C   0  0  0  0  0  0  0  0  0  0  0  0
   38.8040   24.9550   41.1820 H   0  0  0  0  0  0  0  0  0  0  0  0
   38.3900   23.8270   42.4760 H   0  0  0  0  0  0  0  0  0  0  0  0
   35.4060   22.9950   39.4290 C   0  0  0  0  0  0  0  0  0  0  0  0
   36.0240   21.8010   38.9820 C   0  0  0  0  0  0  0  0  0  0  0  0
   37.3100   21.5380   39.4690 C   0  0  0  0  0  0  0  0  0  0  0  0
   37.8960   22.3960   40.3150 N   0  0  0  0  0  0  0  0  0  0  0  0
   37.2550   23.5220   40.7080 C   0  0  0  0  0  0  0  0  0  0  0  0
   36.0530   23.8250   40.2890 N   0  0  0  0  0  0  0  0  0  0  0  0
   34.4080   23.1860   39.0420 H   0  0  0  0  0  0  0  0  0  0  0  0
   35.5170   21.1310   38.2960 H   0  0  0  0  0  0  0  0  0  0  0  0
   37.8190   20.6380   39.1540 H   0  0  0  0  0  0  0  0  0  0  0  0
  1 27  1  0  0  0  0
  1  6  1  0  0  0  0
  2  1  2  0  0  0  0
  3  2  1  0  0  0  0
  3  4  2  0  0  0  0
  4  5  1  0  0  0  0
  5  6  2  0  0  0  0
  5  9  1  0  0  0  0
  6 24  1  0  0  0  0
  7  2  1  0  0  0  0
  8  3  1  0  0  0  0
 10 21  1  0  0  0  0
 10  4  1  0  0  0  0
 11 10  2  0  0  0  0
 12 11  1  0  0  0  0
 13 14  2  0  0  0  0
 13 11  1  0  0  0  0
 14 20  1  0  0  0  0
 15 16  2  0  0  0  0
 15 14  1  0  0  0  0
 16 18  1  0  0  0  0
 17 16  1  0  0  0  0
 18 19  2  0  0  0  0
 20 19  1  0  0  0  0
 20 21  2  0  0  0  0
 22 24  1  0  0  0  0
 22 25  1  0  0  0  0
 23 22  2  0  0  0  0
 24 26  1  0  0  0  0
 27 28  1  0  0  0  0
 29 27  1  0  0  0  0
 30 27  1  0  0  0  0
 30 32  1  0  0  0  0
 31 30  1  0  0  0  0
 33 38  1  0  0  0  0
 34 33  2  0  0  0  0
 34 35  1  0  0  0  0
 35 36  2  0  0  0  0
 36 37  1  0  0  0  0
 37 30  1  0  0  0  0
 38 37  2  0  0  0  0
 39 33  1  0  0  0  0
 40 34  1  0  0  0  0
 41 35  1  0  0  0  0
M  END
>  <minimizedAffinity>
-6.18813038

$$$$
