
 OpenBabel03252509083D

 44 48  0  0  0  0  0  0  0  0999 V2000
   49.4340   33.2280   41.3390 C   0  0  0  0  0  0  0  0  0  0  0  0
   48.6600   33.9430   40.4710 C   0  0  0  0  0  0  0  0  0  0  0  0
   48.4680   35.2990   40.6770 C   0  0  0  0  0  0  0  0  0  0  0  0
   49.0520   35.9300   41.7500 C   0  0  0  0  0  0  0  0  0  0  0  0
   49.8490   35.2370   42.6600 C   0  0  0  0  0  0  0  0  0  0  0  0
   50.0270   33.8700   42.4280 C   0  0  0  0  0  0  0  0  0  0  0  0
   47.8580   35.8860   40.0020 H   0  0  0  0  0  0  0  0  0  0  0  0
   48.9580   36.9670   41.9850 H   0  0  0  0  0  0  0  0  0  0  0  0
   50.3360   35.6510   43.5120 H   0  0  0  0  0  0  0  0  0  0  0  0
   50.6460   33.3000   43.1220 H   0  0  0  0  0  0  0  0  0  0  0  0
   44.4210   32.0060   38.2460 Cl  0  0  0  0  0  0  0  0  0  0  0  0
   46.1000   32.4770   38.2660 C   0  0  0  0  0  0  0  0  0  0  0  0
   46.6680   33.0240   39.3720 C   0  0  0  0  0  0  0  0  0  0  0  0
   48.0050   33.3730   39.2980 C   0  0  0  0  0  0  0  0  0  0  0  0
   48.7440   33.1850   38.1590 C   0  0  0  0  0  0  0  0  0  0  0  0
   48.1660   32.6360   37.0560 C   0  0  0  0  0  0  0  0  0  0  0  0
   46.8310   32.2810   37.1200 C   0  0  0  0  0  0  0  0  0  0  0  0
   49.7870   33.4690   38.1250 H   0  0  0  0  0  0  0  0  0  0  0  0
   48.7650   32.4970   36.1770 H   0  0  0  0  0  0  0  0  0  0  0  0
   46.4190   31.8480   36.2170 H   0  0  0  0  0  0  0  0  0  0  0  0
   44.3640   34.5700   41.9500 C   0  0  0  0  0  0  0  0  0  0  0  0
   45.1470   34.3890   40.8040 C   0  0  0  0  0  0  0  0  0  0  0  0
   45.8530   33.2230   40.5620 C   0  0  0  0  0  0  0  0  0  0  0  0
   45.7100   32.3090   41.5230 N   0  0  0  0  0  0  0  0  0  0  0  0
   44.9710   32.4540   42.6230 C   0  0  0  0  0  0  0  0  0  0  0  0
   44.3010   33.5800   42.8350 N   0  0  0  0  0  0  0  0  0  0  0  0
   43.8370   35.4850   42.0940 H   0  0  0  0  0  0  0  0  0  0  0  0
   45.1940   35.2080   40.0790 H   0  0  0  0  0  0  0  0  0  0  0  0
   45.0230   31.5630   43.2450 H   0  0  0  0  0  0  0  0  0  0  0  0
   49.6910   31.5740   41.1440 S   0  0  0  0  0  0  0  0  0  0  0  0
   50.5850   31.0430   42.2840 O   0  0  0  0  0  0  0  0  0  0  0  0
   48.3290   30.9120   41.4320 O   0  0  0  0  0  0  0  0  0  0  0  0
   50.3920   30.8220   39.7870 C   0  0  0  0  0  0  0  0  0  0  0  0
   49.9540   29.7790   38.9800 C   0  0  0  0  0  0  0  0  0  0  0  0
   48.9950   29.3690   39.2480 H   0  0  0  0  0  0  0  0  0  0  0  0
   50.5890   29.1920   37.9280 C   0  0  0  0  0  0  0  0  0  0  0  0
   51.8270   29.6840   37.6170 C   0  0  0  0  0  0  0  0  0  0  0  0
   52.4960   29.1360   36.5840 N   0  0  0  0  0  0  0  0  0  0  0  0
   53.7330   29.5900   36.2320 C   0  0  0  0  0  0  0  0  0  0  0  0
   54.2390   29.1220   35.3960 H   0  0  0  0  0  0  0  0  0  0  0  0
   54.3200   30.6340   36.9460 C   0  0  0  0  0  0  0  0  0  0  0  0
   53.6770   31.2440   38.0270 C   0  0  0  0  0  0  0  0  0  0  0  0
   52.4400   30.7020   38.2840 C   0  0  0  0  0  0  0  0  0  0  0  0
   51.6850   31.2050   39.3260 C   0  0  0  0  0  0  0  0  0  0  0  0
  1  6  1  0  0  0  0
  2  3  1  0  0  0  0
  2  1  2  0  0  0  0
  3  4  2  0  0  0  0
  4  8  1  0  0  0  0
  4  5  1  0  0  0  0
  5  9  1  0  0  0  0
  6  5  2  0  0  0  0
  6 10  1  0  0  0  0
  7  3  1  0  0  0  0
 11 12  1  0  0  0  0
 12 13  1  0  0  0  0
 13 23  1  0  0  0  0
 14 13  2  0  0  0  0
 14  2  1  0  0  0  0
 15 14  1  0  0  0  0
 16 17  1  0  0  0  0
 16 15  2  0  0  0  0
 17 12  2  0  0  0  0
 18 15  1  0  0  0  0
 19 16  1  0  0  0  0
 20 17  1  0  0  0  0
 21 27  1  0  0  0  0
 21 26  1  0  0  0  0
 22 21  2  0  0  0  0
 23 22  1  0  0  0  0
 23 24  2  0  0  0  0
 24 25  1  0  0  0  0
 25 26  2  0  0  0  0
 25 29  1  0  0  0  0
 28 22  1  0  0  0  0
 30  1  1  0  0  0  0
 30 32  2  0  0  0  0
 30 31  2  0  0  0  0
 33 30  1  0  0  0  0
 34 35  1  0  0  0  0
 34 33  2  0  0  0  0
 36 34  1  0  0  0  0
 37 36  2  0  0  0  0
 37 43  1  0  0  0  0
 38 37  1  0  0  0  0
 39 38  2  0  0  0  0
 39 41  1  0  0  0  0
 40 39  1  0  0  0  0
 41 42  2  0  0  0  0
 42 43  1  0  0  0  0
 43 44  2  0  0  0  0
 44 33  1  0  0  0  0
M  END
>  <minimizedAffinity>
-5.67870951

>  <minimizedRMSD>
6.69052219

$$$$
