
 OpenBabel03252506463D

 45 49  0  0  1  0  0  0  0  0999 V2000
   49.5470   33.4480   41.5060 N   0  0  1  0  0  0  0  0  0  0  0  0
   50.7630   33.2000   42.2390 C   0  0  0  0  0  0  0  0  0  0  0  0
   51.3940   31.8770   41.9050 C   0  0  0  0  0  0  0  0  0  0  0  0
   50.4930   30.7760   42.4180 C   0  0  0  0  0  0  0  0  0  0  0  0
   49.0380   31.1500   42.2450 C   0  0  0  0  0  0  0  0  0  0  0  0
   48.9220   32.1980   41.1470 C   0  0  2  0  0  0  0  0  0  0  0  0
   50.5660   33.2110   43.3400 H   0  0  0  0  0  0  0  0  0  0  0  0
   51.4970   33.9830   42.0210 H   0  0  0  0  0  0  0  0  0  0  0  0
   52.3230   31.8270   42.5310 H   0  0  0  0  0  0  0  0  0  0  0  0
   51.6630   31.7880   40.8450 H   0  0  0  0  0  0  0  0  0  0  0  0
   50.6600   29.9040   41.7500 H   0  0  0  0  0  0  0  0  0  0  0  0
   50.7360   30.4600   43.4480 H   0  0  0  0  0  0  0  0  0  0  0  0
   48.6970   31.5680   43.2040 H   0  0  0  0  0  0  0  0  0  0  0  0
   48.4130   30.2990   41.9340 H   0  0  0  0  0  0  0  0  0  0  0  0
   47.8330   32.3900   41.0550 H   0  0  0  0  0  0  0  0  0  0  0  0
   47.3020   34.6290   41.9990 C   0  0  1  0  0  0  0  0  0  0  0  0
   48.3330   35.5990   41.6550 C   0  0  0  0  0  0  0  0  0  0  0  0
   48.7490   34.3170   42.3040 C   0  0  2  0  0  0  0  0  0  0  0  0
   46.8840   33.8710   41.2740 H   0  0  0  0  0  0  0  0  0  0  0  0
   48.5290   35.7550   40.5590 H   0  0  0  0  0  0  0  0  0  0  0  0
   48.3260   36.5580   42.1990 H   0  0  0  0  0  0  0  0  0  0  0  0
   49.0280   34.4120   43.3770 H   0  0  0  0  0  0  0  0  0  0  0  0
   45.5520   36.0310   43.1310 C   0  0  0  0  0  0  0  0  0  0  0  0
   46.3660   34.8740   43.1110 C   0  0  0  0  0  0  0  0  0  0  0  0
   46.2500   33.9750   44.1660 C   0  0  0  0  0  0  0  0  0  0  0  0
   45.3640   34.2550   45.1580 N   0  0  0  0  0  0  0  0  0  0  0  0
   44.6000   35.3530   45.1620 C   0  0  0  0  0  0  0  0  0  0  0  0
   44.6870   36.2600   44.1400 N   0  0  0  0  0  0  0  0  0  0  0  0
   45.6710   36.7040   42.2940 H   0  0  0  0  0  0  0  0  0  0  0  0
   46.8490   33.0680   44.2100 H   0  0  0  0  0  0  0  0  0  0  0  0
   43.8950   35.5720   45.9550 H   0  0  0  0  0  0  0  0  0  0  0  0
   49.3650   31.6360   39.9100 N   0  0  0  0  0  0  0  0  0  0  0  0
   50.2230   31.0130   39.9290 H   0  0  0  0  0  0  0  0  0  0  0  0
   48.7900   31.8110   38.6420 C   0  0  0  0  0  0  0  0  0  0  0  0
   49.4490   32.2450   37.5230 C   0  0  0  0  0  0  0  0  0  0  0  0
   50.4900   32.4760   37.5760 H   0  0  0  0  0  0  0  0  0  0  0  0
   48.9120   32.4270   36.2740 C   0  0  0  0  0  3  0  0  0  0  0  0
   47.5570   32.1450   36.1090 C   0  0  0  0  0  0  0  0  0  0  0  0
   46.9340   32.2900   34.9280 N   0  0  0  0  0  0  0  0  0  0  0  0
   45.6270   32.0200   34.7630 C   0  0  0  0  0  0  0  0  0  0  0  0
   45.2660   32.1820   33.7650 H   0  0  0  0  0  0  0  0  0  0  0  0
   44.8450   31.5690   35.8250 C   0  0  0  0  0  3  0  0  0  0  0  0
   45.4940   31.4250   37.0320 C   0  0  0  0  0  3  0  0  0  0  0  0
   46.8320   31.7050   37.1870 C   0  0  0  0  0  0  0  0  0  0  0  0
   47.4480   31.5510   38.3980 C   0  0  0  0  0  3  0  0  0  0  0  0
  1  2  1  1  0  0  0
  1 18  1  0  0  0  0
  2  7  1  0  0  0  0
  3  2  1  0  0  0  0
  3  4  1  0  0  0  0
  3  9  1  0  0  0  0
  4 12  1  0  0  0  0
  5  4  1  0  0  0  0
  5 13  1  0  0  0  0
  6 15  1  6  0  0  0
  6  1  1  0  0  0  0
  6  5  1  0  0  0  0
  8  2  1  0  0  0  0
 10  3  1  0  0  0  0
 11  4  1  0  0  0  0
 14  5  1  0  0  0  0
 16 19  1  6  0  0  0
 16 18  1  0  0  0  0
 16 24  1  0  0  0  0
 17 16  1  0  0  0  0
 17 21  1  0  0  0  0
 17 18  1  0  0  0  0
 18 22  1  1  0  0  0
 20 17  1  0  0  0  0
 23 28  1  0  0  0  0
 24 23  2  0  0  0  0
 24 25  1  0  0  0  0
 25 30  1  0  0  0  0
 25 26  2  0  0  0  0
 26 27  1  0  0  0  0
 27 31  1  0  0  0  0
 28 27  2  0  0  0  0
 29 23  1  0  0  0  0
 32 33  1  0  0  0  0
 32  6  1  0  0  0  0
 34 32  1  0  0  0  0
 35 36  1  0  0  0  0
 35 34  2  0  0  0  0
 37 35  1  0  0  0  0
 38 37  2  0  0  0  0
 38 44  1  0  0  0  0
 39 38  1  0  0  0  0
 40 39  2  0  0  0  0
 40 42  1  0  0  0  0
 41 40  1  0  0  0  0
 42 43  2  0  0  0  0
 43 44  1  0  0  0  0
 44 45  2  0  0  0  0
 45 34  1  0  0  0  0
M  END
>  <minimizedAffinity>
-5.59120035

>  <minimizedRMSD>
1.24707949

$$$$
