
 OpenBabel03252506463D

 45 49  0  0  1  0  0  0  0  0999 V2000
   49.3050   33.1800   41.5730 N   0  0  1  0  0  0  0  0  0  0  0  0
   50.6650   33.2030   42.0510 C   0  0  0  0  0  0  0  0  0  0  0  0
   51.3890   31.9040   41.8350 C   0  0  0  0  0  0  0  0  0  0  0  0
   50.7630   30.8560   42.7280 C   0  0  0  0  0  0  0  0  0  0  0  0
   49.2660   31.0500   42.8170 C   0  0  0  0  0  0  0  0  0  0  0  0
   48.7950   31.8300   41.5980 C   0  0  2  0  0  0  0  0  0  0  0  0
   50.6910   33.4250   43.1470 H   0  0  0  0  0  0  0  0  0  0  0  0
   51.2280   33.9870   41.5350 H   0  0  0  0  0  0  0  0  0  0  0  0
   52.4210   32.0710   42.2370 H   0  0  0  0  0  0  0  0  0  0  0  0
   51.4500   31.6200   40.7760 H   0  0  0  0  0  0  0  0  0  0  0  0
   50.9100   29.8820   42.2120 H   0  0  0  0  0  0  0  0  0  0  0  0
   51.2470   30.7850   43.7180 H   0  0  0  0  0  0  0  0  0  0  0  0
   49.0700   31.6250   43.7340 H   0  0  0  0  0  0  0  0  0  0  0  0
   48.7120   30.0990   42.8140 H   0  0  0  0  0  0  0  0  0  0  0  0
   47.6940   31.8990   41.7160 H   0  0  0  0  0  0  0  0  0  0  0  0
   47.1360   34.4960   42.0690 C   0  0  1  0  0  0  0  0  0  0  0  0
   48.2080   35.3960   41.6660 C   0  0  0  0  0  0  0  0  0  0  0  0
   48.5720   34.1200   42.3540 C   0  0  2  0  0  0  0  0  0  0  0  0
   46.6620   33.7340   41.3840 H   0  0  0  0  0  0  0  0  0  0  0  0
   48.3860   35.5010   40.5600 H   0  0  0  0  0  0  0  0  0  0  0  0
   48.2630   36.3740   42.1720 H   0  0  0  0  0  0  0  0  0  0  0  0
   48.8820   34.2400   43.4160 H   0  0  0  0  0  0  0  0  0  0  0  0
   45.4880   36.0280   43.1850 C   0  0  0  0  0  0  0  0  0  0  0  0
   46.2420   34.8300   43.1910 C   0  0  0  0  0  0  0  0  0  0  0  0
   46.1050   33.9800   44.2830 C   0  0  0  0  0  0  0  0  0  0  0  0
   45.2590   34.3430   45.2830 N   0  0  0  0  0  0  0  0  0  0  0  0
   44.5520   35.4790   45.2610 C   0  0  0  0  0  0  0  0  0  0  0  0
   44.6610   36.3400   44.2030 N   0  0  0  0  0  0  0  0  0  0  0  0
   45.6220   36.6620   42.3190 H   0  0  0  0  0  0  0  0  0  0  0  0
   46.6570   33.0450   44.3490 H   0  0  0  0  0  0  0  0  0  0  0  0
   43.8790   35.7640   46.0600 H   0  0  0  0  0  0  0  0  0  0  0  0
   49.0540   31.0670   40.4190 N   0  0  0  0  0  0  0  0  0  0  0  0
   49.5420   30.1320   40.5320 H   0  0  0  0  0  0  0  0  0  0  0  0
   48.7330   31.4070   39.0960 C   0  0  0  0  0  0  0  0  0  0  0  0
   49.5950   31.9430   38.1800 C   0  0  0  0  0  0  0  0  0  0  0  0
   50.6110   32.1280   38.4530 H   0  0  0  0  0  0  0  0  0  0  0  0
   49.3080   32.2870   36.8830 C   0  0  0  0  0  3  0  0  0  0  0  0
   48.0040   32.0750   36.4370 C   0  0  0  0  0  0  0  0  0  0  0  0
   47.6170   32.3780   35.1870 N   0  0  0  0  0  0  0  0  0  0  0  0
   46.3620   32.1760   34.7510 C   0  0  0  0  0  0  0  0  0  0  0  0
   46.1980   32.4650   33.7290 H   0  0  0  0  0  0  0  0  0  0  0  0
   45.3860   31.6350   35.5870 C   0  0  0  0  0  3  0  0  0  0  0  0
   45.7950   31.3290   36.8680 C   0  0  0  0  0  3  0  0  0  0  0  0
   47.0820   31.5420   37.3000 C   0  0  0  0  0  0  0  0  0  0  0  0
   47.4560   31.2260   38.5780 C   0  0  0  0  0  3  0  0  0  0  0  0
  1  6  1  0  0  0  0
  1  2  1  1  0  0  0
  1 18  1  0  0  0  0
  2  7  1  0  0  0  0
  3  2  1  0  0  0  0
  3  9  1  0  0  0  0
  3  4  1  0  0  0  0
  4  5  1  0  0  0  0
  4 12  1  0  0  0  0
  5 13  1  0  0  0  0
  6 15  1  1  0  0  0
  6  5  1  0  0  0  0
  8  2  1  0  0  0  0
 10  3  1  0  0  0  0
 11  4  1  0  0  0  0
 14  5  1  0  0  0  0
 16 19  1  6  0  0  0
 16 18  1  0  0  0  0
 16 24  1  0  0  0  0
 17 16  1  0  0  0  0
 17 21  1  0  0  0  0
 17 18  1  0  0  0  0
 18 22  1  1  0  0  0
 20 17  1  0  0  0  0
 23 24  2  0  0  0  0
 23 28  1  0  0  0  0
 24 25  1  0  0  0  0
 25 30  1  0  0  0  0
 25 26  2  0  0  0  0
 27 26  1  0  0  0  0
 27 31  1  0  0  0  0
 28 27  2  0  0  0  0
 29 23  1  0  0  0  0
 32 33  1  0  0  0  0
 32  6  1  0  0  0  0
 34 32  1  0  0  0  0
 35 36  1  0  0  0  0
 35 34  2  0  0  0  0
 37 35  1  0  0  0  0
 38 37  2  0  0  0  0
 38 44  1  0  0  0  0
 39 38  1  0  0  0  0
 40 39  2  0  0  0  0
 40 42  1  0  0  0  0
 41 40  1  0  0  0  0
 42 43  2  0  0  0  0
 43 44  1  0  0  0  0
 44 45  2  0  0  0  0
 45 34  1  0  0  0  0
M  END
>  <minimizedAffinity>
-5.45252323

>  <minimizedRMSD>
0.426083833

$$$$
