
 OpenBabel03242521053D

 37 41  0  0  1  0  0  0  0  0999 V2000
   46.6390   33.7990   42.5280 C   0  0  2  0  0  0  0  0  0  0  0  0
   47.4970   34.8870   41.9600 C   0  0  0  0  0  0  0  0  0  0  0  0
   46.1810   34.4790   41.3180 C   0  0  1  0  0  0  0  0  0  0  0  0
   47.1080   32.7760   42.4250 H   0  0  0  0  0  0  0  0  0  0  0  0
   48.3940   34.6490   41.3590 H   0  0  0  0  0  0  0  0  0  0  0  0
   47.5390   35.8670   42.4700 H   0  0  0  0  0  0  0  0  0  0  0  0
   45.3710   35.2300   41.4090 H   0  0  0  0  0  0  0  0  0  0  0  0
   46.2440   33.8450   39.9690 C   0  0  0  0  0  0  0  0  0  0  0  0
   45.1860   33.1180   39.4600 C   0  0  0  0  0  0  0  0  0  0  0  0
   44.2890   33.0170   40.0760 H   0  0  0  0  0  0  0  0  0  0  0  0
   45.3620   32.5730   38.1890 C   0  0  0  0  0  0  0  0  0  0  0  0
   46.5170   32.7490   37.4890 C   0  0  0  0  0  0  0  0  0  0  0  0
   46.6150   32.1930   36.2670 N   0  0  0  0  0  0  0  0  0  0  0  0
   47.7590   32.3540   35.5480 C   0  0  0  0  0  0  0  0  0  0  0  0
   47.8570   31.9080   34.5490 H   0  0  0  0  0  0  0  0  0  0  0  0
   48.8480   33.0740   36.0140 C   0  0  0  0  0  0  0  0  0  0  0  0
   48.7180   33.6270   37.2590 C   0  0  0  0  0  0  0  0  0  0  0  0
   47.5650   33.4730   38.0030 C   0  0  0  0  0  0  0  0  0  0  0  0
   47.4350   34.0320   39.2590 C   0  0  0  0  0  0  0  0  0  0  0  0
   45.7040   33.5220   46.0920 C   0  0  0  0  0  0  0  0  0  0  0  0
   44.8690   34.6180   46.1490 C   0  0  0  0  0  0  0  0  0  0  0  0
   44.5840   35.4550   45.0950 C   0  0  0  0  0  0  0  0  0  0  0  0
   45.1710   35.1930   43.8720 C   0  0  0  0  0  0  0  0  0  0  0  0
   45.9950   34.1040   43.8350 C   0  0  0  0  0  0  0  0  0  0  0  0
   46.2410   33.3210   44.8840 N   0  0  0  0  0  0  0  0  0  0  0  0
   44.3810   34.8660   47.0970 H   0  0  0  0  0  0  0  0  0  0  0  0
   43.9080   36.3090   45.2190 H   0  0  0  0  0  0  0  0  0  0  0  0
   44.9240   35.8700   43.0730 H   0  0  0  0  0  0  0  0  0  0  0  0
   45.4480   31.3030   49.1290 C   0  0  0  0  0  0  0  0  0  0  0  0
   45.0190   32.1110   48.0590 C   0  0  0  0  0  0  0  0  0  0  0  0
   45.9730   32.6670   47.2360 C   0  0  0  0  0  0  0  0  0  0  0  0
   47.2800   32.4080   47.4990 N   0  0  0  0  0  0  0  0  0  0  0  0
   47.6720   31.6230   48.5410 C   0  0  0  0  0  0  0  0  0  0  0  0
   46.7380   31.0800   49.3420 N   0  0  0  0  0  0  0  0  0  0  0  0
   44.6130   30.9240   49.7020 H   0  0  0  0  0  0  0  0  0  0  0  0
   44.0030   32.3530   47.8000 H   0  0  0  0  0  0  0  0  0  0  0  0
   48.7340   31.4470   48.7050 H   0  0  0  0  0  0  0  0  0  0  0  0
  1  4  1  6  0  0  0
  1 24  1  0  0  0  0
  2  6  1  0  0  0  0
  2  1  1  0  0  0  0
  3  7  1  1  0  0  0
  3  2  1  0  0  0  0
  3  1  1  0  0  0  0
  5  2  1  0  0  0  0
  8  3  1  0  0  0  0
  9  8  1  0  0  0  0
  9 10  1  0  0  0  0
 11  9  2  0  0  0  0
 12 18  1  0  0  0  0
 12 11  1  0  0  0  0
 13 12  2  0  0  0  0
 14 16  2  0  0  0  0
 14 13  1  0  0  0  0
 15 14  1  0  0  0  0
 16 17  1  0  0  0  0
 17 18  2  0  0  0  0
 18 19  1  0  0  0  0
 19  8  2  0  0  0  0
 20 21  1  0  0  0  0
 20 31  1  0  0  0  0
 21 26  1  0  0  0  0
 22 27  1  0  0  0  0
 22 21  2  0  0  0  0
 23 22  1  0  0  0  0
 24 23  2  0  0  0  0
 24 25  1  0  0  0  0
 25 20  2  0  0  0  0
 28 23  1  0  0  0  0
 29 34  1  0  0  0  0
 29 35  1  0  0  0  0
 30 29  2  0  0  0  0
 31 32  2  0  0  0  0
 31 30  1  0  0  0  0
 32 33  1  0  0  0  0
 33 37  1  0  0  0  0
 33 34  2  0  0  0  0
 36 30  1  0  0  0  0
M  END
>  <minimizedAffinity>
-6.66290855

>  <minimizedRMSD>
4.99725103

$$$$
