
 OpenBabel03252507273D

 30 33  0  0  0  0  0  0  0  0999 V2000
   46.8230   32.5150   45.8860 C   0  0  0  0  0  0  0  0  0  0  0  0
   45.7670   33.2110   46.4730 C   0  0  0  0  0  0  0  0  0  0  0  0
   45.1550   34.2380   45.7180 C   0  0  0  0  0  0  0  0  0  0  0  0
   45.6270   34.5020   44.4490 N   0  0  0  0  0  0  0  0  0  0  0  0
   46.6590   33.7860   43.9410 C   0  0  0  0  0  0  0  0  0  0  0  0
   47.2350   32.8220   44.6450 N   0  0  0  0  0  0  0  0  0  0  0  0
   45.3950   33.0180   47.4460 H   0  0  0  0  0  0  0  0  0  0  0  0
   44.3430   34.8030   46.1190 H   0  0  0  0  0  0  0  0  0  0  0  0
   47.4900   31.4460   46.6210 C   0  0  0  0  0  0  0  0  0  0  0  0
   47.5660   30.1410   46.2290 C   0  0  0  0  0  0  0  0  0  0  0  0
   47.1020   29.8490   45.3000 H   0  0  0  0  0  0  0  0  0  0  0  0
   48.2210   29.1810   46.9860 C   0  0  0  0  0  3  0  0  0  0  0  0
   48.8280   29.5090   48.1790 C   0  0  0  0  0  0  0  0  0  0  0  0
   49.4750   28.6090   48.9460 N   0  0  0  0  0  0  0  0  0  0  0  0
   50.0620   28.9730   50.1180 C   0  0  0  0  0  0  0  0  0  0  0  0
   50.5870   28.2730   50.7540 H   0  0  0  0  0  0  0  0  0  0  0  0
   50.0150   30.2930   50.5690 C   0  0  0  0  0  3  0  0  0  0  0  0
   49.3610   31.2380   49.8060 C   0  0  0  0  0  3  0  0  0  0  0  0
   48.7760   30.8090   48.6110 C   0  0  0  0  0  0  0  0  0  0  0  0
   48.1140   31.7200   47.8210 C   0  0  0  0  0  3  0  0  0  0  0  0
   47.1260   34.0870   42.6000 C   0  0  0  0  0  0  0  0  0  0  0  0
   48.1600   34.9580   42.3910 C   0  0  0  0  0  0  0  0  0  0  0  0
   48.6750   35.3150   41.1630 C   0  0  0  0  0  0  0  0  0  0  0  0
   48.0430   34.7010   40.0890 C   0  0  0  0  0  0  0  0  0  0  0  0
   46.9930   33.8130   40.2610 C   0  0  0  0  0  0  0  0  0  0  0  0
   46.5380   33.5090   41.5220 N   0  0  0  0  0  0  0  0  0  0  0  0
   48.6090   35.4020   43.2760 H   0  0  0  0  0  0  0  0  0  0  0  0
   49.4910   36.0080   41.0840 H   0  0  0  0  0  0  0  0  0  0  0  0
   48.3920   34.9310   39.0900 H   0  0  0  0  0  0  0  0  0  0  0  0
   46.5280   33.3550   39.3960 H   0  0  0  0  0  0  0  0  0  0  0  0
  1  2  1  0  0  0  0
  1  9  1  0  0  0  0
  2  7  1  0  0  0  0
  3  8  1  0  0  0  0
  3  2  2  0  0  0  0
  4  3  1  0  0  0  0
  5  4  2  0  0  0  0
  5  6  1  0  0  0  0
  6  1  2  0  0  0  0
  9 20  1  0  0  0  0
 10  9  2  0  0  0  0
 10 12  1  0  0  0  0
 11 10  1  0  0  0  0
 12 13  2  0  0  0  0
 13 19  1  0  0  0  0
 13 14  1  0  0  0  0
 14 15  2  0  0  0  0
 15 17  1  0  0  0  0
 15 16  1  0  0  0  0
 18 17  2  0  0  0  0
 19 18  1  0  0  0  0
 20 19  2  0  0  0  0
 21  5  1  0  0  0  0
 22 21  1  0  0  0  0
 22 27  1  0  0  0  0
 23 22  2  0  0  0  0
 24 25  2  0  0  0  0
 24 23  1  0  0  0  0
 25 26  1  0  0  0  0
 26 21  2  0  0  0  0
 28 23  1  0  0  0  0
 29 24  1  0  0  0  0
 30 25  1  0  0  0  0
M  END
>  <minimizedAffinity>
-5.84927082

>  <minimizedRMSD>
1.94742584

$$$$
