
 OpenBabel03252509163D

 28 31  0  0  0  0  0  0  0  0999 V2000
   45.9570   33.0860   46.2100 C   0  0  0  0  0  0  0  0  0  0  0  0
   45.5090   32.9440   47.5480 C   0  0  0  0  0  0  0  0  0  0  0  0
   46.1650   32.0710   48.3480 C   0  0  0  0  0  0  0  0  0  0  0  0
   47.2610   31.3370   47.8310 C   0  0  0  0  0  0  0  0  0  0  0  0
   47.3620   31.9280   46.1060 S   0  0  0  0  0  0  0  0  0  0  0  0
   44.6710   33.5180   47.9150 H   0  0  0  0  0  0  0  0  0  0  0  0
   45.9540   31.8540   49.3570 H   0  0  0  0  0  0  0  0  0  0  0  0
   48.1410   30.3760   48.3670 C   0  0  0  0  0  0  0  0  0  0  0  0
   48.2810   29.1760   47.7030 C   0  0  0  0  0  0  0  0  0  0  0  0
   47.7550   28.9260   46.7910 H   0  0  0  0  0  0  0  0  0  0  0  0
   49.1640   28.2490   48.2680 C   0  0  0  0  0  3  0  0  0  0  0  0
   49.8540   28.5510   49.4430 C   0  0  0  0  0  0  0  0  0  0  0  0
   50.6970   27.6020   49.9380 N   0  0  0  0  0  0  0  0  0  0  0  0
   51.3970   27.8190   51.0660 C   0  0  0  0  0  0  0  0  0  0  0  0
   52.0460   27.0560   51.4240 H   0  0  0  0  0  0  0  0  0  0  0  0
   51.2330   29.0420   51.7140 C   0  0  0  0  0  3  0  0  0  0  0  0
   50.3880   30.0150   51.2340 C   0  0  0  0  0  3  0  0  0  0  0  0
   49.6800   29.7730   50.0780 C   0  0  0  0  0  0  0  0  0  0  0  0
   48.8020   30.7130   49.5270 C   0  0  0  0  0  3  0  0  0  0  0  0
   44.2940   35.9080   44.4590 C   0  0  0  0  0  0  0  0  0  0  0  0
   44.2910   35.4030   43.1340 C   0  0  0  0  0  0  0  0  0  0  0  0
   44.8540   34.1310   42.9090 C   0  0  0  0  0  0  0  0  0  0  0  0
   45.3750   33.4560   43.9890 N   0  0  0  0  0  0  0  0  0  0  0  0
   45.3500   33.9880   45.2310 C   0  0  0  0  0  0  0  0  0  0  0  0
   44.8120   35.2100   45.4710 N   0  0  0  0  0  0  0  0  0  0  0  0
   43.8620   36.8820   44.6330 H   0  0  0  0  0  0  0  0  0  0  0  0
   43.8860   35.9320   42.2990 H   0  0  0  0  0  0  0  0  0  0  0  0
   44.8930   33.6720   41.9310 H   0  0  0  0  0  0  0  0  0  0  0  0
  1  2  2  0  0  0  0
  2  6  1  0  0  0  0
  2  3  1  0  0  0  0
  3  7  1  0  0  0  0
  4  3  2  0  0  0  0
  4  8  1  0  0  0  0
  5  1  1  0  0  0  0
  5  4  1  0  0  0  0
  8 19  1  0  0  0  0
  9 11  1  0  0  0  0
  9  8  2  0  0  0  0
 10  9  1  0  0  0  0
 11 12  2  0  0  0  0
 12 13  1  0  0  0  0
 12 18  1  0  0  0  0
 13 14  2  0  0  0  0
 14 15  1  0  0  0  0
 14 16  1  0  0  0  0
 17 16  2  0  0  0  0
 18 17  1  0  0  0  0
 19 18  2  0  0  0  0
 20 26  1  0  0  0  0
 20 25  1  0  0  0  0
 21 20  2  0  0  0  0
 22 21  1  0  0  0  0
 22 23  2  0  0  0  0
 23 24  1  0  0  0  0
 24 25  2  0  0  0  0
 24  1  1  0  0  0  0
 27 21  1  0  0  0  0
 28 22  1  0  0  0  0
M  END
>  <minimizedAffinity>
-5.45212889

>  <minimizedRMSD>
1.49154878

$$$$
