
 OpenBabel03252509273D

 33 36  0  0  1  0  0  0  0  0999 V2000
   37.5520   32.1260   39.8820 C   0  0  1  0  0  0  0  0  0  0  0  0
   36.9360   31.3200   38.7020 C   0  0  0  0  0  0  0  0  0  0  0  0
   37.3900   30.7480   40.0850 C   0  0  2  0  0  0  0  0  0  0  0  0
   36.8670   32.8940   40.2970 H   0  0  0  0  0  0  0  0  0  0  0  0
   37.5800   31.0420   37.8640 H   0  0  0  0  0  0  0  0  0  0  0  0
   35.8680   31.4750   38.5740 H   0  0  0  0  0  0  0  0  0  0  0  0
   38.2900   30.0740   40.0330 H   0  0  0  0  0  0  0  0  0  0  0  0
   40.7830   34.0310   39.8530 C   0  0  0  0  0  0  0  0  0  0  0  0
   39.4720   33.6210   40.2860 C   0  0  0  0  0  0  0  0  0  0  0  0
   38.9020   32.6840   39.4910 C   0  0  0  0  0  0  0  0  0  0  0  0
   39.5170   32.1720   38.3710 N   0  0  0  0  0  0  0  0  0  0  0  0
   40.7520   32.5920   38.0070 C   0  0  0  0  0  0  0  0  0  0  0  0
   41.3840   33.5260   38.7540 N   0  0  0  0  0  0  0  0  0  0  0  0
   41.2890   34.7730   40.4440 H   0  0  0  0  0  0  0  0  0  0  0  0
   41.0750   32.0890   37.1140 H   0  0  0  0  0  0  0  0  0  0  0  0
   38.8400   34.1600   41.4140 N   0  0  0  0  0  0  0  0  0  0  0  0
   38.2860   34.8920   40.8990 H   0  0  0  0  0  0  0  0  0  0  0  0
   38.9670   33.8440   42.4050 H   0  0  0  0  0  0  0  0  0  0  0  0
   36.3350   30.1840   41.0020 C   0  0  0  0  0  0  0  0  0  0  0  0
   35.3140   30.2880   40.5600 H   0  0  0  0  0  0  0  0  0  0  0  0
   36.3660   30.7080   41.9820 H   0  0  0  0  0  0  0  0  0  0  0  0
   36.6120   28.7360   41.3080 C   0  0  0  0  0  0  0  0  0  0  0  0
   36.8950   28.3240   42.6080 C   0  0  0  0  0  0  0  0  0  0  0  0
   36.9230   29.0360   43.4260 H   0  0  0  0  0  0  0  0  0  0  0  0
   37.1560   27.0120   42.9440 C   0  0  0  0  0  3  0  0  0  0  0  0
   37.1360   26.0500   41.9370 C   0  0  0  0  0  0  0  0  0  0  0  0
   37.3860   24.7590   42.2310 N   0  0  0  0  0  0  0  0  0  0  0  0
   37.3820   23.7830   41.3050 C   0  0  0  0  0  0  0  0  0  0  0  0
   37.5820   22.7410   41.5300 H   0  0  0  0  0  0  0  0  0  0  0  0
   37.1040   24.1510   39.9980 C   0  0  0  0  0  3  0  0  0  0  0  0
   36.8400   25.4610   39.6460 C   0  0  0  0  0  3  0  0  0  0  0  0
   36.8570   26.4280   40.6360 C   0  0  0  0  0  0  0  0  0  0  0  0
   36.5990   27.7540   40.3240 C   0  0  0  0  0  3  0  0  0  0  0  0
  1  3  1  0  0  0  0
  1  4  1  1  0  0  0
  2  1  1  0  0  0  0
  2  3  1  0  0  0  0
  3  7  1  6  0  0  0
  3 19  1  0  0  0  0
  5  2  1  0  0  0  0
  6  2  1  0  0  0  0
  8  9  1  0  0  0  0
  8 14  1  0  0  0  0
  9 16  1  0  0  0  0
 10  1  1  0  0  0  0
 10  9  2  0  0  0  0
 11 10  1  0  0  0  0
 12 11  2  0  0  0  0
 12 13  1  0  0  0  0
 13  8  2  0  0  0  0
 15 12  1  0  0  0  0
 16 18  1  0  0  0  0
 17 16  1  0  0  0  0
 19 22  1  0  0  0  0
 19 21  1  0  0  0  0
 20 19  1  0  0  0  0
 22 23  1  0  0  0  0
 23 25  2  0  0  0  0
 23 24  1  0  0  0  0
 26 27  1  0  0  0  0
 26 25  1  0  0  0  0
 28 29  1  0  0  0  0
 28 27  2  0  0  0  0
 30 28  1  0  0  0  0
 31 30  2  0  0  0  0
 31 32  1  0  0  0  0
 32 26  2  0  0  0  0
 33 32  1  0  0  0  0
 33 22  2  0  0  0  0
M  END
>  <minimizedAffinity>
-6.12104416

$$$$

 OpenBabel03252509273D

 33 36  0  0  1  0  0  0  0  0999 V2000
   35.7270   29.2070   39.0420 C   0  0  1  0  0  0  0  0  0  0  0  0
   35.3710   28.8760   37.5630 C   0  0  0  0  0  0  0  0  0  0  0  0
   36.2950   28.0410   38.5080 C   0  0  2  0  0  0  0  0  0  0  0  0
   34.8470   29.2090   39.7170 H   0  0  0  0  0  0  0  0  0  0  0  0
   35.8990   29.4050   36.7650 H   0  0  0  0  0  0  0  0  0  0  0  0
   34.3590   28.5020   37.4280 H   0  0  0  0  0  0  0  0  0  0  0  0
   37.3810   28.0420   38.2130 H   0  0  0  0  0  0  0  0  0  0  0  0
   37.3650   32.3600   40.2430 C   0  0  0  0  0  0  0  0  0  0  0  0
   36.5070   31.2030   40.2610 C   0  0  0  0  0  0  0  0  0  0  0  0
   36.5360   30.4820   39.1150 C   0  0  0  0  0  0  0  0  0  0  0  0
   37.3110   30.8240   38.0310 N   0  0  0  0  0  0  0  0  0  0  0  0
   38.1010   31.9230   38.0640 C   0  0  0  0  0  0  0  0  0  0  0  0
   38.1250   32.6920   39.1770 N   0  0  0  0  0  0  0  0  0  0  0  0
   37.3860   32.9730   41.1250 H   0  0  0  0  0  0  0  0  0  0  0  0
   38.6320   32.0360   37.1360 H   0  0  0  0  0  0  0  0  0  0  0  0
   35.7030   30.8700   41.3600 N   0  0  0  0  0  0  0  0  0  0  0  0
   34.8270   31.3380   41.0100 H   0  0  0  0  0  0  0  0  0  0  0  0
   36.0010   30.3240   42.2030 H   0  0  0  0  0  0  0  0  0  0  0  0
   35.8390   26.6610   38.9120 C   0  0  0  0  0  0  0  0  0  0  0  0
   35.8060   25.9710   38.0340 H   0  0  0  0  0  0  0  0  0  0  0  0
   34.8290   26.7170   39.3740 H   0  0  0  0  0  0  0  0  0  0  0  0
   36.7390   26.0910   39.9750 C   0  0  0  0  0  0  0  0  0  0  0  0
   36.7980   24.7180   40.1990 C   0  0  0  0  0  0  0  0  0  0  0  0
   36.1950   24.0310   39.6140 H   0  0  0  0  0  0  0  0  0  0  0  0
   37.6040   24.1420   41.1580 C   0  0  0  0  0  3  0  0  0  0  0  0
   38.4010   24.9720   41.9430 C   0  0  0  0  0  0  0  0  0  0  0  0
   39.2010   24.4420   42.8890 N   0  0  0  0  0  0  0  0  0  0  0  0
   39.9940   25.1890   43.6790 C   0  0  0  0  0  0  0  0  0  0  0  0
   40.6420   24.7740   44.4430 H   0  0  0  0  0  0  0  0  0  0  0  0
   39.9670   26.5620   43.4880 C   0  0  0  0  0  3  0  0  0  0  0  0
   39.1640   27.1530   42.5310 C   0  0  0  0  0  3  0  0  0  0  0  0
   38.3660   26.3410   41.7440 C   0  0  0  0  0  0  0  0  0  0  0  0
   37.5460   26.8950   40.7730 C   0  0  0  0  0  3  0  0  0  0  0  0
  1 10  1  0  0  0  0
  1  4  1  1  0  0  0
  2  3  1  0  0  0  0
  2  1  1  0  0  0  0
  3  7  1  6  0  0  0
  3 19  1  0  0  0  0
  3  1  1  0  0  0  0
  5  2  1  0  0  0  0
  6  2  1  0  0  0  0
  8  9  1  0  0  0  0
  8 14  1  0  0  0  0
  9 16  1  0  0  0  0
 10  9  2  0  0  0  0
 11 12  2  0  0  0  0
 11 10  1  0  0  0  0
 12 13  1  0  0  0  0
 13  8  2  0  0  0  0
 15 12  1  0  0  0  0
 16 18  1  0  0  0  0
 17 16  1  0  0  0  0
 19 21  1  0  0  0  0
 19 22  1  0  0  0  0
 20 19  1  0  0  0  0
 22 23  2  0  0  0  0
 22 33  1  0  0  0  0
 23 25  1  0  0  0  0
 24 23  1  0  0  0  0
 25 26  2  0  0  0  0
 26 27  1  0  0  0  0
 27 28  2  0  0  0  0
 28 29  1  0  0  0  0
 30 28  1  0  0  0  0
 31 30  2  0  0  0  0
 32 26  1  0  0  0  0
 32 31  1  0  0  0  0
 33 32  2  0  0  0  0
M  END
>  <minimizedAffinity>
-5.85571623

$$$$

 OpenBabel03252509273D

 33 36  0  0  1  0  0  0  0  0999 V2000
   38.5060   32.6420   40.3260 C   0  0  1  0  0  0  0  0  0  0  0  0
   37.2590   33.3040   39.6720 C   0  0  0  0  0  0  0  0  0  0  0  0
   37.4460   31.7860   39.9950 C   0  0  2  0  0  0  0  0  0  0  0  0
   38.7070   33.0020   41.3560 H   0  0  0  0  0  0  0  0  0  0  0  0
   37.2920   33.5490   38.6070 H   0  0  0  0  0  0  0  0  0  0  0  0
   36.6460   33.8710   40.3680 H   0  0  0  0  0  0  0  0  0  0  0  0
   37.5330   31.1270   39.0850 H   0  0  0  0  0  0  0  0  0  0  0  0
   41.8860   33.4510   38.9160 C   0  0  0  0  0  0  0  0  0  0  0  0
   40.7800   33.4620   39.8390 C   0  0  0  0  0  0  0  0  0  0  0  0
   39.7040   32.7590   39.4120 C   0  0  0  0  0  0  0  0  0  0  0  0
   39.6690   32.0950   38.2060 N   0  0  0  0  0  0  0  0  0  0  0  0
   40.7370   32.1170   37.3730 C   0  0  0  0  0  0  0  0  0  0  0  0
   41.8490   32.7990   37.7340 N   0  0  0  0  0  0  0  0  0  0  0  0
   42.7710   33.9920   39.1990 H   0  0  0  0  0  0  0  0  0  0  0  0
   40.5340   31.5500   36.4830 H   0  0  0  0  0  0  0  0  0  0  0  0
   40.8120   34.1560   41.0560 N   0  0  0  0  0  0  0  0  0  0  0  0
   40.3430   35.0310   40.7040 H   0  0  0  0  0  0  0  0  0  0  0  0
   41.2080   33.8030   41.9600 H   0  0  0  0  0  0  0  0  0  0  0  0
   36.5510   31.1650   41.0370 C   0  0  0  0  0  0  0  0  0  0  0  0
   35.4830   31.1670   40.7090 H   0  0  0  0  0  0  0  0  0  0  0  0
   36.6420   31.7230   41.9950 H   0  0  0  0  0  0  0  0  0  0  0  0
   36.9870   29.7570   41.3450 C   0  0  0  0  0  0  0  0  0  0  0  0
   36.3310   28.6670   40.7790 C   0  0  0  0  0  0  0  0  0  0  0  0
   35.4920   28.8090   40.1060 H   0  0  0  0  0  0  0  0  0  0  0  0
   36.6890   27.3590   41.0260 C   0  0  0  0  0  3  0  0  0  0  0  0
   37.7590   27.1110   41.8820 C   0  0  0  0  0  0  0  0  0  0  0  0
   38.1340   25.8450   42.1450 N   0  0  0  0  0  0  0  0  0  0  0  0
   39.1590   25.5390   42.9620 C   0  0  0  0  0  0  0  0  0  0  0  0
   39.4700   24.5240   43.1810 H   0  0  0  0  0  0  0  0  0  0  0  0
   39.8400   26.5960   43.5470 C   0  0  0  0  0  3  0  0  0  0  0  0
   39.4930   27.9120   43.3090 C   0  0  0  0  0  3  0  0  0  0  0  0
   38.4320   28.1730   42.4600 C   0  0  0  0  0  0  0  0  0  0  0  0
   38.0510   29.4800   42.1960 C   0  0  0  0  0  3  0  0  0  0  0  0
  1  4  1  1  0  0  0
  2  3  1  0  0  0  0
  2  1  1  0  0  0  0
  2  6  1  0  0  0  0
  3  7  1  6  0  0  0
  3  1  1  0  0  0  0
  3 19  1  0  0  0  0
  5  2  1  0  0  0  0
  8 14  1  0  0  0  0
  8  9  1  0  0  0  0
  9 16  1  0  0  0  0
 10  9  2  0  0  0  0
 10  1  1  0  0  0  0
 11 10  1  0  0  0  0
 12 13  1  0  0  0  0
 12 11  2  0  0  0  0
 13  8  2  0  0  0  0
 15 12  1  0  0  0  0
 16 18  1  0  0  0  0
 17 16  1  0  0  0  0
 19 22  1  0  0  0  0
 19 21  1  0  0  0  0
 20 19  1  0  0  0  0
 22 33  1  0  0  0  0
 23 25  1  0  0  0  0
 23 22  2  0  0  0  0
 24 23  1  0  0  0  0
 25 26  2  0  0  0  0
 26 27  1  0  0  0  0
 26 32  1  0  0  0  0
 27 28  2  0  0  0  0
 28 29  1  0  0  0  0
 28 30  1  0  0  0  0
 31 30  2  0  0  0  0
 32 31  1  0  0  0  0
 33 32  2  0  0  0  0
M  END
>  <minimizedAffinity>
-5.82961607

$$$$

 OpenBabel03252509273D

 33 36  0  0  1  0  0  0  0  0999 V2000
   37.3850   27.0620   42.1830 C   0  0  1  0  0  0  0  0  0  0  0  0
   36.4600   27.4570   43.3710 C   0  0  0  0  0  0  0  0  0  0  0  0
   37.2350   28.4340   42.4290 C   0  0  2  0  0  0  0  0  0  0  0  0
   36.8550   26.5200   41.3730 H   0  0  0  0  0  0  0  0  0  0  0  0
   36.8570   27.3970   44.3880 H   0  0  0  0  0  0  0  0  0  0  0  0
   35.4000   27.3300   43.1640 H   0  0  0  0  0  0  0  0  0  0  0  0
   38.0700   28.9980   42.9330 H   0  0  0  0  0  0  0  0  0  0  0  0
   39.9100   24.4020   42.9680 C   0  0  0  0  0  0  0  0  0  0  0  0
   38.6770   24.9870   42.5070 C   0  0  0  0  0  0  0  0  0  0  0  0
   38.6050   26.3270   42.6890 C   0  0  0  0  0  0  0  0  0  0  0  0
   39.6170   27.0640   43.2620 N   0  0  0  0  0  0  0  0  0  0  0  0
   40.7580   26.4650   43.6800 C   0  0  0  0  0  0  0  0  0  0  0  0
   40.9010   25.1280   43.5300 N   0  0  0  0  0  0  0  0  0  0  0  0
   40.0280   23.3400   42.8510 H   0  0  0  0  0  0  0  0  0  0  0  0
   41.4330   27.1880   44.1000 H   0  0  0  0  0  0  0  0  0  0  0  0
   37.6410   24.2300   41.9440 N   0  0  0  0  0  0  0  0  0  0  0  0
   37.0870   24.1100   42.8310 H   0  0  0  0  0  0  0  0  0  0  0  0
   37.5610   23.9410   40.9390 H   0  0  0  0  0  0  0  0  0  0  0  0
   36.4340   29.3360   41.5240 C   0  0  0  0  0  0  0  0  0  0  0  0
   35.4970   29.6830   42.0220 H   0  0  0  0  0  0  0  0  0  0  0  0
   36.1730   28.7960   40.5870 H   0  0  0  0  0  0  0  0  0  0  0  0
   37.2530   30.5230   41.0920 C   0  0  0  0  0  0  0  0  0  0  0  0
   36.6720   31.5660   40.3740 C   0  0  0  0  0  0  0  0  0  0  0  0
   35.6200   31.5440   40.1100 H   0  0  0  0  0  0  0  0  0  0  0  0
   37.3740   32.6760   39.9550 C   0  0  0  0  0  3  0  0  0  0  0  0
   38.7300   32.7620   40.2630 C   0  0  0  0  0  0  0  0  0  0  0  0
   39.4450   33.8340   39.8680 N   0  0  0  0  0  0  0  0  0  0  0  0
   40.7560   33.9770   40.1340 C   0  0  0  0  0  0  0  0  0  0  0  0
   41.3420   34.8340   39.8220 H   0  0  0  0  0  0  0  0  0  0  0  0
   41.3730   32.9610   40.8480 C   0  0  0  0  0  3  0  0  0  0  0  0
   40.6820   31.8430   41.2750 C   0  0  0  0  0  3  0  0  0  0  0  0
   39.3350   31.7430   40.9760 C   0  0  0  0  0  0  0  0  0  0  0  0
   38.6060   30.6360   41.3860 C   0  0  0  0  0  3  0  0  0  0  0  0
  1  4  1  6  0  0  0
  1  3  1  0  0  0  0
  1 10  1  0  0  0  0
  1  2  1  0  0  0  0
  2  5  1  0  0  0  0
  3  7  1  1  0  0  0
  3  2  1  0  0  0  0
  6  2  1  0  0  0  0
  8 13  1  0  0  0  0
  9 10  1  0  0  0  0
  9  8  2  0  0  0  0
 10 11  2  0  0  0  0
 11 12  1  0  0  0  0
 12 15  1  0  0  0  0
 13 12  2  0  0  0  0
 14  8  1  0  0  0  0
 16  9  1  0  0  0  0
 16 17  1  0  0  0  0
 18 16  1  0  0  0  0
 19 20  1  0  0  0  0
 19  3  1  0  0  0  0
 21 19  1  0  0  0  0
 22 33  1  0  0  0  0
 22 19  1  0  0  0  0
 23 22  2  0  0  0  0
 24 23  1  0  0  0  0
 25 26  2  0  0  0  0
 25 23  1  0  0  0  0
 26 32  1  0  0  0  0
 27 28  2  0  0  0  0
 27 26  1  0  0  0  0
 28 30  1  0  0  0  0
 29 28  1  0  0  0  0
 30 31  2  0  0  0  0
 32 31  1  0  0  0  0
 32 33  2  0  0  0  0
M  END
>  <minimizedAffinity>
-5.7693181

$$$$

 OpenBabel03252509273D

 33 36  0  0  1  0  0  0  0  0999 V2000
   32.1380   29.0280   37.2020 C   0  0  1  0  0  0  0  0  0  0  0  0
   32.2810   28.1520   35.9230 C   0  0  0  0  0  0  0  0  0  0  0  0
   33.4040   29.0040   36.5990 C   0  0  2  0  0  0  0  0  0  0  0  0
   31.8770   28.4450   38.1080 H   0  0  0  0  0  0  0  0  0  0  0  0
   31.9210   28.5510   34.9710 H   0  0  0  0  0  0  0  0  0  0  0  0
   32.3030   27.0840   36.1220 H   0  0  0  0  0  0  0  0  0  0  0  0
   33.7420   29.8900   35.9910 H   0  0  0  0  0  0  0  0  0  0  0  0
   29.5610   31.7220   37.6110 C   0  0  0  0  0  0  0  0  0  0  0  0
   30.3660   30.5750   37.9420 C   0  0  0  0  0  0  0  0  0  0  0  0
   31.1950   30.1820   36.9460 C   0  0  0  0  0  0  0  0  0  0  0  0
   31.2630   30.8200   35.7280 N   0  0  0  0  0  0  0  0  0  0  0  0
   30.4840   31.8960   35.4660 C   0  0  0  0  0  0  0  0  0  0  0  0
   29.6310   32.3460   36.4150 N   0  0  0  0  0  0  0  0  0  0  0  0
   28.8820   32.0830   38.3620 H   0  0  0  0  0  0  0  0  0  0  0  0
   30.6680   32.2640   34.4730 H   0  0  0  0  0  0  0  0  0  0  0  0
   30.2780   29.9150   39.1750 N   0  0  0  0  0  0  0  0  0  0  0  0
   29.6000   29.1730   38.8630 H   0  0  0  0  0  0  0  0  0  0  0  0
   30.7800   30.1800   40.0560 H   0  0  0  0  0  0  0  0  0  0  0  0
   34.5770   28.2790   37.2090 C   0  0  0  0  0  0  0  0  0  0  0  0
   35.2860   27.9220   36.4250 H   0  0  0  0  0  0  0  0  0  0  0  0
   34.2170   27.4100   37.8020 H   0  0  0  0  0  0  0  0  0  0  0  0
   35.3020   29.1650   38.1870 C   0  0  0  0  0  0  0  0  0  0  0  0
   35.0440   29.0790   39.5530 C   0  0  0  0  0  0  0  0  0  0  0  0
   34.3160   28.3730   39.9410 H   0  0  0  0  0  0  0  0  0  0  0  0
   35.6780   29.8640   40.4930 C   0  0  0  0  0  3  0  0  0  0  0  0
   36.6230   30.7900   40.0570 C   0  0  0  0  0  0  0  0  0  0  0  0
   37.2610   31.5730   40.9490 N   0  0  0  0  0  0  0  0  0  0  0  0
   38.1850   32.4850   40.5930 C   0  0  0  0  0  0  0  0  0  0  0  0
   38.7040   33.1210   41.3010 H   0  0  0  0  0  0  0  0  0  0  0  0
   38.4710   32.6030   39.2420 C   0  0  0  0  0  3  0  0  0  0  0  0
   37.8440   31.8230   38.2890 C   0  0  0  0  0  3  0  0  0  0  0  0
   36.9020   30.8990   38.7070 C   0  0  0  0  0  0  0  0  0  0  0  0
   36.2500   30.0970   37.7820 C   0  0  0  0  0  3  0  0  0  0  0  0
  1  4  1  1  0  0  0
  2  6  1  0  0  0  0
  2  3  1  0  0  0  0
  2  1  1  0  0  0  0
  3  7  1  6  0  0  0
  3  1  1  0  0  0  0
  3 19  1  0  0  0  0
  5  2  1  0  0  0  0
  8  9  1  0  0  0  0
  8 14  1  0  0  0  0
  9 16  1  0  0  0  0
 10  1  1  0  0  0  0
 10  9  2  0  0  0  0
 11 10  1  0  0  0  0
 12 11  2  0  0  0  0
 12 13  1  0  0  0  0
 13  8  2  0  0  0  0
 15 12  1  0  0  0  0
 16 18  1  0  0  0  0
 17 16  1  0  0  0  0
 19 21  1  0  0  0  0
 19 22  1  0  0  0  0
 20 19  1  0  0  0  0
 22 23  1  0  0  0  0
 23 24  1  0  0  0  0
 23 25  2  0  0  0  0
 26 25  1  0  0  0  0
 26 27  1  0  0  0  0
 28 27  2  0  0  0  0
 28 29  1  0  0  0  0
 30 28  1  0  0  0  0
 31 32  1  0  0  0  0
 31 30  2  0  0  0  0
 32 26  2  0  0  0  0
 33 22  2  0  0  0  0
 33 32  1  0  0  0  0
M  END
>  <minimizedAffinity>
-5.67788029

$$$$

 OpenBabel03252509273D

 33 36  0  0  1  0  0  0  0  0999 V2000
   32.2740   28.9760   36.8820 C   0  0  1  0  0  0  0  0  0  0  0  0
   33.2660   28.9460   35.6830 C   0  0  0  0  0  0  0  0  0  0  0  0
   33.6310   29.1520   37.1900 C   0  0  2  0  0  0  0  0  0  0  0  0
   31.7290   28.0220   37.0270 H   0  0  0  0  0  0  0  0  0  0  0  0
   33.3710   29.8420   35.0650 H   0  0  0  0  0  0  0  0  0  0  0  0
   33.4370   27.9510   35.2800 H   0  0  0  0  0  0  0  0  0  0  0  0
   34.0110   30.1830   37.4370 H   0  0  0  0  0  0  0  0  0  0  0  0
   29.8530   31.7300   37.6700 C   0  0  0  0  0  0  0  0  0  0  0  0
   30.6400   30.5400   37.8640 C   0  0  0  0  0  0  0  0  0  0  0  0
   31.3570   30.1740   36.7750 C   0  0  0  0  0  0  0  0  0  0  0  0
   31.3360   30.8740   35.5900 N   0  0  0  0  0  0  0  0  0  0  0  0
   30.5780   31.9880   35.4580 C   0  0  0  0  0  0  0  0  0  0  0  0
   29.8350   32.4150   36.5050 N   0  0  0  0  0  0  0  0  0  0  0  0
   29.2610   32.0730   38.4990 H   0  0  0  0  0  0  0  0  0  0  0  0
   30.6830   32.4020   34.4720 H   0  0  0  0  0  0  0  0  0  0  0  0
   30.6420   29.8180   39.0660 N   0  0  0  0  0  0  0  0  0  0  0  0
   29.9090   29.1170   38.7820 H   0  0  0  0  0  0  0  0  0  0  0  0
   31.2340   30.0180   39.9070 H   0  0  0  0  0  0  0  0  0  0  0  0
   34.4490   28.0870   37.8760 C   0  0  0  0  0  0  0  0  0  0  0  0
   34.9740   27.4370   37.1340 H   0  0  0  0  0  0  0  0  0  0  0  0
   33.7920   27.4580   38.5150 H   0  0  0  0  0  0  0  0  0  0  0  0
   35.4530   28.7060   38.8120 C   0  0  0  0  0  0  0  0  0  0  0  0
   36.1280   29.8730   38.4630 C   0  0  0  0  0  0  0  0  0  0  0  0
   35.9460   30.3600   37.5110 H   0  0  0  0  0  0  0  0  0  0  0  0
   37.0550   30.4820   39.2820 C   0  0  0  0  0  3  0  0  0  0  0  0
   37.3330   29.9040   40.5180 C   0  0  0  0  0  0  0  0  0  0  0  0
   38.2340   30.4740   41.3420 N   0  0  0  0  0  0  0  0  0  0  0  0
   38.5470   29.9660   42.5490 C   0  0  0  0  0  0  0  0  0  0  0  0
   39.2700   30.4150   43.2200 H   0  0  0  0  0  0  0  0  0  0  0  0
   37.8960   28.8040   42.9350 C   0  0  0  0  0  3  0  0  0  0  0  0
   36.9640   28.1830   42.1260 C   0  0  0  0  0  3  0  0  0  0  0  0
   36.6790   28.7450   40.8940 C   0  0  0  0  0  0  0  0  0  0  0  0
   35.7500   28.1520   40.0520 C   0  0  0  0  0  3  0  0  0  0  0  0
  1  4  1  1  0  0  0
  1  3  1  0  0  0  0
  2  1  1  0  0  0  0
  2  3  1  0  0  0  0
  3  7  1  1  0  0  0
  3 19  1  0  0  0  0
  5  2  1  0  0  0  0
  6  2  1  0  0  0  0
  8  9  1  0  0  0  0
  8 14  1  0  0  0  0
  9 16  1  0  0  0  0
 10  1  1  0  0  0  0
 10  9  2  0  0  0  0
 11 10  1  0  0  0  0
 12 11  2  0  0  0  0
 12 13  1  0  0  0  0
 13  8  2  0  0  0  0
 15 12  1  0  0  0  0
 16 18  1  0  0  0  0
 17 16  1  0  0  0  0
 19 21  1  0  0  0  0
 19 22  1  0  0  0  0
 20 19  1  0  0  0  0
 22 33  1  0  0  0  0
 23 22  2  0  0  0  0
 23 25  1  0  0  0  0
 24 23  1  0  0  0  0
 25 26  2  0  0  0  0
 26 32  1  0  0  0  0
 26 27  1  0  0  0  0
 27 28  2  0  0  0  0
 28 30  1  0  0  0  0
 28 29  1  0  0  0  0
 31 30  2  0  0  0  0
 32 31  1  0  0  0  0
 33 32  2  0  0  0  0
M  END
>  <minimizedAffinity>
-5.67087412

$$$$

 OpenBabel03252509273D

 33 36  0  0  1  0  0  0  0  0999 V2000
   37.0410   27.7620   42.4010 C   0  0  1  0  0  0  0  0  0  0  0  0
   37.5130   28.6790   43.5670 C   0  0  0  0  0  0  0  0  0  0  0  0
   37.5420   29.0220   42.0420 C   0  0  2  0  0  0  0  0  0  0  0  0
   35.9600   27.5190   42.4420 H   0  0  0  0  0  0  0  0  0  0  0  0
   38.4960   28.5000   44.0100 H   0  0  0  0  0  0  0  0  0  0  0  0
   36.6990   29.1140   44.1420 H   0  0  0  0  0  0  0  0  0  0  0  0
   38.5770   29.0990   41.6060 H   0  0  0  0  0  0  0  0  0  0  0  0
   38.6790   24.5960   41.2370 C   0  0  0  0  0  0  0  0  0  0  0  0
   37.7440   25.6900   41.2640 C   0  0  0  0  0  0  0  0  0  0  0  0
   37.9220   26.5370   42.3060 C   0  0  0  0  0  0  0  0  0  0  0  0
   38.9060   26.3680   43.2530 N   0  0  0  0  0  0  0  0  0  0  0  0
   39.7610   25.3200   43.1830 C   0  0  0  0  0  0  0  0  0  0  0  0
   39.6440   24.4330   42.1680 N   0  0  0  0  0  0  0  0  0  0  0  0
   38.5900   23.8880   40.4320 H   0  0  0  0  0  0  0  0  0  0  0  0
   40.4590   25.3460   44.0000 H   0  0  0  0  0  0  0  0  0  0  0  0
   36.7300   25.8470   40.3090 N   0  0  0  0  0  0  0  0  0  0  0  0
   35.9720   25.3710   40.8630 H   0  0  0  0  0  0  0  0  0  0  0  0
   36.8260   26.3110   39.3740 H   0  0  0  0  0  0  0  0  0  0  0  0
   36.6540   30.1350   41.5460 C   0  0  0  0  0  0  0  0  0  0  0  0
   37.2010   31.1080   41.5160 H   0  0  0  0  0  0  0  0  0  0  0  0
   35.7660   30.2330   42.2080 H   0  0  0  0  0  0  0  0  0  0  0  0
   36.1080   29.8130   40.1800 C   0  0  0  0  0  0  0  0  0  0  0  0
   34.8610   29.2110   40.0350 C   0  0  0  0  0  0  0  0  0  0  0  0
   34.2580   28.9610   40.9010 H   0  0  0  0  0  0  0  0  0  0  0  0
   34.3120   28.8960   38.8100 C   0  0  0  0  0  3  0  0  0  0  0  0
   35.0390   29.1920   37.6590 C   0  0  0  0  0  0  0  0  0  0  0  0
   34.5330   28.8970   36.4460 N   0  0  0  0  0  0  0  0  0  0  0  0
   35.1840   29.1580   35.2980 C   0  0  0  0  0  0  0  0  0  0  0  0
   34.7870   28.9250   34.3160 H   0  0  0  0  0  0  0  0  0  0  0  0
   36.4300   29.7580   35.3980 C   0  0  0  0  0  3  0  0  0  0  0  0
   36.9920   30.0800   36.6190 C   0  0  0  0  0  3  0  0  0  0  0  0
   36.2810   29.7910   37.7700 C   0  0  0  0  0  0  0  0  0  0  0  0
   36.8100   30.0980   39.0150 C   0  0  0  0  0  3  0  0  0  0  0  0
  1  4  1  6  0  0  0
  1  2  1  0  0  0  0
  2  5  1  0  0  0  0
  2  6  1  0  0  0  0
  3  7  1  6  0  0  0
  3  1  1  0  0  0  0
  3  2  1  0  0  0  0
  8  9  2  0  0  0  0
  8 13  1  0  0  0  0
  9 10  1  0  0  0  0
 10  1  1  0  0  0  0
 10 11  2  0  0  0  0
 12 11  1  0  0  0  0
 12 15  1  0  0  0  0
 13 12  2  0  0  0  0
 14  8  1  0  0  0  0
 16 17  1  0  0  0  0
 16  9  1  0  0  0  0
 18 16  1  0  0  0  0
 19  3  1  0  0  0  0
 19 21  1  0  0  0  0
 20 19  1  0  0  0  0
 22 19  1  0  0  0  0
 23 22  1  0  0  0  0
 23 24  1  0  0  0  0
 25 23  2  0  0  0  0
 26 32  1  0  0  0  0
 26 25  1  0  0  0  0
 27 26  2  0  0  0  0
 28 30  2  0  0  0  0
 28 27  1  0  0  0  0
 29 28  1  0  0  0  0
 30 31  1  0  0  0  0
 31 32  2  0  0  0  0
 32 33  1  0  0  0  0
 33 22  2  0  0  0  0
M  END
>  <minimizedAffinity>
-5.57056284

$$$$

 OpenBabel03252509273D

 33 36  0  0  1  0  0  0  0  0999 V2000
   37.2390   30.1080   38.8690 C   0  0  1  0  0  0  0  0  0  0  0  0
   36.9980   31.6450   38.8340 C   0  0  0  0  0  0  0  0  0  0  0  0
   36.2810   30.6100   39.7610 C   0  0  2  0  0  0  0  0  0  0  0  0
   38.2710   29.8300   39.1670 H   0  0  0  0  0  0  0  0  0  0  0  0
   36.3660   32.0600   38.0440 H   0  0  0  0  0  0  0  0  0  0  0  0
   37.7960   32.2260   39.2900 H   0  0  0  0  0  0  0  0  0  0  0  0
   35.1870   30.4660   39.5340 H   0  0  0  0  0  0  0  0  0  0  0  0
   37.2380   28.4000   35.5300 C   0  0  0  0  0  0  0  0  0  0  0  0
   37.7620   29.0410   36.7080 C   0  0  0  0  0  0  0  0  0  0  0  0
   36.8080   29.4790   37.5640 C   0  0  0  0  0  0  0  0  0  0  0  0
   35.4600   29.3270   37.3290 N   0  0  0  0  0  0  0  0  0  0  0  0
   35.0180   28.7170   36.2040 C   0  0  0  0  0  0  0  0  0  0  0  0
   35.9150   28.2530   35.3020 N   0  0  0  0  0  0  0  0  0  0  0  0
   37.9470   28.0300   34.8110 H   0  0  0  0  0  0  0  0  0  0  0  0
   33.9440   28.6870   36.1860 H   0  0  0  0  0  0  0  0  0  0  0  0
   39.1350   29.2120   36.9340 N   0  0  0  0  0  0  0  0  0  0  0  0
   39.1960   30.1900   36.5480 H   0  0  0  0  0  0  0  0  0  0  0  0
   39.7850   28.5090   37.3590 H   0  0  0  0  0  0  0  0  0  0  0  0
   36.5250   30.6960   41.2470 C   0  0  0  0  0  0  0  0  0  0  0  0
   35.5770   30.8940   41.8030 H   0  0  0  0  0  0  0  0  0  0  0  0
   37.2530   31.5080   41.4640 H   0  0  0  0  0  0  0  0  0  0  0  0
   37.1620   29.4320   41.7570 C   0  0  0  0  0  0  0  0  0  0  0  0
   36.4500   28.2360   41.7860 C   0  0  0  0  0  0  0  0  0  0  0  0
   35.4210   28.1900   41.4440 H   0  0  0  0  0  0  0  0  0  0  0  0
   36.9840   27.0490   42.2420 C   0  0  0  0  0  3  0  0  0  0  0  0
   38.3010   27.0430   42.6970 C   0  0  0  0  0  0  0  0  0  0  0  0
   38.8530   25.9010   43.1490 N   0  0  0  0  0  0  0  0  0  0  0  0
   40.1190   25.8280   43.6000 C   0  0  0  0  0  0  0  0  0  0  0  0
   40.5750   24.9150   43.9670 H   0  0  0  0  0  0  0  0  0  0  0  0
   40.8640   26.9980   43.5880 C   0  0  0  0  0  3  0  0  0  0  0  0
   40.3420   28.1940   43.1340 C   0  0  0  0  0  3  0  0  0  0  0  0
   39.0350   28.2150   42.6800 C   0  0  0  0  0  0  0  0  0  0  0  0
   38.4740   29.3960   42.2160 C   0  0  0  0  0  3  0  0  0  0  0  0
  1  4  1  1  0  0  0
  1  3  1  0  0  0  0
  2  1  1  0  0  0  0
  2  6  1  0  0  0  0
  2  3  1  0  0  0  0
  3  7  1  6  0  0  0
  3 19  1  0  0  0  0
  5  2  1  0  0  0  0
  8  9  1  0  0  0  0
  9 16  1  0  0  0  0
  9 10  2  0  0  0  0
 10  1  1  0  0  0  0
 11 10  1  0  0  0  0
 12 11  2  0  0  0  0
 13  8  2  0  0  0  0
 13 12  1  0  0  0  0
 14  8  1  0  0  0  0
 15 12  1  0  0  0  0
 16 18  1  0  0  0  0
 17 16  1  0  0  0  0
 19 21  1  0  0  0  0
 19 22  1  0  0  0  0
 19 20  1  0  0  0  0
 22 23  2  0  0  0  0
 22 33  1  0  0  0  0
 23 25  1  0  0  0  0
 24 23  1  0  0  0  0
 25 26  2  0  0  0  0
 26 27  1  0  0  0  0
 27 28  2  0  0  0  0
 28 29  1  0  0  0  0
 30 28  1  0  0  0  0
 31 30  2  0  0  0  0
 32 26  1  0  0  0  0
 32 31  1  0  0  0  0
 33 32  2  0  0  0  0
M  END
>  <minimizedAffinity>
-5.514575

$$$$

 OpenBabel03252509273D

 33 36  0  0  1  0  0  0  0  0999 V2000
   37.1730   29.9490   39.0170 C   0  0  1  0  0  0  0  0  0  0  0  0
   36.8490   31.4680   39.1190 C   0  0  0  0  0  0  0  0  0  0  0  0
   36.1970   30.3190   39.9550 C   0  0  2  0  0  0  0  0  0  0  0  0
   38.2200   29.7030   39.2840 H   0  0  0  0  0  0  0  0  0  0  0  0
   36.1890   31.9160   38.3710 H   0  0  0  0  0  0  0  0  0  0  0  0
   37.6190   32.0490   39.6200 H   0  0  0  0  0  0  0  0  0  0  0  0
   35.1110   30.1370   39.7210 H   0  0  0  0  0  0  0  0  0  0  0  0
   37.2290   28.5000   35.5580 C   0  0  0  0  0  0  0  0  0  0  0  0
   37.7320   29.0580   36.7870 C   0  0  0  0  0  0  0  0  0  0  0  0
   36.7630   29.4140   37.6640 C   0  0  0  0  0  0  0  0  0  0  0  0
   35.4200   29.2600   37.4050 N   0  0  0  0  0  0  0  0  0  0  0  0
   34.9980   28.7300   36.2320 C   0  0  0  0  0  0  0  0  0  0  0  0
   35.9100   28.3500   35.3070 N   0  0  0  0  0  0  0  0  0  0  0  0
   37.9500   28.1970   34.8210 H   0  0  0  0  0  0  0  0  0  0  0  0
   33.9250   28.6850   36.2010 H   0  0  0  0  0  0  0  0  0  0  0  0
   39.1000   29.2330   37.0390 N   0  0  0  0  0  0  0  0  0  0  0  0
   39.1480   30.2380   36.7290 H   0  0  0  0  0  0  0  0  0  0  0  0
   39.7570   28.5090   37.4170 H   0  0  0  0  0  0  0  0  0  0  0  0
   36.4500   30.2880   41.4410 C   0  0  0  0  0  0  0  0  0  0  0  0
   35.4930   30.3100   42.0160 H   0  0  0  0  0  0  0  0  0  0  0  0
   37.0760   31.1580   41.7360 H   0  0  0  0  0  0  0  0  0  0  0  0
   37.2470   29.0680   41.8210 C   0  0  0  0  0  0  0  0  0  0  0  0
   38.5100   29.1920   42.3930 C   0  0  0  0  0  0  0  0  0  0  0  0
   38.9470   30.1680   42.5750 H   0  0  0  0  0  0  0  0  0  0  0  0
   39.2820   28.1100   42.7610 C   0  0  0  0  0  3  0  0  0  0  0  0
   38.7760   26.8300   42.5510 C   0  0  0  0  0  0  0  0  0  0  0  0
   39.5050   25.7510   42.8990 N   0  0  0  0  0  0  0  0  0  0  0  0
   39.0730   24.4890   42.7240 C   0  0  0  0  0  0  0  0  0  0  0  0
   39.6500   23.6130   42.9990 H   0  0  0  0  0  0  0  0  0  0  0  0
   37.8180   24.3210   42.1570 C   0  0  0  0  0  3  0  0  0  0  0  0
   37.0340   25.3950   41.7840 C   0  0  0  0  0  3  0  0  0  0  0  0
   37.5240   26.6740   41.9860 C   0  0  0  0  0  0  0  0  0  0  0  0
   36.7670   27.7790   41.6240 C   0  0  0  0  0  3  0  0  0  0  0  0
  1  2  1  0  0  0  0
  1  4  1  1  0  0  0
  1  3  1  0  0  0  0
  2  6  1  0  0  0  0
  2  3  1  0  0  0  0
  3  7  1  6  0  0  0
  3 19  1  0  0  0  0
  5  2  1  0  0  0  0
  8  9  1  0  0  0  0
  9 16  1  0  0  0  0
  9 10  2  0  0  0  0
 10  1  1  0  0  0  0
 11 10  1  0  0  0  0
 12 11  2  0  0  0  0
 13  8  2  0  0  0  0
 13 12  1  0  0  0  0
 14  8  1  0  0  0  0
 15 12  1  0  0  0  0
 16 18  1  0  0  0  0
 17 16  1  0  0  0  0
 19 21  1  0  0  0  0
 19 22  1  0  0  0  0
 19 20  1  0  0  0  0
 22 23  1  0  0  0  0
 23 24  1  0  0  0  0
 23 25  2  0  0  0  0
 26 25  1  0  0  0  0
 26 27  1  0  0  0  0
 28 27  2  0  0  0  0
 28 29  1  0  0  0  0
 30 28  1  0  0  0  0
 31 32  1  0  0  0  0
 31 30  2  0  0  0  0
 32 26  2  0  0  0  0
 33 22  2  0  0  0  0
 33 32  1  0  0  0  0
M  END
>  <minimizedAffinity>
-5.48921204

$$$$
