
 OpenBabel03252500583D

 41 44  0  0  0  0  0  0  0  0999 V2000
   41.8360   35.3610   41.9450 O   0  0  0  0  0  0  0  0  0  0  0  0
   40.7580   34.7530   41.3280 C   0  0  0  0  0  0  0  0  0  0  0  0
   39.9720   35.5180   40.4840 C   0  0  0  0  0  0  0  0  0  0  0  0
   38.8720   34.9970   39.8230 C   0  0  0  0  0  0  0  0  0  0  0  0
   38.5730   33.6910   40.0230 N   0  0  0  0  0  0  0  0  0  0  0  0
   39.3310   32.9460   40.8390 C   0  0  0  0  0  0  0  0  0  0  0  0
   40.3800   33.4760   41.4600 N   0  0  0  0  0  0  0  0  0  0  0  0
   40.1780   36.5630   40.2990 H   0  0  0  0  0  0  0  0  0  0  0  0
   38.2660   35.6010   39.1670 H   0  0  0  0  0  0  0  0  0  0  0  0
   38.9840   31.5430   41.0350 C   0  0  0  0  0  0  0  0  0  0  0  0
   37.6640   31.1330   41.0860 C   0  0  0  0  0  0  0  0  0  0  0  0
   36.8540   31.8380   40.9830 H   0  0  0  0  0  0  0  0  0  0  0  0
   37.2880   29.7980   41.2710 C   0  0  0  0  0  3  0  0  0  0  0  0
   38.3040   28.8740   41.4060 C   0  0  0  0  0  0  0  0  0  0  0  0
   38.0570   27.5440   41.5930 N   0  0  0  0  0  0  0  0  0  0  0  0
   39.1100   26.6830   41.7190 C   0  0  0  0  0  0  0  0  0  0  0  0
   38.7900   25.6440   41.8640 H   0  0  0  0  0  0  0  0  0  0  0  0
   40.4380   27.0520   41.6740 C   0  0  0  0  0  3  0  0  0  0  0  0
   40.7210   28.4100   41.4840 C   0  0  0  0  0  3  0  0  0  0  0  0
   39.6320   29.2460   41.3610 C   0  0  0  0  0  0  0  0  0  0  0  0
   39.9710   30.5860   41.1740 C   0  0  0  0  0  3  0  0  0  0  0  0
   43.8180   34.9210   40.2550 O   0  0  0  0  0  0  0  0  0  0  0  0
   43.3760   34.7210   41.6930 P   0  0  2  0  0  0  0  0  0  0  0  0
   43.2960   33.0600   41.9960 O   0  0  0  0  0  0  0  0  0  0  0  0
   42.8330   32.9580   42.8760 H   0  0  0  0  0  0  0  0  0  0  0  0
   44.5400   35.3800   42.7440 O   0  0  0  0  0  0  0  0  0  0  0  0
   46.6000   34.3000   43.0920 C   0  0  0  0  0  0  0  0  0  0  0  0
   45.3790   34.6720   43.5970 C   0  0  0  0  0  0  0  0  0  0  0  0
   45.0750   34.3120   44.9220 C   0  0  0  0  0  0  0  0  0  0  0  0
   46.0100   33.6220   45.6080 N   0  0  0  0  0  0  0  0  0  0  0  0
   47.1910   33.2740   45.0920 C   0  0  0  0  0  0  0  0  0  0  0  0
   47.4800   33.6140   43.8370 N   0  0  0  0  0  0  0  0  0  0  0  0
   44.1150   34.6210   45.2720 H   0  0  0  0  0  0  0  0  0  0  0  0
   47.9190   32.7160   45.6800 H   0  0  0  0  0  0  0  0  0  0  0  0
   46.9820   34.6450   41.7130 C   0  0  0  0  0  0  0  0  0  0  0  0
   46.2550   35.2850   41.1980 H   0  0  0  0  0  0  0  0  0  0  0  0
   47.0820   33.6930   41.1470 H   0  0  0  0  0  0  0  0  0  0  0  0
   48.3110   35.3420   41.7350 C   0  0  0  0  0  0  0  0  0  0  0  0
   48.2820   36.2760   41.1450 H   0  0  0  0  0  0  0  0  0  0  0  0
   49.1320   34.7200   41.2860 H   0  0  0  0  0  0  0  0  0  0  0  0
   48.5890   35.6240   42.7830 H   0  0  0  0  0  0  0  0  0  0  0  0
  2  7  1  0  0  0  0
  2  1  1  0  0  0  0
  3  2  2  0  0  0  0
  4  5  2  0  0  0  0
  4  3  1  0  0  0  0
  5  6  1  0  0  0  0
  6 10  1  0  0  0  0
  6  7  2  0  0  0  0
  8  3  1  0  0  0  0
  9  4  1  0  0  0  0
 10 11  2  0  0  0  0
 10 21  1  0  0  0  0
 11 13  1  0  0  0  0
 12 11  1  0  0  0  0
 13 14  2  0  0  0  0
 14 15  1  0  0  0  0
 15 16  2  0  0  0  0
 16 17  1  0  0  0  0
 18 16  1  0  0  0  0
 19 18  2  0  0  0  0
 20 14  1  0  0  0  0
 20 19  1  0  0  0  0
 21 20  2  0  0  0  0
 23 22  2  6  0  0  0
 23  1  1  0  0  0  0
 23 24  1  0  0  0  0
 23 26  1  0  0  0  0
 24 25  1  0  0  0  0
 26 28  1  0  0  0  0
 27 28  2  0  0  0  0
 27 32  1  0  0  0  0
 28 29  1  0  0  0  0
 29 33  1  0  0  0  0
 29 30  2  0  0  0  0
 31 30  1  0  0  0  0
 31 34  1  0  0  0  0
 32 31  2  0  0  0  0
 35 38  1  0  0  0  0
 35 27  1  0  0  0  0
 36 35  1  0  0  0  0
 37 35  1  0  0  0  0
 38 41  1  0  0  0  0
 39 38  1  0  0  0  0
 40 38  1  0  0  0  0
M  END
>  <minimizedAffinity>
-6.02908278

>  <minimizedRMSD>
0.906091452

$$$$
