
 OpenBabel03252504513D

 37 40  0  0  0  0  0  0  0  0999 V2000
   47.0410   34.6870   42.7250 C   0  0  0  0  0  0  0  0  0  0  0  0
   48.2500   34.3000   42.1250 C   0  0  0  0  0  0  0  0  0  0  0  0
   48.9120   33.2160   42.6830 C   0  0  0  0  0  0  0  0  0  0  0  0
   48.3450   32.6110   43.7650 N   0  0  0  0  0  0  0  0  0  0  0  0
   47.1940   33.0000   44.3150 C   0  0  0  0  0  0  0  0  0  0  0  0
   46.5230   34.0540   43.7950 N   0  0  0  0  0  0  0  0  0  0  0  0
   46.4430   35.5100   42.3790 H   0  0  0  0  0  0  0  0  0  0  0  0
   49.8390   32.8880   42.2550 H   0  0  0  0  0  0  0  0  0  0  0  0
   45.8460   30.3300   43.6940 Cl  0  0  0  0  0  0  0  0  0  0  0  0
   46.0200   31.0780   45.2910 C   0  0  0  0  0  0  0  0  0  0  0  0
   46.6530   32.3020   45.4710 C   0  0  0  0  0  0  0  0  0  0  0  0
   46.7720   32.8530   46.7210 C   0  0  0  0  0  0  0  0  0  0  0  0
   46.2510   32.1740   47.8140 C   0  0  0  0  0  0  0  0  0  0  0  0
   45.6310   30.9640   47.5960 C   0  0  0  0  0  0  0  0  0  0  0  0
   44.9910   30.1490   49.0050 Cl  0  0  0  0  0  0  0  0  0  0  0  0
   45.4920   30.3790   46.3600 C   0  0  0  0  0  0  0  0  0  0  0  0
   47.2660   33.8100   46.8720 H   0  0  0  0  0  0  0  0  0  0  0  0
   46.3380   32.5980   48.8070 H   0  0  0  0  0  0  0  0  0  0  0  0
   44.9910   29.4250   46.2760 H   0  0  0  0  0  0  0  0  0  0  0  0
   48.7170   35.0450   40.9840 C   0  0  0  0  0  0  0  0  0  0  0  0
   49.8090   34.9030   40.8640 H   0  0  0  0  0  0  0  0  0  0  0  0
   48.5660   36.1290   41.1180 H   0  0  0  0  0  0  0  0  0  0  0  0
   47.9370   34.6430   39.7650 C   0  0  0  0  0  0  0  0  0  0  0  0
   46.8860   35.0070   39.9400 H   0  0  0  0  0  0  0  0  0  0  0  0
   48.2970   35.2800   38.9170 H   0  0  0  0  0  0  0  0  0  0  0  0
   47.9730   33.2110   39.4510 C   0  0  0  0  0  0  0  0  0  0  0  0
   49.1020   32.5340   39.0350 C   0  0  0  0  0  0  0  0  0  0  0  0
   50.0310   33.0780   38.9270 H   0  0  0  0  0  0  0  0  0  0  0  0
   48.9780   31.1750   38.7750 C   0  0  0  0  0  3  0  0  0  0  0  0
   47.7520   30.5190   38.9300 C   0  0  0  0  0  0  0  0  0  0  0  0
   47.6340   29.2020   38.6780 N   0  0  0  0  0  0  0  0  0  0  0  0
   46.4700   28.5440   38.8190 C   0  0  0  0  0  0  0  0  0  0  0  0
   46.3080   27.5050   38.6370 H   0  0  0  0  0  0  0  0  0  0  0  0
   45.3530   29.2290   39.2340 C   0  0  0  0  0  3  0  0  0  0  0  0
   45.4040   30.5850   39.5110 C   0  0  0  0  0  3  0  0  0  0  0  0
   46.6380   31.2120   39.3470 C   0  0  0  0  0  0  0  0  0  0  0  0
   46.7430   32.5700   39.6110 C   0  0  0  0  0  3  0  0  0  0  0  0
  1  6  1  0  0  0  0
  2  3  1  0  0  0  0
  2  1  2  0  0  0  0
  3  4  2  0  0  0  0
  4  5  1  0  0  0  0
  5 11  1  0  0  0  0
  6  5  2  0  0  0  0
  7  1  1  0  0  0  0
  8  3  1  0  0  0  0
  9 10  1  0  0  0  0
 10 11  2  0  0  0  0
 10 16  1  0  0  0  0
 11 12  1  0  0  0  0
 12 17  1  0  0  0  0
 12 13  2  0  0  0  0
 13 18  1  0  0  0  0
 14 13  1  0  0  0  0
 14 15  1  0  0  0  0
 16 14  2  0  0  0  0
 19 16  1  0  0  0  0
 20 22  1  0  0  0  0
 20  2  1  0  0  0  0
 21 20  1  0  0  0  0
 23 24  1  0  0  0  0
 23 20  1  0  0  0  0
 25 23  1  0  0  0  0
 26 37  1  0  0  0  0
 26 23  1  0  0  0  0
 27 26  2  0  0  0  0
 28 27  1  0  0  0  0
 29 30  2  0  0  0  0
 29 27  1  0  0  0  0
 30 36  1  0  0  0  0
 31 32  2  0  0  0  0
 31 30  1  0  0  0  0
 32 34  1  0  0  0  0
 33 32  1  0  0  0  0
 34 35  2  0  0  0  0
 36 35  1  0  0  0  0
 36 37  2  0  0  0  0
M  END
>  <minimizedAffinity>
-4.5692296

>  <minimizedRMSD>
1.20637619

$$$$
