
 OpenBabel03242518473D

 48 52  0  0  1  0  0  0  0  0999 V2000
   47.4070   32.8780   44.2590 C   0  0  2  0  0  0  0  0  0  0  0  0
   47.3430   33.3970   42.8680 C   0  0  1  0  0  0  0  0  0  0  0  0
   47.2860   32.2760   41.8290 C   0  0  0  0  0  0  0  0  0  0  0  0
   48.3990   31.4840   42.1240 O   0  0  0  0  0  0  0  0  0  0  0  0
   48.2100   30.7490   43.2750 C   0  0  0  0  0  0  0  0  0  0  0  0
   47.2250   31.3480   44.2310 C   0  0  1  0  0  0  0  0  0  0  0  0
   48.4070   33.0510   44.6770 H   0  0  0  0  0  0  0  0  0  0  0  0
   48.2770   33.9870   42.6400 H   0  0  0  0  0  0  0  0  0  0  0  0
   47.4850   32.7050   40.8270 H   0  0  0  0  0  0  0  0  0  0  0  0
   46.3330   31.7320   41.8780 H   0  0  0  0  0  0  0  0  0  0  0  0
   49.1780   30.6340   43.8390 H   0  0  0  0  0  0  0  0  0  0  0  0
   47.8440   29.7190   43.0390 H   0  0  0  0  0  0  0  0  0  0  0  0
   46.1630   31.2300   43.9240 H   0  0  0  0  0  0  0  0  0  0  0  0
   45.0050   36.2130   42.9820 C   0  0  0  0  0  0  0  0  0  0  0  0
   44.0030   35.8760   42.0240 C   0  0  0  0  0  0  0  0  0  0  0  0
   44.1920   34.6370   41.3550 C   0  0  0  0  0  0  0  0  0  0  0  0
   45.2710   33.8790   41.6530 N   0  0  0  0  0  0  0  0  0  0  0  0
   46.1830   34.2610   42.5740 C   0  0  0  0  0  0  0  0  0  0  0  0
   46.0470   35.4280   43.2350 N   0  0  0  0  0  0  0  0  0  0  0  0
   43.1600   36.4830   41.7990 H   0  0  0  0  0  0  0  0  0  0  0  0
   43.4790   34.3060   40.6130 H   0  0  0  0  0  0  0  0  0  0  0  0
   44.8420   37.3990   43.6380 O   0  0  0  0  0  0  0  0  0  0  0  0
   45.6000   38.0710   43.7760 H   0  0  0  0  0  0  0  0  0  0  0  0
   46.4370   33.4110   45.1070 O   0  0  0  0  0  0  0  0  0  0  0  0
   46.8690   33.9640   45.8170 H   0  0  0  0  0  0  0  0  0  0  0  0
   47.3800   30.9090   45.5270 O   0  0  0  0  0  0  0  0  0  0  0  0
   47.8630   28.2530   45.6770 F   0  0  0  0  0  0  0  0  0  0  0  0
   46.9510   28.9170   46.4180 C   0  0  0  0  0  0  0  0  0  0  0  0
   46.6410   30.2620   46.4100 C   0  0  0  0  0  0  0  0  0  0  0  0
   45.6510   30.6420   47.3020 C   0  0  0  0  0  0  0  0  0  0  0  0
   44.9760   29.8150   48.1660 C   0  0  0  0  0  0  0  0  0  0  0  0
   45.3220   28.4980   48.1320 C   0  0  0  0  0  0  0  0  0  0  0  0
   46.2970   28.0190   47.2770 C   0  0  0  0  0  0  0  0  0  0  0  0
   45.4600   31.7290   47.2360 H   0  0  0  0  0  0  0  0  0  0  0  0
   44.2340   30.2270   48.8070 H   0  0  0  0  0  0  0  0  0  0  0  0
   44.7830   27.8360   48.8240 H   0  0  0  0  0  0  0  0  0  0  0  0
   46.5470   26.5820   47.3680 C   0  0  0  0  0  0  0  0  0  0  0  0
   45.8830   25.7720   46.4390 C   0  0  0  0  0  0  0  0  0  0  0  0
   45.2210   26.2380   45.6990 H   0  0  0  0  0  0  0  0  0  0  0  0
   45.9980   24.3960   46.3740 C   0  0  0  0  0  3  0  0  0  0  0  0
   46.8250   23.7890   47.2950 C   0  0  0  0  0  0  0  0  0  0  0  0
   46.9640   22.4520   47.2660 N   0  0  0  0  0  0  0  0  0  0  0  0
   47.7450   21.7760   48.1190 C   0  0  0  0  0  0  0  0  0  0  0  0
   47.8390   20.7000   48.0750 H   0  0  0  0  0  0  0  0  0  0  0  0
   48.4170   22.5520   49.0550 C   0  0  0  0  0  3  0  0  0  0  0  0
   48.3150   23.9260   49.1350 C   0  0  0  0  0  3  0  0  0  0  0  0
   47.4950   24.5610   48.2270 C   0  0  0  0  0  0  0  0  0  0  0  0
   47.3540   25.9250   48.2580 C   0  0  0  0  0  3  0  0  0  0  0  0
  1  7  1  1  0  0  0
  1 24  1  0  0  0  0
  2  8  1  6  0  0  0
  2  1  1  0  0  0  0
  3 10  1  0  0  0  0
  3  4  1  0  0  0  0
  3  2  1  0  0  0  0
  4  5  1  0  0  0  0
  5 11  1  0  0  0  0
  5  6  1  0  0  0  0
  6 13  1  6  0  0  0
  6  1  1  0  0  0  0
  6 26  1  0  0  0  0
  9  3  1  0  0  0  0
 12  5  1  0  0  0  0
 14 19  1  0  0  0  0
 14 22  1  0  0  0  0
 15 14  2  0  0  0  0
 16 17  2  0  0  0  0
 16 15  1  0  0  0  0
 17 18  1  0  0  0  0
 18  2  1  0  0  0  0
 18 19  2  0  0  0  0
 20 15  1  0  0  0  0
 21 16  1  0  0  0  0
 22 23  1  0  0  0  0
 24 25  1  0  0  0  0
 26 29  1  0  0  0  0
 27 28  1  0  0  0  0
 28 33  1  0  0  0  0
 29 28  2  0  0  0  0
 29 30  1  0  0  0  0
 30 31  2  0  0  0  0
 31 35  1  0  0  0  0
 32 31  1  0  0  0  0
 32 36  1  0  0  0  0
 33 37  1  0  0  0  0
 33 32  2  0  0  0  0
 34 30  1  0  0  0  0
 37 48  1  0  0  0  0
 38 37  2  0  0  0  0
 39 38  1  0  0  0  0
 40 38  1  0  0  0  0
 40 41  2  0  0  0  0
 41 47  1  0  0  0  0
 42 41  1  0  0  0  0
 42 43  2  0  0  0  0
 43 45  1  0  0  0  0
 44 43  1  0  0  0  0
 45 46  2  0  0  0  0
 47 48  2  0  0  0  0
 47 46  1  0  0  0  0
M  END
>  <minimizedAffinity>
-5.35048103

>  <minimizedRMSD>
3.01847053

$$$$
