
 OpenBabel03252500113D

 34 37  0  0  0  0  0  0  0  0999 V2000
   45.1130   32.3080   39.5980 Cl  0  0  0  0  0  0  0  0  0  0  0  0
   46.4230   33.1880   38.9040 C   0  0  0  0  0  0  0  0  0  0  0  0
   47.2820   33.9250   39.6900 C   0  0  0  0  0  0  0  0  0  0  0  0
   48.3490   34.6470   39.1560 C   0  0  0  0  0  0  0  0  0  0  0  0
   48.5030   34.5840   37.7920 C   0  0  0  0  0  0  0  0  0  0  0  0
   47.6490   33.8490   37.0010 C   0  0  0  0  0  0  0  0  0  0  0  0
   46.6110   33.1520   37.5450 C   0  0  0  0  0  0  0  0  0  0  0  0
   49.0160   35.2200   39.7730 H   0  0  0  0  0  0  0  0  0  0  0  0
   49.3090   35.1190   37.3150 H   0  0  0  0  0  0  0  0  0  0  0  0
   47.8260   33.8410   35.9210 H   0  0  0  0  0  0  0  0  0  0  0  0
   45.7630   32.4040   36.6210 C   0  0  0  0  0  0  0  0  0  0  0  0
   45.9970   32.1560   35.2730 C   0  0  0  0  0  0  0  0  0  0  0  0
   46.9150   32.5740   34.8950 H   0  0  0  0  0  0  0  0  0  0  0  0
   45.0770   31.4250   34.5510 C   0  0  0  0  0  0  0  0  0  0  0  0
   43.9190   30.9190   35.1060 C   0  0  0  0  0  0  0  0  0  0  0  0
   43.0420   30.2140   34.3930 N   0  0  0  0  0  0  0  0  0  0  0  0
   41.9070   29.7180   34.9310 C   0  0  0  0  0  0  0  0  0  0  0  0
   41.2070   29.1510   34.3420 H   0  0  0  0  0  0  0  0  0  0  0  0
   41.6150   29.9330   36.2790 C   0  0  0  0  0  0  0  0  0  0  0  0
   42.5200   30.6610   37.0210 C   0  0  0  0  0  0  0  0  0  0  0  0
   43.6560   31.1450   36.4340 C   0  0  0  0  0  0  0  0  0  0  0  0
   44.5830   31.8790   37.1480 C   0  0  0  0  0  0  0  0  0  0  0  0
   47.5360   33.1340   43.2790 C   0  0  0  0  0  0  0  0  0  0  0  0
   46.6210   34.0310   43.8590 C   0  0  0  0  0  0  0  0  0  0  0  0
   45.9360   34.8890   43.0120 C   0  0  0  0  0  0  0  0  0  0  0  0
   46.1750   34.8270   41.6730 N   0  0  0  0  0  0  0  0  0  0  0  0
   47.0630   33.9510   41.1380 C   0  0  0  0  0  0  0  0  0  0  0  0
   47.7410   33.1050   41.9510 N   0  0  0  0  0  0  0  0  0  0  0  0
   48.0550   32.4770   43.9690 H   0  0  0  0  0  0  0  0  0  0  0  0
   46.4240   34.0910   44.9140 H   0  0  0  0  0  0  0  0  0  0  0  0
   44.9270   35.9010   43.5000 C   0  0  0  0  0  0  0  0  0  0  0  0
   45.2850   37.1670   43.1340 F   0  0  0  0  0  0  0  0  0  0  0  0
   43.6920   35.5890   42.9530 F   0  0  0  0  0  0  0  0  0  0  0  0
   44.8890   35.7710   44.8680 F   0  0  0  0  0  0  0  0  0  0  0  0
  2  1  1  0  0  0  0
  2  3  1  0  0  0  0
  3 27  1  0  0  0  0
  4  3  2  0  0  0  0
  4  8  1  0  0  0  0
  5  4  1  0  0  0  0
  6  7  1  0  0  0  0
  6  5  2  0  0  0  0
  7  2  2  0  0  0  0
  9  5  1  0  0  0  0
 10  6  1  0  0  0  0
 11 22  1  0  0  0  0
 11  7  1  0  0  0  0
 12 11  2  0  0  0  0
 13 12  1  0  0  0  0
 14 15  2  0  0  0  0
 14 12  1  0  0  0  0
 15 21  1  0  0  0  0
 16 17  2  0  0  0  0
 16 15  1  0  0  0  0
 17 19  1  0  0  0  0
 18 17  1  0  0  0  0
 19 20  2  0  0  0  0
 21 20  1  0  0  0  0
 21 22  2  0  0  0  0
 23 24  1  0  0  0  0
 23 29  1  0  0  0  0
 24 30  1  0  0  0  0
 25 31  1  0  0  0  0
 25 24  2  0  0  0  0
 26 25  1  0  0  0  0
 27 26  2  0  0  0  0
 27 28  1  0  0  0  0
 28 23  2  0  0  0  0
 31 34  1  0  0  0  0
 32 31  1  0  0  0  0
 33 31  1  0  0  0  0
M  END
>  <minimizedAffinity>
-6.30842972

>  <minimizedRMSD>
0.464785725

$$$$
