
 OpenBabel03252509273D

 33 36  0  0  1  0  0  0  0  0999 V2000
   46.4280   33.2140   41.0020 C   0  0  1  0  0  0  0  0  0  0  0  0
   46.2780   31.9380   41.8800 C   0  0  0  0  0  0  0  0  0  0  0  0
   46.5290   31.9830   40.3370 C   0  0  2  0  0  0  0  0  0  0  0  0
   47.3020   33.8380   41.2770 H   0  0  0  0  0  0  0  0  0  0  0  0
   45.2740   31.6120   42.1660 H   0  0  0  0  0  0  0  0  0  0  0  0
   47.1440   31.7280   42.5020 H   0  0  0  0  0  0  0  0  0  0  0  0
   45.6630   31.6180   39.7170 H   0  0  0  0  0  0  0  0  0  0  0  0
   43.7280   35.7280   41.6760 C   0  0  0  0  0  0  0  0  0  0  0  0
   44.9730   35.0220   41.8350 C   0  0  0  0  0  0  0  0  0  0  0  0
   45.1300   33.9880   40.9740 C   0  0  0  0  0  0  0  0  0  0  0  0
   44.1860   33.6430   40.0330 N   0  0  0  0  0  0  0  0  0  0  0  0
   43.0300   34.3400   39.9250 C   0  0  0  0  0  0  0  0  0  0  0  0
   42.8040   35.3870   40.7510 N   0  0  0  0  0  0  0  0  0  0  0  0
   43.5450   36.5610   42.3310 H   0  0  0  0  0  0  0  0  0  0  0  0
   42.4150   33.9330   39.1430 H   0  0  0  0  0  0  0  0  0  0  0  0
   45.9220   35.3630   42.8080 N   0  0  0  0  0  0  0  0  0  0  0  0
   45.6000   34.6720   43.5340 H   0  0  0  0  0  0  0  0  0  0  0  0
   46.6650   36.0970   42.7180 H   0  0  0  0  0  0  0  0  0  0  0  0
   47.8400   31.4510   39.8140 C   0  0  0  0  0  0  0  0  0  0  0  0
   47.9040   30.3420   39.9300 H   0  0  0  0  0  0  0  0  0  0  0  0
   48.6850   31.9260   40.3590 H   0  0  0  0  0  0  0  0  0  0  0  0
   48.0280   31.8250   38.3680 C   0  0  0  0  0  0  0  0  0  0  0  0
   48.6940   32.9970   38.0160 C   0  0  0  0  0  0  0  0  0  0  0  0
   49.0900   33.6640   38.7750 H   0  0  0  0  0  0  0  0  0  0  0  0
   48.8960   33.3870   36.7090 C   0  0  0  0  0  3  0  0  0  0  0  0
   48.4110   32.5730   35.6890 C   0  0  0  0  0  0  0  0  0  0  0  0
   48.5900   32.9250   34.4010 N   0  0  0  0  0  0  0  0  0  0  0  0
   48.1460   32.1820   33.3700 C   0  0  0  0  0  0  0  0  0  0  0  0
   48.2850   32.4550   32.3300 H   0  0  0  0  0  0  0  0  0  0  0  0
   47.4780   31.0070   33.6780 C   0  0  0  0  0  3  0  0  0  0  0  0
   47.2690   30.6030   34.9820 C   0  0  0  0  0  3  0  0  0  0  0  0
   47.7450   31.4020   36.0060 C   0  0  0  0  0  0  0  0  0  0  0  0
   47.5560   31.0320   37.3300 C   0  0  0  0  0  3  0  0  0  0  0  0
  1  4  1  1  0  0  0
  1  2  1  0  0  0  0
  2  5  1  0  0  0  0
  2  6  1  0  0  0  0
  3  7  1  6  0  0  0
  3  1  1  0  0  0  0
  3  2  1  0  0  0  0
  8  9  1  0  0  0  0
  8 14  1  0  0  0  0
  9 16  1  0  0  0  0
 10  1  1  0  0  0  0
 10  9  2  0  0  0  0
 11 10  1  0  0  0  0
 12 11  2  0  0  0  0
 12 13  1  0  0  0  0
 13  8  2  0  0  0  0
 15 12  1  0  0  0  0
 16 17  1  0  0  0  0
 18 16  1  0  0  0  0
 19 20  1  0  0  0  0
 19  3  1  0  0  0  0
 19 21  1  0  0  0  0
 22 19  1  0  0  0  0
 23 22  1  0  0  0  0
 23 24  1  0  0  0  0
 25 23  2  0  0  0  0
 26 32  1  0  0  0  0
 26 25  1  0  0  0  0
 27 26  2  0  0  0  0
 28 30  2  0  0  0  0
 28 27  1  0  0  0  0
 29 28  1  0  0  0  0
 30 31  1  0  0  0  0
 31 32  2  0  0  0  0
 32 33  1  0  0  0  0
 33 22  2  0  0  0  0
M  END
>  <minimizedAffinity>
-3.92816496

>  <minimizedRMSD>
4.75132275

$$$$
