
 OpenBabel03242515443D

 41 45  0  0  0  0  0  0  0  0999 V2000
   35.5860   29.2660   38.9590 C   0  0  0  0  0  0  0  0  0  0  0  0
   36.5860   30.0130   38.4390 C   0  0  0  0  0  0  0  0  0  0  0  0
   36.7570   29.9350   37.0380 C   0  0  0  0  0  0  0  0  0  0  0  0
   35.9460   29.1400   36.2950 N   0  0  0  0  0  0  0  0  0  0  0  0
   34.9680   28.4150   36.8680 C   0  0  0  0  0  0  0  0  0  0  0  0
   34.8430   28.5230   38.1780 N   0  0  0  0  0  0  0  0  0  0  0  0
   37.6270   30.9250   38.8930 C   0  0  0  0  0  0  0  0  0  0  0  0
   36.9860   32.1620   39.0900 C   0  0  0  0  0  0  0  0  0  0  0  0
   35.9520   32.4750   38.9220 H   0  0  0  0  0  0  0  0  0  0  0  0
   37.6830   33.2740   39.5840 C   0  0  0  0  0  3  0  0  0  0  0  0
   39.0300   33.1660   39.8870 C   0  0  0  0  0  0  0  0  0  0  0  0
   39.7970   34.1610   40.3640 N   0  0  0  0  0  0  0  0  0  0  0  0
   41.0990   33.9480   40.6270 C   0  0  0  0  0  0  0  0  0  0  0  0
   41.6320   34.8080   41.0070 H   0  0  0  0  0  0  0  0  0  0  0  0
   41.7580   32.7360   40.4420 C   0  0  0  0  0  3  0  0  0  0  0  0
   40.9720   31.6910   39.9450 C   0  0  0  0  0  3  0  0  0  0  0  0
   39.6420   31.9500   39.6890 C   0  0  0  0  0  0  0  0  0  0  0  0
   38.9580   30.8630   39.2060 C   0  0  0  0  0  3  0  0  0  0  0  0
   37.7440   30.7080   36.3460 N   0  0  0  0  0  0  0  0  0  0  0  0
   38.7580   30.6430   36.4650 H   0  0  0  0  0  0  0  0  0  0  0  0
   37.3320   31.3820   35.6760 H   0  0  0  0  0  0  0  0  0  0  0  0
   35.4030   29.4140   40.7540 S   0  0  0  0  0  0  0  0  0  0  0  0
   37.5940   29.4960   42.2650 C   0  0  0  0  0  0  0  0  0  0  0  0
   36.7340   28.6050   41.6020 C   0  0  0  0  0  0  0  0  0  0  0  0
   36.9240   27.2300   41.6530 C   0  0  0  0  0  0  0  0  0  0  0  0
   37.9750   26.7050   42.3660 C   0  0  0  0  0  0  0  0  0  0  0  0
   38.8470   27.5690   43.0370 C   0  0  0  0  0  0  0  0  0  0  0  0
   38.6730   28.9500   42.9960 C   0  0  0  0  0  0  0  0  0  0  0  0
   39.8200   26.7740   43.6790 O   0  0  0  0  0  0  0  0  0  0  0  0
   39.7300   25.5120   43.1140 C   0  0  0  0  0  0  0  0  0  0  0  0
   38.4150   25.4130   42.6050 O   0  0  0  0  0  0  0  0  0  0  0  0
   37.4970   30.5550   42.2600 H   0  0  0  0  0  0  0  0  0  0  0  0
   36.2200   26.6140   41.1140 H   0  0  0  0  0  0  0  0  0  0  0  0
   39.3690   29.5650   43.5250 H   0  0  0  0  0  0  0  0  0  0  0  0
   40.3970   25.4730   42.2280 H   0  0  0  0  0  0  0  0  0  0  0  0
   39.9910   24.6660   43.7780 H   0  0  0  0  0  0  0  0  0  0  0  0
   34.0980   27.5780   36.2110 O   0  0  0  0  0  0  0  0  0  0  0  0
   32.9220   28.1370   35.6770 C   0  0  0  0  0  0  0  0  0  0  0  0
   32.7530   29.4500   36.0570 F   0  0  0  0  0  0  0  0  0  0  0  0
   33.0210   28.0190   34.2830 F   0  0  0  0  0  0  0  0  0  0  0  0
   31.8480   27.4040   36.1500 F   0  0  0  0  0  0  0  0  0  0  0  0
  1 22  1  0  0  0  0
  2  7  1  0  0  0  0
  2  1  1  0  0  0  0
  3  2  2  0  0  0  0
  4  5  2  0  0  0  0
  4  3  1  0  0  0  0
  5  6  1  0  0  0  0
  6  1  2  0  0  0  0
  7  8  2  0  0  0  0
  7 18  1  0  0  0  0
  8 10  1  0  0  0  0
  9  8  1  0  0  0  0
 10 11  2  0  0  0  0
 11 12  1  0  0  0  0
 12 13  2  0  0  0  0
 13 14  1  0  0  0  0
 15 13  1  0  0  0  0
 16 15  2  0  0  0  0
 17 11  1  0  0  0  0
 17 16  1  0  0  0  0
 18 17  2  0  0  0  0
 19 20  1  0  0  0  0
 19  3  1  0  0  0  0
 21 19  1  0  0  0  0
 22 24  1  0  0  0  0
 23 28  1  0  0  0  0
 24 25  1  0  0  0  0
 24 23  2  0  0  0  0
 25 26  2  0  0  0  0
 26 31  1  0  0  0  0
 26 27  1  0  0  0  0
 27 29  1  0  0  0  0
 28 27  2  0  0  0  0
 28 34  1  0  0  0  0
 30 29  1  0  0  0  0
 30 36  1  0  0  0  0
 31 30  1  0  0  0  0
 32 23  1  0  0  0  0
 33 25  1  0  0  0  0
 35 30  1  0  0  0  0
 37  5  1  0  0  0  0
 38 39  1  0  0  0  0
 38 41  1  0  0  0  0
 38 37  1  0  0  0  0
 40 38  1  0  0  0  0
M  END
>  <minimizedAffinity>
-6.58580351

$$$$

 OpenBabel03242515443D

 41 45  0  0  0  0  0  0  0  0999 V2000
   35.6120   29.1590   38.9850 C   0  0  0  0  0  0  0  0  0  0  0  0
   36.5910   29.9240   38.4520 C   0  0  0  0  0  0  0  0  0  0  0  0
   36.7510   29.8430   37.0490 C   0  0  0  0  0  0  0  0  0  0  0  0
   35.9500   29.0280   36.3170 N   0  0  0  0  0  0  0  0  0  0  0  0
   34.9920   28.2860   36.9030 C   0  0  0  0  0  0  0  0  0  0  0  0
   34.8770   28.3970   38.2130 N   0  0  0  0  0  0  0  0  0  0  0  0
   37.6170   30.8590   38.8910 C   0  0  0  0  0  0  0  0  0  0  0  0
   36.9620   32.0950   39.0420 C   0  0  0  0  0  0  0  0  0  0  0  0
   35.9280   32.3930   38.8510 H   0  0  0  0  0  0  0  0  0  0  0  0
   37.6420   33.2290   39.5120 C   0  0  0  0  0  3  0  0  0  0  0  0
   38.9860   33.1430   39.8370 C   0  0  0  0  0  0  0  0  0  0  0  0
   39.7360   34.1590   40.2930 N   0  0  0  0  0  0  0  0  0  0  0  0
   41.0370   33.9670   40.5800 C   0  0  0  0  0  0  0  0  0  0  0  0
   41.5570   34.8430   40.9410 H   0  0  0  0  0  0  0  0  0  0  0  0
   41.7100   32.7570   40.4410 C   0  0  0  0  0  3  0  0  0  0  0  0
   40.9400   31.6890   39.9650 C   0  0  0  0  0  3  0  0  0  0  0  0
   39.6120   31.9270   39.6840 C   0  0  0  0  0  0  0  0  0  0  0  0
   38.9440   30.8190   39.2240 C   0  0  0  0  0  3  0  0  0  0  0  0
   37.7150   30.6330   36.3450 N   0  0  0  0  0  0  0  0  0  0  0  0
   38.7320   30.5890   36.4540 H   0  0  0  0  0  0  0  0  0  0  0  0
   37.2830   31.2950   35.6750 H   0  0  0  0  0  0  0  0  0  0  0  0
   35.4420   29.3110   40.7800 S   0  0  0  0  0  0  0  0  0  0  0  0
   37.6270   29.3750   42.3020 C   0  0  0  0  0  0  0  0  0  0  0  0
   36.7730   28.4920   41.6200 C   0  0  0  0  0  0  0  0  0  0  0  0
   36.9680   27.1180   41.6480 C   0  0  0  0  0  0  0  0  0  0  0  0
   38.0180   26.5850   42.3570 C   0  0  0  0  0  0  0  0  0  0  0  0
   38.8840   27.4400   43.0470 C   0  0  0  0  0  0  0  0  0  0  0  0
   38.7050   28.8200   43.0290 C   0  0  0  0  0  0  0  0  0  0  0  0
   39.8570   26.6380   43.6790 O   0  0  0  0  0  0  0  0  0  0  0  0
   39.7740   25.3860   43.0920 C   0  0  0  0  0  0  0  0  0  0  0  0
   38.4620   25.2900   42.5760 O   0  0  0  0  0  0  0  0  0  0  0  0
   37.5260   30.4340   42.3150 H   0  0  0  0  0  0  0  0  0  0  0  0
   36.2690   26.5080   41.0960 H   0  0  0  0  0  0  0  0  0  0  0  0
   39.3950   29.4290   43.5710 H   0  0  0  0  0  0  0  0  0  0  0  0
   40.4460   25.3650   42.2090 H   0  0  0  0  0  0  0  0  0  0  0  0
   40.0360   24.5290   43.7420 H   0  0  0  0  0  0  0  0  0  0  0  0
   34.1340   27.4280   36.2580 O   0  0  0  0  0  0  0  0  0  0  0  0
   34.3820   26.0470   36.3600 C   0  0  0  0  0  0  0  0  0  0  0  0
   35.7000   25.7770   36.6580 F   0  0  0  0  0  0  0  0  0  0  0  0
   33.5250   25.5600   37.3590 F   0  0  0  0  0  0  0  0  0  0  0  0
   34.0830   25.4660   35.1400 F   0  0  0  0  0  0  0  0  0  0  0  0
  1 22  1  0  0  0  0
  2  7  1  0  0  0  0
  2  1  1  0  0  0  0
  3  2  2  0  0  0  0
  4  5  2  0  0  0  0
  4  3  1  0  0  0  0
  5  6  1  0  0  0  0
  6  1  2  0  0  0  0
  7  8  2  0  0  0  0
  7 18  1  0  0  0  0
  8 10  1  0  0  0  0
  9  8  1  0  0  0  0
 10 11  2  0  0  0  0
 11 12  1  0  0  0  0
 12 13  2  0  0  0  0
 13 14  1  0  0  0  0
 15 13  1  0  0  0  0
 16 15  2  0  0  0  0
 17 11  1  0  0  0  0
 17 16  1  0  0  0  0
 18 17  2  0  0  0  0
 19 20  1  0  0  0  0
 19  3  1  0  0  0  0
 21 19  1  0  0  0  0
 22 24  1  0  0  0  0
 23 32  1  0  0  0  0
 23 28  1  0  0  0  0
 24 25  1  0  0  0  0
 24 23  2  0  0  0  0
 25 26  2  0  0  0  0
 26 31  1  0  0  0  0
 26 27  1  0  0  0  0
 27 29  1  0  0  0  0
 28 27  2  0  0  0  0
 28 34  1  0  0  0  0
 30 29  1  0  0  0  0
 30 36  1  0  0  0  0
 31 30  1  0  0  0  0
 33 25  1  0  0  0  0
 35 30  1  0  0  0  0
 37 38  1  0  0  0  0
 37  5  1  0  0  0  0
 38 39  1  0  0  0  0
 38 40  1  0  0  0  0
 41 38  1  0  0  0  0
M  END
>  <minimizedAffinity>
-6.45995951

$$$$

 OpenBabel03242515443D

 41 45  0  0  0  0  0  0  0  0999 V2000
   37.1810   30.7110   39.9110 C   0  0  0  0  0  0  0  0  0  0  0  0
   36.8670   30.2390   38.6840 C   0  0  0  0  0  0  0  0  0  0  0  0
   37.5060   30.8690   37.5910 C   0  0  0  0  0  0  0  0  0  0  0  0
   38.3740   31.8890   37.8050 N   0  0  0  0  0  0  0  0  0  0  0  0
   38.6470   32.3210   39.0510 C   0  0  0  0  0  0  0  0  0  0  0  0
   38.0300   31.7000   40.0390 N   0  0  0  0  0  0  0  0  0  0  0  0
   36.0090   29.2270   38.0830 C   0  0  0  0  0  0  0  0  0  0  0  0
   36.7010   28.0100   38.2270 C   0  0  0  0  0  0  0  0  0  0  0  0
   37.6870   27.7840   38.6430 H   0  0  0  0  0  0  0  0  0  0  0  0
   36.1400   26.7970   37.8030 C   0  0  0  0  0  3  0  0  0  0  0  0
   34.8800   26.7820   37.2280 C   0  0  0  0  0  0  0  0  0  0  0  0
   34.2460   25.6840   36.7850 N   0  0  0  0  0  0  0  0  0  0  0  0
   33.0180   25.7810   36.2420 C   0  0  0  0  0  0  0  0  0  0  0  0
   32.5900   24.8450   35.9160 H   0  0  0  0  0  0  0  0  0  0  0  0
   32.3110   26.9700   36.0860 C   0  0  0  0  0  3  0  0  0  0  0  0
   32.9610   28.1230   36.5420 C   0  0  0  0  0  3  0  0  0  0  0  0
   34.2170   27.9800   37.0930 C   0  0  0  0  0  0  0  0  0  0  0  0
   34.7680   29.1660   37.5100 C   0  0  0  0  0  3  0  0  0  0  0  0
   37.3060   30.4400   36.2400 N   0  0  0  0  0  0  0  0  0  0  0  0
   36.4230   30.4580   35.7230 H   0  0  0  0  0  0  0  0  0  0  0  0
   38.1720   30.0860   35.7960 H   0  0  0  0  0  0  0  0  0  0  0  0
   36.3460   29.8600   41.2730 S   0  0  0  0  0  0  0  0  0  0  0  0
   38.4580   29.0040   42.6500 C   0  0  0  0  0  0  0  0  0  0  0  0
   37.3490   28.5480   41.9180 C   0  0  0  0  0  0  0  0  0  0  0  0
   37.0830   27.1940   41.7610 C   0  0  0  0  0  0  0  0  0  0  0  0
   37.9130   26.2580   42.3310 C   0  0  0  0  0  0  0  0  0  0  0  0
   39.0240   26.6830   43.0660 C   0  0  0  0  0  0  0  0  0  0  0  0
   39.3070   28.0360   43.2330 C   0  0  0  0  0  0  0  0  0  0  0  0
   39.6920   25.5300   43.5310 O   0  0  0  0  0  0  0  0  0  0  0  0
   39.1910   24.4660   42.7980 C   0  0  0  0  0  0  0  0  0  0  0  0
   37.9110   24.8720   42.3570 O   0  0  0  0  0  0  0  0  0  0  0  0
   38.7100   30.0260   42.8030 H   0  0  0  0  0  0  0  0  0  0  0  0
   36.2120   26.9250   41.1820 H   0  0  0  0  0  0  0  0  0  0  0  0
   40.1690   28.3080   43.8030 H   0  0  0  0  0  0  0  0  0  0  0  0
   39.8030   24.3530   41.8780 H   0  0  0  0  0  0  0  0  0  0  0  0
   39.1700   23.4890   43.3170 H   0  0  0  0  0  0  0  0  0  0  0  0
   39.5020   33.3460   39.3760 O   0  0  0  0  0  0  0  0  0  0  0  0
   40.8800   33.1440   39.1740 C   0  0  0  0  0  0  0  0  0  0  0  0
   41.2380   31.8210   39.3220 F   0  0  0  0  0  0  0  0  0  0  0  0
   41.1660   33.6070   37.8810 F   0  0  0  0  0  0  0  0  0  0  0  0
   41.5650   33.8890   40.1180 F   0  0  0  0  0  0  0  0  0  0  0  0
  1  6  1  0  0  0  0
  1 22  1  0  0  0  0
  2  1  2  0  0  0  0
  3  4  2  0  0  0  0
  3  2  1  0  0  0  0
  4  5  1  0  0  0  0
  5 37  1  0  0  0  0
  5  6  2  0  0  0  0
  7  8  1  0  0  0  0
  7  2  1  0  0  0  0
  8  9  1  0  0  0  0
 10  8  2  0  0  0  0
 11 10  1  0  0  0  0
 12 11  2  0  0  0  0
 13 12  1  0  0  0  0
 14 13  1  0  0  0  0
 15 13  2  0  0  0  0
 15 16  1  0  0  0  0
 16 17  2  0  0  0  0
 17 11  1  0  0  0  0
 17 18  1  0  0  0  0
 18  7  2  0  0  0  0
 19  3  1  0  0  0  0
 20 19  1  0  0  0  0
 21 19  1  0  0  0  0
 22 24  1  0  0  0  0
 23 32  1  0  0  0  0
 23 28  1  0  0  0  0
 24 23  2  0  0  0  0
 25 24  1  0  0  0  0
 25 26  2  0  0  0  0
 26 31  1  0  0  0  0
 26 27  1  0  0  0  0
 27 28  2  0  0  0  0
 27 29  1  0  0  0  0
 28 34  1  0  0  0  0
 30 36  1  0  0  0  0
 30 29  1  0  0  0  0
 31 30  1  0  0  0  0
 33 25  1  0  0  0  0
 35 30  1  0  0  0  0
 38 39  1  0  0  0  0
 38 37  1  0  0  0  0
 38 41  1  0  0  0  0
 40 38  1  0  0  0  0
M  END
>  <minimizedAffinity>
-6.44972706

$$$$

 OpenBabel03242515443D

 41 45  0  0  0  0  0  0  0  0999 V2000
   36.9570   28.4950   41.1430 C   0  0  0  0  0  0  0  0  0  0  0  0
   36.4040   27.9490   40.0380 C   0  0  0  0  0  0  0  0  0  0  0  0
   36.5590   26.5510   39.8890 C   0  0  0  0  0  0  0  0  0  0  0  0
   37.2360   25.8370   40.8230 N   0  0  0  0  0  0  0  0  0  0  0  0
   37.7690   26.4360   41.9050 C   0  0  0  0  0  0  0  0  0  0  0  0
   37.5950   27.7410   42.0030 N   0  0  0  0  0  0  0  0  0  0  0  0
   35.6600   28.3690   38.8580 C   0  0  0  0  0  0  0  0  0  0  0  0
   36.6140   28.4830   37.8300 C   0  0  0  0  0  0  0  0  0  0  0  0
   37.6990   28.3500   37.8330 H   0  0  0  0  0  0  0  0  0  0  0  0
   36.2390   28.8220   36.5220 C   0  0  0  0  0  3  0  0  0  0  0  0
   34.9070   29.0520   36.2220 C   0  0  0  0  0  0  0  0  0  0  0  0
   34.4340   29.3820   35.0090 N   0  0  0  0  0  0  0  0  0  0  0  0
   33.1160   29.5840   34.8260 C   0  0  0  0  0  0  0  0  0  0  0  0
   32.8320   29.8450   33.8160 H   0  0  0  0  0  0  0  0  0  0  0  0
   32.1510   29.4780   35.8230 C   0  0  0  0  0  3  0  0  0  0  0  0
   32.6300   29.1360   37.0930 C   0  0  0  0  0  3  0  0  0  0  0  0
   33.9870   28.9370   37.2380 C   0  0  0  0  0  0  0  0  0  0  0  0
   34.3550   28.6050   38.5180 C   0  0  0  0  0  3  0  0  0  0  0  0
   35.9830   25.8320   38.7920 N   0  0  0  0  0  0  0  0  0  0  0  0
   36.2110   25.9540   37.8020 H   0  0  0  0  0  0  0  0  0  0  0  0
   35.2760   25.1380   39.0920 H   0  0  0  0  0  0  0  0  0  0  0  0
   36.7170   30.2840   41.2900 S   0  0  0  0  0  0  0  0  0  0  0  0
   37.7940   32.5660   40.4420 C   0  0  0  0  0  0  0  0  0  0  0  0
   37.9480   31.1710   40.3730 C   0  0  0  0  0  0  0  0  0  0  0  0
   38.9900   30.5840   39.6670 C   0  0  0  0  0  0  0  0  0  0  0  0
   39.9090   31.3700   39.0140 C   0  0  0  0  0  0  0  0  0  0  0  0
   39.7820   32.7620   39.0670 C   0  0  0  0  0  0  0  0  0  0  0  0
   38.7430   33.3680   39.7670 C   0  0  0  0  0  0  0  0  0  0  0  0
   40.8450   33.3140   38.3200 O   0  0  0  0  0  0  0  0  0  0  0  0
   41.3700   32.2790   37.5640 C   0  0  0  0  0  0  0  0  0  0  0  0
   41.0330   31.0910   38.2520 O   0  0  0  0  0  0  0  0  0  0  0  0
   37.0170   33.0700   40.9650 H   0  0  0  0  0  0  0  0  0  0  0  0
   39.0360   29.5060   39.6610 H   0  0  0  0  0  0  0  0  0  0  0  0
   38.6900   34.4360   39.7750 H   0  0  0  0  0  0  0  0  0  0  0  0
   40.8230   32.2330   36.6000 H   0  0  0  0  0  0  0  0  0  0  0  0
   42.4520   32.3450   37.3400 H   0  0  0  0  0  0  0  0  0  0  0  0
   38.4740   25.8090   42.9030 O   0  0  0  0  0  0  0  0  0  0  0  0
   39.8790   25.8800   42.8630 C   0  0  0  0  0  0  0  0  0  0  0  0
   40.3710   26.8880   43.6640 F   0  0  0  0  0  0  0  0  0  0  0  0
   40.3540   24.6260   43.2740 F   0  0  0  0  0  0  0  0  0  0  0  0
   40.2570   26.1370   41.5570 F   0  0  0  0  0  0  0  0  0  0  0  0
  1 22  1  0  0  0  0
  1  6  1  0  0  0  0
  2  1  2  0  0  0  0
  3  2  1  0  0  0  0
  3  4  2  0  0  0  0
  4  5  1  0  0  0  0
  5  6  2  0  0  0  0
  5 37  1  0  0  0  0
  7  2  1  0  0  0  0
  8  9  1  0  0  0  0
  8  7  2  0  0  0  0
 10  8  1  0  0  0  0
 11 10  2  0  0  0  0
 11 17  1  0  0  0  0
 12 11  1  0  0  0  0
 13 12  2  0  0  0  0
 13 15  1  0  0  0  0
 14 13  1  0  0  0  0
 15 16  2  0  0  0  0
 16 17  1  0  0  0  0
 17 18  2  0  0  0  0
 18  7  1  0  0  0  0
 19 21  1  0  0  0  0
 19  3  1  0  0  0  0
 20 19  1  0  0  0  0
 23 32  1  0  0  0  0
 24 23  1  0  0  0  0
 24 22  1  0  0  0  0
 25 24  2  0  0  0  0
 26 27  2  0  0  0  0
 26 25  1  0  0  0  0
 27 28  1  0  0  0  0
 28 34  1  0  0  0  0
 28 23  2  0  0  0  0
 29 27  1  0  0  0  0
 30 31  1  0  0  0  0
 30 29  1  0  0  0  0
 31 26  1  0  0  0  0
 33 25  1  0  0  0  0
 35 30  1  0  0  0  0
 36 30  1  0  0  0  0
 38 37  1  0  0  0  0
 38 40  1  0  0  0  0
 38 39  1  0  0  0  0
 41 38  1  0  0  0  0
M  END
>  <minimizedAffinity>
-6.30095959

$$$$

 OpenBabel03242515443D

 41 45  0  0  0  0  0  0  0  0999 V2000
   35.0480   28.8000   36.5530 C   0  0  0  0  0  0  0  0  0  0  0  0
   34.8120   28.8620   37.8820 C   0  0  0  0  0  0  0  0  0  0  0  0
   33.4760   29.1180   38.2670 C   0  0  0  0  0  0  0  0  0  0  0  0
   32.5170   29.2920   37.3230 N   0  0  0  0  0  0  0  0  0  0  0  0
   32.8100   29.2220   36.0120 C   0  0  0  0  0  0  0  0  0  0  0  0
   34.0700   28.9770   35.7000 N   0  0  0  0  0  0  0  0  0  0  0  0
   35.5480   28.7570   39.1350 C   0  0  0  0  0  0  0  0  0  0  0  0
   35.7220   30.0790   39.5830 C   0  0  0  0  0  0  0  0  0  0  0  0
   35.4420   31.0370   39.1350 H   0  0  0  0  0  0  0  0  0  0  0  0
   36.3510   30.3590   40.8050 C   0  0  0  0  0  3  0  0  0  0  0  0
   36.8160   29.3220   41.5960 C   0  0  0  0  0  0  0  0  0  0  0  0
   37.4320   29.4690   42.7800 N   0  0  0  0  0  0  0  0  0  0  0  0
   37.8450   28.3900   43.4700 C   0  0  0  0  0  0  0  0  0  0  0  0
   38.3290   28.6100   44.4110 H   0  0  0  0  0  0  0  0  0  0  0  0
   37.6860   27.0720   43.0520 C   0  0  0  0  0  3  0  0  0  0  0  0
   37.0460   26.9030   41.8190 C   0  0  0  0  0  3  0  0  0  0  0  0
   36.6380   28.0340   41.1430 C   0  0  0  0  0  0  0  0  0  0  0  0
   36.0220   27.7630   39.9480 C   0  0  0  0  0  3  0  0  0  0  0  0
   33.0730   29.1620   39.6400 N   0  0  0  0  0  0  0  0  0  0  0  0
   33.3940   29.8300   40.3450 H   0  0  0  0  0  0  0  0  0  0  0  0
   32.3900   28.4230   39.8840 H   0  0  0  0  0  0  0  0  0  0  0  0
   36.7710   28.4560   36.1170 S   0  0  0  0  0  0  0  0  0  0  0  0
   37.5460   30.9230   36.7520 C   0  0  0  0  0  0  0  0  0  0  0  0
   37.8750   29.5710   36.9440 C   0  0  0  0  0  0  0  0  0  0  0  0
   38.9490   29.1850   37.7350 C   0  0  0  0  0  0  0  0  0  0  0  0
   39.7240   30.1340   38.3570 C   0  0  0  0  0  0  0  0  0  0  0  0
   39.4200   31.4880   38.1840 C   0  0  0  0  0  0  0  0  0  0  0  0
   38.3480   31.8950   37.3940 C   0  0  0  0  0  0  0  0  0  0  0  0
   40.3640   32.2320   38.9240 O   0  0  0  0  0  0  0  0  0  0  0  0
   41.3950   31.3610   39.2310 C   0  0  0  0  0  0  0  0  0  0  0  0
   40.8300   30.0660   39.1910 O   0  0  0  0  0  0  0  0  0  0  0  0
   36.7380   31.2770   36.1580 H   0  0  0  0  0  0  0  0  0  0  0  0
   39.1360   28.1250   37.8310 H   0  0  0  0  0  0  0  0  0  0  0  0
   38.1600   32.9420   37.2930 H   0  0  0  0  0  0  0  0  0  0  0  0
   42.1380   31.3890   38.4070 H   0  0  0  0  0  0  0  0  0  0  0  0
   41.9290   31.5590   40.1810 H   0  0  0  0  0  0  0  0  0  0  0  0
   31.9190   29.3870   34.9790 O   0  0  0  0  0  0  0  0  0  0  0  0
   31.6990   30.6910   34.4990 C   0  0  0  0  0  0  0  0  0  0  0  0
   32.8610   31.2810   34.0490 F   0  0  0  0  0  0  0  0  0  0  0  0
   30.7520   30.5840   33.4700 F   0  0  0  0  0  0  0  0  0  0  0  0
   31.1990   31.4530   35.5400 F   0  0  0  0  0  0  0  0  0  0  0  0
  1  2  1  0  0  0  0
  2  3  2  0  0  0  0
  2  7  1  0  0  0  0
  3 19  1  0  0  0  0
  4  3  1  0  0  0  0
  5  4  2  0  0  0  0
  6  5  1  0  0  0  0
  6  1  2  0  0  0  0
  7  8  2  0  0  0  0
  7 18  1  0  0  0  0
  8 10  1  0  0  0  0
  9  8  1  0  0  0  0
 10 11  2  0  0  0  0
 11 12  1  0  0  0  0
 12 13  2  0  0  0  0
 13 14  1  0  0  0  0
 15 13  1  0  0  0  0
 16 15  2  0  0  0  0
 17 11  1  0  0  0  0
 17 16  1  0  0  0  0
 18 17  2  0  0  0  0
 19 21  1  0  0  0  0
 19 20  1  0  0  0  0
 22  1  1  0  0  0  0
 22 24  1  0  0  0  0
 23 24  2  0  0  0  0
 23 28  1  0  0  0  0
 24 25  1  0  0  0  0
 25 33  1  0  0  0  0
 25 26  2  0  0  0  0
 26 31  1  0  0  0  0
 27 26  1  0  0  0  0
 27 29  1  0  0  0  0
 28 27  2  0  0  0  0
 29 30  1  0  0  0  0
 30 36  1  0  0  0  0
 31 30  1  0  0  0  0
 32 23  1  0  0  0  0
 34 28  1  0  0  0  0
 35 30  1  0  0  0  0
 37  5  1  0  0  0  0
 38 37  1  0  0  0  0
 38 41  1  0  0  0  0
 39 38  1  0  0  0  0
 40 38  1  0  0  0  0
M  END
>  <minimizedAffinity>
-6.29036283

$$$$

 OpenBabel03242515443D

 41 45  0  0  0  0  0  0  0  0999 V2000
   37.8470   30.7260   40.1220 C   0  0  0  0  0  0  0  0  0  0  0  0
   37.5140   30.0600   38.9940 C   0  0  0  0  0  0  0  0  0  0  0  0
   38.0940   30.5360   37.7950 C   0  0  0  0  0  0  0  0  0  0  0  0
   38.9280   31.6060   37.8200 N   0  0  0  0  0  0  0  0  0  0  0  0
   39.2210   32.2330   38.9740 C   0  0  0  0  0  0  0  0  0  0  0  0
   38.6600   31.7520   40.0670 N   0  0  0  0  0  0  0  0  0  0  0  0
   36.6790   28.9400   38.5850 C   0  0  0  0  0  0  0  0  0  0  0  0
   35.4550   29.5070   38.1830 C   0  0  0  0  0  0  0  0  0  0  0  0
   35.1040   30.5430   38.1850 H   0  0  0  0  0  0  0  0  0  0  0  0
   34.4170   28.7150   37.6710 C   0  0  0  0  0  3  0  0  0  0  0  0
   34.5860   27.3460   37.5530 C   0  0  0  0  0  0  0  0  0  0  0  0
   33.6640   26.4920   37.0790 N   0  0  0  0  0  0  0  0  0  0  0  0
   33.9330   25.1750   37.0060 C   0  0  0  0  0  0  0  0  0  0  0  0
   33.1300   24.5690   36.6110 H   0  0  0  0  0  0  0  0  0  0  0  0
   35.1320   24.5870   37.3960 C   0  0  0  0  0  3  0  0  0  0  0  0
   36.1020   25.4650   37.8930 C   0  0  0  0  0  3  0  0  0  0  0  0
   35.7880   26.8060   37.9510 C   0  0  0  0  0  0  0  0  0  0  0  0
   36.8030   27.5830   38.4510 C   0  0  0  0  0  3  0  0  0  0  0  0
   37.8690   29.8980   36.5340 N   0  0  0  0  0  0  0  0  0  0  0  0
   36.9710   29.8060   36.0520 H   0  0  0  0  0  0  0  0  0  0  0  0
   38.7350   29.5100   36.1170 H   0  0  0  0  0  0  0  0  0  0  0  0
   37.0880   30.0670   41.6280 S   0  0  0  0  0  0  0  0  0  0  0  0
   36.6620   27.4890   42.1390 C   0  0  0  0  0  0  0  0  0  0  0  0
   37.6870   28.4370   41.9850 C   0  0  0  0  0  0  0  0  0  0  0  0
   39.0270   28.0870   42.0840 C   0  0  0  0  0  0  0  0  0  0  0  0
   39.3830   26.7830   42.3350 C   0  0  0  0  0  0  0  0  0  0  0  0
   38.3830   25.8180   42.4910 C   0  0  0  0  0  0  0  0  0  0  0  0
   37.0350   26.1500   42.3980 C   0  0  0  0  0  0  0  0  0  0  0  0
   39.0210   24.5830   42.7370 O   0  0  0  0  0  0  0  0  0  0  0  0
   40.3340   24.8800   43.0650 C   0  0  0  0  0  0  0  0  0  0  0  0
   40.6010   26.1380   42.4810 O   0  0  0  0  0  0  0  0  0  0  0  0
   35.6210   27.6990   42.0750 H   0  0  0  0  0  0  0  0  0  0  0  0
   39.7550   28.8750   41.9550 H   0  0  0  0  0  0  0  0  0  0  0  0
   36.3110   25.3750   42.5270 H   0  0  0  0  0  0  0  0  0  0  0  0
   40.3960   25.0390   44.1610 H   0  0  0  0  0  0  0  0  0  0  0  0
   41.0860   24.1160   42.7870 H   0  0  0  0  0  0  0  0  0  0  0  0
   40.0460   33.3240   39.1080 O   0  0  0  0  0  0  0  0  0  0  0  0
   41.3580   33.1070   39.5680 C   0  0  0  0  0  0  0  0  0  0  0  0
   42.2650   33.9520   38.9670 F   0  0  0  0  0  0  0  0  0  0  0  0
   41.3300   33.2950   40.9580 F   0  0  0  0  0  0  0  0  0  0  0  0
   41.7080   31.8030   39.2630 F   0  0  0  0  0  0  0  0  0  0  0  0
  1 22  1  0  0  0  0
  2  1  2  0  0  0  0
  3  4  2  0  0  0  0
  3  2  1  0  0  0  0
  4  5  1  0  0  0  0
  5 37  1  0  0  0  0
  5  6  2  0  0  0  0
  6  1  1  0  0  0  0
  7  2  1  0  0  0  0
  8  9  1  0  0  0  0
  8  7  2  0  0  0  0
 10  8  1  0  0  0  0
 11 10  2  0  0  0  0
 11 17  1  0  0  0  0
 12 11  1  0  0  0  0
 13 12  2  0  0  0  0
 13 15  1  0  0  0  0
 14 13  1  0  0  0  0
 15 16  2  0  0  0  0
 16 17  1  0  0  0  0
 17 18  2  0  0  0  0
 18  7  1  0  0  0  0
 19  3  1  0  0  0  0
 20 19  1  0  0  0  0
 21 19  1  0  0  0  0
 22 24  1  0  0  0  0
 23 28  1  0  0  0  0
 24 25  1  0  0  0  0
 24 23  2  0  0  0  0
 25 26  2  0  0  0  0
 26 31  1  0  0  0  0
 26 27  1  0  0  0  0
 27 29  1  0  0  0  0
 28 27  2  0  0  0  0
 28 34  1  0  0  0  0
 29 30  1  0  0  0  0
 30 35  1  0  0  0  0
 31 30  1  0  0  0  0
 32 23  1  0  0  0  0
 33 25  1  0  0  0  0
 36 30  1  0  0  0  0
 37 38  1  0  0  0  0
 38 40  1  0  0  0  0
 39 38  1  0  0  0  0
 41 38  1  0  0  0  0
M  END
>  <minimizedAffinity>
-6.19952583

$$$$

 OpenBabel03242515443D

 41 45  0  0  0  0  0  0  0  0999 V2000
   36.7060   30.1190   39.6110 C   0  0  0  0  0  0  0  0  0  0  0  0
   37.7680   30.7660   39.0800 C   0  0  0  0  0  0  0  0  0  0  0  0
   37.8080   30.8470   37.6690 C   0  0  0  0  0  0  0  0  0  0  0  0
   36.8180   30.2900   36.9270 N   0  0  0  0  0  0  0  0  0  0  0  0
   35.7840   29.6550   37.5090 C   0  0  0  0  0  0  0  0  0  0  0  0
   35.7880   29.6070   38.8290 N   0  0  0  0  0  0  0  0  0  0  0  0
   38.9790   31.4400   39.5270 C   0  0  0  0  0  0  0  0  0  0  0  0
   38.6210   32.7910   39.6900 C   0  0  0  0  0  0  0  0  0  0  0  0
   37.6810   33.3170   39.5030 H   0  0  0  0  0  0  0  0  0  0  0  0
   39.5400   33.7370   40.1690 C   0  0  0  0  0  3  0  0  0  0  0  0
   40.8290   33.3460   40.4910 C   0  0  0  0  0  0  0  0  0  0  0  0
   41.7900   34.1610   40.9560 N   0  0  0  0  0  0  0  0  0  0  0  0
   43.0130   33.6770   41.2400 C   0  0  0  0  0  0  0  0  0  0  0  0
   43.7170   34.4080   41.6080 H   0  0  0  0  0  0  0  0  0  0  0  0
   43.3940   32.3470   41.0890 C   0  0  0  0  0  3  0  0  0  0  0  0
   42.4030   31.4860   40.6040 C   0  0  0  0  0  3  0  0  0  0  0  0
   41.1630   32.0210   40.3260 C   0  0  0  0  0  0  0  0  0  0  0  0
   40.2620   31.0980   39.8580 C   0  0  0  0  0  3  0  0  0  0  0  0
   38.8470   31.5440   36.9740 N   0  0  0  0  0  0  0  0  0  0  0  0
   39.8430   31.3090   36.9790 H   0  0  0  0  0  0  0  0  0  0  0  0
   38.4980   32.3550   36.4330 H   0  0  0  0  0  0  0  0  0  0  0  0
   36.6990   30.0570   41.4200 S   0  0  0  0  0  0  0  0  0  0  0  0
   38.8690   29.1280   42.6510 C   0  0  0  0  0  0  0  0  0  0  0  0
   37.6870   28.7110   42.0170 C   0  0  0  0  0  0  0  0  0  0  0  0
   37.3480   27.3690   41.9120 C   0  0  0  0  0  0  0  0  0  0  0  0
   38.1750   26.4050   42.4380 C   0  0  0  0  0  0  0  0  0  0  0  0
   39.3590   26.7910   43.0770 C   0  0  0  0  0  0  0  0  0  0  0  0
   39.7160   28.1320   43.1900 C   0  0  0  0  0  0  0  0  0  0  0  0
   40.0060   25.6170   43.5160 O   0  0  0  0  0  0  0  0  0  0  0  0
   39.4020   24.5640   42.8480 C   0  0  0  0  0  0  0  0  0  0  0  0
   38.1120   25.0220   42.4970 O   0  0  0  0  0  0  0  0  0  0  0  0
   39.1800   30.1400   42.7600 H   0  0  0  0  0  0  0  0  0  0  0  0
   36.4240   27.1300   41.4080 H   0  0  0  0  0  0  0  0  0  0  0  0
   40.6310   28.3740   43.6860 H   0  0  0  0  0  0  0  0  0  0  0  0
   39.9350   24.4030   41.8880 H   0  0  0  0  0  0  0  0  0  0  0  0
   39.3760   23.6000   43.3910 H   0  0  0  0  0  0  0  0  0  0  0  0
   34.7380   29.0540   36.8530 O   0  0  0  0  0  0  0  0  0  0  0  0
   34.7650   27.6550   36.7080 C   0  0  0  0  0  0  0  0  0  0  0  0
   36.0440   27.1490   36.7960 F   0  0  0  0  0  0  0  0  0  0  0  0
   33.9410   27.1320   37.7160 F   0  0  0  0  0  0  0  0  0  0  0  0
   34.2590   27.3430   35.4590 F   0  0  0  0  0  0  0  0  0  0  0  0
  1 22  1  0  0  0  0
  2  7  1  0  0  0  0
  2  1  1  0  0  0  0
  3  2  2  0  0  0  0
  4  5  2  0  0  0  0
  4  3  1  0  0  0  0
  5  6  1  0  0  0  0
  6  1  2  0  0  0  0
  7  8  2  0  0  0  0
  7 18  1  0  0  0  0
  8 10  1  0  0  0  0
  9  8  1  0  0  0  0
 10 11  2  0  0  0  0
 11 12  1  0  0  0  0
 12 13  2  0  0  0  0
 13 14  1  0  0  0  0
 15 13  1  0  0  0  0
 16 15  2  0  0  0  0
 17 11  1  0  0  0  0
 17 16  1  0  0  0  0
 18 17  2  0  0  0  0
 19 20  1  0  0  0  0
 19  3  1  0  0  0  0
 21 19  1  0  0  0  0
 22 24  1  0  0  0  0
 23 32  1  0  0  0  0
 23 28  1  0  0  0  0
 24 23  2  0  0  0  0
 25 24  1  0  0  0  0
 25 26  2  0  0  0  0
 26 31  1  0  0  0  0
 26 27  1  0  0  0  0
 27 28  2  0  0  0  0
 27 29  1  0  0  0  0
 28 34  1  0  0  0  0
 30 36  1  0  0  0  0
 30 29  1  0  0  0  0
 31 30  1  0  0  0  0
 33 25  1  0  0  0  0
 35 30  1  0  0  0  0
 37  5  1  0  0  0  0
 38 39  1  0  0  0  0
 38 37  1  0  0  0  0
 38 40  1  0  0  0  0
 41 38  1  0  0  0  0
M  END
>  <minimizedAffinity>
-6.17866564

$$$$

 OpenBabel03242515443D

 41 45  0  0  0  0  0  0  0  0999 V2000
   36.3120   29.2720   38.6350 C   0  0  0  0  0  0  0  0  0  0  0  0
   36.9830   28.1030   38.7290 C   0  0  0  0  0  0  0  0  0  0  0  0
   37.0910   27.3480   37.5380 C   0  0  0  0  0  0  0  0  0  0  0  0
   36.5320   27.8050   36.3890 N   0  0  0  0  0  0  0  0  0  0  0  0
   35.8710   28.9770   36.3550 C   0  0  0  0  0  0  0  0  0  0  0  0
   35.8000   29.6490   37.4890 N   0  0  0  0  0  0  0  0  0  0  0  0
   37.6670   27.3070   39.7390 C   0  0  0  0  0  0  0  0  0  0  0  0
   36.7060   26.3980   40.2180 C   0  0  0  0  0  0  0  0  0  0  0  0
   35.6470   26.2730   39.9780 H   0  0  0  0  0  0  0  0  0  0  0  0
   37.0340   25.4270   41.1760 C   0  0  0  0  0  3  0  0  0  0  0  0
   38.3260   25.3510   41.6680 C   0  0  0  0  0  0  0  0  0  0  0  0
   38.7530   24.4660   42.5850 N   0  0  0  0  0  0  0  0  0  0  0  0
   40.0340   24.4790   42.9950 C   0  0  0  0  0  0  0  0  0  0  0  0
   40.2820   23.7290   43.7330 H   0  0  0  0  0  0  0  0  0  0  0  0
   41.0050   25.3650   42.5390 C   0  0  0  0  0  3  0  0  0  0  0  0
   40.5740   26.2930   41.5840 C   0  0  0  0  0  3  0  0  0  0  0  0
   39.2540   26.2470   41.1900 C   0  0  0  0  0  0  0  0  0  0  0  0
   38.9310   27.1960   40.2520 C   0  0  0  0  0  3  0  0  0  0  0  0
   37.8150   26.1150   37.4800 N   0  0  0  0  0  0  0  0  0  0  0  0
   37.5950   25.2570   37.9930 H   0  0  0  0  0  0  0  0  0  0  0  0
   38.6300   26.1550   36.8420 H   0  0  0  0  0  0  0  0  0  0  0  0
   36.2170   30.2040   40.1840 S   0  0  0  0  0  0  0  0  0  0  0  0
   37.2130   32.6510   39.8550 C   0  0  0  0  0  0  0  0  0  0  0  0
   37.5500   31.3670   40.3140 C   0  0  0  0  0  0  0  0  0  0  0  0
   38.8040   31.0820   40.8370 C   0  0  0  0  0  0  0  0  0  0  0  0
   39.7570   32.0690   40.9200 C   0  0  0  0  0  0  0  0  0  0  0  0
   39.4500   33.3580   40.4700 C   0  0  0  0  0  0  0  0  0  0  0  0
   38.1980   33.6610   39.9410 C   0  0  0  0  0  0  0  0  0  0  0  0
   40.5940   34.1600   40.6690 O   0  0  0  0  0  0  0  0  0  0  0  0
   41.6470   33.2900   40.8970 C   0  0  0  0  0  0  0  0  0  0  0  0
   41.0630   32.0980   41.3840 O   0  0  0  0  0  0  0  0  0  0  0  0
   36.2710   32.9250   39.4450 H   0  0  0  0  0  0  0  0  0  0  0  0
   38.9840   30.0700   41.1670 H   0  0  0  0  0  0  0  0  0  0  0  0
   38.0150   34.6610   39.6110 H   0  0  0  0  0  0  0  0  0  0  0  0
   42.1020   33.0230   39.9210 H   0  0  0  0  0  0  0  0  0  0  0  0
   42.4510   33.6670   41.5580 H   0  0  0  0  0  0  0  0  0  0  0  0
   35.2670   29.5270   35.2500 O   0  0  0  0  0  0  0  0  0  0  0  0
   36.0640   30.2830   34.3700 C   0  0  0  0  0  0  0  0  0  0  0  0
   35.3060   31.0720   33.5330 F   0  0  0  0  0  0  0  0  0  0  0  0
   36.9150   31.0610   35.1700 F   0  0  0  0  0  0  0  0  0  0  0  0
   36.7990   29.4040   33.5950 F   0  0  0  0  0  0  0  0  0  0  0  0
  1  2  1  0  0  0  0
  1 22  1  0  0  0  0
  2  7  1  0  0  0  0
  3  2  2  0  0  0  0
  4  3  1  0  0  0  0
  5  4  2  0  0  0  0
  5  6  1  0  0  0  0
  6  1  2  0  0  0  0
  7  8  2  0  0  0  0
  7 18  1  0  0  0  0
  8 10  1  0  0  0  0
  9  8  1  0  0  0  0
 10 11  2  0  0  0  0
 11 12  1  0  0  0  0
 12 13  2  0  0  0  0
 13 14  1  0  0  0  0
 15 13  1  0  0  0  0
 16 15  2  0  0  0  0
 17 16  1  0  0  0  0
 17 11  1  0  0  0  0
 18 17  2  0  0  0  0
 19  3  1  0  0  0  0
 19 20  1  0  0  0  0
 21 19  1  0  0  0  0
 22 24  1  0  0  0  0
 23 28  2  0  0  0  0
 23 24  1  0  0  0  0
 24 25  2  0  0  0  0
 25 26  1  0  0  0  0
 25 33  1  0  0  0  0
 26 31  1  0  0  0  0
 27 29  1  0  0  0  0
 27 26  2  0  0  0  0
 28 27  1  0  0  0  0
 29 30  1  0  0  0  0
 30 31  1  0  0  0  0
 30 36  1  0  0  0  0
 32 23  1  0  0  0  0
 34 28  1  0  0  0  0
 35 30  1  0  0  0  0
 37  5  1  0  0  0  0
 38 40  1  0  0  0  0
 38 37  1  0  0  0  0
 39 38  1  0  0  0  0
 41 38  1  0  0  0  0
M  END
>  <minimizedAffinity>
-6.1632719

$$$$

 OpenBabel03242515443D

 41 45  0  0  0  0  0  0  0  0999 V2000
   35.0630   27.6490   37.3190 C   0  0  0  0  0  0  0  0  0  0  0  0
   33.7860   27.8030   36.9030 C   0  0  0  0  0  0  0  0  0  0  0  0
   33.0900   26.6170   36.5740 C   0  0  0  0  0  0  0  0  0  0  0  0
   33.7070   25.4130   36.6790 N   0  0  0  0  0  0  0  0  0  0  0  0
   34.9830   25.3200   37.0960 C   0  0  0  0  0  0  0  0  0  0  0  0
   35.5910   26.4530   37.3950 N   0  0  0  0  0  0  0  0  0  0  0  0
   32.8330   28.8760   36.6530 C   0  0  0  0  0  0  0  0  0  0  0  0
   33.0270   29.2470   35.3090 C   0  0  0  0  0  0  0  0  0  0  0  0
   33.7390   28.8960   34.5580 H   0  0  0  0  0  0  0  0  0  0  0  0
   32.2320   30.2310   34.7030 C   0  0  0  0  0  3  0  0  0  0  0  0
   31.2330   30.8570   35.4290 C   0  0  0  0  0  0  0  0  0  0  0  0
   30.4140   31.8100   34.9540 N   0  0  0  0  0  0  0  0  0  0  0  0
   29.4730   32.3540   35.7480 C   0  0  0  0  0  0  0  0  0  0  0  0
   28.8630   33.1110   35.2760 H   0  0  0  0  0  0  0  0  0  0  0  0
   29.2590   32.0060   37.0790 C   0  0  0  0  0  3  0  0  0  0  0  0
   30.1060   31.0150   37.5870 C   0  0  0  0  0  3  0  0  0  0  0  0
   31.0570   30.4830   36.7420 C   0  0  0  0  0  0  0  0  0  0  0  0
   31.8350   29.5200   37.3330 C   0  0  0  0  0  3  0  0  0  0  0  0
   31.7170   26.6260   36.1670 N   0  0  0  0  0  0  0  0  0  0  0  0
   31.3370   27.0710   35.3280 H   0  0  0  0  0  0  0  0  0  0  0  0
   31.0980   26.1190   36.8240 H   0  0  0  0  0  0  0  0  0  0  0  0
   35.9010   29.1970   37.7390 S   0  0  0  0  0  0  0  0  0  0  0  0
   37.1380   30.3580   39.7920 C   0  0  0  0  0  0  0  0  0  0  0  0
   36.4520   29.1880   39.4250 C   0  0  0  0  0  0  0  0  0  0  0  0
   36.2220   28.1610   40.3310 C   0  0  0  0  0  0  0  0  0  0  0  0
   36.6680   28.2710   41.6260 C   0  0  0  0  0  0  0  0  0  0  0  0
   37.3540   29.4240   42.0200 C   0  0  0  0  0  0  0  0  0  0  0  0
   37.5950   30.4640   41.1250 C   0  0  0  0  0  0  0  0  0  0  0  0
   37.6920   29.2730   43.3810 O   0  0  0  0  0  0  0  0  0  0  0  0
   37.5220   27.9310   43.6800 C   0  0  0  0  0  0  0  0  0  0  0  0
   36.5920   27.4420   42.7350 O   0  0  0  0  0  0  0  0  0  0  0  0
   37.3430   31.1750   39.1420 H   0  0  0  0  0  0  0  0  0  0  0  0
   35.6880   27.2940   39.9700 H   0  0  0  0  0  0  0  0  0  0  0  0
   38.1250   31.3230   41.4760 H   0  0  0  0  0  0  0  0  0  0  0  0
   38.4730   27.3990   43.4670 H   0  0  0  0  0  0  0  0  0  0  0  0
   37.2270   27.7020   44.7220 H   0  0  0  0  0  0  0  0  0  0  0  0
   35.7010   24.1560   37.2310 O   0  0  0  0  0  0  0  0  0  0  0  0
   35.3650   23.2930   38.2910 C   0  0  0  0  0  0  0  0  0  0  0  0
   34.1610   22.6560   38.0790 F   0  0  0  0  0  0  0  0  0  0  0  0
   36.4160   22.3710   38.4050 F   0  0  0  0  0  0  0  0  0  0  0  0
   35.2590   24.0520   39.4430 F   0  0  0  0  0  0  0  0  0  0  0  0
  1  6  1  0  0  0  0
  1 22  1  0  0  0  0
  2  1  2  0  0  0  0
  3  4  2  0  0  0  0
  3  2  1  0  0  0  0
  4  5  1  0  0  0  0
  5 37  1  0  0  0  0
  5  6  2  0  0  0  0
  7  2  1  0  0  0  0
  7 18  1  0  0  0  0
  8  7  2  0  0  0  0
  9  8  1  0  0  0  0
 10  8  1  0  0  0  0
 10 11  2  0  0  0  0
 11 17  1  0  0  0  0
 12 11  1  0  0  0  0
 12 13  2  0  0  0  0
 13 15  1  0  0  0  0
 14 13  1  0  0  0  0
 15 16  2  0  0  0  0
 17 18  2  0  0  0  0
 17 16  1  0  0  0  0
 19  3  1  0  0  0  0
 19 21  1  0  0  0  0
 20 19  1  0  0  0  0
 22 24  1  0  0  0  0
 23 28  1  0  0  0  0
 24 23  2  0  0  0  0
 24 25  1  0  0  0  0
 25 26  2  0  0  0  0
 26 27  1  0  0  0  0
 26 31  1  0  0  0  0
 27 29  1  0  0  0  0
 28 34  1  0  0  0  0
 28 27  2  0  0  0  0
 29 30  1  0  0  0  0
 30 36  1  0  0  0  0
 31 30  1  0  0  0  0
 32 23  1  0  0  0  0
 33 25  1  0  0  0  0
 35 30  1  0  0  0  0
 37 38  1  0  0  0  0
 38 40  1  0  0  0  0
 38 41  1  0  0  0  0
 39 38  1  0  0  0  0
M  END
>  <minimizedAffinity>
-6.1499896

$$$$
