
 OpenBabel03242518473D

 48 52  0  0  1  0  0  0  0  0999 V2000
   47.4010   32.9110   44.4120 C   0  0  2  0  0  0  0  0  0  0  0  0
   47.3820   33.3710   42.9980 C   0  0  1  0  0  0  0  0  0  0  0  0
   47.4000   32.2070   42.0060 C   0  0  0  0  0  0  0  0  0  0  0  0
   48.5200   31.4600   42.3800 O   0  0  0  0  0  0  0  0  0  0  0  0
   48.3020   30.7680   43.5530 C   0  0  0  0  0  0  0  0  0  0  0  0
   47.2610   31.3760   44.4410 C   0  0  1  0  0  0  0  0  0  0  0  0
   48.3770   33.1300   44.8630 H   0  0  0  0  0  0  0  0  0  0  0  0
   48.3090   33.9770   42.7850 H   0  0  0  0  0  0  0  0  0  0  0  0
   47.6290   32.6000   40.9960 H   0  0  0  0  0  0  0  0  0  0  0  0
   46.4600   31.6380   42.0380 H   0  0  0  0  0  0  0  0  0  0  0  0
   49.2470   30.7030   44.1600 H   0  0  0  0  0  0  0  0  0  0  0  0
   47.9750   29.7180   43.3450 H   0  0  0  0  0  0  0  0  0  0  0  0
   46.2170   31.2150   44.0950 H   0  0  0  0  0  0  0  0  0  0  0  0
   45.0060   36.1530   42.8410 C   0  0  0  0  0  0  0  0  0  0  0  0
   44.0150   35.7160   41.9130 C   0  0  0  0  0  0  0  0  0  0  0  0
   44.2250   34.4240   41.3620 C   0  0  0  0  0  0  0  0  0  0  0  0
   45.3110   33.7110   41.7340 N   0  0  0  0  0  0  0  0  0  0  0  0
   46.2120   34.1880   42.6200 C   0  0  0  0  0  0  0  0  0  0  0  0
   46.0580   35.4090   43.1710 N   0  0  0  0  0  0  0  0  0  0  0  0
   43.1660   36.2880   41.6300 H   0  0  0  0  0  0  0  0  0  0  0  0
   43.5200   34.0170   40.6500 H   0  0  0  0  0  0  0  0  0  0  0  0
   44.8240   37.3920   43.3850 O   0  0  0  0  0  0  0  0  0  0  0  0
   45.5720   38.0840   43.4640 H   0  0  0  0  0  0  0  0  0  0  0  0
   46.3810   33.4510   45.1950 O   0  0  0  0  0  0  0  0  0  0  0  0
   46.7680   34.0440   45.8990 H   0  0  0  0  0  0  0  0  0  0  0  0
   47.3730   30.9950   45.7590 O   0  0  0  0  0  0  0  0  0  0  0  0
   47.0270   28.3310   45.4560 F   0  0  0  0  0  0  0  0  0  0  0  0
   46.4650   29.0790   46.4280 C   0  0  0  0  0  0  0  0  0  0  0  0
   46.5860   30.4350   46.6600 C   0  0  0  0  0  0  0  0  0  0  0  0
   45.8820   30.9090   47.7540 C   0  0  0  0  0  0  0  0  0  0  0  0
   45.0980   30.1640   48.6010 C   0  0  0  0  0  0  0  0  0  0  0  0
   45.0130   28.8330   48.3260 C   0  0  0  0  0  0  0  0  0  0  0  0
   45.6780   28.2620   47.2570 C   0  0  0  0  0  0  0  0  0  0  0  0
   46.0290   31.9990   47.8730 H   0  0  0  0  0  0  0  0  0  0  0  0
   44.6050   30.6460   49.4110 H   0  0  0  0  0  0  0  0  0  0  0  0
   44.3870   28.2360   49.0040 H   0  0  0  0  0  0  0  0  0  0  0  0
   45.4810   26.8220   47.1050 C   0  0  0  0  0  0  0  0  0  0  0  0
   46.3690   25.9930   47.7990 C   0  0  0  0  0  0  0  0  0  0  0  0
   47.1560   26.4450   48.4130 H   0  0  0  0  0  0  0  0  0  0  0  0
   46.3350   24.6110   47.7740 C   0  0  0  0  0  3  0  0  0  0  0  0
   45.3520   24.0200   47.0080 C   0  0  0  0  0  0  0  0  0  0  0  0
   45.2840   22.6780   46.9570 N   0  0  0  0  0  0  0  0  0  0  0  0
   44.3640   22.0150   46.2400 C   0  0  0  0  0  0  0  0  0  0  0  0
   44.3300   20.9350   46.2150 H   0  0  0  0  0  0  0  0  0  0  0  0
   43.4670   22.8130   45.5390 C   0  0  0  0  0  3  0  0  0  0  0  0
   43.4870   24.1920   45.5530 C   0  0  0  0  0  3  0  0  0  0  0  0
   44.4580   24.8110   46.3100 C   0  0  0  0  0  0  0  0  0  0  0  0
   44.5270   26.1800   46.3610 C   0  0  0  0  0  3  0  0  0  0  0  0
  1  6  1  0  0  0  0
  1  7  1  1  0  0  0
  1 24  1  0  0  0  0
  2  8  1  6  0  0  0
  2  1  1  0  0  0  0
  3 10  1  0  0  0  0
  3  4  1  0  0  0  0
  3  2  1  0  0  0  0
  4  5  1  0  0  0  0
  5 11  1  0  0  0  0
  5  6  1  0  0  0  0
  6 13  1  6  0  0  0
  6 26  1  0  0  0  0
  9  3  1  0  0  0  0
 12  5  1  0  0  0  0
 14 19  1  0  0  0  0
 14 22  1  0  0  0  0
 15 14  2  0  0  0  0
 16 17  2  0  0  0  0
 16 15  1  0  0  0  0
 17 18  1  0  0  0  0
 18  2  1  0  0  0  0
 18 19  2  0  0  0  0
 20 15  1  0  0  0  0
 21 16  1  0  0  0  0
 22 23  1  0  0  0  0
 24 25  1  0  0  0  0
 26 29  1  0  0  0  0
 27 28  1  0  0  0  0
 28 29  2  0  0  0  0
 28 33  1  0  0  0  0
 29 30  1  0  0  0  0
 30 34  1  0  0  0  0
 30 31  2  0  0  0  0
 31 35  1  0  0  0  0
 32 31  1  0  0  0  0
 32 36  1  0  0  0  0
 33 32  2  0  0  0  0
 37 33  1  0  0  0  0
 37 38  1  0  0  0  0
 38 39  1  0  0  0  0
 40 38  2  0  0  0  0
 41 40  1  0  0  0  0
 42 41  1  0  0  0  0
 43 42  2  0  0  0  0
 44 43  1  0  0  0  0
 45 46  2  0  0  0  0
 45 43  1  0  0  0  0
 46 47  1  0  0  0  0
 47 48  1  0  0  0  0
 47 41  2  0  0  0  0
 48 37  2  0  0  0  0
M  END
>  <minimizedAffinity>
-5.59472799

>  <minimizedRMSD>
2.22784233

$$$$
