
 OpenBabel03252509163D

 28 31  0  0  0  0  0  0  0  0999 V2000
   45.9270   33.1480   46.2240 C   0  0  0  0  0  0  0  0  0  0  0  0
   45.4280   32.9940   47.5430 C   0  0  0  0  0  0  0  0  0  0  0  0
   46.0880   32.1580   48.3780 C   0  0  0  0  0  0  0  0  0  0  0  0
   47.2390   31.4730   47.9160 C   0  0  0  0  0  0  0  0  0  0  0  0
   47.3870   32.0560   46.1920 S   0  0  0  0  0  0  0  0  0  0  0  0
   44.5490   33.5300   47.8670 H   0  0  0  0  0  0  0  0  0  0  0  0
   45.8430   31.9390   49.3790 H   0  0  0  0  0  0  0  0  0  0  0  0
   48.1380   30.5580   48.4970 C   0  0  0  0  0  0  0  0  0  0  0  0
   48.8340   30.9500   49.6200 C   0  0  0  0  0  0  0  0  0  0  0  0
   48.7330   31.9210   50.0850 H   0  0  0  0  0  0  0  0  0  0  0  0
   49.7170   30.0110   50.1680 C   0  0  0  0  0  3  0  0  0  0  0  0
   49.8640   28.7510   49.5850 C   0  0  0  0  0  0  0  0  0  0  0  0
   50.7400   27.8880   50.1690 N   0  0  0  0  0  0  0  0  0  0  0  0
   50.9370   26.6550   49.6660 C   0  0  0  0  0  0  0  0  0  0  0  0
   51.6290   26.0070   50.1490 H   0  0  0  0  0  0  0  0  0  0  0  0
   50.2180   26.2890   48.5300 C   0  0  0  0  0  3  0  0  0  0  0  0
   49.3280   27.1430   47.9210 C   0  0  0  0  0  3  0  0  0  0  0  0
   49.1410   28.4000   48.4530 C   0  0  0  0  0  0  0  0  0  0  0  0
   48.2540   29.3260   47.8910 C   0  0  0  0  0  3  0  0  0  0  0  0
   44.2710   35.9060   44.3670 C   0  0  0  0  0  0  0  0  0  0  0  0
   44.2670   35.3510   43.0630 C   0  0  0  0  0  0  0  0  0  0  0  0
   44.8270   34.0700   42.8860 C   0  0  0  0  0  0  0  0  0  0  0  0
   45.3460   33.4350   43.9900 N   0  0  0  0  0  0  0  0  0  0  0  0
   45.3220   34.0140   45.2120 C   0  0  0  0  0  0  0  0  0  0  0  0
   44.7870   35.2450   45.4050 N   0  0  0  0  0  0  0  0  0  0  0  0
   43.8420   36.8870   44.5050 H   0  0  0  0  0  0  0  0  0  0  0  0
   43.8630   35.8500   42.2080 H   0  0  0  0  0  0  0  0  0  0  0  0
   44.8650   33.5750   41.9250 H   0  0  0  0  0  0  0  0  0  0  0  0
  1  2  2  0  0  0  0
  2  6  1  0  0  0  0
  2  3  1  0  0  0  0
  3  7  1  0  0  0  0
  4  3  2  0  0  0  0
  4  8  1  0  0  0  0
  5  1  1  0  0  0  0
  5  4  1  0  0  0  0
  8  9  1  0  0  0  0
  9 10  1  0  0  0  0
  9 11  2  0  0  0  0
 12 11  1  0  0  0  0
 12 13  1  0  0  0  0
 14 15  1  0  0  0  0
 14 13  2  0  0  0  0
 16 14  1  0  0  0  0
 17 18  1  0  0  0  0
 17 16  2  0  0  0  0
 18 12  2  0  0  0  0
 19 18  1  0  0  0  0
 19  8  2  0  0  0  0
 20 26  1  0  0  0  0
 20 25  1  0  0  0  0
 21 20  2  0  0  0  0
 22 21  1  0  0  0  0
 22 23  2  0  0  0  0
 23 24  1  0  0  0  0
 24 25  2  0  0  0  0
 24  1  1  0  0  0  0
 27 21  1  0  0  0  0
 28 22  1  0  0  0  0
M  END
>  <minimizedAffinity>
-5.03210306

>  <minimizedRMSD>
1.33313251

$$$$
