
 OpenBabel03252501303D

 41 44  0  0  0  0  0  0  0  0999 V2000
   49.8670   30.3220   43.3440 C   0  0  0  0  0  0  0  0  0  0  0  0
   48.5980   30.4090   43.8560 C   0  0  0  0  0  0  0  0  0  0  0  0
   48.0950   29.5370   44.7830 C   0  0  0  0  0  0  0  0  0  0  0  0
   48.8730   28.5410   45.2220 C   0  0  0  0  0  0  0  0  0  0  0  0
   50.1810   28.4170   44.7260 C   0  0  0  0  0  0  0  0  0  0  0  0
   50.6710   29.3050   43.7940 C   0  0  0  0  0  0  0  0  0  0  0  0
   48.0160   31.2480   43.4510 H   0  0  0  0  0  0  0  0  0  0  0  0
   47.0750   29.7550   45.0760 H   0  0  0  0  0  0  0  0  0  0  0  0
   50.6600   27.5530   45.1980 H   0  0  0  0  0  0  0  0  0  0  0  0
   48.2650   27.6360   46.2200 C   0  0  0  0  0  0  0  0  0  0  0  0
   48.9730   26.6310   46.7810 C   0  0  0  0  0  0  0  0  0  0  0  0
   50.0160   26.4610   46.5140 H   0  0  0  0  0  0  0  0  0  0  0  0
   48.3700   25.8030   47.7110 C   0  0  0  0  0  0  0  0  0  0  0  0
   47.0440   25.9690   48.0930 C   0  0  0  0  0  0  0  0  0  0  0  0
   46.4910   25.1600   48.9870 N   0  0  0  0  0  0  0  0  0  0  0  0
   45.1910   25.3670   49.3250 C   0  0  0  0  0  0  0  0  0  0  0  0
   44.7430   24.7080   50.0510 H   0  0  0  0  0  0  0  0  0  0  0  0
   44.4050   26.3760   48.7890 C   0  0  0  0  0  0  0  0  0  0  0  0
   45.0240   27.1840   47.8710 C   0  0  0  0  0  0  0  0  0  0  0  0
   46.3410   27.0060   47.5030 C   0  0  0  0  0  0  0  0  0  0  0  0
   46.9260   27.8420   46.5730 C   0  0  0  0  0  0  0  0  0  0  0  0
   53.0070   29.5400   44.3660 C   0  0  0  0  0  0  0  0  0  0  0  0
   53.1000   30.4360   45.2850 O   0  0  0  0  0  0  0  0  0  0  0  0
   52.0180   28.8970   43.5470 N   0  0  0  0  0  0  0  0  0  0  0  0
   54.0990   29.4010   44.4150 H   0  0  0  0  0  0  0  0  0  0  0  0
   52.4500   28.2280   42.8970 H   0  0  0  0  0  0  0  0  0  0  0  0
   50.5230   31.1600   42.3320 C   0  0  0  0  0  0  0  0  0  0  0  0
   51.0360   31.9820   42.8520 H   0  0  0  0  0  0  0  0  0  0  0  0
   51.3310   30.5820   41.8080 H   0  0  0  0  0  0  0  0  0  0  0  0
   49.5420   31.6240   41.2790 C   0  0  0  0  0  0  0  0  0  0  0  0
   49.8680   31.3130   40.2650 H   0  0  0  0  0  0  0  0  0  0  0  0
   48.5750   31.1120   41.4510 H   0  0  0  0  0  0  0  0  0  0  0  0
   49.8420   35.0770   42.4650 C   0  0  0  0  0  0  0  0  0  0  0  0
   48.9780   35.7780   41.5870 C   0  0  0  0  0  0  0  0  0  0  0  0
   48.3250   35.0170   40.6100 C   0  0  0  0  0  0  0  0  0  0  0  0
   48.5310   33.6950   40.5390 N   0  0  0  0  0  0  0  0  0  0  0  0
   49.3690   33.0810   41.4060 C   0  0  0  0  0  0  0  0  0  0  0  0
   50.0090   33.7340   42.3410 N   0  0  0  0  0  0  0  0  0  0  0  0
   50.3440   35.6810   43.2190 H   0  0  0  0  0  0  0  0  0  0  0  0
   48.8370   36.8490   41.6760 H   0  0  0  0  0  0  0  0  0  0  0  0
   47.6570   35.5100   39.9180 H   0  0  0  0  0  0  0  0  0  0  0  0
  1  6  2  0  0  0  0
  1  2  1  0  0  0  0
  2  3  2  0  0  0  0
  3  8  1  0  0  0  0
  3  4  1  0  0  0  0
  4 10  1  0  0  0  0
  5  9  1  0  0  0  0
  5  4  2  0  0  0  0
  6  5  1  0  0  0  0
  7  2  1  0  0  0  0
 10 21  2  0  0  0  0
 10 11  1  0  0  0  0
 11 13  2  0  0  0  0
 12 11  1  0  0  0  0
 13 14  1  0  0  0  0
 14 15  1  0  0  0  0
 15 16  2  0  0  0  0
 16 17  1  0  0  0  0
 18 16  1  0  0  0  0
 19 18  2  0  0  0  0
 20 19  1  0  0  0  0
 20 14  2  0  0  0  0
 21 20  1  0  0  0  0
 22 25  1  0  0  0  0
 22 23  2  0  0  0  0
 24  6  1  0  0  0  0
 24 22  1  0  0  0  0
 26 24  1  0  0  0  0
 27 28  1  0  0  0  0
 27  1  1  0  0  0  0
 29 27  1  0  0  0  0
 30 37  1  0  0  0  0
 30 32  1  0  0  0  0
 30 27  1  0  0  0  0
 31 30  1  0  0  0  0
 33 39  1  0  0  0  0
 34 40  1  0  0  0  0
 34 33  2  0  0  0  0
 35 34  1  0  0  0  0
 36 35  2  0  0  0  0
 36 37  1  0  0  0  0
 37 38  2  0  0  0  0
 38 33  1  0  0  0  0
 41 35  1  0  0  0  0
M  END
>  <minimizedAffinity>
-4.4297266

>  <minimizedRMSD>
5.4805069

$$$$
