
 OpenBabel03252507273D

 30 33  0  0  0  0  0  0  0  0999 V2000
   44.1640   33.8460   41.3330 C   0  0  0  0  0  0  0  0  0  0  0  0
   43.0930   34.7310   41.2120 C   0  0  0  0  0  0  0  0  0  0  0  0
   42.3480   34.7030   40.0110 C   0  0  0  0  0  0  0  0  0  0  0  0
   42.7100   33.8090   39.0250 N   0  0  0  0  0  0  0  0  0  0  0  0
   43.7630   32.9770   39.2090 C   0  0  0  0  0  0  0  0  0  0  0  0
   44.4650   33.0000   40.3340 N   0  0  0  0  0  0  0  0  0  0  0  0
   42.8040   35.4220   41.9620 H   0  0  0  0  0  0  0  0  0  0  0  0
   41.5190   35.3590   39.8650 H   0  0  0  0  0  0  0  0  0  0  0  0
   44.9660   33.8340   42.5510 C   0  0  0  0  0  0  0  0  0  0  0  0
   44.7690   34.6330   43.6390 C   0  0  0  0  0  0  0  0  0  0  0  0
   43.9560   35.3440   43.6220 H   0  0  0  0  0  0  0  0  0  0  0  0
   45.5780   34.5610   44.7630 C   0  0  0  0  0  3  0  0  0  0  0  0
   46.6260   33.6690   44.8280 C   0  0  0  0  0  0  0  0  0  0  0  0
   47.4370   33.5650   45.8990 N   0  0  0  0  0  0  0  0  0  0  0  0
   48.4630   32.6720   45.9240 C   0  0  0  0  0  0  0  0  0  0  0  0
   49.1300   32.5670   46.7700 H   0  0  0  0  0  0  0  0  0  0  0  0
   48.7120   31.8290   44.8400 C   0  0  0  0  0  3  0  0  0  0  0  0
   47.9000   31.9110   43.7290 C   0  0  0  0  0  3  0  0  0  0  0  0
   46.8620   32.8460   43.7570 C   0  0  0  0  0  0  0  0  0  0  0  0
   46.0280   32.9600   42.6680 C   0  0  0  0  0  3  0  0  0  0  0  0
   44.1130   32.0460   38.1520 C   0  0  0  0  0  0  0  0  0  0  0  0
   44.9290   32.4230   37.1200 C   0  0  0  0  0  0  0  0  0  0  0  0
   45.3170   31.6200   36.0680 C   0  0  0  0  0  0  0  0  0  0  0  0
   44.7990   30.3330   36.1230 C   0  0  0  0  0  0  0  0  0  0  0  0
   43.9710   29.9150   37.1510 C   0  0  0  0  0  0  0  0  0  0  0  0
   43.6300   30.7780   38.1670 N   0  0  0  0  0  0  0  0  0  0  0  0
   45.2980   33.4450   37.1400 H   0  0  0  0  0  0  0  0  0  0  0  0
   45.9620   31.9940   35.2950 H   0  0  0  0  0  0  0  0  0  0  0  0
   45.0600   29.6420   35.3300 H   0  0  0  0  0  0  0  0  0  0  0  0
   43.5880   28.9000   37.1570 H   0  0  0  0  0  0  0  0  0  0  0  0
  1  9  1  0  0  0  0
  2  1  1  0  0  0  0
  2  7  1  0  0  0  0
  3  2  2  0  0  0  0
  4  5  2  0  0  0  0
  4  3  1  0  0  0  0
  5  6  1  0  0  0  0
  6  1  2  0  0  0  0
  8  3  1  0  0  0  0
  9 20  2  0  0  0  0
  9 10  1  0  0  0  0
 10 12  2  0  0  0  0
 11 10  1  0  0  0  0
 12 13  1  0  0  0  0
 13 14  1  0  0  0  0
 14 15  2  0  0  0  0
 15 16  1  0  0  0  0
 17 15  1  0  0  0  0
 18 19  1  0  0  0  0
 18 17  2  0  0  0  0
 19 13  2  0  0  0  0
 20 19  1  0  0  0  0
 21 26  1  0  0  0  0
 21  5  1  0  0  0  0
 22 27  1  0  0  0  0
 22 21  2  0  0  0  0
 23 24  2  0  0  0  0
 23 22  1  0  0  0  0
 24 25  1  0  0  0  0
 25 30  1  0  0  0  0
 25 26  2  0  0  0  0
 28 23  1  0  0  0  0
 29 24  1  0  0  0  0
M  END
>  <minimizedAffinity>
1.67644465

>  <minimizedRMSD>
5.43717289

$$$$
