
 OpenBabel03252507273D

 30 33  0  0  0  0  0  0  0  0999 V2000
   45.4840   33.9310   45.1370 C   0  0  0  0  0  0  0  0  0  0  0  0
   44.7340   35.0590   45.4680 C   0  0  0  0  0  0  0  0  0  0  0  0
   44.7360   36.1430   44.5600 C   0  0  0  0  0  0  0  0  0  0  0  0
   45.4740   36.0340   43.3990 N   0  0  0  0  0  0  0  0  0  0  0  0
   46.1810   34.9090   43.1400 C   0  0  0  0  0  0  0  0  0  0  0  0
   46.1820   33.8910   43.9890 N   0  0  0  0  0  0  0  0  0  0  0  0
   44.1630   35.1540   46.3560 H   0  0  0  0  0  0  0  0  0  0  0  0
   44.1800   37.0290   44.7640 H   0  0  0  0  0  0  0  0  0  0  0  0
   45.5170   32.7860   46.0390 C   0  0  0  0  0  0  0  0  0  0  0  0
   45.3110   32.8300   47.3870 C   0  0  0  0  0  0  0  0  0  0  0  0
   45.1030   33.7830   47.8490 H   0  0  0  0  0  0  0  0  0  0  0  0
   45.3580   31.6930   48.1780 C   0  0  0  0  0  3  0  0  0  0  0  0
   45.6200   30.4560   47.6280 C   0  0  0  0  0  0  0  0  0  0  0  0
   45.6770   29.3250   48.3600 N   0  0  0  0  0  0  0  0  0  0  0  0
   45.9380   28.1220   47.7800 C   0  0  0  0  0  0  0  0  0  0  0  0
   45.9890   27.1990   48.3400 H   0  0  0  0  0  0  0  0  0  0  0  0
   46.1580   28.0170   46.4050 C   0  0  0  0  0  3  0  0  0  0  0  0
   46.1060   29.1560   45.6300 C   0  0  0  0  0  3  0  0  0  0  0  0
   45.8340   30.3650   46.2770 C   0  0  0  0  0  0  0  0  0  0  0  0
   45.7750   31.5240   45.5410 C   0  0  0  0  0  3  0  0  0  0  0  0
   46.9410   34.8290   41.9070 C   0  0  0  0  0  0  0  0  0  0  0  0
   48.1200   35.5070   41.7570 C   0  0  0  0  0  0  0  0  0  0  0  0
   48.9140   35.5020   40.6300 C   0  0  0  0  0  0  0  0  0  0  0  0
   48.4150   34.7210   39.5960 C   0  0  0  0  0  0  0  0  0  0  0  0
   47.2250   34.0200   39.7090 C   0  0  0  0  0  0  0  0  0  0  0  0
   46.4910   34.0770   40.8710 N   0  0  0  0  0  0  0  0  0  0  0  0
   48.4520   36.0990   42.6070 H   0  0  0  0  0  0  0  0  0  0  0  0
   49.8280   36.0640   40.5940 H   0  0  0  0  0  0  0  0  0  0  0  0
   48.9830   34.6670   38.6750 H   0  0  0  0  0  0  0  0  0  0  0  0
   46.8710   33.4210   38.8780 H   0  0  0  0  0  0  0  0  0  0  0  0
  1  2  1  0  0  0  0
  1  9  1  0  0  0  0
  2  7  1  0  0  0  0
  3  8  1  0  0  0  0
  3  2  2  0  0  0  0
  4  3  1  0  0  0  0
  5  4  2  0  0  0  0
  5  6  1  0  0  0  0
  6  1  2  0  0  0  0
  9 10  1  0  0  0  0
 10 11  1  0  0  0  0
 10 12  2  0  0  0  0
 13 12  1  0  0  0  0
 13 14  1  0  0  0  0
 15 16  1  0  0  0  0
 15 14  2  0  0  0  0
 17 15  1  0  0  0  0
 18 19  1  0  0  0  0
 18 17  2  0  0  0  0
 19 13  2  0  0  0  0
 20  9  2  0  0  0  0
 20 19  1  0  0  0  0
 21  5  1  0  0  0  0
 22 21  1  0  0  0  0
 22 27  1  0  0  0  0
 23 22  2  0  0  0  0
 24 25  2  0  0  0  0
 24 23  1  0  0  0  0
 25 26  1  0  0  0  0
 26 21  2  0  0  0  0
 28 23  1  0  0  0  0
 29 24  1  0  0  0  0
 30 25  1  0  0  0  0
M  END
>  <minimizedAffinity>
-5.84350204

>  <minimizedRMSD>
1.50726557

$$$$
