
 OpenBabel03252508153D

 40 44  0  0  1  0  0  0  0  0999 V2000
   46.0550   33.0200   46.0310 C   0  0  0  0  0  3  0  0  0  0  0  0
   46.7870   32.0400   45.6700 C   0  0  0  0  0  3  0  0  0  0  0  0
   44.4730   35.8990   44.3660 C   0  0  0  0  0  0  0  0  0  0  0  0
   44.6390   35.6080   43.0190 C   0  0  0  0  0  0  0  0  0  0  0  0
   45.2950   34.4570   42.7070 C   0  0  0  0  0  0  0  0  0  0  0  0
   45.7460   33.6660   43.7140 N   0  0  0  0  0  0  0  0  0  0  0  0
   45.5850   33.9450   45.0180 C   0  0  0  0  0  0  0  0  0  0  0  0
   44.9400   35.0790   45.3000 N   0  0  0  0  0  0  0  0  0  0  0  0
   43.9500   36.8180   44.5970 H   0  0  0  0  0  0  0  0  0  0  0  0
   44.2630   36.2690   42.2510 H   0  0  0  0  0  0  0  0  0  0  0  0
   45.5420   34.0240   41.3360 C   0  0  0  0  0  0  0  0  0  0  0  0
   44.6350   33.3130   40.5830 C   0  0  0  0  0  0  0  0  0  0  0  0
   43.6860   33.0490   41.0050 H   0  0  0  0  0  0  0  0  0  0  0  0
   44.8720   32.9030   39.2830 C   0  0  0  0  0  3  0  0  0  0  0  0
   46.0840   33.2270   38.7110 C   0  0  0  0  0  0  0  0  0  0  0  0
   46.3880   32.8610   37.4460 N   0  0  0  0  0  0  0  0  0  0  0  0
   47.5660   33.1690   36.8740 C   0  0  0  0  0  0  0  0  0  0  0  0
   47.7570   32.8520   35.8570 H   0  0  0  0  0  0  0  0  0  0  0  0
   48.5540   33.8790   37.5270 C   0  0  0  0  0  3  0  0  0  0  0  0
   48.2510   34.2560   38.8200 C   0  0  0  0  0  3  0  0  0  0  0  0
   47.0420   33.9380   39.4040 C   0  0  0  0  0  0  0  0  0  0  0  0
   46.7300   34.3100   40.6960 C   0  0  0  0  0  3  0  0  0  0  0  0
   47.2400   31.1000   46.7780 C   0  0  0  0  0  0  0  0  0  0  0  0
   46.7820   30.1120   46.6070 H   0  0  0  0  0  0  0  0  0  0  0  0
   48.3450   30.9950   46.7440 H   0  0  0  0  0  0  0  0  0  0  0  0
   46.8920   31.7000   48.1170 C   0  0  1  0  0  0  0  0  0  0  0  0
   46.2480   30.8070   49.1200 C   0  0  0  0  0  0  0  0  0  0  0  0
   47.6170   31.2390   49.3280 C   0  0  1  0  0  0  0  0  0  0  0  0
   46.5830   32.7690   48.1040 H   0  0  0  0  0  0  0  0  0  0  0  0
   45.3960   31.1970   49.6940 H   0  0  0  0  0  0  0  0  0  0  0  0
   46.0720   29.7470   48.7920 H   0  0  0  0  0  0  0  0  0  0  0  0
   47.7510   32.0210   50.1390 H   0  0  0  0  0  0  0  0  0  0  0  0
   48.8190   30.4000   49.1440 C   0  0  0  0  0  0  0  0  0  0  0  0
   49.6860   30.2420   50.4220 C   0  0  0  0  0  0  0  0  0  0  0  0
   50.1810   31.1050   49.3190 C   0  0  0  0  0  0  0  0  0  0  0  0
   48.7700   29.5340   48.4660 H   0  0  0  0  0  0  0  0  0  0  0  0
   50.1070   29.2360   50.5410 H   0  0  0  0  0  0  0  0  0  0  0  0
   49.3450   30.7680   51.3390 H   0  0  0  0  0  0  0  0  0  0  0  0
   50.9570   30.7400   48.6030 H   0  0  0  0  0  0  0  0  0  0  0  0
   50.1430   32.1970   49.3600 H   0  0  0  0  0  0  0  0  0  0  0  0
  2  1  2  0  0  0  0
  2 23  1  0  0  0  0
  3  9  1  0  0  0  0
  3  8  1  0  0  0  0
  4  3  2  0  0  0  0
  5  4  1  0  0  0  0
  5  6  2  0  0  0  0
  6  7  1  0  0  0  0
  7  8  2  0  0  0  0
  7  1  1  0  0  0  0
 10  4  1  0  0  0  0
 11  5  1  0  0  0  0
 12 13  1  0  0  0  0
 12 11  2  0  0  0  0
 14 12  1  0  0  0  0
 15 14  2  0  0  0  0
 15 21  1  0  0  0  0
 16 15  1  0  0  0  0
 17 16  2  0  0  0  0
 17 19  1  0  0  0  0
 18 17  1  0  0  0  0
 19 20  2  0  0  0  0
 20 21  1  0  0  0  0
 21 22  2  0  0  0  0
 22 11  1  0  0  0  0
 23 26  1  0  0  0  0
 24 23  1  0  0  0  0
 25 23  1  0  0  0  0
 26 29  1  6  0  0  0
 26 27  1  0  0  0  0
 26 28  1  0  0  0  0
 27 28  1  0  0  0  0
 27 30  1  0  0  0  0
 28 32  1  1  0  0  0
 31 27  1  0  0  0  0
 33 35  1  0  0  0  0
 33 28  1  0  0  0  0
 33 34  1  0  0  0  0
 34 37  1  0  0  0  0
 34 38  1  0  0  0  0
 35 40  1  0  0  0  0
 35 34  1  0  0  0  0
 36 33  1  0  0  0  0
 39 35  1  0  0  0  0
M  END
>  <minimizedAffinity>
-6.09877825

>  <minimizedRMSD>
1.76224983

$$$$
