
 OpenBabel03252501093D

 43 47  0  0  1  0  0  0  0  0999 V2000
   36.3940   28.7260   38.4740 O   0  0  0  0  0  0  0  0  0  0  0  0
   35.3250   28.1570   37.8100 C   0  0  0  0  0  0  0  0  0  0  0  0
   35.1740   26.8390   37.3990 C   0  0  0  0  0  0  0  0  0  0  0  0
   34.0510   26.4300   36.7510 C   0  0  0  0  0  0  0  0  0  0  0  0
   33.0380   27.3190   36.4880 C   0  0  0  0  0  0  0  0  0  0  0  0
   33.2250   28.6330   36.9140 C   0  0  0  0  0  0  0  0  0  0  0  0
   34.3350   29.0370   37.5560 N   0  0  0  0  0  0  0  0  0  0  0  0
   36.0440   26.2340   37.6650 H   0  0  0  0  0  0  0  0  0  0  0  0
   34.0800   25.3800   36.4950 H   0  0  0  0  0  0  0  0  0  0  0  0
   32.2120   26.8720   35.9740 H   0  0  0  0  0  0  0  0  0  0  0  0
   32.1470   29.5580   36.6040 C   0  0  0  0  0  0  0  0  0  0  0  0
   31.2080   29.8980   37.5530 C   0  0  0  0  0  0  0  0  0  0  0  0
   31.3600   29.4300   38.5140 H   0  0  0  0  0  0  0  0  0  0  0  0
   30.1840   30.7610   37.2860 C   0  0  0  0  0  3  0  0  0  0  0  0
   30.0200   31.3470   36.0530 C   0  0  0  0  0  0  0  0  0  0  0  0
   29.0050   32.1940   35.8080 N   0  0  0  0  0  0  0  0  0  0  0  0
   28.8230   32.7870   34.5950 C   0  0  0  0  0  0  0  0  0  0  0  0
   28.0090   33.4570   34.4190 H   0  0  0  0  0  0  0  0  0  0  0  0
   29.7490   32.4630   33.6250 C   0  0  0  0  0  3  0  0  0  0  0  0
   30.8030   31.6000   33.8380 C   0  0  0  0  0  3  0  0  0  0  0  0
   30.9480   31.0250   35.0780 C   0  0  0  0  0  0  0  0  0  0  0  0
   31.9730   30.1500   35.3770 C   0  0  0  0  0  3  0  0  0  0  0  0
   36.5250   30.9870   39.6340 O   0  0  0  0  0  0  0  0  0  0  0  0
   36.2800   29.5110   39.9550 P   0  0  1  0  0  0  0  0  0  0  0  0
   34.6720   29.4290   40.4610 O   0  0  0  0  0  0  0  0  0  0  0  0
   34.0410   29.2890   39.7320 H   0  0  0  0  0  0  0  0  0  0  0  0
   37.3730   28.9190   41.0200 O   0  0  0  0  0  0  0  0  0  0  0  0
   37.4100   28.1380   43.3100 C   0  0  1  0  0  0  0  0  0  0  0  0
   38.4300   29.1950   43.2750 C   0  0  0  0  0  0  0  0  0  0  0  0
   37.2170   29.2040   42.3280 C   0  0  1  0  0  0  0  0  0  0  0  0
   36.7460   28.0330   44.1790 H   0  0  0  0  0  0  0  0  0  0  0  0
   38.4710   29.9210   44.1050 H   0  0  0  0  0  0  0  0  0  0  0  0
   39.3720   29.0560   42.7020 H   0  0  0  0  0  0  0  0  0  0  0  0
   36.5730   30.0760   42.5480 H   0  0  0  0  0  0  0  0  0  0  0  0
   37.3500   24.6120   41.9250 C   0  0  0  0  0  0  0  0  0  0  0  0
   36.9040   25.8360   42.4120 C   0  0  0  0  0  0  0  0  0  0  0  0
   37.8560   26.8100   42.7690 C   0  0  0  0  0  0  0  0  0  0  0  0
   39.1770   26.5200   42.6270 N   0  0  0  0  0  0  0  0  0  0  0  0
   39.5710   25.3110   42.1480 C   0  0  0  0  0  0  0  0  0  0  0  0
   38.6630   24.3650   41.8000 N   0  0  0  0  0  0  0  0  0  0  0  0
   36.6530   23.8370   41.6390 H   0  0  0  0  0  0  0  0  0  0  0  0
   35.8450   26.0230   42.5070 H   0  0  0  0  0  0  0  0  0  0  0  0
   40.6520   25.2950   42.1180 H   0  0  0  0  0  0  0  0  0  0  0  0
  1 24  1  0  0  0  0
  2  1  1  0  0  0  0
  3  8  1  0  0  0  0
  3  2  2  0  0  0  0
  4  3  1  0  0  0  0
  5  4  2  0  0  0  0
  5  6  1  0  0  0  0
  6  7  2  0  0  0  0
  7  2  1  0  0  0  0
  9  4  1  0  0  0  0
 10  5  1  0  0  0  0
 11  6  1  0  0  0  0
 11 12  1  0  0  0  0
 12 13  1  0  0  0  0
 14 12  2  0  0  0  0
 15 14  1  0  0  0  0
 16 15  1  0  0  0  0
 17 16  2  0  0  0  0
 18 17  1  0  0  0  0
 19 20  2  0  0  0  0
 19 17  1  0  0  0  0
 20 21  1  0  0  0  0
 21 22  1  0  0  0  0
 21 15  2  0  0  0  0
 22 11  2  0  0  0  0
 24 23  2  6  0  0  0
 24 25  1  0  0  0  0
 24 27  1  0  0  0  0
 26 25  1  0  0  0  0
 27 30  1  0  0  0  0
 28 31  1  1  0  0  0
 29 28  1  0  0  0  0
 29 32  1  0  0  0  0
 30 34  1  1  0  0  0
 30 29  1  0  0  0  0
 30 28  1  0  0  0  0
 33 29  1  0  0  0  0
 35 36  1  0  0  0  0
 36 42  1  0  0  0  0
 36 37  2  0  0  0  0
 37 28  1  0  0  0  0
 38 37  1  0  0  0  0
 39 38  2  0  0  0  0
 40 35  2  0  0  0  0
 40 39  1  0  0  0  0
 41 35  1  0  0  0  0
 43 39  1  0  0  0  0
M  END
>  <minimizedAffinity>
-6.54227161

$$$$

 OpenBabel03252501093D

 43 47  0  0  1  0  0  0  0  0999 V2000
   35.8440   28.1590   41.5520 O   0  0  0  0  0  0  0  0  0  0  0  0
   37.0320   27.6430   42.0310 C   0  0  0  0  0  0  0  0  0  0  0  0
   37.3050   26.3370   42.4180 C   0  0  0  0  0  0  0  0  0  0  0  0
   38.5370   25.9830   42.8710 C   0  0  0  0  0  0  0  0  0  0  0  0
   39.5410   26.9160   42.9560 C   0  0  0  0  0  0  0  0  0  0  0  0
   39.2300   28.2150   42.5580 C   0  0  0  0  0  0  0  0  0  0  0  0
   38.0130   28.5660   42.1100 N   0  0  0  0  0  0  0  0  0  0  0  0
   36.4300   25.6940   42.3060 H   0  0  0  0  0  0  0  0  0  0  0  0
   38.5960   24.9360   43.1350 H   0  0  0  0  0  0  0  0  0  0  0  0
   40.4600   26.5090   43.3260 H   0  0  0  0  0  0  0  0  0  0  0  0
   40.3050   29.1870   42.6780 C   0  0  0  0  0  0  0  0  0  0  0  0
   40.0970   30.5160   42.3810 C   0  0  0  0  0  0  0  0  0  0  0  0
   39.0880   30.7480   42.0710 H   0  0  0  0  0  0  0  0  0  0  0  0
   41.0890   31.4480   42.4810 C   0  0  0  0  0  3  0  0  0  0  0  0
   42.3630   31.1230   42.8850 C   0  0  0  0  0  0  0  0  0  0  0  0
   43.3280   32.0540   42.9780 N   0  0  0  0  0  0  0  0  0  0  0  0
   44.5970   31.7570   43.3760 C   0  0  0  0  0  0  0  0  0  0  0  0
   45.3510   32.5110   43.4430 H   0  0  0  0  0  0  0  0  0  0  0  0
   44.8340   30.4320   43.6790 C   0  0  0  0  0  3  0  0  0  0  0  0
   43.8700   29.4490   43.5970 C   0  0  0  0  0  3  0  0  0  0  0  0
   42.6040   29.7960   43.1910 C   0  0  0  0  0  0  0  0  0  0  0  0
   41.5810   28.8760   43.0810 C   0  0  0  0  0  3  0  0  0  0  0  0
   34.3530   29.2880   39.8260 O   0  0  0  0  0  0  0  0  0  0  0  0
   35.7360   29.4360   40.4640 P   0  0  1  0  0  0  0  0  0  0  0  0
   35.6620   30.8680   41.3540 O   0  0  0  0  0  0  0  0  0  0  0  0
   35.3460   30.7440   42.2670 H   0  0  0  0  0  0  0  0  0  0  0  0
   36.9400   29.3690   39.3580 O   0  0  0  0  0  0  0  0  0  0  0  0
   37.0060   30.8700   37.4610 C   0  0  1  0  0  0  0  0  0  0  0  0
   37.7550   29.6890   37.0100 C   0  0  0  0  0  0  0  0  0  0  0  0
   36.6370   29.5890   38.0630 C   0  0  1  0  0  0  0  0  0  0  0  0
   36.3280   31.3950   36.7740 H   0  0  0  0  0  0  0  0  0  0  0  0
   37.5740   29.3010   35.9930 H   0  0  0  0  0  0  0  0  0  0  0  0
   38.7390   29.4360   37.4600 H   0  0  0  0  0  0  0  0  0  0  0  0
   35.7970   28.9900   37.6660 H   0  0  0  0  0  0  0  0  0  0  0  0
   39.8730   32.6740   39.1570 C   0  0  0  0  0  0  0  0  0  0  0  0
   39.1870   31.7910   38.3290 C   0  0  0  0  0  0  0  0  0  0  0  0
   37.7790   31.8160   38.3330 C   0  0  0  0  0  0  0  0  0  0  0  0
   37.1400   32.7000   39.1460 N   0  0  0  0  0  0  0  0  0  0  0  0
   37.8480   33.5440   39.9400 C   0  0  0  0  0  0  0  0  0  0  0  0
   39.2050   33.5300   39.9450 N   0  0  0  0  0  0  0  0  0  0  0  0
   40.9540   32.6880   39.1850 H   0  0  0  0  0  0  0  0  0  0  0  0
   39.7370   31.1080   37.7000 H   0  0  0  0  0  0  0  0  0  0  0  0
   37.1480   34.1520   40.4960 H   0  0  0  0  0  0  0  0  0  0  0  0
  1  2  1  0  0  0  0
  2  7  2  0  0  0  0
  2  3  1  0  0  0  0
  3  4  2  0  0  0  0
  4  5  1  0  0  0  0
  4  9  1  0  0  0  0
  5 10  1  0  0  0  0
  6 11  1  0  0  0  0
  6  5  2  0  0  0  0
  7  6  1  0  0  0  0
  8  3  1  0  0  0  0
 11 22  1  0  0  0  0
 12 14  1  0  0  0  0
 12 11  2  0  0  0  0
 13 12  1  0  0  0  0
 14 15  2  0  0  0  0
 15 16  1  0  0  0  0
 15 21  1  0  0  0  0
 16 17  2  0  0  0  0
 17 18  1  0  0  0  0
 17 19  1  0  0  0  0
 20 19  2  0  0  0  0
 21 20  1  0  0  0  0
 22 21  2  0  0  0  0
 24 23  2  6  0  0  0
 24 25  1  0  0  0  0
 24  1  1  0  0  0  0
 25 26  1  0  0  0  0
 27 24  1  0  0  0  0
 28 31  1  6  0  0  0
 28 30  1  0  0  0  0
 28 37  1  0  0  0  0
 29 33  1  0  0  0  0
 29 28  1  0  0  0  0
 29 30  1  0  0  0  0
 30 34  1  6  0  0  0
 30 27  1  0  0  0  0
 32 29  1  0  0  0  0
 35 41  1  0  0  0  0
 35 40  1  0  0  0  0
 36 37  1  0  0  0  0
 36 35  2  0  0  0  0
 37 38  2  0  0  0  0
 38 39  1  0  0  0  0
 39 40  2  0  0  0  0
 39 43  1  0  0  0  0
 42 36  1  0  0  0  0
M  END
>  <minimizedAffinity>
-6.49210787

$$$$

 OpenBabel03252501093D

 43 47  0  0  1  0  0  0  0  0999 V2000
   36.6600   29.8380   38.5870 O   0  0  0  0  0  0  0  0  0  0  0  0
   37.3800   30.9500   38.9780 C   0  0  0  0  0  0  0  0  0  0  0  0
   36.9540   32.0170   39.7590 C   0  0  0  0  0  0  0  0  0  0  0  0
   37.7910   33.0450   40.0590 C   0  0  0  0  0  0  0  0  0  0  0  0
   39.0820   33.0490   39.5920 C   0  0  0  0  0  0  0  0  0  0  0  0
   39.4740   31.9630   38.8110 C   0  0  0  0  0  0  0  0  0  0  0  0
   38.6470   30.9460   38.5150 N   0  0  0  0  0  0  0  0  0  0  0  0
   35.9130   31.8980   40.0670 H   0  0  0  0  0  0  0  0  0  0  0  0
   37.3170   33.7990   40.6730 H   0  0  0  0  0  0  0  0  0  0  0  0
   39.6350   33.9130   39.8990 H   0  0  0  0  0  0  0  0  0  0  0  0
   40.8380   32.0030   38.3110 C   0  0  0  0  0  0  0  0  0  0  0  0
   41.7310   32.9510   38.7600 C   0  0  0  0  0  0  0  0  0  0  0  0
   41.3250   33.6260   39.5000 H   0  0  0  0  0  0  0  0  0  0  0  0
   43.0170   33.0140   38.3050 C   0  0  0  0  0  3  0  0  0  0  0  0
   43.5060   32.1350   37.3670 C   0  0  0  0  0  0  0  0  0  0  0  0
   44.7750   32.2130   36.9290 N   0  0  0  0  0  0  0  0  0  0  0  0
   45.2830   31.3540   36.0010 C   0  0  0  0  0  0  0  0  0  0  0  0
   46.2950   31.4310   35.6650 H   0  0  0  0  0  0  0  0  0  0  0  0
   44.4100   30.3940   35.5330 C   0  0  0  0  0  3  0  0  0  0  0  0
   43.1030   30.2830   35.9580 C   0  0  0  0  0  3  0  0  0  0  0  0
   42.6340   31.1710   36.8960 C   0  0  0  0  0  0  0  0  0  0  0  0
   41.3400   31.1320   37.3750 C   0  0  0  0  0  3  0  0  0  0  0  0
   34.7550   29.1930   40.1460 O   0  0  0  0  0  0  0  0  0  0  0  0
   36.0960   28.6570   39.6410 P   0  0  1  0  0  0  0  0  0  0  0  0
   35.7100   27.2910   38.7280 O   0  0  0  0  0  0  0  0  0  0  0  0
   35.5300   27.4870   37.7900 H   0  0  0  0  0  0  0  0  0  0  0  0
   37.1590   28.3990   40.8580 O   0  0  0  0  0  0  0  0  0  0  0  0
   36.9400   27.5380   43.1090 C   0  0  1  0  0  0  0  0  0  0  0  0
   37.7750   28.7360   43.2630 C   0  0  0  0  0  0  0  0  0  0  0  0
   36.7470   28.6030   42.1260 C   0  0  1  0  0  0  0  0  0  0  0  0
   36.1660   27.2980   43.8520 H   0  0  0  0  0  0  0  0  0  0  0  0
   37.5670   29.4250   44.1000 H   0  0  0  0  0  0  0  0  0  0  0  0
   38.8090   28.7640   42.8560 H   0  0  0  0  0  0  0  0  0  0  0  0
   35.9490   29.3580   42.2480 H   0  0  0  0  0  0  0  0  0  0  0  0
   37.6530   24.0730   41.7520 C   0  0  0  0  0  0  0  0  0  0  0  0
   36.9480   25.1930   42.1780 C   0  0  0  0  0  0  0  0  0  0  0  0
   37.6690   26.3150   42.6310 C   0  0  0  0  0  0  0  0  0  0  0  0
   39.0280   26.2640   42.6360 N   0  0  0  0  0  0  0  0  0  0  0  0
   39.6790   25.1490   42.2110 C   0  0  0  0  0  0  0  0  0  0  0  0
   38.9950   24.0620   41.7730 N   0  0  0  0  0  0  0  0  0  0  0  0
   37.1390   23.1900   41.3980 H   0  0  0  0  0  0  0  0  0  0  0  0
   35.8690   25.1890   42.1560 H   0  0  0  0  0  0  0  0  0  0  0  0
   40.7420   25.3240   42.3000 H   0  0  0  0  0  0  0  0  0  0  0  0
  1  2  1  0  0  0  0
  1 24  1  0  0  0  0
  2  3  1  0  0  0  0
  3  4  2  0  0  0  0
  3  8  1  0  0  0  0
  4  9  1  0  0  0  0
  5 10  1  0  0  0  0
  5  4  1  0  0  0  0
  6  5  2  0  0  0  0
  7  6  1  0  0  0  0
  7  2  2  0  0  0  0
 11 12  1  0  0  0  0
 11  6  1  0  0  0  0
 12 13  1  0  0  0  0
 14 12  2  0  0  0  0
 15 14  1  0  0  0  0
 16 15  1  0  0  0  0
 17 16  2  0  0  0  0
 18 17  1  0  0  0  0
 19 20  2  0  0  0  0
 19 17  1  0  0  0  0
 20 21  1  0  0  0  0
 21 15  2  0  0  0  0
 21 22  1  0  0  0  0
 22 11  2  0  0  0  0
 24 23  2  1  0  0  0
 24 27  1  0  0  0  0
 25 24  1  0  0  0  0
 26 25  1  0  0  0  0
 27 30  1  0  0  0  0
 28 29  1  0  0  0  0
 28 31  1  1  0  0  0
 29 32  1  0  0  0  0
 30 34  1  1  0  0  0
 30 28  1  0  0  0  0
 30 29  1  0  0  0  0
 33 29  1  0  0  0  0
 35 40  2  0  0  0  0
 35 36  1  0  0  0  0
 36 37  2  0  0  0  0
 37 38  1  0  0  0  0
 37 28  1  0  0  0  0
 39 43  1  0  0  0  0
 39 38  2  0  0  0  0
 40 39  1  0  0  0  0
 41 35  1  0  0  0  0
 42 36  1  0  0  0  0
M  END
>  <minimizedAffinity>
-6.38396931

$$$$

 OpenBabel03252501093D

 43 47  0  0  1  0  0  0  0  0999 V2000
   37.3460   29.7460   39.3740 O   0  0  0  0  0  0  0  0  0  0  0  0
   36.5690   28.8170   38.7110 C   0  0  0  0  0  0  0  0  0  0  0  0
   36.8460   27.4750   38.4790 C   0  0  0  0  0  0  0  0  0  0  0  0
   35.9710   26.6840   37.8040 C   0  0  0  0  0  0  0  0  0  0  0  0
   34.7880   27.2000   37.3350 C   0  0  0  0  0  0  0  0  0  0  0  0
   34.5440   28.5490   37.5860 C   0  0  0  0  0  0  0  0  0  0  0  0
   35.4090   29.3310   38.2530 N   0  0  0  0  0  0  0  0  0  0  0  0
   37.8120   27.1870   38.8990 H   0  0  0  0  0  0  0  0  0  0  0  0
   36.3250   25.6670   37.7030 H   0  0  0  0  0  0  0  0  0  0  0  0
   34.1900   26.4740   36.8230 H   0  0  0  0  0  0  0  0  0  0  0  0
   33.2950   29.0740   37.0590 C   0  0  0  0  0  0  0  0  0  0  0  0
   33.0470   29.0900   35.7040 C   0  0  0  0  0  0  0  0  0  0  0  0
   33.8450   28.6790   35.1030 H   0  0  0  0  0  0  0  0  0  0  0  0
   31.8850   29.5810   35.1820 C   0  0  0  0  0  3  0  0  0  0  0  0
   30.8840   30.0930   35.9740 C   0  0  0  0  0  0  0  0  0  0  0  0
   29.7460   30.5740   35.4430 N   0  0  0  0  0  0  0  0  0  0  0  0
   28.7410   31.0860   36.2070 C   0  0  0  0  0  0  0  0  0  0  0  0
   27.8430   31.4630   35.7660 H   0  0  0  0  0  0  0  0  0  0  0  0
   28.9630   31.0830   37.5690 C   0  0  0  0  0  3  0  0  0  0  0  0
   30.1160   30.5990   38.1500 C   0  0  0  0  0  3  0  0  0  0  0  0
   31.1030   30.0920   37.3400 C   0  0  0  0  0  0  0  0  0  0  0  0
   32.2880   29.5880   37.8380 C   0  0  0  0  0  3  0  0  0  0  0  0
   37.9760   31.4700   41.1360 O   0  0  0  0  0  0  0  0  0  0  0  0
   37.0900   30.2340   40.9610 P   0  0  1  0  0  0  0  0  0  0  0  0
   35.5060   30.8050   41.0770 O   0  0  0  0  0  0  0  0  0  0  0  0
   35.1320   31.0920   40.2240 H   0  0  0  0  0  0  0  0  0  0  0  0
   37.4760   29.0420   42.0130 O   0  0  0  0  0  0  0  0  0  0  0  0
   37.0000   26.7230   42.5170 C   0  0  1  0  0  0  0  0  0  0  0  0
   36.4780   27.4560   43.6780 C   0  0  0  0  0  0  0  0  0  0  0  0
   36.5530   28.0950   42.2800 C   0  0  1  0  0  0  0  0  0  0  0  0
   36.4510   25.8640   42.1070 H   0  0  0  0  0  0  0  0  0  0  0  0
   35.4940   27.1710   44.0870 H   0  0  0  0  0  0  0  0  0  0  0  0
   37.1680   27.9710   44.3810 H   0  0  0  0  0  0  0  0  0  0  0  0
   35.5350   28.3100   41.9070 H   0  0  0  0  0  0  0  0  0  0  0  0
   40.5340   25.9770   41.3720 C   0  0  0  0  0  0  0  0  0  0  0  0
   39.1600   26.1900   41.3280 C   0  0  0  0  0  0  0  0  0  0  0  0
   38.4850   26.4990   42.5240 C   0  0  0  0  0  0  0  0  0  0  0  0
   39.1980   26.5780   43.6800 N   0  0  0  0  0  0  0  0  0  0  0  0
   40.5400   26.3620   43.6790 C   0  0  0  0  0  0  0  0  0  0  0  0
   41.2020   26.0640   42.5320 N   0  0  0  0  0  0  0  0  0  0  0  0
   41.0900   25.7380   40.4760 H   0  0  0  0  0  0  0  0  0  0  0  0
   38.6350   26.1180   40.3880 H   0  0  0  0  0  0  0  0  0  0  0  0
   40.9010   26.4740   44.6920 H   0  0  0  0  0  0  0  0  0  0  0  0
  1 24  1  0  0  0  0
  2  1  1  0  0  0  0
  3  2  1  0  0  0  0
  3  8  1  0  0  0  0
  4  3  2  0  0  0  0
  5  6  2  0  0  0  0
  5  4  1  0  0  0  0
  6  7  1  0  0  0  0
  7  2  2  0  0  0  0
  9  4  1  0  0  0  0
 10  5  1  0  0  0  0
 11  6  1  0  0  0  0
 11 22  1  0  0  0  0
 12 11  2  0  0  0  0
 13 12  1  0  0  0  0
 14 12  1  0  0  0  0
 14 15  2  0  0  0  0
 15 21  1  0  0  0  0
 16 15  1  0  0  0  0
 16 17  2  0  0  0  0
 17 19  1  0  0  0  0
 18 17  1  0  0  0  0
 19 20  2  0  0  0  0
 21 22  2  0  0  0  0
 21 20  1  0  0  0  0
 24 25  1  0  0  0  0
 24 23  2  1  0  0  0
 24 27  1  0  0  0  0
 26 25  1  0  0  0  0
 27 30  1  0  0  0  0
 28 31  1  6  0  0  0
 28 37  1  0  0  0  0
 28 29  1  0  0  0  0
 29 32  1  0  0  0  0
 29 33  1  0  0  0  0
 30 34  1  6  0  0  0
 30 28  1  0  0  0  0
 30 29  1  0  0  0  0
 35 40  1  0  0  0  0
 36 35  2  0  0  0  0
 36 37  1  0  0  0  0
 37 38  2  0  0  0  0
 39 38  1  0  0  0  0
 39 43  1  0  0  0  0
 40 39  2  0  0  0  0
 41 35  1  0  0  0  0
 42 36  1  0  0  0  0
M  END
>  <minimizedAffinity>
-6.34831381

$$$$

 OpenBabel03252501093D

 43 47  0  0  1  0  0  0  0  0999 V2000
   36.0150   28.0800   40.7840 O   0  0  0  0  0  0  0  0  0  0  0  0
   37.0710   28.0030   41.6700 C   0  0  0  0  0  0  0  0  0  0  0  0
   37.2760   27.0730   42.6810 C   0  0  0  0  0  0  0  0  0  0  0  0
   38.3770   27.1320   43.4770 C   0  0  0  0  0  0  0  0  0  0  0  0
   39.3120   28.1200   43.2960 C   0  0  0  0  0  0  0  0  0  0  0  0
   39.0730   29.0370   42.2730 C   0  0  0  0  0  0  0  0  0  0  0  0
   37.9860   28.9780   41.4850 N   0  0  0  0  0  0  0  0  0  0  0  0
   36.4650   26.3420   42.7240 H   0  0  0  0  0  0  0  0  0  0  0  0
   38.3960   26.3430   44.2160 H   0  0  0  0  0  0  0  0  0  0  0  0
   40.1290   28.0550   43.9860 H   0  0  0  0  0  0  0  0  0  0  0  0
   40.0680   30.0850   42.1170 C   0  0  0  0  0  0  0  0  0  0  0  0
   41.2370   30.0680   42.8460 C   0  0  0  0  0  0  0  0  0  0  0  0
   41.3330   29.2210   43.5100 H   0  0  0  0  0  0  0  0  0  0  0  0
   42.1860   31.0410   42.7230 C   0  0  0  0  0  3  0  0  0  0  0  0
   42.0380   32.1050   41.8630 C   0  0  0  0  0  0  0  0  0  0  0  0
   42.9830   33.0560   41.7550 N   0  0  0  0  0  0  0  0  0  0  0  0
   42.8590   34.1180   40.9110 C   0  0  0  0  0  0  0  0  0  0  0  0
   43.6220   34.8640   40.8390 H   0  0  0  0  0  0  0  0  0  0  0  0
   41.6970   34.1610   40.1690 C   0  0  0  0  0  3  0  0  0  0  0  0
   40.7070   33.2060   40.2520 C   0  0  0  0  0  3  0  0  0  0  0  0
   40.8740   32.1510   41.1170 C   0  0  0  0  0  0  0  0  0  0  0  0
   39.9330   31.1520   41.2630 C   0  0  0  0  0  3  0  0  0  0  0  0
   33.9610   29.2890   39.8920 O   0  0  0  0  0  0  0  0  0  0  0  0
   35.4620   29.5080   40.0900 P   0  0  1  0  0  0  0  0  0  0  0  0
   35.5830   30.7270   41.2510 O   0  0  0  0  0  0  0  0  0  0  0  0
   35.5950   30.3940   42.1660 H   0  0  0  0  0  0  0  0  0  0  0  0
   36.2350   29.8140   38.6800 O   0  0  0  0  0  0  0  0  0  0  0  0
   38.4230   30.7100   38.1640 C   0  0  1  0  0  0  0  0  0  0  0  0
   37.5210   31.4140   37.2440 C   0  0  0  0  0  0  0  0  0  0  0  0
   37.0430   30.8920   38.6090 C   0  0  1  0  0  0  0  0  0  0  0  0
   39.2550   31.2420   38.6460 H   0  0  0  0  0  0  0  0  0  0  0  0
   37.6520   32.5000   37.0990 H   0  0  0  0  0  0  0  0  0  0  0  0
   37.0150   30.8700   36.4170 H   0  0  0  0  0  0  0  0  0  0  0  0
   36.7570   31.7390   39.2600 H   0  0  0  0  0  0  0  0  0  0  0  0
   40.1080   27.3180   38.0370 C   0  0  0  0  0  0  0  0  0  0  0  0
   39.7670   28.5970   38.4670 C   0  0  0  0  0  0  0  0  0  0  0  0
   38.8070   29.3220   37.7360 C   0  0  0  0  0  0  0  0  0  0  0  0
   38.2460   28.7490   36.6380 N   0  0  0  0  0  0  0  0  0  0  0  0
   38.6080   27.4970   36.2510 C   0  0  0  0  0  0  0  0  0  0  0  0
   39.5320   26.7880   36.9470 N   0  0  0  0  0  0  0  0  0  0  0  0
   40.8410   26.7280   38.5690 H   0  0  0  0  0  0  0  0  0  0  0  0
   40.2380   29.0110   39.3450 H   0  0  0  0  0  0  0  0  0  0  0  0
   38.0450   27.2410   35.3640 H   0  0  0  0  0  0  0  0  0  0  0  0
  1  2  1  0  0  0  0
  2  3  1  0  0  0  0
  3  8  1  0  0  0  0
  3  4  2  0  0  0  0
  4  9  1  0  0  0  0
  5  4  1  0  0  0  0
  5 10  1  0  0  0  0
  6  5  2  0  0  0  0
  7  2  2  0  0  0  0
  7  6  1  0  0  0  0
 11  6  1  0  0  0  0
 11 12  1  0  0  0  0
 12 13  1  0  0  0  0
 14 12  2  0  0  0  0
 15 14  1  0  0  0  0
 16 15  1  0  0  0  0
 17 16  2  0  0  0  0
 18 17  1  0  0  0  0
 19 20  2  0  0  0  0
 19 17  1  0  0  0  0
 20 21  1  0  0  0  0
 21 22  1  0  0  0  0
 21 15  2  0  0  0  0
 22 11  2  0  0  0  0
 24 23  2  6  0  0  0
 24  1  1  0  0  0  0
 24 25  1  0  0  0  0
 25 26  1  0  0  0  0
 27 24  1  0  0  0  0
 28 30  1  0  0  0  0
 28 31  1  1  0  0  0
 29 28  1  0  0  0  0
 29 30  1  0  0  0  0
 30 27  1  0  0  0  0
 30 34  1  1  0  0  0
 32 29  1  0  0  0  0
 33 29  1  0  0  0  0
 35 36  1  0  0  0  0
 35 41  1  0  0  0  0
 36 42  1  0  0  0  0
 37 28  1  0  0  0  0
 37 36  2  0  0  0  0
 38 37  1  0  0  0  0
 39 38  2  0  0  0  0
 39 40  1  0  0  0  0
 40 35  2  0  0  0  0
 43 39  1  0  0  0  0
M  END
>  <minimizedAffinity>
-6.08074999

$$$$

 OpenBabel03252501093D

 43 47  0  0  1  0  0  0  0  0999 V2000
   36.7700   30.4170   41.5580 O   0  0  0  0  0  0  0  0  0  0  0  0
   37.4120   29.2990   42.0530 C   0  0  0  0  0  0  0  0  0  0  0  0
   38.3300   29.2280   43.0930 C   0  0  0  0  0  0  0  0  0  0  0  0
   38.8780   28.0410   43.4660 C   0  0  0  0  0  0  0  0  0  0  0  0
   38.5320   26.8820   42.8160 C   0  0  0  0  0  0  0  0  0  0  0  0
   37.6080   26.9920   41.7780 C   0  0  0  0  0  0  0  0  0  0  0  0
   37.0660   28.1650   41.4100 N   0  0  0  0  0  0  0  0  0  0  0  0
   38.5220   30.2120   43.5260 H   0  0  0  0  0  0  0  0  0  0  0  0
   39.5730   28.1450   44.2870 H   0  0  0  0  0  0  0  0  0  0  0  0
   39.0320   26.0190   43.2050 H   0  0  0  0  0  0  0  0  0  0  0  0
   37.2760   25.7530   41.0930 C   0  0  0  0  0  0  0  0  0  0  0  0
   37.6650   24.5340   41.6030 C   0  0  0  0  0  0  0  0  0  0  0  0
   38.2120   24.5970   42.5330 H   0  0  0  0  0  0  0  0  0  0  0  0
   37.3710   23.3560   40.9790 C   0  0  0  0  0  3  0  0  0  0  0  0
   36.6670   23.3080   39.7980 C   0  0  0  0  0  0  0  0  0  0  0  0
   36.3860   22.1390   39.1960 N   0  0  0  0  0  0  0  0  0  0  0  0
   35.6900   22.0660   38.0270 C   0  0  0  0  0  0  0  0  0  0  0  0
   35.4770   21.1260   37.5640 H   0  0  0  0  0  0  0  0  0  0  0  0
   35.2890   23.2730   37.4930 C   0  0  0  0  0  3  0  0  0  0  0  0
   35.5570   24.4910   38.0800 C   0  0  0  0  0  3  0  0  0  0  0  0
   36.2620   24.5160   39.2600 C   0  0  0  0  0  0  0  0  0  0  0  0
   36.5740   25.6910   39.9140 C   0  0  0  0  0  3  0  0  0  0  0  0
   35.9850   30.7120   39.1560 O   0  0  0  0  0  0  0  0  0  0  0  0
   37.1260   31.1380   40.0820 P   0  0  1  0  0  0  0  0  0  0  0  0
   36.9480   32.8070   40.2660 O   0  0  0  0  0  0  0  0  0  0  0  0
   36.3650   33.0570   41.0050 H   0  0  0  0  0  0  0  0  0  0  0  0
   38.5880   30.6540   39.5290 O   0  0  0  0  0  0  0  0  0  0  0  0
   39.8740   31.7600   37.8030 C   0  0  1  0  0  0  0  0  0  0  0  0
   40.2150   30.3400   37.6500 C   0  0  0  0  0  0  0  0  0  0  0  0
   38.8580   30.7930   38.2150 C   0  0  1  0  0  0  0  0  0  0  0  0
   39.7310   32.3980   36.9200 H   0  0  0  0  0  0  0  0  0  0  0  0
   40.2590   29.9110   36.6340 H   0  0  0  0  0  0  0  0  0  0  0  0
   40.8060   29.8110   38.4270 H   0  0  0  0  0  0  0  0  0  0  0  0
   38.0430   30.4910   37.5310 H   0  0  0  0  0  0  0  0  0  0  0  0
   42.5230   32.7080   40.3410 C   0  0  0  0  0  0  0  0  0  0  0  0
   41.8800   32.0360   39.3060 C   0  0  0  0  0  0  0  0  0  0  0  0
   40.6020   32.4700   38.9080 C   0  0  0  0  0  0  0  0  0  0  0  0
   40.0400   33.5320   39.5470 N   0  0  0  0  0  0  0  0  0  0  0  0
   40.7020   34.1610   40.5530 C   0  0  0  0  0  0  0  0  0  0  0  0
   41.9340   33.7510   40.9460 N   0  0  0  0  0  0  0  0  0  0  0  0
   43.5050   32.4070   40.6780 H   0  0  0  0  0  0  0  0  0  0  0  0
   42.3650   31.1990   38.8280 H   0  0  0  0  0  0  0  0  0  0  0  0
   40.0790   34.9670   40.9150 H   0  0  0  0  0  0  0  0  0  0  0  0
  1  2  1  0  0  0  0
  2  3  1  0  0  0  0
  3  4  2  0  0  0  0
  3  8  1  0  0  0  0
  4  9  1  0  0  0  0
  5 10  1  0  0  0  0
  5  4  1  0  0  0  0
  6  5  2  0  0  0  0
  7  6  1  0  0  0  0
  7  2  2  0  0  0  0
 11 12  1  0  0  0  0
 11  6  1  0  0  0  0
 12 13  1  0  0  0  0
 14 12  2  0  0  0  0
 15 14  1  0  0  0  0
 16 15  2  0  0  0  0
 17 16  1  0  0  0  0
 18 17  1  0  0  0  0
 19 17  2  0  0  0  0
 19 20  1  0  0  0  0
 20 21  2  0  0  0  0
 21 15  1  0  0  0  0
 21 22  1  0  0  0  0
 22 11  2  0  0  0  0
 24 23  2  6  0  0  0
 24 25  1  0  0  0  0
 24  1  1  0  0  0  0
 25 26  1  0  0  0  0
 27 24  1  0  0  0  0
 28 31  1  6  0  0  0
 28 30  1  0  0  0  0
 28 37  1  0  0  0  0
 29 28  1  0  0  0  0
 29 30  1  0  0  0  0
 29 33  1  0  0  0  0
 30 34  1  6  0  0  0
 30 27  1  0  0  0  0
 32 29  1  0  0  0  0
 35 41  1  0  0  0  0
 35 40  1  0  0  0  0
 36 35  2  0  0  0  0
 37 36  1  0  0  0  0
 37 38  2  0  0  0  0
 38 39  1  0  0  0  0
 39 43  1  0  0  0  0
 39 40  2  0  0  0  0
 42 36  1  0  0  0  0
M  END
>  <minimizedAffinity>
-6.05578041

$$$$

 OpenBabel03252501093D

 43 47  0  0  1  0  0  0  0  0999 V2000
   36.8990   31.1330   41.1290 O   0  0  0  0  0  0  0  0  0  0  0  0
   37.5200   30.0120   41.6420 C   0  0  0  0  0  0  0  0  0  0  0  0
   38.5290   29.9510   42.5960 C   0  0  0  0  0  0  0  0  0  0  0  0
   39.0400   28.7580   43.0010 C   0  0  0  0  0  0  0  0  0  0  0  0
   38.5670   27.5830   42.4710 C   0  0  0  0  0  0  0  0  0  0  0  0
   37.5560   27.6830   41.5170 C   0  0  0  0  0  0  0  0  0  0  0  0
   37.0490   28.8620   41.1170 N   0  0  0  0  0  0  0  0  0  0  0  0
   38.8180   30.9470   42.9380 H   0  0  0  0  0  0  0  0  0  0  0  0
   39.8160   28.8720   43.7450 H   0  0  0  0  0  0  0  0  0  0  0  0
   39.0520   26.7180   42.8740 H   0  0  0  0  0  0  0  0  0  0  0  0
   37.0890   26.4260   40.9570 C   0  0  0  0  0  0  0  0  0  0  0  0
   37.0930   25.2700   41.7060 C   0  0  0  0  0  0  0  0  0  0  0  0
   37.4570   25.3970   42.7150 H   0  0  0  0  0  0  0  0  0  0  0  0
   36.6640   24.0750   41.2040 C   0  0  0  0  0  3  0  0  0  0  0  0
   36.2000   23.9450   39.9150 C   0  0  0  0  0  0  0  0  0  0  0  0
   35.7820   22.7600   39.4360 N   0  0  0  0  0  0  0  0  0  0  0  0
   35.3180   22.6080   38.1650 C   0  0  0  0  0  0  0  0  0  0  0  0
   34.9900   21.6570   37.8020 H   0  0  0  0  0  0  0  0  0  0  0  0
   35.3030   23.7500   37.3910 C   0  0  0  0  0  3  0  0  0  0  0  0
   35.7230   24.9810   37.8470 C   0  0  0  0  0  3  0  0  0  0  0  0
   36.1830   25.0890   39.1370 C   0  0  0  0  0  0  0  0  0  0  0  0
   36.6230   26.2830   39.6730 C   0  0  0  0  0  3  0  0  0  0  0  0
   36.9550   31.3560   38.5950 O   0  0  0  0  0  0  0  0  0  0  0  0
   37.4960   32.0450   39.8500 P   0  0  1  0  0  0  0  0  0  0  0  0
   36.7370   33.5520   39.8900 O   0  0  0  0  0  0  0  0  0  0  0  0
   35.8840   33.5460   40.3620 H   0  0  0  0  0  0  0  0  0  0  0  0
   39.1320   32.0920   39.8740 O   0  0  0  0  0  0  0  0  0  0  0  0
   41.1070   33.3600   40.4640 C   0  0  1  0  0  0  0  0  0  0  0  0
   40.9310   33.6170   39.0290 C   0  0  0  0  0  0  0  0  0  0  0  0
   39.7400   33.2930   39.9480 C   0  0  1  0  0  0  0  0  0  0  0  0
   41.4240   34.1660   41.1400 H   0  0  0  0  0  0  0  0  0  0  0  0
   41.0570   34.6470   38.6540 H   0  0  0  0  0  0  0  0  0  0  0  0
   41.0830   32.8060   38.2840 H   0  0  0  0  0  0  0  0  0  0  0  0
   39.0610   34.1640   40.0080 H   0  0  0  0  0  0  0  0  0  0  0  0
   42.3970   30.3730   42.4050 C   0  0  0  0  0  0  0  0  0  0  0  0
   41.7760   31.5870   42.1280 C   0  0  0  0  0  0  0  0  0  0  0  0
   41.7560   32.0480   40.7980 C   0  0  0  0  0  0  0  0  0  0  0  0
   42.3430   31.2920   39.8310 N   0  0  0  0  0  0  0  0  0  0  0  0
   42.9390   30.1120   40.1440 C   0  0  0  0  0  0  0  0  0  0  0  0
   42.9650   29.6560   41.4220 N   0  0  0  0  0  0  0  0  0  0  0  0
   42.4350   29.9820   43.4120 H   0  0  0  0  0  0  0  0  0  0  0  0
   41.3230   32.1520   42.9270 H   0  0  0  0  0  0  0  0  0  0  0  0
   43.3360   29.6820   39.2350 H   0  0  0  0  0  0  0  0  0  0  0  0
  1  2  1  0  0  0  0
  2  3  1  0  0  0  0
  3  8  1  0  0  0  0
  3  4  2  0  0  0  0
  4  9  1  0  0  0  0
  5 10  1  0  0  0  0
  5  4  1  0  0  0  0
  6  5  2  0  0  0  0
  7  6  1  0  0  0  0
  7  2  2  0  0  0  0
 11  6  1  0  0  0  0
 11 12  1  0  0  0  0
 12 13  1  0  0  0  0
 14 12  2  0  0  0  0
 15 14  1  0  0  0  0
 16 15  1  0  0  0  0
 17 16  2  0  0  0  0
 18 17  1  0  0  0  0
 19 20  2  0  0  0  0
 19 17  1  0  0  0  0
 20 21  1  0  0  0  0
 21 22  1  0  0  0  0
 21 15  2  0  0  0  0
 22 11  2  0  0  0  0
 24 23  2  6  0  0  0
 24 27  1  0  0  0  0
 24 25  1  0  0  0  0
 24  1  1  0  0  0  0
 25 26  1  0  0  0  0
 27 30  1  0  0  0  0
 28 37  1  0  0  0  0
 28 31  1  1  0  0  0
 29 30  1  0  0  0  0
 29 28  1  0  0  0  0
 30 34  1  1  0  0  0
 30 28  1  0  0  0  0
 32 29  1  0  0  0  0
 33 29  1  0  0  0  0
 35 41  1  0  0  0  0
 36 35  1  0  0  0  0
 36 42  1  0  0  0  0
 37 36  2  0  0  0  0
 38 39  2  0  0  0  0
 38 37  1  0  0  0  0
 39 40  1  0  0  0  0
 40 35  2  0  0  0  0
 43 39  1  0  0  0  0
M  END
>  <minimizedAffinity>
-6.05014992

$$$$

 OpenBabel03252501093D

 43 47  0  0  1  0  0  0  0  0999 V2000
   36.5510   29.9620   38.8000 O   0  0  0  0  0  0  0  0  0  0  0  0
   37.3320   31.0510   39.1370 C   0  0  0  0  0  0  0  0  0  0  0  0
   36.9790   32.1550   39.9030 C   0  0  0  0  0  0  0  0  0  0  0  0
   37.8700   33.1530   40.1470 C   0  0  0  0  0  0  0  0  0  0  0  0
   39.1430   33.0880   39.6380 C   0  0  0  0  0  0  0  0  0  0  0  0
   39.4610   31.9650   38.8750 C   0  0  0  0  0  0  0  0  0  0  0  0
   38.5810   30.9790   38.6330 N   0  0  0  0  0  0  0  0  0  0  0  0
   35.9450   32.0900   40.2480 H   0  0  0  0  0  0  0  0  0  0  0  0
   37.4500   33.9420   40.7560 H   0  0  0  0  0  0  0  0  0  0  0  0
   39.7430   33.9340   39.9040 H   0  0  0  0  0  0  0  0  0  0  0  0
   40.8080   31.9330   38.3300 C   0  0  0  0  0  0  0  0  0  0  0  0
   41.7610   32.8410   38.7370 C   0  0  0  0  0  0  0  0  0  0  0  0
   41.4140   33.5440   39.4800 H   0  0  0  0  0  0  0  0  0  0  0  0
   43.0320   32.8350   38.2390 C   0  0  0  0  0  3  0  0  0  0  0  0
   43.4470   31.9220   37.2970 C   0  0  0  0  0  0  0  0  0  0  0  0
   44.7020   31.9320   36.8160 N   0  0  0  0  0  0  0  0  0  0  0  0
   45.1360   31.0380   35.8830 C   0  0  0  0  0  0  0  0  0  0  0  0
   46.1390   31.0620   35.5130 H   0  0  0  0  0  0  0  0  0  0  0  0
   44.2020   30.1170   35.4570 C   0  0  0  0  0  3  0  0  0  0  0  0
   42.9060   30.0760   35.9260 C   0  0  0  0  0  3  0  0  0  0  0  0
   42.5120   30.9970   36.8670 C   0  0  0  0  0  0  0  0  0  0  0  0
   41.2350   31.0270   37.3890 C   0  0  0  0  0  3  0  0  0  0  0  0
   34.3890   29.1990   39.9030 O   0  0  0  0  0  0  0  0  0  0  0  0
   35.8880   28.8920   39.9130 P   0  0  1  0  0  0  0  0  0  0  0  0
   36.0250   27.3340   39.2780 O   0  0  0  0  0  0  0  0  0  0  0  0
   36.1130   27.3160   38.3070 H   0  0  0  0  0  0  0  0  0  0  0  0
   36.5530   29.0970   41.3950 O   0  0  0  0  0  0  0  0  0  0  0  0
   38.1120   27.7270   42.6380 C   0  0  1  0  0  0  0  0  0  0  0  0
   37.1400   28.1690   43.6470 C   0  0  0  0  0  0  0  0  0  0  0  0
   36.7580   28.0100   42.1650 C   0  0  1  0  0  0  0  0  0  0  0  0
   38.5090   26.7020   42.6580 H   0  0  0  0  0  0  0  0  0  0  0  0
   36.7660   27.4360   44.3810 H   0  0  0  0  0  0  0  0  0  0  0  0
   37.0850   29.2360   43.9530 H   0  0  0  0  0  0  0  0  0  0  0  0
   36.0100   27.2030   42.0520 H   0  0  0  0  0  0  0  0  0  0  0  0
   40.1310   30.9310   42.5280 C   0  0  0  0  0  0  0  0  0  0  0  0
   39.1490   30.0130   42.8850 C   0  0  0  0  0  0  0  0  0  0  0  0
   39.1640   28.7390   42.2860 C   0  0  0  0  0  0  0  0  0  0  0  0
   40.1370   28.4500   41.3810 N   0  0  0  0  0  0  0  0  0  0  0  0
   41.0790   29.3760   41.0600 C   0  0  0  0  0  0  0  0  0  0  0  0
   41.0750   30.6070   41.6300 N   0  0  0  0  0  0  0  0  0  0  0  0
   40.1560   31.9200   42.9640 H   0  0  0  0  0  0  0  0  0  0  0  0
   38.3960   30.2860   43.6090 H   0  0  0  0  0  0  0  0  0  0  0  0
   41.7460   28.9400   40.3300 H   0  0  0  0  0  0  0  0  0  0  0  0
  1  2  1  0  0  0  0
  1 24  1  0  0  0  0
  2  3  1  0  0  0  0
  3  4  2  0  0  0  0
  3  8  1  0  0  0  0
  4  9  1  0  0  0  0
  5 10  1  0  0  0  0
  5  4  1  0  0  0  0
  6  5  2  0  0  0  0
  7  6  1  0  0  0  0
  7  2  2  0  0  0  0
 11 12  1  0  0  0  0
 11  6  1  0  0  0  0
 12 13  1  0  0  0  0
 14 12  2  0  0  0  0
 15 14  1  0  0  0  0
 16 15  2  0  0  0  0
 17 16  1  0  0  0  0
 18 17  1  0  0  0  0
 19 17  2  0  0  0  0
 19 20  1  0  0  0  0
 20 21  2  0  0  0  0
 21 15  1  0  0  0  0
 21 22  1  0  0  0  0
 22 11  2  0  0  0  0
 24 23  2  1  0  0  0
 24 27  1  0  0  0  0
 25 24  1  0  0  0  0
 26 25  1  0  0  0  0
 27 30  1  0  0  0  0
 28 31  1  1  0  0  0
 28 29  1  0  0  0  0
 29 33  1  0  0  0  0
 29 32  1  0  0  0  0
 30 34  1  6  0  0  0
 30 28  1  0  0  0  0
 30 29  1  0  0  0  0
 35 36  1  0  0  0  0
 35 41  1  0  0  0  0
 36 42  1  0  0  0  0
 37 28  1  0  0  0  0
 37 36  2  0  0  0  0
 38 37  1  0  0  0  0
 39 38  2  0  0  0  0
 39 40  1  0  0  0  0
 40 35  2  0  0  0  0
 43 39  1  0  0  0  0
M  END
>  <minimizedAffinity>
-6.03878832

$$$$

 OpenBabel03252501093D

 43 47  0  0  1  0  0  0  0  0999 V2000
   36.1360   28.3490   41.7800 O   0  0  0  0  0  0  0  0  0  0  0  0
   37.3910   27.9300   42.1760 C   0  0  0  0  0  0  0  0  0  0  0  0
   37.8090   27.5590   43.4480 C   0  0  0  0  0  0  0  0  0  0  0  0
   39.0890   27.1650   43.6790 C   0  0  0  0  0  0  0  0  0  0  0  0
   40.0000   27.1270   42.6530 C   0  0  0  0  0  0  0  0  0  0  0  0
   39.5450   27.5060   41.3900 C   0  0  0  0  0  0  0  0  0  0  0  0
   38.2790   27.8940   41.1620 N   0  0  0  0  0  0  0  0  0  0  0  0
   36.9960   27.6320   44.1740 H   0  0  0  0  0  0  0  0  0  0  0  0
   39.2630   26.9090   44.7150 H   0  0  0  0  0  0  0  0  0  0  0  0
   40.9710   26.8000   42.9660 H   0  0  0  0  0  0  0  0  0  0  0  0
   40.5350   27.4770   40.3270 C   0  0  0  0  0  0  0  0  0  0  0  0
   41.5700   26.5670   40.3450 C   0  0  0  0  0  0  0  0  0  0  0  0
   41.5600   25.9010   41.1950 H   0  0  0  0  0  0  0  0  0  0  0  0
   42.5160   26.5210   39.3610 C   0  0  0  0  0  3  0  0  0  0  0  0
   42.4990   27.3800   38.2860 C   0  0  0  0  0  0  0  0  0  0  0  0
   43.4390   27.3200   37.3260 N   0  0  0  0  0  0  0  0  0  0  0  0
   43.4430   28.1590   36.2530 C   0  0  0  0  0  0  0  0  0  0  0  0
   44.1990   28.0970   35.5000 H   0  0  0  0  0  0  0  0  0  0  0  0
   42.4180   29.0810   36.2100 C   0  0  0  0  0  3  0  0  0  0  0  0
   41.4360   29.1720   37.1740 C   0  0  0  0  0  3  0  0  0  0  0  0
   41.4720   28.3050   38.2400 C   0  0  0  0  0  0  0  0  0  0  0  0
   40.5300   28.3280   39.2480 C   0  0  0  0  0  3  0  0  0  0  0  0
   34.4590   29.2100   40.0720 O   0  0  0  0  0  0  0  0  0  0  0  0
   35.8560   29.5230   40.6110 P   0  0  1  0  0  0  0  0  0  0  0  0
   35.7040   31.0090   41.3970 O   0  0  0  0  0  0  0  0  0  0  0  0
   35.4510   30.9300   42.3340 H   0  0  0  0  0  0  0  0  0  0  0  0
   36.9980   29.4720   39.4400 O   0  0  0  0  0  0  0  0  0  0  0  0
   36.9520   30.9930   37.5580 C   0  0  1  0  0  0  0  0  0  0  0  0
   37.6840   29.8220   37.0560 C   0  0  0  0  0  0  0  0  0  0  0  0
   36.6250   29.7030   38.1650 C   0  0  1  0  0  0  0  0  0  0  0  0
   36.2350   31.5200   36.9140 H   0  0  0  0  0  0  0  0  0  0  0  0
   37.4510   29.4440   36.0460 H   0  0  0  0  0  0  0  0  0  0  0  0
   38.6930   29.5720   37.4490 H   0  0  0  0  0  0  0  0  0  0  0  0
   35.7680   29.1020   37.8080 H   0  0  0  0  0  0  0  0  0  0  0  0
   39.8960   32.7850   39.1330 C   0  0  0  0  0  0  0  0  0  0  0  0
   39.1720   31.9060   38.3330 C   0  0  0  0  0  0  0  0  0  0  0  0
   37.7650   31.9350   38.3980 C   0  0  0  0  0  0  0  0  0  0  0  0
   37.1640   32.8200   39.2380 N   0  0  0  0  0  0  0  0  0  0  0  0
   37.9090   33.6610   40.0030 C   0  0  0  0  0  0  0  0  0  0  0  0
   39.2640   33.6430   39.9500 N   0  0  0  0  0  0  0  0  0  0  0  0
   40.9760   32.7960   39.1140 H   0  0  0  0  0  0  0  0  0  0  0  0
   39.6920   31.2220   37.6810 H   0  0  0  0  0  0  0  0  0  0  0  0
   37.2340   34.2710   40.5890 H   0  0  0  0  0  0  0  0  0  0  0  0
  1  2  1  0  0  0  0
  2  3  1  0  0  0  0
  3  4  2  0  0  0  0
  3  8  1  0  0  0  0
  4  9  1  0  0  0  0
  5 10  1  0  0  0  0
  5  4  1  0  0  0  0
  6  5  2  0  0  0  0
  7  6  1  0  0  0  0
  7  2  2  0  0  0  0
 11 12  1  0  0  0  0
 11  6  1  0  0  0  0
 12 13  1  0  0  0  0
 14 12  2  0  0  0  0
 15 14  1  0  0  0  0
 16 15  2  0  0  0  0
 17 16  1  0  0  0  0
 18 17  1  0  0  0  0
 19 17  2  0  0  0  0
 19 20  1  0  0  0  0
 20 21  2  0  0  0  0
 21 15  1  0  0  0  0
 21 22  1  0  0  0  0
 22 11  2  0  0  0  0
 24 23  2  6  0  0  0
 24 25  1  0  0  0  0
 24  1  1  0  0  0  0
 25 26  1  0  0  0  0
 27 24  1  0  0  0  0
 28 31  1  6  0  0  0
 28 30  1  0  0  0  0
 28 37  1  0  0  0  0
 29 33  1  0  0  0  0
 29 28  1  0  0  0  0
 29 30  1  0  0  0  0
 30 34  1  6  0  0  0
 30 27  1  0  0  0  0
 32 29  1  0  0  0  0
 35 40  1  0  0  0  0
 36 37  1  0  0  0  0
 36 35  2  0  0  0  0
 37 38  2  0  0  0  0
 38 39  1  0  0  0  0
 39 43  1  0  0  0  0
 40 39  2  0  0  0  0
 41 35  1  0  0  0  0
 42 36  1  0  0  0  0
M  END
>  <minimizedAffinity>
-6.03635359

$$$$
