
 OpenBabel03252509253D

 30 33  0  0  1  0  0  0  0  0999 V2000
   33.4960   28.8580   38.0020 C   0  0  1  0  0  0  0  0  0  0  0  0
   34.5220   27.8610   37.3980 C   0  0  0  0  0  0  0  0  0  0  0  0
   34.8390   29.3020   37.9040 C   0  0  2  0  0  0  0  0  0  0  0  0
   33.0110   28.4640   38.9190 H   0  0  0  0  0  0  0  0  0  0  0  0
   34.9260   27.0790   38.0520 H   0  0  0  0  0  0  0  0  0  0  0  0
   34.5400   27.6910   36.3270 H   0  0  0  0  0  0  0  0  0  0  0  0
   35.1050   29.9950   37.0700 H   0  0  0  0  0  0  0  0  0  0  0  0
   35.7290   29.4020   39.1070 C   0  0  0  0  0  0  0  0  0  0  0  0
   36.6670   30.4310   39.0680 C   0  0  0  0  0  0  0  0  0  0  0  0
   36.7460   31.1090   38.2290 H   0  0  0  0  0  0  0  0  0  0  0  0
   37.5320   30.5970   40.1400 C   0  0  0  0  0  3  0  0  0  0  0  0
   37.4520   29.7450   41.2220 C   0  0  0  0  0  0  0  0  0  0  0  0
   38.2810   29.8710   42.2950 N   0  0  0  0  0  0  0  0  0  0  0  0
   38.1850   29.0290   43.3410 C   0  0  0  0  0  0  0  0  0  0  0  0
   38.8590   29.1530   44.1830 H   0  0  0  0  0  0  0  0  0  0  0  0
   37.2680   28.0010   43.4080 C   0  0  0  0  0  3  0  0  0  0  0  0
   36.4380   27.9030   42.2960 C   0  0  0  0  0  3  0  0  0  0  0  0
   36.4970   28.7450   41.1940 C   0  0  0  0  0  0  0  0  0  0  0  0
   35.6090   28.5280   40.1600 C   0  0  0  0  0  3  0  0  0  0  0  0
   30.4240   30.2060   36.3180 C   0  0  0  0  0  0  0  0  0  0  0  0
   31.2830   29.7500   37.3720 C   0  0  0  0  0  0  0  0  0  0  0  0
   32.5030   29.2900   36.9470 C   0  0  0  0  0  0  0  0  0  0  0  0
   32.8630   29.2690   35.6050 N   0  0  0  0  0  0  0  0  0  0  0  0
   32.0130   29.7090   34.6740 C   0  0  0  0  0  0  0  0  0  0  0  0
   30.7880   30.1780   35.0280 N   0  0  0  0  0  0  0  0  0  0  0  0
   29.4510   30.5790   36.6040 H   0  0  0  0  0  0  0  0  0  0  0  0
   32.4370   29.6280   33.6830 H   0  0  0  0  0  0  0  0  0  0  0  0
   30.8930   29.7500   38.7430 N   0  0  0  0  0  0  0  0  0  0  0  0
   31.4340   30.2170   39.5180 H   0  0  0  0  0  0  0  0  0  0  0  0
   29.9890   29.2110   38.8160 H   0  0  0  0  0  0  0  0  0  0  0  0
  1  4  1  1  0  0  0
  2  3  1  0  0  0  0
  2  1  1  0  0  0  0
  2  5  1  0  0  0  0
  3  7  1  6  0  0  0
  3  1  1  0  0  0  0
  3  8  1  0  0  0  0
  6  2  1  0  0  0  0
  8 19  1  0  0  0  0
  9  8  2  0  0  0  0
  9 11  1  0  0  0  0
 10  9  1  0  0  0  0
 11 12  2  0  0  0  0
 12 13  1  0  0  0  0
 13 14  2  0  0  0  0
 14 16  1  0  0  0  0
 14 15  1  0  0  0  0
 17 16  2  0  0  0  0
 18 12  1  0  0  0  0
 18 17  1  0  0  0  0
 19 18  2  0  0  0  0
 20 26  1  0  0  0  0
 20 21  1  0  0  0  0
 21 28  1  0  0  0  0
 22 21  2  0  0  0  0
 22  1  1  0  0  0  0
 23 22  1  0  0  0  0
 24 25  1  0  0  0  0
 24 23  2  0  0  0  0
 25 20  2  0  0  0  0
 27 24  1  0  0  0  0
 28 30  1  0  0  0  0
 28 29  1  0  0  0  0
M  END
>  <minimizedAffinity>
-5.59560299

$$$$

 OpenBabel03252509253D

 30 33  0  0  1  0  0  0  0  0999 V2000
   36.9130   27.2840   41.0080 C   0  0  1  0  0  0  0  0  0  0  0  0
   36.7650   27.5920   42.5230 C   0  0  0  0  0  0  0  0  0  0  0  0
   37.9940   27.9550   41.6330 C   0  0  2  0  0  0  0  0  0  0  0  0
   36.1210   27.7640   40.3970 H   0  0  0  0  0  0  0  0  0  0  0  0
   36.1750   28.4690   42.8140 H   0  0  0  0  0  0  0  0  0  0  0  0
   36.8900   26.7950   43.2480 H   0  0  0  0  0  0  0  0  0  0  0  0
   38.9000   27.3590   41.9000 H   0  0  0  0  0  0  0  0  0  0  0  0
   38.2490   29.4160   41.4180 C   0  0  0  0  0  0  0  0  0  0  0  0
   39.3250   29.9430   42.1280 C   0  0  0  0  0  0  0  0  0  0  0  0
   39.9320   29.3390   42.7890 H   0  0  0  0  0  0  0  0  0  0  0  0
   39.6330   31.2890   41.9890 C   0  0  0  0  0  3  0  0  0  0  0  0
   38.8740   32.0820   41.1530 C   0  0  0  0  0  0  0  0  0  0  0  0
   39.1390   33.4070   40.9870 N   0  0  0  0  0  0  0  0  0  0  0  0
   38.3860   34.1610   40.1660 C   0  0  0  0  0  0  0  0  0  0  0  0
   38.6200   35.2150   40.0520 H   0  0  0  0  0  0  0  0  0  0  0  0
   37.3150   33.6690   39.4500 C   0  0  0  0  0  3  0  0  0  0  0  0
   37.0730   32.3130   39.6440 C   0  0  0  0  0  3  0  0  0  0  0  0
   37.8190   31.4930   40.4780 C   0  0  0  0  0  0  0  0  0  0  0  0
   37.4620   30.1630   40.5740 C   0  0  0  0  0  3  0  0  0  0  0  0
   36.7560   23.8860   39.4190 C   0  0  0  0  0  0  0  0  0  0  0  0
   36.5690   25.2990   39.5820 C   0  0  0  0  0  0  0  0  0  0  0  0
   37.0070   25.7920   40.7850 C   0  0  0  0  0  0  0  0  0  0  0  0
   37.5800   24.9790   41.7560 N   0  0  0  0  0  0  0  0  0  0  0  0
   37.7230   23.6690   41.5390 C   0  0  0  0  0  0  0  0  0  0  0  0
   37.3100   23.1180   40.3680 N   0  0  0  0  0  0  0  0  0  0  0  0
   36.4260   23.4510   38.4860 H   0  0  0  0  0  0  0  0  0  0  0  0
   38.1820   23.1770   42.3850 H   0  0  0  0  0  0  0  0  0  0  0  0
   35.9560   26.1170   38.5900 N   0  0  0  0  0  0  0  0  0  0  0  0
   36.3950   26.9810   38.1720 H   0  0  0  0  0  0  0  0  0  0  0  0
   35.0140   25.6970   38.3690 H   0  0  0  0  0  0  0  0  0  0  0  0
  1  4  1  6  0  0  0
  1  3  1  0  0  0  0
  1  2  1  0  0  0  0
  2  5  1  0  0  0  0
  2  6  1  0  0  0  0
  3  7  1  1  0  0  0
  3  2  1  0  0  0  0
  8  3  1  0  0  0  0
  8  9  1  0  0  0  0
  9 10  1  0  0  0  0
 11  9  2  0  0  0  0
 12 11  1  0  0  0  0
 13 12  1  0  0  0  0
 14 13  2  0  0  0  0
 15 14  1  0  0  0  0
 16 17  2  0  0  0  0
 16 14  1  0  0  0  0
 17 18  1  0  0  0  0
 18 19  1  0  0  0  0
 18 12  2  0  0  0  0
 19  8  2  0  0  0  0
 20 21  2  0  0  0  0
 20 25  1  0  0  0  0
 21 22  1  0  0  0  0
 22  1  1  0  0  0  0
 22 23  2  0  0  0  0
 24 23  1  0  0  0  0
 24 27  1  0  0  0  0
 25 24  2  0  0  0  0
 26 20  1  0  0  0  0
 28 21  1  0  0  0  0
 29 28  1  0  0  0  0
 30 28  1  0  0  0  0
M  END
>  <minimizedAffinity>
-5.37571955

$$$$

 OpenBabel03252509253D

 30 33  0  0  1  0  0  0  0  0999 V2000
   34.9610   29.3330   39.0640 C   0  0  1  0  0  0  0  0  0  0  0  0
   35.6280   29.3240   37.6620 C   0  0  0  0  0  0  0  0  0  0  0  0
   34.3230   28.5660   38.0560 C   0  0  2  0  0  0  0  0  0  0  0  0
   34.6630   30.3510   39.3870 H   0  0  0  0  0  0  0  0  0  0  0  0
   35.4420   30.1770   36.9990 H   0  0  0  0  0  0  0  0  0  0  0  0
   36.5200   28.7310   37.4950 H   0  0  0  0  0  0  0  0  0  0  0  0
   34.4640   27.4580   38.0690 H   0  0  0  0  0  0  0  0  0  0  0  0
   33.0610   29.0270   37.3910 C   0  0  0  0  0  0  0  0  0  0  0  0
   32.9830   28.7750   36.0240 C   0  0  0  0  0  0  0  0  0  0  0  0
   33.7780   28.2810   35.4820 H   0  0  0  0  0  0  0  0  0  0  0  0
   31.8490   29.1680   35.3270 C   0  0  0  0  0  3  0  0  0  0  0  0
   30.8210   29.8000   35.9960 C   0  0  0  0  0  0  0  0  0  0  0  0
   29.6900   30.2040   35.3530 N   0  0  0  0  0  0  0  0  0  0  0  0
   28.6990   30.8180   36.0240 C   0  0  0  0  0  0  0  0  0  0  0  0
   27.8090   31.1290   35.4860 H   0  0  0  0  0  0  0  0  0  0  0  0
   28.7470   31.0820   37.3770 C   0  0  0  0  0  3  0  0  0  0  0  0
   29.9150   30.6560   38.0010 C   0  0  0  0  0  3  0  0  0  0  0  0
   30.9640   30.0190   37.3540 C   0  0  0  0  0  0  0  0  0  0  0  0
   32.0650   29.6520   38.1030 C   0  0  0  0  0  3  0  0  0  0  0  0
   36.9680   28.5600   42.1410 C   0  0  0  0  0  0  0  0  0  0  0  0
   36.1860   29.3170   41.2060 C   0  0  0  0  0  0  0  0  0  0  0  0
   35.8460   28.6310   40.0680 C   0  0  0  0  0  0  0  0  0  0  0  0
   36.2360   27.3140   39.8500 N   0  0  0  0  0  0  0  0  0  0  0  0
   36.9650   26.6680   40.7630 C   0  0  0  0  0  0  0  0  0  0  0  0
   37.3340   27.2910   41.9130 N   0  0  0  0  0  0  0  0  0  0  0  0
   37.2600   29.0590   43.0540 H   0  0  0  0  0  0  0  0  0  0  0  0
   37.1870   25.6580   40.4490 H   0  0  0  0  0  0  0  0  0  0  0  0
   35.8160   30.6750   41.4290 N   0  0  0  0  0  0  0  0  0  0  0  0
   34.8250   31.0360   41.4050 H   0  0  0  0  0  0  0  0  0  0  0  0
   36.7000   31.2180   41.6140 H   0  0  0  0  0  0  0  0  0  0  0  0
  1  4  1  1  0  0  0
  1 22  1  0  0  0  0
  2  3  1  0  0  0  0
  2  1  1  0  0  0  0
  3  7  1  1  0  0  0
  3  1  1  0  0  0  0
  5  2  1  0  0  0  0
  6  2  1  0  0  0  0
  8  3  1  0  0  0  0
  8 19  1  0  0  0  0
  9  8  2  0  0  0  0
 10  9  1  0  0  0  0
 11 12  2  0  0  0  0
 11  9  1  0  0  0  0
 12 18  1  0  0  0  0
 13 12  1  0  0  0  0
 13 14  2  0  0  0  0
 14 16  1  0  0  0  0
 15 14  1  0  0  0  0
 16 17  2  0  0  0  0
 18 17  1  0  0  0  0
 18 19  2  0  0  0  0
 20 26  1  0  0  0  0
 21 28  1  0  0  0  0
 21 20  2  0  0  0  0
 22 21  1  0  0  0  0
 23 22  2  0  0  0  0
 23 24  1  0  0  0  0
 24 25  2  0  0  0  0
 25 20  1  0  0  0  0
 27 24  1  0  0  0  0
 28 30  1  0  0  0  0
 29 28  1  0  0  0  0
M  END
>  <minimizedAffinity>
-5.28623915

$$$$

 OpenBabel03252509253D

 30 33  0  0  1  0  0  0  0  0999 V2000
   34.9010   29.4340   38.9120 C   0  0  1  0  0  0  0  0  0  0  0  0
   35.5170   29.3140   37.4910 C   0  0  0  0  0  0  0  0  0  0  0  0
   34.1780   28.6670   37.9630 C   0  0  2  0  0  0  0  0  0  0  0  0
   34.6850   30.4850   39.1930 H   0  0  0  0  0  0  0  0  0  0  0  0
   35.3660   30.1460   36.7930 H   0  0  0  0  0  0  0  0  0  0  0  0
   36.3600   28.6540   37.3240 H   0  0  0  0  0  0  0  0  0  0  0  0
   34.2440   27.5540   38.0260 H   0  0  0  0  0  0  0  0  0  0  0  0
   32.9270   29.1830   37.3180 C   0  0  0  0  0  0  0  0  0  0  0  0
   31.9350   29.6070   38.1980 C   0  0  0  0  0  0  0  0  0  0  0  0
   32.0600   29.5670   39.2720 H   0  0  0  0  0  0  0  0  0  0  0  0
   30.7430   30.1000   37.6880 C   0  0  0  0  0  3  0  0  0  0  0  0
   30.5580   30.1620   36.3210 C   0  0  0  0  0  0  0  0  0  0  0  0
   29.4050   30.6370   35.7750 N   0  0  0  0  0  0  0  0  0  0  0  0
   29.2460   30.6890   34.4400 C   0  0  0  0  0  0  0  0  0  0  0  0
   28.3160   31.0730   34.0330 H   0  0  0  0  0  0  0  0  0  0  0  0
   30.2090   30.2760   33.5430 C   0  0  0  0  0  3  0  0  0  0  0  0
   31.3730   29.7980   34.1350 C   0  0  0  0  0  3  0  0  0  0  0  0
   31.5850   29.7230   35.5050 C   0  0  0  0  0  0  0  0  0  0  0  0
   32.7930   29.2240   35.9510 C   0  0  0  0  0  3  0  0  0  0  0  0
   36.8570   28.6210   42.0110 C   0  0  0  0  0  0  0  0  0  0  0  0
   36.0880   29.3890   41.0750 C   0  0  0  0  0  0  0  0  0  0  0  0
   35.7720   28.7200   39.9200 C   0  0  0  0  0  0  0  0  0  0  0  0
   36.1720   27.4090   39.6880 N   0  0  0  0  0  0  0  0  0  0  0  0
   36.8890   26.7520   40.6030 C   0  0  0  0  0  0  0  0  0  0  0  0
   37.2340   27.3580   41.7690 N   0  0  0  0  0  0  0  0  0  0  0  0
   37.1310   29.1060   42.9370 H   0  0  0  0  0  0  0  0  0  0  0  0
   37.1210   25.7480   40.2770 H   0  0  0  0  0  0  0  0  0  0  0  0
   35.7070   30.7420   41.3130 N   0  0  0  0  0  0  0  0  0  0  0  0
   34.7150   31.0980   41.2770 H   0  0  0  0  0  0  0  0  0  0  0  0
   36.5850   31.2870   41.5230 H   0  0  0  0  0  0  0  0  0  0  0  0
  1  4  1  1  0  0  0
  1 22  1  0  0  0  0
  2  3  1  0  0  0  0
  2  1  1  0  0  0  0
  3  7  1  1  0  0  0
  3  1  1  0  0  0  0
  5  2  1  0  0  0  0
  6  2  1  0  0  0  0
  8  3  1  0  0  0  0
  8  9  1  0  0  0  0
  9 10  1  0  0  0  0
 11  9  2  0  0  0  0
 12 11  1  0  0  0  0
 13 12  1  0  0  0  0
 14 13  2  0  0  0  0
 15 14  1  0  0  0  0
 16 17  2  0  0  0  0
 16 14  1  0  0  0  0
 17 18  1  0  0  0  0
 18 19  1  0  0  0  0
 18 12  2  0  0  0  0
 19  8  2  0  0  0  0
 20 26  1  0  0  0  0
 21 28  1  0  0  0  0
 21 20  2  0  0  0  0
 22 21  1  0  0  0  0
 23 22  2  0  0  0  0
 23 24  1  0  0  0  0
 24 25  2  0  0  0  0
 25 20  1  0  0  0  0
 27 24  1  0  0  0  0
 28 30  1  0  0  0  0
 29 28  1  0  0  0  0
M  END
>  <minimizedAffinity>
-5.21179247

$$$$

 OpenBabel03252509253D

 30 33  0  0  1  0  0  0  0  0999 V2000
   39.2700   30.9450   39.2140 C   0  0  1  0  0  0  0  0  0  0  0  0
   38.8940   30.3680   40.6060 C   0  0  0  0  0  0  0  0  0  0  0  0
   37.9390   31.1540   39.6550 C   0  0  2  0  0  0  0  0  0  0  0  0
   39.5990   30.1590   38.5030 H   0  0  0  0  0  0  0  0  0  0  0  0
   38.6480   29.3010   40.6710 H   0  0  0  0  0  0  0  0  0  0  0  0
   39.2310   30.8710   41.5060 H   0  0  0  0  0  0  0  0  0  0  0  0
   37.6710   32.1600   40.0620 H   0  0  0  0  0  0  0  0  0  0  0  0
   36.7860   30.3840   39.0860 C   0  0  0  0  0  0  0  0  0  0  0  0
   35.8310   29.9720   40.0130 C   0  0  0  0  0  0  0  0  0  0  0  0
   35.9170   30.1940   41.0680 H   0  0  0  0  0  0  0  0  0  0  0  0
   34.7290   29.2520   39.5740 C   0  0  0  0  0  3  0  0  0  0  0  0
   34.5960   28.9560   38.2330 C   0  0  0  0  0  0  0  0  0  0  0  0
   33.5320   28.2520   37.7570 N   0  0  0  0  0  0  0  0  0  0  0  0
   33.4220   27.9740   36.4450 C   0  0  0  0  0  0  0  0  0  0  0  0
   32.5630   27.4120   36.0940 H   0  0  0  0  0  0  0  0  0  0  0  0
   34.3500   28.3680   35.5040 C   0  0  0  0  0  3  0  0  0  0  0  0
   35.4230   29.0840   36.0250 C   0  0  0  0  0  3  0  0  0  0  0  0
   35.5820   29.3960   37.3680 C   0  0  0  0  0  0  0  0  0  0  0  0
   36.7000   30.1140   37.7420 C   0  0  0  0  0  3  0  0  0  0  0  0
   41.5280   33.8510   38.4770 C   0  0  0  0  0  0  0  0  0  0  0  0
   40.6240   32.7640   38.2400 C   0  0  0  0  0  0  0  0  0  0  0  0
   40.2770   32.0620   39.3660 C   0  0  0  0  0  0  0  0  0  0  0  0
   40.7710   32.3850   40.6240 N   0  0  0  0  0  0  0  0  0  0  0  0
   41.6130   33.4110   40.7740 C   0  0  0  0  0  0  0  0  0  0  0  0
   41.9950   34.1480   39.6980 N   0  0  0  0  0  0  0  0  0  0  0  0
   41.8300   34.4350   37.6190 H   0  0  0  0  0  0  0  0  0  0  0  0
   41.9060   33.5340   41.8070 H   0  0  0  0  0  0  0  0  0  0  0  0
   40.1450   32.4250   36.9410 N   0  0  0  0  0  0  0  0  0  0  0  0
   39.1260   32.3460   36.6810 H   0  0  0  0  0  0  0  0  0  0  0  0
   40.9850   32.2780   36.3220 H   0  0  0  0  0  0  0  0  0  0  0  0
  1  4  1  6  0  0  0
  1 22  1  0  0  0  0
  1  3  1  0  0  0  0
  1  2  1  0  0  0  0
  2  5  1  0  0  0  0
  2  6  1  0  0  0  0
  3  7  1  1  0  0  0
  3  2  1  0  0  0  0
  8  3  1  0  0  0  0
  8  9  1  0  0  0  0
  9 10  1  0  0  0  0
 11  9  2  0  0  0  0
 12 11  1  0  0  0  0
 13 12  1  0  0  0  0
 14 13  2  0  0  0  0
 15 14  1  0  0  0  0
 16 17  2  0  0  0  0
 16 14  1  0  0  0  0
 17 18  1  0  0  0  0
 18 19  1  0  0  0  0
 18 12  2  0  0  0  0
 19  8  2  0  0  0  0
 20 25  1  0  0  0  0
 21 20  2  0  0  0  0
 21 22  1  0  0  0  0
 22 23  2  0  0  0  0
 23 24  1  0  0  0  0
 24 27  1  0  0  0  0
 25 24  2  0  0  0  0
 26 20  1  0  0  0  0
 28 21  1  0  0  0  0
 29 28  1  0  0  0  0
 30 28  1  0  0  0  0
M  END
>  <minimizedAffinity>
-5.20715141

$$$$

 OpenBabel03252509253D

 30 33  0  0  1  0  0  0  0  0999 V2000
   37.2200   26.4320   41.6140 C   0  0  1  0  0  0  0  0  0  0  0  0
   36.6160   27.8260   41.9330 C   0  0  0  0  0  0  0  0  0  0  0  0
   37.1970   27.3770   40.5570 C   0  0  2  0  0  0  0  0  0  0  0  0
   36.4910   25.6090   41.7610 H   0  0  0  0  0  0  0  0  0  0  0  0
   35.5250   27.9280   41.9230 H   0  0  0  0  0  0  0  0  0  0  0  0
   37.1910   28.5420   42.5100 H   0  0  0  0  0  0  0  0  0  0  0  0
   38.1470   27.9080   40.3040 H   0  0  0  0  0  0  0  0  0  0  0  0
   36.2190   27.2740   39.4250 C   0  0  0  0  0  0  0  0  0  0  0  0
   36.1950   26.0450   38.7700 C   0  0  0  0  0  0  0  0  0  0  0  0
   36.8380   25.2250   39.0590 H   0  0  0  0  0  0  0  0  0  0  0  0
   35.3200   25.8610   37.7090 C   0  0  0  0  0  3  0  0  0  0  0  0
   34.4900   26.8930   37.3210 C   0  0  0  0  0  0  0  0  0  0  0  0
   33.6160   26.7580   36.2860 N   0  0  0  0  0  0  0  0  0  0  0  0
   32.8150   27.7770   35.9240 C   0  0  0  0  0  0  0  0  0  0  0  0
   32.1280   27.6410   35.0950 H   0  0  0  0  0  0  0  0  0  0  0  0
   32.8150   29.0050   36.5530 C   0  0  0  0  0  3  0  0  0  0  0  0
   33.7200   29.1070   37.6050 C   0  0  0  0  0  3  0  0  0  0  0  0
   34.5660   28.0870   38.0160 C   0  0  0  0  0  0  0  0  0  0  0  0
   35.4140   28.3320   39.0780 C   0  0  0  0  0  3  0  0  0  0  0  0
   40.2230   24.8410   43.2090 C   0  0  0  0  0  0  0  0  0  0  0  0
   38.9670   24.9450   42.5250 C   0  0  0  0  0  0  0  0  0  0  0  0
   38.5030   26.2280   42.3860 C   0  0  0  0  0  0  0  0  0  0  0  0
   39.2020   27.3270   42.8750 N   0  0  0  0  0  0  0  0  0  0  0  0
   40.3670   27.1580   43.5040 C   0  0  0  0  0  0  0  0  0  0  0  0
   40.8820   25.9120   43.6730 N   0  0  0  0  0  0  0  0  0  0  0  0
   40.6290   23.8480   43.3420 H   0  0  0  0  0  0  0  0  0  0  0  0
   40.7840   28.1030   43.8230 H   0  0  0  0  0  0  0  0  0  0  0  0
   38.2470   23.8090   42.0530 N   0  0  0  0  0  0  0  0  0  0  0  0
   37.9260   23.6760   41.0570 H   0  0  0  0  0  0  0  0  0  0  0  0
   38.1090   23.1580   42.8710 H   0  0  0  0  0  0  0  0  0  0  0  0
  1  4  1  6  0  0  0
  1  2  1  0  0  0  0
  1 22  1  0  0  0  0
  2  6  1  0  0  0  0
  3  7  1  6  0  0  0
  3  1  1  0  0  0  0
  3  2  1  0  0  0  0
  5  2  1  0  0  0  0
  8  3  1  0  0  0  0
  9 10  1  0  0  0  0
  9  8  2  0  0  0  0
 11  9  1  0  0  0  0
 12 11  2  0  0  0  0
 12 18  1  0  0  0  0
 13 12  1  0  0  0  0
 14 13  2  0  0  0  0
 14 16  1  0  0  0  0
 15 14  1  0  0  0  0
 16 17  2  0  0  0  0
 17 18  1  0  0  0  0
 18 19  2  0  0  0  0
 19  8  1  0  0  0  0
 20 26  1  0  0  0  0
 20 25  1  0  0  0  0
 21 20  2  0  0  0  0
 22 21  1  0  0  0  0
 22 23  2  0  0  0  0
 23 24  1  0  0  0  0
 24 25  2  0  0  0  0
 24 27  1  0  0  0  0
 28 21  1  0  0  0  0
 28 30  1  0  0  0  0
 29 28  1  0  0  0  0
M  END
>  <minimizedAffinity>
-5.15773249

$$$$

 OpenBabel03252509253D

 30 33  0  0  1  0  0  0  0  0999 V2000
   37.3020   30.3370   41.1990 C   0  0  1  0  0  0  0  0  0  0  0  0
   35.8540   30.0850   40.6970 C   0  0  0  0  0  0  0  0  0  0  0  0
   37.1350   29.3490   40.1960 C   0  0  2  0  0  0  0  0  0  0  0  0
   37.4150   30.1420   42.2850 H   0  0  0  0  0  0  0  0  0  0  0  0
   35.2030   29.4440   41.3040 H   0  0  0  0  0  0  0  0  0  0  0  0
   35.3870   30.7940   40.0220 H   0  0  0  0  0  0  0  0  0  0  0  0
   37.3930   29.6180   39.1430 H   0  0  0  0  0  0  0  0  0  0  0  0
   37.2230   27.8840   40.5050 C   0  0  0  0  0  0  0  0  0  0  0  0
   37.4900   27.5730   41.8370 C   0  0  0  0  0  0  0  0  0  0  0  0
   37.6230   28.3360   42.5920 H   0  0  0  0  0  0  0  0  0  0  0  0
   37.5890   26.2420   42.2130 C   0  0  0  0  0  3  0  0  0  0  0  0
   37.4230   25.2500   41.2680 C   0  0  0  0  0  0  0  0  0  0  0  0
   37.5120   23.9300   41.5910 N   0  0  0  0  0  0  0  0  0  0  0  0
   37.3470   22.9790   40.6540 C   0  0  0  0  0  0  0  0  0  0  0  0
   37.4230   21.9350   40.9400 H   0  0  0  0  0  0  0  0  0  0  0  0
   37.0830   23.2560   39.3290 C   0  0  0  0  0  3  0  0  0  0  0  0
   36.9980   24.6130   39.0340 C   0  0  0  0  0  3  0  0  0  0  0  0
   37.1610   25.6300   39.9640 C   0  0  0  0  0  0  0  0  0  0  0  0
   37.0510   26.9350   39.5270 C   0  0  0  0  0  3  0  0  0  0  0  0
   39.3660   33.4470   40.7990 C   0  0  0  0  0  0  0  0  0  0  0  0
   38.9670   32.1560   41.2820 C   0  0  0  0  0  0  0  0  0  0  0  0
   37.7610   31.7190   40.7960 C   0  0  0  0  0  0  0  0  0  0  0  0
   36.9980   32.4760   39.9140 N   0  0  0  0  0  0  0  0  0  0  0  0
   37.4290   33.6710   39.5050 C   0  0  0  0  0  0  0  0  0  0  0  0
   38.6160   34.1610   39.9480 N   0  0  0  0  0  0  0  0  0  0  0  0
   40.3110   33.8330   41.1540 H   0  0  0  0  0  0  0  0  0  0  0  0
   36.7280   34.1320   38.8240 H   0  0  0  0  0  0  0  0  0  0  0  0
   39.7450   31.4030   42.2080 N   0  0  0  0  0  0  0  0  0  0  0  0
   40.0720   30.4130   42.0470 H   0  0  0  0  0  0  0  0  0  0  0  0
   39.9190   32.0150   43.0480 H   0  0  0  0  0  0  0  0  0  0  0  0
  1  4  1  1  0  0  0
  2  1  1  0  0  0  0
  2  5  1  0  0  0  0
  3  7  1  6  0  0  0
  3  8  1  0  0  0  0
  3  2  1  0  0  0  0
  3  1  1  0  0  0  0
  6  2  1  0  0  0  0
  8  9  1  0  0  0  0
  9 11  2  0  0  0  0
  9 10  1  0  0  0  0
 12 13  1  0  0  0  0
 12 11  1  0  0  0  0
 14 15  1  0  0  0  0
 14 13  2  0  0  0  0
 16 14  1  0  0  0  0
 17 16  2  0  0  0  0
 17 18  1  0  0  0  0
 18 12  2  0  0  0  0
 19 18  1  0  0  0  0
 19  8  2  0  0  0  0
 20 26  1  0  0  0  0
 20 21  1  0  0  0  0
 21 28  1  0  0  0  0
 22  1  1  0  0  0  0
 22 21  2  0  0  0  0
 23 22  1  0  0  0  0
 24 23  2  0  0  0  0
 24 25  1  0  0  0  0
 25 20  2  0  0  0  0
 27 24  1  0  0  0  0
 28 30  1  0  0  0  0
 29 28  1  0  0  0  0
M  END
>  <minimizedAffinity>
-5.15694189

$$$$

 OpenBabel03252509253D

 30 33  0  0  1  0  0  0  0  0999 V2000
   35.8460   28.7030   39.6990 C   0  0  1  0  0  0  0  0  0  0  0  0
   36.8920   29.2310   38.6800 C   0  0  0  0  0  0  0  0  0  0  0  0
   35.7620   28.2000   38.3760 C   0  0  2  0  0  0  0  0  0  0  0  0
   35.2180   29.5140   40.1230 H   0  0  0  0  0  0  0  0  0  0  0  0
   36.7130   30.2100   38.2190 H   0  0  0  0  0  0  0  0  0  0  0  0
   37.9110   28.8620   38.7150 H   0  0  0  0  0  0  0  0  0  0  0  0
   36.1650   27.1770   38.1750 H   0  0  0  0  0  0  0  0  0  0  0  0
   34.6930   28.6480   37.4250 C   0  0  0  0  0  0  0  0  0  0  0  0
   35.0720   28.6990   36.0860 C   0  0  0  0  0  0  0  0  0  0  0  0
   36.0680   28.4350   35.7570 H   0  0  0  0  0  0  0  0  0  0  0  0
   34.1450   29.1040   35.1360 C   0  0  0  0  0  3  0  0  0  0  0  0
   32.8680   29.4470   35.5300 C   0  0  0  0  0  0  0  0  0  0  0  0
   31.9260   29.8500   34.6330 N   0  0  0  0  0  0  0  0  0  0  0  0
   30.6860   30.1800   35.0380 C   0  0  0  0  0  0  0  0  0  0  0  0
   29.9550   30.4970   34.3010 H   0  0  0  0  0  0  0  0  0  0  0  0
   30.2810   30.1390   36.3560 C   0  0  0  0  0  3  0  0  0  0  0  0
   31.2680   29.7230   37.2440 C   0  0  0  0  0  3  0  0  0  0  0  0
   32.5590   29.3730   36.8760 C   0  0  0  0  0  0  0  0  0  0  0  0
   33.4350   28.9790   37.8680 C   0  0  0  0  0  3  0  0  0  0  0  0
   37.3550   27.5790   42.9470 C   0  0  0  0  0  0  0  0  0  0  0  0
   36.7740   28.4560   41.9720 C   0  0  0  0  0  0  0  0  0  0  0  0
   36.5250   27.8660   40.7590 C   0  0  0  0  0  0  0  0  0  0  0  0
   36.8180   26.5310   40.5080 N   0  0  0  0  0  0  0  0  0  0  0  0
   37.3600   25.7700   41.4620 C   0  0  0  0  0  0  0  0  0  0  0  0
   37.6320   26.2940   42.6860 N   0  0  0  0  0  0  0  0  0  0  0  0
   37.5700   27.9990   43.9190 H   0  0  0  0  0  0  0  0  0  0  0  0
   37.5280   24.7610   41.1140 H   0  0  0  0  0  0  0  0  0  0  0  0
   36.5030   29.8310   42.2330 N   0  0  0  0  0  0  0  0  0  0  0  0
   35.5610   30.2880   42.1080 H   0  0  0  0  0  0  0  0  0  0  0  0
   37.4010   30.2740   42.5620 H   0  0  0  0  0  0  0  0  0  0  0  0
  1  4  1  1  0  0  0
  1 22  1  0  0  0  0
  2  6  1  0  0  0  0
  2  1  1  0  0  0  0
  3  7  1  6  0  0  0
  3  2  1  0  0  0  0
  3  1  1  0  0  0  0
  5  2  1  0  0  0  0
  8 19  1  0  0  0  0
  8  3  1  0  0  0  0
  9  8  2  0  0  0  0
 10  9  1  0  0  0  0
 11 12  2  0  0  0  0
 11  9  1  0  0  0  0
 12 18  1  0  0  0  0
 13 14  2  0  0  0  0
 13 12  1  0  0  0  0
 14 16  1  0  0  0  0
 15 14  1  0  0  0  0
 16 17  2  0  0  0  0
 18 17  1  0  0  0  0
 18 19  2  0  0  0  0
 20 26  1  0  0  0  0
 21 28  1  0  0  0  0
 21 20  2  0  0  0  0
 22 21  1  0  0  0  0
 23 22  2  0  0  0  0
 23 24  1  0  0  0  0
 24 25  2  0  0  0  0
 25 20  1  0  0  0  0
 27 24  1  0  0  0  0
 28 30  1  0  0  0  0
 29 28  1  0  0  0  0
M  END
>  <minimizedAffinity>
-5.10521317

$$$$

 OpenBabel03252509253D

 30 33  0  0  1  0  0  0  0  0999 V2000
   37.1680   30.2030   40.7780 C   0  0  1  0  0  0  0  0  0  0  0  0
   35.6210   30.1600   40.6470 C   0  0  0  0  0  0  0  0  0  0  0  0
   36.6390   29.4920   39.6710 C   0  0  2  0  0  0  0  0  0  0  0  0
   37.5260   29.7500   41.7260 H   0  0  0  0  0  0  0  0  0  0  0  0
   35.0730   29.4320   41.2560 H   0  0  0  0  0  0  0  0  0  0  0  0
   35.0870   31.0340   40.2910 H   0  0  0  0  0  0  0  0  0  0  0  0
   36.6550   29.9880   38.6710 H   0  0  0  0  0  0  0  0  0  0  0  0
   36.6290   27.9930   39.6250 C   0  0  0  0  0  0  0  0  0  0  0  0
   36.0150   27.4380   38.5050 C   0  0  0  0  0  0  0  0  0  0  0  0
   35.5780   28.0460   37.7250 H   0  0  0  0  0  0  0  0  0  0  0  0
   35.9600   26.0570   38.3800 C   0  0  0  0  0  3  0  0  0  0  0  0
   36.5100   25.2580   39.3620 C   0  0  0  0  0  0  0  0  0  0  0  0
   36.4790   23.8990   39.2810 N   0  0  0  0  0  0  0  0  0  0  0  0
   37.0220   23.1400   40.2500 C   0  0  0  0  0  0  0  0  0  0  0  0
   36.9820   22.0590   40.1590 H   0  0  0  0  0  0  0  0  0  0  0  0
   37.6350   23.6610   41.3700 C   0  0  0  0  0  3  0  0  0  0  0  0
   37.6500   25.0510   41.4190 C   0  0  0  0  0  3  0  0  0  0  0  0
   37.1040   25.8770   40.4470 C   0  0  0  0  0  0  0  0  0  0  0  0
   37.1910   27.2430   40.6300 C   0  0  0  0  0  3  0  0  0  0  0  0
   39.3210   33.2770   40.8290 C   0  0  0  0  0  0  0  0  0  0  0  0
   38.8790   31.9460   41.1280 C   0  0  0  0  0  0  0  0  0  0  0  0
   37.6710   31.6130   40.5710 C   0  0  0  0  0  0  0  0  0  0  0  0
   36.9450   32.5010   39.7860 N   0  0  0  0  0  0  0  0  0  0  0  0
   37.4150   33.7280   39.5470 C   0  0  0  0  0  0  0  0  0  0  0  0
   38.6070   34.1200   40.0700 N   0  0  0  0  0  0  0  0  0  0  0  0
   40.2690   33.5860   41.2460 H   0  0  0  0  0  0  0  0  0  0  0  0
   36.7390   34.2960   38.9240 H   0  0  0  0  0  0  0  0  0  0  0  0
   39.6190   31.0540   41.9570 N   0  0  0  0  0  0  0  0  0  0  0  0
   39.9230   30.0850   41.6710 H   0  0  0  0  0  0  0  0  0  0  0  0
   39.7940   31.5430   42.8740 H   0  0  0  0  0  0  0  0  0  0  0  0
  1  4  1  1  0  0  0
  2  1  1  0  0  0  0
  2  5  1  0  0  0  0
  3  7  1  6  0  0  0
  3  2  1  0  0  0  0
  3  1  1  0  0  0  0
  6  2  1  0  0  0  0
  8  3  1  0  0  0  0
  8 19  1  0  0  0  0
  9  8  2  0  0  0  0
 10  9  1  0  0  0  0
 11  9  1  0  0  0  0
 11 12  2  0  0  0  0
 12 18  1  0  0  0  0
 13 12  1  0  0  0  0
 13 14  2  0  0  0  0
 14 16  1  0  0  0  0
 15 14  1  0  0  0  0
 16 17  2  0  0  0  0
 18 19  2  0  0  0  0
 18 17  1  0  0  0  0
 20 21  1  0  0  0  0
 20 26  1  0  0  0  0
 21 28  1  0  0  0  0
 22  1  1  0  0  0  0
 22 21  2  0  0  0  0
 23 22  1  0  0  0  0
 24 23  2  0  0  0  0
 24 25  1  0  0  0  0
 25 20  2  0  0  0  0
 27 24  1  0  0  0  0
 28 30  1  0  0  0  0
 29 28  1  0  0  0  0
M  END
>  <minimizedAffinity>
-5.06149864

$$$$
