
 OpenBabel03242523123D

 49 54  0  0  1  0  0  0  0  0999 V2000
   45.7740   31.4450   44.2420 C   0  0  0  0  0  0  0  0  0  0  0  0
   46.6690   32.5100   44.0050 C   0  0  0  0  0  0  0  0  0  0  0  0
   47.9560   32.0550   43.8460 C   0  0  0  0  0  0  0  0  0  0  0  0
   48.3610   30.7580   43.9040 C   0  0  0  0  0  0  0  0  0  0  0  0
   47.4150   29.7670   44.1470 C   0  0  0  0  0  0  0  0  0  0  0  0
   46.1020   30.1200   44.3170 C   0  0  0  0  0  0  0  0  0  0  0  0
   48.1310   28.5830   44.1520 O   0  0  0  0  0  0  0  0  0  0  0  0
   49.4970   28.8330   43.8680 C   0  0  2  0  0  0  0  0  0  0  0  0
   49.6360   30.2500   43.7480 O   0  0  0  0  0  0  0  0  0  0  0  0
   44.6750   31.4670   44.3990 H   0  0  0  0  0  0  0  0  0  0  0  0
   48.6340   32.8310   43.6690 H   0  0  0  0  0  0  0  0  0  0  0  0
   45.4790   29.2860   44.4910 H   0  0  0  0  0  0  0  0  0  0  0  0
   50.1580   28.4850   44.6720 H   0  0  0  0  0  0  0  0  0  0  0  0
   45.3180   35.9730   43.5330 C   0  0  0  0  0  0  0  0  0  0  0  0
   46.0380   34.8300   43.1830 C   0  0  0  0  0  0  0  0  0  0  0  0
   46.0620   33.7710   44.0390 C   0  0  0  0  0  0  0  0  0  0  0  0
   45.3690   33.8980   45.2140 N   0  0  0  0  0  0  0  0  0  0  0  0
   44.6800   34.9920   45.5490 C   0  0  0  0  0  0  0  0  0  0  0  0
   44.6570   36.0070   44.7210 N   0  0  0  0  0  0  0  0  0  0  0  0
   45.2910   36.8190   42.8570 H   0  0  0  0  0  0  0  0  0  0  0  0
   44.1160   35.1470   46.4590 H   0  0  0  0  0  0  0  0  0  0  0  0
   46.7150   34.8490   41.9650 N   0  0  0  0  0  0  0  0  0  0  0  0
   47.9860   35.4810   41.8210 C   0  0  0  0  0  0  0  0  0  0  0  0
   48.6570   35.2600   40.4970 C   0  0  0  0  0  0  0  0  0  0  0  0
   48.5210   33.9710   39.9680 N   0  0  0  0  0  0  0  0  0  0  0  0
   47.2790   33.3830   40.0770 C   0  0  0  0  0  0  0  0  0  0  0  0
   46.2670   34.2800   40.7560 C   0  0  0  0  0  0  0  0  0  0  0  0
   48.7060   35.2650   42.6380 H   0  0  0  0  0  0  0  0  0  0  0  0
   47.7930   36.5860   41.8930 H   0  0  0  0  0  0  0  0  0  0  0  0
   49.7340   35.4860   40.6350 H   0  0  0  0  0  0  0  0  0  0  0  0
   48.2980   36.0210   39.7470 H   0  0  0  0  0  0  0  0  0  0  0  0
   49.3750   33.4000   40.1530 H   0  0  0  0  0  0  0  0  0  0  0  0
   46.8580   33.2120   39.0420 H   0  0  0  0  0  0  0  0  0  0  0  0
   47.3280   32.3880   40.5300 H   0  0  0  0  0  0  0  0  0  0  0  0
   45.3820   33.6090   40.9620 H   0  0  0  0  0  0  0  0  0  0  0  0
   45.9290   35.0770   40.0520 H   0  0  0  0  0  0  0  0  0  0  0  0
   49.7700   28.2490   42.6320 O   0  0  0  0  0  0  0  0  0  0  0  0
   50.4080   28.9700   41.6470 C   0  0  0  0  0  0  0  0  0  0  0  0
   51.7820   28.8560   41.8680 C   0  0  0  0  0  0  0  0  0  0  0  0
   52.3240   28.3100   42.6580 H   0  0  0  0  0  0  0  0  0  0  0  0
   52.7250   29.4750   41.0380 C   0  0  0  0  0  0  0  0  0  0  0  0
   52.2930   30.2280   39.9640 C   0  0  0  0  0  0  0  0  0  0  0  0
   53.1280   30.8550   39.1180 N   0  0  0  0  0  0  0  0  0  0  0  0
   52.6950   31.5920   38.0630 C   0  0  0  0  0  0  0  0  0  0  0  0
   53.3670   32.0970   37.3840 H   0  0  0  0  0  0  0  0  0  0  0  0
   51.3140   31.6930   37.8640 C   0  0  0  0  0  0  0  0  0  0  0  0
   50.4000   31.0610   38.7110 C   0  0  0  0  0  0  0  0  0  0  0  0
   50.9360   30.3370   39.7510 C   0  0  0  0  0  0  0  0  0  0  0  0
   50.0110   29.7270   40.5680 C   0  0  0  0  0  0  0  0  0  0  0  0
  1  6  1  0  0  0  0
  1 10  1  0  0  0  0
  2 16  1  0  0  0  0
  2  1  2  0  0  0  0
  3  4  2  0  0  0  0
  3  2  1  0  0  0  0
  4  5  1  0  0  0  0
  5  7  1  0  0  0  0
  5  6  2  0  0  0  0
  6 12  1  0  0  0  0
  8  7  1  0  0  0  0
  8 13  1  1  0  0  0
  9  8  1  0  0  0  0
  9  4  1  0  0  0  0
 11  3  1  0  0  0  0
 14 19  1  0  0  0  0
 15 14  2  0  0  0  0
 15 16  1  0  0  0  0
 16 17  2  0  0  0  0
 17 18  1  0  0  0  0
 18 21  1  0  0  0  0
 19 18  2  0  0  0  0
 20 14  1  0  0  0  0
 22 15  1  0  0  0  0
 23 29  1  0  0  0  0
 23 22  1  0  0  0  0
 23 28  1  0  0  0  0
 24 30  1  0  0  0  0
 24 23  1  0  0  0  0
 25 26  1  0  0  0  0
 25 32  1  0  0  0  0
 25 24  1  0  0  0  0
 26 34  1  0  0  0  0
 26 27  1  0  0  0  0
 27 35  1  0  0  0  0
 27 22  1  0  0  0  0
 31 24  1  0  0  0  0
 33 26  1  0  0  0  0
 36 27  1  0  0  0  0
 37  8  1  0  0  0  0
 38 39  1  0  0  0  0
 38 37  1  0  0  0  0
 39 40  1  0  0  0  0
 41 39  2  0  0  0  0
 42 41  1  0  0  0  0
 43 42  2  0  0  0  0
 44 43  1  0  0  0  0
 45 44  1  0  0  0  0
 46 44  2  0  0  0  0
 46 47  1  0  0  0  0
 47 48  2  0  0  0  0
 48 42  1  0  0  0  0
 48 49  1  0  0  0  0
 49 38  2  0  0  0  0
M  END
>  <minimizedAffinity>
-5.28655815

>  <minimizedRMSD>
3.52184248

$$$$
