
 OpenBabel03252502223D

 36 39  0  0  1  0  0  0  0  0999 V2000
   37.1520   28.1930   40.8900 N   0  0  0  0  0  0  0  0  0  0  0  0
   37.5930   26.8850   41.3100 C   0  0  0  0  0  0  0  0  0  0  0  0
   36.8920   26.6670   42.6680 C   0  0  0  0  0  0  0  0  0  0  0  0
   37.3540   27.6590   43.6800 C   0  0  0  0  0  0  0  0  0  0  0  0
   37.6570   29.0070   43.1380 C   0  0  0  0  0  0  0  0  0  0  0  0
   37.0190   29.2960   41.8070 C   0  0  1  0  0  0  0  0  0  0  0  0
   38.6890   26.9250   41.5010 H   0  0  0  0  0  0  0  0  0  0  0  0
   37.2760   26.0750   40.6530 H   0  0  0  0  0  0  0  0  0  0  0  0
   37.1300   25.6430   43.0360 H   0  0  0  0  0  0  0  0  0  0  0  0
   35.8070   26.7310   42.4470 H   0  0  0  0  0  0  0  0  0  0  0  0
   38.2370   27.2780   44.2490 H   0  0  0  0  0  0  0  0  0  0  0  0
   36.5310   27.7830   44.4310 H   0  0  0  0  0  0  0  0  0  0  0  0
   37.4410   29.8180   43.8350 H   0  0  0  0  0  0  0  0  0  0  0  0
   38.7690   29.0450   42.9450 H   0  0  0  0  0  0  0  0  0  0  0  0
   35.9300   29.4390   41.9800 H   0  0  0  0  0  0  0  0  0  0  0  0
   37.5660   30.5620   41.2640 C   0  0  0  0  0  0  0  0  0  0  0  0
   36.8340   31.5380   40.6190 C   0  0  0  0  0  0  0  0  0  0  0  0
   35.7710   31.3630   40.5010 H   0  0  0  0  0  0  0  0  0  0  0  0
   37.4580   32.6840   40.1510 C   0  0  0  0  0  3  0  0  0  0  0  0
   38.8160   32.8520   40.3300 C   0  0  0  0  0  0  0  0  0  0  0  0
   39.3870   33.9800   39.8620 N   0  0  0  0  0  0  0  0  0  0  0  0
   40.7280   34.1610   40.0310 C   0  0  0  0  0  0  0  0  0  0  0  0
   41.2960   35.0380   39.6920 H   0  0  0  0  0  0  0  0  0  0  0  0
   41.4970   33.2100   40.6700 C   0  0  0  0  0  3  0  0  0  0  0  0
   40.9470   32.0420   41.1630 C   0  0  0  0  0  3  0  0  0  0  0  0
   39.5950   31.8980   40.9730 C   0  0  0  0  0  0  0  0  0  0  0  0
   38.9390   30.7750   41.4230 C   0  0  0  0  0  3  0  0  0  0  0  0
   35.2500   28.8230   37.7250 C   0  0  0  0  0  0  0  0  0  0  0  0
   35.4870   28.5680   39.0810 C   0  0  0  0  0  0  0  0  0  0  0  0
   36.8230   28.4510   39.5300 C   0  0  0  0  0  0  0  0  0  0  0  0
   37.7940   28.5980   38.5910 N   0  0  0  0  0  0  0  0  0  0  0  0
   37.5330   28.8430   37.2870 C   0  0  0  0  0  0  0  0  0  0  0  0
   36.2540   28.9550   36.8610 N   0  0  0  0  0  0  0  0  0  0  0  0
   34.1880   28.8810   37.5630 H   0  0  0  0  0  0  0  0  0  0  0  0
   34.7800   28.4410   39.8720 H   0  0  0  0  0  0  0  0  0  0  0  0
   38.3170   28.9570   36.5560 H   0  0  0  0  0  0  0  0  0  0  0  0
  1  2  1  0  0  0  0
  1  6  1  0  0  0  0
  2  7  1  0  0  0  0
  2  3  1  0  0  0  0
  3  9  1  0  0  0  0
  3  4  1  0  0  0  0
  4 11  1  0  0  0  0
  4 12  1  0  0  0  0
  5  4  1  0  0  0  0
  5 13  1  0  0  0  0
  6 15  1  1  0  0  0
  6  5  1  0  0  0  0
  8  2  1  0  0  0  0
 10  3  1  0  0  0  0
 14  5  1  0  0  0  0
 16 27  1  0  0  0  0
 16  6  1  0  0  0  0
 17 16  2  0  0  0  0
 18 17  1  0  0  0  0
 19 20  2  0  0  0  0
 19 17  1  0  0  0  0
 20 26  1  0  0  0  0
 21 22  2  0  0  0  0
 21 20  1  0  0  0  0
 22 24  1  0  0  0  0
 23 22  1  0  0  0  0
 24 25  2  0  0  0  0
 26 25  1  0  0  0  0
 26 27  2  0  0  0  0
 28 29  1  0  0  0  0
 29 30  2  0  0  0  0
 29 35  1  0  0  0  0
 30  1  1  0  0  0  0
 31 30  1  0  0  0  0
 32 31  2  0  0  0  0
 33 32  1  0  0  0  0
 33 28  2  0  0  0  0
 34 28  1  0  0  0  0
 36 32  1  0  0  0  0
M  END
>  <minimizedAffinity>
-5.90447569

$$$$

 OpenBabel03252502223D

 36 39  0  0  1  0  0  0  0  0999 V2000
   38.5280   31.2500   40.7750 N   0  0  0  0  0  0  0  0  0  0  0  0
   39.7160   32.0360   40.5400 C   0  0  0  0  0  0  0  0  0  0  0  0
   39.3020   33.4710   40.9270 C   0  0  0  0  0  0  0  0  0  0  0  0
   38.2240   33.9830   40.0330 C   0  0  0  0  0  0  0  0  0  0  0  0
   37.2500   32.9580   39.5830 C   0  0  0  0  0  0  0  0  0  0  0  0
   37.2090   31.7240   40.4420 C   0  0  1  0  0  0  0  0  0  0  0  0
   39.9330   32.0320   39.4480 H   0  0  0  0  0  0  0  0  0  0  0  0
   40.5610   31.7650   41.1720 H   0  0  0  0  0  0  0  0  0  0  0  0
   40.1900   34.1390   40.8360 H   0  0  0  0  0  0  0  0  0  0  0  0
   39.0020   33.4090   41.9920 H   0  0  0  0  0  0  0  0  0  0  0  0
   38.6500   34.5100   39.1430 H   0  0  0  0  0  0  0  0  0  0  0  0
   37.6500   34.7560   40.6060 H   0  0  0  0  0  0  0  0  0  0  0  0
   36.2390   33.3450   39.4450 H   0  0  0  0  0  0  0  0  0  0  0  0
   37.5910   32.5980   38.5680 H   0  0  0  0  0  0  0  0  0  0  0  0
   36.7170   31.9970   41.4010 H   0  0  0  0  0  0  0  0  0  0  0  0
   36.3790   30.6910   39.7800 C   0  0  0  0  0  0  0  0  0  0  0  0
   35.4080   29.9280   40.3960 C   0  0  0  0  0  0  0  0  0  0  0  0
   35.2390   30.1020   41.4530 H   0  0  0  0  0  0  0  0  0  0  0  0
   34.6930   28.9880   39.6710 C   0  0  0  0  0  3  0  0  0  0  0  0
   34.9510   28.8110   38.3270 C   0  0  0  0  0  0  0  0  0  0  0  0
   34.2360   27.8880   37.6560 N   0  0  0  0  0  0  0  0  0  0  0  0
   34.4790   27.7000   36.3260 C   0  0  0  0  0  0  0  0  0  0  0  0
   33.9580   26.9780   35.6830 H   0  0  0  0  0  0  0  0  0  0  0  0
   35.4420   28.4410   35.6710 C   0  0  0  0  0  3  0  0  0  0  0  0
   36.1940   29.3970   36.3260 C   0  0  0  0  0  3  0  0  0  0  0  0
   35.9190   29.5540   37.6620 C   0  0  0  0  0  0  0  0  0  0  0  0
   36.6060   30.4780   38.4160 C   0  0  0  0  0  3  0  0  0  0  0  0
   39.1410   27.5900   41.2820 C   0  0  0  0  0  0  0  0  0  0  0  0
   39.0900   28.8310   40.6370 C   0  0  0  0  0  0  0  0  0  0  0  0
   38.6130   29.9530   41.3540 C   0  0  0  0  0  0  0  0  0  0  0  0
   38.2310   29.7350   42.6400 N   0  0  0  0  0  0  0  0  0  0  0  0
   38.2920   28.5230   43.2350 C   0  0  0  0  0  0  0  0  0  0  0  0
   38.7500   27.4520   42.5460 N   0  0  0  0  0  0  0  0  0  0  0  0
   39.5260   26.8580   40.5940 H   0  0  0  0  0  0  0  0  0  0  0  0
   39.3700   29.0790   39.6360 H   0  0  0  0  0  0  0  0  0  0  0  0
   37.9860   28.3680   44.2570 H   0  0  0  0  0  0  0  0  0  0  0  0
  1 30  1  0  0  0  0
  2  1  1  0  0  0  0
  2  3  1  0  0  0  0
  2  8  1  0  0  0  0
  3 10  1  0  0  0  0
  4 12  1  0  0  0  0
  4  3  1  0  0  0  0
  5  4  1  0  0  0  0
  5  6  1  0  0  0  0
  6  1  1  0  0  0  0
  6 15  1  1  0  0  0
  7  2  1  0  0  0  0
  9  3  1  0  0  0  0
 11  4  1  0  0  0  0
 13  5  1  0  0  0  0
 14  5  1  0  0  0  0
 16 17  1  0  0  0  0
 16  6  1  0  0  0  0
 17 18  1  0  0  0  0
 19 17  2  0  0  0  0
 20 19  1  0  0  0  0
 21 20  2  0  0  0  0
 22 21  1  0  0  0  0
 23 22  1  0  0  0  0
 24 22  2  0  0  0  0
 24 25  1  0  0  0  0
 25 26  2  0  0  0  0
 26 20  1  0  0  0  0
 26 27  1  0  0  0  0
 27 16  2  0  0  0  0
 28 33  1  0  0  0  0
 29 28  2  0  0  0  0
 29 30  1  0  0  0  0
 30 31  2  0  0  0  0
 31 32  1  0  0  0  0
 32 36  1  0  0  0  0
 33 32  2  0  0  0  0
 34 28  1  0  0  0  0
 35 29  1  0  0  0  0
M  END
>  <minimizedAffinity>
-5.87238884

$$$$

 OpenBabel03252502223D

 36 39  0  0  1  0  0  0  0  0999 V2000
   36.3280   29.4360   37.2770 N   0  0  0  0  0  0  0  0  0  0  0  0
   35.9830   28.6620   36.1090 C   0  0  0  0  0  0  0  0  0  0  0  0
   34.5320   29.0800   35.7940 C   0  0  0  0  0  0  0  0  0  0  0  0
   33.6060   28.6940   36.8960 C   0  0  0  0  0  0  0  0  0  0  0  0
   34.1890   28.7770   38.2580 C   0  0  0  0  0  0  0  0  0  0  0  0
   35.4020   29.6610   38.3580 C   0  0  1  0  0  0  0  0  0  0  0  0
   35.9680   27.5850   36.3900 H   0  0  0  0  0  0  0  0  0  0  0  0
   36.5820   28.8930   35.2280 H   0  0  0  0  0  0  0  0  0  0  0  0
   34.2060   28.5720   34.8570 H   0  0  0  0  0  0  0  0  0  0  0  0
   34.5780   30.1740   35.6160 H   0  0  0  0  0  0  0  0  0  0  0  0
   33.1830   27.6710   36.7320 H   0  0  0  0  0  0  0  0  0  0  0  0
   32.7340   29.3970   36.8660 H   0  0  0  0  0  0  0  0  0  0  0  0
   33.4670   29.0530   39.0280 H   0  0  0  0  0  0  0  0  0  0  0  0
   34.5560   27.7430   38.5260 H   0  0  0  0  0  0  0  0  0  0  0  0
   35.0590   30.7140   38.2700 H   0  0  0  0  0  0  0  0  0  0  0  0
   36.0250   29.4920   39.6910 C   0  0  0  0  0  0  0  0  0  0  0  0
   36.3010   30.5100   40.5810 C   0  0  0  0  0  0  0  0  0  0  0  0
   36.0380   31.5170   40.2770 H   0  0  0  0  0  0  0  0  0  0  0  0
   36.8890   30.2300   41.8040 C   0  0  0  0  0  3  0  0  0  0  0  0
   37.2010   28.9270   42.1370 C   0  0  0  0  0  0  0  0  0  0  0  0
   37.7710   28.6940   43.3350 N   0  0  0  0  0  0  0  0  0  0  0  0
   38.0860   27.4120   43.6790 C   0  0  0  0  0  0  0  0  0  0  0  0
   38.5510   27.1070   44.6260 H   0  0  0  0  0  0  0  0  0  0  0  0
   37.8280   26.3640   42.8200 C   0  0  0  0  0  3  0  0  0  0  0  0
   37.2440   26.5650   41.5840 C   0  0  0  0  0  3  0  0  0  0  0  0
   36.9430   27.8680   41.2760 C   0  0  0  0  0  0  0  0  0  0  0  0
   36.3580   28.1880   40.0710 C   0  0  0  0  0  3  0  0  0  0  0  0
   39.1280   31.9100   37.5390 C   0  0  0  0  0  0  0  0  0  0  0  0
   37.8250   31.4180   37.4000 C   0  0  0  0  0  0  0  0  0  0  0  0
   37.6190   30.0190   37.4130 C   0  0  0  0  0  0  0  0  0  0  0  0
   38.7260   29.2440   37.5600 N   0  0  0  0  0  0  0  0  0  0  0  0
   39.9720   29.7500   37.6920 C   0  0  0  0  0  0  0  0  0  0  0  0
   40.1650   31.0890   37.6800 N   0  0  0  0  0  0  0  0  0  0  0  0
   39.0980   32.9850   37.5080 H   0  0  0  0  0  0  0  0  0  0  0  0
   36.9120   31.9620   37.2800 H   0  0  0  0  0  0  0  0  0  0  0  0
   40.8390   29.1190   37.8090 H   0  0  0  0  0  0  0  0  0  0  0  0
  1 30  1  0  0  0  0
  1  6  1  0  0  0  0
  2  7  1  0  0  0  0
  2  1  1  0  0  0  0
  3  2  1  0  0  0  0
  3  4  1  0  0  0  0
  4  5  1  0  0  0  0
  5  6  1  0  0  0  0
  5 14  1  0  0  0  0
  5 13  1  0  0  0  0
  6 15  1  6  0  0  0
  6 16  1  0  0  0  0
  8  2  1  0  0  0  0
  9  3  1  0  0  0  0
 10  3  1  0  0  0  0
 11  4  1  0  0  0  0
 12  4  1  0  0  0  0
 16 27  2  0  0  0  0
 16 17  1  0  0  0  0
 17 19  2  0  0  0  0
 18 17  1  0  0  0  0
 19 20  1  0  0  0  0
 20 21  1  0  0  0  0
 21 22  2  0  0  0  0
 22 23  1  0  0  0  0
 24 22  1  0  0  0  0
 25 24  2  0  0  0  0
 26 25  1  0  0  0  0
 26 20  2  0  0  0  0
 27 26  1  0  0  0  0
 28 33  1  0  0  0  0
 29 30  1  0  0  0  0
 29 28  2  0  0  0  0
 30 31  2  0  0  0  0
 31 32  1  0  0  0  0
 32 36  1  0  0  0  0
 33 32  2  0  0  0  0
 34 28  1  0  0  0  0
 35 29  1  0  0  0  0
M  END
>  <minimizedAffinity>
-5.55830717

$$$$

 OpenBabel03252502223D

 36 39  0  0  1  0  0  0  0  0999 V2000
   37.6690   29.3290   41.3430 N   0  0  0  0  0  0  0  0  0  0  0  0
   37.3250   29.2600   42.7430 C   0  0  0  0  0  0  0  0  0  0  0  0
   37.9970   27.9610   43.2340 C   0  0  0  0  0  0  0  0  0  0  0  0
   37.4210   26.7650   42.5560 C   0  0  0  0  0  0  0  0  0  0  0  0
   37.0250   26.9810   41.1430 C   0  0  0  0  0  0  0  0  0  0  0  0
   37.6800   28.1670   40.4910 C   0  0  1  0  0  0  0  0  0  0  0  0
   36.2240   29.1220   42.8300 H   0  0  0  0  0  0  0  0  0  0  0  0
   37.7300   30.0760   43.3420 H   0  0  0  0  0  0  0  0  0  0  0  0
   37.8340   27.8640   44.3320 H   0  0  0  0  0  0  0  0  0  0  0  0
   39.0800   28.1030   43.0390 H   0  0  0  0  0  0  0  0  0  0  0  0
   36.5550   26.3510   43.1290 H   0  0  0  0  0  0  0  0  0  0  0  0
   38.2060   25.9640   42.5600 H   0  0  0  0  0  0  0  0  0  0  0  0
   37.1490   26.0980   40.5130 H   0  0  0  0  0  0  0  0  0  0  0  0
   35.9200   27.2160   41.1400 H   0  0  0  0  0  0  0  0  0  0  0  0
   38.7460   27.9090   40.3160 H   0  0  0  0  0  0  0  0  0  0  0  0
   37.0460   28.4170   39.1750 C   0  0  0  0  0  0  0  0  0  0  0  0
   37.7190   28.5680   37.9790 C   0  0  0  0  0  0  0  0  0  0  0  0
   38.8000   28.4970   38.0080 H   0  0  0  0  0  0  0  0  0  0  0  0
   37.0170   28.7990   36.8070 C   0  0  0  0  0  3  0  0  0  0  0  0
   35.6390   28.8790   36.8320 C   0  0  0  0  0  0  0  0  0  0  0  0
   34.9920   29.1050   35.6720 N   0  0  0  0  0  0  0  0  0  0  0  0
   33.6300   29.1870   35.6800 C   0  0  0  0  0  0  0  0  0  0  0  0
   33.0020   29.3670   34.7970 H   0  0  0  0  0  0  0  0  0  0  0  0
   32.9190   29.0430   36.8530 C   0  0  0  0  0  3  0  0  0  0  0  0
   33.5480   28.8100   38.0610 C   0  0  0  0  0  3  0  0  0  0  0  0
   34.9170   28.7350   38.0100 C   0  0  0  0  0  0  0  0  0  0  0  0
   35.6510   28.5060   39.1520 C   0  0  0  0  0  3  0  0  0  0  0  0
   37.5040   32.7900   39.9200 C   0  0  0  0  0  0  0  0  0  0  0  0
   37.0770   31.6010   40.5240 C   0  0  0  0  0  0  0  0  0  0  0  0
   38.0190   30.5680   40.7370 C   0  0  0  0  0  0  0  0  0  0  0  0
   39.2920   30.8130   40.3290 N   0  0  0  0  0  0  0  0  0  0  0  0
   39.6740   31.9730   39.7480 C   0  0  0  0  0  0  0  0  0  0  0  0
   38.7690   32.9590   39.5470 N   0  0  0  0  0  0  0  0  0  0  0  0
   36.6640   33.4580   39.8380 H   0  0  0  0  0  0  0  0  0  0  0  0
   36.1000   31.3370   40.8680 H   0  0  0  0  0  0  0  0  0  0  0  0
   40.6890   32.1500   39.4320 H   0  0  0  0  0  0  0  0  0  0  0  0
  1  2  1  0  0  0  0
  2  7  1  0  0  0  0
  2  3  1  0  0  0  0
  2  8  1  0  0  0  0
  3  9  1  0  0  0  0
  4 12  1  0  0  0  0
  4 11  1  0  0  0  0
  4  3  1  0  0  0  0
  5  4  1  0  0  0  0
  6 15  1  6  0  0  0
  6  5  1  0  0  0  0
  6  1  1  0  0  0  0
 10  3  1  0  0  0  0
 13  5  1  0  0  0  0
 14  5  1  0  0  0  0
 16  6  1  0  0  0  0
 17 18  1  0  0  0  0
 17 16  2  0  0  0  0
 19 20  2  0  0  0  0
 19 17  1  0  0  0  0
 20 26  1  0  0  0  0
 21 22  2  0  0  0  0
 21 20  1  0  0  0  0
 22 24  1  0  0  0  0
 23 22  1  0  0  0  0
 24 25  2  0  0  0  0
 26 25  1  0  0  0  0
 26 27  2  0  0  0  0
 27 16  1  0  0  0  0
 28 29  1  0  0  0  0
 29 30  2  0  0  0  0
 29 35  1  0  0  0  0
 30  1  1  0  0  0  0
 31 30  1  0  0  0  0
 32 31  2  0  0  0  0
 33 32  1  0  0  0  0
 33 28  2  0  0  0  0
 34 28  1  0  0  0  0
 36 32  1  0  0  0  0
M  END
>  <minimizedAffinity>
-5.55081177

$$$$

 OpenBabel03252502223D

 36 39  0  0  1  0  0  0  0  0999 V2000
   35.5490   28.4740   38.3150 N   0  0  0  0  0  0  0  0  0  0  0  0
   34.1310   28.3910   38.0570 C   0  0  0  0  0  0  0  0  0  0  0  0
   34.0400   27.9100   36.5930 C   0  0  0  0  0  0  0  0  0  0  0  0
   34.6230   28.9140   35.6580 C   0  0  0  0  0  0  0  0  0  0  0  0
   35.7930   29.6550   36.1900 C   0  0  0  0  0  0  0  0  0  0  0  0
   36.4840   28.9780   37.3410 C   0  0  1  0  0  0  0  0  0  0  0  0
   33.7030   29.4170   38.1000 H   0  0  0  0  0  0  0  0  0  0  0  0
   33.6090   27.6540   38.6690 H   0  0  0  0  0  0  0  0  0  0  0  0
   32.9680   27.7560   36.3310 H   0  0  0  0  0  0  0  0  0  0  0  0
   34.5630   26.9320   36.5770 H   0  0  0  0  0  0  0  0  0  0  0  0
   33.8490   29.6400   35.3060 H   0  0  0  0  0  0  0  0  0  0  0  0
   34.9690   28.3630   34.7450 H   0  0  0  0  0  0  0  0  0  0  0  0
   36.5250   29.9250   35.4270 H   0  0  0  0  0  0  0  0  0  0  0  0
   35.4050   30.6290   36.6120 H   0  0  0  0  0  0  0  0  0  0  0  0
   37.0280   28.0980   36.9360 H   0  0  0  0  0  0  0  0  0  0  0  0
   37.4810   29.9020   37.9300 C   0  0  0  0  0  0  0  0  0  0  0  0
   38.8340   29.6540   38.0420 C   0  0  0  0  0  0  0  0  0  0  0  0
   39.1950   28.7030   37.6680 H   0  0  0  0  0  0  0  0  0  0  0  0
   39.6720   30.5970   38.6140 C   0  0  0  0  0  3  0  0  0  0  0  0
   39.1550   31.7920   39.0730 C   0  0  0  0  0  0  0  0  0  0  0  0
   40.0020   32.6850   39.6230 N   0  0  0  0  0  0  0  0  0  0  0  0
   39.5060   33.8700   40.0820 C   0  0  0  0  0  0  0  0  0  0  0  0
   40.1020   34.6670   40.5450 H   0  0  0  0  0  0  0  0  0  0  0  0
   38.1600   34.1590   39.9890 C   0  0  0  0  0  3  0  0  0  0  0  0
   37.2630   33.2680   39.4320 C   0  0  0  0  0  3  0  0  0  0  0  0
   37.8010   32.0880   38.9830 C   0  0  0  0  0  0  0  0  0  0  0  0
   37.0010   31.1260   38.4080 C   0  0  0  0  0  3  0  0  0  0  0  0
   36.3630   28.2300   41.9620 C   0  0  0  0  0  0  0  0  0  0  0  0
   35.7880   28.7070   40.7790 C   0  0  0  0  0  0  0  0  0  0  0  0
   36.0910   28.0540   39.5610 C   0  0  0  0  0  0  0  0  0  0  0  0
   36.9360   26.9920   39.6360 N   0  0  0  0  0  0  0  0  0  0  0  0
   37.4760   26.5550   40.7950 C   0  0  0  0  0  0  0  0  0  0  0  0
   37.1840   27.1820   41.9580 N   0  0  0  0  0  0  0  0  0  0  0  0
   36.0260   28.8390   42.7820 H   0  0  0  0  0  0  0  0  0  0  0  0
   35.1190   29.5300   40.6430 H   0  0  0  0  0  0  0  0  0  0  0  0
   38.1450   25.7110   40.8350 H   0  0  0  0  0  0  0  0  0  0  0  0
  1 30  1  0  0  0  0
  2  7  1  0  0  0  0
  2  1  1  0  0  0  0
  2  8  1  0  0  0  0
  3  2  1  0  0  0  0
  4  5  1  0  0  0  0
  4  3  1  0  0  0  0
  5 14  1  0  0  0  0
  5  6  1  0  0  0  0
  6 15  1  6  0  0  0
  6 16  1  0  0  0  0
  6  1  1  0  0  0  0
  9  3  1  0  0  0  0
 10  3  1  0  0  0  0
 11  4  1  0  0  0  0
 12  4  1  0  0  0  0
 13  5  1  0  0  0  0
 16 17  2  0  0  0  0
 16 27  1  0  0  0  0
 17 19  1  0  0  0  0
 18 17  1  0  0  0  0
 19 20  2  0  0  0  0
 20 21  1  0  0  0  0
 21 22  2  0  0  0  0
 22 23  1  0  0  0  0
 24 22  1  0  0  0  0
 25 24  2  0  0  0  0
 26 20  1  0  0  0  0
 26 25  1  0  0  0  0
 27 26  2  0  0  0  0
 28 34  1  0  0  0  0
 29 28  2  0  0  0  0
 30 31  2  0  0  0  0
 30 29  1  0  0  0  0
 31 32  1  0  0  0  0
 32 36  1  0  0  0  0
 32 33  2  0  0  0  0
 33 28  1  0  0  0  0
 35 29  1  0  0  0  0
M  END
>  <minimizedAffinity>
-5.41053629

$$$$

 OpenBabel03252502223D

 36 39  0  0  1  0  0  0  0  0999 V2000
   36.7020   28.3240   40.9810 N   0  0  0  0  0  0  0  0  0  0  0  0
   36.8520   27.1090   41.7450 C   0  0  0  0  0  0  0  0  0  0  0  0
   36.5730   27.5400   43.2000 C   0  0  0  0  0  0  0  0  0  0  0  0
   37.5920   28.5180   43.6790 C   0  0  0  0  0  0  0  0  0  0  0  0
   38.0900   29.4560   42.6430 C   0  0  0  0  0  0  0  0  0  0  0  0
   37.1850   29.5980   41.4500 C   0  0  1  0  0  0  0  0  0  0  0  0
   37.9160   26.7850   41.6890 H   0  0  0  0  0  0  0  0  0  0  0  0
   36.1270   26.3330   41.4970 H   0  0  0  0  0  0  0  0  0  0  0  0
   36.6050   26.6390   43.8550 H   0  0  0  0  0  0  0  0  0  0  0  0
   35.5410   27.9450   43.1890 H   0  0  0  0  0  0  0  0  0  0  0  0
   38.4580   27.9990   44.1610 H   0  0  0  0  0  0  0  0  0  0  0  0
   37.1140   29.1360   44.4830 H   0  0  0  0  0  0  0  0  0  0  0  0
   38.3460   30.4430   43.0320 H   0  0  0  0  0  0  0  0  0  0  0  0
   39.0490   29.0210   42.2340 H   0  0  0  0  0  0  0  0  0  0  0  0
   36.2940   30.1780   41.7710 H   0  0  0  0  0  0  0  0  0  0  0  0
   37.8800   30.3710   40.3940 C   0  0  0  0  0  0  0  0  0  0  0  0
   37.3640   31.4680   39.7360 C   0  0  0  0  0  0  0  0  0  0  0  0
   36.3670   31.7890   40.0150 H   0  0  0  0  0  0  0  0  0  0  0  0
   38.1100   32.1130   38.7610 C   0  0  0  0  0  3  0  0  0  0  0  0
   39.3750   31.6580   38.4470 C   0  0  0  0  0  0  0  0  0  0  0  0
   40.0690   32.3110   37.4950 N   0  0  0  0  0  0  0  0  0  0  0  0
   41.3210   31.8730   37.1720 C   0  0  0  0  0  0  0  0  0  0  0  0
   41.9740   32.3280   36.4150 H   0  0  0  0  0  0  0  0  0  0  0  0
   41.8740   30.7800   37.8060 C   0  0  0  0  0  3  0  0  0  0  0  0
   41.1920   30.0860   38.7870 C   0  0  0  0  0  3  0  0  0  0  0  0
   39.9370   30.5580   39.0820 C   0  0  0  0  0  0  0  0  0  0  0  0
   39.1650   29.9450   40.0430 C   0  0  0  0  0  3  0  0  0  0  0  0
   34.2360   28.8640   38.2140 C   0  0  0  0  0  0  0  0  0  0  0  0
   34.7990   28.9180   39.4940 C   0  0  0  0  0  0  0  0  0  0  0  0
   36.0590   28.3140   39.7110 C   0  0  0  0  0  0  0  0  0  0  0  0
   36.6370   27.7130   38.6390 N   0  0  0  0  0  0  0  0  0  0  0  0
   36.0670   27.6760   37.4130 C   0  0  0  0  0  0  0  0  0  0  0  0
   34.8620   28.2560   37.2090 N   0  0  0  0  0  0  0  0  0  0  0  0
   33.2870   29.3690   38.2310 H   0  0  0  0  0  0  0  0  0  0  0  0
   34.4070   29.3690   40.3800 H   0  0  0  0  0  0  0  0  0  0  0  0
   36.5420   27.1950   36.5730 H   0  0  0  0  0  0  0  0  0  0  0  0
  1  6  1  0  0  0  0
  1  2  1  0  0  0  0
  2  3  1  0  0  0  0
  3  4  1  0  0  0  0
  3  9  1  0  0  0  0
  4 11  1  0  0  0  0
  4 12  1  0  0  0  0
  5 13  1  0  0  0  0
  5  4  1  0  0  0  0
  6 15  1  1  0  0  0
  6  5  1  0  0  0  0
  7  2  1  0  0  0  0
  8  2  1  0  0  0  0
 10  3  1  0  0  0  0
 14  5  1  0  0  0  0
 16  6  1  0  0  0  0
 17 18  1  0  0  0  0
 17 16  2  0  0  0  0
 19 17  1  0  0  0  0
 20 19  2  0  0  0  0
 20 26  1  0  0  0  0
 21 20  1  0  0  0  0
 22 21  2  0  0  0  0
 22 24  1  0  0  0  0
 23 22  1  0  0  0  0
 24 25  2  0  0  0  0
 25 26  1  0  0  0  0
 26 27  2  0  0  0  0
 27 16  1  0  0  0  0
 28 34  1  0  0  0  0
 28 29  1  0  0  0  0
 29 30  2  0  0  0  0
 29 35  1  0  0  0  0
 30  1  1  0  0  0  0
 31 30  1  0  0  0  0
 32 31  2  0  0  0  0
 33 32  1  0  0  0  0
 33 28  2  0  0  0  0
 36 32  1  0  0  0  0
M  END
>  <minimizedAffinity>
-5.38811541

$$$$

 OpenBabel03252502223D

 36 39  0  0  1  0  0  0  0  0999 V2000
   39.1730   30.8180   40.6810 N   0  0  0  0  0  0  0  0  0  0  0  0
   39.3080   31.6580   39.5150 C   0  0  0  0  0  0  0  0  0  0  0  0
   38.3970   32.8670   39.8130 C   0  0  0  0  0  0  0  0  0  0  0  0
   36.9690   32.4540   39.9250 C   0  0  0  0  0  0  0  0  0  0  0  0
   36.7530   31.1160   40.5280 C   0  0  0  0  0  0  0  0  0  0  0  0
   37.9110   30.6120   41.3450 C   0  0  1  0  0  0  0  0  0  0  0  0
   38.8770   31.1210   38.6410 H   0  0  0  0  0  0  0  0  0  0  0  0
   40.3150   32.0460   39.3590 H   0  0  0  0  0  0  0  0  0  0  0  0
   38.4940   33.6040   38.9830 H   0  0  0  0  0  0  0  0  0  0  0  0
   38.8040   33.3130   40.7440 H   0  0  0  0  0  0  0  0  0  0  0  0
   36.4530   32.5050   38.9340 H   0  0  0  0  0  0  0  0  0  0  0  0
   36.4520   33.2010   40.5820 H   0  0  0  0  0  0  0  0  0  0  0  0
   35.8320   31.0410   41.1090 H   0  0  0  0  0  0  0  0  0  0  0  0
   36.6500   30.3800   39.6770 H   0  0  0  0  0  0  0  0  0  0  0  0
   37.9440   31.2030   42.2850 H   0  0  0  0  0  0  0  0  0  0  0  0
   37.6780   29.1930   41.7040 C   0  0  0  0  0  0  0  0  0  0  0  0
   37.7420   28.6700   42.9800 C   0  0  0  0  0  0  0  0  0  0  0  0
   37.9820   29.3560   43.7840 H   0  0  0  0  0  0  0  0  0  0  0  0
   37.5050   27.3220   43.1950 C   0  0  0  0  0  3  0  0  0  0  0  0
   37.2030   26.4960   42.1310 C   0  0  0  0  0  0  0  0  0  0  0  0
   36.9780   25.1910   42.3800 N   0  0  0  0  0  0  0  0  0  0  0  0
   36.6790   24.3610   41.3390 C   0  0  0  0  0  0  0  0  0  0  0  0
   36.4780   23.2850   41.4250 H   0  0  0  0  0  0  0  0  0  0  0  0
   36.6050   24.8430   40.0480 C   0  0  0  0  0  3  0  0  0  0  0  0
   36.8290   26.1740   39.7550 C   0  0  0  0  0  3  0  0  0  0  0  0
   37.1270   26.9750   40.8290 C   0  0  0  0  0  0  0  0  0  0  0  0
   37.3690   28.3190   40.6570 C   0  0  0  0  0  3  0  0  0  0  0  0
   41.9970   29.8240   42.9330 C   0  0  0  0  0  0  0  0  0  0  0  0
   40.8890   30.5370   42.4590 C   0  0  0  0  0  0  0  0  0  0  0  0
   40.3010   30.1480   41.2330 C   0  0  0  0  0  0  0  0  0  0  0  0
   40.8700   29.0920   40.5960 N   0  0  0  0  0  0  0  0  0  0  0  0
   41.9410   28.4230   41.0790 C   0  0  0  0  0  0  0  0  0  0  0  0
   42.5000   28.7980   42.2520 N   0  0  0  0  0  0  0  0  0  0  0  0
   42.3110   30.2530   43.8690 H   0  0  0  0  0  0  0  0  0  0  0  0
   40.3900   31.3730   42.9020 H   0  0  0  0  0  0  0  0  0  0  0  0
   42.3780   27.5870   40.5580 H   0  0  0  0  0  0  0  0  0  0  0  0
  1 30  1  0  0  0  0
  1  6  1  0  0  0  0
  2  3  1  0  0  0  0
  2  1  1  0  0  0  0
  3  4  1  0  0  0  0
  3 10  1  0  0  0  0
  4  5  1  0  0  0  0
  4 12  1  0  0  0  0
  5 13  1  0  0  0  0
  5  6  1  0  0  0  0
  6 16  1  0  0  0  0
  6 15  1  1  0  0  0
  7  2  1  0  0  0  0
  8  2  1  0  0  0  0
  9  3  1  0  0  0  0
 11  4  1  0  0  0  0
 14  5  1  0  0  0  0
 16 17  1  0  0  0  0
 17 19  2  0  0  0  0
 17 18  1  0  0  0  0
 20 21  1  0  0  0  0
 20 19  1  0  0  0  0
 22 23  1  0  0  0  0
 22 21  2  0  0  0  0
 24 22  1  0  0  0  0
 25 24  2  0  0  0  0
 25 26  1  0  0  0  0
 26 20  2  0  0  0  0
 27 26  1  0  0  0  0
 27 16  2  0  0  0  0
 28 34  1  0  0  0  0
 29 35  1  0  0  0  0
 29 28  1  0  0  0  0
 30 29  2  0  0  0  0
 31 32  2  0  0  0  0
 31 30  1  0  0  0  0
 32 33  1  0  0  0  0
 33 28  2  0  0  0  0
 36 32  1  0  0  0  0
M  END
>  <minimizedAffinity>
-5.37471724

$$$$

 OpenBabel03252502223D

 36 39  0  0  1  0  0  0  0  0999 V2000
   36.0460   29.1530   36.9620 N   0  0  0  0  0  0  0  0  0  0  0  0
   35.6710   28.9190   35.5880 C   0  0  0  0  0  0  0  0  0  0  0  0
   34.1820   29.3200   35.5280 C   0  0  0  0  0  0  0  0  0  0  0  0
   33.3500   28.4360   36.3930 C   0  0  0  0  0  0  0  0  0  0  0  0
   34.0110   27.9820   37.6410 C   0  0  0  0  0  0  0  0  0  0  0  0
   35.1770   28.8310   38.0660 C   0  0  1  0  0  0  0  0  0  0  0  0
   35.7330   27.8260   35.3860 H   0  0  0  0  0  0  0  0  0  0  0  0
   36.2000   29.5450   34.8690 H   0  0  0  0  0  0  0  0  0  0  0  0
   33.8270   29.2300   34.4760 H   0  0  0  0  0  0  0  0  0  0  0  0
   34.1570   30.3870   35.8310 H   0  0  0  0  0  0  0  0  0  0  0  0
   32.9740   27.5480   35.8250 H   0  0  0  0  0  0  0  0  0  0  0  0
   32.4400   29.0180   36.6930 H   0  0  0  0  0  0  0  0  0  0  0  0
   33.3240   27.8520   38.4790 H   0  0  0  0  0  0  0  0  0  0  0  0
   34.4500   26.9630   37.4330 H   0  0  0  0  0  0  0  0  0  0  0  0
   34.7720   29.7940   38.4450 H   0  0  0  0  0  0  0  0  0  0  0  0
   35.8910   28.1640   39.1800 C   0  0  0  0  0  0  0  0  0  0  0  0
   36.2520   26.8330   39.2160 C   0  0  0  0  0  0  0  0  0  0  0  0
   35.9910   26.2260   38.3560 H   0  0  0  0  0  0  0  0  0  0  0  0
   36.9190   26.3190   40.3170 C   0  0  0  0  0  3  0  0  0  0  0  0
   37.2250   27.1400   41.3830 C   0  0  0  0  0  0  0  0  0  0  0  0
   37.8750   26.6040   42.4350 N   0  0  0  0  0  0  0  0  0  0  0  0
   38.1840   27.4020   43.4980 C   0  0  0  0  0  0  0  0  0  0  0  0
   38.7100   27.0730   44.4040 H   0  0  0  0  0  0  0  0  0  0  0  0
   37.8420   28.7390   43.5030 C   0  0  0  0  0  3  0  0  0  0  0  0
   37.1760   29.3230   42.4420 C   0  0  0  0  0  3  0  0  0  0  0  0
   36.8830   28.4860   41.3950 C   0  0  0  0  0  0  0  0  0  0  0  0
   36.2220   28.9580   40.2830 C   0  0  0  0  0  3  0  0  0  0  0  0
   38.7400   31.5650   37.9390 C   0  0  0  0  0  0  0  0  0  0  0  0
   37.4610   31.0860   37.6300 C   0  0  0  0  0  0  0  0  0  0  0  0
   37.3090   29.7220   37.2890 C   0  0  0  0  0  0  0  0  0  0  0  0
   38.4380   28.9670   37.2850 N   0  0  0  0  0  0  0  0  0  0  0  0
   39.6600   29.4600   37.5870 C   0  0  0  0  0  0  0  0  0  0  0  0
   39.8020   30.7650   37.9140 N   0  0  0  0  0  0  0  0  0  0  0  0
   38.6690   32.6130   38.1730 H   0  0  0  0  0  0  0  0  0  0  0  0
   36.5330   31.6150   37.6120 H   0  0  0  0  0  0  0  0  0  0  0  0
   40.5460   28.8450   37.5800 H   0  0  0  0  0  0  0  0  0  0  0  0
  1 30  1  0  0  0  0
  1  6  1  0  0  0  0
  2  1  1  0  0  0  0
  3  2  1  0  0  0  0
  3 10  1  0  0  0  0
  3  4  1  0  0  0  0
  4 12  1  0  0  0  0
  4  5  1  0  0  0  0
  5  6  1  0  0  0  0
  5 13  1  0  0  0  0
  6 15  1  1  0  0  0
  6 16  1  0  0  0  0
  7  2  1  0  0  0  0
  8  2  1  0  0  0  0
  9  3  1  0  0  0  0
 11  4  1  0  0  0  0
 14  5  1  0  0  0  0
 16 17  2  0  0  0  0
 16 27  1  0  0  0  0
 17 19  1  0  0  0  0
 18 17  1  0  0  0  0
 19 20  2  0  0  0  0
 20 26  1  0  0  0  0
 20 21  1  0  0  0  0
 21 22  2  0  0  0  0
 22 24  1  0  0  0  0
 22 23  1  0  0  0  0
 25 24  2  0  0  0  0
 26 25  1  0  0  0  0
 27 26  2  0  0  0  0
 28 34  1  0  0  0  0
 29 28  2  0  0  0  0
 30 29  1  0  0  0  0
 31 30  2  0  0  0  0
 31 32  1  0  0  0  0
 32 33  2  0  0  0  0
 33 28  1  0  0  0  0
 35 29  1  0  0  0  0
 36 32  1  0  0  0  0
M  END
>  <minimizedAffinity>
-5.33051729

$$$$

 OpenBabel03252502223D

 36 39  0  0  1  0  0  0  0  0999 V2000
   38.4060   27.2450   41.0090 N   0  0  0  0  0  0  0  0  0  0  0  0
   39.4400   26.2660   41.2470 C   0  0  0  0  0  0  0  0  0  0  0  0
   39.1560   25.7550   42.6750 C   0  0  0  0  0  0  0  0  0  0  0  0
   39.3100   26.8460   43.6790 C   0  0  0  0  0  0  0  0  0  0  0  0
   38.8950   28.1900   43.2080 C   0  0  0  0  0  0  0  0  0  0  0  0
   37.9700   28.1720   42.0230 C   0  0  1  0  0  0  0  0  0  0  0  0
   40.4230   26.7870   41.2650 H   0  0  0  0  0  0  0  0  0  0  0  0
   39.3960   25.4020   40.5830 H   0  0  0  0  0  0  0  0  0  0  0  0
   39.8770   24.9410   42.9160 H   0  0  0  0  0  0  0  0  0  0  0  0
   38.1310   25.3330   42.6330 H   0  0  0  0  0  0  0  0  0  0  0  0
   40.3570   26.8930   44.0700 H   0  0  0  0  0  0  0  0  0  0  0  0
   38.6630   26.5890   44.5580 H   0  0  0  0  0  0  0  0  0  0  0  0
   38.4750   28.8200   43.9940 H   0  0  0  0  0  0  0  0  0  0  0  0
   39.8270   28.7180   42.8470 H   0  0  0  0  0  0  0  0  0  0  0  0
   36.9780   27.8170   42.3750 H   0  0  0  0  0  0  0  0  0  0  0  0
   37.8060   29.5500   41.5050 C   0  0  0  0  0  0  0  0  0  0  0  0
   36.6070   30.1350   41.1510 C   0  0  0  0  0  0  0  0  0  0  0  0
   35.7120   29.5330   41.2620 H   0  0  0  0  0  0  0  0  0  0  0  0
   36.5770   31.4370   40.6770 C   0  0  0  0  0  3  0  0  0  0  0  0
   37.7500   32.1550   40.5570 C   0  0  0  0  0  0  0  0  0  0  0  0
   37.6810   33.4170   40.0920 N   0  0  0  0  0  0  0  0  0  0  0  0
   38.8320   34.1400   39.9680 C   0  0  0  0  0  0  0  0  0  0  0  0
   38.8930   35.1740   39.6020 H   0  0  0  0  0  0  0  0  0  0  0  0
   40.0520   33.5940   40.3100 C   0  0  0  0  0  3  0  0  0  0  0  0
   40.1610   32.3030   40.7900 C   0  0  0  0  0  3  0  0  0  0  0  0
   38.9810   31.6100   40.9000 C   0  0  0  0  0  0  0  0  0  0  0  0
   38.9690   30.3150   41.3670 C   0  0  0  0  0  3  0  0  0  0  0  0
   37.7050   27.9140   37.3910 C   0  0  0  0  0  0  0  0  0  0  0  0
   38.4090   27.8600   38.5990 C   0  0  0  0  0  0  0  0  0  0  0  0
   37.7620   27.3360   39.7430 C   0  0  0  0  0  0  0  0  0  0  0  0
   36.4800   26.9180   39.5770 N   0  0  0  0  0  0  0  0  0  0  0  0
   35.8260   26.9840   38.3960 C   0  0  0  0  0  0  0  0  0  0  0  0
   36.4480   27.4850   37.3040 N   0  0  0  0  0  0  0  0  0  0  0  0
   38.3440   28.3350   36.6350 H   0  0  0  0  0  0  0  0  0  0  0  0
   39.4120   28.1670   38.8050 H   0  0  0  0  0  0  0  0  0  0  0  0
   34.8080   26.6470   38.2840 H   0  0  0  0  0  0  0  0  0  0  0  0
  1  2  1  0  0  0  0
  1  6  1  0  0  0  0
  2  7  1  0  0  0  0
  2  3  1  0  0  0  0
  3  9  1  0  0  0  0
  3  4  1  0  0  0  0
  4 11  1  0  0  0  0
  4 12  1  0  0  0  0
  5  4  1  0  0  0  0
  5 13  1  0  0  0  0
  6 15  1  1  0  0  0
  6  5  1  0  0  0  0
  8  2  1  0  0  0  0
 10  3  1  0  0  0  0
 14  5  1  0  0  0  0
 16  6  1  0  0  0  0
 17 18  1  0  0  0  0
 17 16  2  0  0  0  0
 19 17  1  0  0  0  0
 20 19  2  0  0  0  0
 20 26  1  0  0  0  0
 21 20  1  0  0  0  0
 22 21  2  0  0  0  0
 22 24  1  0  0  0  0
 23 22  1  0  0  0  0
 24 25  2  0  0  0  0
 25 26  1  0  0  0  0
 26 27  2  0  0  0  0
 27 16  1  0  0  0  0
 28 29  1  0  0  0  0
 29 35  1  0  0  0  0
 29 30  2  0  0  0  0
 30  1  1  0  0  0  0
 31 30  1  0  0  0  0
 32 31  2  0  0  0  0
 33 28  2  0  0  0  0
 33 32  1  0  0  0  0
 34 28  1  0  0  0  0
 36 32  1  0  0  0  0
M  END
>  <minimizedAffinity>
-5.30580425

$$$$
