
 OpenBabel03252506463D

 45 49  0  0  1  0  0  0  0  0999 V2000
   49.3050   33.1810   41.5740 N   0  0  1  0  0  0  0  0  0  0  0  0
   50.6650   33.2040   42.0520 C   0  0  0  0  0  0  0  0  0  0  0  0
   51.3890   31.9050   41.8360 C   0  0  0  0  0  0  0  0  0  0  0  0
   50.7630   30.8560   42.7290 C   0  0  0  0  0  0  0  0  0  0  0  0
   49.2660   31.0510   42.8170 C   0  0  0  0  0  0  0  0  0  0  0  0
   48.7950   31.8310   41.5980 C   0  0  2  0  0  0  0  0  0  0  0  0
   50.6910   33.4260   43.1480 H   0  0  0  0  0  0  0  0  0  0  0  0
   51.2290   33.9880   41.5360 H   0  0  0  0  0  0  0  0  0  0  0  0
   52.4210   32.0710   42.2380 H   0  0  0  0  0  0  0  0  0  0  0  0
   51.4500   31.6210   40.7770 H   0  0  0  0  0  0  0  0  0  0  0  0
   50.9100   29.8830   42.2120 H   0  0  0  0  0  0  0  0  0  0  0  0
   51.2460   30.7860   43.7190 H   0  0  0  0  0  0  0  0  0  0  0  0
   49.0690   31.6250   43.7340 H   0  0  0  0  0  0  0  0  0  0  0  0
   48.7110   30.1000   42.8140 H   0  0  0  0  0  0  0  0  0  0  0  0
   47.6940   31.9000   41.7160 H   0  0  0  0  0  0  0  0  0  0  0  0
   47.1360   34.4960   42.0690 C   0  0  1  0  0  0  0  0  0  0  0  0
   48.2080   35.3970   41.6660 C   0  0  0  0  0  0  0  0  0  0  0  0
   48.5720   34.1200   42.3540 C   0  0  2  0  0  0  0  0  0  0  0  0
   46.6620   33.7340   41.3840 H   0  0  0  0  0  0  0  0  0  0  0  0
   48.3850   35.5010   40.5600 H   0  0  0  0  0  0  0  0  0  0  0  0
   48.2630   36.3750   42.1720 H   0  0  0  0  0  0  0  0  0  0  0  0
   48.8820   34.2410   43.4160 H   0  0  0  0  0  0  0  0  0  0  0  0
   45.4880   36.0290   43.1840 C   0  0  0  0  0  0  0  0  0  0  0  0
   46.2420   34.8310   43.1910 C   0  0  0  0  0  0  0  0  0  0  0  0
   46.1050   33.9800   44.2840 C   0  0  0  0  0  0  0  0  0  0  0  0
   45.2580   34.3430   45.2830 N   0  0  0  0  0  0  0  0  0  0  0  0
   44.5520   35.4790   45.2610 C   0  0  0  0  0  0  0  0  0  0  0  0
   44.6600   36.3410   44.2030 N   0  0  0  0  0  0  0  0  0  0  0  0
   45.6210   36.6620   42.3190 H   0  0  0  0  0  0  0  0  0  0  0  0
   46.6570   33.0460   44.3490 H   0  0  0  0  0  0  0  0  0  0  0  0
   43.8790   35.7640   46.0600 H   0  0  0  0  0  0  0  0  0  0  0  0
   49.0540   31.0680   40.4190 N   0  0  0  0  0  0  0  0  0  0  0  0
   49.5430   30.1330   40.5320 H   0  0  0  0  0  0  0  0  0  0  0  0
   48.7320   31.4080   39.0960 C   0  0  0  0  0  0  0  0  0  0  0  0
   49.5960   31.9430   38.1800 C   0  0  0  0  0  0  0  0  0  0  0  0
   50.6120   32.1290   38.4530 H   0  0  0  0  0  0  0  0  0  0  0  0
   49.3080   32.2880   36.8840 C   0  0  0  0  0  3  0  0  0  0  0  0
   48.0050   32.0760   36.4370 C   0  0  0  0  0  0  0  0  0  0  0  0
   47.6170   32.3790   35.1870 N   0  0  0  0  0  0  0  0  0  0  0  0
   46.3620   32.1760   34.7500 C   0  0  0  0  0  0  0  0  0  0  0  0
   46.1980   32.4640   33.7290 H   0  0  0  0  0  0  0  0  0  0  0  0
   45.3870   31.6350   35.5860 C   0  0  0  0  0  3  0  0  0  0  0  0
   45.7950   31.3290   36.8670 C   0  0  0  0  0  3  0  0  0  0  0  0
   47.0830   31.5410   37.3000 C   0  0  0  0  0  0  0  0  0  0  0  0
   47.4560   31.2260   38.5770 C   0  0  0  0  0  3  0  0  0  0  0  0
  1  6  1  0  0  0  0
  1  2  1  1  0  0  0
  1 18  1  0  0  0  0
  2  7  1  0  0  0  0
  3  2  1  0  0  0  0
  3  9  1  0  0  0  0
  3  4  1  0  0  0  0
  4  5  1  0  0  0  0
  4 12  1  0  0  0  0
  5 13  1  0  0  0  0
  6 15  1  1  0  0  0
  6  5  1  0  0  0  0
  8  2  1  0  0  0  0
 10  3  1  0  0  0  0
 11  4  1  0  0  0  0
 14  5  1  0  0  0  0
 16 19  1  6  0  0  0
 16 18  1  0  0  0  0
 16 24  1  0  0  0  0
 17 16  1  0  0  0  0
 17 21  1  0  0  0  0
 17 18  1  0  0  0  0
 18 22  1  1  0  0  0
 20 17  1  0  0  0  0
 23 24  2  0  0  0  0
 23 28  1  0  0  0  0
 24 25  1  0  0  0  0
 25 30  1  0  0  0  0
 25 26  2  0  0  0  0
 27 26  1  0  0  0  0
 27 31  1  0  0  0  0
 28 27  2  0  0  0  0
 29 23  1  0  0  0  0
 32 33  1  0  0  0  0
 32  6  1  0  0  0  0
 34 32  1  0  0  0  0
 35 36  1  0  0  0  0
 35 34  2  0  0  0  0
 37 35  1  0  0  0  0
 38 37  2  0  0  0  0
 38 44  1  0  0  0  0
 39 38  1  0  0  0  0
 40 39  2  0  0  0  0
 40 42  1  0  0  0  0
 41 40  1  0  0  0  0
 42 43  2  0  0  0  0
 43 44  1  0  0  0  0
 44 45  2  0  0  0  0
 45 34  1  0  0  0  0
M  END
>  <minimizedAffinity>
-5.45221186

>  <minimizedRMSD>
0.972979724

$$$$
