
 OpenBabel03252500583D

 41 44  0  0  0  0  0  0  0  0999 V2000
   41.8450   35.3540   41.8510 O   0  0  0  0  0  0  0  0  0  0  0  0
   40.7570   34.7310   41.2660 C   0  0  0  0  0  0  0  0  0  0  0  0
   39.9520   35.4770   40.4240 C   0  0  0  0  0  0  0  0  0  0  0  0
   38.8410   34.9410   39.7940 C   0  0  0  0  0  0  0  0  0  0  0  0
   38.5510   33.6370   40.0230 N   0  0  0  0  0  0  0  0  0  0  0  0
   39.3290   32.9100   40.8380 C   0  0  0  0  0  0  0  0  0  0  0  0
   40.3870   33.4550   41.4280 N   0  0  0  0  0  0  0  0  0  0  0  0
   40.1500   36.5200   40.2170 H   0  0  0  0  0  0  0  0  0  0  0  0
   38.2200   35.5310   39.1390 H   0  0  0  0  0  0  0  0  0  0  0  0
   38.9910   31.5100   41.0660 C   0  0  0  0  0  0  0  0  0  0  0  0
   39.6590   30.7580   42.0150 C   0  0  0  0  0  0  0  0  0  0  0  0
   40.4490   31.1850   42.6140 H   0  0  0  0  0  0  0  0  0  0  0  0
   39.3670   29.4120   42.2640 C   0  0  0  0  0  0  0  0  0  0  0  0
   38.3610   28.8400   41.5140 C   0  0  0  0  0  0  0  0  0  0  0  0
   37.9900   27.5350   41.6700 N   0  0  0  0  0  0  0  0  0  0  0  0
   36.9870   27.0320   40.8940 C   0  0  0  0  0  0  0  0  0  0  0  0
   36.7770   25.9760   41.1080 H   0  0  0  0  0  0  0  0  0  0  0  0
   36.2960   27.7460   39.9370 C   0  0  0  0  0  0  0  0  0  0  0  0
   36.6550   29.0880   39.7550 C   0  0  0  0  0  0  0  0  0  0  0  0
   37.6730   29.5580   40.5580 C   0  0  0  0  0  0  0  0  0  0  0  0
   37.9900   30.8980   40.3350 C   0  0  0  0  0  0  0  0  0  0  0  0
   43.8250   34.8260   40.1850 O   0  0  0  0  0  0  0  0  0  0  0  0
   43.3760   34.6830   41.6270 P   0  0  2  0  0  0  0  0  0  0  0  0
   43.2690   33.0350   41.9870 O   0  0  0  0  0  0  0  0  0  0  0  0
   42.8020   32.9700   42.8680 H   0  0  0  0  0  0  0  0  0  0  0  0
   44.5460   35.3600   42.6590 O   0  0  0  0  0  0  0  0  0  0  0  0
   46.6120   34.3060   43.0460 C   0  0  0  0  0  0  0  0  0  0  0  0
   45.3800   34.6680   43.5300 C   0  0  0  0  0  0  0  0  0  0  0  0
   45.0600   34.3150   44.8530 C   0  0  0  0  0  0  0  0  0  0  0  0
   45.9930   33.6420   45.5590 N   0  0  0  0  0  0  0  0  0  0  0  0
   47.1860   33.3030   45.0630 C   0  0  0  0  0  0  0  0  0  0  0  0
   47.4890   33.6360   43.8090 N   0  0  0  0  0  0  0  0  0  0  0  0
   44.0920   34.6170   45.1860 H   0  0  0  0  0  0  0  0  0  0  0  0
   47.9110   32.7580   45.6650 H   0  0  0  0  0  0  0  0  0  0  0  0
   47.0110   34.6440   41.6700 C   0  0  0  0  0  0  0  0  0  0  0  0
   46.2900   35.2820   41.1430 H   0  0  0  0  0  0  0  0  0  0  0  0
   47.1170   33.6890   41.1100 H   0  0  0  0  0  0  0  0  0  0  0  0
   48.3390   35.3420   41.7040 C   0  0  0  0  0  0  0  0  0  0  0  0
   48.3170   36.2730   41.1090 H   0  0  0  0  0  0  0  0  0  0  0  0
   49.1660   34.7170   41.2680 H   0  0  0  0  0  0  0  0  0  0  0  0
   48.6050   35.6290   42.7540 H   0  0  0  0  0  0  0  0  0  0  0  0
  2  7  1  0  0  0  0
  2  1  1  0  0  0  0
  3  2  2  0  0  0  0
  4  5  2  0  0  0  0
  4  3  1  0  0  0  0
  5  6  1  0  0  0  0
  6 10  1  0  0  0  0
  6  7  2  0  0  0  0
  8  3  1  0  0  0  0
  9  4  1  0  0  0  0
 10 11  1  0  0  0  0
 11 13  2  0  0  0  0
 11 12  1  0  0  0  0
 14 15  1  0  0  0  0
 14 13  1  0  0  0  0
 16 17  1  0  0  0  0
 16 15  2  0  0  0  0
 18 16  1  0  0  0  0
 19 18  2  0  0  0  0
 19 20  1  0  0  0  0
 20 14  2  0  0  0  0
 21 20  1  0  0  0  0
 21 10  2  0  0  0  0
 23 22  2  6  0  0  0
 23  1  1  0  0  0  0
 23 24  1  0  0  0  0
 23 26  1  0  0  0  0
 24 25  1  0  0  0  0
 26 28  1  0  0  0  0
 27 28  2  0  0  0  0
 27 32  1  0  0  0  0
 28 29  1  0  0  0  0
 29 33  1  0  0  0  0
 29 30  2  0  0  0  0
 31 30  1  0  0  0  0
 31 34  1  0  0  0  0
 32 31  2  0  0  0  0
 35 38  1  0  0  0  0
 35 27  1  0  0  0  0
 36 35  1  0  0  0  0
 37 35  1  0  0  0  0
 38 41  1  0  0  0  0
 39 38  1  0  0  0  0
 40 38  1  0  0  0  0
M  END
>  <minimizedAffinity>
-6.34831047

>  <minimizedRMSD>
0.818242908

$$$$
