
 OpenBabel03252502053D

 49 54  0  0  0  0  0  0  0  0999 V2000
   45.6840   33.6290   45.2190 C   0  0  0  0  0  0  0  0  0  0  0  0
   44.9930   34.6870   45.7210 N   0  0  0  0  0  0  0  0  0  0  0  0
   44.6750   35.7860   45.0420 C   0  0  0  0  0  0  0  0  0  0  0  0
   45.0510   35.8960   43.7450 N   0  0  0  0  0  0  0  0  0  0  0  0
   45.7340   34.9120   43.1540 C   0  0  0  0  0  0  0  0  0  0  0  0
   46.0910   35.0200   41.8220 C   0  0  0  0  0  0  0  0  0  0  0  0
   46.7740   33.9980   41.1960 C   0  0  0  0  0  0  0  0  0  0  0  0
   47.0850   32.8830   41.9380 C   0  0  0  0  0  0  0  0  0  0  0  0
   46.7040   32.8290   43.2660 C   0  0  0  0  0  0  0  0  0  0  0  0
   46.0300   33.8090   43.9140 C   0  0  0  0  0  0  0  0  0  0  0  0
   44.1210   36.5880   45.5160 H   0  0  0  0  0  0  0  0  0  0  0  0
   45.7950   35.9540   41.3220 H   0  0  0  0  0  0  0  0  0  0  0  0
   46.9800   34.2290   40.1470 H   0  0  0  0  0  0  0  0  0  0  0  0
   47.6160   32.2000   41.2890 H   0  0  0  0  0  0  0  0  0  0  0  0
   47.4680   31.7210   47.6800 C   0  0  0  0  0  0  0  0  0  0  0  0
   46.9060   30.4550   47.6960 C   0  0  0  0  0  0  0  0  0  0  0  0
   45.8700   30.2350   46.8540 C   0  0  0  0  0  0  0  0  0  0  0  0
   45.4350   31.2090   46.0450 N   0  0  0  0  0  0  0  0  0  0  0  0
   45.9760   32.4360   46.0130 C   0  0  0  0  0  0  0  0  0  0  0  0
   46.9970   32.6490   46.8590 N   0  0  0  0  0  0  0  0  0  0  0  0
   45.2010   29.0210   46.8230 N   0  0  0  0  0  0  0  0  0  0  0  0
   43.9110   28.7610   46.1560 C   0  0  0  0  0  0  0  0  0  0  0  0
   43.7370   27.2650   46.1710 C   0  0  0  0  0  0  0  0  0  0  0  0
   44.5170   26.8430   47.3810 C   0  0  0  0  0  0  0  0  0  0  0  0
   45.6480   27.8040   47.4600 C   0  0  0  0  0  0  0  0  0  0  0  0
   48.3070   31.9050   48.3690 H   0  0  0  0  0  0  0  0  0  0  0  0
   43.0900   29.3120   46.6180 H   0  0  0  0  0  0  0  0  0  0  0  0
   44.0500   29.0410   45.0730 H   0  0  0  0  0  0  0  0  0  0  0  0
   42.6550   27.0570   46.3130 H   0  0  0  0  0  0  0  0  0  0  0  0
   44.0760   26.7820   45.2330 H   0  0  0  0  0  0  0  0  0  0  0  0
   43.8280   26.8140   48.2260 H   0  0  0  0  0  0  0  0  0  0  0  0
   44.8850   25.8040   47.1740 H   0  0  0  0  0  0  0  0  0  0  0  0
   46.5340   27.3570   47.0080 H   0  0  0  0  0  0  0  0  0  0  0  0
   45.7280   27.9330   48.5840 H   0  0  0  0  0  0  0  0  0  0  0  0
   47.4820   29.4590   48.4800 N   0  0  0  0  0  0  0  0  0  0  0  0
   47.1260   29.6760   49.4590 H   0  0  0  0  0  0  0  0  0  0  0  0
   48.1170   28.6630   48.2510 H   0  0  0  0  0  0  0  0  0  0  0  0
   47.2020   31.5280   43.6950 C   0  0  0  0  0  0  0  0  0  0  0  0
   46.3380   30.4910   43.2650 C   0  0  0  0  0  0  0  0  0  0  0  0
   45.3890   30.6610   42.7300 H   0  0  0  0  0  0  0  0  0  0  0  0
   46.5650   29.1230   43.4550 C   0  0  0  0  0  0  0  0  0  0  0  0
   47.7160   28.7550   44.1110 C   0  0  0  0  0  0  0  0  0  0  0  0
   48.0690   27.4900   44.3660 N   0  0  0  0  0  0  0  0  0  0  0  0
   49.2210   27.1970   45.0190 C   0  0  0  0  0  0  0  0  0  0  0  0
   49.5090   26.1690   45.2270 H   0  0  0  0  0  0  0  0  0  0  0  0
   50.1220   28.1590   45.4720 C   0  0  0  0  0  0  0  0  0  0  0  0
   49.7620   29.4850   45.2100 C   0  0  0  0  0  0  0  0  0  0  0  0
   48.5920   29.7200   44.5510 C   0  0  0  0  0  0  0  0  0  0  0  0
   48.3280   31.0500   44.3420 C   0  0  0  0  0  0  0  0  0  0  0  0
  1  2  1  0  0  0  0
  1 19  1  0  0  0  0
  3 11  1  0  0  0  0
  3  2  2  0  0  0  0
  4  3  1  0  0  0  0
  5  4  2  0  0  0  0
  5 10  1  0  0  0  0
  6  5  1  0  0  0  0
  7  6  2  0  0  0  0
  7  8  1  0  0  0  0
  8  9  2  0  0  0  0
  9 38  1  0  0  0  0
  9 10  1  0  0  0  0
 10  1  2  0  0  0  0
 12  6  1  0  0  0  0
 13  7  1  0  0  0  0
 14  8  1  0  0  0  0
 15 16  1  0  0  0  0
 15 26  1  0  0  0  0
 16 35  1  0  0  0  0
 17 16  2  0  0  0  0
 18 17  1  0  0  0  0
 19 18  2  0  0  0  0
 19 20  1  0  0  0  0
 20 15  2  0  0  0  0
 21 17  1  0  0  0  0
 21 25  1  0  0  0  0
 22 23  1  0  0  0  0
 22 27  1  0  0  0  0
 22 21  1  0  0  0  0
 23 29  1  0  0  0  0
 23 24  1  0  0  0  0
 24 25  1  0  0  0  0
 24 31  1  0  0  0  0
 25 34  1  0  0  0  0
 28 22  1  0  0  0  0
 30 23  1  0  0  0  0
 32 24  1  0  0  0  0
 33 25  1  0  0  0  0
 35 36  1  0  0  0  0
 37 35  1  0  0  0  0
 38 49  1  0  0  0  0
 39 41  1  0  0  0  0
 39 38  2  0  0  0  0
 40 39  1  0  0  0  0
 41 42  2  0  0  0  0
 42 43  1  0  0  0  0
 42 48  1  0  0  0  0
 43 44  2  0  0  0  0
 44 45  1  0  0  0  0
 44 46  1  0  0  0  0
 47 46  2  0  0  0  0
 48 47  1  0  0  0  0
 49 48  2  0  0  0  0
M  END
>  <minimizedAffinity>
-6.13231707

>  <minimizedRMSD>
1.04524136

$$$$
