
 OpenBabel03252500583D

 41 44  0  0  0  0  0  0  0  0999 V2000
   42.7950   34.8910   39.3920 O   0  0  0  0  0  0  0  0  0  0  0  0
   41.4600   34.5530   39.5160 C   0  0  0  0  0  0  0  0  0  0  0  0
   40.5990   35.4850   40.0680 C   0  0  0  0  0  0  0  0  0  0  0  0
   39.2460   35.2370   40.2330 C   0  0  0  0  0  0  0  0  0  0  0  0
   38.7700   34.0340   39.8320 N   0  0  0  0  0  0  0  0  0  0  0  0
   39.6000   33.1290   39.2960 C   0  0  0  0  0  0  0  0  0  0  0  0
   40.8930   33.3970   39.1520 N   0  0  0  0  0  0  0  0  0  0  0  0
   40.9410   36.4560   40.4010 H   0  0  0  0  0  0  0  0  0  0  0  0
   38.5840   35.9700   40.6650 H   0  0  0  0  0  0  0  0  0  0  0  0
   39.0580   31.8420   38.8740 C   0  0  0  0  0  0  0  0  0  0  0  0
   39.3320   31.3270   37.6200 C   0  0  0  0  0  0  0  0  0  0  0  0
   39.9530   31.8610   36.9180 H   0  0  0  0  0  0  0  0  0  0  0  0
   38.8320   30.0970   37.1750 C   0  0  0  0  0  3  0  0  0  0  0  0
   38.0330   29.3920   38.0510 C   0  0  0  0  0  0  0  0  0  0  0  0
   37.4900   28.1820   37.7270 N   0  0  0  0  0  0  0  0  0  0  0  0
   36.7080   27.5370   38.6420 C   0  0  0  0  0  0  0  0  0  0  0  0
   36.3290   26.5770   38.2710 H   0  0  0  0  0  0  0  0  0  0  0  0
   36.4110   28.0170   39.9010 C   0  0  0  0  0  3  0  0  0  0  0  0
   36.9550   29.2550   40.2610 C   0  0  0  0  0  3  0  0  0  0  0  0
   37.7380   29.8740   39.3100 C   0  0  0  0  0  0  0  0  0  0  0  0
   38.2530   31.1030   39.7210 C   0  0  0  0  0  3  0  0  0  0  0  0
   44.8210   33.2090   39.1890 O   0  0  0  0  0  0  0  0  0  0  0  0
   43.9440   33.9450   40.1850 P   0  0  2  0  0  0  0  0  0  0  0  0
   43.1140   32.7990   41.1080 O   0  0  0  0  0  0  0  0  0  0  0  0
   42.4180   33.3020   41.6200 H   0  0  0  0  0  0  0  0  0  0  0  0
   44.9200   34.8500   41.2450 O   0  0  0  0  0  0  0  0  0  0  0  0
   46.9540   34.2550   42.2660 C   0  0  0  0  0  0  0  0  0  0  0  0
   45.5890   34.3690   42.3650 C   0  0  0  0  0  0  0  0  0  0  0  0
   44.9810   33.9970   43.5770 C   0  0  0  0  0  0  0  0  0  0  0  0
   45.7870   33.5510   44.5640 N   0  0  0  0  0  0  0  0  0  0  0  0
   47.1120   33.4500   44.4410 C   0  0  0  0  0  0  0  0  0  0  0  0
   47.6890   33.8020   43.2930 N   0  0  0  0  0  0  0  0  0  0  0  0
   43.9190   34.1020   43.6080 H   0  0  0  0  0  0  0  0  0  0  0  0
   47.7270   33.0840   45.2620 H   0  0  0  0  0  0  0  0  0  0  0  0
   47.6530   34.6280   41.0260 C   0  0  0  0  0  0  0  0  0  0  0  0
   47.0100   35.1130   40.2820 H   0  0  0  0  0  0  0  0  0  0  0  0
   48.0690   33.6950   40.5850 H   0  0  0  0  0  0  0  0  0  0  0  0
   48.7850   35.5540   41.3640 C   0  0  0  0  0  0  0  0  0  0  0  0
   48.7730   36.4520   40.7200 H   0  0  0  0  0  0  0  0  0  0  0  0
   49.7930   35.0790   41.2100 H   0  0  0  0  0  0  0  0  0  0  0  0
   48.7000   35.9090   42.4230 H   0  0  0  0  0  0  0  0  0  0  0  0
  1  2  1  0  0  0  0
  1 23  1  0  0  0  0
  2  3  1  0  0  0  0
  3  4  2  0  0  0  0
  3  8  1  0  0  0  0
  4  9  1  0  0  0  0
  5  4  1  0  0  0  0
  6  5  2  0  0  0  0
  7  6  1  0  0  0  0
  7  2  2  0  0  0  0
 10  6  1  0  0  0  0
 10 21  1  0  0  0  0
 11 10  2  0  0  0  0
 12 11  1  0  0  0  0
 13 11  1  0  0  0  0
 13 14  2  0  0  0  0
 14 20  1  0  0  0  0
 15 14  1  0  0  0  0
 15 16  2  0  0  0  0
 16 18  1  0  0  0  0
 17 16  1  0  0  0  0
 18 19  2  0  0  0  0
 20 21  2  0  0  0  0
 20 19  1  0  0  0  0
 23 22  2  6  0  0  0
 23 24  1  0  0  0  0
 23 26  1  0  0  0  0
 24 25  1  0  0  0  0
 26 28  1  0  0  0  0
 27 28  2  0  0  0  0
 27 32  1  0  0  0  0
 28 29  1  0  0  0  0
 29 33  1  0  0  0  0
 29 30  2  0  0  0  0
 31 30  1  0  0  0  0
 31 34  1  0  0  0  0
 32 31  2  0  0  0  0
 35 38  1  0  0  0  0
 35 27  1  0  0  0  0
 36 35  1  0  0  0  0
 37 35  1  0  0  0  0
 38 41  1  0  0  0  0
 39 38  1  0  0  0  0
 40 38  1  0  0  0  0
M  END
>  <minimizedAffinity>
-6.00447559

>  <minimizedRMSD>
2.84690714

$$$$
