
 OpenBabel03252500583D

 41 44  0  0  0  0  0  0  0  0999 V2000
   41.8050   35.3530   41.9610 O   0  0  0  0  0  0  0  0  0  0  0  0
   40.7400   34.7230   41.3420 C   0  0  0  0  0  0  0  0  0  0  0  0
   39.9570   35.4650   40.4760 C   0  0  0  0  0  0  0  0  0  0  0  0
   38.8700   34.9220   39.8110 C   0  0  0  0  0  0  0  0  0  0  0  0
   38.5810   33.6170   40.0310 N   0  0  0  0  0  0  0  0  0  0  0  0
   39.3370   32.8940   40.8700 C   0  0  0  0  0  0  0  0  0  0  0  0
   40.3730   33.4450   41.4930 N   0  0  0  0  0  0  0  0  0  0  0  0
   40.1550   36.5090   40.2750 H   0  0  0  0  0  0  0  0  0  0  0  0
   38.2660   35.5080   39.1380 H   0  0  0  0  0  0  0  0  0  0  0  0
   39.0010   31.4910   41.0870 C   0  0  0  0  0  0  0  0  0  0  0  0
   39.6750   30.7310   42.0240 C   0  0  0  0  0  0  0  0  0  0  0  0
   40.4700   31.1530   42.6220 H   0  0  0  0  0  0  0  0  0  0  0  0
   39.3850   29.3830   42.2630 C   0  0  0  0  0  3  0  0  0  0  0  0
   38.3740   28.8170   41.5150 C   0  0  0  0  0  0  0  0  0  0  0  0
   38.0040   27.5120   41.6610 N   0  0  0  0  0  0  0  0  0  0  0  0
   36.9950   27.0140   40.8870 C   0  0  0  0  0  0  0  0  0  0  0  0
   36.7870   25.9570   41.0920 H   0  0  0  0  0  0  0  0  0  0  0  0
   36.2980   27.7390   39.9430 C   0  0  0  0  0  3  0  0  0  0  0  0
   36.6560   29.0810   39.7700 C   0  0  0  0  0  3  0  0  0  0  0  0
   37.6800   29.5440   40.5700 C   0  0  0  0  0  0  0  0  0  0  0  0
   37.9950   30.8860   40.3570 C   0  0  0  0  0  3  0  0  0  0  0  0
   43.6620   35.3940   40.0830 O   0  0  0  0  0  0  0  0  0  0  0  0
   43.3710   34.9310   41.4990 P   0  0  2  0  0  0  0  0  0  0  0  0
   43.4790   33.2440   41.5360 O   0  0  0  0  0  0  0  0  0  0  0  0
   43.1070   32.9600   42.4190 H   0  0  0  0  0  0  0  0  0  0  0  0
   44.5550   35.5450   42.5550 O   0  0  0  0  0  0  0  0  0  0  0  0
   46.5560   34.3860   42.9810 C   0  0  0  0  0  0  0  0  0  0  0  0
   45.3340   34.8100   43.4410 C   0  0  0  0  0  0  0  0  0  0  0  0
   44.9690   34.4710   44.7560 C   0  0  0  0  0  0  0  0  0  0  0  0
   45.8520   33.7500   45.4790 N   0  0  0  0  0  0  0  0  0  0  0  0
   47.0350   33.3510   45.0070 C   0  0  0  0  0  0  0  0  0  0  0  0
   47.3810   33.6710   43.7610 N   0  0  0  0  0  0  0  0  0  0  0  0
   44.0110   34.8210   45.0690 H   0  0  0  0  0  0  0  0  0  0  0  0
   47.7190   32.7690   45.6220 H   0  0  0  0  0  0  0  0  0  0  0  0
   47.0000   34.7060   41.6140 C   0  0  0  0  0  0  0  0  0  0  0  0
   46.3220   35.3770   41.0740 H   0  0  0  0  0  0  0  0  0  0  0  0
   47.0730   33.7470   41.0560 H   0  0  0  0  0  0  0  0  0  0  0  0
   48.3590   35.3400   41.6790 C   0  0  0  0  0  0  0  0  0  0  0  0
   48.3940   36.2710   41.0850 H   0  0  0  0  0  0  0  0  0  0  0  0
   49.1650   34.6770   41.2590 H   0  0  0  0  0  0  0  0  0  0  0  0
   48.6150   35.6130   42.7340 H   0  0  0  0  0  0  0  0  0  0  0  0
  2  7  1  0  0  0  0
  2  1  1  0  0  0  0
  3  2  2  0  0  0  0
  4  5  2  0  0  0  0
  4  3  1  0  0  0  0
  5  6  1  0  0  0  0
  6 10  1  0  0  0  0
  6  7  2  0  0  0  0
  8  3  1  0  0  0  0
  9  4  1  0  0  0  0
 10 11  1  0  0  0  0
 11 13  2  0  0  0  0
 11 12  1  0  0  0  0
 14 15  1  0  0  0  0
 14 13  1  0  0  0  0
 16 17  1  0  0  0  0
 16 15  2  0  0  0  0
 18 16  1  0  0  0  0
 19 18  2  0  0  0  0
 19 20  1  0  0  0  0
 20 14  2  0  0  0  0
 21 20  1  0  0  0  0
 21 10  2  0  0  0  0
 23 22  2  6  0  0  0
 23 24  1  0  0  0  0
 23  1  1  0  0  0  0
 23 26  1  0  0  0  0
 24 25  1  0  0  0  0
 26 28  1  0  0  0  0
 27 28  2  0  0  0  0
 27 32  1  0  0  0  0
 28 29  1  0  0  0  0
 29 33  1  0  0  0  0
 29 30  2  0  0  0  0
 31 30  1  0  0  0  0
 31 34  1  0  0  0  0
 32 31  2  0  0  0  0
 35 38  1  0  0  0  0
 35 27  1  0  0  0  0
 36 35  1  0  0  0  0
 37 35  1  0  0  0  0
 38 41  1  0  0  0  0
 39 38  1  0  0  0  0
 40 38  1  0  0  0  0
M  END
>  <minimizedAffinity>
-6.34548712

>  <minimizedRMSD>
0.930815339

$$$$
