
 OpenBabel03252509093D

 44 48  0  0  0  0  0  0  0  0999 V2000
   47.9000   29.4550   34.9790 C   0  0  0  0  0  0  0  0  0  0  0  0
   47.6380   30.7830   34.8000 C   0  0  0  0  0  0  0  0  0  0  0  0
   47.4290   31.2770   33.5230 C   0  0  0  0  0  0  0  0  0  0  0  0
   47.4820   30.4390   32.4350 C   0  0  0  0  0  0  0  0  0  0  0  0
   47.7460   29.0770   32.5730 C   0  0  0  0  0  0  0  0  0  0  0  0
   47.9530   28.6040   33.8730 C   0  0  0  0  0  0  0  0  0  0  0  0
   47.2200   32.3270   33.3570 H   0  0  0  0  0  0  0  0  0  0  0  0
   47.3340   30.7320   31.4200 H   0  0  0  0  0  0  0  0  0  0  0  0
   47.8040   28.3640   31.7840 H   0  0  0  0  0  0  0  0  0  0  0  0
   48.1620   27.5430   34.0140 H   0  0  0  0  0  0  0  0  0  0  0  0
   44.8190   33.1960   38.3920 Cl  0  0  0  0  0  0  0  0  0  0  0  0
   46.2930   32.8760   37.5160 C   0  0  0  0  0  0  0  0  0  0  0  0
   46.3380   31.9480   36.5250 C   0  0  0  0  0  0  0  0  0  0  0  0
   47.5500   31.7530   35.8860 C   0  0  0  0  0  0  0  0  0  0  0  0
   48.6740   32.4590   36.2290 C   0  0  0  0  0  0  0  0  0  0  0  0
   48.6190   33.3870   37.2230 C   0  0  0  0  0  0  0  0  0  0  0  0
   47.4120   33.5900   37.8660 C   0  0  0  0  0  0  0  0  0  0  0  0
   49.6110   32.2880   35.7170 H   0  0  0  0  0  0  0  0  0  0  0  0
   49.5110   33.9270   37.4730 H   0  0  0  0  0  0  0  0  0  0  0  0
   47.4190   34.3390   38.6490 H   0  0  0  0  0  0  0  0  0  0  0  0
   43.4080   29.5560   36.7100 C   0  0  0  0  0  0  0  0  0  0  0  0
   44.5700   30.2620   37.0380 C   0  0  0  0  0  0  0  0  0  0  0  0
   45.1310   31.2050   36.1930 C   0  0  0  0  0  0  0  0  0  0  0  0
   44.4540   31.3630   35.0540 N   0  0  0  0  0  0  0  0  0  0  0  0
   43.3450   30.7050   34.7170 C   0  0  0  0  0  0  0  0  0  0  0  0
   42.8240   29.8050   35.5420 N   0  0  0  0  0  0  0  0  0  0  0  0
   43.0130   28.8380   37.3920 H   0  0  0  0  0  0  0  0  0  0  0  0
   45.0460   30.0520   38.0000 H   0  0  0  0  0  0  0  0  0  0  0  0
   42.9910   31.0180   33.7370 H   0  0  0  0  0  0  0  0  0  0  0  0
   48.1750   28.8030   36.5080 S   0  0  0  0  0  0  0  0  0  0  0  0
   46.8300   28.4500   37.1790 O   0  0  0  0  0  0  0  0  0  0  0  0
   48.8100   27.4210   36.2540 O   0  0  0  0  0  0  0  0  0  0  0  0
   49.0020   29.5610   37.7880 C   0  0  0  0  0  0  0  0  0  0  0  0
   48.5530   30.0840   38.9950 C   0  0  0  0  0  0  0  0  0  0  0  0
   47.4930   29.9960   39.1640 H   0  0  0  0  0  0  0  0  0  0  0  0
   49.2660   30.7220   39.9640 C   0  0  0  0  0  3  0  0  0  0  0  0
   50.6050   30.8760   39.7280 C   0  0  0  0  0  0  0  0  0  0  0  0
   51.3550   31.5000   40.6570 N   0  0  0  0  0  0  0  0  0  0  0  0
   52.6940   31.6780   40.4710 C   0  0  0  0  0  0  0  0  0  0  0  0
   53.2620   32.1870   41.2410 H   0  0  0  0  0  0  0  0  0  0  0  0
   53.3040   31.2120   39.3070 C   0  0  0  0  0  3  0  0  0  0  0  0
   52.5820   30.5560   38.3060 C   0  0  0  0  0  3  0  0  0  0  0  0
   51.2450   30.4370   38.6060 C   0  0  0  0  0  0  0  0  0  0  0  0
   50.4030   29.8080   37.7100 C   0  0  0  0  0  3  0  0  0  0  0  0
  1 30  1  0  0  0  0
  2  1  1  0  0  0  0
  2 14  1  0  0  0  0
  3  2  2  0  0  0  0
  4  5  2  0  0  0  0
  4  3  1  0  0  0  0
  5  6  1  0  0  0  0
  6 10  1  0  0  0  0
  6  1  2  0  0  0  0
  7  3  1  0  0  0  0
  8  4  1  0  0  0  0
  9  5  1  0  0  0  0
 12 17  1  0  0  0  0
 12 11  1  0  0  0  0
 13 12  2  0  0  0  0
 14 15  2  0  0  0  0
 14 13  1  0  0  0  0
 15 16  1  0  0  0  0
 16 19  1  0  0  0  0
 16 17  2  0  0  0  0
 17 20  1  0  0  0  0
 18 15  1  0  0  0  0
 21 22  1  0  0  0  0
 21 27  1  0  0  0  0
 22 28  1  0  0  0  0
 23 13  1  0  0  0  0
 23 22  2  0  0  0  0
 24 23  1  0  0  0  0
 25 24  2  0  0  0  0
 25 26  1  0  0  0  0
 26 21  2  0  0  0  0
 29 25  1  0  0  0  0
 30 31  2  0  0  0  0
 30 33  1  0  0  0  0
 32 30  2  0  0  0  0
 33 34  1  0  0  0  0
 34 35  1  0  0  0  0
 34 36  2  0  0  0  0
 37 36  1  0  0  0  0
 37 38  1  0  0  0  0
 39 38  2  0  0  0  0
 39 40  1  0  0  0  0
 41 39  1  0  0  0  0
 42 43  1  0  0  0  0
 42 41  2  0  0  0  0
 43 37  2  0  0  0  0
 44 33  2  0  0  0  0
 44 43  1  0  0  0  0
M  END
>  <minimizedAffinity>
-3.80925345

>  <minimizedRMSD>
7.08446741

$$$$
