
 OpenBabel03252504513D

 37 40  0  0  0  0  0  0  0  0999 V2000
   47.2470   34.3790   43.0110 C   0  0  0  0  0  0  0  0  0  0  0  0
   48.2320   33.7190   42.2580 C   0  0  0  0  0  0  0  0  0  0  0  0
   48.6720   32.4930   42.7330 C   0  0  0  0  0  0  0  0  0  0  0  0
   48.1220   32.0220   43.8870 N   0  0  0  0  0  0  0  0  0  0  0  0
   47.1880   32.6700   44.5830 C   0  0  0  0  0  0  0  0  0  0  0  0
   46.7360   33.8690   44.1470 N   0  0  0  0  0  0  0  0  0  0  0  0
   46.8310   35.3320   42.7400 H   0  0  0  0  0  0  0  0  0  0  0  0
   49.4240   31.9560   42.1870 H   0  0  0  0  0  0  0  0  0  0  0  0
   45.4450   30.1910   44.1970 Cl  0  0  0  0  0  0  0  0  0  0  0  0
   45.8450   30.9710   45.7370 C   0  0  0  0  0  0  0  0  0  0  0  0
   46.6500   32.1000   45.8090 C   0  0  0  0  0  0  0  0  0  0  0  0
   46.9400   32.6790   47.0180 C   0  0  0  0  0  0  0  0  0  0  0  0
   46.4200   32.1230   48.1790 C   0  0  0  0  0  0  0  0  0  0  0  0
   45.6260   31.0030   48.0670 C   0  0  0  0  0  0  0  0  0  0  0  0
   44.9940   30.3410   49.5570 Cl  0  0  0  0  0  0  0  0  0  0  0  0
   45.3120   30.3950   46.8750 C   0  0  0  0  0  0  0  0  0  0  0  0
   47.5700   33.5630   47.0850 H   0  0  0  0  0  0  0  0  0  0  0  0
   46.6410   32.5700   49.1410 H   0  0  0  0  0  0  0  0  0  0  0  0
   44.6810   29.5170   46.8750 H   0  0  0  0  0  0  0  0  0  0  0  0
   48.7120   34.3530   41.0570 C   0  0  0  0  0  0  0  0  0  0  0  0
   49.5590   33.7730   40.6390 H   0  0  0  0  0  0  0  0  0  0  0  0
   49.1080   35.3620   41.2600 H   0  0  0  0  0  0  0  0  0  0  0  0
   47.5790   34.5160   40.0840 C   0  0  0  0  0  0  0  0  0  0  0  0
   46.6670   34.1150   40.6070 H   0  0  0  0  0  0  0  0  0  0  0  0
   47.3720   35.6140   39.9990 H   0  0  0  0  0  0  0  0  0  0  0  0
   47.7860   33.8790   38.7800 C   0  0  0  0  0  0  0  0  0  0  0  0
   48.4450   34.4700   37.7210 C   0  0  0  0  0  0  0  0  0  0  0  0
   48.8430   35.4700   37.8410 H   0  0  0  0  0  0  0  0  0  0  0  0
   48.5620   33.7380   36.5460 C   0  0  0  0  0  3  0  0  0  0  0  0
   48.0290   32.4490   36.4430 C   0  0  0  0  0  0  0  0  0  0  0  0
   48.1430   31.7410   35.3030 N   0  0  0  0  0  0  0  0  0  0  0  0
   47.6420   30.4990   35.1740 C   0  0  0  0  0  0  0  0  0  0  0  0
   47.6970   29.8860   34.3030 H   0  0  0  0  0  0  0  0  0  0  0  0
   46.9880   29.9210   36.2360 C   0  0  0  0  0  3  0  0  0  0  0  0
   46.8350   30.5930   37.4380 C   0  0  0  0  0  3  0  0  0  0  0  0
   47.3760   31.8770   37.5110 C   0  0  0  0  0  0  0  0  0  0  0  0
   47.2500   32.5940   38.6920 C   0  0  0  0  0  3  0  0  0  0  0  0
  1  6  1  0  0  0  0
  2  3  1  0  0  0  0
  2  1  2  0  0  0  0
  3  4  2  0  0  0  0
  4  5  1  0  0  0  0
  5 11  1  0  0  0  0
  6  5  2  0  0  0  0
  7  1  1  0  0  0  0
  8  3  1  0  0  0  0
  9 10  1  0  0  0  0
 10 11  2  0  0  0  0
 10 16  1  0  0  0  0
 11 12  1  0  0  0  0
 12 17  1  0  0  0  0
 12 13  2  0  0  0  0
 13 18  1  0  0  0  0
 14 13  1  0  0  0  0
 14 15  1  0  0  0  0
 16 14  2  0  0  0  0
 19 16  1  0  0  0  0
 20 22  1  0  0  0  0
 20  2  1  0  0  0  0
 21 20  1  0  0  0  0
 23 24  1  0  0  0  0
 23 20  1  0  0  0  0
 25 23  1  0  0  0  0
 26 23  1  0  0  0  0
 27 28  1  0  0  0  0
 27 26  2  0  0  0  0
 29 27  1  0  0  0  0
 30 29  2  0  0  0  0
 30 36  1  0  0  0  0
 31 30  1  0  0  0  0
 32 31  2  0  0  0  0
 32 34  1  0  0  0  0
 33 32  1  0  0  0  0
 34 35  2  0  0  0  0
 35 36  1  0  0  0  0
 36 37  2  0  0  0  0
 37 26  1  0  0  0  0
M  END
>  <minimizedAffinity>
-5.3228507

>  <minimizedRMSD>
2.56641364

$$$$
